0
                    3D
 Structure written by MMmdl.
177186  0  0  1  0            999 V2000
  -30.7173  -14.3926   20.7354 C   0  0  0  0  0  0
  -30.4255  -12.3301   19.3887 C   0  0  0  0  0  0
  -29.4810  -12.5437   18.1876 C   0  0  0  0  0  0
  -28.0043  -12.3742   18.5972 C   0  0  0  0  0  0
  -27.6591  -13.1823   19.8708 C   0  0  2  0  0  0
  -28.6959  -12.8743   20.9736 C   0  0  0  0  0  0
  -25.2583  -13.8121   20.5594 C   0  0  0  0  0  0
  -24.1835  -13.0438   20.9188 C   0  0  0  0  0  0
  -24.6344  -11.6899   20.8748 C   0  0  0  0  0  0
  -23.9003  -10.4290   21.0431 C   0  0  0  0  0  0
  -24.3584   -9.4207   21.9192 C   0  0  0  0  0  0
  -23.6279   -8.2227   22.0752 C   0  0  0  0  0  0
  -22.4274   -8.0256   21.3533 C   0  0  0  0  0  0
  -21.9883   -9.0227   20.4656 C   0  0  0  0  0  0
  -22.7178  -10.2124   20.3081 C   0  0  0  0  0  0
  -21.6849   -6.0720   22.5271 C   0  0  0  0  0  0
  -21.3995   -6.5627   23.8200 C   0  0  0  0  0  0
  -21.3667   -5.6786   24.9173 C   0  0  0  0  0  0
  -21.6064   -4.3049   24.7221 C   0  0  0  0  0  0
  -21.8814   -3.8136   23.4343 C   0  0  0  0  0  0
  -21.9184   -4.6945   22.3400 C   0  0  0  0  0  0
  -22.7875  -13.5279   21.1848 C   0  0  0  0  0  0
  -22.1660   -4.2137   21.0974 F   0  0  0  0  0  0
  -21.5653   -3.4535   25.7741 F   0  0  0  0  0  0
  -30.0257  -13.2478   20.4704 N   0  0  0  0  0  0
  -26.2980  -12.9227   20.3293 N   0  0  0  0  0  0
  -25.9246  -11.6424   20.5735 N   0  0  0  0  0  0
  -22.0503  -12.8282   22.0407 N   0  0  0  0  0  0
  -25.4290  -15.1823   20.3821 N   0  0  0  0  0  0
  -31.7572  -14.6855   20.1362 O   0  0  0  0  0  0
  -21.6642   -6.8851   21.4229 O   0  0  0  0  0  0
  -22.3608  -14.5593   20.6692 O   0  0  0  0  0  0
  -24.6124  -31.8695   23.2132 C   0  0  0  0  0  0
  -25.9021  -32.4829   23.8409 C   0  0  1  0  0  0
  -27.2371  -27.4741   20.0752 C   0  0  0  0  0  0
  -25.5894  -33.8635   24.2351 N   0  0  0  0  0  0
  -23.3979  -30.4945   21.5529 C   0  0  2  0  0  0
  -24.8422  -28.9666   20.1149 C   0  0  0  0  0  0
  -22.7362  -29.4681   22.4998 C   0  0  0  0  0  0
  -18.0263  -28.1385   22.8479 C   0  0  0  0  0  0
  -24.1487  -36.7340   23.2637 C   0  0  0  0  0  0
  -25.9232  -30.8472   21.3580 C   0  0  0  0  0  0
  -26.0022  -29.4856   20.7040 C   0  0  0  0  0  0
  -27.2040  -28.7476   20.6788 C   0  0  0  0  0  0
  -26.0595  -26.9617   19.4837 C   0  0  0  0  0  0
  -24.8640  -27.7018   19.5023 C   0  0  0  0  0  0
  -23.6019  -29.8271   20.1677 C   0  0  0  0  0  0
  -25.4094  -36.3123   24.0342 C   0  0  1  0  0  0
  -20.5837  -28.3702   23.1357 C   0  0  2  0  0  0
  -20.6744  -26.9407   22.5549 C   0  0  0  0  0  0
  -19.5794  -26.6383   21.5261 C   0  0  0  0  0  0
  -18.1921  -26.7936   22.1576 C   0  0  0  0  0  0
  -19.1495  -28.8859   23.2903 C   0  0  0  0  0  0
  -18.9420  -30.1484   23.8866 C   0  0  0  0  0  0
  -17.6421  -30.6619   24.0511 C   0  0  0  0  0  0
  -25.9027  -34.9487   23.5140 C   0  0  0  0  0  0
  -16.5320  -29.9093   23.6306 C   0  0  0  0  0  0
  -16.7256  -28.6510   23.0341 C   0  0  0  0  0  0
  -26.4466  -31.6589   25.0719 C   0  0  0  0  0  0
  -25.3751  -31.3687   26.1481 C   0  0  0  0  0  0
  -27.0283  -30.3031   24.6063 C   0  0  0  0  0  0
  -27.6060  -32.4291   25.7475 C   0  0  0  0  0  0
  -27.5572  -37.1815   24.8462 C   0  0  0  0  0  0
  -21.4095  -29.3051   22.3729 N   0  0  0  0  0  0
  -26.4292  -37.3791   23.9399 N   0  0  0  0  0  0
  -24.6634  -31.0821   22.1008 N   0  0  0  0  0  0
  -23.4130  -28.8208   23.3029 O   0  0  0  0  0  0
  -28.4206  -26.7726   20.0731 O   0  0  0  0  0  0
  -26.5587  -34.8937   22.4701 O   0  0  0  0  0  0
  -23.5333  -32.1449   23.7548 O   0  0  0  0  0  0
  -25.4836  -21.8312   23.6177 C   0  0  0  0  0  0
  -25.3880  -20.4459   23.8261 C   0  0  0  0  0  0
  -25.3620  -19.5920   22.6935 C   0  0  0  0  0  0
  -25.5480  -22.3205   22.3072 C   0  0  0  0  0  0
  -25.2504  -20.2010   21.4151 C   0  0  0  0  0  0
  -28.4382  -15.6293   23.3990 C   0  0  0  0  0  0
  -29.1512  -17.3291   21.7787 C   0  0  0  0  0  0
  -27.0015  -16.2021   23.4210 C   0  0  0  0  0  0
  -27.7231  -17.9106   21.7363 C   0  0  0  0  0  0
  -29.0586  -15.8178   22.0012 C   0  0  1  0  0  0
  -25.3404  -19.9268   25.2515 C   0  0  0  0  0  0
  -24.9394  -19.4216   20.1475 C   0  0  0  0  0  0
  -25.4887  -18.0711   22.8546 C   0  0  0  0  0  0
  -25.9750  -23.7503   22.0542 C   0  0  0  0  0  0
  -27.4846  -23.9003   22.3384 C   0  0  0  0  0  0
  -28.0558  -25.2690   21.9500 C   0  0  0  0  0  0
  -28.3330  -25.3988   20.4406 C   0  0  0  0  0  0
  -25.3871  -21.5302   21.2293 N   0  0  0  0  0  0
  -30.3447  -15.1206   21.8126 N   0  0  0  0  0  0
  -26.9135  -17.6207   22.9616 N   0  3  1  0  0  0
  -31.4631  -12.4726   19.0815 H   0  0  0  0  0  0
  -30.3650  -11.2980   19.7367 H   0  0  0  0  0  0
  -29.7252  -11.8447   17.3864 H   0  0  0  0  0  0
  -29.6318  -13.5445   17.7782 H   0  0  0  0  0  0
  -27.8199  -11.3134   18.7717 H   0  0  0  0  0  0
  -27.3496  -12.6655   17.7754 H   0  0  0  0  0  0
  -27.7206  -14.2333   19.5937 H   0  0  0  0  0  0
  -28.6859  -11.8068   21.1977 H   0  0  0  0  0  0
  -28.4319  -13.3295   21.9190 H   0  0  0  0  0  0
  -25.2741   -9.5689   22.4749 H   0  0  0  0  0  0
  -23.9996   -7.4623   22.7472 H   0  0  0  0  0  0
  -21.0805   -8.8722   19.8977 H   0  0  0  0  0  0
  -22.3611  -10.9655   19.6194 H   0  0  0  0  0  0
  -21.1954   -7.6131   23.9687 H   0  0  0  0  0  0
  -21.1519   -6.0529   25.9077 H   0  0  0  0  0  0
  -22.0590   -2.7596   23.2840 H   0  0  0  0  0  0
  -22.4112  -11.9924   22.4738 H   0  0  0  0  0  0
  -21.1127  -13.1311   22.2620 H   0  0  0  0  0  0
  -24.5667  -15.6998   20.2499 H   0  0  0  0  0  0
  -26.1454  -15.4696   19.7283 H   0  0  0  0  0  0
  -26.7097  -32.5567   23.1192 H   0  0  0  0  0  0
  -25.0012  -33.9785   25.0475 H   0  0  0  0  0  0
  -22.6870  -31.3105   21.4149 H   0  0  0  0  0  0
  -23.3741  -35.9691   23.3331 H   0  0  0  0  0  0
  -24.3584  -36.8927   22.2048 H   0  0  0  0  0  0
  -23.7261  -37.6565   23.6629 H   0  0  0  0  0  0
  -26.0238  -31.6149   20.5886 H   0  0  0  0  0  0
  -26.8139  -30.9043   21.9721 H   0  0  0  0  0  0
  -28.1036  -29.1405   21.1330 H   0  0  0  0  0  0
  -26.0526  -26.0042   18.9848 H   0  0  0  0  0  0
  -23.9740  -27.3012   19.0377 H   0  0  0  0  0  0
  -23.7038  -30.6024   19.4075 H   0  0  0  0  0  0
  -22.7268  -29.2425   19.8780 H   0  0  0  0  0  0
  -25.1273  -36.1992   25.0836 H   0  0  0  0  0  0
  -20.9893  -28.3344   24.1501 H   0  0  0  0  0  0
  -20.5529  -26.2368   23.3780 H   0  0  0  0  0  0
  -21.6654  -26.7356   22.1465 H   0  0  0  0  0  0
  -19.6995  -25.6288   21.1300 H   0  0  0  0  0  0
  -19.6818  -27.3192   20.6798 H   0  0  0  0  0  0
  -17.4208  -26.6697   21.3954 H   0  0  0  0  0  0
  -18.0246  -26.0072   22.8954 H   0  0  0  0  0  0
  -19.7901  -30.7328   24.2183 H   0  0  0  0  0  0
  -17.4980  -31.6316   24.5076 H   0  0  0  0  0  0
  -15.5305  -30.2971   23.7625 H   0  0  0  0  0  0
  -15.8646  -28.0819   22.7080 H   0  0  0  0  0  0
  -24.5912  -30.7047   25.7819 H   0  0  0  0  0  0
  -24.8975  -32.2855   26.4951 H   0  0  0  0  0  0
  -25.8125  -30.8831   27.0215 H   0  0  0  0  0  0
  -26.2822  -29.6787   24.1136 H   0  0  0  0  0  0
  -27.4094  -29.7242   25.4488 H   0  0  0  0  0  0
  -27.8633  -30.4365   23.9179 H   0  0  0  0  0  0
  -27.2687  -33.3560   26.2123 H   0  0  0  0  0  0
  -28.3830  -32.6893   25.0274 H   0  0  0  0  0  0
  -28.0770  -31.8375   26.5332 H   0  0  0  0  0  0
  -28.2598  -38.0100   24.7474 H   0  0  0  0  0  0
  -28.1053  -36.2630   24.6322 H   0  0  0  0  0  0
  -27.2295  -37.1514   25.8868 H   0  0  0  0  0  0
  -20.9228  -29.8739   21.6933 H   0  0  0  0  0  0
  -26.0200  -38.2882   24.1383 H   0  0  0  0  0  0
  -25.5841  -22.5124   24.4519 H   0  0  0  0  0  0
  -28.4073  -14.5805   23.6913 H   0  0  0  0  0  0
  -29.0462  -16.1249   24.1569 H   0  0  0  0  0  0
  -29.7359  -17.8103   22.5650 H   0  0  0  0  0  0
  -29.6572  -17.5449   20.8368 H   0  0  0  0  0  0
  -26.6021  -16.1355   24.4336 H   0  0  0  0  0  0
  -26.3552  -15.5762   22.8073 H   0  0  0  0  0  0
  -27.2219  -17.4899   20.8665 H   0  0  0  0  0  0
  -27.7882  -18.9872   21.5801 H   0  0  0  0  0  0
  -28.3564  -15.4536   21.2573 H   0  0  0  0  0  0
  -25.2731  -20.7485   25.9655 H   0  0  0  0  0  0
  -26.2283  -19.3460   25.4959 H   0  0  0  0  0  0
  -24.4565  -19.3065   25.4015 H   0  0  0  0  0  0
  -23.9042  -19.0809   20.1762 H   0  0  0  0  0  0
  -25.5742  -18.5523   20.0140 H   0  0  0  0  0  0
  -25.0529  -20.0420   19.2574 H   0  0  0  0  0  0
  -24.9848  -17.5498   22.0407 H   0  0  0  0  0  0
  -24.9471  -17.7631   23.7485 H   0  0  0  0  0  0
  -25.3981  -24.4177   22.6942 H   0  0  0  0  0  0
  -25.7405  -24.0250   21.0253 H   0  0  0  0  0  0
  -28.0416  -23.1103   21.8326 H   0  0  0  0  0  0
  -27.6490  -23.7393   23.4041 H   0  0  0  0  0  0
  -28.9900  -25.4459   22.4856 H   0  0  0  0  0  0
  -27.3672  -26.0401   22.2980 H   0  0  0  0  0  0
  -29.2859  -24.9228   20.2088 H   0  0  0  0  0  0
  -27.5977  -24.8568   19.8491 H   0  0  0  0  0  0
  -31.1210  -15.6632   22.1627 H   0  0  0  0  0  0
  -27.3283  -18.1685   23.7010 H   0  0  0  0  0  0
  1 25  1  0  0  0
  1 30  2  0  0  0
  1 89  1  0  0  0
  2  3  1  0  0  0
  2 25  1  0  0  0
  2 91  1  0  0  0
  2 92  1  0  0  0
  3  4  1  0  0  0
  3 93  1  0  0  0
  3 94  1  0  0  0
  4  5  1  0  0  0
  4 95  1  0  0  0
  4 96  1  0  0  0
  5  6  1  0  0  0
  5 26  1  0  0  0
  5 97  1  0  0  0
  6 25  1  0  0  0
  6 98  1  0  0  0
  6 99  1  0  0  0
  7  8  2  0  0  0
  7 26  1  0  0  0
  7 29  1  0  0  0
  8  9  1  0  0  0
  8 22  1  0  0  0
  9 10  1  0  0  0
  9 27  2  0  0  0
 10 11  2  0  0  0
 10 15  1  0  0  0
 11 12  1  0  0  0
 11100  1  0  0  0
 12 13  2  0  0  0
 12101  1  0  0  0
 13 14  1  0  0  0
 13 31  1  0  0  0
 14 15  2  0  0  0
 14102  1  0  0  0
 15103  1  0  0  0
 16 17  2  0  0  0
 16 21  1  0  0  0
 16 31  1  0  0  0
 17 18  1  0  0  0
 17104  1  0  0  0
 18 19  2  0  0  0
 18105  1  0  0  0
 19 20  1  0  0  0
 19 24  1  0  0  0
 20 21  2  0  0  0
 20106  1  0  0  0
 21 23  1  0  0  0
 22 28  1  0  0  0
 22 32  2  0  0  0
 26 27  1  0  0  0
 28107  1  0  0  0
 28108  1  0  0  0
 29109  1  0  0  0
 29110  1  0  0  0
 33 34  1  0  0  0
 33 66  1  0  0  0
 33 70  2  0  0  0
 34 36  1  0  0  0
 34 59  1  0  0  0
 34111  1  0  0  0
 35 44  2  0  0  0
 35 45  1  0  0  0
 35 68  1  0  0  0
 36 56  1  0  0  0
 36112  1  0  0  0
 37 39  1  0  0  0
 37 47  1  0  0  0
 37 66  1  0  0  0
 37113  1  0  0  0
 38 43  2  0  0  0
 38 46  1  0  0  0
 38 47  1  0  0  0
 39 64  1  0  0  0
 39 67  2  0  0  0
 40 52  1  0  0  0
 40 53  2  0  0  0
 40 58  1  0  0  0
 41114  1  0  0  0
 41115  1  0  0  0
 41116  1  0  0  0
 41 48  1  0  0  0
 42 43  1  0  0  0
 42 66  1  0  0  0
 42117  1  0  0  0
 42118  1  0  0  0
 43 44  1  0  0  0
 44119  1  0  0  0
 45 46  2  0  0  0
 45120  1  0  0  0
 46121  1  0  0  0
 47122  1  0  0  0
 47123  1  0  0  0
 48 56  1  0  0  0
 48 65  1  0  0  0
 48124  1  0  0  0
 49 50  1  0  0  0
 49 53  1  0  0  0
 49 64  1  0  0  0
 49125  1  0  0  0
 50 51  1  0  0  0
 50126  1  0  0  0
 50127  1  0  0  0
 51 52  1  0  0  0
 51128  1  0  0  0
 51129  1  0  0  0
 52130  1  0  0  0
 52131  1  0  0  0
 53 54  1  0  0  0
 54 55  2  0  0  0
 54132  1  0  0  0
 55 57  1  0  0  0
 55133  1  0  0  0
 56 69  2  0  0  0
 57 58  2  0  0  0
 57134  1  0  0  0
 58135  1  0  0  0
 59 60  1  0  0  0
 59 61  1  0  0  0
 59 62  1  0  0  0
 60136  1  0  0  0
 60137  1  0  0  0
 60138  1  0  0  0
 61139  1  0  0  0
 61140  1  0  0  0
 61141  1  0  0  0
 62142  1  0  0  0
 62143  1  0  0  0
 62144  1  0  0  0
 63 65  1  0  0  0
 63145  1  0  0  0
 63146  1  0  0  0
 63147  1  0  0  0
 64148  1  0  0  0
 65149  1  0  0  0
 68 87  1  0  0  0
 71 72  2  0  0  0
 71 74  1  0  0  0
 71150  1  0  0  0
 72 73  1  0  0  0
 72 81  1  0  0  0
 73 75  2  0  0  0
 73 83  1  0  0  0
 74 84  1  0  0  0
 74 88  2  0  0  0
 75 82  1  0  0  0
 75 88  1  0  0  0
 76 78  1  0  0  0
 76 80  1  0  0  0
 76151  1  0  0  0
 76152  1  0  0  0
 77 79  1  0  0  0
 77 80  1  0  0  0
 77153  1  0  0  0
 77154  1  0  0  0
 78 90  1  0  0  0
 78155  1  0  0  0
 78156  1  0  0  0
 79 90  1  0  0  0
 79157  1  0  0  0
 79158  1  0  0  0
 80 89  1  0  0  0
 80159  1  0  0  0
 81160  1  0  0  0
 81161  1  0  0  0
 81162  1  0  0  0
 82163  1  0  0  0
 82164  1  0  0  0
 82165  1  0  0  0
 83166  1  0  0  0
 83167  1  0  0  0
 83 90  1  0  0  0
 84 85  1  0  0  0
 84168  1  0  0  0
 84169  1  0  0  0
 85 86  1  0  0  0
 85170  1  0  0  0
 85171  1  0  0  0
 86 87  1  0  0  0
 86172  1  0  0  0
 86173  1  0  0  0
 87174  1  0  0  0
 87175  1  0  0  0
 89176  1  0  0  0
 90177  1  0  0  0
M  CHG  1  90   1
M  ISO  4   1 100  68 101  87 101  89 100
M  END
> <chiral flag>
0

> <version>
0

> <s_m_source_file>
/data/baiqing/PycharmProjects/Reinvent-master-3.2/result/LINK_invent/BTK/process_docking_weight1_custom_sum_contain_oxygen_bond_distance_aromatic_linkinvent_7_9_3/rearranged_h_0122.sdf

> <i_m_source_file_index>
1

> <r_mmod_Potential_Energy-OPLS-2005>
-210.844360351562

> <r_mmod_Stretch_Energy-OPLS-2005>
37.5338020324707

> <r_mmod_Bend_Energy-OPLS-2005>
110.652900695801

> <r_mmod_Torsional_Energy-OPLS-2005>
294.176818847656

> <r_mmod_Improper_Torsional_Energy-OPLS-2005>
12.2245407104492

> <r_mmod_Van_der_Waal_Energy-OPLS-2005>
155.751922607422

> <r_mmod_Electrostatic_Energy-OPLS-2005>
-389.972015380859

> <r_mmod_Solvation_Energy-OPLS-2005>
-441.567810058594

> <b_mmod_Minimization_Converged-OPLS-2005>
0

> <r_mmod_RMS_Derivative-OPLS-2005>
2.46515464782715

$$$$
1
                    3D
 Structure written by MMmdl.
161169  0  0  1  0            999 V2000
  -30.7236  -14.4117   20.6268 C   0  0  0  0  0  0
  -30.3888  -12.2835   19.4424 C   0  0  0  0  0  0
  -29.5036  -12.5816   18.2143 C   0  0  0  0  0  0
  -28.0167  -12.4283   18.5920 C   0  0  0  0  0  0
  -27.6577  -13.2260   19.8750 C   0  0  2  0  0  0
  -28.6787  -12.9757   21.0082 C   0  0  0  0  0  0
  -25.2512  -13.8176   20.5607 C   0  0  0  0  0  0
  -24.1801  -13.0445   20.9151 C   0  0  0  0  0  0
  -24.6379  -11.6918   20.8644 C   0  0  0  0  0  0
  -23.9017  -10.4296   21.0328 C   0  0  0  0  0  0
  -24.3627   -9.4237   21.9107 C   0  0  0  0  0  0
  -23.6328   -8.2246   22.0695 C   0  0  0  0  0  0
  -22.4262   -8.0296   21.3544 C   0  0  0  0  0  0
  -21.9856   -9.0240   20.4630 C   0  0  0  0  0  0
  -22.7150  -10.2140   20.3018 C   0  0  0  0  0  0
  -21.6841   -6.0764   22.5276 C   0  0  0  0  0  0
  -21.4007   -6.5633   23.8214 C   0  0  0  0  0  0
  -21.3634   -5.6781   24.9173 C   0  0  0  0  0  0
  -21.6008   -4.3031   24.7211 C   0  0  0  0  0  0
  -21.8832   -3.8152   23.4336 C   0  0  0  0  0  0
  -21.9215   -4.6985   22.3397 C   0  0  0  0  0  0
  -22.7811  -13.5258   21.1825 C   0  0  0  0  0  0
  -22.1697   -4.2180   21.0985 F   0  0  0  0  0  0
  -21.5623   -3.4519   25.7737 F   0  0  0  0  0  0
  -30.0199  -13.2570   20.4837 N   0  0  0  0  0  0
  -26.2967  -12.9409   20.3241 N   0  0  0  0  0  0
  -25.9299  -11.6551   20.5586 N   0  0  0  0  0  0
  -22.0457  -12.8306   22.0415 N   0  0  0  0  0  0
  -25.4173  -15.1872   20.3935 N   0  0  0  0  0  0
  -31.8381  -14.5527   20.1288 O   0  0  0  0  0  0
  -21.6645   -6.8874   21.4218 O   0  0  0  0  0  0
  -22.3502  -14.5526   20.6622 O   0  0  0  0  0  0
  -24.6159  -31.8666   23.2089 C   0  0  0  0  0  0
  -25.9072  -32.4792   23.8336 C   0  0  1  0  0  0
  -27.2039  -27.3941   20.0786 C   0  0  0  0  0  0
  -25.5926  -33.8588   24.2278 N   0  0  0  0  0  0
  -23.3997  -30.4997   21.5500 C   0  0  2  0  0  0
  -24.8359  -28.9602   20.1176 C   0  0  0  0  0  0
  -22.7366  -29.4693   22.4947 C   0  0  0  0  0  0
  -18.0276  -28.1385   22.8487 C   0  0  0  0  0  0
  -24.1503  -36.7257   23.2644 C   0  0  0  0  0  0
  -25.9345  -30.8183   21.3677 C   0  0  0  0  0  0
  -26.0025  -29.4514   20.7115 C   0  0  0  0  0  0
  -27.1874  -28.6739   20.6944 C   0  0  0  0  0  0
  -25.9911  -26.9020   19.5499 C   0  0  0  0  0  0
  -24.8249  -27.6818   19.5431 C   0  0  0  0  0  0
  -23.6062  -29.8372   20.1637 C   0  0  0  0  0  0
  -25.4133  -36.3063   24.0326 C   0  0  1  0  0  0
  -20.5854  -28.3668   23.1306 C   0  0  2  0  0  0
  -20.6761  -26.9403   22.5417 C   0  0  0  0  0  0
  -19.5753  -26.6407   21.5197 C   0  0  0  0  0  0
  -18.1929  -26.7949   22.1600 C   0  0  0  0  0  0
  -19.1523  -28.8837   23.2905 C   0  0  0  0  0  0
  -18.9460  -30.1448   23.8916 C   0  0  0  0  0  0
  -17.6468  -30.6584   24.0592 C   0  0  0  0  0  0
  -25.9059  -34.9457   23.5093 C   0  0  0  0  0  0
  -16.5361  -29.9093   23.6345 C   0  0  0  0  0  0
  -16.7269  -28.6514   23.0351 C   0  0  0  0  0  0
  -26.4528  -31.6574   25.0654 C   0  0  0  0  0  0
  -25.3794  -31.3714   26.1412 C   0  0  0  0  0  0
  -27.0351  -30.2996   24.6058 C   0  0  0  0  0  0
  -27.6124  -32.4287   25.7379 C   0  0  0  0  0  0
  -27.5588  -37.1771   24.8463 C   0  0  0  0  0  0
  -21.4094  -29.3066   22.3695 N   0  0  0  0  0  0
  -26.4290  -37.3759   23.9418 N   0  0  0  0  0  0
  -24.6683  -31.0737   22.1002 N   0  0  0  0  0  0
  -23.4135  -28.8236   23.2998 O   0  0  0  0  0  0
  -28.4062  -26.7020   20.0378 O   0  0  0  0  0  0
  -26.5611  -34.8913   22.4651 O   0  0  0  0  0  0
  -23.5350  -32.1455   23.7469 O   0  0  0  0  0  0
  -31.3910  -17.3466   20.3180 C   0  0  0  0  0  0
  -31.3659  -18.6511   19.8101 C   0  0  0  0  0  0
  -30.2384  -16.8195   20.9619 C   0  0  0  0  0  0
  -30.2069  -19.4183   19.9811 C   0  0  0  0  0  0
  -29.1784  -17.7311   21.2140 C   0  0  0  0  0  0
  -27.9617  -17.4074   22.0658 C   0  0  0  0  0  0
  -27.9720  -25.3120   17.8917 C   0  0  0  0  0  0
  -30.0446  -20.7631   19.2937 C   0  0  0  0  0  0
  -29.8057  -21.9278   20.2743 C   0  0  0  0  0  0
  -28.6593  -24.1893   20.1279 C   0  0  0  0  0  0
  -28.6517  -25.4901   19.2762 C   0  0  2  0  0  0
  -29.1538  -18.9801   20.6977 N   0  0  0  0  0  0
  -30.0877  -15.4220   21.2675 N   0  0  0  0  0  0
  -29.6403  -23.2177   19.5592 N   0  3  0  0  0  0
  -31.4497  -12.3184   19.1873 H   0  0  0  0  0  0
  -30.2057  -11.2690   19.7995 H   0  0  0  0  0  0
  -29.7648  -11.9376   17.3768 H   0  0  0  0  0  0
  -29.6818  -13.6023   17.8678 H   0  0  0  0  0  0
  -27.7994  -11.3702   18.7339 H   0  0  0  0  0  0
  -27.3865  -12.7609   17.7663 H   0  0  0  0  0  0
  -27.7172  -14.2861   19.6176 H   0  0  0  0  0  0
  -28.6289  -11.9356   21.3366 H   0  0  0  0  0  0
  -28.4301  -13.5696   21.8888 H   0  0  0  0  0  0
  -25.2784   -9.5769   22.4655 H   0  0  0  0  0  0
  -24.0081   -7.4621   22.7408 H   0  0  0  0  0  0
  -21.0785   -8.8749   19.8966 H   0  0  0  0  0  0
  -22.3555  -10.9696   19.6153 H   0  0  0  0  0  0
  -21.1980   -7.6129   23.9742 H   0  0  0  0  0  0
  -21.1415   -6.0479   25.9072 H   0  0  0  0  0  0
  -22.0642   -2.7623   23.2812 H   0  0  0  0  0  0
  -22.4183  -12.0047   22.4882 H   0  0  0  0  0  0
  -21.1059  -13.1327   22.2575 H   0  0  0  0  0  0
  -24.6231  -15.8163   20.4449 H   0  0  0  0  0  0
  -26.2258  -15.5903   19.9385 H   0  0  0  0  0  0
  -26.7105  -32.5485   23.1047 H   0  0  0  0  0  0
  -25.0102  -33.9757   25.0443 H   0  0  0  0  0  0
  -22.6891  -31.3176   21.4125 H   0  0  0  0  0  0
  -23.3763  -35.9584   23.3317 H   0  0  0  0  0  0
  -24.3593  -36.8865   22.2047 H   0  0  0  0  0  0
  -23.7254  -37.6464   23.6663 H   0  0  0  0  0  0
  -26.0492  -31.5823   20.5981 H   0  0  0  0  0  0
  -26.8225  -30.8667   21.9859 H   0  0  0  0  0  0
  -28.0890  -29.0484   21.1566 H   0  0  0  0  0  0
  -25.8832  -25.9042   19.1643 H   0  0  0  0  0  0
  -23.9185  -27.2779   19.1147 H   0  0  0  0  0  0
  -23.7192  -30.6116   19.4037 H   0  0  0  0  0  0
  -22.7258  -29.2646   19.8651 H   0  0  0  0  0  0
  -25.1315  -36.1897   25.0803 H   0  0  0  0  0  0
  -20.9968  -28.3280   24.1421 H   0  0  0  0  0  0
  -20.5647  -26.2289   23.3613 H   0  0  0  0  0  0
  -21.6651  -26.7476   22.1241 H   0  0  0  0  0  0
  -19.6940  -25.6319   21.1232 H   0  0  0  0  0  0
  -19.6725  -27.3223   20.6726 H   0  0  0  0  0  0
  -17.4208  -26.6694   21.3997 H   0  0  0  0  0  0
  -18.0351  -26.0088   22.8983 H   0  0  0  0  0  0
  -19.7929  -30.7270   24.2295 H   0  0  0  0  0  0
  -17.5028  -31.6275   24.5174 H   0  0  0  0  0  0
  -15.5369  -30.3018   23.7672 H   0  0  0  0  0  0
  -15.8649  -28.0870   22.7056 H   0  0  0  0  0  0
  -24.5962  -30.7067   25.7754 H   0  0  0  0  0  0
  -24.9005  -32.2888   26.4814 H   0  0  0  0  0  0
  -25.8150  -30.8908   27.0168 H   0  0  0  0  0  0
  -26.2870  -29.6688   24.1235 H   0  0  0  0  0  0
  -27.4239  -29.7314   25.4511 H   0  0  0  0  0  0
  -27.8657  -30.4279   23.9115 H   0  0  0  0  0  0
  -27.2753  -33.3535   26.2052 H   0  0  0  0  0  0
  -28.3845  -32.6917   25.0142 H   0  0  0  0  0  0
  -28.0886  -31.8351   26.5184 H   0  0  0  0  0  0
  -28.2623  -38.0050   24.7487 H   0  0  0  0  0  0
  -28.1060  -36.2578   24.6302 H   0  0  0  0  0  0
  -27.2312  -37.1444   25.8870 H   0  0  0  0  0  0
  -20.9195  -29.8770   21.6930 H   0  0  0  0  0  0
  -26.0167  -38.2820   24.1459 H   0  0  0  0  0  0
  -32.2972  -16.7869   20.1451 H   0  0  0  0  0  0
  -32.2108  -19.0202   19.2443 H   0  0  0  0  0  0
  -28.1243  -16.5746   22.7517 H   0  0  0  0  0  0
  -27.0956  -17.1879   21.4444 H   0  0  0  0  0  0
  -27.7099  -18.2779   22.6737 H   0  0  0  0  0  0
  -28.5994  -24.7132   17.2315 H   0  0  0  0  0  0
  -27.7950  -26.2643   17.3921 H   0  0  0  0  0  0
  -27.0262  -24.7707   17.9433 H   0  0  0  0  0  0
  -29.2053  -20.6835   18.6046 H   0  0  0  0  0  0
  -30.9263  -20.9571   18.6819 H   0  0  0  0  0  0
  -30.6394  -21.9934   20.9785 H   0  0  0  0  0  0
  -28.9190  -21.7002   20.8651 H   0  0  0  0  0  0
  -27.6584  -23.7491   20.1804 H   0  0  0  0  0  0
  -28.9442  -24.4131   21.1584 H   0  0  0  0  0  0
  -29.7010  -25.6615   19.0252 H   0  0  0  0  0  0
  -29.2175  -15.1540   21.7017 H   0  0  0  0  0  0
  -29.3646  -23.0024   18.6119 H   0  0  0  0  0  0
  -30.5502  -23.6594   19.5034 H   0  0  0  0  0  0
  1 25  1  0  0  0
  1 30  2  0  0  0
  1 83  1  0  0  0
  2  3  1  0  0  0
  2 25  1  0  0  0
  2 85  1  0  0  0
  2 86  1  0  0  0
  3  4  1  0  0  0
  3 87  1  0  0  0
  3 88  1  0  0  0
  4  5  1  0  0  0
  4 89  1  0  0  0
  4 90  1  0  0  0
  5  6  1  0  0  0
  5 26  1  0  0  0
  5 91  1  0  0  0
  6 25  1  0  0  0
  6 92  1  0  0  0
  6 93  1  0  0  0
  7  8  2  0  0  0
  7 26  1  0  0  0
  7 29  1  0  0  0
  8  9  1  0  0  0
  8 22  1  0  0  0
  9 10  1  0  0  0
  9 27  2  0  0  0
 10 11  2  0  0  0
 10 15  1  0  0  0
 11 12  1  0  0  0
 11 94  1  0  0  0
 12 13  2  0  0  0
 12 95  1  0  0  0
 13 14  1  0  0  0
 13 31  1  0  0  0
 14 15  2  0  0  0
 14 96  1  0  0  0
 15 97  1  0  0  0
 16 17  2  0  0  0
 16 21  1  0  0  0
 16 31  1  0  0  0
 17 18  1  0  0  0
 17 98  1  0  0  0
 18 19  2  0  0  0
 18 99  1  0  0  0
 19 20  1  0  0  0
 19 24  1  0  0  0
 20 21  2  0  0  0
 20100  1  0  0  0
 21 23  1  0  0  0
 22 28  1  0  0  0
 22 32  2  0  0  0
 26 27  1  0  0  0
 28101  1  0  0  0
 28102  1  0  0  0
 29103  1  0  0  0
 29104  1  0  0  0
 33 34  1  0  0  0
 33 66  1  0  0  0
 33 70  2  0  0  0
 34 36  1  0  0  0
 34 59  1  0  0  0
 34105  1  0  0  0
 35 44  2  0  0  0
 35 45  1  0  0  0
 35 68  1  0  0  0
 36 56  1  0  0  0
 36106  1  0  0  0
 37 39  1  0  0  0
 37 47  1  0  0  0
 37 66  1  0  0  0
 37107  1  0  0  0
 38 43  2  0  0  0
 38 46  1  0  0  0
 38 47  1  0  0  0
 39 64  1  0  0  0
 39 67  2  0  0  0
 40 52  1  0  0  0
 40 53  2  0  0  0
 40 58  1  0  0  0
 41108  1  0  0  0
 41109  1  0  0  0
 41110  1  0  0  0
 41 48  1  0  0  0
 42 43  1  0  0  0
 42 66  1  0  0  0
 42111  1  0  0  0
 42112  1  0  0  0
 43 44  1  0  0  0
 44113  1  0  0  0
 45 46  2  0  0  0
 45114  1  0  0  0
 46115  1  0  0  0
 47116  1  0  0  0
 47117  1  0  0  0
 48 56  1  0  0  0
 48 65  1  0  0  0
 48118  1  0  0  0
 49 50  1  0  0  0
 49 53  1  0  0  0
 49 64  1  0  0  0
 49119  1  0  0  0
 50 51  1  0  0  0
 50120  1  0  0  0
 50121  1  0  0  0
 51 52  1  0  0  0
 51122  1  0  0  0
 51123  1  0  0  0
 52124  1  0  0  0
 52125  1  0  0  0
 53 54  1  0  0  0
 54 55  2  0  0  0
 54126  1  0  0  0
 55 57  1  0  0  0
 55127  1  0  0  0
 56 69  2  0  0  0
 57 58  2  0  0  0
 57128  1  0  0  0
 58129  1  0  0  0
 59 60  1  0  0  0
 59 61  1  0  0  0
 59 62  1  0  0  0
 60130  1  0  0  0
 60131  1  0  0  0
 60132  1  0  0  0
 61133  1  0  0  0
 61134  1  0  0  0
 61135  1  0  0  0
 62136  1  0  0  0
 62137  1  0  0  0
 62138  1  0  0  0
 63 65  1  0  0  0
 63139  1  0  0  0
 63140  1  0  0  0
 63141  1  0  0  0
 64142  1  0  0  0
 65143  1  0  0  0
 68 81  1  0  0  0
 71 72  2  0  0  0
 71 73  1  0  0  0
 71144  1  0  0  0
 72 74  1  0  0  0
 72145  1  0  0  0
 73 75  2  0  0  0
 73 83  1  0  0  0
 74 78  1  0  0  0
 74 82  2  0  0  0
 75 76  1  0  0  0
 75 82  1  0  0  0
 76146  1  0  0  0
 76147  1  0  0  0
 76148  1  0  0  0
 77149  1  0  0  0
 77150  1  0  0  0
 77151  1  0  0  0
 77 81  1  0  0  0
 78 79  1  0  0  0
 78152  1  0  0  0
 78153  1  0  0  0
 79 84  1  0  0  0
 79154  1  0  0  0
 79155  1  0  0  0
 80 81  1  0  0  0
 80 84  1  0  0  0
 80156  1  0  0  0
 80157  1  0  0  0
 81158  1  0  0  0
 83159  1  0  0  0
 84160  1  0  0  0
 84161  1  0  0  0
M  CHG  1  84   1
M  ISO  4   1 100  68 101  81 101  83 100
M  END
> <chiral flag>
0

> <version>
0

> <s_m_source_file>
/data/baiqing/PycharmProjects/Reinvent-master-3.2/result/LINK_invent/BTK/process_docking_weight1_custom_sum_contain_oxygen_bond_distance_aromatic_linkinvent_7_9_3/rearranged_h_0122.sdf

> <i_m_source_file_index>
2

> <r_mmod_Potential_Energy-OPLS-2005>
-345.800842285156

> <r_mmod_Stretch_Energy-OPLS-2005>
40.6177024841309

> <r_mmod_Bend_Energy-OPLS-2005>
131.390808105469

> <r_mmod_Torsional_Energy-OPLS-2005>
227.349884033203

> <r_mmod_Improper_Torsional_Energy-OPLS-2005>
5.36376142501831

> <r_mmod_Van_der_Waal_Energy-OPLS-2005>
170.401885986328

> <r_mmod_Electrostatic_Energy-OPLS-2005>
-480.094512939453

> <r_mmod_Solvation_Energy-OPLS-2005>
-456.571807861328

> <b_mmod_Minimization_Converged-OPLS-2005>
0

> <r_mmod_RMS_Derivative-OPLS-2005>
6.57208490371704

$$$$
2
                    3D
 Structure written by MMmdl.
173182  0  0  1  0            999 V2000
  -30.6502  -14.7359   20.5041 C   0  0  0  0  0  0
  -30.4301  -12.4679   19.4518 C   0  0  0  0  0  0
  -29.4958  -12.5290   18.2249 C   0  0  0  0  0  0
  -28.0270  -12.3476   18.6520 C   0  0  0  0  0  0
  -27.6427  -13.2411   19.8595 C   0  0  2  0  0  0
  -28.6990  -13.1676   20.9844 C   0  0  0  0  0  0
  -25.2497  -13.8254   20.5743 C   0  0  0  0  0  0
  -24.1793  -13.0456   20.9247 C   0  0  0  0  0  0
  -24.6405  -11.6951   20.8765 C   0  0  0  0  0  0
  -23.9086  -10.4316   21.0424 C   0  0  0  0  0  0
  -24.3640   -9.4233   21.9192 C   0  0  0  0  0  0
  -23.6323   -8.2263   22.0761 C   0  0  0  0  0  0
  -22.4311   -8.0295   21.3548 C   0  0  0  0  0  0
  -21.9935   -9.0276   20.4654 C   0  0  0  0  0  0
  -22.7256  -10.2154   20.3074 C   0  0  0  0  0  0
  -21.6868   -6.0749   22.5284 C   0  0  0  0  0  0
  -21.4006   -6.5644   23.8218 C   0  0  0  0  0  0
  -21.3676   -5.6790   24.9178 C   0  0  0  0  0  0
  -21.6064   -4.3059   24.7212 C   0  0  0  0  0  0
  -21.8826   -3.8153   23.4330 C   0  0  0  0  0  0
  -21.9204   -4.6975   22.3394 C   0  0  0  0  0  0
  -22.7820  -13.5224   21.1911 C   0  0  0  0  0  0
  -22.1667   -4.2179   21.0970 F   0  0  0  0  0  0
  -21.5649   -3.4531   25.7719 F   0  0  0  0  0  0
  -29.9937  -13.5287   20.3895 N   0  0  0  0  0  0
  -26.2943  -12.9467   20.3374 N   0  0  0  0  0  0
  -25.9345  -11.6601   20.5811 N   0  0  0  0  0  0
  -22.0490  -12.8172   22.0463 N   0  0  0  0  0  0
  -25.4184  -15.1964   20.4114 N   0  0  0  0  0  0
  -31.8491  -14.8263   20.2149 O   0  0  0  0  0  0
  -21.6659   -6.8900   21.4254 O   0  0  0  0  0  0
  -22.3492  -14.5554   20.6810 O   0  0  0  0  0  0
  -24.6331  -31.8514   23.1992 C   0  0  0  0  0  0
  -25.9147  -32.4721   23.8344 C   0  0  1  0  0  0
  -27.2186  -27.2485   20.1204 C   0  0  0  0  0  0
  -25.5920  -33.8524   24.2226 N   0  0  0  0  0  0
  -23.4288  -30.4777   21.5399 C   0  0  2  0  0  0
  -24.8746  -28.9272   20.1075 C   0  0  0  0  0  0
  -22.7499  -29.4601   22.4884 C   0  0  0  0  0  0
  -18.0273  -28.1398   22.8486 C   0  0  0  0  0  0
  -24.1466  -36.7317   23.2642 C   0  0  0  0  0  0
  -25.9759  -30.7628   21.3775 C   0  0  0  0  0  0
  -26.0466  -29.3838   20.7225 C   0  0  0  0  0  0
  -27.2160  -28.5568   20.7210 C   0  0  0  0  0  0
  -26.0213  -26.8735   19.4643 C   0  0  0  0  0  0
  -24.8701  -27.6817   19.4683 C   0  0  0  0  0  0
  -23.6466  -29.8142   20.1557 C   0  0  0  0  0  0
  -25.4090  -36.3040   24.0305 C   0  0  1  0  0  0
  -20.5887  -28.3706   23.1258 C   0  0  2  0  0  0
  -20.6747  -26.9418   22.5413 C   0  0  0  0  0  0
  -19.5731  -26.6380   21.5207 C   0  0  0  0  0  0
  -18.1911  -26.7938   22.1628 C   0  0  0  0  0  0
  -19.1534  -28.8866   23.2867 C   0  0  0  0  0  0
  -18.9459  -30.1454   23.8900 C   0  0  0  0  0  0
  -17.6464  -30.6594   24.0566 C   0  0  0  0  0  0
  -25.9051  -34.9404   23.5070 C   0  0  0  0  0  0
  -16.5347  -29.9101   23.6333 C   0  0  0  0  0  0
  -16.7268  -28.6520   23.0365 C   0  0  0  0  0  0
  -26.4512  -31.6583   25.0763 C   0  0  0  0  0  0
  -25.3754  -31.3711   26.1500 C   0  0  0  0  0  0
  -27.0383  -30.2989   24.6297 C   0  0  0  0  0  0
  -27.6029  -32.4372   25.7548 C   0  0  0  0  0  0
  -27.5548  -37.1796   24.8448 C   0  0  0  0  0  0
  -21.4201  -29.3054   22.3640 N   0  0  0  0  0  0
  -26.4244  -37.3759   23.9418 N   0  0  0  0  0  0
  -24.6986  -31.0495   22.0954 N   0  0  0  0  0  0
  -23.4201  -28.8111   23.2959 O   0  0  0  0  0  0
  -28.3280  -26.3674   20.2079 O   0  0  0  0  0  0
  -26.5651  -34.8879   22.4655 O   0  0  0  0  0  0
  -23.5472  -32.1343   23.7294 O   0  0  0  0  0  0
  -29.0625  -19.4976   20.6890 C   0  0  0  0  0  0
  -29.3807  -20.8802   20.3189 C   0  0  0  0  0  0
  -30.1829  -18.6723   20.7974 C   0  0  0  0  0  0
  -30.7398  -20.8307   20.1396 C   0  0  0  0  0  0
  -33.3503  -18.9535   21.7404 C   0  0  0  0  0  0
  -34.4204  -17.9052   21.4146 C   0  0  0  0  0  0
  -33.0110  -18.0080   19.4869 C   0  0  0  0  0  0
  -32.6774  -19.2102   20.3853 C   0  0  1  0  0  0
  -31.6371  -21.9386   19.6621 C   0  0  0  0  0  0
  -25.8550  -22.6502   19.8909 C   0  0  0  0  0  0
  -30.4278  -17.1973   21.3687 C   0  0  0  0  0  0
  -26.9680  -21.6791   20.3045 C   0  0  0  0  0  0
  -28.6977  -23.6384   20.6192 C   0  0  0  0  0  0
  -28.3117  -24.9378   19.7171 C   0  0  0  0  0  0
  -28.4199  -22.1370   20.0271 C   0  0  1  0  0  0
  -31.2387  -19.5438   20.4441 N   0  0  0  0  0  0
  -29.9229  -15.8815   20.7867 N   0  0  0  0  0  0
  -33.9069  -17.1350   20.2646 N   0  3  0  0  0  0
  -31.4693  -12.5895   19.1413 H   0  0  0  0  0  0
  -30.3647  -11.4888   19.9282 H   0  0  0  0  0  0
  -29.7654  -11.7660   17.4941 H   0  0  0  0  0  0
  -29.6160  -13.4919   17.7262 H   0  0  0  0  0  0
  -27.8857  -11.2974   18.9102 H   0  0  0  0  0  0
  -27.3581  -12.5472   17.8130 H   0  0  0  0  0  0
  -27.6362  -14.2660   19.4893 H   0  0  0  0  0  0
  -28.7425  -12.1637   21.4088 H   0  0  0  0  0  0
  -28.4457  -13.8349   21.8083 H   0  0  0  0  0  0
  -25.2793   -9.5727   22.4749 H   0  0  0  0  0  0
  -24.0072   -7.4652   22.7457 H   0  0  0  0  0  0
  -21.0885   -8.8791   19.8924 H   0  0  0  0  0  0
  -22.3735  -10.9705   19.6175 H   0  0  0  0  0  0
  -21.1981   -7.6142   23.9732 H   0  0  0  0  0  0
  -21.1493   -6.0505   25.9086 H   0  0  0  0  0  0
  -22.0596   -2.7614   23.2809 H   0  0  0  0  0  0
  -22.4083  -11.9758   22.4722 H   0  0  0  0  0  0
  -21.1130  -13.1194   22.2768 H   0  0  0  0  0  0
  -24.6513  -15.8531   20.5140 H   0  0  0  0  0  0
  -26.2631  -15.6316   20.0614 H   0  0  0  0  0  0
  -26.7211  -32.5349   23.1082 H   0  0  0  0  0  0
  -24.9944  -33.9649   25.0279 H   0  0  0  0  0  0
  -22.7256  -31.3005   21.3930 H   0  0  0  0  0  0
  -23.3682  -35.9698   23.3273 H   0  0  0  0  0  0
  -24.3558  -36.9003   22.2071 H   0  0  0  0  0  0
  -23.7265  -37.6512   23.6720 H   0  0  0  0  0  0
  -26.1053  -31.5165   20.5996 H   0  0  0  0  0  0
  -26.8589  -30.8212   22.0033 H   0  0  0  0  0  0
  -28.1096  -28.9019   21.2202 H   0  0  0  0  0  0
  -25.9075  -25.9426   18.9369 H   0  0  0  0  0  0
  -23.9781  -27.3319   18.9657 H   0  0  0  0  0  0
  -23.7730  -30.5910   19.4014 H   0  0  0  0  0  0
  -22.7642  -29.2492   19.8467 H   0  0  0  0  0  0
  -25.1253  -36.1861   25.0793 H   0  0  0  0  0  0
  -20.9977  -28.3292   24.1379 H   0  0  0  0  0  0
  -20.5606  -26.2335   23.3630 H   0  0  0  0  0  0
  -21.6613  -26.7402   22.1222 H   0  0  0  0  0  0
  -19.6885  -25.6278   21.1256 H   0  0  0  0  0  0
  -19.6650  -27.3168   20.6723 H   0  0  0  0  0  0
  -17.4163  -26.6674   21.4038 H   0  0  0  0  0  0
  -18.0317  -26.0071   22.9031 H   0  0  0  0  0  0
  -19.7929  -30.7268   24.2275 H   0  0  0  0  0  0
  -17.5019  -31.6272   24.5179 H   0  0  0  0  0  0
  -15.5354  -30.3022   23.7642 H   0  0  0  0  0  0
  -15.8665  -28.0838   22.7107 H   0  0  0  0  0  0
  -24.5931  -30.7049   25.7848 H   0  0  0  0  0  0
  -24.8959  -32.2869   26.4967 H   0  0  0  0  0  0
  -25.8123  -30.8876   27.0256 H   0  0  0  0  0  0
  -26.2984  -29.6709   24.1330 H   0  0  0  0  0  0
  -27.4021  -29.7283   25.4858 H   0  0  0  0  0  0
  -27.8871  -30.4220   23.9566 H   0  0  0  0  0  0
  -27.2574  -33.3659   26.2109 H   0  0  0  0  0  0
  -28.3862  -32.6990   25.0415 H   0  0  0  0  0  0
  -28.0699  -31.8548   26.5503 H   0  0  0  0  0  0
  -28.2523  -38.0122   24.7484 H   0  0  0  0  0  0
  -28.1052  -36.2643   24.6236 H   0  0  0  0  0  0
  -27.2279  -37.1430   25.8850 H   0  0  0  0  0  0
  -20.9390  -29.8832   21.6879 H   0  0  0  0  0  0
  -26.0086  -38.2800   24.1475 H   0  0  0  0  0  0
  -28.0666  -19.1271   20.8899 H   0  0  0  0  0  0
  -33.7847  -19.8650   22.1556 H   0  0  0  0  0  0
  -32.6603  -18.5761   22.4917 H   0  0  0  0  0  0
  -34.6616  -17.2557   22.2574 H   0  0  0  0  0  0
  -35.3447  -18.4084   21.1223 H   0  0  0  0  0  0
  -33.5226  -18.3511   18.5882 H   0  0  0  0  0  0
  -32.1282  -17.4609   19.1585 H   0  0  0  0  0  0
  -33.2311  -20.0480   19.9685 H   0  0  0  0  0  0
  -32.3603  -22.2243   20.4270 H   0  0  0  0  0  0
  -31.0760  -22.8294   19.3848 H   0  0  0  0  0  0
  -32.1840  -21.6435   18.7669 H   0  0  0  0  0  0
  -24.8760  -22.1983   20.0467 H   0  0  0  0  0  0
  -25.9271  -22.9104   18.8340 H   0  0  0  0  0  0
  -25.8767  -23.5650   20.4839 H   0  0  0  0  0  0
  -30.0334  -17.2017   22.3867 H   0  0  0  0  0  0
  -31.4861  -17.0413   21.5431 H   0  0  0  0  0  0
  -26.7927  -20.7504   19.7573 H   0  0  0  0  0  0
  -26.8578  -21.4356   21.3619 H   0  0  0  0  0  0
  -28.1840  -23.7180   21.5769 H   0  0  0  0  0  0
  -29.7473  -23.7335   20.8873 H   0  0  0  0  0  0
  -27.3784  -24.6892   19.2425 H   0  0  0  0  0  0
  -29.0017  -24.9358   18.8735 H   0  0  0  0  0  0
  -28.5079  -22.2543   18.9463 H   0  0  0  0  0  0
  -28.9293  -15.7361   20.8753 H   0  0  0  0  0  0
  -33.3606  -16.3452   20.5846 H   0  0  0  0  0  0
  -34.6587  -16.7831   19.6965 H   0  0  0  0  0  0
  1 25  1  0  0  0
  1 30  2  0  0  0
  1 87  1  0  0  0
  2  3  1  0  0  0
  2 25  1  0  0  0
  2 89  1  0  0  0
  2 90  1  0  0  0
  3  4  1  0  0  0
  3 91  1  0  0  0
  3 92  1  0  0  0
  4  5  1  0  0  0
  4 93  1  0  0  0
  4 94  1  0  0  0
  5  6  1  0  0  0
  5 26  1  0  0  0
  5 95  1  0  0  0
  6 25  1  0  0  0
  6 96  1  0  0  0
  6 97  1  0  0  0
  7  8  2  0  0  0
  7 26  1  0  0  0
  7 29  1  0  0  0
  8  9  1  0  0  0
  8 22  1  0  0  0
  9 10  1  0  0  0
  9 27  2  0  0  0
 10 11  2  0  0  0
 10 15  1  0  0  0
 11 12  1  0  0  0
 11 98  1  0  0  0
 12 13  2  0  0  0
 12 99  1  0  0  0
 13 14  1  0  0  0
 13 31  1  0  0  0
 14 15  2  0  0  0
 14100  1  0  0  0
 15101  1  0  0  0
 16 17  2  0  0  0
 16 21  1  0  0  0
 16 31  1  0  0  0
 17 18  1  0  0  0
 17102  1  0  0  0
 18 19  2  0  0  0
 18103  1  0  0  0
 19 20  1  0  0  0
 19 24  1  0  0  0
 20 21  2  0  0  0
 20104  1  0  0  0
 21 23  1  0  0  0
 22 28  1  0  0  0
 22 32  2  0  0  0
 26 27  1  0  0  0
 28105  1  0  0  0
 28106  1  0  0  0
 29107  1  0  0  0
 29108  1  0  0  0
 33 34  1  0  0  0
 33 66  1  0  0  0
 33 70  2  0  0  0
 34 36  1  0  0  0
 34 59  1  0  0  0
 34109  1  0  0  0
 35 44  2  0  0  0
 35 45  1  0  0  0
 35 68  1  0  0  0
 36 56  1  0  0  0
 36110  1  0  0  0
 37 39  1  0  0  0
 37 47  1  0  0  0
 37 66  1  0  0  0
 37111  1  0  0  0
 38 43  2  0  0  0
 38 46  1  0  0  0
 38 47  1  0  0  0
 39 64  1  0  0  0
 39 67  2  0  0  0
 40 52  1  0  0  0
 40 53  2  0  0  0
 40 58  1  0  0  0
 41112  1  0  0  0
 41113  1  0  0  0
 41114  1  0  0  0
 41 48  1  0  0  0
 42 43  1  0  0  0
 42 66  1  0  0  0
 42115  1  0  0  0
 42116  1  0  0  0
 43 44  1  0  0  0
 44117  1  0  0  0
 45 46  2  0  0  0
 45118  1  0  0  0
 46119  1  0  0  0
 47120  1  0  0  0
 47121  1  0  0  0
 48 56  1  0  0  0
 48 65  1  0  0  0
 48122  1  0  0  0
 49 50  1  0  0  0
 49 53  1  0  0  0
 49 64  1  0  0  0
 49123  1  0  0  0
 50 51  1  0  0  0
 50124  1  0  0  0
 50125  1  0  0  0
 51 52  1  0  0  0
 51126  1  0  0  0
 51127  1  0  0  0
 52128  1  0  0  0
 52129  1  0  0  0
 53 54  1  0  0  0
 54 55  2  0  0  0
 54130  1  0  0  0
 55 57  1  0  0  0
 55131  1  0  0  0
 56 69  2  0  0  0
 57 58  2  0  0  0
 57132  1  0  0  0
 58133  1  0  0  0
 59 60  1  0  0  0
 59 61  1  0  0  0
 59 62  1  0  0  0
 60134  1  0  0  0
 60135  1  0  0  0
 60136  1  0  0  0
 61137  1  0  0  0
 61138  1  0  0  0
 61139  1  0  0  0
 62140  1  0  0  0
 62141  1  0  0  0
 62142  1  0  0  0
 63 65  1  0  0  0
 63143  1  0  0  0
 63144  1  0  0  0
 63145  1  0  0  0
 64146  1  0  0  0
 65147  1  0  0  0
 68 84  1  0  0  0
 71 72  1  0  0  0
 71 73  2  0  0  0
 71148  1  0  0  0
 72 74  2  0  0  0
 72 85  1  0  0  0
 73 81  1  0  0  0
 73 86  1  0  0  0
 74 79  1  0  0  0
 74 86  1  0  0  0
 75 76  1  0  0  0
 75 78  1  0  0  0
 75149  1  0  0  0
 75150  1  0  0  0
 76 88  1  0  0  0
 76151  1  0  0  0
 76152  1  0  0  0
 77 78  1  0  0  0
 77 88  1  0  0  0
 77153  1  0  0  0
 77154  1  0  0  0
 78 86  1  0  0  0
 78155  1  0  0  0
 79156  1  0  0  0
 79157  1  0  0  0
 79158  1  0  0  0
 80 82  1  0  0  0
 80159  1  0  0  0
 80160  1  0  0  0
 80161  1  0  0  0
 81 87  1  0  0  0
 81162  1  0  0  0
 81163  1  0  0  0
 82164  1  0  0  0
 82165  1  0  0  0
 82 85  1  0  0  0
 83 84  1  0  0  0
 83 85  1  0  0  0
 83166  1  0  0  0
 83167  1  0  0  0
 84168  1  0  0  0
 84169  1  0  0  0
 85170  1  0  0  0
 87171  1  0  0  0
 88172  1  0  0  0
 88173  1  0  0  0
M  CHG  1  88   1
M  ISO  4   1 100  68 101  84 101  87 100
M  END
> <chiral flag>
0

> <version>
0

> <s_m_source_file>
/data/baiqing/PycharmProjects/Reinvent-master-3.2/result/LINK_invent/BTK/process_docking_weight1_custom_sum_contain_oxygen_bond_distance_aromatic_linkinvent_7_9_3/rearranged_h_0122.sdf

> <i_m_source_file_index>
3

> <r_mmod_Potential_Energy-OPLS-2005>
22.1345157623291

> <r_mmod_Stretch_Energy-OPLS-2005>
137.48844909668

> <r_mmod_Bend_Energy-OPLS-2005>
228.037979125977

> <r_mmod_Torsional_Energy-OPLS-2005>
317.093414306641

> <r_mmod_Improper_Torsional_Energy-OPLS-2005>
5.37954664230347

> <r_mmod_Van_der_Waal_Energy-OPLS-2005>
123.19458770752

> <r_mmod_Electrostatic_Energy-OPLS-2005>
-443.477294921875

> <r_mmod_Solvation_Energy-OPLS-2005>
-432.426910400391

> <b_mmod_Minimization_Converged-OPLS-2005>
0

> <r_mmod_RMS_Derivative-OPLS-2005>
4.0196099281311

$$$$
3
                    3D
 Structure written by MMmdl.
158167  0  0  1  0            999 V2000
  -30.6907  -14.4670   20.5752 C   0  0  0  0  0  0
  -30.4218  -12.3013   19.4283 C   0  0  0  0  0  0
  -29.4961  -12.5078   18.2098 C   0  0  0  0  0  0
  -28.0163  -12.3725   18.6174 C   0  0  0  0  0  0
  -27.6616  -13.2066   19.8770 C   0  0  2  0  0  0
  -28.6984  -12.9743   20.9988 C   0  0  0  0  0  0
  -25.2590  -13.8173   20.5694 C   0  0  0  0  0  0
  -24.1835  -13.0449   20.9185 C   0  0  0  0  0  0
  -24.6389  -11.6915   20.8717 C   0  0  0  0  0  0
  -23.9043  -10.4309   21.0397 C   0  0  0  0  0  0
  -24.3606   -9.4224   21.9171 C   0  0  0  0  0  0
  -23.6288   -8.2252   22.0744 C   0  0  0  0  0  0
  -22.4266   -8.0293   21.3532 C   0  0  0  0  0  0
  -21.9899   -9.0262   20.4628 C   0  0  0  0  0  0
  -22.7225  -10.2140   20.3038 C   0  0  0  0  0  0
  -21.6859   -6.0733   22.5272 C   0  0  0  0  0  0
  -21.4023   -6.5634   23.8211 C   0  0  0  0  0  0
  -21.3657   -5.6785   24.9169 C   0  0  0  0  0  0
  -21.6044   -4.3044   24.7221 C   0  0  0  0  0  0
  -21.8826   -3.8141   23.4338 C   0  0  0  0  0  0
  -21.9200   -4.6957   22.3400 C   0  0  0  0  0  0
  -22.7861  -13.5247   21.1858 C   0  0  0  0  0  0
  -22.1667   -4.2149   21.0973 F   0  0  0  0  0  0
  -21.5627   -3.4533   25.7728 F   0  0  0  0  0  0
  -30.0338  -13.2796   20.4568 N   0  0  0  0  0  0
  -26.3014  -12.9336   20.3354 N   0  0  0  0  0  0
  -25.9312  -11.6491   20.5740 N   0  0  0  0  0  0
  -22.0496  -12.8227   22.0391 N   0  0  0  0  0  0
  -25.4371  -15.1894   20.4177 N   0  0  0  0  0  0
  -31.8191  -14.6346   20.1006 O   0  0  0  0  0  0
  -21.6628   -6.8878   21.4239 O   0  0  0  0  0  0
  -22.3549  -14.5569   20.6732 O   0  0  0  0  0  0
  -24.6171  -31.8694   23.2076 C   0  0  0  0  0  0
  -25.9043  -32.4833   23.8389 C   0  0  1  0  0  0
  -27.2334  -27.4125   20.0919 C   0  0  0  0  0  0
  -25.5885  -33.8624   24.2309 N   0  0  0  0  0  0
  -23.4079  -30.4939   21.5493 C   0  0  2  0  0  0
  -24.8478  -28.9501   20.1195 C   0  0  0  0  0  0
  -22.7431  -29.4725   22.4996 C   0  0  0  0  0  0
  -18.0293  -28.1346   22.8487 C   0  0  0  0  0  0
  -24.1470  -36.7312   23.2631 C   0  0  0  0  0  0
  -25.9371  -30.8225   21.3644 C   0  0  0  0  0  0
  -26.0092  -29.4529   20.7172 C   0  0  0  0  0  0
  -27.2017  -28.6903   20.7035 C   0  0  0  0  0  0
  -26.0393  -26.9199   19.5103 C   0  0  0  0  0  0
  -24.8576  -27.6817   19.5177 C   0  0  0  0  0  0
  -23.6142  -29.8201   20.1667 C   0  0  0  0  0  0
  -25.4106  -36.3109   24.0322 C   0  0  1  0  0  0
  -20.5889  -28.3715   23.1238 C   0  0  2  0  0  0
  -20.6831  -26.9499   22.5213 C   0  0  0  0  0  0
  -19.5682  -26.6283   21.5208 C   0  0  0  0  0  0
  -18.1911  -26.7883   22.1679 C   0  0  0  0  0  0
  -19.1534  -28.8831   23.2865 C   0  0  0  0  0  0
  -18.9423  -30.1444   23.8867 C   0  0  0  0  0  0
  -17.6408  -30.6564   24.0502 C   0  0  0  0  0  0
  -25.9058  -34.9487   23.5119 C   0  0  0  0  0  0
  -16.5323  -29.9044   23.6235 C   0  0  0  0  0  0
  -16.7276  -28.6434   23.0343 C   0  0  0  0  0  0
  -26.4459  -31.6593   25.0714 C   0  0  0  0  0  0
  -25.3685  -31.3720   26.1430 C   0  0  0  0  0  0
  -27.0309  -30.3031   24.6096 C   0  0  0  0  0  0
  -27.6028  -32.4324   25.7471 C   0  0  0  0  0  0
  -27.5580  -37.1807   24.8473 C   0  0  0  0  0  0
  -21.4149  -29.3174   22.3755 N   0  0  0  0  0  0
  -26.4300  -37.3784   23.9405 N   0  0  0  0  0  0
  -24.6733  -31.0781   22.0982 N   0  0  0  0  0  0
  -23.4191  -28.8227   23.3015 O   0  0  0  0  0  0
  -28.4257  -26.7060   20.0955 O   0  0  0  0  0  0
  -26.5649  -34.8942   22.4703 O   0  0  0  0  0  0
  -23.5359  -32.1467   23.7449 O   0  0  0  0  0  0
  -30.9268  -18.8699   19.9041 C   0  0  0  0  0  0
  -31.0367  -17.5151   20.2644 C   0  0  0  0  0  0
  -29.5696  -20.8932   19.7678 C   0  0  0  0  0  0
  -27.3458  -20.9223   20.7363 C   0  0  0  0  0  0
  -29.7347  -19.5551   20.1903 C   0  0  0  0  0  0
  -28.3572  -21.5737   20.0006 C   0  0  0  0  0  0
  -27.5186  -19.5861   21.1753 C   0  0  0  0  0  0
  -28.7047  -18.8649   20.8777 C   0  0  0  0  0  0
  -29.9534  -16.8527   20.8869 C   0  0  0  0  0  0
  -26.3823  -18.9195   21.9343 C   0  0  0  0  0  0
  -28.1048  -22.9356   19.3470 C   0  0  0  0  0  0
  -28.3111  -24.1936   20.2276 C   0  0  0  0  0  0
  -28.5444  -25.4681   19.3723 C   0  0  0  0  0  0
  -28.8383  -17.5510   21.2127 N   0  0  0  0  0  0
  -29.9854  -15.4515   21.1750 N   0  0  0  0  0  0
  -31.4685  -12.3989   19.1314 H   0  0  0  0  0  0
  -30.3205  -11.2895   19.8236 H   0  0  0  0  0  0
  -29.7337  -11.7844   17.4296 H   0  0  0  0  0  0
  -29.6715  -13.4923   17.7739 H   0  0  0  0  0  0
  -27.8216  -11.3166   18.8095 H   0  0  0  0  0  0
  -27.3693  -12.6534   17.7862 H   0  0  0  0  0  0
  -27.7083  -14.2554   19.5834 H   0  0  0  0  0  0
  -28.6713  -11.9343   21.3316 H   0  0  0  0  0  0
  -28.4548  -13.5607   21.8854 H   0  0  0  0  0  0
  -25.2758   -9.5706   22.4727 H   0  0  0  0  0  0
  -24.0008   -7.4647   22.7464 H   0  0  0  0  0  0
  -21.0834   -8.8778   19.8937 H   0  0  0  0  0  0
  -22.3697  -10.9669   19.6133 H   0  0  0  0  0  0
  -21.2022   -7.6147   23.9716 H   0  0  0  0  0  0
  -21.1465   -6.0509   25.9068 H   0  0  0  0  0  0
  -22.0609   -2.7609   23.2838 H   0  0  0  0  0  0
  -22.4113  -11.9870   22.4740 H   0  0  0  0  0  0
  -21.1107  -13.1231   22.2568 H   0  0  0  0  0  0
  -24.6867  -15.8572   20.5580 H   0  0  0  0  0  0
  -26.3075  -15.6260   20.1407 H   0  0  0  0  0  0
  -26.7140  -32.5560   23.1179 H   0  0  0  0  0  0
  -24.9972  -33.9794   25.0405 H   0  0  0  0  0  0
  -22.6994  -31.3121   21.4057 H   0  0  0  0  0  0
  -23.3737  -35.9641   23.3334 H   0  0  0  0  0  0
  -24.3535  -36.8916   22.2040 H   0  0  0  0  0  0
  -23.7247  -37.6520   23.6648 H   0  0  0  0  0  0
  -26.0515  -31.5808   20.5864 H   0  0  0  0  0  0
  -26.8247  -30.8795   21.9837 H   0  0  0  0  0  0
  -28.0979  -29.0807   21.1649 H   0  0  0  0  0  0
  -25.9832  -25.9443   19.0494 H   0  0  0  0  0  0
  -23.9608  -27.2821   19.0627 H   0  0  0  0  0  0
  -23.7249  -30.5880   19.3993 H   0  0  0  0  0  0
  -22.7374  -29.2362   19.8793 H   0  0  0  0  0  0
  -25.1281  -36.1960   25.0812 H   0  0  0  0  0  0
  -21.0036  -28.3157   24.1327 H   0  0  0  0  0  0
  -20.6114  -26.2304   23.3372 H   0  0  0  0  0  0
  -21.6605  -26.7739   22.0702 H   0  0  0  0  0  0
  -19.6801  -25.6144   21.1382 H   0  0  0  0  0  0
  -19.6498  -27.2935   20.6615 H   0  0  0  0  0  0
  -17.4166  -26.6658   21.4088 H   0  0  0  0  0  0
  -18.0311  -26.0016   22.9071 H   0  0  0  0  0  0
  -19.7895  -30.7272   24.2247 H   0  0  0  0  0  0
  -17.4891  -31.6231   24.5091 H   0  0  0  0  0  0
  -15.5291  -30.2903   23.7481 H   0  0  0  0  0  0
  -15.8650  -28.0753   22.7129 H   0  0  0  0  0  0
  -24.5830  -30.7117   25.7721 H   0  0  0  0  0  0
  -24.8917  -32.2903   26.4861 H   0  0  0  0  0  0
  -25.7978  -30.8850   27.0195 H   0  0  0  0  0  0
  -26.2868  -29.6767   24.1159 H   0  0  0  0  0  0
  -27.4097  -29.7271   25.4552 H   0  0  0  0  0  0
  -27.8672  -30.4354   23.9233 H   0  0  0  0  0  0
  -27.2613  -33.3607   26.2060 H   0  0  0  0  0  0
  -28.3791  -32.6941   25.0265 H   0  0  0  0  0  0
  -28.0727  -31.8459   26.5365 H   0  0  0  0  0  0
  -28.2614  -38.0086   24.7496 H   0  0  0  0  0  0
  -28.1063  -36.2626   24.6325 H   0  0  0  0  0  0
  -27.2297  -37.1479   25.8875 H   0  0  0  0  0  0
  -20.9324  -29.8989   21.7051 H   0  0  0  0  0  0
  -26.0199  -38.2855   24.1411 H   0  0  0  0  0  0
  -31.7422  -19.3620   19.3920 H   0  0  0  0  0  0
  -31.9598  -17.0071   20.0244 H   0  0  0  0  0  0
  -30.3586  -21.3781   19.2097 H   0  0  0  0  0  0
  -26.4130  -21.4354   20.9286 H   0  0  0  0  0  0
  -25.6718  -19.6474   22.3256 H   0  0  0  0  0  0
  -26.7621  -18.3464   22.7810 H   0  0  0  0  0  0
  -25.8444  -18.2374   21.2755 H   0  0  0  0  0  0
  -27.0892  -22.9419   18.9482 H   0  0  0  0  0  0
  -28.7478  -22.9985   18.4684 H   0  0  0  0  0  0
  -29.1807  -24.0551   20.8714 H   0  0  0  0  0  0
  -27.4562  -24.3215   20.8912 H   0  0  0  0  0  0
  -27.9417  -25.4571   18.4659 H   0  0  0  0  0  0
  -29.5668  -25.4280   18.9954 H   0  0  0  0  0  0
  -29.1547  -15.1136   21.6343 H   0  0  0  0  0  0
  1 25  1  0  0  0
  1 30  2  0  0  0
  1 85  1  0  0  0
  2  3  1  0  0  0
  2 25  1  0  0  0
  2 86  1  0  0  0
  2 87  1  0  0  0
  3  4  1  0  0  0
  3 88  1  0  0  0
  3 89  1  0  0  0
  4  5  1  0  0  0
  4 90  1  0  0  0
  4 91  1  0  0  0
  5  6  1  0  0  0
  5 26  1  0  0  0
  5 92  1  0  0  0
  6 25  1  0  0  0
  6 93  1  0  0  0
  6 94  1  0  0  0
  7  8  2  0  0  0
  7 26  1  0  0  0
  7 29  1  0  0  0
  8  9  1  0  0  0
  8 22  1  0  0  0
  9 10  1  0  0  0
  9 27  2  0  0  0
 10 11  2  0  0  0
 10 15  1  0  0  0
 11 12  1  0  0  0
 11 95  1  0  0  0
 12 13  2  0  0  0
 12 96  1  0  0  0
 13 14  1  0  0  0
 13 31  1  0  0  0
 14 15  2  0  0  0
 14 97  1  0  0  0
 15 98  1  0  0  0
 16 17  2  0  0  0
 16 21  1  0  0  0
 16 31  1  0  0  0
 17 18  1  0  0  0
 17 99  1  0  0  0
 18 19  2  0  0  0
 18100  1  0  0  0
 19 20  1  0  0  0
 19 24  1  0  0  0
 20 21  2  0  0  0
 20101  1  0  0  0
 21 23  1  0  0  0
 22 28  1  0  0  0
 22 32  2  0  0  0
 26 27  1  0  0  0
 28102  1  0  0  0
 28103  1  0  0  0
 29104  1  0  0  0
 29105  1  0  0  0
 33 34  1  0  0  0
 33 66  1  0  0  0
 33 70  2  0  0  0
 34 36  1  0  0  0
 34 59  1  0  0  0
 34106  1  0  0  0
 35 44  2  0  0  0
 35 45  1  0  0  0
 35 68  1  0  0  0
 36 56  1  0  0  0
 36107  1  0  0  0
 37 39  1  0  0  0
 37 47  1  0  0  0
 37 66  1  0  0  0
 37108  1  0  0  0
 38 43  2  0  0  0
 38 46  1  0  0  0
 38 47  1  0  0  0
 39 64  1  0  0  0
 39 67  2  0  0  0
 40 52  1  0  0  0
 40 53  2  0  0  0
 40 58  1  0  0  0
 41109  1  0  0  0
 41110  1  0  0  0
 41111  1  0  0  0
 41 48  1  0  0  0
 42 43  1  0  0  0
 42 66  1  0  0  0
 42112  1  0  0  0
 42113  1  0  0  0
 43 44  1  0  0  0
 44114  1  0  0  0
 45 46  2  0  0  0
 45115  1  0  0  0
 46116  1  0  0  0
 47117  1  0  0  0
 47118  1  0  0  0
 48 56  1  0  0  0
 48 65  1  0  0  0
 48119  1  0  0  0
 49 50  1  0  0  0
 49 53  1  0  0  0
 49 64  1  0  0  0
 49120  1  0  0  0
 50 51  1  0  0  0
 50121  1  0  0  0
 50122  1  0  0  0
 51 52  1  0  0  0
 51123  1  0  0  0
 51124  1  0  0  0
 52125  1  0  0  0
 52126  1  0  0  0
 53 54  1  0  0  0
 54 55  2  0  0  0
 54127  1  0  0  0
 55 57  1  0  0  0
 55128  1  0  0  0
 56 69  2  0  0  0
 57 58  2  0  0  0
 57129  1  0  0  0
 58130  1  0  0  0
 59 60  1  0  0  0
 59 61  1  0  0  0
 59 62  1  0  0  0
 60131  1  0  0  0
 60132  1  0  0  0
 60133  1  0  0  0
 61134  1  0  0  0
 61135  1  0  0  0
 61136  1  0  0  0
 62137  1  0  0  0
 62138  1  0  0  0
 62139  1  0  0  0
 63 65  1  0  0  0
 63140  1  0  0  0
 63141  1  0  0  0
 63142  1  0  0  0
 64143  1  0  0  0
 65144  1  0  0  0
 68 83  1  0  0  0
 71 72  2  0  0  0
 71 75  1  0  0  0
 71145  1  0  0  0
 72 79  1  0  0  0
 72146  1  0  0  0
 73 75  2  0  0  0
 73 76  1  0  0  0
 73147  1  0  0  0
 74 76  2  0  0  0
 74 77  1  0  0  0
 74148  1  0  0  0
 75 78  1  0  0  0
 76 81  1  0  0  0
 77 78  2  0  0  0
 77 80  1  0  0  0
 78 84  1  0  0  0
 79 84  2  0  0  0
 79 85  1  0  0  0
 80149  1  0  0  0
 80150  1  0  0  0
 80151  1  0  0  0
 81 82  1  0  0  0
 81152  1  0  0  0
 81153  1  0  0  0
 82 83  1  0  0  0
 82154  1  0  0  0
 82155  1  0  0  0
 83156  1  0  0  0
 83157  1  0  0  0
 85158  1  0  0  0
M  ISO  4   1 100  68 101  83 101  85 100
M  END
> <chiral flag>
0

> <version>
0

> <s_m_source_file>
/data/baiqing/PycharmProjects/Reinvent-master-3.2/result/LINK_invent/BTK/process_docking_weight1_custom_sum_contain_oxygen_bond_distance_aromatic_linkinvent_7_9_3/rearranged_h_0122.sdf

> <i_m_source_file_index>
4

> <r_mmod_Potential_Energy-OPLS-2005>
-138.64794921875

> <r_mmod_Stretch_Energy-OPLS-2005>
40.0157241821289

> <r_mmod_Bend_Energy-OPLS-2005>
111.774337768555

> <r_mmod_Torsional_Energy-OPLS-2005>
213.193389892578

> <r_mmod_Improper_Torsional_Energy-OPLS-2005>
4.2568039894104

> <r_mmod_Van_der_Waal_Energy-OPLS-2005>
175.089416503906

> <r_mmod_Electrostatic_Energy-OPLS-2005>
-492.795715332031

> <r_mmod_Solvation_Energy-OPLS-2005>
-203.449249267578

> <b_mmod_Minimization_Converged-OPLS-2005>
0

> <r_mmod_RMS_Derivative-OPLS-2005>
3.50547480583191

$$$$
4
                    3D
 Structure written by MMmdl.
186196  0  0  1  0            999 V2000
  -30.6835  -14.4975   20.5527 C   0  0  0  0  0  0
  -30.4198  -12.3174   19.4298 C   0  0  0  0  0  0
  -29.4946  -12.5066   18.2092 C   0  0  0  0  0  0
  -28.0119  -12.3747   18.6154 C   0  0  0  0  0  0
  -27.6557  -13.2098   19.8735 C   0  0  2  0  0  0
  -28.6968  -12.9964   20.9956 C   0  0  0  0  0  0
  -25.2586  -13.8093   20.5802 C   0  0  0  0  0  0
  -24.1851  -13.0439   20.9321 C   0  0  0  0  0  0
  -24.6403  -11.6887   20.8816 C   0  0  0  0  0  0
  -23.9045  -10.4303   21.0442 C   0  0  0  0  0  0
  -24.3611   -9.4192   21.9197 C   0  0  0  0  0  0
  -23.6289   -8.2234   22.0745 C   0  0  0  0  0  0
  -22.4256   -8.0305   21.3549 C   0  0  0  0  0  0
  -21.9908   -9.0266   20.4632 C   0  0  0  0  0  0
  -22.7235  -10.2148   20.3055 C   0  0  0  0  0  0
  -21.6850   -6.0748   22.5260 C   0  0  0  0  0  0
  -21.4007   -6.5638   23.8193 C   0  0  0  0  0  0
  -21.3642   -5.6779   24.9165 C   0  0  0  0  0  0
  -21.6050   -4.3046   24.7210 C   0  0  0  0  0  0
  -21.8834   -3.8145   23.4339 C   0  0  0  0  0  0
  -21.9193   -4.6984   22.3390 C   0  0  0  0  0  0
  -22.7876  -13.5274   21.1902 C   0  0  0  0  0  0
  -22.1676   -4.2164   21.0980 F   0  0  0  0  0  0
  -21.5637   -3.4524   25.7730 F   0  0  0  0  0  0
  -30.0199  -13.3140   20.4363 N   0  0  0  0  0  0
  -26.3000  -12.9309   20.3358 N   0  0  0  0  0  0
  -25.9334  -11.6478   20.5818 N   0  0  0  0  0  0
  -22.0495  -12.8260   22.0398 N   0  0  0  0  0  0
  -25.4323  -15.1754   20.3989 N   0  0  0  0  0  0
  -31.8361  -14.6470   20.1364 O   0  0  0  0  0  0
  -21.6635   -6.8904   21.4219 O   0  0  0  0  0  0
  -22.3614  -14.5590   20.6685 O   0  0  0  0  0  0
  -24.6146  -31.8674   23.2124 C   0  0  0  0  0  0
  -25.9056  -32.4818   23.8393 C   0  0  1  0  0  0
  -27.2317  -27.4483   20.0788 C   0  0  0  0  0  0
  -25.5898  -33.8617   24.2316 N   0  0  0  0  0  0
  -23.3980  -30.4943   21.5563 C   0  0  2  0  0  0
  -24.8467  -28.9709   20.1053 C   0  0  0  0  0  0
  -22.7464  -29.4639   22.5082 C   0  0  0  0  0  0
  -18.0337  -28.1227   22.8743 C   0  0  0  0  0  0
  -24.1495  -36.7332   23.2639 C   0  0  0  0  0  0
  -25.9266  -30.8438   21.3562 C   0  0  0  0  0  0
  -26.0060  -29.4816   20.6995 C   0  0  0  0  0  0
  -27.1972  -28.7236   20.6911 C   0  0  0  0  0  0
  -26.0503  -26.9562   19.4766 C   0  0  0  0  0  0
  -24.8651  -27.7103   19.4920 C   0  0  0  0  0  0
  -23.5995  -29.8217   20.1723 C   0  0  0  0  0  0
  -25.4111  -36.3113   24.0357 C   0  0  1  0  0  0
  -20.5907  -28.3635   23.1333 C   0  0  2  0  0  0
  -20.6966  -26.9613   22.4923 C   0  0  0  0  0  0
  -19.5610  -26.6543   21.5107 C   0  0  0  0  0  0
  -18.2068  -26.7645   22.2157 C   0  0  0  0  0  0
  -19.1574  -28.8780   23.2989 C   0  0  0  0  0  0
  -18.9493  -30.1470   23.8813 C   0  0  0  0  0  0
  -17.6486  -30.6617   24.0377 C   0  0  0  0  0  0
  -25.9032  -34.9463   23.5130 C   0  0  0  0  0  0
  -16.5373  -29.9037   23.6273 C   0  0  0  0  0  0
  -16.7327  -28.6351   23.0545 C   0  0  0  0  0  0
  -26.4470  -31.6593   25.0725 C   0  0  0  0  0  0
  -25.3776  -31.3673   26.1522 C   0  0  0  0  0  0
  -27.0279  -30.3036   24.6069 C   0  0  0  0  0  0
  -27.6034  -32.4313   25.7502 C   0  0  0  0  0  0
  -27.5580  -37.1832   24.8469 C   0  0  0  0  0  0
  -21.4136  -29.3246   22.4055 N   0  0  0  0  0  0
  -26.4273  -37.3815   23.9437 N   0  0  0  0  0  0
  -24.6659  -31.0802   22.1015 N   0  0  0  0  0  0
  -23.4282  -28.7945   23.2907 O   0  0  0  0  0  0
  -28.4229  -26.7458   20.1213 O   0  0  0  0  0  0
  -26.5581  -34.8884   22.4663 O   0  0  0  0  0  0
  -23.5359  -32.1387   23.7536 O   0  0  0  0  0  0
  -24.0037  -22.1139   21.7170 C   0  0  0  0  0  0
  -26.0853  -16.9761   25.4364 C   0  0  0  0  0  0
  -25.3792  -17.8836   24.4624 C   0  0  0  0  0  0
  -24.7176  -20.7667   21.6687 C   0  0  0  0  0  0
  -29.9317  -16.6889   19.7438 C   0  0  0  0  0  0
  -29.5169  -16.0645   22.0692 C   0  0  0  0  0  0
  -25.1346  -23.1483   21.6469 C   0  0  0  0  0  0
  -29.1007  -17.9291   20.1636 C   0  0  0  0  0  0
  -26.3813  -16.8751   23.9575 C   0  0  0  0  0  0
  -26.0022  -21.0621   20.8908 C   0  0  2  0  0  0
  -28.0800  -16.6608   22.0558 C   0  0  1  0  0  0
  -25.9460  -18.3467   19.4460 C   0  0  0  0  0  0
  -27.7437  -17.2980   23.4285 C   0  0  0  0  0  0
  -27.1212  -19.9843   21.0589 C   0  0  0  0  0  0
  -27.2621  -23.1505   20.3141 C   0  0  0  0  0  0
  -28.4413  -25.3640   19.7322 C   0  0  0  0  0  0
  -26.6994  -18.4995   20.7918 C   0  0  2  0  0  0
  -28.0334  -24.3802   20.8716 C   0  0  1  0  0  0
  -29.8922  -15.5884   20.7314 N   0  0  0  0  0  0
  -26.4012  -22.4345   21.3027 N   0  3  1  0  0  0
  -27.8396  -17.5125   20.8354 N   0  3  1  0  0  0
  -27.2773  -25.0663   21.8507 O   0  0  0  0  0  0
  -31.4626  -12.4224   19.1279 H   0  0  0  0  0  0
  -30.3261  -11.3096   19.8383 H   0  0  0  0  0  0
  -29.7364  -11.7772   17.4324 H   0  0  0  0  0  0
  -29.6621  -13.4904   17.7693 H   0  0  0  0  0  0
  -27.8164  -11.3210   18.8097 H   0  0  0  0  0  0
  -27.3631  -12.6614   17.7850 H   0  0  0  0  0  0
  -27.6921  -14.2574   19.5740 H   0  0  0  0  0  0
  -28.6841  -11.9609   21.3424 H   0  0  0  0  0  0
  -28.4561  -13.6017   21.8655 H   0  0  0  0  0  0
  -25.2791   -9.5649   22.4725 H   0  0  0  0  0  0
  -24.0025   -7.4595   22.7418 H   0  0  0  0  0  0
  -21.0864   -8.8749   19.8905 H   0  0  0  0  0  0
  -22.3712  -10.9679   19.6121 H   0  0  0  0  0  0
  -21.1981   -7.6135   23.9714 H   0  0  0  0  0  0
  -21.1445   -6.0504   25.9063 H   0  0  0  0  0  0
  -22.0626   -2.7617   23.2817 H   0  0  0  0  0  0
  -22.4163  -11.9948   22.4801 H   0  0  0  0  0  0
  -21.1082  -13.1201   22.2577 H   0  0  0  0  0  0
  -24.5370  -15.6449   20.4875 H   0  0  0  0  0  0
  -25.7951  -15.3227   19.4664 H   0  0  0  0  0  0
  -26.7112  -32.5528   23.1144 H   0  0  0  0  0  0
  -25.0110  -33.9761   25.0521 H   0  0  0  0  0  0
  -22.6787  -31.3084   21.4198 H   0  0  0  0  0  0
  -23.3722  -35.9694   23.3303 H   0  0  0  0  0  0
  -24.3584  -36.8946   22.2043 H   0  0  0  0  0  0
  -23.7252  -37.6555   23.6622 H   0  0  0  0  0  0
  -26.0250  -31.6098   20.5867 H   0  0  0  0  0  0
  -26.8228  -30.9054   21.9648 H   0  0  0  0  0  0
  -28.0919  -29.1058   21.1651 H   0  0  0  0  0  0
  -25.9995  -25.9937   18.9911 H   0  0  0  0  0  0
  -23.9681  -27.3145   19.0348 H   0  0  0  0  0  0
  -23.6695  -30.5957   19.4085 H   0  0  0  0  0  0
  -22.7306  -29.2204   19.8926 H   0  0  0  0  0  0
  -25.1272  -36.1981   25.0853 H   0  0  0  0  0  0
  -20.9947  -28.2834   24.1421 H   0  0  0  0  0  0
  -20.6530  -26.2192   23.2904 H   0  0  0  0  0  0
  -21.6667  -26.8185   22.0151 H   0  0  0  0  0  0
  -19.7042  -25.6658   21.0774 H   0  0  0  0  0  0
  -19.6001  -27.3603   20.6830 H   0  0  0  0  0  0
  -17.3939  -26.5761   21.5118 H   0  0  0  0  0  0
  -18.1293  -26.0026   22.9963 H   0  0  0  0  0  0
  -19.8015  -30.7385   24.1931 H   0  0  0  0  0  0
  -17.5022  -31.6420   24.4660 H   0  0  0  0  0  0
  -15.5354  -30.2930   23.7576 H   0  0  0  0  0  0
  -15.8656  -28.0620   22.7460 H   0  0  0  0  0  0
  -24.5929  -30.7017   25.7905 H   0  0  0  0  0  0
  -24.8987  -32.2813   26.5056 H   0  0  0  0  0  0
  -25.8241  -30.8811   27.0215 H   0  0  0  0  0  0
  -26.2770  -29.6814   24.1169 H   0  0  0  0  0  0
  -27.4097  -29.7295   25.4529 H   0  0  0  0  0  0
  -27.8604  -30.4374   23.9146 H   0  0  0  0  0  0
  -27.2613  -33.3566   26.2146 H   0  0  0  0  0  0
  -28.3819  -32.6960   25.0334 H   0  0  0  0  0  0
  -28.0706  -31.8387   26.5381 H   0  0  0  0  0  0
  -28.2622  -38.0112   24.7508 H   0  0  0  0  0  0
  -28.1050  -36.2644   24.6291 H   0  0  0  0  0  0
  -27.2297  -37.1499   25.8871 H   0  0  0  0  0  0
  -20.9079  -29.9607   21.8077 H   0  0  0  0  0  0
  -26.0170  -38.2915   24.1382 H   0  0  0  0  0  0
  -23.3891  -22.2400   22.6078 H   0  0  0  0  0  0
  -23.3413  -22.2313   20.8575 H   0  0  0  0  0  0
  -25.5204  -16.1562   25.8780 H   0  0  0  0  0  0
  -26.8372  -17.4206   26.0853 H   0  0  0  0  0  0
  -25.6613  -18.9368   24.4727 H   0  0  0  0  0  0
  -24.3324  -17.6800   24.2438 H   0  0  0  0  0  0
  -24.1136  -20.0014   21.1820 H   0  0  0  0  0  0
  -24.9482  -20.4254   22.6766 H   0  0  0  0  0  0
  -30.9605  -16.9929   19.5371 H   0  0  0  0  0  0
  -29.5224  -16.3054   18.8042 H   0  0  0  0  0  0
  -29.6063  -15.2803   22.8204 H   0  0  0  0  0  0
  -30.2366  -16.8277   22.3712 H   0  0  0  0  0  0
  -25.2338  -23.6792   22.5966 H   0  0  0  0  0  0
  -24.8891  -23.8953   20.8954 H   0  0  0  0  0  0
  -28.9082  -18.5445   19.2839 H   0  0  0  0  0  0
  -29.6719  -18.5575   20.8548 H   0  0  0  0  0  0
  -25.9703  -15.9779   23.4968 H   0  0  0  0  0  0
  -25.7294  -21.1566   19.8365 H   0  0  0  0  0  0
  -27.4330  -15.7953   21.9301 H   0  0  0  0  0  0
  -25.2569  -19.1578   19.2353 H   0  0  0  0  0  0
  -25.3071  -17.4733   19.4299 H   0  0  0  0  0  0
  -26.6182  -18.2791   18.5924 H   0  0  0  0  0  0
  -28.4780  -16.9525   24.1576 H   0  0  0  0  0  0
  -27.8543  -18.3816   23.4346 H   0  0  0  0  0  0
  -27.5500  -20.0657   22.0579 H   0  0  0  0  0  0
  -27.9138  -20.2660   20.3725 H   0  0  0  0  0  0
  -28.0201  -22.4750   19.9121 H   0  0  0  0  0  0
  -26.6487  -23.4277   19.4576 H   0  0  0  0  0  0
  -27.8941  -25.1992   18.8074 H   0  0  0  0  0  0
  -29.4678  -25.1328   19.4454 H   0  0  0  0  0  0
  -25.9766  -18.2199   21.5610 H   0  0  0  0  0  0
  -28.9417  -24.0418   21.3742 H   0  0  0  0  0  0
  -26.9271  -22.3670   22.1596 H   0  0  0  0  0  0
  -27.4880  -16.8056   20.2052 H   0  0  0  0  0  0
  -27.6764  -25.9264   21.9405 H   0  0  0  0  0  0
  1 25  1  0  0  0
  1 30  2  0  0  0
  1 89  1  0  0  0
  2  3  1  0  0  0
  2 25  1  0  0  0
  2 93  1  0  0  0
  2 94  1  0  0  0
  3  4  1  0  0  0
  3 95  1  0  0  0
  3 96  1  0  0  0
  4  5  1  0  0  0
  4 97  1  0  0  0
  4 98  1  0  0  0
  5  6  1  0  0  0
  5 26  1  0  0  0
  5 99  1  0  0  0
  6 25  1  0  0  0
  6100  1  0  0  0
  6101  1  0  0  0
  7  8  2  0  0  0
  7 26  1  0  0  0
  7 29  1  0  0  0
  8  9  1  0  0  0
  8 22  1  0  0  0
  9 10  1  0  0  0
  9 27  2  0  0  0
 10 11  2  0  0  0
 10 15  1  0  0  0
 11 12  1  0  0  0
 11102  1  0  0  0
 12 13  2  0  0  0
 12103  1  0  0  0
 13 14  1  0  0  0
 13 31  1  0  0  0
 14 15  2  0  0  0
 14104  1  0  0  0
 15105  1  0  0  0
 16 17  2  0  0  0
 16 21  1  0  0  0
 16 31  1  0  0  0
 17 18  1  0  0  0
 17106  1  0  0  0
 18 19  2  0  0  0
 18107  1  0  0  0
 19 20  1  0  0  0
 19 24  1  0  0  0
 20 21  2  0  0  0
 20108  1  0  0  0
 21 23  1  0  0  0
 22 28  1  0  0  0
 22 32  2  0  0  0
 26 27  1  0  0  0
 28109  1  0  0  0
 28110  1  0  0  0
 29111  1  0  0  0
 29112  1  0  0  0
 33 34  1  0  0  0
 33 66  1  0  0  0
 33 70  2  0  0  0
 34 36  1  0  0  0
 34 59  1  0  0  0
 34113  1  0  0  0
 35 44  2  0  0  0
 35 45  1  0  0  0
 35 68  1  0  0  0
 36 56  1  0  0  0
 36114  1  0  0  0
 37 39  1  0  0  0
 37 47  1  0  0  0
 37 66  1  0  0  0
 37115  1  0  0  0
 38 43  2  0  0  0
 38 46  1  0  0  0
 38 47  1  0  0  0
 39 64  1  0  0  0
 39 67  2  0  0  0
 40 52  1  0  0  0
 40 53  2  0  0  0
 40 58  1  0  0  0
 41116  1  0  0  0
 41117  1  0  0  0
 41118  1  0  0  0
 41 48  1  0  0  0
 42 43  1  0  0  0
 42 66  1  0  0  0
 42119  1  0  0  0
 42120  1  0  0  0
 43 44  1  0  0  0
 44121  1  0  0  0
 45 46  2  0  0  0
 45122  1  0  0  0
 46123  1  0  0  0
 47124  1  0  0  0
 47125  1  0  0  0
 48 56  1  0  0  0
 48 65  1  0  0  0
 48126  1  0  0  0
 49 50  1  0  0  0
 49 53  1  0  0  0
 49 64  1  0  0  0
 49127  1  0  0  0
 50 51  1  0  0  0
 50128  1  0  0  0
 50129  1  0  0  0
 51 52  1  0  0  0
 51130  1  0  0  0
 51131  1  0  0  0
 52132  1  0  0  0
 52133  1  0  0  0
 53 54  1  0  0  0
 54 55  2  0  0  0
 54134  1  0  0  0
 55 57  1  0  0  0
 55135  1  0  0  0
 56 69  2  0  0  0
 57 58  2  0  0  0
 57136  1  0  0  0
 58137  1  0  0  0
 59 60  1  0  0  0
 59 61  1  0  0  0
 59 62  1  0  0  0
 60138  1  0  0  0
 60139  1  0  0  0
 60140  1  0  0  0
 61141  1  0  0  0
 61142  1  0  0  0
 61143  1  0  0  0
 62144  1  0  0  0
 62145  1  0  0  0
 62146  1  0  0  0
 63 65  1  0  0  0
 63147  1  0  0  0
 63148  1  0  0  0
 63149  1  0  0  0
 64150  1  0  0  0
 65151  1  0  0  0
 68 86  1  0  0  0
 71 74  1  0  0  0
 71 77  1  0  0  0
 71152  1  0  0  0
 71153  1  0  0  0
 72 73  1  0  0  0
 72 79  1  0  0  0
 72154  1  0  0  0
 72155  1  0  0  0
 73 79  1  0  0  0
 73156  1  0  0  0
 73157  1  0  0  0
 74 80  1  0  0  0
 74158  1  0  0  0
 74159  1  0  0  0
 75 78  1  0  0  0
 75 89  1  0  0  0
 75160  1  0  0  0
 75161  1  0  0  0
 76 81  1  0  0  0
 76 89  1  0  0  0
 76162  1  0  0  0
 76163  1  0  0  0
 77 90  1  0  0  0
 77164  1  0  0  0
 77165  1  0  0  0
 78166  1  0  0  0
 78167  1  0  0  0
 78 91  1  0  0  0
 79 83  1  0  0  0
 79168  1  0  0  0
 80 84  1  0  0  0
 80 90  1  0  0  0
 80169  1  0  0  0
 81 83  1  0  0  0
 81 91  1  0  0  0
 81170  1  0  0  0
 82171  1  0  0  0
 82172  1  0  0  0
 82173  1  0  0  0
 82 87  1  0  0  0
 83174  1  0  0  0
 83175  1  0  0  0
 84 87  1  0  0  0
 84176  1  0  0  0
 84177  1  0  0  0
 85 88  1  0  0  0
 85178  1  0  0  0
 85179  1  0  0  0
 85 90  1  0  0  0
 86 88  1  0  0  0
 86180  1  0  0  0
 86181  1  0  0  0
 87 91  1  0  0  0
 87182  1  0  0  0
 88 92  1  0  0  0
 88183  1  0  0  0
 90184  1  0  0  0
 91185  1  0  0  0
 92186  1  0  0  0
M  CHG  2  90   1  91   1
M  ISO  4   1 100  68 101  86 101  89 100
M  END
> <chiral flag>
0

> <version>
0

> <s_m_source_file>
/data/baiqing/PycharmProjects/Reinvent-master-3.2/result/LINK_invent/BTK/process_docking_weight1_custom_sum_contain_oxygen_bond_distance_aromatic_linkinvent_7_9_3/rearranged_h_0122.sdf

> <i_m_source_file_index>
5

> <r_mmod_Potential_Energy-OPLS-2005>
204.350082397461

> <r_mmod_Stretch_Energy-OPLS-2005>
48.2109985351562

> <r_mmod_Bend_Energy-OPLS-2005>
156.62956237793

> <r_mmod_Torsional_Energy-OPLS-2005>
590.080627441406

> <r_mmod_Improper_Torsional_Energy-OPLS-2005>
21.0830841064453

> <r_mmod_Van_der_Waal_Energy-OPLS-2005>
148.618362426758

> <r_mmod_Electrostatic_Energy-OPLS-2005>
83.1203842163086

> <r_mmod_Solvation_Energy-OPLS-2005>
-859.273010253906

> <b_mmod_Minimization_Converged-OPLS-2005>
0

> <r_mmod_RMS_Derivative-OPLS-2005>
7.2272367477417

$$$$
5
                    3D
 Structure written by MMmdl.
167176  0  0  1  0            999 V2000
  -30.6639  -14.4955   20.5661 C   0  0  0  0  0  0
  -30.4457  -12.3215   19.4155 C   0  0  0  0  0  0
  -29.5054  -12.5056   18.2038 C   0  0  0  0  0  0
  -28.0276  -12.3518   18.6214 C   0  0  0  0  0  0
  -27.6700  -13.1931   19.8761 C   0  0  2  0  0  0
  -28.7121  -12.9520   20.9929 C   0  0  0  0  0  0
  -25.2643  -13.8119   20.5649 C   0  0  0  0  0  0
  -24.1860  -13.0431   20.9144 C   0  0  0  0  0  0
  -24.6380  -11.6886   20.8716 C   0  0  0  0  0  0
  -23.9030  -10.4295   21.0407 C   0  0  0  0  0  0
  -24.3596   -9.4211   21.9176 C   0  0  0  0  0  0
  -23.6281   -8.2238   22.0757 C   0  0  0  0  0  0
  -22.4253   -8.0286   21.3549 C   0  0  0  0  0  0
  -21.9869   -9.0257   20.4650 C   0  0  0  0  0  0
  -22.7202  -10.2138   20.3061 C   0  0  0  0  0  0
  -21.6837   -6.0733   22.5266 C   0  0  0  0  0  0
  -21.4013   -6.5632   23.8210 C   0  0  0  0  0  0
  -21.3663   -5.6787   24.9164 C   0  0  0  0  0  0
  -21.6042   -4.3047   24.7216 C   0  0  0  0  0  0
  -21.8825   -3.8146   23.4331 C   0  0  0  0  0  0
  -21.9190   -4.6957   22.3395 C   0  0  0  0  0  0
  -22.7889  -13.5278   21.1792 C   0  0  0  0  0  0
  -22.1652   -4.2141   21.0971 F   0  0  0  0  0  0
  -21.5639   -3.4537   25.7729 F   0  0  0  0  0  0
  -30.0469  -13.2858   20.4521 N   0  0  0  0  0  0
  -26.3067  -12.9262   20.3348 N   0  0  0  0  0  0
  -25.9298  -11.6435   20.5724 N   0  0  0  0  0  0
  -22.0490  -12.8337   22.0368 N   0  0  0  0  0  0
  -25.4437  -15.1832   20.4060 N   0  0  0  0  0  0
  -31.7650  -14.7413   20.0657 O   0  0  0  0  0  0
  -21.6629   -6.8869   21.4234 O   0  0  0  0  0  0
  -22.3597  -14.5584   20.6610 O   0  0  0  0  0  0
  -24.6207  -31.8657   23.2086 C   0  0  0  0  0  0
  -25.9073  -32.4822   23.8385 C   0  0  1  0  0  0
  -27.2332  -27.3960   20.0835 C   0  0  0  0  0  0
  -25.5897  -33.8608   24.2331 N   0  0  0  0  0  0
  -23.4104  -30.4943   21.5519 C   0  0  2  0  0  0
  -24.8534  -28.9598   20.1194 C   0  0  0  0  0  0
  -22.7444  -29.4669   22.4970 C   0  0  0  0  0  0
  -18.0285  -28.1404   22.8512 C   0  0  0  0  0  0
  -24.1492  -36.7313   23.2636 C   0  0  0  0  0  0
  -25.9451  -30.8230   21.3631 C   0  0  0  0  0  0
  -26.0212  -29.4535   20.7122 C   0  0  0  0  0  0
  -27.2129  -28.6810   20.6909 C   0  0  0  0  0  0
  -26.0273  -26.9276   19.5031 C   0  0  0  0  0  0
  -24.8522  -27.6970   19.5149 C   0  0  0  0  0  0
  -23.6205  -29.8337   20.1667 C   0  0  0  0  0  0
  -25.4112  -36.3113   24.0342 C   0  0  1  0  0  0
  -20.5892  -28.3701   23.1323 C   0  0  2  0  0  0
  -20.6790  -26.9430   22.5434 C   0  0  0  0  0  0
  -19.5762  -26.6418   21.5240 C   0  0  0  0  0  0
  -18.1933  -26.7962   22.1637 C   0  0  0  0  0  0
  -19.1535  -28.8868   23.2923 C   0  0  0  0  0  0
  -18.9455  -30.1470   23.8945 C   0  0  0  0  0  0
  -17.6457  -30.6605   24.0589 C   0  0  0  0  0  0
  -25.9039  -34.9473   23.5130 C   0  0  0  0  0  0
  -16.5351  -29.9123   23.6318 C   0  0  0  0  0  0
  -16.7276  -28.6533   23.0353 C   0  0  0  0  0  0
  -26.4493  -31.6594   25.0694 C   0  0  0  0  0  0
  -25.3756  -31.3700   26.1441 C   0  0  0  0  0  0
  -27.0299  -30.3042   24.6034 C   0  0  0  0  0  0
  -27.6112  -32.4277   25.7409 C   0  0  0  0  0  0
  -27.5595  -37.1790   24.8458 C   0  0  0  0  0  0
  -21.4172  -29.3061   22.3708 N   0  0  0  0  0  0
  -26.4306  -37.3801   23.9413 N   0  0  0  0  0  0
  -24.6782  -31.0748   22.1001 N   0  0  0  0  0  0
  -23.4197  -28.8185   23.3000 O   0  0  0  0  0  0
  -28.4027  -26.6351   20.0746 O   0  0  0  0  0  0
  -26.5605  -34.8919   22.4695 O   0  0  0  0  0  0
  -23.5384  -32.1394   23.7461 O   0  0  0  0  0  0
  -29.7855  -21.2288   21.3900 C   0  0  0  0  0  0
  -32.0607  -23.3219   21.8924 C   0  0  0  0  0  0
  -31.9964  -22.3399   20.7262 C   0  0  0  0  0  0
  -30.8709  -17.6992   20.2363 C   0  0  0  0  0  0
  -29.5846  -17.5771   22.3356 C   0  0  0  0  0  0
  -30.4929  -19.2023   20.0626 C   0  0  0  0  0  0
  -29.0982  -19.0270   22.1771 C   0  0  0  0  0  0
  -30.9270  -24.3114   21.5912 C   0  0  0  0  0  0
  -30.4902  -22.2339   20.4335 C   0  0  2  0  0  0
  -29.7759  -16.9085   20.9770 C   0  0  0  0  0  0
  -29.6000  -24.4291   19.4829 C   0  0  0  0  0  0
  -28.2950  -25.2633   19.6136 C   0  0  0  0  0  0
  -29.8812  -19.8710   21.2420 N   0  0  0  0  0  0
  -29.8856  -15.4405   21.1272 N   0  0  0  0  0  0
  -29.9657  -23.6180   20.6902 N   0  3  2  0  0  0
  -29.1126  -21.7284   22.3024 O   0  0  0  0  0  0
  -31.4876  -12.4485   19.1129 H   0  0  0  0  0  0
  -30.3752  -11.3054   19.8056 H   0  0  0  0  0  0
  -29.7519  -11.7800   17.4276 H   0  0  0  0  0  0
  -29.6601  -13.4900   17.7582 H   0  0  0  0  0  0
  -27.8550  -11.2944   18.8268 H   0  0  0  0  0  0
  -27.3717  -12.6096   17.7880 H   0  0  0  0  0  0
  -27.7204  -14.2413   19.5810 H   0  0  0  0  0  0
  -28.6955  -11.9051   21.3016 H   0  0  0  0  0  0
  -28.4588  -13.5136   21.8946 H   0  0  0  0  0  0
  -25.2746   -9.5687   22.4730 H   0  0  0  0  0  0
  -23.9986   -7.4638   22.7481 H   0  0  0  0  0  0
  -21.0793   -8.8788   19.8968 H   0  0  0  0  0  0
  -22.3666  -10.9676   19.6178 H   0  0  0  0  0  0
  -21.2011   -7.6132   23.9709 H   0  0  0  0  0  0
  -21.1472   -6.0503   25.9065 H   0  0  0  0  0  0
  -22.0599   -2.7597   23.2827 H   0  0  0  0  0  0
  -22.4065  -12.0047   22.4882 H   0  0  0  0  0  0
  -21.1108  -13.1426   22.2495 H   0  0  0  0  0  0
  -24.6847  -15.8485   20.5133 H   0  0  0  0  0  0
  -26.3017  -15.6085   20.0774 H   0  0  0  0  0  0
  -26.7133  -32.5546   23.1141 H   0  0  0  0  0  0
  -25.0019  -33.9755   25.0456 H   0  0  0  0  0  0
  -22.7024  -31.3138   21.4139 H   0  0  0  0  0  0
  -23.3759  -35.9644   23.3291 H   0  0  0  0  0  0
  -24.3583  -36.8921   22.2048 H   0  0  0  0  0  0
  -23.7231  -37.6508   23.6651 H   0  0  0  0  0  0
  -26.0493  -31.5824   20.5867 H   0  0  0  0  0  0
  -26.8387  -30.8867   21.9730 H   0  0  0  0  0  0
  -28.1139  -29.0632   21.1488 H   0  0  0  0  0  0
  -25.9441  -25.9636   19.0262 H   0  0  0  0  0  0
  -23.9511  -27.3089   19.0627 H   0  0  0  0  0  0
  -23.7374  -30.6094   19.4088 H   0  0  0  0  0  0
  -22.7430  -29.2594   19.8665 H   0  0  0  0  0  0
  -25.1288  -36.1991   25.0842 H   0  0  0  0  0  0
  -21.0001  -28.3282   24.1439 H   0  0  0  0  0  0
  -20.5741  -26.2290   23.3617 H   0  0  0  0  0  0
  -21.6653  -26.7493   22.1197 H   0  0  0  0  0  0
  -19.6912  -25.6343   21.1236 H   0  0  0  0  0  0
  -19.6712  -27.3265   20.6800 H   0  0  0  0  0  0
  -17.4213  -26.6748   21.4022 H   0  0  0  0  0  0
  -18.0301  -26.0109   22.9030 H   0  0  0  0  0  0
  -19.7927  -30.7282   24.2345 H   0  0  0  0  0  0
  -17.5007  -31.6287   24.5189 H   0  0  0  0  0  0
  -15.5356  -30.3043   23.7614 H   0  0  0  0  0  0
  -15.8674  -28.0872   22.7045 H   0  0  0  0  0  0
  -24.5957  -30.7014   25.7773 H   0  0  0  0  0  0
  -24.8902  -32.2845   26.4862 H   0  0  0  0  0  0
  -25.8105  -30.8888   27.0210 H   0  0  0  0  0  0
  -26.2798  -29.6785   24.1180 H   0  0  0  0  0  0
  -27.4181  -29.7298   25.4453 H   0  0  0  0  0  0
  -27.8596  -30.4358   23.9085 H   0  0  0  0  0  0
  -27.2802  -33.3571   26.2051 H   0  0  0  0  0  0
  -28.3875  -32.6836   25.0183 H   0  0  0  0  0  0
  -28.0849  -31.8345   26.5240 H   0  0  0  0  0  0
  -28.2632  -38.0074   24.7526 H   0  0  0  0  0  0
  -28.1079  -36.2605   24.6286 H   0  0  0  0  0  0
  -27.2298  -37.1442   25.8857 H   0  0  0  0  0  0
  -20.9321  -29.8758   21.6921 H   0  0  0  0  0  0
  -26.0199  -38.2874   24.1464 H   0  0  0  0  0  0
  -33.0329  -23.8051   21.9905 H   0  0  0  0  0  0
  -31.8582  -22.8002   22.8300 H   0  0  0  0  0  0
  -32.4744  -21.3874   20.9569 H   0  0  0  0  0  0
  -32.5048  -22.7622   19.8571 H   0  0  0  0  0  0
  -31.8179  -17.6219   20.7734 H   0  0  0  0  0  0
  -31.0399  -17.2709   19.2465 H   0  0  0  0  0  0
  -28.8485  -17.0338   22.9305 H   0  0  0  0  0  0
  -30.5145  -17.5530   22.9055 H   0  0  0  0  0  0
  -29.7685  -19.2824   19.2497 H   0  0  0  0  0  0
  -31.3826  -19.7338   19.7233 H   0  0  0  0  0  0
  -29.0723  -19.4577   23.1803 H   0  0  0  0  0  0
  -28.0651  -19.0265   21.8246 H   0  0  0  0  0  0
  -31.3445  -25.2022   21.1210 H   0  0  0  0  0  0
  -30.4298  -24.6366   22.5052 H   0  0  0  0  0  0
  -30.3114  -21.9040   19.4105 H   0  0  0  0  0  0
  -28.8513  -17.0390   20.4108 H   0  0  0  0  0  0
  -30.4278  -25.0425   19.1237 H   0  0  0  0  0  0
  -29.4130  -23.7291   18.6683 H   0  0  0  0  0  0
  -27.5674  -24.7160   20.2166 H   0  0  0  0  0  0
  -27.9009  -25.3001   18.5969 H   0  0  0  0  0  0
  -29.0751  -15.0281   21.5651 H   0  0  0  0  0  0
  -29.1323  -23.4221   21.2360 H   0  0  0  0  0  0
  1 25  1  0  0  0
  1 30  2  0  0  0
  1 84  1  0  0  0
  2  3  1  0  0  0
  2 25  1  0  0  0
  2 87  1  0  0  0
  2 88  1  0  0  0
  3  4  1  0  0  0
  3 89  1  0  0  0
  3 90  1  0  0  0
  4  5  1  0  0  0
  4 91  1  0  0  0
  4 92  1  0  0  0
  5  6  1  0  0  0
  5 26  1  0  0  0
  5 93  1  0  0  0
  6 25  1  0  0  0
  6 94  1  0  0  0
  6 95  1  0  0  0
  7  8  2  0  0  0
  7 26  1  0  0  0
  7 29  1  0  0  0
  8  9  1  0  0  0
  8 22  1  0  0  0
  9 10  1  0  0  0
  9 27  2  0  0  0
 10 11  2  0  0  0
 10 15  1  0  0  0
 11 12  1  0  0  0
 11 96  1  0  0  0
 12 13  2  0  0  0
 12 97  1  0  0  0
 13 14  1  0  0  0
 13 31  1  0  0  0
 14 15  2  0  0  0
 14 98  1  0  0  0
 15 99  1  0  0  0
 16 17  2  0  0  0
 16 21  1  0  0  0
 16 31  1  0  0  0
 17 18  1  0  0  0
 17100  1  0  0  0
 18 19  2  0  0  0
 18101  1  0  0  0
 19 20  1  0  0  0
 19 24  1  0  0  0
 20 21  2  0  0  0
 20102  1  0  0  0
 21 23  1  0  0  0
 22 28  1  0  0  0
 22 32  2  0  0  0
 26 27  1  0  0  0
 28103  1  0  0  0
 28104  1  0  0  0
 29105  1  0  0  0
 29106  1  0  0  0
 33 34  1  0  0  0
 33 66  1  0  0  0
 33 70  2  0  0  0
 34 36  1  0  0  0
 34 59  1  0  0  0
 34107  1  0  0  0
 35 44  2  0  0  0
 35 45  1  0  0  0
 35 68  1  0  0  0
 36 56  1  0  0  0
 36108  1  0  0  0
 37 39  1  0  0  0
 37 47  1  0  0  0
 37 66  1  0  0  0
 37109  1  0  0  0
 38 43  2  0  0  0
 38 46  1  0  0  0
 38 47  1  0  0  0
 39 64  1  0  0  0
 39 67  2  0  0  0
 40 52  1  0  0  0
 40 53  2  0  0  0
 40 58  1  0  0  0
 41110  1  0  0  0
 41111  1  0  0  0
 41112  1  0  0  0
 41 48  1  0  0  0
 42 43  1  0  0  0
 42 66  1  0  0  0
 42113  1  0  0  0
 42114  1  0  0  0
 43 44  1  0  0  0
 44115  1  0  0  0
 45 46  2  0  0  0
 45116  1  0  0  0
 46117  1  0  0  0
 47118  1  0  0  0
 47119  1  0  0  0
 48 56  1  0  0  0
 48 65  1  0  0  0
 48120  1  0  0  0
 49 50  1  0  0  0
 49 53  1  0  0  0
 49 64  1  0  0  0
 49121  1  0  0  0
 50 51  1  0  0  0
 50122  1  0  0  0
 50123  1  0  0  0
 51 52  1  0  0  0
 51124  1  0  0  0
 51125  1  0  0  0
 52126  1  0  0  0
 52127  1  0  0  0
 53 54  1  0  0  0
 54 55  2  0  0  0
 54128  1  0  0  0
 55 57  1  0  0  0
 55129  1  0  0  0
 56 69  2  0  0  0
 57 58  2  0  0  0
 57130  1  0  0  0
 58131  1  0  0  0
 59 60  1  0  0  0
 59 61  1  0  0  0
 59 62  1  0  0  0
 60132  1  0  0  0
 60133  1  0  0  0
 60134  1  0  0  0
 61135  1  0  0  0
 61136  1  0  0  0
 61137  1  0  0  0
 62138  1  0  0  0
 62139  1  0  0  0
 62140  1  0  0  0
 63 65  1  0  0  0
 63141  1  0  0  0
 63142  1  0  0  0
 63143  1  0  0  0
 64144  1  0  0  0
 65145  1  0  0  0
 68 82  1  0  0  0
 71 83  1  0  0  0
 71 86  2  0  0  0
 71 79  1  0  0  0
 72 73  1  0  0  0
 72 78  1  0  0  0
 72146  1  0  0  0
 72147  1  0  0  0
 73 79  1  0  0  0
 73148  1  0  0  0
 73149  1  0  0  0
 74 76  1  0  0  0
 74 80  1  0  0  0
 74150  1  0  0  0
 74151  1  0  0  0
 75 77  1  0  0  0
 75 80  1  0  0  0
 75152  1  0  0  0
 75153  1  0  0  0
 76 83  1  0  0  0
 76154  1  0  0  0
 76155  1  0  0  0
 77 83  1  0  0  0
 77156  1  0  0  0
 77157  1  0  0  0
 78 85  1  0  0  0
 78158  1  0  0  0
 78159  1  0  0  0
 79 85  1  0  0  0
 79160  1  0  0  0
 80 84  1  0  0  0
 80161  1  0  0  0
 81 82  1  0  0  0
 81162  1  0  0  0
 81163  1  0  0  0
 81 85  1  0  0  0
 82164  1  0  0  0
 82165  1  0  0  0
 84166  1  0  0  0
 85167  1  0  0  0
M  CHG  1  85   1
M  ISO  4   1 100  68 101  82 101  84 100
M  END
> <chiral flag>
0

> <version>
0

> <s_m_source_file>
/data/baiqing/PycharmProjects/Reinvent-master-3.2/result/LINK_invent/BTK/process_docking_weight1_custom_sum_contain_oxygen_bond_distance_aromatic_linkinvent_7_9_3/rearranged_h_0122.sdf

> <i_m_source_file_index>
6

> <r_mmod_Potential_Energy-OPLS-2005>
13.3099269866943

> <r_mmod_Stretch_Energy-OPLS-2005>
50.5039024353027

> <r_mmod_Bend_Energy-OPLS-2005>
165.199584960938

> <r_mmod_Torsional_Energy-OPLS-2005>
327.043762207031

> <r_mmod_Improper_Torsional_Energy-OPLS-2005>
5.01160907745361

> <r_mmod_Van_der_Waal_Energy-OPLS-2005>
155.672897338867

> <r_mmod_Electrostatic_Energy-OPLS-2005>
-278.349029541016

> <r_mmod_Solvation_Energy-OPLS-2005>
-428.879180908203

> <b_mmod_Minimization_Converged-OPLS-2005>
0

> <r_mmod_RMS_Derivative-OPLS-2005>
2.89998841285706

$$$$
6
                    3D
 Structure written by MMmdl.
164173  0  0  1  0            999 V2000
  -30.6379  -14.7183   20.4540 C   0  0  0  0  0  0
  -30.4219  -12.4374   19.4684 C   0  0  0  0  0  0
  -29.5046  -12.4995   18.2282 C   0  0  0  0  0  0
  -28.0278  -12.3365   18.6372 C   0  0  0  0  0  0
  -27.6391  -13.2331   19.8445 C   0  0  2  0  0  0
  -28.6855  -13.1671   20.9794 C   0  0  0  0  0  0
  -25.2502  -13.8209   20.5687 C   0  0  0  0  0  0
  -24.1792  -13.0450   20.9207 C   0  0  0  0  0  0
  -24.6387  -11.6929   20.8748 C   0  0  0  0  0  0
  -23.9064  -10.4303   21.0395 C   0  0  0  0  0  0
  -24.3622   -9.4216   21.9162 C   0  0  0  0  0  0
  -23.6308   -8.2246   22.0726 C   0  0  0  0  0  0
  -22.4285   -8.0287   21.3522 C   0  0  0  0  0  0
  -21.9920   -9.0260   20.4620 C   0  0  0  0  0  0
  -22.7245  -10.2143   20.3030 C   0  0  0  0  0  0
  -21.6862   -6.0736   22.5274 C   0  0  0  0  0  0
  -21.4026   -6.5635   23.8212 C   0  0  0  0  0  0
  -21.3656   -5.6785   24.9172 C   0  0  0  0  0  0
  -21.6042   -4.3045   24.7219 C   0  0  0  0  0  0
  -21.8821   -3.8139   23.4339 C   0  0  0  0  0  0
  -21.9199   -4.6960   22.3401 C   0  0  0  0  0  0
  -22.7810  -13.5225   21.1863 C   0  0  0  0  0  0
  -22.1656   -4.2141   21.0981 F   0  0  0  0  0  0
  -21.5625   -3.4530   25.7727 F   0  0  0  0  0  0
  -29.9856  -13.5082   20.3924 N   0  0  0  0  0  0
  -26.2922  -12.9418   20.3256 N   0  0  0  0  0  0
  -25.9317  -11.6560   20.5745 N   0  0  0  0  0  0
  -22.0460  -12.8214   22.0424 N   0  0  0  0  0  0
  -25.4213  -15.1941   20.4112 N   0  0  0  0  0  0
  -31.8310  -14.7864   20.1526 O   0  0  0  0  0  0
  -21.6645   -6.8885   21.4238 O   0  0  0  0  0  0
  -22.3488  -14.5524   20.6699 O   0  0  0  0  0  0
  -24.6317  -31.8562   23.1968 C   0  0  0  0  0  0
  -25.9146  -32.4758   23.8321 C   0  0  1  0  0  0
  -27.2253  -27.2768   20.1286 C   0  0  0  0  0  0
  -25.5941  -33.8561   24.2253 N   0  0  0  0  0  0
  -23.4272  -30.4766   21.5428 C   0  0  2  0  0  0
  -24.8720  -28.9168   20.1193 C   0  0  0  0  0  0
  -22.7508  -29.4597   22.4934 C   0  0  0  0  0  0
  -18.0295  -28.1395   22.8481 C   0  0  0  0  0  0
  -24.1493  -36.7287   23.2637 C   0  0  0  0  0  0
  -25.9718  -30.7751   21.3702 C   0  0  0  0  0  0
  -26.0453  -29.3971   20.7145 C   0  0  0  0  0  0
  -27.2289  -28.5929   20.6970 C   0  0  0  0  0  0
  -26.0241  -26.8475   19.5271 C   0  0  0  0  0  0
  -24.8643  -27.6476   19.5169 C   0  0  0  0  0  0
  -23.6444  -29.8063   20.1609 C   0  0  0  0  0  0
  -25.4119  -36.3072   24.0324 C   0  0  1  0  0  0
  -20.5897  -28.3696   23.1284 C   0  0  2  0  0  0
  -20.6784  -26.9417   22.5414 C   0  0  0  0  0  0
  -19.5755  -26.6386   21.5223 C   0  0  0  0  0  0
  -18.1933  -26.7935   22.1627 C   0  0  0  0  0  0
  -19.1546  -28.8867   23.2871 C   0  0  0  0  0  0
  -18.9461  -30.1471   23.8879 C   0  0  0  0  0  0
  -17.6455  -30.6588   24.0567 C   0  0  0  0  0  0
  -25.9060  -34.9441   23.5091 C   0  0  0  0  0  0
  -16.5350  -29.9081   23.6338 C   0  0  0  0  0  0
  -16.7281  -28.6510   23.0344 C   0  0  0  0  0  0
  -26.4507  -31.6584   25.0714 C   0  0  0  0  0  0
  -25.3728  -31.3740   26.1434 C   0  0  0  0  0  0
  -27.0346  -30.2997   24.6196 C   0  0  0  0  0  0
  -27.6065  -32.4321   25.7487 C   0  0  0  0  0  0
  -27.5581  -37.1800   24.8462 C   0  0  0  0  0  0
  -21.4215  -29.3036   22.3678 N   0  0  0  0  0  0
  -26.4295  -37.3771   23.9402 N   0  0  0  0  0  0
  -24.6965  -31.0535   22.0935 N   0  0  0  0  0  0
  -23.4212  -28.8158   23.3046 O   0  0  0  0  0  0
  -28.3463  -26.4226   20.1156 O   0  0  0  0  0  0
  -26.5628  -34.8923   22.4658 O   0  0  0  0  0  0
  -23.5472  -32.1371   23.7277 O   0  0  0  0  0  0
  -32.3324  -21.1700   20.7902 C   0  0  0  0  0  0
  -31.2619  -22.0852   20.7400 C   0  0  0  0  0  0
  -31.8013  -19.9283   20.6572 C   0  0  0  0  0  0
  -30.0861  -21.4226   20.5040 C   0  0  0  0  0  0
  -30.0436  -25.1894   17.8496 C   0  0  0  0  0  0
  -30.9491  -24.9871   19.0427 C   0  0  0  0  0  0
  -29.8756  -23.9634   18.7261 C   0  0  0  0  0  0
  -27.4701  -23.5370   18.6160 C   0  0  0  0  0  0
  -28.7455  -22.2248   20.3687 C   0  0  0  0  0  0
  -29.6212  -18.6806   20.4740 C   0  0  0  0  0  0
  -30.4923  -17.3003   20.5973 C   0  0  0  0  0  0
  -28.2242  -24.9826   20.5301 C   0  0  0  0  0  0
  -28.6404  -23.6963   19.6104 C   0  0  1  0  0  0
  -30.4110  -19.9941   20.5346 N   0  0  0  0  0  0
  -29.9135  -15.8856   20.6386 N   0  0  0  0  0  0
  -31.4657  -12.5456   19.1684 H   0  0  0  0  0  0
  -30.3496  -11.4627   19.9543 H   0  0  0  0  0  0
  -29.7855  -11.7269   17.5109 H   0  0  0  0  0  0
  -29.6375  -13.4545   17.7172 H   0  0  0  0  0  0
  -27.8699  -11.2876   18.8895 H   0  0  0  0  0  0
  -27.3767  -12.5416   17.7868 H   0  0  0  0  0  0
  -27.6349  -14.2546   19.4635 H   0  0  0  0  0  0
  -28.7163  -12.1707   21.4229 H   0  0  0  0  0  0
  -28.4270  -13.8536   21.7867 H   0  0  0  0  0  0
  -25.2762   -9.5707   22.4741 H   0  0  0  0  0  0
  -24.0013   -7.4642   22.7445 H   0  0  0  0  0  0
  -21.0842   -8.8789   19.8943 H   0  0  0  0  0  0
  -22.3690  -10.9685   19.6139 H   0  0  0  0  0  0
  -21.2026   -7.6143   23.9717 H   0  0  0  0  0  0
  -21.1473   -6.0507   25.9077 H   0  0  0  0  0  0
  -22.0606   -2.7601   23.2839 H   0  0  0  0  0  0
  -22.4093  -11.9903   22.4849 H   0  0  0  0  0  0
  -21.1056  -13.1209   22.2590 H   0  0  0  0  0  0
  -24.6576  -15.8514   20.5239 H   0  0  0  0  0  0
  -26.2683  -15.6305   20.0702 H   0  0  0  0  0  0
  -26.7219  -32.5409   23.1070 H   0  0  0  0  0  0
  -25.0109  -33.9698   25.0412 H   0  0  0  0  0  0
  -22.7222  -31.2975   21.3959 H   0  0  0  0  0  0
  -23.3751  -35.9623   23.3303 H   0  0  0  0  0  0
  -24.3584  -36.8906   22.2050 H   0  0  0  0  0  0
  -23.7255  -37.6494   23.6659 H   0  0  0  0  0  0
  -26.1074  -31.5351   20.5996 H   0  0  0  0  0  0
  -26.8500  -30.8252   22.0021 H   0  0  0  0  0  0
  -28.1358  -28.9651   21.1524 H   0  0  0  0  0  0
  -25.9713  -25.8724   19.0691 H   0  0  0  0  0  0
  -23.9621  -27.2690   19.0556 H   0  0  0  0  0  0
  -23.7762  -30.5813   19.4049 H   0  0  0  0  0  0
  -22.7609  -29.2438   19.8527 H   0  0  0  0  0  0
  -25.1303  -36.1918   25.0817 H   0  0  0  0  0  0
  -20.9983  -28.3274   24.1409 H   0  0  0  0  0  0
  -20.5710  -26.2303   23.3616 H   0  0  0  0  0  0
  -21.6650  -26.7459   22.1196 H   0  0  0  0  0  0
  -19.6916  -25.6297   21.1256 H   0  0  0  0  0  0
  -19.6697  -27.3196   20.6755 H   0  0  0  0  0  0
  -17.4212  -26.6692   21.4020 H   0  0  0  0  0  0
  -18.0317  -26.0085   22.9029 H   0  0  0  0  0  0
  -19.7935  -30.7300   24.2229 H   0  0  0  0  0  0
  -17.5009  -31.6264   24.5173 H   0  0  0  0  0  0
  -15.5349  -30.2971   23.7677 H   0  0  0  0  0  0
  -15.8686  -28.0835   22.7040 H   0  0  0  0  0  0
  -24.5900  -30.7092   25.7764 H   0  0  0  0  0  0
  -24.8921  -32.2912   26.4845 H   0  0  0  0  0  0
  -25.8042  -30.8927   27.0221 H   0  0  0  0  0  0
  -26.2924  -29.6743   24.1219 H   0  0  0  0  0  0
  -27.4025  -29.7264   25.4717 H   0  0  0  0  0  0
  -27.8806  -30.4262   23.9434 H   0  0  0  0  0  0
  -27.2673  -33.3617   26.2064 H   0  0  0  0  0  0
  -28.3871  -32.6886   25.0313 H   0  0  0  0  0  0
  -28.0740  -31.8449   26.5399 H   0  0  0  0  0  0
  -28.2602  -38.0095   24.7507 H   0  0  0  0  0  0
  -28.1076  -36.2627   24.6290 H   0  0  0  0  0  0
  -27.2303  -37.1454   25.8868 H   0  0  0  0  0  0
  -20.9416  -29.8738   21.6853 H   0  0  0  0  0  0
  -26.0173  -38.2848   24.1392 H   0  0  0  0  0  0
  -33.3819  -21.3939   20.9278 H   0  0  0  0  0  0
  -31.3556  -23.1554   20.8487 H   0  0  0  0  0  0
  -32.3443  -18.9949   20.6677 H   0  0  0  0  0  0
  -30.4770  -25.0404   16.8627 H   0  0  0  0  0  0
  -29.2994  -25.9805   17.9021 H   0  0  0  0  0  0
  -30.8129  -25.6521   19.8921 H   0  0  0  0  0  0
  -31.9811  -24.7019   18.8473 H   0  0  0  0  0  0
  -30.2238  -23.0533   18.2398 H   0  0  0  0  0  0
  -27.6488  -22.7209   17.9143 H   0  0  0  0  0  0
  -27.3238  -24.4376   18.0203 H   0  0  0  0  0  0
  -26.5318  -23.3272   19.1308 H   0  0  0  0  0  0
  -28.3440  -22.3570   21.3740 H   0  0  0  0  0  0
  -28.0358  -21.5390   19.9063 H   0  0  0  0  0  0
  -28.8852  -18.7078   21.2778 H   0  0  0  0  0  0
  -29.0597  -18.6732   19.5392 H   0  0  0  0  0  0
  -31.0901  -17.3720   21.5073 H   0  0  0  0  0  0
  -31.2051  -17.3035   19.7710 H   0  0  0  0  0  0
  -28.8676  -24.9256   21.4087 H   0  0  0  0  0  0
  -27.2258  -24.8148   20.9370 H   0  0  0  0  0  0
  -28.9252  -15.7913   20.8216 H   0  0  0  0  0  0
  1 25  1  0  0  0
  1 30  2  0  0  0
  1 85  1  0  0  0
  2  3  1  0  0  0
  2 25  1  0  0  0
  2 86  1  0  0  0
  2 87  1  0  0  0
  3  4  1  0  0  0
  3 88  1  0  0  0
  3 89  1  0  0  0
  4  5  1  0  0  0
  4 90  1  0  0  0
  4 91  1  0  0  0
  5  6  1  0  0  0
  5 26  1  0  0  0
  5 92  1  0  0  0
  6 25  1  0  0  0
  6 93  1  0  0  0
  6 94  1  0  0  0
  7  8  2  0  0  0
  7 26  1  0  0  0
  7 29  1  0  0  0
  8  9  1  0  0  0
  8 22  1  0  0  0
  9 10  1  0  0  0
  9 27  2  0  0  0
 10 11  2  0  0  0
 10 15  1  0  0  0
 11 12  1  0  0  0
 11 95  1  0  0  0
 12 13  2  0  0  0
 12 96  1  0  0  0
 13 14  1  0  0  0
 13 31  1  0  0  0
 14 15  2  0  0  0
 14 97  1  0  0  0
 15 98  1  0  0  0
 16 17  2  0  0  0
 16 21  1  0  0  0
 16 31  1  0  0  0
 17 18  1  0  0  0
 17 99  1  0  0  0
 18 19  2  0  0  0
 18100  1  0  0  0
 19 20  1  0  0  0
 19 24  1  0  0  0
 20 21  2  0  0  0
 20101  1  0  0  0
 21 23  1  0  0  0
 22 28  1  0  0  0
 22 32  2  0  0  0
 26 27  1  0  0  0
 28102  1  0  0  0
 28103  1  0  0  0
 29104  1  0  0  0
 29105  1  0  0  0
 33 34  1  0  0  0
 33 66  1  0  0  0
 33 70  2  0  0  0
 34 36  1  0  0  0
 34 59  1  0  0  0
 34106  1  0  0  0
 35 44  2  0  0  0
 35 45  1  0  0  0
 35 68  1  0  0  0
 36 56  1  0  0  0
 36107  1  0  0  0
 37 39  1  0  0  0
 37 47  1  0  0  0
 37 66  1  0  0  0
 37108  1  0  0  0
 38 43  2  0  0  0
 38 46  1  0  0  0
 38 47  1  0  0  0
 39 64  1  0  0  0
 39 67  2  0  0  0
 40 52  1  0  0  0
 40 53  2  0  0  0
 40 58  1  0  0  0
 41109  1  0  0  0
 41110  1  0  0  0
 41111  1  0  0  0
 41 48  1  0  0  0
 42 43  1  0  0  0
 42 66  1  0  0  0
 42112  1  0  0  0
 42113  1  0  0  0
 43 44  1  0  0  0
 44114  1  0  0  0
 45 46  2  0  0  0
 45115  1  0  0  0
 46116  1  0  0  0
 47117  1  0  0  0
 47118  1  0  0  0
 48 56  1  0  0  0
 48 65  1  0  0  0
 48119  1  0  0  0
 49 50  1  0  0  0
 49 53  1  0  0  0
 49 64  1  0  0  0
 49120  1  0  0  0
 50 51  1  0  0  0
 50121  1  0  0  0
 50122  1  0  0  0
 51 52  1  0  0  0
 51123  1  0  0  0
 51124  1  0  0  0
 52125  1  0  0  0
 52126  1  0  0  0
 53 54  1  0  0  0
 54 55  2  0  0  0
 54127  1  0  0  0
 55 57  1  0  0  0
 55128  1  0  0  0
 56 69  2  0  0  0
 57 58  2  0  0  0
 57129  1  0  0  0
 58130  1  0  0  0
 59 60  1  0  0  0
 59 61  1  0  0  0
 59 62  1  0  0  0
 60131  1  0  0  0
 60132  1  0  0  0
 60133  1  0  0  0
 61134  1  0  0  0
 61135  1  0  0  0
 61136  1  0  0  0
 62137  1  0  0  0
 62138  1  0  0  0
 62139  1  0  0  0
 63 65  1  0  0  0
 63140  1  0  0  0
 63141  1  0  0  0
 63142  1  0  0  0
 64143  1  0  0  0
 65144  1  0  0  0
 68 82  1  0  0  0
 71 72  1  0  0  0
 71 73  2  0  0  0
 71145  1  0  0  0
 72 74  2  0  0  0
 72146  1  0  0  0
 73 84  1  0  0  0
 73147  1  0  0  0
 74 79  1  0  0  0
 74 84  1  0  0  0
 75 76  1  0  0  0
 75148  1  0  0  0
 75149  1  0  0  0
 75 77  1  0  0  0
 76 77  1  0  0  0
 76150  1  0  0  0
 76151  1  0  0  0
 77 83  1  0  0  0
 77152  1  0  0  0
 78153  1  0  0  0
 78154  1  0  0  0
 78155  1  0  0  0
 78 83  1  0  0  0
 79 83  1  0  0  0
 79156  1  0  0  0
 79157  1  0  0  0
 80 81  1  0  0  0
 80 84  1  0  0  0
 80158  1  0  0  0
 80159  1  0  0  0
 81 85  1  0  0  0
 81160  1  0  0  0
 81161  1  0  0  0
 82 83  1  0  0  0
 82162  1  0  0  0
 82163  1  0  0  0
 85164  1  0  0  0
M  ISO  4   1 100  68 101  82 101  85 100
M  END
> <chiral flag>
0

> <version>
0

> <s_m_source_file>
/data/baiqing/PycharmProjects/Reinvent-master-3.2/result/LINK_invent/BTK/process_docking_weight1_custom_sum_contain_oxygen_bond_distance_aromatic_linkinvent_7_9_3/rearranged_h_0122.sdf

> <i_m_source_file_index>
7

> <r_mmod_Potential_Energy-OPLS-2005>
270.625762939453

> <r_mmod_Stretch_Energy-OPLS-2005>
145.739837646484

> <r_mmod_Bend_Energy-OPLS-2005>
218.582275390625

> <r_mmod_Torsional_Energy-OPLS-2005>
277.703460693359

> <r_mmod_Improper_Torsional_Energy-OPLS-2005>
4.84879970550537

> <r_mmod_Van_der_Waal_Energy-OPLS-2005>
125.989738464355

> <r_mmod_Electrostatic_Energy-OPLS-2005>
-362.856658935547

> <r_mmod_Solvation_Energy-OPLS-2005>
-212.359527587891

> <b_mmod_Minimization_Converged-OPLS-2005>
0

> <r_mmod_RMS_Derivative-OPLS-2005>
1.81625509262085

$$$$
7
                    3D
 Structure written by MMmdl.
171180  0  0  1  0            999 V2000
  -30.7418  -14.4613   20.6207 C   0  0  0  0  0  0
  -30.4108  -12.3277   19.4050 C   0  0  0  0  0  0
  -29.4749  -12.4977   18.1927 C   0  0  0  0  0  0
  -28.0032  -12.3260   18.6131 C   0  0  0  0  0  0
  -27.6450  -13.1810   19.8518 C   0  0  2  0  0  0
  -28.6917  -13.0031   20.9783 C   0  0  0  0  0  0
  -25.2557  -13.8099   20.5664 C   0  0  0  0  0  0
  -24.1799  -13.0406   20.9186 C   0  0  0  0  0  0
  -24.6329  -11.6869   20.8746 C   0  0  0  0  0  0
  -23.9016  -10.4267   21.0413 C   0  0  0  0  0  0
  -24.3589   -9.4188   21.9180 C   0  0  0  0  0  0
  -23.6280   -8.2225   22.0748 C   0  0  0  0  0  0
  -22.4267   -8.0256   21.3536 C   0  0  0  0  0  0
  -21.9888   -9.0226   20.4643 C   0  0  0  0  0  0
  -22.7202  -10.2115   20.3061 C   0  0  0  0  0  0
  -21.6848   -6.0724   22.5285 C   0  0  0  0  0  0
  -21.4001   -6.5629   23.8216 C   0  0  0  0  0  0
  -21.3653   -5.6783   24.9181 C   0  0  0  0  0  0
  -21.6045   -4.3045   24.7233 C   0  0  0  0  0  0
  -21.8828   -3.8143   23.4351 C   0  0  0  0  0  0
  -21.9188   -4.6956   22.3404 C   0  0  0  0  0  0
  -22.7836  -13.5214   21.1874 C   0  0  0  0  0  0
  -22.1660   -4.2143   21.0979 F   0  0  0  0  0  0
  -21.5636   -3.4532   25.7744 F   0  0  0  0  0  0
  -30.0235  -13.3147   20.4303 N   0  0  0  0  0  0
  -26.2919  -12.9193   20.3282 N   0  0  0  0  0  0
  -25.9230  -11.6387   20.5744 N   0  0  0  0  0  0
  -22.0481  -12.8212   22.0447 N   0  0  0  0  0  0
  -25.4342  -15.1825   20.4093 N   0  0  0  0  0  0
  -31.8406  -14.6386   20.0863 O   0  0  0  0  0  0
  -21.6631   -6.8856   21.4239 O   0  0  0  0  0  0
  -22.3525  -14.5514   20.6715 O   0  0  0  0  0  0
  -24.6143  -31.8693   23.2101 C   0  0  0  0  0  0
  -25.9038  -32.4839   23.8405 C   0  0  1  0  0  0
  -27.2492  -27.4589   20.0688 C   0  0  0  0  0  0
  -25.5875  -33.8636   24.2330 N   0  0  0  0  0  0
  -23.4017  -30.4911   21.5531 C   0  0  2  0  0  0
  -24.8458  -28.9514   20.1226 C   0  0  0  0  0  0
  -22.7378  -29.4686   22.5037 C   0  0  0  0  0  0
  -18.0255  -28.1423   22.8525 C   0  0  0  0  0  0
  -24.1495  -36.7316   23.2635 C   0  0  0  0  0  0
  -25.9287  -30.8330   21.3667 C   0  0  0  0  0  0
  -26.0024  -29.4654   20.7210 C   0  0  0  0  0  0
  -27.1996  -28.7176   20.7049 C   0  0  0  0  0  0
  -26.0675  -26.9451   19.4867 C   0  0  0  0  0  0
  -24.8710  -27.6871   19.5098 C   0  0  0  0  0  0
  -23.6059  -29.8143   20.1725 C   0  0  0  0  0  0
  -25.4121  -36.3127   24.0329 C   0  0  1  0  0  0
  -20.5853  -28.3699   23.1342 C   0  0  2  0  0  0
  -20.6742  -26.9440   22.5451 C   0  0  0  0  0  0
  -19.5725  -26.6421   21.5249 C   0  0  0  0  0  0
  -18.1904  -26.7975   22.1656 C   0  0  0  0  0  0
  -19.1512  -28.8880   23.2937 C   0  0  0  0  0  0
  -18.9435  -30.1475   23.8971 C   0  0  0  0  0  0
  -17.6435  -30.6612   24.0624 C   0  0  0  0  0  0
  -25.9027  -34.9487   23.5132 C   0  0  0  0  0  0
  -16.5328  -29.9130   23.6351 C   0  0  0  0  0  0
  -16.7253  -28.6552   23.0383 C   0  0  0  0  0  0
  -26.4451  -31.6592   25.0732 C   0  0  0  0  0  0
  -25.3688  -31.3733   26.1463 C   0  0  0  0  0  0
  -27.0266  -30.3001   24.6171 C   0  0  0  0  0  0
  -27.6062  -32.4251   25.7516 C   0  0  0  0  0  0
  -27.5624  -37.1799   24.8453 C   0  0  0  0  0  0
  -21.4115  -29.3052   22.3744 N   0  0  0  0  0  0
  -26.4334  -37.3791   23.9396 N   0  0  0  0  0  0
  -24.6659  -31.0795   22.1016 N   0  0  0  0  0  0
  -23.4135  -28.8244   23.3097 O   0  0  0  0  0  0
  -28.4578  -26.7895   20.0436 O   0  0  0  0  0  0
  -26.5641  -34.8927   22.4725 O   0  0  0  0  0  0
  -23.5320  -32.1480   23.7474 O   0  0  0  0  0  0
  -31.1888  -25.6189   19.5826 C   0  0  0  0  0  0
  -30.9735  -24.1565   19.9913 C   0  0  0  0  0  0
  -30.1750  -26.0482   18.5152 C   0  0  0  0  0  0
  -31.4759  -17.4589   22.2021 C   0  0  0  0  0  0
  -29.2769  -17.6548   21.0303 C   0  0  0  0  0  0
  -28.4937  -24.3937   19.4558 C   0  0  0  0  0  0
  -31.1513  -15.9817   22.5177 C   0  0  0  0  0  0
  -29.0273  -16.1518   21.2795 C   0  0  0  0  0  0
  -29.5334  -23.9291   20.5018 C   0  0  1  0  0  0
  -30.1843  -18.2895   22.0964 C   0  0  0  0  0  0
  -28.7221  -25.8522   18.9911 C   0  0  1  0  0  0
  -29.9115  -22.1365   22.0856 C   0  0  0  0  0  0
  -29.5794  -20.6812   22.4633 C   0  0  0  0  0  0
  -30.2618  -15.3721   21.5129 N   0  0  0  0  0  0
  -29.3225  -22.5127   20.7978 N   0  0  0  0  0  0
  -30.4680  -19.7116   21.7848 N   0  3  0  0  0  0
  -31.4494  -12.4346   19.0871 H   0  0  0  0  0  0
  -30.3321  -11.3180   19.8101 H   0  0  0  0  0  0
  -29.7259  -11.7691   17.4204 H   0  0  0  0  0  0
  -29.6170  -13.4821   17.7449 H   0  0  0  0  0  0
  -27.8329  -11.2701   18.8247 H   0  0  0  0  0  0
  -27.3436  -12.5796   17.7817 H   0  0  0  0  0  0
  -27.6530  -14.2008   19.4846 H   0  0  0  0  0  0
  -28.6817  -11.9743   21.3404 H   0  0  0  0  0  0
  -28.4326  -13.6102   21.8452 H   0  0  0  0  0  0
  -25.2743   -9.5670   22.4739 H   0  0  0  0  0  0
  -24.0005   -7.4612   22.7459 H   0  0  0  0  0  0
  -21.0829   -8.8730   19.8934 H   0  0  0  0  0  0
  -22.3662  -10.9650   19.6172 H   0  0  0  0  0  0
  -21.1991   -7.6137   23.9725 H   0  0  0  0  0  0
  -21.1464   -6.0508   25.9082 H   0  0  0  0  0  0
  -22.0614   -2.7608   23.2858 H   0  0  0  0  0  0
  -22.4101  -11.9872   22.4823 H   0  0  0  0  0  0
  -21.1095  -13.1208   22.2643 H   0  0  0  0  0  0
  -24.6757  -15.8426   20.5370 H   0  0  0  0  0  0
  -26.2893  -15.6206   20.0922 H   0  0  0  0  0  0
  -26.7135  -32.5602   23.1209 H   0  0  0  0  0  0
  -24.9914  -33.9799   25.0398 H   0  0  0  0  0  0
  -22.6953  -31.3118   21.4094 H   0  0  0  0  0  0
  -23.3770  -35.9634   23.3296 H   0  0  0  0  0  0
  -24.3615  -36.8946   22.2056 H   0  0  0  0  0  0
  -23.7213  -37.6495   23.6667 H   0  0  0  0  0  0
  -26.0428  -31.5955   20.5928 H   0  0  0  0  0  0
  -26.8135  -30.8883   21.9893 H   0  0  0  0  0  0
  -28.0952  -29.1144   21.1617 H   0  0  0  0  0  0
  -26.0551  -25.9776   19.0070 H   0  0  0  0  0  0
  -23.9823  -27.2820   19.0442 H   0  0  0  0  0  0
  -23.7051  -30.5832   19.4061 H   0  0  0  0  0  0
  -22.7314  -29.2249   19.8879 H   0  0  0  0  0  0
  -25.1294  -36.2020   25.0824 H   0  0  0  0  0  0
  -20.9972  -28.3272   24.1452 H   0  0  0  0  0  0
  -20.5630  -26.2342   23.3662 H   0  0  0  0  0  0
  -21.6617  -26.7471   22.1266 H   0  0  0  0  0  0
  -19.6884  -25.6329   21.1294 H   0  0  0  0  0  0
  -19.6666  -27.3237   20.6784 H   0  0  0  0  0  0
  -17.4181  -26.6765   21.4050 H   0  0  0  0  0  0
  -18.0262  -26.0123   22.9047 H   0  0  0  0  0  0
  -19.7880  -30.7301   24.2383 H   0  0  0  0  0  0
  -17.4959  -31.6294   24.5205 H   0  0  0  0  0  0
  -15.5334  -30.3047   23.7619 H   0  0  0  0  0  0
  -15.8661  -28.0882   22.7070 H   0  0  0  0  0  0
  -24.5802  -30.7193   25.7755 H   0  0  0  0  0  0
  -24.8974  -32.2917   26.4952 H   0  0  0  0  0  0
  -25.7941  -30.8793   27.0208 H   0  0  0  0  0  0
  -26.2849  -29.6792   24.1136 H   0  0  0  0  0  0
  -27.3878  -29.7213   25.4700 H   0  0  0  0  0  0
  -27.8748  -30.4305   23.9450 H   0  0  0  0  0  0
  -27.2726  -33.3488   26.2261 H   0  0  0  0  0  0
  -28.3801  -32.6892   25.0298 H   0  0  0  0  0  0
  -28.0828  -31.8265   26.5304 H   0  0  0  0  0  0
  -28.2589  -38.0150   24.7534 H   0  0  0  0  0  0
  -28.1161  -36.2663   24.6204 H   0  0  0  0  0  0
  -27.2339  -37.1348   25.8857 H   0  0  0  0  0  0
  -20.9270  -29.8745   21.6950 H   0  0  0  0  0  0
  -26.0222  -38.2868   24.1387 H   0  0  0  0  0  0
  -32.2033  -25.7504   19.2042 H   0  0  0  0  0  0
  -31.0935  -26.2609   20.4584 H   0  0  0  0  0  0
  -31.7052  -23.9057   20.7595 H   0  0  0  0  0  0
  -31.1865  -23.5099   19.1378 H   0  0  0  0  0  0
  -30.3491  -25.4540   17.6159 H   0  0  0  0  0  0
  -30.3486  -27.0854   18.2267 H   0  0  0  0  0  0
  -32.0485  -17.5203   21.2744 H   0  0  0  0  0  0
  -32.1183  -17.8637   22.9884 H   0  0  0  0  0  0
  -28.3157  -18.1758   21.0011 H   0  0  0  0  0  0
  -29.7219  -17.7825   20.0407 H   0  0  0  0  0  0
  -27.4861  -24.2820   19.8546 H   0  0  0  0  0  0
  -28.5395  -23.7472   18.5781 H   0  0  0  0  0  0
  -30.6611  -15.9136   23.4911 H   0  0  0  0  0  0
  -32.0818  -15.4171   22.6171 H   0  0  0  0  0  0
  -28.5094  -15.8019   20.3951 H   0  0  0  0  0  0
  -28.3505  -16.0142   22.1243 H   0  0  0  0  0  0
  -29.3684  -24.5206   21.4039 H   0  0  0  0  0  0
  -29.6800  -18.2377   23.0632 H   0  0  0  0  0  0
  -28.0874  -26.0596   18.1272 H   0  0  0  0  0  0
  -30.9894  -22.3001   22.1020 H   0  0  0  0  0  0
  -29.4949  -22.7865   22.8563 H   0  0  0  0  0  0
  -28.5284  -20.4621   22.2612 H   0  0  0  0  0  0
  -29.7156  -20.5661   23.5401 H   0  0  0  0  0  0
  -29.6943  -21.9586   20.0322 H   0  0  0  0  0  0
  -30.4189  -19.8517   20.7894 H   0  0  0  0  0  0
  -31.4105  -19.9201   22.0718 H   0  0  0  0  0  0
  1 25  1  0  0  0
  1 30  2  0  0  0
  1 84  1  0  0  0
  2  3  1  0  0  0
  2 25  1  0  0  0
  2 87  1  0  0  0
  2 88  1  0  0  0
  3  4  1  0  0  0
  3 89  1  0  0  0
  3 90  1  0  0  0
  4  5  1  0  0  0
  4 91  1  0  0  0
  4 92  1  0  0  0
  5  6  1  0  0  0
  5 26  1  0  0  0
  5 93  1  0  0  0
  6 25  1  0  0  0
  6 94  1  0  0  0
  6 95  1  0  0  0
  7  8  2  0  0  0
  7 26  1  0  0  0
  7 29  1  0  0  0
  8  9  1  0  0  0
  8 22  1  0  0  0
  9 10  1  0  0  0
  9 27  2  0  0  0
 10 11  2  0  0  0
 10 15  1  0  0  0
 11 12  1  0  0  0
 11 96  1  0  0  0
 12 13  2  0  0  0
 12 97  1  0  0  0
 13 14  1  0  0  0
 13 31  1  0  0  0
 14 15  2  0  0  0
 14 98  1  0  0  0
 15 99  1  0  0  0
 16 17  2  0  0  0
 16 21  1  0  0  0
 16 31  1  0  0  0
 17 18  1  0  0  0
 17100  1  0  0  0
 18 19  2  0  0  0
 18101  1  0  0  0
 19 20  1  0  0  0
 19 24  1  0  0  0
 20 21  2  0  0  0
 20102  1  0  0  0
 21 23  1  0  0  0
 22 28  1  0  0  0
 22 32  2  0  0  0
 26 27  1  0  0  0
 28103  1  0  0  0
 28104  1  0  0  0
 29105  1  0  0  0
 29106  1  0  0  0
 33 34  1  0  0  0
 33 66  1  0  0  0
 33 70  2  0  0  0
 34 36  1  0  0  0
 34 59  1  0  0  0
 34107  1  0  0  0
 35 44  2  0  0  0
 35 45  1  0  0  0
 35 68  1  0  0  0
 36 56  1  0  0  0
 36108  1  0  0  0
 37 39  1  0  0  0
 37 47  1  0  0  0
 37 66  1  0  0  0
 37109  1  0  0  0
 38 43  2  0  0  0
 38 46  1  0  0  0
 38 47  1  0  0  0
 39 64  1  0  0  0
 39 67  2  0  0  0
 40 52  1  0  0  0
 40 53  2  0  0  0
 40 58  1  0  0  0
 41110  1  0  0  0
 41111  1  0  0  0
 41112  1  0  0  0
 41 48  1  0  0  0
 42 43  1  0  0  0
 42 66  1  0  0  0
 42113  1  0  0  0
 42114  1  0  0  0
 43 44  1  0  0  0
 44115  1  0  0  0
 45 46  2  0  0  0
 45116  1  0  0  0
 46117  1  0  0  0
 47118  1  0  0  0
 47119  1  0  0  0
 48 56  1  0  0  0
 48 65  1  0  0  0
 48120  1  0  0  0
 49 50  1  0  0  0
 49 53  1  0  0  0
 49 64  1  0  0  0
 49121  1  0  0  0
 50 51  1  0  0  0
 50122  1  0  0  0
 50123  1  0  0  0
 51 52  1  0  0  0
 51124  1  0  0  0
 51125  1  0  0  0
 52126  1  0  0  0
 52127  1  0  0  0
 53 54  1  0  0  0
 54 55  2  0  0  0
 54128  1  0  0  0
 55 57  1  0  0  0
 55129  1  0  0  0
 56 69  2  0  0  0
 57 58  2  0  0  0
 57130  1  0  0  0
 58131  1  0  0  0
 59 60  1  0  0  0
 59 61  1  0  0  0
 59 62  1  0  0  0
 60132  1  0  0  0
 60133  1  0  0  0
 60134  1  0  0  0
 61135  1  0  0  0
 61136  1  0  0  0
 61137  1  0  0  0
 62138  1  0  0  0
 62139  1  0  0  0
 62140  1  0  0  0
 63 65  1  0  0  0
 63141  1  0  0  0
 63142  1  0  0  0
 63143  1  0  0  0
 64144  1  0  0  0
 65145  1  0  0  0
 68 81  1  0  0  0
 71 72  1  0  0  0
 71 73  1  0  0  0
 71146  1  0  0  0
 71147  1  0  0  0
 72 79  1  0  0  0
 72148  1  0  0  0
 72149  1  0  0  0
 73 81  1  0  0  0
 73150  1  0  0  0
 73151  1  0  0  0
 74 77  1  0  0  0
 74 80  1  0  0  0
 74152  1  0  0  0
 74153  1  0  0  0
 75 78  1  0  0  0
 75 80  1  0  0  0
 75154  1  0  0  0
 75155  1  0  0  0
 76 79  1  0  0  0
 76 81  1  0  0  0
 76156  1  0  0  0
 76157  1  0  0  0
 77 84  1  0  0  0
 77158  1  0  0  0
 77159  1  0  0  0
 78 84  1  0  0  0
 78160  1  0  0  0
 78161  1  0  0  0
 79 85  1  0  0  0
 79162  1  0  0  0
 80 86  1  0  0  0
 80163  1  0  0  0
 81164  1  0  0  0
 82 83  1  0  0  0
 82 85  1  0  0  0
 82165  1  0  0  0
 82166  1  0  0  0
 83 86  1  0  0  0
 83167  1  0  0  0
 83168  1  0  0  0
 85169  1  0  0  0
 86170  1  0  0  0
 86171  1  0  0  0
M  CHG  1  86   1
M  ISO  4   1 100  68 101  81 101  84 100
M  END
> <chiral flag>
0

> <version>
0

> <s_m_source_file>
/data/baiqing/PycharmProjects/Reinvent-master-3.2/result/LINK_invent/BTK/process_docking_weight1_custom_sum_contain_oxygen_bond_distance_aromatic_linkinvent_7_9_3/rearranged_h_0122.sdf

> <i_m_source_file_index>
8

> <r_mmod_Potential_Energy-OPLS-2005>
21.2775135040283

> <r_mmod_Stretch_Energy-OPLS-2005>
37.5729942321777

> <r_mmod_Bend_Energy-OPLS-2005>
106.463134765625

> <r_mmod_Torsional_Energy-OPLS-2005>
332.591461181641

> <r_mmod_Improper_Torsional_Energy-OPLS-2005>
3.44442224502563

> <r_mmod_Van_der_Waal_Energy-OPLS-2005>
145.578186035156

> <r_mmod_Electrostatic_Energy-OPLS-2005>
-163.736755371094

> <r_mmod_Solvation_Energy-OPLS-2005>
-453.169311523438

> <b_mmod_Minimization_Converged-OPLS-2005>
0

> <r_mmod_RMS_Derivative-OPLS-2005>
3.34664630889893

$$$$
8
                    3D
 Structure written by MMmdl.
169177  0  0  1  0            999 V2000
  -30.7315  -14.4153   20.5960 C   0  0  0  0  0  0
  -30.4189  -12.2803   19.4041 C   0  0  0  0  0  0
  -29.4906  -12.5075   18.1948 C   0  0  0  0  0  0
  -28.0109  -12.3821   18.6082 C   0  0  0  0  0  0
  -27.6671  -13.2040   19.8793 C   0  0  2  0  0  0
  -28.7096  -12.9538   20.9924 C   0  0  0  0  0  0
  -25.2621  -13.8153   20.5688 C   0  0  0  0  0  0
  -24.1865  -13.0441   20.9169 C   0  0  0  0  0  0
  -24.6409  -11.6907   20.8719 C   0  0  0  0  0  0
  -23.9062  -10.4291   21.0397 C   0  0  0  0  0  0
  -24.3609   -9.4210   21.9180 C   0  0  0  0  0  0
  -23.6287   -8.2248   22.0757 C   0  0  0  0  0  0
  -22.4272   -8.0278   21.3548 C   0  0  0  0  0  0
  -21.9909   -9.0250   20.4644 C   0  0  0  0  0  0
  -22.7234  -10.2128   20.3047 C   0  0  0  0  0  0
  -21.6854   -6.0729   22.5277 C   0  0  0  0  0  0
  -21.4014   -6.5634   23.8206 C   0  0  0  0  0  0
  -21.3662   -5.6793   24.9176 C   0  0  0  0  0  0
  -21.6045   -4.3053   24.7230 C   0  0  0  0  0  0
  -21.8820   -3.8142   23.4351 C   0  0  0  0  0  0
  -21.9193   -4.6957   22.3406 C   0  0  0  0  0  0
  -22.7882  -13.5235   21.1832 C   0  0  0  0  0  0
  -22.1662   -4.2138   21.0981 F   0  0  0  0  0  0
  -21.5633   -3.4537   25.7744 F   0  0  0  0  0  0
  -30.0462  -13.2507   20.4434 N   0  0  0  0  0  0
  -26.3058  -12.9330   20.3384 N   0  0  0  0  0  0
  -25.9335  -11.6480   20.5756 N   0  0  0  0  0  0
  -22.0512  -12.8229   22.0376 N   0  0  0  0  0  0
  -25.4344  -15.1880   20.4095 N   0  0  0  0  0  0
  -31.8300  -14.6166   20.0690 O   0  0  0  0  0  0
  -21.6642   -6.8874   21.4244 O   0  0  0  0  0  0
  -22.3575  -14.5552   20.6695 O   0  0  0  0  0  0
  -24.6139  -31.8716   23.2127 C   0  0  0  0  0  0
  -25.9044  -32.4833   23.8406 C   0  0  1  0  0  0
  -27.2253  -27.4516   20.0961 C   0  0  0  0  0  0
  -25.5911  -33.8628   24.2349 N   0  0  0  0  0  0
  -23.3970  -30.5015   21.5543 C   0  0  2  0  0  0
  -24.8374  -28.9696   20.1225 C   0  0  0  0  0  0
  -22.7414  -29.4685   22.4996 C   0  0  0  0  0  0
  -18.0291  -28.1369   22.8492 C   0  0  0  0  0  0
  -24.1494  -36.7322   23.2621 C   0  0  0  0  0  0
  -25.9246  -30.8527   21.3504 C   0  0  0  0  0  0
  -26.0025  -29.4850   20.7036 C   0  0  0  0  0  0
  -27.2009  -28.7379   20.6794 C   0  0  0  0  0  0
  -26.0290  -26.9384   19.5363 C   0  0  0  0  0  0
  -24.8431  -27.6926   19.5414 C   0  0  0  0  0  0
  -23.6042  -29.8424   20.1657 C   0  0  0  0  0  0
  -25.4097  -36.3113   24.0341 C   0  0  1  0  0  0
  -20.5873  -28.3659   23.1320 C   0  0  2  0  0  0
  -20.6786  -26.9404   22.5419 C   0  0  0  0  0  0
  -19.5764  -26.6379   21.5213 C   0  0  0  0  0  0
  -18.1933  -26.7916   22.1607 C   0  0  0  0  0  0
  -19.1535  -28.8825   23.2911 C   0  0  0  0  0  0
  -18.9453  -30.1428   23.8918 C   0  0  0  0  0  0
  -17.6455  -30.6567   24.0563 C   0  0  0  0  0  0
  -25.9037  -34.9479   23.5145 C   0  0  0  0  0  0
  -16.5357  -29.9081   23.6301 C   0  0  0  0  0  0
  -16.7278  -28.6500   23.0324 C   0  0  0  0  0  0
  -26.4485  -31.6564   25.0690 C   0  0  0  0  0  0
  -25.3752  -31.3625   26.1421 C   0  0  0  0  0  0
  -27.0284  -30.3025   24.5953 C   0  0  0  0  0  0
  -27.6084  -32.4234   25.7450 C   0  0  0  0  0  0
  -27.5584  -37.1806   24.8469 C   0  0  0  0  0  0
  -21.4145  -29.3021   22.3731 N   0  0  0  0  0  0
  -26.4284  -37.3792   23.9426 N   0  0  0  0  0  0
  -24.6651  -31.0880   22.0990 N   0  0  0  0  0  0
  -23.4206  -28.8205   23.3016 O   0  0  0  0  0  0
  -28.4143  -26.7488   20.0901 O   0  0  0  0  0  0
  -26.5588  -34.8930   22.4703 O   0  0  0  0  0  0
  -23.5345  -32.1440   23.7565 O   0  0  0  0  0  0
  -30.2550  -18.8373   22.1745 C   0  0  0  0  0  0
  -31.4389  -17.4221   20.8907 C   0  0  0  0  0  0
  -29.6447  -17.6146   22.2903 C   0  0  0  0  0  0
  -30.4065  -16.7327   21.4686 C   0  0  0  0  0  0
  -27.1845  -18.0169   22.5965 C   0  0  0  0  0  0
  -28.6780  -17.6112   24.6104 C   0  0  0  0  0  0
  -32.1263  -20.2803   19.5409 C   0  0  0  0  0  0
  -29.6988  -24.6616   19.9826 C   0  0  0  0  0  0
  -32.2800  -19.7939   20.9944 C   0  0  0  0  0  0
  -30.8247  -21.0520   19.2529 C   0  0  0  0  0  0
  -29.5974  -23.1748   19.5880 C   0  0  0  0  0  0
  -28.3253  -25.3388   19.8913 C   0  0  0  0  0  0
  -28.4272  -17.2929   23.1292 C   0  0  0  0  0  0
  -31.3510  -18.7279   21.3338 N   0  0  0  0  0  0
  -30.0857  -15.3568   21.3043 N   0  0  0  0  0  0
  -30.8645  -22.4398   19.7718 N   0  3  0  0  0  0
  -31.4648  -12.3653   19.1028 H   0  0  0  0  0  0
  -30.3040  -11.2642   19.7850 H   0  0  0  0  0  0
  -29.7180  -11.7887   17.4065 H   0  0  0  0  0  0
  -29.6736  -13.4948   17.7679 H   0  0  0  0  0  0
  -27.8058  -11.3256   18.7835 H   0  0  0  0  0  0
  -27.3645  -12.6819   17.7828 H   0  0  0  0  0  0
  -27.7214  -14.2575   19.6038 H   0  0  0  0  0  0
  -28.6769  -11.9110   21.3107 H   0  0  0  0  0  0
  -28.4724  -13.5301   21.8875 H   0  0  0  0  0  0
  -25.2752   -9.5693   22.4754 H   0  0  0  0  0  0
  -23.9992   -7.4647   22.7486 H   0  0  0  0  0  0
  -21.0836   -8.8762   19.8950 H   0  0  0  0  0  0
  -22.3687  -10.9666   19.6148 H   0  0  0  0  0  0
  -21.2002   -7.6137   23.9709 H   0  0  0  0  0  0
  -21.1487   -6.0520   25.9076 H   0  0  0  0  0  0
  -22.0596   -2.7600   23.2856 H   0  0  0  0  0  0
  -22.4110  -11.9866   22.4737 H   0  0  0  0  0  0
  -21.1120  -13.1257   22.2562 H   0  0  0  0  0  0
  -24.6706  -15.8439   20.5259 H   0  0  0  0  0  0
  -26.2899  -15.6262   20.0935 H   0  0  0  0  0  0
  -26.7119  -32.5576   23.1184 H   0  0  0  0  0  0
  -25.0101  -33.9790   25.0515 H   0  0  0  0  0  0
  -22.6816  -31.3156   21.4222 H   0  0  0  0  0  0
  -23.3735  -35.9669   23.3291 H   0  0  0  0  0  0
  -24.3624  -36.8940   22.2039 H   0  0  0  0  0  0
  -23.7269  -37.6538   23.6638 H   0  0  0  0  0  0
  -26.0135  -31.6144   20.5745 H   0  0  0  0  0  0
  -26.8223  -30.9243   21.9518 H   0  0  0  0  0  0
  -28.1061  -29.1432   21.1093 H   0  0  0  0  0  0
  -25.9721  -25.9587   19.0890 H   0  0  0  0  0  0
  -23.9416  -27.2823   19.1089 H   0  0  0  0  0  0
  -23.7251  -30.6226   19.4129 H   0  0  0  0  0  0
  -22.7244  -29.2721   19.8598 H   0  0  0  0  0  0
  -25.1273  -36.1973   25.0831 H   0  0  0  0  0  0
  -20.9974  -28.3221   24.1440 H   0  0  0  0  0  0
  -20.5701  -26.2265   23.3606 H   0  0  0  0  0  0
  -21.6659  -26.7455   22.1203 H   0  0  0  0  0  0
  -19.6933  -25.6287   21.1240 H   0  0  0  0  0  0
  -19.6699  -27.3177   20.6732 H   0  0  0  0  0  0
  -17.4220  -26.6666   21.4002 H   0  0  0  0  0  0
  -18.0334  -26.0045   22.8980 H   0  0  0  0  0  0
  -19.7933  -30.7233   24.2303 H   0  0  0  0  0  0
  -17.5018  -31.6250   24.5159 H   0  0  0  0  0  0
  -15.5364  -30.2992   23.7594 H   0  0  0  0  0  0
  -15.8684  -28.0842   22.6990 H   0  0  0  0  0  0
  -24.6016  -30.6865   25.7779 H   0  0  0  0  0  0
  -24.8803  -32.2739   26.4775 H   0  0  0  0  0  0
  -25.8100  -30.8902   27.0234 H   0  0  0  0  0  0
  -26.2775  -29.6807   24.1050 H   0  0  0  0  0  0
  -27.4190  -29.7212   25.4317 H   0  0  0  0  0  0
  -27.8557  -30.4402   23.8973 H   0  0  0  0  0  0
  -27.2773  -33.3581   26.1967 H   0  0  0  0  0  0
  -28.3920  -32.6686   25.0283 H   0  0  0  0  0  0
  -28.0689  -31.8357   26.5400 H   0  0  0  0  0  0
  -28.2583  -38.0121   24.7539 H   0  0  0  0  0  0
  -28.1104  -36.2655   24.6259 H   0  0  0  0  0  0
  -27.2332  -37.1439   25.8881 H   0  0  0  0  0  0
  -20.9294  -29.8781   21.6996 H   0  0  0  0  0  0
  -26.0172  -38.2872   24.1415 H   0  0  0  0  0  0
  -30.0056  -19.7842   22.6350 H   0  0  0  0  0  0
  -32.2317  -17.1208   20.2168 H   0  0  0  0  0  0
  -26.9807  -17.7310   21.5641 H   0  0  0  0  0  0
  -27.3100  -19.0996   22.6237 H   0  0  0  0  0  0
  -26.3018  -17.7676   23.1866 H   0  0  0  0  0  0
  -29.5171  -17.0335   24.9992 H   0  0  0  0  0  0
  -27.8055  -17.3690   25.2173 H   0  0  0  0  0  0
  -28.9049  -18.6662   24.7653 H   0  0  0  0  0  0
  -32.1721  -19.4151   18.8797 H   0  0  0  0  0  0
  -32.9849  -20.8942   19.2669 H   0  0  0  0  0  0
  -30.3991  -25.1713   19.3192 H   0  0  0  0  0  0
  -30.0926  -24.7672   20.9934 H   0  0  0  0  0  0
  -32.1497  -20.6185   21.6963 H   0  0  0  0  0  0
  -33.2935  -19.4233   21.1545 H   0  0  0  0  0  0
  -29.9621  -20.5178   19.6548 H   0  0  0  0  0  0
  -30.6757  -21.1003   18.1721 H   0  0  0  0  0  0
  -29.2970  -23.1078   18.5422 H   0  0  0  0  0  0
  -28.8168  -22.6824   20.1714 H   0  0  0  0  0  0
  -27.6615  -24.9090   20.6455 H   0  0  0  0  0  0
  -27.9091  -25.1197   18.9081 H   0  0  0  0  0  0
  -28.2382  -16.2217   23.0560 H   0  0  0  0  0  0
  -29.2120  -15.0533   21.7036 H   0  0  0  0  0  0
  -31.5976  -22.9399   19.2925 H   0  0  0  0  0  0
  -31.0866  -22.4232   20.7543 H   0  0  0  0  0  0
  1 25  1  0  0  0
  1 30  2  0  0  0
  1 85  1  0  0  0
  2  3  1  0  0  0
  2 25  1  0  0  0
  2 87  1  0  0  0
  2 88  1  0  0  0
  3  4  1  0  0  0
  3 89  1  0  0  0
  3 90  1  0  0  0
  4  5  1  0  0  0
  4 91  1  0  0  0
  4 92  1  0  0  0
  5  6  1  0  0  0
  5 26  1  0  0  0
  5 93  1  0  0  0
  6 25  1  0  0  0
  6 94  1  0  0  0
  6 95  1  0  0  0
  7  8  2  0  0  0
  7 26  1  0  0  0
  7 29  1  0  0  0
  8  9  1  0  0  0
  8 22  1  0  0  0
  9 10  1  0  0  0
  9 27  2  0  0  0
 10 11  2  0  0  0
 10 15  1  0  0  0
 11 12  1  0  0  0
 11 96  1  0  0  0
 12 13  2  0  0  0
 12 97  1  0  0  0
 13 14  1  0  0  0
 13 31  1  0  0  0
 14 15  2  0  0  0
 14 98  1  0  0  0
 15 99  1  0  0  0
 16 17  2  0  0  0
 16 21  1  0  0  0
 16 31  1  0  0  0
 17 18  1  0  0  0
 17100  1  0  0  0
 18 19  2  0  0  0
 18101  1  0  0  0
 19 20  1  0  0  0
 19 24  1  0  0  0
 20 21  2  0  0  0
 20102  1  0  0  0
 21 23  1  0  0  0
 22 28  1  0  0  0
 22 32  2  0  0  0
 26 27  1  0  0  0
 28103  1  0  0  0
 28104  1  0  0  0
 29105  1  0  0  0
 29106  1  0  0  0
 33 34  1  0  0  0
 33 66  1  0  0  0
 33 70  2  0  0  0
 34 36  1  0  0  0
 34 59  1  0  0  0
 34107  1  0  0  0
 35 44  2  0  0  0
 35 45  1  0  0  0
 35 68  1  0  0  0
 36 56  1  0  0  0
 36108  1  0  0  0
 37 39  1  0  0  0
 37 47  1  0  0  0
 37 66  1  0  0  0
 37109  1  0  0  0
 38 43  2  0  0  0
 38 46  1  0  0  0
 38 47  1  0  0  0
 39 64  1  0  0  0
 39 67  2  0  0  0
 40 52  1  0  0  0
 40 53  2  0  0  0
 40 58  1  0  0  0
 41110  1  0  0  0
 41111  1  0  0  0
 41112  1  0  0  0
 41 48  1  0  0  0
 42 43  1  0  0  0
 42 66  1  0  0  0
 42113  1  0  0  0
 42114  1  0  0  0
 43 44  1  0  0  0
 44115  1  0  0  0
 45 46  2  0  0  0
 45116  1  0  0  0
 46117  1  0  0  0
 47118  1  0  0  0
 47119  1  0  0  0
 48 56  1  0  0  0
 48 65  1  0  0  0
 48120  1  0  0  0
 49 50  1  0  0  0
 49 53  1  0  0  0
 49 64  1  0  0  0
 49121  1  0  0  0
 50 51  1  0  0  0
 50122  1  0  0  0
 50123  1  0  0  0
 51 52  1  0  0  0
 51124  1  0  0  0
 51125  1  0  0  0
 52126  1  0  0  0
 52127  1  0  0  0
 53 54  1  0  0  0
 54 55  2  0  0  0
 54128  1  0  0  0
 55 57  1  0  0  0
 55129  1  0  0  0
 56 69  2  0  0  0
 57 58  2  0  0  0
 57130  1  0  0  0
 58131  1  0  0  0
 59 60  1  0  0  0
 59 61  1  0  0  0
 59 62  1  0  0  0
 60132  1  0  0  0
 60133  1  0  0  0
 60134  1  0  0  0
 61135  1  0  0  0
 61136  1  0  0  0
 61137  1  0  0  0
 62138  1  0  0  0
 62139  1  0  0  0
 62140  1  0  0  0
 63 65  1  0  0  0
 63141  1  0  0  0
 63142  1  0  0  0
 63143  1  0  0  0
 64144  1  0  0  0
 65145  1  0  0  0
 68 82  1  0  0  0
 71 73  2  0  0  0
 71 84  1  0  0  0
 71146  1  0  0  0
 72 74  2  0  0  0
 72 84  1  0  0  0
 72147  1  0  0  0
 73 74  1  0  0  0
 73 83  1  0  0  0
 74 85  1  0  0  0
 75148  1  0  0  0
 75149  1  0  0  0
 75150  1  0  0  0
 75 83  1  0  0  0
 76 83  1  0  0  0
 76151  1  0  0  0
 76152  1  0  0  0
 76153  1  0  0  0
 77 79  1  0  0  0
 77 80  1  0  0  0
 77154  1  0  0  0
 77155  1  0  0  0
 78 81  1  0  0  0
 78 82  1  0  0  0
 78156  1  0  0  0
 78157  1  0  0  0
 79 84  1  0  0  0
 79158  1  0  0  0
 79159  1  0  0  0
 80 86  1  0  0  0
 80160  1  0  0  0
 80161  1  0  0  0
 81 86  1  0  0  0
 81162  1  0  0  0
 81163  1  0  0  0
 82164  1  0  0  0
 82165  1  0  0  0
 83166  1  0  0  0
 85167  1  0  0  0
 86168  1  0  0  0
 86169  1  0  0  0
M  CHG  1  86   1
M  ISO  4   1 100  68 101  82 101  85 100
M  END
> <chiral flag>
0

> <version>
0

> <s_m_source_file>
/data/baiqing/PycharmProjects/Reinvent-master-3.2/result/LINK_invent/BTK/process_docking_weight1_custom_sum_contain_oxygen_bond_distance_aromatic_linkinvent_7_9_3/rearranged_h_0122.sdf

> <i_m_source_file_index>
9

> <r_mmod_Potential_Energy-OPLS-2005>
-264.534454345703

> <r_mmod_Stretch_Energy-OPLS-2005>
31.8677139282227

> <r_mmod_Bend_Energy-OPLS-2005>
103.317436218262

> <r_mmod_Torsional_Energy-OPLS-2005>
219.849990844727

> <r_mmod_Improper_Torsional_Energy-OPLS-2005>
2.30810403823853

> <r_mmod_Van_der_Waal_Energy-OPLS-2005>
130.676147460938

> <r_mmod_Electrostatic_Energy-OPLS-2005>
-289.031799316406

> <r_mmod_Solvation_Energy-OPLS-2005>
-473.000885009766

> <b_mmod_Minimization_Converged-OPLS-2005>
0

> <r_mmod_RMS_Derivative-OPLS-2005>
2.61952519416809

$$$$
9
                    3D
 Structure written by MMmdl.
157165  0  0  1  0            999 V2000
  -30.5083  -15.0583   20.3769 C   0  0  0  0  0  0
  -30.4389  -12.6591   19.5113 C   0  0  0  0  0  0
  -29.5271  -12.5450   18.2670 C   0  0  0  0  0  0
  -28.0643  -12.3111   18.6865 C   0  0  0  0  0  0
  -27.6226  -13.2599   19.8307 C   0  0  2  0  0  0
  -28.6619  -13.3418   20.9682 C   0  0  0  0  0  0
  -25.2432  -13.8232   20.5719 C   0  0  0  0  0  0
  -24.1764  -13.0440   20.9238 C   0  0  0  0  0  0
  -24.6398  -11.6931   20.8755 C   0  0  0  0  0  0
  -23.9089  -10.4293   21.0406 C   0  0  0  0  0  0
  -24.3633   -9.4206   21.9186 C   0  0  0  0  0  0
  -23.6300   -8.2244   22.0757 C   0  0  0  0  0  0
  -22.4280   -8.0285   21.3547 C   0  0  0  0  0  0
  -21.9920   -9.0261   20.4650 C   0  0  0  0  0  0
  -22.7257  -10.2136   20.3057 C   0  0  0  0  0  0
  -21.6855   -6.0738   22.5278 C   0  0  0  0  0  0
  -21.4019   -6.5642   23.8212 C   0  0  0  0  0  0
  -21.3658   -5.6793   24.9173 C   0  0  0  0  0  0
  -21.6043   -4.3056   24.7224 C   0  0  0  0  0  0
  -21.8818   -3.8149   23.4345 C   0  0  0  0  0  0
  -21.9193   -4.6965   22.3401 C   0  0  0  0  0  0
  -22.7783  -13.5203   21.1886 C   0  0  0  0  0  0
  -22.1661   -4.2151   21.0978 F   0  0  0  0  0  0
  -21.5625   -3.4539   25.7736 F   0  0  0  0  0  0
  -29.9246  -13.7805   20.3599 N   0  0  0  0  0  0
  -26.2857  -12.9484   20.3219 N   0  0  0  0  0  0
  -25.9332  -11.6603   20.5728 N   0  0  0  0  0  0
  -22.0435  -12.8194   22.0443 N   0  0  0  0  0  0
  -25.4081  -15.1963   20.4143 N   0  0  0  0  0  0
  -31.7307  -15.0692   20.1821 O   0  0  0  0  0  0
  -21.6643   -6.8882   21.4241 O   0  0  0  0  0  0
  -22.3465  -14.5504   20.6725 O   0  0  0  0  0  0
  -24.6505  -31.8370   23.1819 C   0  0  0  0  0  0
  -25.9245  -32.4658   23.8235 C   0  0  1  0  0  0
  -27.2145  -27.0577   20.1700 C   0  0  0  0  0  0
  -25.5964  -33.8466   24.2145 N   0  0  0  0  0  0
  -23.4580  -30.4537   21.5291 C   0  0  2  0  0  0
  -24.9083  -28.8643   20.1147 C   0  0  0  0  0  0
  -22.7602  -29.4512   22.4833 C   0  0  0  0  0  0
  -18.0311  -28.1400   22.8472 C   0  0  0  0  0  0
  -24.1494  -36.7240   23.2644 C   0  0  0  0  0  0
  -26.0194  -30.6856   21.3931 C   0  0  0  0  0  0
  -26.0890  -29.2883   20.7378 C   0  0  0  0  0  0
  -27.2427  -28.4042   20.7424 C   0  0  0  0  0  0
  -26.0078  -26.7558   19.5020 C   0  0  0  0  0  0
  -24.8851  -27.6143   19.4789 C   0  0  0  0  0  0
  -23.6897  -29.7773   20.1516 C   0  0  0  0  0  0
  -25.4130  -36.3009   24.0308 C   0  0  1  0  0  0
  -20.5928  -28.3735   23.1218 C   0  0  2  0  0  0
  -20.6794  -26.9430   22.5403 C   0  0  0  0  0  0
  -19.5768  -26.6379   21.5212 C   0  0  0  0  0  0
  -18.1949  -26.7936   22.1622 C   0  0  0  0  0  0
  -19.1569  -28.8887   23.2835 C   0  0  0  0  0  0
  -18.9483  -30.1480   23.8865 C   0  0  0  0  0  0
  -17.6478  -30.6594   24.0558 C   0  0  0  0  0  0
  -25.9085  -34.9387   23.5040 C   0  0  0  0  0  0
  -16.5369  -29.9085   23.6339 C   0  0  0  0  0  0
  -16.7295  -28.6504   23.0358 C   0  0  0  0  0  0
  -26.4537  -31.6556   25.0711 C   0  0  0  0  0  0
  -25.3696  -31.3771   26.1388 C   0  0  0  0  0  0
  -27.0418  -30.2941   24.6355 C   0  0  0  0  0  0
  -27.6049  -32.4342   25.7505 C   0  0  0  0  0  0
  -27.5574  -37.1777   24.8463 C   0  0  0  0  0  0
  -21.4287  -29.3049   22.3582 N   0  0  0  0  0  0
  -26.4287  -37.3730   23.9405 N   0  0  0  0  0  0
  -24.7296  -31.0155   22.0891 N   0  0  0  0  0  0
  -23.4210  -28.8068   23.3019 O   0  0  0  0  0  0
  -28.2568  -26.0355   20.2045 O   0  0  0  0  0  0
  -26.5679  -34.8898   22.4625 O   0  0  0  0  0  0
  -23.5606  -32.1282   23.6993 O   0  0  0  0  0  0
  -30.2337  -20.4372   18.8939 C   0  0  0  0  0  0
  -30.8016  -19.3092   18.2602 C   0  0  0  0  0  0
  -30.5614  -17.9871   18.7432 C   0  0  0  0  0  0
  -29.4108  -20.3149   20.0138 C   0  0  0  0  0  0
  -29.8728  -17.7680   19.9796 C   0  0  0  0  0  0
  -32.7108  -20.6382   17.1977 C   0  0  0  0  0  0
  -30.7113  -19.9160   15.8069 C   0  0  0  0  0  0
  -28.9947  -23.1057   20.0631 C   0  0  0  0  0  0
  -27.9910  -24.4739   20.3961 C   0  0  0  0  0  0
  -31.6245  -19.5661   16.9914 C   0  0  0  0  0  0
  -29.2794  -18.9766   20.5365 N   0  0  0  0  0  0
  -29.7288  -16.2784   20.4601 N   0  0  0  0  0  0
  -28.7594  -21.5839   20.4923 N   0  0  0  0  0  0
  -31.0241  -16.5297   17.5842 Br  0  0  0  0  0  0
  -31.4697  -12.8266   19.1952 H   0  0  0  0  0  0
  -30.4502  -11.7232   20.0722 H   0  0  0  0  0  0
  -29.8666  -11.7362   17.6187 H   0  0  0  0  0  0
  -29.5981  -13.4610   17.6781 H   0  0  0  0  0  0
  -27.9803  -11.2752   19.0172 H   0  0  0  0  0  0
  -27.3999  -12.4124   17.8277 H   0  0  0  0  0  0
  -27.5684  -14.2499   19.3765 H   0  0  0  0  0  0
  -28.7743  -12.3810   21.4727 H   0  0  0  0  0  0
  -28.3425  -14.0557   21.7289 H   0  0  0  0  0  0
  -25.2776   -9.5682   22.4764 H   0  0  0  0  0  0
  -24.0006   -7.4636   22.7478 H   0  0  0  0  0  0
  -21.0850   -8.8787   19.8957 H   0  0  0  0  0  0
  -22.3717  -10.9678   19.6169 H   0  0  0  0  0  0
  -21.2018   -7.6151   23.9718 H   0  0  0  0  0  0
  -21.1479   -6.0522   25.9077 H   0  0  0  0  0  0
  -22.0598   -2.7611   23.2844 H   0  0  0  0  0  0
  -22.4059  -11.9865   22.4844 H   0  0  0  0  0  0
  -21.1051  -13.1217   22.2644 H   0  0  0  0  0  0
  -24.6349  -15.8438   20.5220 H   0  0  0  0  0  0
  -26.2422  -15.6374   20.0502 H   0  0  0  0  0  0
  -26.7311  -32.5237   23.0957 H   0  0  0  0  0  0
  -25.0075  -33.9566   25.0270 H   0  0  0  0  0  0
  -22.7646  -31.2819   21.3683 H   0  0  0  0  0  0
  -23.3762  -35.9565   23.3289 H   0  0  0  0  0  0
  -24.3575  -36.8896   22.2061 H   0  0  0  0  0  0
  -23.7247  -37.6426   23.6701 H   0  0  0  0  0  0
  -26.1849  -31.4346   20.6175 H   0  0  0  0  0  0
  -26.8856  -30.7381   22.0409 H   0  0  0  0  0  0
  -28.1426  -28.7275   21.2463 H   0  0  0  0  0  0
  -25.9041  -25.8092   18.9939 H   0  0  0  0  0  0
  -23.9875  -27.2868   18.9725 H   0  0  0  0  0  0
  -23.8361  -30.5489   19.3950 H   0  0  0  0  0  0
  -22.8023  -29.2252   19.8371 H   0  0  0  0  0  0
  -25.1324  -36.1824   25.0800 H   0  0  0  0  0  0
  -21.0018  -28.3332   24.1340 H   0  0  0  0  0  0
  -20.5686  -26.2349   23.3629 H   0  0  0  0  0  0
  -21.6659  -26.7427   22.1204 H   0  0  0  0  0  0
  -19.6930  -25.6281   21.1265 H   0  0  0  0  0  0
  -19.6706  -27.3170   20.6727 H   0  0  0  0  0  0
  -17.4218  -26.6678   21.4027 H   0  0  0  0  0  0
  -18.0351  -26.0087   22.9028 H   0  0  0  0  0  0
  -19.7959  -30.7306   24.2219 H   0  0  0  0  0  0
  -17.5031  -31.6271   24.5166 H   0  0  0  0  0  0
  -15.5369  -30.2976   23.7681 H   0  0  0  0  0  0
  -15.8695  -28.0812   22.7091 H   0  0  0  0  0  0
  -24.5882  -30.7117   25.7700 H   0  0  0  0  0  0
  -24.8879  -32.2963   26.4732 H   0  0  0  0  0  0
  -25.7953  -30.8990   27.0219 H   0  0  0  0  0  0
  -26.3058  -29.6642   24.1347 H   0  0  0  0  0  0
  -27.3982  -29.7271   25.4966 H   0  0  0  0  0  0
  -27.8985  -30.4155   23.9724 H   0  0  0  0  0  0
  -27.2628  -33.3667   26.2005 H   0  0  0  0  0  0
  -28.3901  -32.6863   25.0365 H   0  0  0  0  0  0
  -28.0674  -31.8521   26.5487 H   0  0  0  0  0  0
  -28.2579  -38.0086   24.7511 H   0  0  0  0  0  0
  -28.1084  -36.2612   24.6292 H   0  0  0  0  0  0
  -27.2289  -37.1424   25.8865 H   0  0  0  0  0  0
  -20.9514  -29.8750   21.6738 H   0  0  0  0  0  0
  -26.0145  -38.2794   24.1410 H   0  0  0  0  0  0
  -30.3946  -21.4100   18.4575 H   0  0  0  0  0  0
  -33.3581  -20.3802   18.0364 H   0  0  0  0  0  0
  -32.2957  -21.6273   17.3878 H   0  0  0  0  0  0
  -33.3430  -20.7223   16.3135 H   0  0  0  0  0  0
  -29.9936  -19.1168   15.6194 H   0  0  0  0  0  0
  -31.2887  -20.0603   14.8937 H   0  0  0  0  0  0
  -30.1475  -20.8308   15.9915 H   0  0  0  0  0  0
  -29.9810  -23.3528   20.4568 H   0  0  0  0  0  0
  -29.1263  -23.0988   18.9815 H   0  0  0  0  0  0
  -27.7485  -24.3958   21.4561 H   0  0  0  0  0  0
  -27.0506  -24.2484   19.8983 H   0  0  0  0  0  0
  -32.1802  -18.6717   16.7209 H   0  0  0  0  0  0
  -28.8133  -16.0966   20.8360 H   0  0  0  0  0  0
  -28.1409  -21.4715   21.2897 H   0  0  0  0  0  0
  1 25  1  0  0  0
  1 30  2  0  0  0
  1 82  1  0  0  0
  2  3  1  0  0  0
  2 25  1  0  0  0
  2 85  1  0  0  0
  2 86  1  0  0  0
  3  4  1  0  0  0
  3 87  1  0  0  0
  3 88  1  0  0  0
  4  5  1  0  0  0
  4 89  1  0  0  0
  4 90  1  0  0  0
  5  6  1  0  0  0
  5 26  1  0  0  0
  5 91  1  0  0  0
  6 25  1  0  0  0
  6 92  1  0  0  0
  6 93  1  0  0  0
  7  8  2  0  0  0
  7 26  1  0  0  0
  7 29  1  0  0  0
  8  9  1  0  0  0
  8 22  1  0  0  0
  9 10  1  0  0  0
  9 27  2  0  0  0
 10 11  2  0  0  0
 10 15  1  0  0  0
 11 12  1  0  0  0
 11 94  1  0  0  0
 12 13  2  0  0  0
 12 95  1  0  0  0
 13 14  1  0  0  0
 13 31  1  0  0  0
 14 15  2  0  0  0
 14 96  1  0  0  0
 15 97  1  0  0  0
 16 17  2  0  0  0
 16 21  1  0  0  0
 16 31  1  0  0  0
 17 18  1  0  0  0
 17 98  1  0  0  0
 18 19  2  0  0  0
 18 99  1  0  0  0
 19 20  1  0  0  0
 19 24  1  0  0  0
 20 21  2  0  0  0
 20100  1  0  0  0
 21 23  1  0  0  0
 22 28  1  0  0  0
 22 32  2  0  0  0
 26 27  1  0  0  0
 28101  1  0  0  0
 28102  1  0  0  0
 29103  1  0  0  0
 29104  1  0  0  0
 33 34  1  0  0  0
 33 66  1  0  0  0
 33 70  2  0  0  0
 34 36  1  0  0  0
 34 59  1  0  0  0
 34105  1  0  0  0
 35 44  2  0  0  0
 35 45  1  0  0  0
 35 68  1  0  0  0
 36 56  1  0  0  0
 36106  1  0  0  0
 37 39  1  0  0  0
 37 47  1  0  0  0
 37 66  1  0  0  0
 37107  1  0  0  0
 38 43  2  0  0  0
 38 46  1  0  0  0
 38 47  1  0  0  0
 39 64  1  0  0  0
 39 67  2  0  0  0
 40 52  1  0  0  0
 40 53  2  0  0  0
 40 58  1  0  0  0
 41108  1  0  0  0
 41109  1  0  0  0
 41110  1  0  0  0
 41 48  1  0  0  0
 42 43  1  0  0  0
 42 66  1  0  0  0
 42111  1  0  0  0
 42112  1  0  0  0
 43 44  1  0  0  0
 44113  1  0  0  0
 45 46  2  0  0  0
 45114  1  0  0  0
 46115  1  0  0  0
 47116  1  0  0  0
 47117  1  0  0  0
 48 56  1  0  0  0
 48 65  1  0  0  0
 48118  1  0  0  0
 49 50  1  0  0  0
 49 53  1  0  0  0
 49 64  1  0  0  0
 49119  1  0  0  0
 50 51  1  0  0  0
 50120  1  0  0  0
 50121  1  0  0  0
 51 52  1  0  0  0
 51122  1  0  0  0
 51123  1  0  0  0
 52124  1  0  0  0
 52125  1  0  0  0
 53 54  1  0  0  0
 54 55  2  0  0  0
 54126  1  0  0  0
 55 57  1  0  0  0
 55127  1  0  0  0
 56 69  2  0  0  0
 57 58  2  0  0  0
 57128  1  0  0  0
 58129  1  0  0  0
 59 60  1  0  0  0
 59 61  1  0  0  0
 59 62  1  0  0  0
 60130  1  0  0  0
 60131  1  0  0  0
 60132  1  0  0  0
 61133  1  0  0  0
 61134  1  0  0  0
 61135  1  0  0  0
 62136  1  0  0  0
 62137  1  0  0  0
 62138  1  0  0  0
 63 65  1  0  0  0
 63139  1  0  0  0
 63140  1  0  0  0
 63141  1  0  0  0
 64142  1  0  0  0
 65143  1  0  0  0
 68 79  1  0  0  0
 71 72  2  0  0  0
 71 74  1  0  0  0
 71144  1  0  0  0
 72 73  1  0  0  0
 72 80  1  0  0  0
 73 75  2  0  0  0
 73 84  1  0  0  0
 74 81  2  0  0  0
 74 83  1  0  0  0
 75 81  1  0  0  0
 75 82  1  0  0  0
 76145  1  0  0  0
 76146  1  0  0  0
 76147  1  0  0  0
 76 80  1  0  0  0
 77 80  1  0  0  0
 77148  1  0  0  0
 77149  1  0  0  0
 77150  1  0  0  0
 78 79  1  0  0  0
 78 83  1  0  0  0
 78151  1  0  0  0
 78152  1  0  0  0
 79153  1  0  0  0
 79154  1  0  0  0
 80155  1  0  0  0
 82156  1  0  0  0
 83157  1  0  0  0
M  ISO  4   1 100  68 101  79 101  82 100
M  END
> <chiral flag>
0

> <version>
0

> <s_m_source_file>
/data/baiqing/PycharmProjects/Reinvent-master-3.2/result/LINK_invent/BTK/process_docking_weight1_custom_sum_contain_oxygen_bond_distance_aromatic_linkinvent_7_9_3/rearranged_h_0122.sdf

> <i_m_source_file_index>
10

> <r_mmod_Potential_Energy-OPLS-2005>
503.088531494141

> <r_mmod_Stretch_Energy-OPLS-2005>
353.608856201172

> <r_mmod_Bend_Energy-OPLS-2005>
304.889556884766

> <r_mmod_Torsional_Energy-OPLS-2005>
238.686813354492

> <r_mmod_Improper_Torsional_Energy-OPLS-2005>
4.52676773071289

> <r_mmod_Van_der_Waal_Energy-OPLS-2005>
142.874221801758

> <r_mmod_Electrostatic_Energy-OPLS-2005>
-580.202270507812

> <r_mmod_Solvation_Energy-OPLS-2005>
-231.857223510742

> <b_mmod_Minimization_Converged-OPLS-2005>
0

> <r_mmod_RMS_Derivative-OPLS-2005>
0.359746426343918

$$$$
10
                    3D
 Structure written by MMmdl.
167176  0  0  1  0            999 V2000
  -30.6142  -14.6645   20.4943 C   0  0  0  0  0  0
  -30.4370  -12.4140   19.4343 C   0  0  0  0  0  0
  -29.4980  -12.4903   18.2103 C   0  0  0  0  0  0
  -28.0223  -12.3319   18.6318 C   0  0  0  0  0  0
  -27.6441  -13.2163   19.8496 C   0  0  2  0  0  0
  -28.6939  -13.0958   20.9739 C   0  0  0  0  0  0
  -25.2537  -13.8165   20.5702 C   0  0  0  0  0  0
  -24.1810  -13.0435   20.9207 C   0  0  0  0  0  0
  -24.6372  -11.6900   20.8741 C   0  0  0  0  0  0
  -23.9051  -10.4283   21.0407 C   0  0  0  0  0  0
  -24.3604   -9.4205   21.9191 C   0  0  0  0  0  0
  -23.6281   -8.2242   22.0761 C   0  0  0  0  0  0
  -22.4270   -8.0265   21.3536 C   0  0  0  0  0  0
  -21.9902   -9.0240   20.4648 C   0  0  0  0  0  0
  -22.7224  -10.2124   20.3055 C   0  0  0  0  0  0
  -21.6847   -6.0718   22.5282 C   0  0  0  0  0  0
  -21.4009   -6.5629   23.8206 C   0  0  0  0  0  0
  -21.3657   -5.6790   24.9175 C   0  0  0  0  0  0
  -21.6044   -4.3057   24.7231 C   0  0  0  0  0  0
  -21.8817   -3.8137   23.4361 C   0  0  0  0  0  0
  -21.9193   -4.6948   22.3409 C   0  0  0  0  0  0
  -22.7839  -13.5214   21.1870 C   0  0  0  0  0  0
  -22.1665   -4.2126   21.0995 F   0  0  0  0  0  0
  -21.5630   -3.4549   25.7752 F   0  0  0  0  0  0
  -29.9956  -13.4469   20.3903 N   0  0  0  0  0  0
  -26.2947  -12.9343   20.3285 N   0  0  0  0  0  0
  -25.9296  -11.6502   20.5759 N   0  0  0  0  0  0
  -22.0488  -12.8190   22.0414 N   0  0  0  0  0  0
  -25.4253  -15.1895   20.4128 N   0  0  0  0  0  0
  -31.8081  -14.7973   20.2132 O   0  0  0  0  0  0
  -21.6636   -6.8859   21.4238 O   0  0  0  0  0  0
  -22.3526  -14.5532   20.6731 O   0  0  0  0  0  0
  -24.6243  -31.8589   23.2032 C   0  0  0  0  0  0
  -25.9099  -32.4772   23.8341 C   0  0  1  0  0  0
  -27.2459  -27.3585   20.0954 C   0  0  0  0  0  0
  -25.5925  -33.8573   24.2280 N   0  0  0  0  0  0
  -23.4163  -30.4813   21.5425 C   0  0  2  0  0  0
  -24.8646  -28.9331   20.1128 C   0  0  0  0  0  0
  -22.7455  -29.4616   22.4927 C   0  0  0  0  0  0
  -18.0271  -28.1402   22.8468 C   0  0  0  0  0  0
  -24.1481  -36.7282   23.2643 C   0  0  0  0  0  0
  -25.9510  -30.8047   21.3608 C   0  0  0  0  0  0
  -26.0304  -29.4313   20.7068 C   0  0  0  0  0  0
  -27.2227  -28.6555   20.6861 C   0  0  0  0  0  0
  -26.0541  -26.8900   19.4998 C   0  0  0  0  0  0
  -24.8761  -27.6649   19.5051 C   0  0  0  0  0  0
  -23.6307  -29.8116   20.1583 C   0  0  0  0  0  0
  -25.4099  -36.3073   24.0340 C   0  0  1  0  0  0
  -20.5871  -28.3686   23.1288 C   0  0  2  0  0  0
  -20.6754  -26.9403   22.5424 C   0  0  0  0  0  0
  -19.5745  -26.6387   21.5202 C   0  0  0  0  0  0
  -18.1904  -26.7941   22.1592 C   0  0  0  0  0  0
  -19.1531  -28.8851   23.2868 C   0  0  0  0  0  0
  -18.9471  -30.1447   23.8903 C   0  0  0  0  0  0
  -17.6477  -30.6592   24.0579 C   0  0  0  0  0  0
  -25.9050  -34.9452   23.5114 C   0  0  0  0  0  0
  -16.5362  -29.9106   23.6347 C   0  0  0  0  0  0
  -16.7262  -28.6530   23.0348 C   0  0  0  0  0  0
  -26.4509  -31.6583   25.0704 C   0  0  0  0  0  0
  -25.3763  -31.3700   26.1453 C   0  0  0  0  0  0
  -27.0363  -30.3036   24.6098 C   0  0  0  0  0  0
  -27.6087  -32.4312   25.7463 C   0  0  0  0  0  0
  -27.5581  -37.1754   24.8440 C   0  0  0  0  0  0
  -21.4170  -29.3043   22.3685 N   0  0  0  0  0  0
  -26.4252  -37.3790   23.9458 N   0  0  0  0  0  0
  -24.6832  -31.0629   22.0948 N   0  0  0  0  0  0
  -23.4188  -28.8132   23.2987 O   0  0  0  0  0  0
  -28.4121  -26.5898   20.0926 O   0  0  0  0  0  0
  -26.5602  -34.8920   22.4666 O   0  0  0  0  0  0
  -23.5417  -32.1368   23.7387 O   0  0  0  0  0  0
  -30.2012  -20.1497   19.0722 C   0  0  0  0  0  0
  -30.4739  -18.7766   19.3376 C   0  0  0  0  0  0
  -29.4291  -20.6780   20.0721 C   0  0  0  0  0  0
  -29.9165  -18.4250   20.5343 C   0  0  0  0  0  0
  -28.4905  -22.8344   18.8553 C   0  0  0  0  0  0
  -29.9453  -23.1201   20.8734 C   0  0  0  0  0  0
  -28.5748  -24.4049   18.7851 C   0  0  0  0  0  0
  -29.4495  -24.5938   21.1079 C   0  0  0  0  0  0
  -28.9301  -22.1568   20.1994 C   0  0  2  0  0  0
  -28.3534  -25.1197   20.1419 C   0  0  1  0  0  0
  -26.8415  -19.6377   21.7258 C   0  0  0  0  0  0
  -28.6454  -20.7577   23.1603 C   0  0  0  0  0  0
  -30.1618  -17.0920   21.3170 C   0  0  0  0  0  0
  -28.3197  -19.6378   22.1522 C   0  0  0  0  0  0
  -29.2042  -19.5903   20.9727 N   0  0  0  0  0  0
  -29.8078  -15.7448   20.7480 N   0  0  0  0  0  0
  -31.4733  -12.5534   19.1211 H   0  0  0  0  0  0
  -30.3927  -11.4265   19.8958 H   0  0  0  0  0  0
  -29.7600  -11.7154   17.4882 H   0  0  0  0  0  0
  -29.6312  -13.4449   17.6992 H   0  0  0  0  0  0
  -27.8614  -11.2812   18.8761 H   0  0  0  0  0  0
  -27.3635  -12.5467   17.7899 H   0  0  0  0  0  0
  -27.6520  -14.2455   19.4911 H   0  0  0  0  0  0
  -28.7202  -12.0807   21.3719 H   0  0  0  0  0  0
  -28.4423  -13.7427   21.8158 H   0  0  0  0  0  0
  -25.2739   -9.5685   22.4779 H   0  0  0  0  0  0
  -23.9980   -7.4634   22.7485 H   0  0  0  0  0  0
  -21.0831   -8.8745   19.8963 H   0  0  0  0  0  0
  -22.3666  -10.9658   19.6166 H   0  0  0  0  0  0
  -21.1997   -7.6131   23.9692 H   0  0  0  0  0  0
  -21.1487   -6.0535   25.9069 H   0  0  0  0  0  0
  -22.0601   -2.7600   23.2876 H   0  0  0  0  0  0
  -22.4108  -11.9821   22.4749 H   0  0  0  0  0  0
  -21.1115  -13.1217   22.2668 H   0  0  0  0  0  0
  -24.6561  -15.8413   20.5231 H   0  0  0  0  0  0
  -26.2635  -15.6304   20.0574 H   0  0  0  0  0  0
  -26.7166  -32.5475   23.1091 H   0  0  0  0  0  0
  -25.0124  -33.9724   25.0461 H   0  0  0  0  0  0
  -22.7097  -31.3011   21.3953 H   0  0  0  0  0  0
  -23.3773  -35.9581   23.3234 H   0  0  0  0  0  0
  -24.3575  -36.8990   22.2073 H   0  0  0  0  0  0
  -23.7199  -37.6440   23.6716 H   0  0  0  0  0  0
  -26.0642  -31.5656   20.5862 H   0  0  0  0  0  0
  -26.8385  -30.8657   21.9791 H   0  0  0  0  0  0
  -28.1247  -29.0378   21.1445 H   0  0  0  0  0  0
  -26.0270  -25.9216   19.0212 H   0  0  0  0  0  0
  -23.9816  -27.2763   19.0380 H   0  0  0  0  0  0
  -23.7493  -30.5881   19.4006 H   0  0  0  0  0  0
  -22.7520  -29.2386   19.8561 H   0  0  0  0  0  0
  -25.1265  -36.1890   25.0822 H   0  0  0  0  0  0
  -20.9961  -28.3278   24.1415 H   0  0  0  0  0  0
  -20.5637  -26.2299   23.3634 H   0  0  0  0  0  0
  -21.6623  -26.7416   22.1231 H   0  0  0  0  0  0
  -19.6919  -25.6294   21.1236 H   0  0  0  0  0  0
  -19.6718  -27.3199   20.6732 H   0  0  0  0  0  0
  -17.4193  -26.6730   21.3963 H   0  0  0  0  0  0
  -18.0259  -26.0067   22.8967 H   0  0  0  0  0  0
  -19.7957  -30.7237   24.2288 H   0  0  0  0  0  0
  -17.5050  -31.6275   24.5175 H   0  0  0  0  0  0
  -15.5367  -30.3026   23.7666 H   0  0  0  0  0  0
  -15.8656  -28.0865   22.7063 H   0  0  0  0  0  0
  -24.6056  -30.6881   25.7846 H   0  0  0  0  0  0
  -24.8793  -32.2827   26.4749 H   0  0  0  0  0  0
  -25.8132  -30.9062   27.0308 H   0  0  0  0  0  0
  -26.2907  -29.6746   24.1228 H   0  0  0  0  0  0
  -27.4237  -29.7327   25.4545 H   0  0  0  0  0  0
  -27.8682  -30.4376   23.9187 H   0  0  0  0  0  0
  -27.2752  -33.3679   26.1936 H   0  0  0  0  0  0
  -28.3939  -32.6753   25.0297 H   0  0  0  0  0  0
  -28.0686  -31.8484   26.5449 H   0  0  0  0  0  0
  -28.2503  -38.0138   24.7610 H   0  0  0  0  0  0
  -28.1165  -36.2680   24.6085 H   0  0  0  0  0  0
  -27.2327  -37.1192   25.8840 H   0  0  0  0  0  0
  -20.9340  -29.8820   21.6946 H   0  0  0  0  0  0
  -26.0125  -38.2836   24.1578 H   0  0  0  0  0  0
  -30.5630  -20.7079   18.2183 H   0  0  0  0  0  0
  -31.0859  -18.1218   18.7322 H   0  0  0  0  0  0
  -29.1006  -22.4557   18.0353 H   0  0  0  0  0  0
  -27.4739  -22.5121   18.6264 H   0  0  0  0  0  0
  -30.2878  -22.7119   21.8245 H   0  0  0  0  0  0
  -30.8343  -23.1548   20.2417 H   0  0  0  0  0  0
  -27.8772  -24.7752   18.0356 H   0  0  0  0  0  0
  -29.5657  -24.6830   18.4200 H   0  0  0  0  0  0
  -30.3201  -25.2479   21.0272 H   0  0  0  0  0  0
  -29.0964  -24.7145   22.1329 H   0  0  0  0  0  0
  -28.0337  -22.1756   20.8108 H   0  0  0  0  0  0
  -27.3906  -24.8021   20.5424 H   0  0  0  0  0  0
  -26.1810  -19.5553   22.5889 H   0  0  0  0  0  0
  -26.6286  -18.7910   21.0721 H   0  0  0  0  0  0
  -26.5620  -20.5425   21.1877 H   0  0  0  0  0  0
  -28.1766  -20.5498   24.1220 H   0  0  0  0  0  0
  -28.2727  -21.7343   22.8617 H   0  0  0  0  0  0
  -29.7174  -20.8413   23.3348 H   0  0  0  0  0  0
  -29.6867  -17.1178   22.2946 H   0  0  0  0  0  0
  -31.2250  -17.0610   21.5579 H   0  0  0  0  0  0
  -28.4591  -18.7197   22.7139 H   0  0  0  0  0  0
  -28.8240  -15.5283   20.7764 H   0  0  0  0  0  0
  1 25  1  0  0  0
  1 30  2  0  0  0
  1 86  1  0  0  0
  2  3  1  0  0  0
  2 25  1  0  0  0
  2 87  1  0  0  0
  2 88  1  0  0  0
  3  4  1  0  0  0
  3 89  1  0  0  0
  3 90  1  0  0  0
  4  5  1  0  0  0
  4 91  1  0  0  0
  4 92  1  0  0  0
  5  6  1  0  0  0
  5 26  1  0  0  0
  5 93  1  0  0  0
  6 25  1  0  0  0
  6 94  1  0  0  0
  6 95  1  0  0  0
  7  8  2  0  0  0
  7 26  1  0  0  0
  7 29  1  0  0  0
  8  9  1  0  0  0
  8 22  1  0  0  0
  9 10  1  0  0  0
  9 27  2  0  0  0
 10 11  2  0  0  0
 10 15  1  0  0  0
 11 12  1  0  0  0
 11 96  1  0  0  0
 12 13  2  0  0  0
 12 97  1  0  0  0
 13 14  1  0  0  0
 13 31  1  0  0  0
 14 15  2  0  0  0
 14 98  1  0  0  0
 15 99  1  0  0  0
 16 17  2  0  0  0
 16 21  1  0  0  0
 16 31  1  0  0  0
 17 18  1  0  0  0
 17100  1  0  0  0
 18 19  2  0  0  0
 18101  1  0  0  0
 19 20  1  0  0  0
 19 24  1  0  0  0
 20 21  2  0  0  0
 20102  1  0  0  0
 21 23  1  0  0  0
 22 28  1  0  0  0
 22 32  2  0  0  0
 26 27  1  0  0  0
 28103  1  0  0  0
 28104  1  0  0  0
 29105  1  0  0  0
 29106  1  0  0  0
 33 34  1  0  0  0
 33 66  1  0  0  0
 33 70  2  0  0  0
 34 36  1  0  0  0
 34 59  1  0  0  0
 34107  1  0  0  0
 35 44  2  0  0  0
 35 45  1  0  0  0
 35 68  1  0  0  0
 36 56  1  0  0  0
 36108  1  0  0  0
 37 39  1  0  0  0
 37 47  1  0  0  0
 37 66  1  0  0  0
 37109  1  0  0  0
 38 43  2  0  0  0
 38 46  1  0  0  0
 38 47  1  0  0  0
 39 64  1  0  0  0
 39 67  2  0  0  0
 40 52  1  0  0  0
 40 53  2  0  0  0
 40 58  1  0  0  0
 41110  1  0  0  0
 41111  1  0  0  0
 41112  1  0  0  0
 41 48  1  0  0  0
 42 43  1  0  0  0
 42 66  1  0  0  0
 42113  1  0  0  0
 42114  1  0  0  0
 43 44  1  0  0  0
 44115  1  0  0  0
 45 46  2  0  0  0
 45116  1  0  0  0
 46117  1  0  0  0
 47118  1  0  0  0
 47119  1  0  0  0
 48 56  1  0  0  0
 48 65  1  0  0  0
 48120  1  0  0  0
 49 50  1  0  0  0
 49 53  1  0  0  0
 49 64  1  0  0  0
 49121  1  0  0  0
 50 51  1  0  0  0
 50122  1  0  0  0
 50123  1  0  0  0
 51 52  1  0  0  0
 51124  1  0  0  0
 51125  1  0  0  0
 52126  1  0  0  0
 52127  1  0  0  0
 53 54  1  0  0  0
 54 55  2  0  0  0
 54128  1  0  0  0
 55 57  1  0  0  0
 55129  1  0  0  0
 56 69  2  0  0  0
 57 58  2  0  0  0
 57130  1  0  0  0
 58131  1  0  0  0
 59 60  1  0  0  0
 59 61  1  0  0  0
 59 62  1  0  0  0
 60132  1  0  0  0
 60133  1  0  0  0
 60134  1  0  0  0
 61135  1  0  0  0
 61136  1  0  0  0
 61137  1  0  0  0
 62138  1  0  0  0
 62139  1  0  0  0
 62140  1  0  0  0
 63 65  1  0  0  0
 63141  1  0  0  0
 63142  1  0  0  0
 63143  1  0  0  0
 64144  1  0  0  0
 65145  1  0  0  0
 68 80  1  0  0  0
 71 72  1  0  0  0
 71 73  2  0  0  0
 71146  1  0  0  0
 72 74  2  0  0  0
 72147  1  0  0  0
 73 85  1  0  0  0
 73 79  1  0  0  0
 74 83  1  0  0  0
 74 85  1  0  0  0
 75 77  1  0  0  0
 75 79  1  0  0  0
 75148  1  0  0  0
 75149  1  0  0  0
 76 78  1  0  0  0
 76 79  1  0  0  0
 76150  1  0  0  0
 76151  1  0  0  0
 77 80  1  0  0  0
 77152  1  0  0  0
 77153  1  0  0  0
 78 80  1  0  0  0
 78154  1  0  0  0
 78155  1  0  0  0
 79156  1  0  0  0
 80157  1  0  0  0
 81158  1  0  0  0
 81159  1  0  0  0
 81160  1  0  0  0
 81 84  1  0  0  0
 82 84  1  0  0  0
 82161  1  0  0  0
 82162  1  0  0  0
 82163  1  0  0  0
 83 86  1  0  0  0
 83164  1  0  0  0
 83165  1  0  0  0
 84 85  1  0  0  0
 84166  1  0  0  0
 86167  1  0  0  0
M  ISO  4   1 100  68 101  80 101  86 100
M  END
> <chiral flag>
0

> <version>
0

> <s_m_source_file>
/data/baiqing/PycharmProjects/Reinvent-master-3.2/result/LINK_invent/BTK/process_docking_weight1_custom_sum_contain_oxygen_bond_distance_aromatic_linkinvent_7_9_3/rearranged_h_0122.sdf

> <i_m_source_file_index>
11

> <r_mmod_Potential_Energy-OPLS-2005>
41.4430923461914

> <r_mmod_Stretch_Energy-OPLS-2005>
80.8113555908203

> <r_mmod_Bend_Energy-OPLS-2005>
149.821472167969

> <r_mmod_Torsional_Energy-OPLS-2005>
292.948059082031

> <r_mmod_Improper_Torsional_Energy-OPLS-2005>
5.0169472694397

> <r_mmod_Van_der_Waal_Energy-OPLS-2005>
122.529861450195

> <r_mmod_Electrostatic_Energy-OPLS-2005>
-451.064910888672

> <r_mmod_Solvation_Energy-OPLS-2005>
-204.567199707031

> <b_mmod_Minimization_Converged-OPLS-2005>
0

> <r_mmod_RMS_Derivative-OPLS-2005>
2.81344509124756

$$$$
11
                    3D
 Structure written by MMmdl.
172180  0  0  1  0            999 V2000
  -30.7421  -14.3884   20.6695 C   0  0  0  0  0  0
  -30.4222  -12.2965   19.3965 C   0  0  0  0  0  0
  -29.4860  -12.5259   18.1940 C   0  0  0  0  0  0
  -28.0096  -12.3820   18.6097 C   0  0  0  0  0  0
  -27.6665  -13.2017   19.8809 C   0  0  2  0  0  0
  -28.7036  -12.9374   20.9939 C   0  0  0  0  0  0
  -25.2609  -13.8146   20.5664 C   0  0  0  0  0  0
  -24.1854  -13.0437   20.9166 C   0  0  0  0  0  0
  -24.6397  -11.6902   20.8721 C   0  0  0  0  0  0
  -23.9055  -10.4294   21.0394 C   0  0  0  0  0  0
  -24.3610   -9.4215   21.9178 C   0  0  0  0  0  0
  -23.6290   -8.2246   22.0746 C   0  0  0  0  0  0
  -22.4270   -8.0281   21.3537 C   0  0  0  0  0  0
  -21.9904   -9.0256   20.4638 C   0  0  0  0  0  0
  -22.7228  -10.2138   20.3049 C   0  0  0  0  0  0
  -21.6854   -6.0735   22.5280 C   0  0  0  0  0  0
  -21.4013   -6.5638   23.8214 C   0  0  0  0  0  0
  -21.3661   -5.6791   24.9175 C   0  0  0  0  0  0
  -21.6047   -4.3054   24.7226 C   0  0  0  0  0  0
  -21.8822   -3.8145   23.4347 C   0  0  0  0  0  0
  -21.9193   -4.6962   22.3403 C   0  0  0  0  0  0
  -22.7879  -13.5241   21.1847 C   0  0  0  0  0  0
  -22.1661   -4.2147   21.0980 F   0  0  0  0  0  0
  -21.5635   -3.4540   25.7740 F   0  0  0  0  0  0
  -30.0447  -13.2415   20.4582 N   0  0  0  0  0  0
  -26.3048  -12.9312   20.3376 N   0  0  0  0  0  0
  -25.9320  -11.6471   20.5749 N   0  0  0  0  0  0
  -22.0525  -12.8227   22.0394 N   0  0  0  0  0  0
  -25.4348  -15.1862   20.4060 N   0  0  0  0  0  0
  -31.7860  -14.6696   20.0733 O   0  0  0  0  0  0
  -21.6639   -6.8876   21.4237 O   0  0  0  0  0  0
  -22.3568  -14.5559   20.6712 O   0  0  0  0  0  0
  -24.6106  -31.8694   23.2108 C   0  0  0  0  0  0
  -25.9006  -32.4829   23.8395 C   0  0  1  0  0  0
  -27.2347  -27.4485   20.0881 C   0  0  0  0  0  0
  -25.5860  -33.8622   24.2317 N   0  0  0  0  0  0
  -23.3986  -30.4930   21.5537 C   0  0  2  0  0  0
  -24.8428  -28.9615   20.1181 C   0  0  0  0  0  0
  -22.7398  -29.4647   22.5006 C   0  0  0  0  0  0
  -18.0261  -28.1384   22.8494 C   0  0  0  0  0  0
  -24.1497  -36.7333   23.2642 C   0  0  0  0  0  0
  -25.9274  -30.8369   21.3650 C   0  0  0  0  0  0
  -26.0036  -29.4744   20.7094 C   0  0  0  0  0  0
  -27.2014  -28.7273   20.6873 C   0  0  0  0  0  0
  -26.0505  -26.9440   19.4993 C   0  0  0  0  0  0
  -24.8604  -27.6946   19.5120 C   0  0  0  0  0  0
  -23.6048  -29.8268   20.1680 C   0  0  0  0  0  0
  -25.4117  -36.3119   24.0335 C   0  0  1  0  0  0
  -20.5854  -28.3662   23.1340 C   0  0  2  0  0  0
  -20.6760  -26.9401   22.5433 C   0  0  0  0  0  0
  -19.5746  -26.6395   21.5220 C   0  0  0  0  0  0
  -18.1920  -26.7929   22.1624 C   0  0  0  0  0  0
  -19.1512  -28.8840   23.2918 C   0  0  0  0  0  0
  -18.9439  -30.1447   23.8925 C   0  0  0  0  0  0
  -17.6442  -30.6593   24.0570 C   0  0  0  0  0  0
  -25.9032  -34.9478   23.5137 C   0  0  0  0  0  0
  -16.5332  -29.9094   23.6332 C   0  0  0  0  0  0
  -16.7250  -28.6518   23.0339 C   0  0  0  0  0  0
  -26.4439  -31.6600   25.0712 C   0  0  0  0  0  0
  -25.3691  -31.3693   26.1450 C   0  0  0  0  0  0
  -27.0263  -30.3038   24.6079 C   0  0  0  0  0  0
  -27.6038  -32.4307   25.7450 C   0  0  0  0  0  0
  -27.5593  -37.1815   24.8455 C   0  0  0  0  0  0
  -21.4129  -29.3021   22.3742 N   0  0  0  0  0  0
  -26.4308  -37.3797   23.9392 N   0  0  0  0  0  0
  -24.6640  -31.0798   22.1016 N   0  0  0  0  0  0
  -23.4179  -28.8179   23.3035 O   0  0  0  0  0  0
  -28.4284  -26.7548   20.0841 O   0  0  0  0  0  0
  -26.5625  -34.8928   22.4717 O   0  0  0  0  0  0
  -23.5299  -32.1448   23.7500 O   0  0  0  0  0  0
  -30.0647  -22.6613   21.4896 C   0  0  0  0  0  0
  -28.7115  -22.2693   21.5520 C   0  0  0  0  0  0
  -28.4200  -20.8713   21.6030 C   0  0  0  0  0  0
  -31.0672  -21.6819   21.4604 C   0  0  0  0  0  0
  -29.5140  -19.9618   21.5678 C   0  0  0  0  0  0
  -32.5311  -22.0610   21.3844 C   0  0  0  0  0  0
  -27.0203  -20.4348   24.2833 C   0  0  0  0  0  0
  -26.5068  -19.5841   20.4624 C   0  0  0  0  0  0
  -27.5970  -23.3244   21.5865 C   0  0  0  0  0  0
  -26.6347  -19.6396   23.0267 C   0  0  0  0  0  0
  -27.9857  -24.8179   21.5149 C   0  0  0  0  0  0
  -30.2037  -17.6330   20.9756 C   0  0  0  0  0  0
  -30.7042  -16.5406   21.9434 C   0  0  0  0  0  0
  -28.3970  -25.3227   20.1144 C   0  0  0  0  0  0
  -26.9585  -20.3728   21.7048 C   0  0  1  0  0  0
  -30.7972  -20.3648   21.4977 N   0  0  0  0  0  0
  -29.3116  -18.5782   21.6427 N   0  0  0  0  0  0
  -30.2048  -15.2187   21.5719 N   0  0  0  0  0  0
  -31.4642  -12.4073   19.0902 H   0  0  0  0  0  0
  -30.3299  -11.2728   19.7623 H   0  0  0  0  0  0
  -29.7174  -11.8194   17.3961 H   0  0  0  0  0  0
  -29.6546  -13.5216   17.7794 H   0  0  0  0  0  0
  -27.8161  -11.3233   18.7873 H   0  0  0  0  0  0
  -27.3565  -12.6746   17.7869 H   0  0  0  0  0  0
  -27.7262  -14.2569   19.6127 H   0  0  0  0  0  0
  -28.6699  -11.8896   21.2958 H   0  0  0  0  0  0
  -28.4493  -13.4978   21.8935 H   0  0  0  0  0  0
  -25.2757   -9.5697   22.4751 H   0  0  0  0  0  0
  -24.0005   -7.4636   22.7466 H   0  0  0  0  0  0
  -21.0837   -8.8773   19.8946 H   0  0  0  0  0  0
  -22.3684  -10.9674   19.6159 H   0  0  0  0  0  0
  -21.2003   -7.6146   23.9716 H   0  0  0  0  0  0
  -21.1480   -6.0521   25.9079 H   0  0  0  0  0  0
  -22.0597   -2.7606   23.2848 H   0  0  0  0  0  0
  -22.4135  -11.9870   22.4757 H   0  0  0  0  0  0
  -21.1150  -13.1253   22.2615 H   0  0  0  0  0  0
  -24.6699  -15.8436   20.5099 H   0  0  0  0  0  0
  -26.2924  -15.6191   20.0873 H   0  0  0  0  0  0
  -26.7080  -32.5538   23.1164 H   0  0  0  0  0  0
  -24.9898  -33.9774   25.0385 H   0  0  0  0  0  0
  -22.6870  -31.3100   21.4179 H   0  0  0  0  0  0
  -23.3742  -35.9683   23.3303 H   0  0  0  0  0  0
  -24.3583  -36.8950   22.2054 H   0  0  0  0  0  0
  -23.7278  -37.6547   23.6664 H   0  0  0  0  0  0
  -26.0423  -31.6057   20.5998 H   0  0  0  0  0  0
  -26.8152  -30.8862   21.9842 H   0  0  0  0  0  0
  -28.1005  -29.1231   21.1394 H   0  0  0  0  0  0
  -26.0226  -25.9833   19.0095 H   0  0  0  0  0  0
  -23.9677  -27.2943   19.0509 H   0  0  0  0  0  0
  -23.7102  -30.6032   19.4096 H   0  0  0  0  0  0
  -22.7299  -29.2445   19.8737 H   0  0  0  0  0  0
  -25.1297  -36.1997   25.0828 H   0  0  0  0  0  0
  -20.9950  -28.3232   24.1460 H   0  0  0  0  0  0
  -20.5696  -26.2255   23.3608 H   0  0  0  0  0  0
  -21.6628  -26.7468   22.1209 H   0  0  0  0  0  0
  -19.6916  -25.6316   21.1231 H   0  0  0  0  0  0
  -19.6697  -27.3224   20.6765 H   0  0  0  0  0  0
  -17.4194  -26.6677   21.4018 H   0  0  0  0  0  0
  -18.0310  -26.0069   22.9016 H   0  0  0  0  0  0
  -19.7910  -30.7256   24.2311 H   0  0  0  0  0  0
  -17.4993  -31.6275   24.5168 H   0  0  0  0  0  0
  -15.5334  -30.3005   23.7663 H   0  0  0  0  0  0
  -15.8640  -28.0867   22.7025 H   0  0  0  0  0  0
  -24.5887  -30.7028   25.7762 H   0  0  0  0  0  0
  -24.8832  -32.2823   26.4901 H   0  0  0  0  0  0
  -25.8019  -30.8855   27.0216 H   0  0  0  0  0  0
  -26.2807  -29.6805   24.1124 H   0  0  0  0  0  0
  -27.4024  -29.7273   25.4542 H   0  0  0  0  0  0
  -27.8651  -30.4348   23.9233 H   0  0  0  0  0  0
  -27.2702  -33.3616   26.2053 H   0  0  0  0  0  0
  -28.3817  -32.6849   25.0233 H   0  0  0  0  0  0
  -28.0738  -31.8398   26.5322 H   0  0  0  0  0  0
  -28.2618  -38.0106   24.7489 H   0  0  0  0  0  0
  -28.1091  -36.2634   24.6311 H   0  0  0  0  0  0
  -27.2289  -37.1497   25.8852 H   0  0  0  0  0  0
  -20.9298  -29.8733   21.6950 H   0  0  0  0  0  0
  -26.0205  -38.2886   24.1364 H   0  0  0  0  0  0
  -30.3543  -23.7010   21.4691 H   0  0  0  0  0  0
  -32.6704  -23.1360   21.4963 H   0  0  0  0  0  0
  -32.9526  -21.7653   20.4235 H   0  0  0  0  0  0
  -33.0967  -21.5650   22.1731 H   0  0  0  0  0  0
  -26.7417  -19.8910   25.1858 H   0  0  0  0  0  0
  -26.5127  -21.3995   24.3088 H   0  0  0  0  0  0
  -28.0940  -20.6183   24.3316 H   0  0  0  0  0  0
  -26.6397  -20.1761   19.5567 H   0  0  0  0  0  0
  -25.4476  -19.3343   20.5282 H   0  0  0  0  0  0
  -27.0463  -18.6486   20.3249 H   0  0  0  0  0  0
  -27.0547  -23.1809   22.5216 H   0  0  0  0  0  0
  -26.8904  -23.1206   20.7807 H   0  0  0  0  0  0
  -25.5643  -19.4302   23.0586 H   0  0  0  0  0  0
  -27.1169  -18.6643   23.0698 H   0  0  0  0  0  0
  -28.7427  -25.0674   22.2582 H   0  0  0  0  0  0
  -27.1001  -25.3738   21.8209 H   0  0  0  0  0  0
  -29.6583  -17.1957   20.1379 H   0  0  0  0  0  0
  -31.0619  -18.1328   20.5252 H   0  0  0  0  0  0
  -30.4040  -16.7499   22.9710 H   0  0  0  0  0  0
  -31.7961  -16.5317   21.9555 H   0  0  0  0  0  0
  -27.7697  -24.9018   19.3308 H   0  0  0  0  0  0
  -29.4005  -24.9730   19.8756 H   0  0  0  0  0  0
  -26.2867  -21.2255   21.7192 H   0  0  0  0  0  0
  -28.3391  -18.3015   21.6923 H   0  0  0  0  0  0
  -29.3585  -14.9047   22.0230 H   0  0  0  0  0  0
  1 25  1  0  0  0
  1 30  2  0  0  0
  1 88  1  0  0  0
  2  3  1  0  0  0
  2 25  1  0  0  0
  2 89  1  0  0  0
  2 90  1  0  0  0
  3  4  1  0  0  0
  3 91  1  0  0  0
  3 92  1  0  0  0
  4  5  1  0  0  0
  4 93  1  0  0  0
  4 94  1  0  0  0
  5  6  1  0  0  0
  5 26  1  0  0  0
  5 95  1  0  0  0
  6 25  1  0  0  0
  6 96  1  0  0  0
  6 97  1  0  0  0
  7  8  2  0  0  0
  7 26  1  0  0  0
  7 29  1  0  0  0
  8  9  1  0  0  0
  8 22  1  0  0  0
  9 10  1  0  0  0
  9 27  2  0  0  0
 10 11  2  0  0  0
 10 15  1  0  0  0
 11 12  1  0  0  0
 11 98  1  0  0  0
 12 13  2  0  0  0
 12 99  1  0  0  0
 13 14  1  0  0  0
 13 31  1  0  0  0
 14 15  2  0  0  0
 14100  1  0  0  0
 15101  1  0  0  0
 16 17  2  0  0  0
 16 21  1  0  0  0
 16 31  1  0  0  0
 17 18  1  0  0  0
 17102  1  0  0  0
 18 19  2  0  0  0
 18103  1  0  0  0
 19 20  1  0  0  0
 19 24  1  0  0  0
 20 21  2  0  0  0
 20104  1  0  0  0
 21 23  1  0  0  0
 22 28  1  0  0  0
 22 32  2  0  0  0
 26 27  1  0  0  0
 28105  1  0  0  0
 28106  1  0  0  0
 29107  1  0  0  0
 29108  1  0  0  0
 33 34  1  0  0  0
 33 66  1  0  0  0
 33 70  2  0  0  0
 34 36  1  0  0  0
 34 59  1  0  0  0
 34109  1  0  0  0
 35 44  2  0  0  0
 35 45  1  0  0  0
 35 68  1  0  0  0
 36 56  1  0  0  0
 36110  1  0  0  0
 37 39  1  0  0  0
 37 47  1  0  0  0
 37 66  1  0  0  0
 37111  1  0  0  0
 38 43  2  0  0  0
 38 46  1  0  0  0
 38 47  1  0  0  0
 39 64  1  0  0  0
 39 67  2  0  0  0
 40 52  1  0  0  0
 40 53  2  0  0  0
 40 58  1  0  0  0
 41112  1  0  0  0
 41113  1  0  0  0
 41114  1  0  0  0
 41 48  1  0  0  0
 42 43  1  0  0  0
 42 66  1  0  0  0
 42115  1  0  0  0
 42116  1  0  0  0
 43 44  1  0  0  0
 44117  1  0  0  0
 45 46  2  0  0  0
 45118  1  0  0  0
 46119  1  0  0  0
 47120  1  0  0  0
 47121  1  0  0  0
 48 56  1  0  0  0
 48 65  1  0  0  0
 48122  1  0  0  0
 49 50  1  0  0  0
 49 53  1  0  0  0
 49 64  1  0  0  0
 49123  1  0  0  0
 50 51  1  0  0  0
 50124  1  0  0  0
 50125  1  0  0  0
 51 52  1  0  0  0
 51126  1  0  0  0
 51127  1  0  0  0
 52128  1  0  0  0
 52129  1  0  0  0
 53 54  1  0  0  0
 54 55  2  0  0  0
 54130  1  0  0  0
 55 57  1  0  0  0
 55131  1  0  0  0
 56 69  2  0  0  0
 57 58  2  0  0  0
 57132  1  0  0  0
 58133  1  0  0  0
 59 60  1  0  0  0
 59 61  1  0  0  0
 59 62  1  0  0  0
 60134  1  0  0  0
 60135  1  0  0  0
 60136  1  0  0  0
 61137  1  0  0  0
 61138  1  0  0  0
 61139  1  0  0  0
 62140  1  0  0  0
 62141  1  0  0  0
 62142  1  0  0  0
 63 65  1  0  0  0
 63143  1  0  0  0
 63144  1  0  0  0
 63145  1  0  0  0
 64146  1  0  0  0
 65147  1  0  0  0
 68 84  1  0  0  0
 71 72  2  0  0  0
 71 74  1  0  0  0
 71148  1  0  0  0
 72 73  1  0  0  0
 72 79  1  0  0  0
 73 75  2  0  0  0
 73 85  1  0  0  0
 74 76  1  0  0  0
 74 86  2  0  0  0
 75 86  1  0  0  0
 75 87  1  0  0  0
 76149  1  0  0  0
 76150  1  0  0  0
 76151  1  0  0  0
 77 80  1  0  0  0
 77152  1  0  0  0
 77153  1  0  0  0
 77154  1  0  0  0
 78155  1  0  0  0
 78156  1  0  0  0
 78157  1  0  0  0
 78 85  1  0  0  0
 79 81  1  0  0  0
 79158  1  0  0  0
 79159  1  0  0  0
 80 85  1  0  0  0
 80160  1  0  0  0
 80161  1  0  0  0
 81 84  1  0  0  0
 81162  1  0  0  0
 81163  1  0  0  0
 82 83  1  0  0  0
 82 87  1  0  0  0
 82164  1  0  0  0
 82165  1  0  0  0
 83 88  1  0  0  0
 83166  1  0  0  0
 83167  1  0  0  0
 84168  1  0  0  0
 84169  1  0  0  0
 85170  1  0  0  0
 87171  1  0  0  0
 88172  1  0  0  0
M  ISO  4   1 100  68 101  84 101  88 100
M  END
> <chiral flag>
0

> <version>
0

> <s_m_source_file>
/data/baiqing/PycharmProjects/Reinvent-master-3.2/result/LINK_invent/BTK/process_docking_weight1_custom_sum_contain_oxygen_bond_distance_aromatic_linkinvent_7_9_3/rearranged_h_0122.sdf

> <i_m_source_file_index>
12

> <r_mmod_Potential_Energy-OPLS-2005>
-367.226989746094

> <r_mmod_Stretch_Energy-OPLS-2005>
37.6139221191406

> <r_mmod_Bend_Energy-OPLS-2005>
113.366828918457

> <r_mmod_Torsional_Energy-OPLS-2005>
203.204498291016

> <r_mmod_Improper_Torsional_Energy-OPLS-2005>
4.33788251876831

> <r_mmod_Van_der_Waal_Energy-OPLS-2005>
169.536437988281

> <r_mmod_Electrostatic_Energy-OPLS-2005>
-677.671508789062

> <r_mmod_Solvation_Energy-OPLS-2005>
-225.488708496094

> <b_mmod_Minimization_Converged-OPLS-2005>
0

> <r_mmod_RMS_Derivative-OPLS-2005>
1.25506401062012

$$$$
12
                    3D
 Structure written by MMmdl.
177186  0  0  1  0            999 V2000
  -30.8007  -14.4300   20.5382 C   0  0  0  0  0  0
  -30.3923  -12.2762   19.4370 C   0  0  0  0  0  0
  -29.4840  -12.4801   18.2087 C   0  0  0  0  0  0
  -28.0030  -12.3594   18.6169 C   0  0  0  0  0  0
  -27.6551  -13.2135   19.8652 C   0  0  2  0  0  0
  -28.6988  -13.0118   20.9830 C   0  0  0  0  0  0
  -25.2549  -13.8188   20.5682 C   0  0  0  0  0  0
  -24.1826  -13.0455   20.9181 C   0  0  0  0  0  0
  -24.6394  -11.6921   20.8746 C   0  0  0  0  0  0
  -23.9088  -10.4300   21.0395 C   0  0  0  0  0  0
  -24.3635   -9.4207   21.9178 C   0  0  0  0  0  0
  -23.6298   -8.2250   22.0755 C   0  0  0  0  0  0
  -22.4277   -8.0288   21.3546 C   0  0  0  0  0  0
  -21.9929   -9.0263   20.4634 C   0  0  0  0  0  0
  -22.7269  -10.2134   20.3036 C   0  0  0  0  0  0
  -21.6852   -6.0737   22.5278 C   0  0  0  0  0  0
  -21.4002   -6.5639   23.8206 C   0  0  0  0  0  0
  -21.3653   -5.6788   24.9166 C   0  0  0  0  0  0
  -21.6048   -4.3058   24.7219 C   0  0  0  0  0  0
  -21.8818   -3.8148   23.4344 C   0  0  0  0  0  0
  -21.9189   -4.6966   22.3398 C   0  0  0  0  0  0
  -22.7851  -13.5237   21.1862 C   0  0  0  0  0  0
  -22.1675   -4.2154   21.0975 F   0  0  0  0  0  0
  -21.5631   -3.4548   25.7734 F   0  0  0  0  0  0
  -30.0286  -13.3066   20.4327 N   0  0  0  0  0  0
  -26.2997  -12.9383   20.3357 N   0  0  0  0  0  0
  -25.9321  -11.6529   20.5771 N   0  0  0  0  0  0
  -22.0520  -12.8185   22.0399 N   0  0  0  0  0  0
  -25.4235  -15.1914   20.4090 N   0  0  0  0  0  0
  -31.9560  -14.3802   20.1405 O   0  0  0  0  0  0
  -21.6635   -6.8886   21.4245 O   0  0  0  0  0  0
  -22.3531  -14.5551   20.6721 O   0  0  0  0  0  0
  -24.6048  -31.8740   23.2138 C   0  0  0  0  0  0
  -25.8977  -32.4855   23.8420 C   0  0  1  0  0  0
  -27.2438  -27.4956   20.1048 C   0  0  0  0  0  0
  -25.5861  -33.8656   24.2357 N   0  0  0  0  0  0
  -23.3881  -30.4954   21.5539 C   0  0  2  0  0  0
  -24.8362  -28.9678   20.1154 C   0  0  0  0  0  0
  -22.7358  -29.4678   22.5039 C   0  0  0  0  0  0
  -18.0256  -28.1372   22.8498 C   0  0  0  0  0  0
  -24.1481  -36.7325   23.2645 C   0  0  0  0  0  0
  -25.9059  -30.8654   21.3504 C   0  0  0  0  0  0
  -25.9872  -29.5026   20.7026 C   0  0  0  0  0  0
  -27.1928  -28.7819   20.6887 C   0  0  0  0  0  0
  -26.0812  -26.9700   19.5065 C   0  0  0  0  0  0
  -24.8747  -27.6980   19.5113 C   0  0  0  0  0  0
  -23.5918  -29.8233   20.1684 C   0  0  0  0  0  0
  -25.4102  -36.3143   24.0348 C   0  0  1  0  0  0
  -20.5842  -28.3637   23.1355 C   0  0  2  0  0  0
  -20.6746  -26.9381   22.5432 C   0  0  0  0  0  0
  -19.5733  -26.6380   21.5216 C   0  0  0  0  0  0
  -18.1908  -26.7918   22.1625 C   0  0  0  0  0  0
  -19.1505  -28.8825   23.2923 C   0  0  0  0  0  0
  -18.9440  -30.1435   23.8926 C   0  0  0  0  0  0
  -17.6445  -30.6588   24.0565 C   0  0  0  0  0  0
  -25.9022  -34.9500   23.5155 C   0  0  0  0  0  0
  -16.5331  -29.9092   23.6328 C   0  0  0  0  0  0
  -16.7247  -28.6507   23.0348 C   0  0  0  0  0  0
  -26.4443  -31.6616   25.0721 C   0  0  0  0  0  0
  -25.3729  -31.3682   26.1480 C   0  0  0  0  0  0
  -27.0277  -30.3086   24.6029 C   0  0  0  0  0  0
  -27.6029  -32.4325   25.7481 C   0  0  0  0  0  0
  -27.5579  -37.1832   24.8471 C   0  0  0  0  0  0
  -21.4096  -29.3016   22.3778 N   0  0  0  0  0  0
  -26.4301  -37.3813   23.9401 N   0  0  0  0  0  0
  -24.6510  -31.0907   22.0992 N   0  0  0  0  0  0
  -23.4170  -28.8237   23.3062 O   0  0  0  0  0  0
  -28.3773  -26.7209   20.0714 O   0  0  0  0  0  0
  -26.5584  -34.8939   22.4723 O   0  0  0  0  0  0
  -23.5269  -32.1460   23.7592 O   0  0  0  0  0  0
  -29.0266  -21.8144   18.6744 C   0  0  0  0  0  0
  -31.0656  -20.6401   20.0801 C   0  0  0  0  0  0
  -30.6023  -19.9886   18.9193 C   0  0  0  0  0  0
  -29.5246  -20.5773   18.2147 C   0  0  0  0  0  0
  -29.6128  -22.4132   19.8013 C   0  0  0  0  0  0
  -33.6442  -18.3604   17.2202 C   0  0  0  0  0  0
  -34.0865  -17.5618   18.4364 C   0  0  0  0  0  0
  -32.6298  -19.4001   17.6759 C   0  0  0  0  0  0
  -32.8898  -16.8178   19.0330 C   0  0  0  0  0  0
  -31.3848  -18.7945   18.3729 C   0  0  1  0  0  0
  -31.6847  -17.6949   19.4515 C   0  0  1  0  0  0
  -28.9468  -19.9562   16.9545 C   0  0  0  0  0  0
  -29.0948  -16.0210   21.8138 C   0  0  0  0  0  0
  -30.3822  -16.8690   19.7508 C   0  0  0  0  0  0
  -29.8039  -25.6197   21.6675 C   0  0  0  0  0  0
  -30.2943  -24.6041   20.6300 C   0  0  0  0  0  0
  -29.3823  -26.9578   21.0593 C   0  0  0  0  0  0
  -30.3672  -15.8675   20.9600 C   0  0  2  0  0  0
  -30.5811  -21.8149   20.5138 N   0  0  0  0  0  0
  -29.2288  -23.6931   20.2035 N   0  0  0  0  0  0
  -31.4384  -12.2994   19.1277 H   0  0  0  0  0  0
  -30.2507  -11.2802   19.8588 H   0  0  0  0  0  0
  -29.7201  -11.7423   17.4408 H   0  0  0  0  0  0
  -29.6688  -13.4589   17.7640 H   0  0  0  0  0  0
  -27.8114  -11.3066   18.8269 H   0  0  0  0  0  0
  -27.3516  -12.6248   17.7832 H   0  0  0  0  0  0
  -27.6971  -14.2560   19.5540 H   0  0  0  0  0  0
  -28.6726  -11.9751   21.3225 H   0  0  0  0  0  0
  -28.4612  -13.5821   21.8727 H   0  0  0  0  0  0
  -25.2780   -9.5691   22.4749 H   0  0  0  0  0  0
  -23.9998   -7.4640   22.7482 H   0  0  0  0  0  0
  -21.0871   -8.8772   19.8938 H   0  0  0  0  0  0
  -22.3721  -10.9663   19.6141 H   0  0  0  0  0  0
  -21.1981   -7.6139   23.9714 H   0  0  0  0  0  0
  -21.1485   -6.0513   25.9066 H   0  0  0  0  0  0
  -22.0596   -2.7618   23.2829 H   0  0  0  0  0  0
  -22.4178  -11.9813   22.4699 H   0  0  0  0  0  0
  -21.1129  -13.1158   22.2630 H   0  0  0  0  0  0
  -24.6569  -15.8452   20.5271 H   0  0  0  0  0  0
  -26.2806  -15.6365   20.1094 H   0  0  0  0  0  0
  -26.7060  -32.5606   23.1214 H   0  0  0  0  0  0
  -25.0015  -33.9836   25.0499 H   0  0  0  0  0  0
  -22.6727  -31.3087   21.4180 H   0  0  0  0  0  0
  -23.3757  -35.9645   23.3312 H   0  0  0  0  0  0
  -24.3576  -36.8935   22.2059 H   0  0  0  0  0  0
  -23.7215  -37.6524   23.6654 H   0  0  0  0  0  0
  -26.0011  -31.6340   20.5825 H   0  0  0  0  0  0
  -26.7977  -30.9257   21.9606 H   0  0  0  0  0  0
  -28.0691  -29.2433   21.1180 H   0  0  0  0  0  0
  -26.1110  -25.9943   19.0426 H   0  0  0  0  0  0
  -23.9900  -27.2773   19.0533 H   0  0  0  0  0  0
  -23.6896  -30.5962   19.4055 H   0  0  0  0  0  0
  -22.7186  -29.2349   19.8789 H   0  0  0  0  0  0
  -25.1280  -36.2025   25.0842 H   0  0  0  0  0  0
  -20.9924  -28.3191   24.1479 H   0  0  0  0  0  0
  -20.5645  -26.2238   23.3609 H   0  0  0  0  0  0
  -21.6623  -26.7444   22.1225 H   0  0  0  0  0  0
  -19.6889  -25.6294   21.1235 H   0  0  0  0  0  0
  -19.6674  -27.3203   20.6753 H   0  0  0  0  0  0
  -17.4176  -26.6682   21.4018 H   0  0  0  0  0  0
  -18.0298  -26.0054   22.9019 H   0  0  0  0  0  0
  -19.7923  -30.7243   24.2304 H   0  0  0  0  0  0
  -17.5006  -31.6272   24.5159 H   0  0  0  0  0  0
  -15.5329  -30.3005   23.7638 H   0  0  0  0  0  0
  -15.8646  -28.0832   22.7049 H   0  0  0  0  0  0
  -24.5853  -30.7107   25.7788 H   0  0  0  0  0  0
  -24.8981  -32.2828   26.5039 H   0  0  0  0  0  0
  -25.8084  -30.8741   27.0171 H   0  0  0  0  0  0
  -26.2808  -29.6858   24.1103 H   0  0  0  0  0  0
  -27.4110  -29.7307   25.4443 H   0  0  0  0  0  0
  -27.8600  -30.4449   23.9124 H   0  0  0  0  0  0
  -27.2658  -33.3613   26.2097 H   0  0  0  0  0  0
  -28.3818  -32.6906   25.0294 H   0  0  0  0  0  0
  -28.0718  -31.8424   26.5367 H   0  0  0  0  0  0
  -28.2627  -38.0103   24.7500 H   0  0  0  0  0  0
  -28.1048  -36.2636   24.6329 H   0  0  0  0  0  0
  -27.2292  -37.1519   25.8876 H   0  0  0  0  0  0
  -20.9242  -29.8737   21.7010 H   0  0  0  0  0  0
  -26.0203  -38.2903   24.1377 H   0  0  0  0  0  0
  -28.2398  -22.3166   18.1259 H   0  0  0  0  0  0
  -31.9108  -20.2708   20.6404 H   0  0  0  0  0  0
  -33.2040  -17.7036   16.4672 H   0  0  0  0  0  0
  -34.5007  -18.8499   16.7523 H   0  0  0  0  0  0
  -34.5268  -18.2242   19.1837 H   0  0  0  0  0  0
  -34.8630  -16.8491   18.1522 H   0  0  0  0  0  0
  -32.3127  -19.9947   16.8181 H   0  0  0  0  0  0
  -33.1381  -20.0959   18.3460 H   0  0  0  0  0  0
  -33.2753  -16.3056   19.9121 H   0  0  0  0  0  0
  -32.5603  -16.0628   18.3179 H   0  0  0  0  0  0
  -30.8124  -18.3001   17.5895 H   0  0  0  0  0  0
  -32.0005  -18.1695   20.3792 H   0  0  0  0  0  0
  -28.1249  -20.5510   16.5550 H   0  0  0  0  0  0
  -28.5620  -18.9576   17.1604 H   0  0  0  0  0  0
  -29.7051  -19.8792   16.1745 H   0  0  0  0  0  0
  -28.9902  -17.0538   22.1466 H   0  0  0  0  0  0
  -29.1450  -15.4186   22.7214 H   0  0  0  0  0  0
  -28.1886  -15.7763   21.2640 H   0  0  0  0  0  0
  -30.0860  -16.3431   18.8408 H   0  0  0  0  0  0
  -29.5810  -17.5916   19.9111 H   0  0  0  0  0  0
  -30.6168  -25.8224   22.3665 H   0  0  0  0  0  0
  -28.9981  -25.2009   22.2718 H   0  0  0  0  0  0
  -31.1422  -24.0747   21.0633 H   0  0  0  0  0  0
  -30.6843  -25.1238   19.7528 H   0  0  0  0  0  0
  -30.2307  -27.4605   20.5929 H   0  0  0  0  0  0
  -29.0579  -27.5748   21.8968 H   0  0  0  0  0  0
  -31.1655  -16.1966   21.6277 H   0  0  0  0  0  0
  -28.5144  -24.1252   19.6267 H   0  0  0  0  0  0
  1 25  1  0  0  0
  1 30  2  0  0  0
  1 88  1  0  0  0
  2  3  1  0  0  0
  2 25  1  0  0  0
  2 91  1  0  0  0
  2 92  1  0  0  0
  3  4  1  0  0  0
  3 93  1  0  0  0
  3 94  1  0  0  0
  4  5  1  0  0  0
  4 95  1  0  0  0
  4 96  1  0  0  0
  5  6  1  0  0  0
  5 26  1  0  0  0
  5 97  1  0  0  0
  6 25  1  0  0  0
  6 98  1  0  0  0
  6 99  1  0  0  0
  7  8  2  0  0  0
  7 26  1  0  0  0
  7 29  1  0  0  0
  8  9  1  0  0  0
  8 22  1  0  0  0
  9 10  1  0  0  0
  9 27  2  0  0  0
 10 11  2  0  0  0
 10 15  1  0  0  0
 11 12  1  0  0  0
 11100  1  0  0  0
 12 13  2  0  0  0
 12101  1  0  0  0
 13 14  1  0  0  0
 13 31  1  0  0  0
 14 15  2  0  0  0
 14102  1  0  0  0
 15103  1  0  0  0
 16 17  2  0  0  0
 16 21  1  0  0  0
 16 31  1  0  0  0
 17 18  1  0  0  0
 17104  1  0  0  0
 18 19  2  0  0  0
 18105  1  0  0  0
 19 20  1  0  0  0
 19 24  1  0  0  0
 20 21  2  0  0  0
 20106  1  0  0  0
 21 23  1  0  0  0
 22 28  1  0  0  0
 22 32  2  0  0  0
 26 27  1  0  0  0
 28107  1  0  0  0
 28108  1  0  0  0
 29109  1  0  0  0
 29110  1  0  0  0
 33 34  1  0  0  0
 33 66  1  0  0  0
 33 70  2  0  0  0
 34 36  1  0  0  0
 34 59  1  0  0  0
 34111  1  0  0  0
 35 44  2  0  0  0
 35 45  1  0  0  0
 35 68  1  0  0  0
 36 56  1  0  0  0
 36112  1  0  0  0
 37 39  1  0  0  0
 37 47  1  0  0  0
 37 66  1  0  0  0
 37113  1  0  0  0
 38 43  2  0  0  0
 38 46  1  0  0  0
 38 47  1  0  0  0
 39 64  1  0  0  0
 39 67  2  0  0  0
 40 52  1  0  0  0
 40 53  2  0  0  0
 40 58  1  0  0  0
 41114  1  0  0  0
 41115  1  0  0  0
 41116  1  0  0  0
 41 48  1  0  0  0
 42 43  1  0  0  0
 42 66  1  0  0  0
 42117  1  0  0  0
 42118  1  0  0  0
 43 44  1  0  0  0
 44119  1  0  0  0
 45 46  2  0  0  0
 45120  1  0  0  0
 46121  1  0  0  0
 47122  1  0  0  0
 47123  1  0  0  0
 48 56  1  0  0  0
 48 65  1  0  0  0
 48124  1  0  0  0
 49 50  1  0  0  0
 49 53  1  0  0  0
 49 64  1  0  0  0
 49125  1  0  0  0
 50 51  1  0  0  0
 50126  1  0  0  0
 50127  1  0  0  0
 51 52  1  0  0  0
 51128  1  0  0  0
 51129  1  0  0  0
 52130  1  0  0  0
 52131  1  0  0  0
 53 54  1  0  0  0
 54 55  2  0  0  0
 54132  1  0  0  0
 55 57  1  0  0  0
 55133  1  0  0  0
 56 69  2  0  0  0
 57 58  2  0  0  0
 57134  1  0  0  0
 58135  1  0  0  0
 59 60  1  0  0  0
 59 61  1  0  0  0
 59 62  1  0  0  0
 60136  1  0  0  0
 60137  1  0  0  0
 60138  1  0  0  0
 61139  1  0  0  0
 61140  1  0  0  0
 61141  1  0  0  0
 62142  1  0  0  0
 62143  1  0  0  0
 62144  1  0  0  0
 63 65  1  0  0  0
 63145  1  0  0  0
 63146  1  0  0  0
 63147  1  0  0  0
 64148  1  0  0  0
 65149  1  0  0  0
 68 87  1  0  0  0
 71 74  2  0  0  0
 71 75  1  0  0  0
 71150  1  0  0  0
 72 73  2  0  0  0
 72 89  1  0  0  0
 72151  1  0  0  0
 73 74  1  0  0  0
 73 80  1  0  0  0
 74 82  1  0  0  0
 75 89  2  0  0  0
 75 90  1  0  0  0
 76 77  1  0  0  0
 76 78  1  0  0  0
 76152  1  0  0  0
 76153  1  0  0  0
 77 79  1  0  0  0
 77154  1  0  0  0
 77155  1  0  0  0
 78 80  1  0  0  0
 78156  1  0  0  0
 78157  1  0  0  0
 79 81  1  0  0  0
 79158  1  0  0  0
 79159  1  0  0  0
 80 81  1  0  0  0
 80160  1  0  0  0
 81 84  1  0  0  0
 81161  1  0  0  0
 82162  1  0  0  0
 82163  1  0  0  0
 82164  1  0  0  0
 83165  1  0  0  0
 83166  1  0  0  0
 83167  1  0  0  0
 83 88  1  0  0  0
 84 88  1  0  0  0
 84168  1  0  0  0
 84169  1  0  0  0
 85 86  1  0  0  0
 85 87  1  0  0  0
 85170  1  0  0  0
 85171  1  0  0  0
 86 90  1  0  0  0
 86172  1  0  0  0
 86173  1  0  0  0
 87174  1  0  0  0
 87175  1  0  0  0
 88176  1  0  0  0
 90177  1  0  0  0
M  ISO  4   1 100  68 101  87 101  88 100
M  END
> <chiral flag>
0

> <version>
0

> <s_m_source_file>
/data/baiqing/PycharmProjects/Reinvent-master-3.2/result/LINK_invent/BTK/process_docking_weight1_custom_sum_contain_oxygen_bond_distance_aromatic_linkinvent_7_9_3/rearranged_h_0122.sdf

> <i_m_source_file_index>
13

> <r_mmod_Potential_Energy-OPLS-2005>
-71.7266311645508

> <r_mmod_Stretch_Energy-OPLS-2005>
40.8081932067871

> <r_mmod_Bend_Energy-OPLS-2005>
150.170547485352

> <r_mmod_Torsional_Energy-OPLS-2005>
240.605865478516

> <r_mmod_Improper_Torsional_Energy-OPLS-2005>
7.67708110809326

> <r_mmod_Van_der_Waal_Energy-OPLS-2005>
184.965713500977

> <r_mmod_Electrostatic_Energy-OPLS-2005>
-513.494384765625

> <r_mmod_Solvation_Energy-OPLS-2005>
-204.906311035156

> <b_mmod_Minimization_Converged-OPLS-2005>
0

> <r_mmod_RMS_Derivative-OPLS-2005>
2.35844302177429

$$$$
13
                    3D
 Structure written by MMmdl.
165174  0  0  1  0            999 V2000
  -29.9440  -16.9625   20.2701 C   0  0  0  0  0  0
  -30.3369  -14.0683   19.3821 C   0  0  0  0  0  0
  -29.6127  -13.0381   18.3954 C   0  0  0  0  0  0
  -28.3208  -12.4285   18.9481 C   0  0  0  0  0  0
  -27.6195  -13.4989   19.7814 C   0  0  2  0  0  0
  -28.5958  -14.3673   20.7053 C   0  0  0  0  0  0
  -25.2443  -13.8593   20.6000 C   0  0  0  0  0  0
  -24.1928  -13.0520   20.9319 C   0  0  0  0  0  0
  -24.6830  -11.7113   20.8655 C   0  0  0  0  0  0
  -23.9452  -10.4374   21.0212 C   0  0  0  0  0  0
  -24.3827   -9.4276   21.9093 C   0  0  0  0  0  0
  -23.6415   -8.2348   22.0730 C   0  0  0  0  0  0
  -22.4386   -8.0377   21.3533 C   0  0  0  0  0  0
  -22.0077   -9.0365   20.4617 C   0  0  0  0  0  0
  -22.7499  -10.2209   20.2979 C   0  0  0  0  0  0
  -21.6874   -6.0794   22.5305 C   0  0  0  0  0  0
  -21.3999   -6.5671   23.8246 C   0  0  0  0  0  0
  -21.3679   -5.6819   24.9202 C   0  0  0  0  0  0
  -21.6054   -4.3082   24.7224 C   0  0  0  0  0  0
  -21.8821   -3.8186   23.4339 C   0  0  0  0  0  0
  -21.9190   -4.7012   22.3411 C   0  0  0  0  0  0
  -22.7844  -13.5113   21.1854 C   0  0  0  0  0  0
  -22.1662   -4.2197   21.0989 F   0  0  0  0  0  0
  -21.5633   -3.4565   25.7731 F   0  0  0  0  0  0
  -29.5307  -15.3852   19.9070 N   0  0  0  0  0  0
  -26.3301  -13.0441   20.3583 N   0  0  0  0  0  0
  -25.9927  -11.7259   20.5598 N   0  0  0  0  0  0
  -22.0487  -12.8137   22.0407 N   0  0  0  0  0  0
  -25.3723  -15.2374   20.4352 N   0  0  0  0  0  0
  -30.7005  -16.1895   20.9995 O   0  0  0  0  0  0
  -21.6714   -6.8983   21.4265 O   0  0  0  0  0  0
  -22.3461  -14.5352   20.6591 O   0  0  0  0  0  0
  -24.7607  -31.6973   23.0872 C   0  0  0  0  0  0
  -25.9801  -32.3979   23.7693 C   0  0  1  0  0  0
  -27.2955  -25.8743   20.2741 C   0  0  0  0  0  0
  -25.6004  -33.7837   24.1449 N   0  0  0  0  0  0
  -23.6248  -30.2632   21.4540 C   0  0  2  0  0  0
  -25.0899  -28.4138   20.1462 C   0  0  0  0  0  0
  -22.8123  -29.3826   22.4517 C   0  0  0  0  0  0
  -18.0419  -28.1450   22.8433 C   0  0  0  0  0  0
  -24.1483  -36.6904   23.2679 C   0  0  0  0  0  0
  -26.2241  -30.1521   21.4801 C   0  0  0  0  0  0
  -26.2886  -28.6209   20.8399 C   0  0  0  0  0  0
  -27.3296  -27.4141   20.8482 C   0  0  0  0  0  0
  -26.0508  -26.0829   19.5274 C   0  0  0  0  0  0
  -25.0608  -27.1734   19.4629 C   0  0  0  0  0  0
  -23.9180  -29.4691   20.1328 C   0  0  0  0  0  0
  -25.4172  -36.2569   24.0221 C   0  0  1  0  0  0
  -20.6094  -28.3852   23.1014 C   0  0  2  0  0  0
  -20.6803  -26.9424   22.5431 C   0  0  0  0  0  0
  -19.5770  -26.6308   21.5270 C   0  0  0  0  0  0
  -18.1973  -26.7979   22.1656 C   0  0  0  0  0  0
  -19.1698  -28.9011   23.2673 C   0  0  0  0  0  0
  -18.9599  -30.1600   23.8713 C   0  0  0  0  0  0
  -17.6568  -30.6620   24.0535 C   0  0  0  0  0  0
  -25.9201  -34.9010   23.4739 C   0  0  0  0  0  0
  -16.5462  -29.9053   23.6363 C   0  0  0  0  0  0
  -16.7400  -28.6469   23.0389 C   0  0  0  0  0  0
  -26.4718  -31.6404   25.0672 C   0  0  0  0  0  0
  -25.3522  -31.3974   26.1084 C   0  0  0  0  0  0
  -27.0745  -30.2631   24.7250 C   0  0  0  0  0  0
  -27.6012  -32.4507   25.7486 C   0  0  0  0  0  0
  -27.5538  -37.1583   24.8458 C   0  0  0  0  0  0
  -21.4712  -29.2894   22.3236 N   0  0  0  0  0  0
  -26.4229  -37.3426   23.9411 N   0  0  0  0  0  0
  -24.9065  -30.7585   22.0584 N   0  0  0  0  0  0
  -23.4160  -28.7640   23.3302 O   0  0  0  0  0  0
  -28.1998  -24.3022   20.2935 O   0  0  0  0  0  0
  -26.6013  -34.8749   22.4462 O   0  0  0  0  0  0
  -23.6485  -32.0448   23.5305 O   0  0  0  0  0  0
  -28.6067  -18.5537   18.7886 C   0  0  0  0  0  0
  -30.6715  -19.2979   21.1212 C   0  0  0  0  0  0
  -29.0835  -19.9387   20.1604 C   0  0  0  0  0  0
  -29.9321  -17.2202   17.9202 C   0  0  0  0  0  0
  -31.7892  -17.0370   18.8214 C   0  0  0  0  0  0
  -33.3388  -20.0022   19.0057 C   0  0  0  0  0  0
  -32.0595  -19.6346   16.8435 C   0  0  0  0  0  0
  -34.3008  -18.8178   18.6962 C   0  0  0  0  0  0
  -33.1625  -18.5866   16.4865 C   0  0  0  0  0  0
  -31.8821  -19.8750   18.3810 C   0  0  1  0  0  0
  -29.6854  -16.5582   16.5752 C   0  0  0  0  0  0
  -28.2157  -22.0964   20.2190 C   0  0  0  0  0  0
  -33.0671  -16.6339   18.1429 C   0  0  0  0  0  0
  -32.0426  -18.0860   20.4805 N   0  0  0  0  0  0
  -30.7474  -18.9519   18.9427 N   0  0  0  0  0  0
  -33.6048  -17.9458   17.7371 N   0  3  1  0  0  0
  -31.1828  -14.4474   18.8229 H   0  0  0  0  0  0
  -30.8243  -13.5299   20.2012 H   0  0  0  0  0  0
  -30.3105  -12.2497   18.1165 H   0  0  0  0  0  0
  -29.3717  -13.5397   17.4596 H   0  0  0  0  0  0
  -28.5712  -11.5902   19.5991 H   0  0  0  0  0  0
  -27.6871  -12.0353   18.1481 H   0  0  0  0  0  0
  -27.3159  -14.2187   19.0150 H   0  0  0  0  0  0
  -29.1261  -13.7404   21.4299 H   0  0  0  0  0  0
  -27.9851  -15.0032   21.3460 H   0  0  0  0  0  0
  -25.2906   -9.5748   22.4747 H   0  0  0  0  0  0
  -24.0052   -7.4771   22.7507 H   0  0  0  0  0  0
  -21.0991   -8.8895   19.8981 H   0  0  0  0  0  0
  -22.3876  -10.9724   19.6121 H   0  0  0  0  0  0
  -21.1974   -7.6178   23.9759 H   0  0  0  0  0  0
  -21.1494   -6.0546   25.9114 H   0  0  0  0  0  0
  -22.0563   -2.7643   23.2843 H   0  0  0  0  0  0
  -22.4121  -11.9872   22.4948 H   0  0  0  0  0  0
  -21.1063  -13.1178   22.2490 H   0  0  0  0  0  0
  -24.5966  -15.8797   20.5433 H   0  0  0  0  0  0
  -26.2336  -15.6763   20.1366 H   0  0  0  0  0  0
  -26.7978  -32.4240   23.0483 H   0  0  0  0  0  0
  -24.9785  -33.8657   24.9364 H   0  0  0  0  0  0
  -22.9950  -31.1184   21.1964 H   0  0  0  0  0  0
  -23.3786  -35.9165   23.3207 H   0  0  0  0  0  0
  -24.3552  -36.8780   22.2115 H   0  0  0  0  0  0
  -23.7231  -37.5992   23.6969 H   0  0  0  0  0  0
  -26.5388  -30.8354   20.6914 H   0  0  0  0  0  0
  -27.0288  -30.2219   22.1968 H   0  0  0  0  0  0
  -28.2143  -27.6289   21.4352 H   0  0  0  0  0  0
  -25.7567  -25.2088   18.9547 H   0  0  0  0  0  0
  -24.1852  -26.9909   18.8505 H   0  0  0  0  0  0
  -24.1202  -30.1818   19.3328 H   0  0  0  0  0  0
  -23.0052  -28.9599   19.8266 H   0  0  0  0  0  0
  -25.1449  -36.1164   25.0714 H   0  0  0  0  0  0
  -21.0179  -28.3508   24.1166 H   0  0  0  0  0  0
  -20.5574  -26.2533   23.3777 H   0  0  0  0  0  0
  -21.6661  -26.7163   22.1360 H   0  0  0  0  0  0
  -19.6862  -25.6161   21.1414 H   0  0  0  0  0  0
  -19.6725  -27.3032   20.6732 H   0  0  0  0  0  0
  -17.4263  -26.6828   21.4021 H   0  0  0  0  0  0
  -18.0256  -26.0151   22.9051 H   0  0  0  0  0  0
  -19.8073  -30.7482   24.1976 H   0  0  0  0  0  0
  -17.5091  -31.6293   24.5159 H   0  0  0  0  0  0
  -15.5437  -30.2876   23.7785 H   0  0  0  0  0  0
  -15.8827  -28.0714   22.7172 H   0  0  0  0  0  0
  -24.5751  -30.7368   25.7257 H   0  0  0  0  0  0
  -24.8653  -32.3250   26.4051 H   0  0  0  0  0  0
  -25.7353  -30.9325   27.0155 H   0  0  0  0  0  0
  -26.3531  -29.5953   24.2524 H   0  0  0  0  0  0
  -27.4073  -29.7521   25.6287 H   0  0  0  0  0  0
  -27.9596  -30.3537   24.0968 H   0  0  0  0  0  0
  -27.2458  -33.3983   26.1549 H   0  0  0  0  0  0
  -28.4003  -32.6826   25.0439 H   0  0  0  0  0  0
  -28.0506  -31.9033   26.5777 H   0  0  0  0  0  0
  -28.2464  -37.9960   24.7516 H   0  0  0  0  0  0
  -28.1133  -36.2466   24.6265 H   0  0  0  0  0  0
  -27.2260  -37.1174   25.8866 H   0  0  0  0  0  0
  -21.0253  -29.8319   21.5943 H   0  0  0  0  0  0
  -25.9960  -38.2423   24.1438 H   0  0  0  0  0  0
  -27.7179  -18.7443   18.1986 H   0  0  0  0  0  0
  -30.9987  -19.9143   21.9407 H   0  0  0  0  0  0
  -33.8046  -20.8946   18.5845 H   0  0  0  0  0  0
  -33.3331  -20.2119   20.0780 H   0  0  0  0  0  0
  -31.1144  -19.3623   16.3688 H   0  0  0  0  0  0
  -32.3476  -20.5846   16.3835 H   0  0  0  0  0  0
  -34.5659  -18.2720   19.6014 H   0  0  0  0  0  0
  -35.2475  -19.1737   18.2820 H   0  0  0  0  0  0
  -34.0207  -19.0790   16.0300 H   0  0  0  0  0  0
  -32.8285  -17.8575   15.7421 H   0  0  0  0  0  0
  -31.4427  -20.8668   18.5249 H   0  0  0  0  0  0
  -29.6399  -15.4754   16.6799 H   0  0  0  0  0  0
  -30.5193  -16.7858   15.9075 H   0  0  0  0  0  0
  -28.7710  -16.9080   16.1039 H   0  0  0  0  0  0
  -27.5047  -21.9505   21.0363 H   0  0  0  0  0  0
  -27.5899  -21.9883   19.3313 H   0  0  0  0  0  0
  -32.9007  -15.9597   17.3053 H   0  0  0  0  0  0
  -33.7027  -16.1501   18.8853 H   0  0  0  0  0  0
  -29.9543  -19.1281   18.3393 H   0  0  0  0  0  0
  -32.7841  -18.2855   18.2264 H   0  0  0  0  0  0
  1 25  1  0  0  0
  1 30  2  0  0  0
  1 85  1  0  0  0
  2  3  1  0  0  0
  2 25  1  0  0  0
  2 87  1  0  0  0
  2 88  1  0  0  0
  3  4  1  0  0  0
  3 89  1  0  0  0
  3 90  1  0  0  0
  4  5  1  0  0  0
  4 91  1  0  0  0
  4 92  1  0  0  0
  5  6  1  0  0  0
  5 26  1  0  0  0
  5 93  1  0  0  0
  6 25  1  0  0  0
  6 94  1  0  0  0
  6 95  1  0  0  0
  7  8  2  0  0  0
  7 26  1  0  0  0
  7 29  1  0  0  0
  8  9  1  0  0  0
  8 22  1  0  0  0
  9 10  1  0  0  0
  9 27  2  0  0  0
 10 11  2  0  0  0
 10 15  1  0  0  0
 11 12  1  0  0  0
 11 96  1  0  0  0
 12 13  2  0  0  0
 12 97  1  0  0  0
 13 14  1  0  0  0
 13 31  1  0  0  0
 14 15  2  0  0  0
 14 98  1  0  0  0
 15 99  1  0  0  0
 16 17  2  0  0  0
 16 21  1  0  0  0
 16 31  1  0  0  0
 17 18  1  0  0  0
 17100  1  0  0  0
 18 19  2  0  0  0
 18101  1  0  0  0
 19 20  1  0  0  0
 19 24  1  0  0  0
 20 21  2  0  0  0
 20102  1  0  0  0
 21 23  1  0  0  0
 22 28  1  0  0  0
 22 32  2  0  0  0
 26 27  1  0  0  0
 28103  1  0  0  0
 28104  1  0  0  0
 29105  1  0  0  0
 29106  1  0  0  0
 33 34  1  0  0  0
 33 66  1  0  0  0
 33 70  2  0  0  0
 34 36  1  0  0  0
 34 59  1  0  0  0
 34107  1  0  0  0
 35 44  2  0  0  0
 35 45  1  0  0  0
 35 68  1  0  0  0
 36 56  1  0  0  0
 36108  1  0  0  0
 37 39  1  0  0  0
 37 47  1  0  0  0
 37 66  1  0  0  0
 37109  1  0  0  0
 38 43  2  0  0  0
 38 46  1  0  0  0
 38 47  1  0  0  0
 39 64  1  0  0  0
 39 67  2  0  0  0
 40 52  1  0  0  0
 40 53  2  0  0  0
 40 58  1  0  0  0
 41110  1  0  0  0
 41111  1  0  0  0
 41112  1  0  0  0
 41 48  1  0  0  0
 42 43  1  0  0  0
 42 66  1  0  0  0
 42113  1  0  0  0
 42114  1  0  0  0
 43 44  1  0  0  0
 44115  1  0  0  0
 45 46  2  0  0  0
 45116  1  0  0  0
 46117  1  0  0  0
 47118  1  0  0  0
 47119  1  0  0  0
 48 56  1  0  0  0
 48 65  1  0  0  0
 48120  1  0  0  0
 49 50  1  0  0  0
 49 53  1  0  0  0
 49 64  1  0  0  0
 49121  1  0  0  0
 50 51  1  0  0  0
 50122  1  0  0  0
 50123  1  0  0  0
 51 52  1  0  0  0
 51124  1  0  0  0
 51125  1  0  0  0
 52126  1  0  0  0
 52127  1  0  0  0
 53 54  1  0  0  0
 54 55  2  0  0  0
 54128  1  0  0  0
 55 57  1  0  0  0
 55129  1  0  0  0
 56 69  2  0  0  0
 57 58  2  0  0  0
 57130  1  0  0  0
 58131  1  0  0  0
 59 60  1  0  0  0
 59 61  1  0  0  0
 59 62  1  0  0  0
 60132  1  0  0  0
 60133  1  0  0  0
 60134  1  0  0  0
 61135  1  0  0  0
 61136  1  0  0  0
 61137  1  0  0  0
 62138  1  0  0  0
 62139  1  0  0  0
 62140  1  0  0  0
 63 65  1  0  0  0
 63141  1  0  0  0
 63142  1  0  0  0
 63143  1  0  0  0
 64144  1  0  0  0
 65145  1  0  0  0
 68 82  1  0  0  0
 71 73  2  0  0  0
 71 74  1  0  0  0
 71146  1  0  0  0
 72 73  1  0  0  0
 72 84  2  0  0  0
 72147  1  0  0  0
 73 82  1  0  0  0
 74 75  2  0  0  0
 74 81  1  0  0  0
 75 83  1  0  0  0
 75 84  1  0  0  0
 76 78  1  0  0  0
 76 80  1  0  0  0
 76148  1  0  0  0
 76149  1  0  0  0
 77 79  1  0  0  0
 77 80  1  0  0  0
 77150  1  0  0  0
 77151  1  0  0  0
 78 86  1  0  0  0
 78152  1  0  0  0
 78153  1  0  0  0
 79 86  1  0  0  0
 79154  1  0  0  0
 79155  1  0  0  0
 80 85  1  0  0  0
 80156  1  0  0  0
 81157  1  0  0  0
 81158  1  0  0  0
 81159  1  0  0  0
 82160  1  0  0  0
 82161  1  0  0  0
 83162  1  0  0  0
 83163  1  0  0  0
 83 86  1  0  0  0
 85164  1  0  0  0
 86165  1  0  0  0
M  CHG  1  86   1
M  ISO  4   1 100  68 101  82 101  85 100
M  END
> <chiral flag>
0

> <version>
0

> <s_m_source_file>
/data/baiqing/PycharmProjects/Reinvent-master-3.2/result/LINK_invent/BTK/process_docking_weight1_custom_sum_contain_oxygen_bond_distance_aromatic_linkinvent_7_9_3/rearranged_h_0122.sdf

> <i_m_source_file_index>
14

> <r_mmod_Potential_Energy-OPLS-2005>
18167.060546875

> <r_mmod_Stretch_Energy-OPLS-2005>
10347.0703125

> <r_mmod_Bend_Energy-OPLS-2005>
1387.68493652344

> <r_mmod_Torsional_Energy-OPLS-2005>
423.903381347656

> <r_mmod_Improper_Torsional_Energy-OPLS-2005>
101.36922454834

> <r_mmod_Van_der_Waal_Energy-OPLS-2005>
2979.66796875

> <r_mmod_Electrostatic_Energy-OPLS-2005>
-410.277191162109

> <r_mmod_Solvation_Energy-OPLS-2005>
-439.563201904297

> <b_mmod_Minimization_Converged-OPLS-2005>
0

> <r_mmod_RMS_Derivative-OPLS-2005>
16.4101848602295

$$$$
14
                    3D
 Structure written by MMmdl.
162170  0  0  1  0            999 V2000
  -30.6992  -14.6108   20.5010 C   0  0  0  0  0  0
  -30.4165  -12.3811   19.4605 C   0  0  0  0  0  0
  -29.5014  -12.4913   18.2251 C   0  0  0  0  0  0
  -28.0227  -12.3534   18.6328 C   0  0  0  0  0  0
  -27.6460  -13.2331   19.8559 C   0  0  2  0  0  0
  -28.6904  -13.1301   20.9882 C   0  0  0  0  0  0
  -25.2519  -13.8214   20.5706 C   0  0  0  0  0  0
  -24.1807  -13.0447   20.9204 C   0  0  0  0  0  0
  -24.6403  -11.6928   20.8741 C   0  0  0  0  0  0
  -23.9081  -10.4307   21.0408 C   0  0  0  0  0  0
  -24.3631   -9.4212   21.9174 C   0  0  0  0  0  0
  -23.6300   -8.2253   22.0746 C   0  0  0  0  0  0
  -22.4282   -8.0287   21.3545 C   0  0  0  0  0  0
  -21.9931   -9.0263   20.4643 C   0  0  0  0  0  0
  -22.7268  -10.2132   20.3050 C   0  0  0  0  0  0
  -21.6851   -6.0733   22.5276 C   0  0  0  0  0  0
  -21.4018   -6.5638   23.8209 C   0  0  0  0  0  0
  -21.3664   -5.6791   24.9172 C   0  0  0  0  0  0
  -21.6037   -4.3052   24.7223 C   0  0  0  0  0  0
  -21.8828   -3.8142   23.4348 C   0  0  0  0  0  0
  -21.9200   -4.6961   22.3398 C   0  0  0  0  0  0
  -22.7831  -13.5218   21.1865 C   0  0  0  0  0  0
  -22.1665   -4.2149   21.0973 F   0  0  0  0  0  0
  -21.5627   -3.4533   25.7735 F   0  0  0  0  0  0
  -30.0033  -13.4355   20.4096 N   0  0  0  0  0  0
  -26.2956  -12.9432   20.3315 N   0  0  0  0  0  0
  -25.9330  -11.6565   20.5748 N   0  0  0  0  0  0
  -22.0471  -12.8201   22.0413 N   0  0  0  0  0  0
  -25.4193  -15.1937   20.4108 N   0  0  0  0  0  0
  -31.8769  -14.6663   20.1420 O   0  0  0  0  0  0
  -21.6647   -6.8886   21.4238 O   0  0  0  0  0  0
  -22.3520  -14.5523   20.6710 O   0  0  0  0  0  0
  -24.6224  -31.8616   23.2042 C   0  0  0  0  0  0
  -25.9093  -32.4783   23.8345 C   0  0  1  0  0  0
  -27.2341  -27.3653   20.1230 C   0  0  0  0  0  0
  -25.5900  -33.8574   24.2291 N   0  0  0  0  0  0
  -23.4117  -30.4836   21.5461 C   0  0  2  0  0  0
  -24.8623  -28.9348   20.1180 C   0  0  0  0  0  0
  -22.7420  -29.4645   22.4949 C   0  0  0  0  0  0
  -18.0267  -28.1399   22.8513 C   0  0  0  0  0  0
  -24.1448  -36.7282   23.2632 C   0  0  0  0  0  0
  -25.9440  -30.8099   21.3627 C   0  0  0  0  0  0
  -26.0254  -29.4355   20.7163 C   0  0  0  0  0  0
  -27.2173  -28.6633   20.7054 C   0  0  0  0  0  0
  -26.0537  -26.8935   19.5158 C   0  0  0  0  0  0
  -24.8768  -27.6672   19.5098 C   0  0  0  0  0  0
  -23.6252  -29.8082   20.1647 C   0  0  0  0  0  0
  -25.4078  -36.3081   24.0329 C   0  0  1  0  0  0
  -20.5867  -28.3696   23.1303 C   0  0  2  0  0  0
  -20.6734  -26.9435   22.5415 C   0  0  0  0  0  0
  -19.5720  -26.6434   21.5202 C   0  0  0  0  0  0
  -18.1915  -26.7951   22.1632 C   0  0  0  0  0  0
  -19.1527  -28.8865   23.2901 C   0  0  0  0  0  0
  -18.9456  -30.1473   23.8923 C   0  0  0  0  0  0
  -17.6457  -30.6605   24.0595 C   0  0  0  0  0  0
  -25.9032  -34.9457   23.5113 C   0  0  0  0  0  0
  -16.5346  -29.9121   23.6346 C   0  0  0  0  0  0
  -16.7257  -28.6535   23.0367 C   0  0  0  0  0  0
  -26.4507  -31.6565   25.0692 C   0  0  0  0  0  0
  -25.3778  -31.3657   26.1447 C   0  0  0  0  0  0
  -27.0315  -30.2986   24.6081 C   0  0  0  0  0  0
  -27.6068  -32.4268   25.7472 C   0  0  0  0  0  0
  -27.5552  -37.1794   24.8474 C   0  0  0  0  0  0
  -21.4150  -29.3044   22.3690 N   0  0  0  0  0  0
  -26.4249  -37.3794   23.9439 N   0  0  0  0  0  0
  -24.6784  -31.0652   22.0962 N   0  0  0  0  0  0
  -23.4166  -28.8191   23.3031 O   0  0  0  0  0  0
  -28.3708  -26.5660   20.1031 O   0  0  0  0  0  0
  -26.5598  -34.8929   22.4691 O   0  0  0  0  0  0
  -23.5419  -32.1408   23.7407 O   0  0  0  0  0  0
  -28.7041  -18.8003   20.8284 C   0  0  0  0  0  0
  -30.9606  -19.6287   20.8778 C   0  0  0  0  0  0
  -28.2328  -20.1506   20.8883 C   0  0  0  0  0  0
  -30.4931  -20.9649   20.9541 C   0  0  0  0  0  0
  -30.0912  -18.5076   20.8497 C   0  0  0  0  0  0
  -29.1113  -21.2740   20.9845 C   0  0  0  0  0  0
  -29.5276  -23.1594   18.0060 C   0  0  0  0  0  0
  -27.3221  -22.6609   22.1853 C   0  0  0  0  0  0
  -30.7596  -17.0900   20.8718 C   0  0  0  0  0  0
  -29.7651  -23.9285   19.3123 C   0  0  0  0  0  0
  -28.3472  -25.3583   20.9299 C   0  0  0  0  0  0
  -28.6187  -22.7306   21.3501 C   0  0  2  0  0  0
  -28.5503  -23.9181   20.2707 C   0  0  2  0  0  0
  -30.0404  -15.7719   20.8116 N   0  0  0  0  0  0
  -31.4616  -12.4680   19.1579 H   0  0  0  0  0  0
  -30.3237  -11.3999   19.9286 H   0  0  0  0  0  0
  -29.7621  -11.7200   17.4994 H   0  0  0  0  0  0
  -29.6629  -13.4476   17.7246 H   0  0  0  0  0  0
  -27.8433  -11.3024   18.8596 H   0  0  0  0  0  0
  -27.3787  -12.5930   17.7870 H   0  0  0  0  0  0
  -27.6571  -14.2657   19.5038 H   0  0  0  0  0  0
  -28.6931  -12.1296   21.4219 H   0  0  0  0  0  0
  -28.4479  -13.8166   21.7997 H   0  0  0  0  0  0
  -25.2769   -9.5682   22.4763 H   0  0  0  0  0  0
  -24.0006   -7.4639   22.7458 H   0  0  0  0  0  0
  -21.0870   -8.8783   19.8943 H   0  0  0  0  0  0
  -22.3729  -10.9670   19.6161 H   0  0  0  0  0  0
  -21.2011   -7.6147   23.9717 H   0  0  0  0  0  0
  -21.1474   -6.0512   25.9075 H   0  0  0  0  0  0
  -22.0607   -2.7603   23.2842 H   0  0  0  0  0  0
  -22.4085  -11.9853   22.4801 H   0  0  0  0  0  0
  -21.1064  -13.1184   22.2570 H   0  0  0  0  0  0
  -24.6505  -15.8458   20.5251 H   0  0  0  0  0  0
  -26.2604  -15.6334   20.0587 H   0  0  0  0  0  0
  -26.7161  -32.5487   23.1100 H   0  0  0  0  0  0
  -25.0018  -33.9700   25.0410 H   0  0  0  0  0  0
  -22.7015  -31.3013   21.4022 H   0  0  0  0  0  0
  -23.3705  -35.9618   23.3316 H   0  0  0  0  0  0
  -24.3526  -36.8900   22.2042 H   0  0  0  0  0  0
  -23.7200  -37.6488   23.6649 H   0  0  0  0  0  0
  -26.0496  -31.5683   20.5858 H   0  0  0  0  0  0
  -26.8324  -30.8768   21.9799 H   0  0  0  0  0  0
  -28.1171  -29.0519   21.1585 H   0  0  0  0  0  0
  -26.0469  -25.9183   19.0483 H   0  0  0  0  0  0
  -23.9846  -27.2749   19.0434 H   0  0  0  0  0  0
  -23.7401  -30.5796   19.4042 H   0  0  0  0  0  0
  -22.7457  -29.2352   19.8683 H   0  0  0  0  0  0
  -25.1252  -36.1925   25.0813 H   0  0  0  0  0  0
  -20.9969  -28.3283   24.1416 H   0  0  0  0  0  0
  -20.5600  -26.2318   23.3607 H   0  0  0  0  0  0
  -21.6599  -26.7434   22.1231 H   0  0  0  0  0  0
  -19.6875  -25.6363   21.1199 H   0  0  0  0  0  0
  -19.6640  -27.3243   20.6737 H   0  0  0  0  0  0
  -17.4163  -26.6717   21.4052 H   0  0  0  0  0  0
  -18.0332  -26.0064   22.8993 H   0  0  0  0  0  0
  -19.7941  -30.7303   24.2262 H   0  0  0  0  0  0
  -17.5025  -31.6273   24.5212 H   0  0  0  0  0  0
  -15.5359  -30.3038   23.7665 H   0  0  0  0  0  0
  -15.8653  -28.0870   22.7073 H   0  0  0  0  0  0
  -24.5993  -30.6936   25.7826 H   0  0  0  0  0  0
  -24.8917  -32.2793   26.4868 H   0  0  0  0  0  0
  -25.8179  -30.8894   27.0219 H   0  0  0  0  0  0
  -26.2862  -29.6737   24.1139 H   0  0  0  0  0  0
  -27.4070  -29.7228   25.4550 H   0  0  0  0  0  0
  -27.8712  -30.4249   23.9241 H   0  0  0  0  0  0
  -27.2678  -33.3566   26.2046 H   0  0  0  0  0  0
  -28.3902  -32.6809   25.0319 H   0  0  0  0  0  0
  -28.0692  -31.8373   26.5409 H   0  0  0  0  0  0
  -28.2593  -38.0067   24.7504 H   0  0  0  0  0  0
  -28.1027  -36.2602   24.6313 H   0  0  0  0  0  0
  -27.2272  -37.1475   25.8880 H   0  0  0  0  0  0
  -20.9325  -29.8760   21.6885 H   0  0  0  0  0  0
  -26.0125  -38.2863   24.1481 H   0  0  0  0  0  0
  -27.9872  -17.9916   20.8015 H   0  0  0  0  0  0
  -32.0295  -19.4603   20.8787 H   0  0  0  0  0  0
  -27.1651  -20.3097   20.9276 H   0  0  0  0  0  0
  -31.2265  -21.7546   21.0474 H   0  0  0  0  0  0
  -30.4568  -23.0182   17.4528 H   0  0  0  0  0  0
  -28.8409  -23.7106   17.3631 H   0  0  0  0  0  0
  -29.1040  -22.1704   18.1854 H   0  0  0  0  0  0
  -27.4111  -21.9205   22.9805 H   0  0  0  0  0  0
  -26.4623  -22.3930   21.5707 H   0  0  0  0  0  0
  -27.0889  -23.6012   22.6807 H   0  0  0  0  0  0
  -31.3677  -17.0552   21.7770 H   0  0  0  0  0  0
  -31.4805  -17.1192   20.0523 H   0  0  0  0  0  0
  -30.0212  -24.9547   19.0426 H   0  0  0  0  0  0
  -30.6505  -23.5467   19.8183 H   0  0  0  0  0  0
  -29.1280  -25.5002   21.6775 H   0  0  0  0  0  0
  -27.4174  -25.3589   21.4979 H   0  0  0  0  0  0
  -29.3822  -23.0615   22.0555 H   0  0  0  0  0  0
  -27.6685  -23.7413   19.6542 H   0  0  0  0  0  0
  -29.0588  -15.7336   21.0372 H   0  0  0  0  0  0
  1 25  1  0  0  0
  1 30  2  0  0  0
  1 84  1  0  0  0
  2  3  1  0  0  0
  2 25  1  0  0  0
  2 85  1  0  0  0
  2 86  1  0  0  0
  3  4  1  0  0  0
  3 87  1  0  0  0
  3 88  1  0  0  0
  4  5  1  0  0  0
  4 89  1  0  0  0
  4 90  1  0  0  0
  5  6  1  0  0  0
  5 26  1  0  0  0
  5 91  1  0  0  0
  6 25  1  0  0  0
  6 92  1  0  0  0
  6 93  1  0  0  0
  7  8  2  0  0  0
  7 26  1  0  0  0
  7 29  1  0  0  0
  8  9  1  0  0  0
  8 22  1  0  0  0
  9 10  1  0  0  0
  9 27  2  0  0  0
 10 11  2  0  0  0
 10 15  1  0  0  0
 11 12  1  0  0  0
 11 94  1  0  0  0
 12 13  2  0  0  0
 12 95  1  0  0  0
 13 14  1  0  0  0
 13 31  1  0  0  0
 14 15  2  0  0  0
 14 96  1  0  0  0
 15 97  1  0  0  0
 16 17  2  0  0  0
 16 21  1  0  0  0
 16 31  1  0  0  0
 17 18  1  0  0  0
 17 98  1  0  0  0
 18 19  2  0  0  0
 18 99  1  0  0  0
 19 20  1  0  0  0
 19 24  1  0  0  0
 20 21  2  0  0  0
 20100  1  0  0  0
 21 23  1  0  0  0
 22 28  1  0  0  0
 22 32  2  0  0  0
 26 27  1  0  0  0
 28101  1  0  0  0
 28102  1  0  0  0
 29103  1  0  0  0
 29104  1  0  0  0
 33 34  1  0  0  0
 33 66  1  0  0  0
 33 70  2  0  0  0
 34 36  1  0  0  0
 34 59  1  0  0  0
 34105  1  0  0  0
 35 44  2  0  0  0
 35 45  1  0  0  0
 35 68  1  0  0  0
 36 56  1  0  0  0
 36106  1  0  0  0
 37 39  1  0  0  0
 37 47  1  0  0  0
 37 66  1  0  0  0
 37107  1  0  0  0
 38 43  2  0  0  0
 38 46  1  0  0  0
 38 47  1  0  0  0
 39 64  1  0  0  0
 39 67  2  0  0  0
 40 52  1  0  0  0
 40 53  2  0  0  0
 40 58  1  0  0  0
 41108  1  0  0  0
 41109  1  0  0  0
 41110  1  0  0  0
 41 48  1  0  0  0
 42 43  1  0  0  0
 42 66  1  0  0  0
 42111  1  0  0  0
 42112  1  0  0  0
 43 44  1  0  0  0
 44113  1  0  0  0
 45 46  2  0  0  0
 45114  1  0  0  0
 46115  1  0  0  0
 47116  1  0  0  0
 47117  1  0  0  0
 48 56  1  0  0  0
 48 65  1  0  0  0
 48118  1  0  0  0
 49 50  1  0  0  0
 49 53  1  0  0  0
 49 64  1  0  0  0
 49119  1  0  0  0
 50 51  1  0  0  0
 50120  1  0  0  0
 50121  1  0  0  0
 51 52  1  0  0  0
 51122  1  0  0  0
 51123  1  0  0  0
 52124  1  0  0  0
 52125  1  0  0  0
 53 54  1  0  0  0
 54 55  2  0  0  0
 54126  1  0  0  0
 55 57  1  0  0  0
 55127  1  0  0  0
 56 69  2  0  0  0
 57 58  2  0  0  0
 57128  1  0  0  0
 58129  1  0  0  0
 59 60  1  0  0  0
 59 61  1  0  0  0
 59 62  1  0  0  0
 60130  1  0  0  0
 60131  1  0  0  0
 60132  1  0  0  0
 61133  1  0  0  0
 61134  1  0  0  0
 61135  1  0  0  0
 62136  1  0  0  0
 62137  1  0  0  0
 62138  1  0  0  0
 63 65  1  0  0  0
 63139  1  0  0  0
 63140  1  0  0  0
 63141  1  0  0  0
 64142  1  0  0  0
 65143  1  0  0  0
 68 81  1  0  0  0
 71 73  2  0  0  0
 71 75  1  0  0  0
 71144  1  0  0  0
 72 74  1  0  0  0
 72 75  2  0  0  0
 72145  1  0  0  0
 73 76  1  0  0  0
 73146  1  0  0  0
 74 76  2  0  0  0
 74147  1  0  0  0
 75 79  1  0  0  0
 76 82  1  0  0  0
 77 80  1  0  0  0
 77148  1  0  0  0
 77149  1  0  0  0
 77150  1  0  0  0
 78151  1  0  0  0
 78152  1  0  0  0
 78153  1  0  0  0
 78 82  1  0  0  0
 79 84  1  0  0  0
 79154  1  0  0  0
 79155  1  0  0  0
 80156  1  0  0  0
 80157  1  0  0  0
 80 83  1  0  0  0
 81 83  1  0  0  0
 81158  1  0  0  0
 81159  1  0  0  0
 82 83  1  0  0  0
 82160  1  0  0  0
 83161  1  0  0  0
 84162  1  0  0  0
M  ISO  4   1 100  68 101  81 101  84 100
M  END
> <chiral flag>
0

> <version>
0

> <s_m_source_file>
/data/baiqing/PycharmProjects/Reinvent-master-3.2/result/LINK_invent/BTK/process_docking_weight1_custom_sum_contain_oxygen_bond_distance_aromatic_linkinvent_7_9_3/rearranged_h_0122.sdf

> <i_m_source_file_index>
15

> <r_mmod_Potential_Energy-OPLS-2005>
63.261661529541

> <r_mmod_Stretch_Energy-OPLS-2005>
73.0214157104492

> <r_mmod_Bend_Energy-OPLS-2005>
154.402328491211

> <r_mmod_Torsional_Energy-OPLS-2005>
243.534088134766

> <r_mmod_Improper_Torsional_Energy-OPLS-2005>
5.19626760482788

> <r_mmod_Van_der_Waal_Energy-OPLS-2005>
145.479888916016

> <r_mmod_Electrostatic_Energy-OPLS-2005>
-399.857269287109

> <r_mmod_Solvation_Energy-OPLS-2005>
-195.933212280273

> <b_mmod_Minimization_Converged-OPLS-2005>
0

> <r_mmod_RMS_Derivative-OPLS-2005>
3.55396628379822

$$$$
15
                    3D
 Structure written by MMmdl.
159168  0  0  1  0            999 V2000
  -30.6665  -14.5854   20.5095 C   0  0  0  0  0  0
  -30.4245  -12.3620   19.4453 C   0  0  0  0  0  0
  -29.5000  -12.5014   18.2167 C   0  0  0  0  0  0
  -28.0204  -12.3543   18.6259 C   0  0  0  0  0  0
  -27.6513  -13.2152   19.8642 C   0  0  2  0  0  0
  -28.6960  -13.0475   20.9886 C   0  0  0  0  0  0
  -25.2546  -13.8171   20.5682 C   0  0  0  0  0  0
  -24.1815  -13.0437   20.9189 C   0  0  0  0  0  0
  -24.6385  -11.6910   20.8740 C   0  0  0  0  0  0
  -23.9056  -10.4293   21.0407 C   0  0  0  0  0  0
  -24.3610   -9.4210   21.9183 C   0  0  0  0  0  0
  -23.6287   -8.2244   22.0754 C   0  0  0  0  0  0
  -22.4270   -8.0280   21.3544 C   0  0  0  0  0  0
  -21.9902   -9.0254   20.4649 C   0  0  0  0  0  0
  -22.7229  -10.2134   20.3057 C   0  0  0  0  0  0
  -21.6853   -6.0732   22.5277 C   0  0  0  0  0  0
  -21.4016   -6.5637   23.8210 C   0  0  0  0  0  0
  -21.3660   -5.6789   24.9172 C   0  0  0  0  0  0
  -21.6045   -4.3053   24.7225 C   0  0  0  0  0  0
  -21.8820   -3.8144   23.4346 C   0  0  0  0  0  0
  -21.9193   -4.6960   22.3402 C   0  0  0  0  0  0
  -22.7837  -13.5231   21.1852 C   0  0  0  0  0  0
  -22.1662   -4.2146   21.0980 F   0  0  0  0  0  0
  -21.5628   -3.4536   25.7737 F   0  0  0  0  0  0
  -30.0086  -13.3870   20.4227 N   0  0  0  0  0  0
  -26.2975  -12.9352   20.3330 N   0  0  0  0  0  0
  -25.9310  -11.6507   20.5759 N   0  0  0  0  0  0
  -22.0482  -12.8229   22.0414 N   0  0  0  0  0  0
  -25.4246  -15.1889   20.4078 N   0  0  0  0  0  0
  -31.8438  -14.6812   20.1468 O   0  0  0  0  0  0
  -21.6638   -6.8874   21.4239 O   0  0  0  0  0  0
  -22.3522  -14.5537   20.6698 O   0  0  0  0  0  0
  -24.6212  -31.8631   23.2053 C   0  0  0  0  0  0
  -25.9080  -32.4795   23.8366 C   0  0  1  0  0  0
  -27.2294  -27.3662   20.0970 C   0  0  0  0  0  0
  -25.5912  -33.8594   24.2296 N   0  0  0  0  0  0
  -23.4115  -30.4875   21.5472 C   0  0  2  0  0  0
  -24.8556  -28.9461   20.1121 C   0  0  0  0  0  0
  -22.7442  -29.4639   22.4956 C   0  0  0  0  0  0
  -18.0280  -28.1378   22.8488 C   0  0  0  0  0  0
  -24.1488  -36.7302   23.2639 C   0  0  0  0  0  0
  -25.9477  -30.8070   21.3687 C   0  0  0  0  0  0
  -26.0207  -29.4373   20.7123 C   0  0  0  0  0  0
  -27.2061  -28.6546   20.7021 C   0  0  0  0  0  0
  -26.0311  -26.9000   19.5069 C   0  0  0  0  0  0
  -24.8590  -27.6793   19.5073 C   0  0  0  0  0  0
  -23.6223  -29.8219   20.1616 C   0  0  0  0  0  0
  -25.4111  -36.3094   24.0333 C   0  0  1  0  0  0
  -20.5875  -28.3674   23.1298 C   0  0  2  0  0  0
  -20.6769  -26.9403   22.5413 C   0  0  0  0  0  0
  -19.5747  -26.6382   21.5210 C   0  0  0  0  0  0
  -18.1927  -26.7922   22.1624 C   0  0  0  0  0  0
  -19.1532  -28.8843   23.2891 C   0  0  0  0  0  0
  -18.9457  -30.1447   23.8907 C   0  0  0  0  0  0
  -17.6458  -30.6582   24.0563 C   0  0  0  0  0  0
  -25.9044  -34.9461   23.5115 C   0  0  0  0  0  0
  -16.5349  -29.9084   23.6326 C   0  0  0  0  0  0
  -16.7268  -28.6499   23.0350 C   0  0  0  0  0  0
  -26.4482  -31.6594   25.0720 C   0  0  0  0  0  0
  -25.3734  -31.3719   26.1461 C   0  0  0  0  0  0
  -27.0318  -30.3026   24.6142 C   0  0  0  0  0  0
  -27.6052  -32.4322   25.7486 C   0  0  0  0  0  0
  -27.5580  -37.1805   24.8464 C   0  0  0  0  0  0
  -21.4163  -29.3036   22.3697 N   0  0  0  0  0  0
  -26.4293  -37.3783   23.9408 N   0  0  0  0  0  0
  -24.6788  -31.0683   22.0979 N   0  0  0  0  0  0
  -23.4189  -28.8182   23.3019 O   0  0  0  0  0  0
  -28.3899  -26.5935   20.1416 O   0  0  0  0  0  0
  -26.5610  -34.8922   22.4679 O   0  0  0  0  0  0
  -23.5389  -32.1409   23.7414 O   0  0  0  0  0  0
  -29.4491  -23.8156   21.1093 C   0  0  0  0  0  0
  -28.2880  -22.8640   19.2203 C   0  0  0  0  0  0
  -29.7410  -22.5035   21.5696 C   0  0  0  0  0  0
  -28.5784  -21.5490   19.6824 C   0  0  0  0  0  0
  -28.7271  -24.0244   19.9133 C   0  0  0  0  0  0
  -29.3326  -21.3433   20.8620 C   0  0  0  0  0  0
  -29.3829  -17.6950   22.0532 C   0  0  0  0  0  0
  -30.2754  -18.1632   19.8058 C   0  0  0  0  0  0
  -29.0923  -16.2139   21.6561 C   0  0  0  0  0  0
  -29.9375  -16.6973   19.3962 C   0  0  0  0  0  0
  -29.3313  -18.7215   20.8909 C   0  0  0  0  0  0
  -28.5668  -25.4345   19.2744 C   0  0  0  0  0  0
  -29.8874  -15.7199   20.5131 N   0  0  0  0  0  0
  -29.7186  -20.0709   21.3688 N   0  0  0  0  0  0
  -31.4681  -12.4653   19.1436 H   0  0  0  0  0  0
  -30.3404  -11.3650   19.8805 H   0  0  0  0  0  0
  -29.7555  -11.7533   17.4651 H   0  0  0  0  0  0
  -29.6564  -13.4736   17.7459 H   0  0  0  0  0  0
  -27.8432  -11.3001   18.8430 H   0  0  0  0  0  0
  -27.3701  -12.6041   17.7868 H   0  0  0  0  0  0
  -27.6752  -14.2547   19.5374 H   0  0  0  0  0  0
  -28.7009  -12.0192   21.3532 H   0  0  0  0  0  0
  -28.4442  -13.6577   21.8526 H   0  0  0  0  0  0
  -25.2758   -9.5687   22.4754 H   0  0  0  0  0  0
  -24.0001   -7.4636   22.7472 H   0  0  0  0  0  0
  -21.0834   -8.8772   19.8955 H   0  0  0  0  0  0
  -22.3688  -10.9671   19.6163 H   0  0  0  0  0  0
  -21.2010   -7.6145   23.9712 H   0  0  0  0  0  0
  -21.1481   -6.0520   25.9075 H   0  0  0  0  0  0
  -22.0599   -2.7606   23.2847 H   0  0  0  0  0  0
  -22.4094  -11.9892   22.4808 H   0  0  0  0  0  0
  -21.1101  -13.1257   22.2621 H   0  0  0  0  0  0
  -24.6591  -15.8444   20.5194 H   0  0  0  0  0  0
  -26.2784  -15.6268   20.0869 H   0  0  0  0  0  0
  -26.7147  -32.5477   23.1117 H   0  0  0  0  0  0
  -25.0062  -33.9744   25.0443 H   0  0  0  0  0  0
  -22.7032  -31.3066   21.4068 H   0  0  0  0  0  0
  -23.3746  -35.9640   23.3311 H   0  0  0  0  0  0
  -24.3581  -36.8909   22.2051 H   0  0  0  0  0  0
  -23.7246  -37.6511   23.6651 H   0  0  0  0  0  0
  -26.0731  -31.5721   20.6013 H   0  0  0  0  0  0
  -26.8310  -30.8558   21.9939 H   0  0  0  0  0  0
  -28.1037  -29.0305   21.1729 H   0  0  0  0  0  0
  -25.9575  -25.9170   19.0685 H   0  0  0  0  0  0
  -23.9585  -27.2885   19.0539 H   0  0  0  0  0  0
  -23.7380  -30.5979   19.4039 H   0  0  0  0  0  0
  -22.7432  -29.2485   19.8620 H   0  0  0  0  0  0
  -25.1290  -36.1952   25.0826 H   0  0  0  0  0  0
  -20.9971  -28.3245   24.1417 H   0  0  0  0  0  0
  -20.5668  -26.2282   23.3606 H   0  0  0  0  0  0
  -21.6640  -26.7437   22.1208 H   0  0  0  0  0  0
  -19.6909  -25.6295   21.1235 H   0  0  0  0  0  0
  -19.6685  -27.3197   20.6742 H   0  0  0  0  0  0
  -17.4195  -26.6668   21.4027 H   0  0  0  0  0  0
  -18.0331  -26.0063   22.9021 H   0  0  0  0  0  0
  -19.7935  -30.7258   24.2282 H   0  0  0  0  0  0
  -17.5015  -31.6265   24.5162 H   0  0  0  0  0  0
  -15.5350  -30.2988   23.7646 H   0  0  0  0  0  0
  -15.8668  -28.0820   22.7062 H   0  0  0  0  0  0
  -24.5902  -30.7071   25.7798 H   0  0  0  0  0  0
  -24.8931  -32.2882   26.4905 H   0  0  0  0  0  0
  -25.8075  -30.8888   27.0224 H   0  0  0  0  0  0
  -26.2877  -29.6781   24.1183 H   0  0  0  0  0  0
  -27.4052  -29.7272   25.4624 H   0  0  0  0  0  0
  -27.8731  -30.4325   23.9329 H   0  0  0  0  0  0
  -27.2665  -33.3615   26.2079 H   0  0  0  0  0  0
  -28.3851  -32.6892   25.0307 H   0  0  0  0  0  0
  -28.0731  -31.8438   26.5388 H   0  0  0  0  0  0
  -28.2602  -38.0098   24.7509 H   0  0  0  0  0  0
  -28.1071  -36.2629   24.6293 H   0  0  0  0  0  0
  -27.2300  -37.1461   25.8868 H   0  0  0  0  0  0
  -20.9329  -29.8759   21.6918 H   0  0  0  0  0  0
  -26.0177  -38.2861   24.1406 H   0  0  0  0  0  0
  -29.8203  -24.6673   21.6620 H   0  0  0  0  0  0
  -27.7489  -22.9771   18.2902 H   0  0  0  0  0  0
  -30.3167  -22.4008   22.4788 H   0  0  0  0  0  0
  -28.2396  -20.7039   19.1004 H   0  0  0  0  0  0
  -30.3700  -17.7294   22.5175 H   0  0  0  0  0  0
  -28.6792  -17.9919   22.8325 H   0  0  0  0  0  0
  -30.2363  -18.8013   18.9217 H   0  0  0  0  0  0
  -31.3073  -18.1998   20.1586 H   0  0  0  0  0  0
  -28.0365  -16.1058   21.4076 H   0  0  0  0  0  0
  -29.2700  -15.5901   22.5332 H   0  0  0  0  0  0
  -30.6436  -16.3739   18.6288 H   0  0  0  0  0  0
  -28.9616  -16.6814   18.9093 H   0  0  0  0  0  0
  -28.3129  -18.7616   20.5001 H   0  0  0  0  0  0
  -27.8599  -25.3917   18.4486 H   0  0  0  0  0  0
  -29.5161  -25.6169   18.7703 H   0  0  0  0  0  0
  -30.2657  -20.0828   22.2255 H   0  0  0  0  0  0
  1 25  1  0  0  0
  1 30  2  0  0  0
  1 83  1  0  0  0
  2  3  1  0  0  0
  2 25  1  0  0  0
  2 85  1  0  0  0
  2 86  1  0  0  0
  3  4  1  0  0  0
  3 87  1  0  0  0
  3 88  1  0  0  0
  4  5  1  0  0  0
  4 89  1  0  0  0
  4 90  1  0  0  0
  5  6  1  0  0  0
  5 26  1  0  0  0
  5 91  1  0  0  0
  6 25  1  0  0  0
  6 92  1  0  0  0
  6 93  1  0  0  0
  7  8  2  0  0  0
  7 26  1  0  0  0
  7 29  1  0  0  0
  8  9  1  0  0  0
  8 22  1  0  0  0
  9 10  1  0  0  0
  9 27  2  0  0  0
 10 11  2  0  0  0
 10 15  1  0  0  0
 11 12  1  0  0  0
 11 94  1  0  0  0
 12 13  2  0  0  0
 12 95  1  0  0  0
 13 14  1  0  0  0
 13 31  1  0  0  0
 14 15  2  0  0  0
 14 96  1  0  0  0
 15 97  1  0  0  0
 16 17  2  0  0  0
 16 21  1  0  0  0
 16 31  1  0  0  0
 17 18  1  0  0  0
 17 98  1  0  0  0
 18 19  2  0  0  0
 18 99  1  0  0  0
 19 20  1  0  0  0
 19 24  1  0  0  0
 20 21  2  0  0  0
 20100  1  0  0  0
 21 23  1  0  0  0
 22 28  1  0  0  0
 22 32  2  0  0  0
 26 27  1  0  0  0
 28101  1  0  0  0
 28102  1  0  0  0
 29103  1  0  0  0
 29104  1  0  0  0
 33 34  1  0  0  0
 33 66  1  0  0  0
 33 70  2  0  0  0
 34 36  1  0  0  0
 34 59  1  0  0  0
 34105  1  0  0  0
 35 44  2  0  0  0
 35 45  1  0  0  0
 35 68  1  0  0  0
 36 56  1  0  0  0
 36106  1  0  0  0
 37 39  1  0  0  0
 37 47  1  0  0  0
 37 66  1  0  0  0
 37107  1  0  0  0
 38 43  2  0  0  0
 38 46  1  0  0  0
 38 47  1  0  0  0
 39 64  1  0  0  0
 39 67  2  0  0  0
 40 52  1  0  0  0
 40 53  2  0  0  0
 40 58  1  0  0  0
 41108  1  0  0  0
 41109  1  0  0  0
 41110  1  0  0  0
 41 48  1  0  0  0
 42 43  1  0  0  0
 42 66  1  0  0  0
 42111  1  0  0  0
 42112  1  0  0  0
 43 44  1  0  0  0
 44113  1  0  0  0
 45 46  2  0  0  0
 45114  1  0  0  0
 46115  1  0  0  0
 47116  1  0  0  0
 47117  1  0  0  0
 48 56  1  0  0  0
 48 65  1  0  0  0
 48118  1  0  0  0
 49 50  1  0  0  0
 49 53  1  0  0  0
 49 64  1  0  0  0
 49119  1  0  0  0
 50 51  1  0  0  0
 50120  1  0  0  0
 50121  1  0  0  0
 51 52  1  0  0  0
 51122  1  0  0  0
 51123  1  0  0  0
 52124  1  0  0  0
 52125  1  0  0  0
 53 54  1  0  0  0
 54 55  2  0  0  0
 54126  1  0  0  0
 55 57  1  0  0  0
 55127  1  0  0  0
 56 69  2  0  0  0
 57 58  2  0  0  0
 57128  1  0  0  0
 58129  1  0  0  0
 59 60  1  0  0  0
 59 61  1  0  0  0
 59 62  1  0  0  0
 60130  1  0  0  0
 60131  1  0  0  0
 60132  1  0  0  0
 61133  1  0  0  0
 61134  1  0  0  0
 61135  1  0  0  0
 62136  1  0  0  0
 62137  1  0  0  0
 62138  1  0  0  0
 63 65  1  0  0  0
 63139  1  0  0  0
 63140  1  0  0  0
 63141  1  0  0  0
 64142  1  0  0  0
 65143  1  0  0  0
 68 82  1  0  0  0
 71 73  2  0  0  0
 71 75  1  0  0  0
 71144  1  0  0  0
 72 74  1  0  0  0
 72 75  2  0  0  0
 72145  1  0  0  0
 73 76  1  0  0  0
 73146  1  0  0  0
 74 76  2  0  0  0
 74147  1  0  0  0
 75 82  1  0  0  0
 76 84  1  0  0  0
 77 79  1  0  0  0
 77 81  1  0  0  0
 77148  1  0  0  0
 77149  1  0  0  0
 78 80  1  0  0  0
 78 81  1  0  0  0
 78150  1  0  0  0
 78151  1  0  0  0
 79 83  1  0  0  0
 79152  1  0  0  0
 79153  1  0  0  0
 80 83  1  0  0  0
 80154  1  0  0  0
 80155  1  0  0  0
 81 84  1  0  0  0
 81156  1  0  0  0
 82157  1  0  0  0
 82158  1  0  0  0
 84159  1  0  0  0
M  ISO  4   1 100  68 101  82 101  83 100
M  END
> <chiral flag>
0

> <version>
0

> <s_m_source_file>
/data/baiqing/PycharmProjects/Reinvent-master-3.2/result/LINK_invent/BTK/process_docking_weight1_custom_sum_contain_oxygen_bond_distance_aromatic_linkinvent_7_9_3/rearranged_h_0122.sdf

> <i_m_source_file_index>
16

> <r_mmod_Potential_Energy-OPLS-2005>
210.191146850586

> <r_mmod_Stretch_Energy-OPLS-2005>
57.6274375915527

> <r_mmod_Bend_Energy-OPLS-2005>
147.555114746094

> <r_mmod_Torsional_Energy-OPLS-2005>
318.925628662109

> <r_mmod_Improper_Torsional_Energy-OPLS-2005>
16.7179355621338

> <r_mmod_Van_der_Waal_Energy-OPLS-2005>
144.584869384766

> <r_mmod_Electrostatic_Energy-OPLS-2005>
-302.471893310547

> <r_mmod_Solvation_Energy-OPLS-2005>
-203.946243286133

> <b_mmod_Minimization_Converged-OPLS-2005>
0

> <r_mmod_RMS_Derivative-OPLS-2005>
0.38052362203598

$$$$
16
                    3D
 Structure written by MMmdl.
167176  0  0  1  0            999 V2000
  -30.6470  -14.5963   20.6040 C   0  0  0  0  0  0
  -30.4235  -12.4059   19.4281 C   0  0  0  0  0  0
  -29.4937  -12.5381   18.2020 C   0  0  0  0  0  0
  -28.0219  -12.3524   18.6107 C   0  0  0  0  0  0
  -27.6480  -13.2080   19.8494 C   0  0  2  0  0  0
  -28.6807  -13.0179   20.9767 C   0  0  0  0  0  0
  -25.2562  -13.8143   20.5621 C   0  0  0  0  0  0
  -24.1823  -13.0392   20.9106 C   0  0  0  0  0  0
  -24.6373  -11.6871   20.8663 C   0  0  0  0  0  0
  -23.9036  -10.4245   21.0376 C   0  0  0  0  0  0
  -24.3591   -9.4182   21.9177 C   0  0  0  0  0  0
  -23.6263   -8.2234   22.0790 C   0  0  0  0  0  0
  -22.4265   -8.0240   21.3548 C   0  0  0  0  0  0
  -21.9862   -9.0217   20.4682 C   0  0  0  0  0  0
  -22.7188  -10.2079   20.3062 C   0  0  0  0  0  0
  -21.6866   -6.0694   22.5263 C   0  0  0  0  0  0
  -21.4042   -6.5627   23.8175 C   0  0  0  0  0  0
  -21.3650   -5.6793   24.9146 C   0  0  0  0  0  0
  -21.6049   -4.3052   24.7213 C   0  0  0  0  0  0
  -21.8830   -3.8119   23.4344 C   0  0  0  0  0  0
  -21.9206   -4.6927   22.3382 C   0  0  0  0  0  0
  -22.7858  -13.5234   21.1703 C   0  0  0  0  0  0
  -22.1672   -4.2109   21.0965 F   0  0  0  0  0  0
  -21.5588   -3.4543   25.7723 F   0  0  0  0  0  0
  -29.9970  -13.3978   20.4434 N   0  0  0  0  0  0
  -26.2948  -12.9298   20.3190 N   0  0  0  0  0  0
  -25.9296  -11.6463   20.5679 N   0  0  0  0  0  0
  -22.0471  -12.8331   22.0319 N   0  0  0  0  0  0
  -25.4266  -15.1859   20.4124 N   0  0  0  0  0  0
  -31.7579  -14.7654   20.0799 O   0  0  0  0  0  0
  -21.6650   -6.8832   21.4221 O   0  0  0  0  0  0
  -22.3579  -14.5500   20.6465 O   0  0  0  0  0  0
  -24.6194  -31.8573   23.1993 C   0  0  0  0  0  0
  -25.9062  -32.4756   23.8303 C   0  0  1  0  0  0
  -27.2479  -27.3654   20.1068 C   0  0  0  0  0  0
  -25.5891  -33.8553   24.2229 N   0  0  0  0  0  0
  -23.4117  -30.4779   21.5361 C   0  0  2  0  0  0
  -24.8647  -28.9292   20.1019 C   0  0  0  0  0  0
  -22.7426  -29.4625   22.4909 C   0  0  0  0  0  0
  -18.0289  -28.1393   22.8491 C   0  0  0  0  0  0
  -24.1466  -36.7281   23.2631 C   0  0  0  0  0  0
  -25.9414  -30.7947   21.3684 C   0  0  0  0  0  0
  -26.0168  -29.4213   20.7246 C   0  0  0  0  0  0
  -27.1987  -28.6352   20.7444 C   0  0  0  0  0  0
  -26.0871  -26.9209   19.4380 C   0  0  0  0  0  0
  -24.8979  -27.6815   19.4539 C   0  0  0  0  0  0
  -23.6250  -29.7977   20.1539 C   0  0  0  0  0  0
  -25.4096  -36.3080   24.0327 C   0  0  1  0  0  0
  -20.5871  -28.3704   23.1283 C   0  0  2  0  0  0
  -20.6772  -26.9437   22.5405 C   0  0  0  0  0  0
  -19.5750  -26.6429   21.5199 C   0  0  0  0  0  0
  -18.1938  -26.7943   22.1628 C   0  0  0  0  0  0
  -19.1542  -28.8871   23.2882 C   0  0  0  0  0  0
  -18.9474  -30.1471   23.8893 C   0  0  0  0  0  0
  -17.6475  -30.6598   24.0585 C   0  0  0  0  0  0
  -25.9042  -34.9447   23.5091 C   0  0  0  0  0  0
  -16.5360  -29.9105   23.6325 C   0  0  0  0  0  0
  -16.7283  -28.6519   23.0354 C   0  0  0  0  0  0
  -26.4453  -31.6567   25.0675 C   0  0  0  0  0  0
  -25.3681  -31.3701   26.1401 C   0  0  0  0  0  0
  -27.0256  -30.2985   24.6101 C   0  0  0  0  0  0
  -27.6022  -32.4294   25.7432 C   0  0  0  0  0  0
  -27.5545  -37.1802   24.8457 C   0  0  0  0  0  0
  -21.4147  -29.3048   22.3655 N   0  0  0  0  0  0
  -26.4254  -37.3804   23.9415 N   0  0  0  0  0  0
  -24.6749  -31.0630   22.0924 N   0  0  0  0  0  0
  -23.4154  -28.8213   23.3023 O   0  0  0  0  0  0
  -28.3959  -26.5848   20.2256 O   0  0  0  0  0  0
  -26.5649  -34.8929   22.4671 O   0  0  0  0  0  0
  -23.5377  -32.1325   23.7411 O   0  0  0  0  0  0
  -30.4397  -16.7509   23.3033 C   0  0  0  0  0  0
  -31.1847  -17.4418   22.1708 C   0  0  0  0  0  0
  -27.0223  -23.5128   19.2467 C   0  0  0  0  0  0
  -27.1417  -22.0381   19.6031 C   0  0  0  0  0  0
  -29.7088  -15.5758   22.6363 C   0  0  0  0  0  0
  -30.3345  -17.1059   20.9409 C   0  0  1  0  0  0
  -28.4596  -23.9989   19.4250 C   0  0  1  0  0  0
  -28.0971  -22.1024   20.7899 C   0  0  1  0  0  0
  -29.2249  -20.9839   22.7573 C   0  0  0  0  0  0
  -29.1276  -18.1409   20.8385 C   0  0  0  0  0  0
  -28.7800  -25.5485   19.2799 C   0  0  0  0  0  0
  -29.4395  -19.6791   20.5565 C   0  0  0  0  0  0
  -28.5833  -20.7177   21.3867 C   0  0  2  0  0  0
  -29.9725  -15.6572   21.1866 N   0  0  0  0  0  0
  -29.0129  -23.1890   20.4938 O   0  0  0  0  0  0
  -31.4613  -12.5372   19.1168 H   0  0  0  0  0  0
  -30.3717  -11.3976   19.8365 H   0  0  0  0  0  0
  -29.7670  -11.8087   17.4362 H   0  0  0  0  0  0
  -29.6175  -13.5207   17.7425 H   0  0  0  0  0  0
  -27.8833  -11.2925   18.8315 H   0  0  0  0  0  0
  -27.3608  -12.5898   17.7757 H   0  0  0  0  0  0
  -27.6762  -14.2522   19.5351 H   0  0  0  0  0  0
  -28.7116  -11.9738   21.2961 H   0  0  0  0  0  0
  -28.3767  -13.5840   21.8511 H   0  0  0  0  0  0
  -25.2725   -9.5680   22.4745 H   0  0  0  0  0  0
  -23.9939   -7.4683   22.7585 H   0  0  0  0  0  0
  -21.0750   -8.8748   19.9055 H   0  0  0  0  0  0
  -22.3632  -10.9607   19.6173 H   0  0  0  0  0  0
  -21.2088   -7.6147   23.9659 H   0  0  0  0  0  0
  -21.1445   -6.0534   25.9039 H   0  0  0  0  0  0
  -22.0622   -2.7587   23.2851 H   0  0  0  0  0  0
  -22.4107  -12.0038   22.4762 H   0  0  0  0  0  0
  -21.1087  -13.1422   22.2420 H   0  0  0  0  0  0
  -24.6522  -15.8324   20.5238 H   0  0  0  0  0  0
  -26.2952  -15.6364   20.1543 H   0  0  0  0  0  0
  -26.7134  -32.5421   23.1056 H   0  0  0  0  0  0
  -24.9964  -33.9638   25.0333 H   0  0  0  0  0  0
  -22.7002  -31.2938   21.3874 H   0  0  0  0  0  0
  -23.3742  -35.9603   23.3304 H   0  0  0  0  0  0
  -24.3518  -36.8884   22.2034 H   0  0  0  0  0  0
  -23.7222  -37.6492   23.6628 H   0  0  0  0  0  0
  -26.0507  -31.5504   20.5886 H   0  0  0  0  0  0
  -26.8289  -30.8544   21.9856 H   0  0  0  0  0  0
  -28.0721  -28.9917   21.2723 H   0  0  0  0  0  0
  -26.0811  -25.9786   18.9153 H   0  0  0  0  0  0
  -24.0187  -27.3072   18.9492 H   0  0  0  0  0  0
  -23.7225  -30.5588   19.3766 H   0  0  0  0  0  0
  -22.7513  -29.2039   19.8773 H   0  0  0  0  0  0
  -25.1295  -36.1897   25.0832 H   0  0  0  0  0  0
  -20.9993  -28.3312   24.1391 H   0  0  0  0  0  0
  -20.5661  -26.2351   23.3620 H   0  0  0  0  0  0
  -21.6656  -26.7457   22.1220 H   0  0  0  0  0  0
  -19.6926  -25.6366   21.1170 H   0  0  0  0  0  0
  -19.6674  -27.3301   20.6772 H   0  0  0  0  0  0
  -17.4208  -26.6727   21.4022 H   0  0  0  0  0  0
  -18.0336  -26.0070   22.9008 H   0  0  0  0  0  0
  -19.7963  -30.7298   24.2240 H   0  0  0  0  0  0
  -17.5036  -31.6268   24.5216 H   0  0  0  0  0  0
  -15.5369  -30.3025   23.7618 H   0  0  0  0  0  0
  -15.8683  -28.0839   22.7053 H   0  0  0  0  0  0
  -24.5892  -30.7011   25.7717 H   0  0  0  0  0  0
  -24.8843  -32.2880   26.4763 H   0  0  0  0  0  0
  -25.8012  -30.8913   27.0199 H   0  0  0  0  0  0
  -26.2825  -29.6822   24.1039 H   0  0  0  0  0  0
  -27.3842  -29.7143   25.4582 H   0  0  0  0  0  0
  -27.8740  -30.4239   23.9371 H   0  0  0  0  0  0
  -27.2620  -33.3595   26.1991 H   0  0  0  0  0  0
  -28.3834  -32.6853   25.0259 H   0  0  0  0  0  0
  -28.0687  -31.8430   26.5350 H   0  0  0  0  0  0
  -28.2617  -38.0055   24.7521 H   0  0  0  0  0  0
  -28.0990  -36.2602   24.6287 H   0  0  0  0  0  0
  -27.2229  -37.1471   25.8848 H   0  0  0  0  0  0
  -20.9326  -29.8755   21.6846 H   0  0  0  0  0  0
  -26.0119  -38.2858   24.1498 H   0  0  0  0  0  0
  -29.7088  -17.4363   23.7382 H   0  0  0  0  0  0
  -31.1162  -16.4444   24.1018 H   0  0  0  0  0  0
  -32.1829  -17.0161   22.0584 H   0  0  0  0  0  0
  -31.3096  -18.5043   22.3733 H   0  0  0  0  0  0
  -26.3466  -24.0050   19.9458 H   0  0  0  0  0  0
  -26.6462  -23.6600   18.2339 H   0  0  0  0  0  0
  -27.5710  -21.4624   18.7813 H   0  0  0  0  0  0
  -26.1798  -21.5965   19.8648 H   0  0  0  0  0  0
  -28.6317  -15.6502   22.8065 H   0  0  0  0  0  0
  -30.0349  -14.6331   23.0849 H   0  0  0  0  0  0
  -30.9185  -17.1899   20.0208 H   0  0  0  0  0  0
  -28.9833  -23.5642   18.5711 H   0  0  0  0  0  0
  -27.4938  -22.5337   21.5916 H   0  0  0  0  0  0
  -28.5175  -21.4738   23.4241 H   0  0  0  0  0  0
  -30.0895  -21.6451   22.6714 H   0  0  0  0  0  0
  -29.5424  -20.0647   23.2487 H   0  0  0  0  0  0
  -28.5585  -18.0792   21.7649 H   0  0  0  0  0  0
  -28.4266  -17.8065   20.0695 H   0  0  0  0  0  0
  -28.4966  -25.8701   18.2770 H   0  0  0  0  0  0
  -29.8692  -25.6088   19.2735 H   0  0  0  0  0  0
  -30.4958  -19.8963   20.7243 H   0  0  0  0  0  0
  -29.2963  -19.8537   19.4923 H   0  0  0  0  0  0
  -27.6436  -20.1974   21.5854 H   0  0  0  0  0  0
  1 25  1  0  0  0
  1 30  2  0  0  0
  1 84  1  0  0  0
  2  3  1  0  0  0
  2 25  1  0  0  0
  2 86  1  0  0  0
  2 87  1  0  0  0
  3  4  1  0  0  0
  3 88  1  0  0  0
  3 89  1  0  0  0
  4  5  1  0  0  0
  4 90  1  0  0  0
  4 91  1  0  0  0
  5  6  1  0  0  0
  5 26  1  0  0  0
  5 92  1  0  0  0
  6 25  1  0  0  0
  6 93  1  0  0  0
  6 94  1  0  0  0
  7  8  2  0  0  0
  7 26  1  0  0  0
  7 29  1  0  0  0
  8  9  1  0  0  0
  8 22  1  0  0  0
  9 10  1  0  0  0
  9 27  2  0  0  0
 10 11  2  0  0  0
 10 15  1  0  0  0
 11 12  1  0  0  0
 11 95  1  0  0  0
 12 13  2  0  0  0
 12 96  1  0  0  0
 13 14  1  0  0  0
 13 31  1  0  0  0
 14 15  2  0  0  0
 14 97  1  0  0  0
 15 98  1  0  0  0
 16 17  2  0  0  0
 16 21  1  0  0  0
 16 31  1  0  0  0
 17 18  1  0  0  0
 17 99  1  0  0  0
 18 19  2  0  0  0
 18100  1  0  0  0
 19 20  1  0  0  0
 19 24  1  0  0  0
 20 21  2  0  0  0
 20101  1  0  0  0
 21 23  1  0  0  0
 22 28  1  0  0  0
 22 32  2  0  0  0
 26 27  1  0  0  0
 28102  1  0  0  0
 28103  1  0  0  0
 29104  1  0  0  0
 29105  1  0  0  0
 33 34  1  0  0  0
 33 66  1  0  0  0
 33 70  2  0  0  0
 34 36  1  0  0  0
 34 59  1  0  0  0
 34106  1  0  0  0
 35 44  2  0  0  0
 35 45  1  0  0  0
 35 68  1  0  0  0
 36 56  1  0  0  0
 36107  1  0  0  0
 37 39  1  0  0  0
 37 47  1  0  0  0
 37 66  1  0  0  0
 37108  1  0  0  0
 38 43  2  0  0  0
 38 46  1  0  0  0
 38 47  1  0  0  0
 39 64  1  0  0  0
 39 67  2  0  0  0
 40 52  1  0  0  0
 40 53  2  0  0  0
 40 58  1  0  0  0
 41109  1  0  0  0
 41110  1  0  0  0
 41111  1  0  0  0
 41 48  1  0  0  0
 42 43  1  0  0  0
 42 66  1  0  0  0
 42112  1  0  0  0
 42113  1  0  0  0
 43 44  1  0  0  0
 44114  1  0  0  0
 45 46  2  0  0  0
 45115  1  0  0  0
 46116  1  0  0  0
 47117  1  0  0  0
 47118  1  0  0  0
 48 56  1  0  0  0
 48 65  1  0  0  0
 48119  1  0  0  0
 49 50  1  0  0  0
 49 53  1  0  0  0
 49 64  1  0  0  0
 49120  1  0  0  0
 50 51  1  0  0  0
 50121  1  0  0  0
 50122  1  0  0  0
 51 52  1  0  0  0
 51123  1  0  0  0
 51124  1  0  0  0
 52125  1  0  0  0
 52126  1  0  0  0
 53 54  1  0  0  0
 54 55  2  0  0  0
 54127  1  0  0  0
 55 57  1  0  0  0
 55128  1  0  0  0
 56 69  2  0  0  0
 57 58  2  0  0  0
 57129  1  0  0  0
 58130  1  0  0  0
 59 60  1  0  0  0
 59 61  1  0  0  0
 59 62  1  0  0  0
 60131  1  0  0  0
 60132  1  0  0  0
 60133  1  0  0  0
 61134  1  0  0  0
 61135  1  0  0  0
 61136  1  0  0  0
 62137  1  0  0  0
 62138  1  0  0  0
 62139  1  0  0  0
 63 65  1  0  0  0
 63140  1  0  0  0
 63141  1  0  0  0
 63142  1  0  0  0
 64143  1  0  0  0
 65144  1  0  0  0
 68 81  1  0  0  0
 71 72  1  0  0  0
 71 75  1  0  0  0
 71145  1  0  0  0
 71146  1  0  0  0
 72 76  1  0  0  0
 72147  1  0  0  0
 72148  1  0  0  0
 73 74  1  0  0  0
 73 77  1  0  0  0
 73149  1  0  0  0
 73150  1  0  0  0
 74151  1  0  0  0
 74152  1  0  0  0
 74 78  1  0  0  0
 75 84  1  0  0  0
 75153  1  0  0  0
 75154  1  0  0  0
 76 80  1  0  0  0
 76 84  1  0  0  0
 76155  1  0  0  0
 77 81  1  0  0  0
 77 85  1  0  0  0
 77156  1  0  0  0
 78 83  1  0  0  0
 78 85  1  0  0  0
 78157  1  0  0  0
 79158  1  0  0  0
 79159  1  0  0  0
 79160  1  0  0  0
 79 83  1  0  0  0
 80 82  1  0  0  0
 80161  1  0  0  0
 80162  1  0  0  0
 81163  1  0  0  0
 81164  1  0  0  0
 82 83  1  0  0  0
 82165  1  0  0  0
 82166  1  0  0  0
 83167  1  0  0  0
M  ISO  4   1 100  68 101  81 101  84 100
M  END
> <chiral flag>
0

> <version>
0

> <s_m_source_file>
/data/baiqing/PycharmProjects/Reinvent-master-3.2/result/LINK_invent/BTK/process_docking_weight1_custom_sum_contain_oxygen_bond_distance_aromatic_linkinvent_7_9_3/rearranged_h_0122.sdf

> <i_m_source_file_index>
17

> <r_mmod_Potential_Energy-OPLS-2005>
410.195831298828

> <r_mmod_Stretch_Energy-OPLS-2005>
74.1607208251953

> <r_mmod_Bend_Energy-OPLS-2005>
249.349304199219

> <r_mmod_Torsional_Energy-OPLS-2005>
379.266632080078

> <r_mmod_Improper_Torsional_Energy-OPLS-2005>
8.44814491271973

> <r_mmod_Van_der_Waal_Energy-OPLS-2005>
121.055145263672

> <r_mmod_Electrostatic_Energy-OPLS-2005>
-264.589965820312

> <r_mmod_Solvation_Energy-OPLS-2005>
-192.753967285156

> <b_mmod_Minimization_Converged-OPLS-2005>
0

> <r_mmod_RMS_Derivative-OPLS-2005>
5.52579975128174

$$$$
17
                    3D
 Structure written by MMmdl.
164173  0  0  1  0            999 V2000
  -30.6747  -14.5097   20.5409 C   0  0  0  0  0  0
  -30.4279  -12.3291   19.4121 C   0  0  0  0  0  0
  -29.4915  -12.4951   18.1963 C   0  0  0  0  0  0
  -28.0103  -12.3632   18.6095 C   0  0  0  0  0  0
  -27.6555  -13.2092   19.8621 C   0  0  2  0  0  0
  -28.7040  -13.0093   20.9791 C   0  0  0  0  0  0
  -25.2582  -13.8188   20.5682 C   0  0  0  0  0  0
  -24.1837  -13.0449   20.9190 C   0  0  0  0  0  0
  -24.6380  -11.6915   20.8724 C   0  0  0  0  0  0
  -23.9039  -10.4313   21.0386 C   0  0  0  0  0  0
  -24.3596   -9.4233   21.9160 C   0  0  0  0  0  0
  -23.6302   -8.2243   22.0725 C   0  0  0  0  0  0
  -22.4304   -8.0263   21.3501 C   0  0  0  0  0  0
  -21.9914   -9.0238   20.4617 C   0  0  0  0  0  0
  -22.7205  -10.2138   20.3032 C   0  0  0  0  0  0
  -21.6852   -6.0730   22.5284 C   0  0  0  0  0  0
  -21.4008   -6.5637   23.8218 C   0  0  0  0  0  0
  -21.3659   -5.6780   24.9165 C   0  0  0  0  0  0
  -21.6054   -4.3056   24.7211 C   0  0  0  0  0  0
  -21.8806   -3.8139   23.4336 C   0  0  0  0  0  0
  -21.9193   -4.6951   22.3393 C   0  0  0  0  0  0
  -22.7844  -13.5228   21.1821 C   0  0  0  0  0  0
  -22.1652   -4.2140   21.0963 F   0  0  0  0  0  0
  -21.5641   -3.4539   25.7727 F   0  0  0  0  0  0
  -30.0220  -13.3238   20.4153 N   0  0  0  0  0  0
  -26.3016  -12.9349   20.3330 N   0  0  0  0  0  0
  -25.9325  -11.6526   20.5777 N   0  0  0  0  0  0
  -22.0451  -12.8273   22.0391 N   0  0  0  0  0  0
  -25.4326  -15.1894   20.4123 N   0  0  0  0  0  0
  -31.8371  -14.6733   20.1557 O   0  0  0  0  0  0
  -21.6628   -6.8881   21.4255 O   0  0  0  0  0  0
  -22.3560  -14.5539   20.6644 O   0  0  0  0  0  0
  -24.6156  -31.8667   23.2080 C   0  0  0  0  0  0
  -25.9029  -32.4833   23.8392 C   0  0  1  0  0  0
  -27.2228  -27.4105   20.1300 C   0  0  0  0  0  0
  -25.5855  -33.8625   24.2324 N   0  0  0  0  0  0
  -23.4037  -30.4908   21.5477 C   0  0  2  0  0  0
  -24.8499  -28.9499   20.1236 C   0  0  0  0  0  0
  -22.7413  -29.4666   22.4974 C   0  0  0  0  0  0
  -18.0269  -28.1421   22.8539 C   0  0  0  0  0  0
  -24.1460  -36.7288   23.2640 C   0  0  0  0  0  0
  -25.9333  -30.8279   21.3597 C   0  0  0  0  0  0
  -26.0114  -29.4570   20.7232 C   0  0  0  0  0  0
  -27.2037  -28.6953   20.7258 C   0  0  0  0  0  0
  -26.0517  -26.9278   19.5125 C   0  0  0  0  0  0
  -24.8655  -27.6832   19.5158 C   0  0  0  0  0  0
  -23.6139  -29.8188   20.1659 C   0  0  0  0  0  0
  -25.4095  -36.3092   24.0328 C   0  0  1  0  0  0
  -20.5872  -28.3659   23.1331 C   0  0  2  0  0  0
  -20.6753  -26.9395   22.5416 C   0  0  0  0  0  0
  -19.5711  -26.6405   21.5230 C   0  0  0  0  0  0
  -18.1897  -26.7981   22.1652 C   0  0  0  0  0  0
  -19.1529  -28.8862   23.2940 C   0  0  0  0  0  0
  -18.9464  -30.1499   23.8917 C   0  0  0  0  0  0
  -17.6463  -30.6624   24.0601 C   0  0  0  0  0  0
  -25.9030  -34.9481   23.5134 C   0  0  0  0  0  0
  -16.5352  -29.9130   23.6367 C   0  0  0  0  0  0
  -16.7262  -28.6555   23.0371 C   0  0  0  0  0  0
  -26.4463  -31.6627   25.0730 C   0  0  0  0  0  0
  -25.3749  -31.3724   26.1484 C   0  0  0  0  0  0
  -27.0277  -30.3074   24.6069 C   0  0  0  0  0  0
  -27.6036  -32.4340   25.7498 C   0  0  0  0  0  0
  -27.5566  -37.1788   24.8466 C   0  0  0  0  0  0
  -21.4136  -29.3021   22.3730 N   0  0  0  0  0  0
  -26.4261  -37.3802   23.9439 N   0  0  0  0  0  0
  -24.6695  -31.0795   22.0962 N   0  0  0  0  0  0
  -23.4202  -28.8215   23.3002 O   0  0  0  0  0  0
  -28.3794  -26.6630   20.0675 O   0  0  0  0  0  0
  -26.5592  -34.8937   22.4693 O   0  0  0  0  0  0
  -23.5316  -32.1368   23.7472 O   0  0  0  0  0  0
  -27.7919  -19.4388   20.1136 C   0  0  0  0  0  0
  -28.8488  -18.8422   21.9995 C   0  0  0  0  0  0
  -28.6756  -18.4322   19.8274 C   0  0  0  0  0  0
  -29.3342  -18.0104   21.0210 C   0  0  0  0  0  0
  -30.3136  -18.0033   17.8537 C   0  0  0  0  0  0
  -29.1647  -18.7733   17.2495 C   0  0  0  0  0  0
  -28.9333  -17.8783   18.4502 C   0  0  0  0  0  0
  -30.3919  -16.9212   21.1944 C   0  0  0  0  0  0
  -27.1777  -20.7307   22.2366 C   0  0  0  0  0  0
  -26.8035  -22.0670   21.5267 C   0  0  0  0  0  0
  -27.4963  -24.3529   20.7533 C   0  0  0  0  0  0
  -28.5094  -25.5226   20.9481 C   0  0  0  0  0  0
  -27.9301  -19.7384   21.4582 N   0  0  0  0  0  0
  -29.9239  -15.5465   20.9671 N   0  0  0  0  0  0
  -27.9095  -23.0552   21.3802 N   0  3  0  0  0  0
  -31.4644  -12.4566   19.0984 H   0  0  0  0  0  0
  -30.3613  -11.3241   19.8285 H   0  0  0  0  0  0
  -29.7364  -11.7621   17.4255 H   0  0  0  0  0  0
  -29.6557  -13.4775   17.7515 H   0  0  0  0  0  0
  -27.8104  -11.3095   18.8060 H   0  0  0  0  0  0
  -27.3639  -12.6365   17.7735 H   0  0  0  0  0  0
  -27.6887  -14.2529   19.5509 H   0  0  0  0  0  0
  -28.6989  -11.9776   21.3338 H   0  0  0  0  0  0
  -28.4712  -13.6253   21.8488 H   0  0  0  0  0  0
  -25.2719   -9.5746   22.4740 H   0  0  0  0  0  0
  -24.0008   -7.4656   22.7480 H   0  0  0  0  0  0
  -21.0816   -8.8755   19.8952 H   0  0  0  0  0  0
  -22.3636  -10.9664   19.6153 H   0  0  0  0  0  0
  -21.1995   -7.6144   23.9727 H   0  0  0  0  0  0
  -21.1498   -6.0492   25.9074 H   0  0  0  0  0  0
  -22.0594   -2.7605   23.2821 H   0  0  0  0  0  0
  -22.4022  -11.9932   22.4837 H   0  0  0  0  0  0
  -21.1055  -13.1331   22.2497 H   0  0  0  0  0  0
  -24.6859  -15.8576   20.5668 H   0  0  0  0  0  0
  -26.2934  -15.6322   20.1123 H   0  0  0  0  0  0
  -26.7121  -32.5542   23.1173 H   0  0  0  0  0  0
  -25.0043  -33.9820   25.0482 H   0  0  0  0  0  0
  -22.6912  -31.3068   21.4080 H   0  0  0  0  0  0
  -23.3734  -35.9602   23.3295 H   0  0  0  0  0  0
  -24.3561  -36.8894   22.2058 H   0  0  0  0  0  0
  -23.7192  -37.6484   23.6656 H   0  0  0  0  0  0
  -26.0353  -31.5845   20.5786 H   0  0  0  0  0  0
  -26.8265  -30.8996   21.9685 H   0  0  0  0  0  0
  -28.0988  -29.0888   21.1897 H   0  0  0  0  0  0
  -26.0507  -25.9702   19.0141 H   0  0  0  0  0  0
  -23.9769  -27.2902   19.0413 H   0  0  0  0  0  0
  -23.7272  -30.5891   19.4016 H   0  0  0  0  0  0
  -22.7387  -29.2381   19.8720 H   0  0  0  0  0  0
  -25.1276  -36.1927   25.0813 H   0  0  0  0  0  0
  -21.0020  -28.3214   24.1435 H   0  0  0  0  0  0
  -20.5651  -26.2274   23.3610 H   0  0  0  0  0  0
  -21.6626  -26.7427   22.1207 H   0  0  0  0  0  0
  -19.6815  -25.6315   21.1249 H   0  0  0  0  0  0
  -19.6644  -27.3258   20.6804 H   0  0  0  0  0  0
  -17.4175  -26.6782   21.4046 H   0  0  0  0  0  0
  -18.0259  -26.0129   22.9053 H   0  0  0  0  0  0
  -19.7921  -30.7354   24.2243 H   0  0  0  0  0  0
  -17.4999  -31.6297   24.5215 H   0  0  0  0  0  0
  -15.5352  -30.3028   23.7680 H   0  0  0  0  0  0
  -15.8677  -28.0893   22.7024 H   0  0  0  0  0  0
  -24.5926  -30.7051   25.7848 H   0  0  0  0  0  0
  -24.8951  -32.2896   26.4923 H   0  0  0  0  0  0
  -25.8141  -30.8922   27.0243 H   0  0  0  0  0  0
  -26.2790  -29.6828   24.1171 H   0  0  0  0  0  0
  -27.4130  -29.7295   25.4479 H   0  0  0  0  0  0
  -27.8595  -30.4422   23.9145 H   0  0  0  0  0  0
  -27.2669  -33.3656   26.2053 H   0  0  0  0  0  0
  -28.3878  -32.6859   25.0357 H   0  0  0  0  0  0
  -28.0667  -31.8480   26.5433 H   0  0  0  0  0  0
  -28.2575  -38.0101   24.7583 H   0  0  0  0  0  0
  -28.1072  -36.2647   24.6205 H   0  0  0  0  0  0
  -27.2310  -37.1338   25.8873 H   0  0  0  0  0  0
  -20.9272  -29.8773   21.7001 H   0  0  0  0  0  0
  -26.0106  -38.2838   24.1538 H   0  0  0  0  0  0
  -27.0976  -19.9696   19.4748 H   0  0  0  0  0  0
  -29.0905  -18.8805   23.0544 H   0  0  0  0  0  0
  -31.0559  -18.5790   18.4051 H   0  0  0  0  0  0
  -30.6943  -17.1382   17.3170 H   0  0  0  0  0  0
  -28.8196  -18.4393   16.2715 H   0  0  0  0  0  0
  -29.1448  -19.8513   17.3998 H   0  0  0  0  0  0
  -28.3901  -16.9499   18.2842 H   0  0  0  0  0  0
  -30.7755  -16.9786   22.2139 H   0  0  0  0  0  0
  -31.2284  -17.1641   20.5398 H   0  0  0  0  0  0
  -26.2505  -20.2441   22.5410 H   0  0  0  0  0  0
  -27.7162  -20.9322   23.1631 H   0  0  0  0  0  0
  -26.0381  -22.5388   22.1446 H   0  0  0  0  0  0
  -26.3246  -21.8708   20.5676 H   0  0  0  0  0  0
  -27.3433  -24.1668   19.6907 H   0  0  0  0  0  0
  -26.5356  -24.6575   21.1692 H   0  0  0  0  0  0
  -29.5158  -25.1364   20.7805 H   0  0  0  0  0  0
  -28.4936  -25.8636   21.9827 H   0  0  0  0  0  0
  -28.9505  -15.3658   21.1571 H   0  0  0  0  0  0
  -28.6451  -22.6353   20.8321 H   0  0  0  0  0  0
  -28.2899  -23.2351   22.2976 H   0  0  0  0  0  0
  1 25  1  0  0  0
  1 30  2  0  0  0
  1 84  1  0  0  0
  2  3  1  0  0  0
  2 25  1  0  0  0
  2 86  1  0  0  0
  2 87  1  0  0  0
  3  4  1  0  0  0
  3 88  1  0  0  0
  3 89  1  0  0  0
  4  5  1  0  0  0
  4 90  1  0  0  0
  4 91  1  0  0  0
  5  6  1  0  0  0
  5 26  1  0  0  0
  5 92  1  0  0  0
  6 25  1  0  0  0
  6 93  1  0  0  0
  6 94  1  0  0  0
  7  8  2  0  0  0
  7 26  1  0  0  0
  7 29  1  0  0  0
  8  9  1  0  0  0
  8 22  1  0  0  0
  9 10  1  0  0  0
  9 27  2  0  0  0
 10 11  2  0  0  0
 10 15  1  0  0  0
 11 12  1  0  0  0
 11 95  1  0  0  0
 12 13  2  0  0  0
 12 96  1  0  0  0
 13 14  1  0  0  0
 13 31  1  0  0  0
 14 15  2  0  0  0
 14 97  1  0  0  0
 15 98  1  0  0  0
 16 17  2  0  0  0
 16 21  1  0  0  0
 16 31  1  0  0  0
 17 18  1  0  0  0
 17 99  1  0  0  0
 18 19  2  0  0  0
 18100  1  0  0  0
 19 20  1  0  0  0
 19 24  1  0  0  0
 20 21  2  0  0  0
 20101  1  0  0  0
 21 23  1  0  0  0
 22 28  1  0  0  0
 22 32  2  0  0  0
 26 27  1  0  0  0
 28102  1  0  0  0
 28103  1  0  0  0
 29104  1  0  0  0
 29105  1  0  0  0
 33 34  1  0  0  0
 33 66  1  0  0  0
 33 70  2  0  0  0
 34 36  1  0  0  0
 34 59  1  0  0  0
 34106  1  0  0  0
 35 44  2  0  0  0
 35 45  1  0  0  0
 35 68  1  0  0  0
 36 56  1  0  0  0
 36107  1  0  0  0
 37 39  1  0  0  0
 37 47  1  0  0  0
 37 66  1  0  0  0
 37108  1  0  0  0
 38 43  2  0  0  0
 38 46  1  0  0  0
 38 47  1  0  0  0
 39 64  1  0  0  0
 39 67  2  0  0  0
 40 52  1  0  0  0
 40 53  2  0  0  0
 40 58  1  0  0  0
 41109  1  0  0  0
 41110  1  0  0  0
 41111  1  0  0  0
 41 48  1  0  0  0
 42 43  1  0  0  0
 42 66  1  0  0  0
 42112  1  0  0  0
 42113  1  0  0  0
 43 44  1  0  0  0
 44114  1  0  0  0
 45 46  2  0  0  0
 45115  1  0  0  0
 46116  1  0  0  0
 47117  1  0  0  0
 47118  1  0  0  0
 48 56  1  0  0  0
 48 65  1  0  0  0
 48119  1  0  0  0
 49 50  1  0  0  0
 49 53  1  0  0  0
 49 64  1  0  0  0
 49120  1  0  0  0
 50 51  1  0  0  0
 50121  1  0  0  0
 50122  1  0  0  0
 51 52  1  0  0  0
 51123  1  0  0  0
 51124  1  0  0  0
 52125  1  0  0  0
 52126  1  0  0  0
 53 54  1  0  0  0
 54 55  2  0  0  0
 54127  1  0  0  0
 55 57  1  0  0  0
 55128  1  0  0  0
 56 69  2  0  0  0
 57 58  2  0  0  0
 57129  1  0  0  0
 58130  1  0  0  0
 59 60  1  0  0  0
 59 61  1  0  0  0
 59 62  1  0  0  0
 60131  1  0  0  0
 60132  1  0  0  0
 60133  1  0  0  0
 61134  1  0  0  0
 61135  1  0  0  0
 61136  1  0  0  0
 62137  1  0  0  0
 62138  1  0  0  0
 62139  1  0  0  0
 63 65  1  0  0  0
 63140  1  0  0  0
 63141  1  0  0  0
 63142  1  0  0  0
 64143  1  0  0  0
 65144  1  0  0  0
 68 82  1  0  0  0
 71 73  2  0  0  0
 71 83  1  0  0  0
 71145  1  0  0  0
 72 74  2  0  0  0
 72 83  1  0  0  0
 72146  1  0  0  0
 73 74  1  0  0  0
 73 77  1  0  0  0
 74 78  1  0  0  0
 75 76  1  0  0  0
 75 77  1  0  0  0
 75147  1  0  0  0
 75148  1  0  0  0
 76 77  1  0  0  0
 76149  1  0  0  0
 76150  1  0  0  0
 77151  1  0  0  0
 78 84  1  0  0  0
 78152  1  0  0  0
 78153  1  0  0  0
 79 80  1  0  0  0
 79 83  1  0  0  0
 79154  1  0  0  0
 79155  1  0  0  0
 80 85  1  0  0  0
 80156  1  0  0  0
 80157  1  0  0  0
 81 82  1  0  0  0
 81 85  1  0  0  0
 81158  1  0  0  0
 81159  1  0  0  0
 82160  1  0  0  0
 82161  1  0  0  0
 84162  1  0  0  0
 85163  1  0  0  0
 85164  1  0  0  0
M  CHG  1  85   1
M  ISO  4   1 100  68 101  82 101  84 100
M  END
> <chiral flag>
0

> <version>
0

> <s_m_source_file>
/data/baiqing/PycharmProjects/Reinvent-master-3.2/result/LINK_invent/BTK/process_docking_weight1_custom_sum_contain_oxygen_bond_distance_aromatic_linkinvent_7_9_3/rearranged_h_0122.sdf

> <i_m_source_file_index>
18

> <r_mmod_Potential_Energy-OPLS-2005>
-255.44873046875

> <r_mmod_Stretch_Energy-OPLS-2005>
38.1280288696289

> <r_mmod_Bend_Energy-OPLS-2005>
108.174247741699

> <r_mmod_Torsional_Energy-OPLS-2005>
261.672698974609

> <r_mmod_Improper_Torsional_Energy-OPLS-2005>
3.86141347885132

> <r_mmod_Van_der_Waal_Energy-OPLS-2005>
110.546180725098

> <r_mmod_Electrostatic_Energy-OPLS-2005>
-328.830627441406

> <r_mmod_Solvation_Energy-OPLS-2005>
-466.615509033203

> <b_mmod_Minimization_Converged-OPLS-2005>
0

> <r_mmod_RMS_Derivative-OPLS-2005>
5.38197612762451

$$$$
18
                    3D
 Structure written by MMmdl.
180188  0  0  1  0            999 V2000
  -30.7473  -14.5237   20.4854 C   0  0  0  0  0  0
  -30.4084  -12.3367   19.4134 C   0  0  0  0  0  0
  -29.4715  -12.4465   18.1975 C   0  0  0  0  0  0
  -28.0079  -12.2478   18.6330 C   0  0  0  0  0  0
  -27.6331  -13.1476   19.8335 C   0  0  2  0  0  0
  -28.6976  -13.0647   20.9590 C   0  0  0  0  0  0
  -25.2601  -13.8005   20.5715 C   0  0  0  0  0  0
  -24.1808  -13.0391   20.9242 C   0  0  0  0  0  0
  -24.6282  -11.6840   20.8824 C   0  0  0  0  0  0
  -23.8954  -10.4273   21.0487 C   0  0  0  0  0  0
  -24.3540   -9.4191   21.9225 C   0  0  0  0  0  0
  -23.6252   -8.2209   22.0761 C   0  0  0  0  0  0
  -22.4231   -8.0256   21.3564 C   0  0  0  0  0  0
  -21.9867   -9.0226   20.4674 C   0  0  0  0  0  0
  -22.7162  -10.2117   20.3108 C   0  0  0  0  0  0
  -21.6830   -6.0721   22.5280 C   0  0  0  0  0  0
  -21.4004   -6.5623   23.8214 C   0  0  0  0  0  0
  -21.3668   -5.6772   24.9171 C   0  0  0  0  0  0
  -21.6042   -4.3026   24.7221 C   0  0  0  0  0  0
  -21.8831   -3.8139   23.4339 C   0  0  0  0  0  0
  -21.9198   -4.6965   22.3399 C   0  0  0  0  0  0
  -22.7849  -13.5276   21.1870 C   0  0  0  0  0  0
  -22.1646   -4.2157   21.0971 F   0  0  0  0  0  0
  -21.5654   -3.4502   25.7730 F   0  0  0  0  0  0
  -29.9994  -13.3868   20.3658 N   0  0  0  0  0  0
  -26.2878  -12.9007   20.3260 N   0  0  0  0  0  0
  -25.9168  -11.6260   20.5813 N   0  0  0  0  0  0
  -22.0419  -12.8324   22.0408 N   0  0  0  0  0  0
  -25.4465  -15.1712   20.4143 N   0  0  0  0  0  0
  -31.9509  -14.5057   20.2114 O   0  0  0  0  0  0
  -21.6603   -6.8856   21.4238 O   0  0  0  0  0  0
  -22.3583  -14.5579   20.6681 O   0  0  0  0  0  0
  -24.6078  -31.8686   23.2132 C   0  0  0  0  0  0
  -25.8988  -32.4837   23.8415 C   0  0  1  0  0  0
  -27.2637  -27.4769   20.0912 C   0  0  0  0  0  0
  -25.5843  -33.8628   24.2352 N   0  0  0  0  0  0
  -23.3973  -30.4890   21.5518 C   0  0  2  0  0  0
  -24.8497  -28.9542   20.1239 C   0  0  0  0  0  0
  -22.7385  -29.4649   22.5021 C   0  0  0  0  0  0
  -18.0276  -28.1387   22.8508 C   0  0  0  0  0  0
  -24.1486  -36.7339   23.2643 C   0  0  0  0  0  0
  -25.9175  -30.8511   21.3538 C   0  0  0  0  0  0
  -26.0040  -29.4827   20.7151 C   0  0  0  0  0  0
  -27.2087  -28.7521   20.7062 C   0  0  0  0  0  0
  -26.0881  -26.9541   19.5122 C   0  0  0  0  0  0
  -24.8837  -27.6825   19.5266 C   0  0  0  0  0  0
  -23.6073  -29.8135   20.1689 C   0  0  0  0  0  0
  -25.4095  -36.3117   24.0350 C   0  0  1  0  0  0
  -20.5862  -28.3651   23.1353 C   0  0  2  0  0  0
  -20.6761  -26.9398   22.5432 C   0  0  0  0  0  0
  -19.5741  -26.6402   21.5218 C   0  0  0  0  0  0
  -18.1918  -26.7945   22.1636 C   0  0  0  0  0  0
  -19.1520  -28.8839   23.2937 C   0  0  0  0  0  0
  -18.9445  -30.1451   23.8929 C   0  0  0  0  0  0
  -17.6444  -30.6592   24.0581 C   0  0  0  0  0  0
  -25.9008  -34.9481   23.5151 C   0  0  0  0  0  0
  -16.5339  -29.9103   23.6324 C   0  0  0  0  0  0
  -16.7258  -28.6533   23.0335 C   0  0  0  0  0  0
  -26.4435  -31.6600   25.0714 C   0  0  0  0  0  0
  -25.3737  -31.3693   26.1494 C   0  0  0  0  0  0
  -27.0233  -30.3061   24.6002 C   0  0  0  0  0  0
  -27.6048  -32.4278   25.7451 C   0  0  0  0  0  0
  -27.5574  -37.1814   24.8458 C   0  0  0  0  0  0
  -21.4111  -29.3019   22.3761 N   0  0  0  0  0  0
  -26.4287  -37.3790   23.9417 N   0  0  0  0  0  0
  -24.6604  -31.0822   22.1010 N   0  0  0  0  0  0
  -23.4166  -28.8186   23.3042 O   0  0  0  0  0  0
  -28.3993  -26.6958   20.0121 O   0  0  0  0  0  0
  -26.5582  -34.8915   22.4707 O   0  0  0  0  0  0
  -23.5288  -32.1394   23.7552 O   0  0  0  0  0  0
  -28.7024  -17.7172   20.7030 C   0  0  0  0  0  0
  -28.7561  -16.1867   20.7064 C   0  0  0  0  0  0
  -30.9494  -16.9578   20.2635 C   0  0  0  0  0  0
  -30.1537  -18.1881   20.7020 C   0  0  1  0  0  0
  -31.2847  -21.1857   17.4440 C   0  0  0  0  0  0
  -27.7814  -21.0892   16.6335 C   0  0  0  0  0  0
  -30.7765  -26.2439   20.2721 C   0  0  0  0  0  0
  -31.0071  -25.8309   18.8041 C   0  0  0  0  0  0
  -29.6660  -20.6074   20.1441 C   0  0  0  0  0  0
  -30.8861  -23.3326   18.7654 C   0  0  0  0  0  0
  -29.6274  -27.2443   20.4746 C   0  0  0  0  0  0
  -30.2183  -22.1221   18.0501 C   0  0  2  0  0  0
  -29.1123  -21.3946   18.8996 C   0  0  1  0  0  0
  -28.0198  -20.5973   18.0801 C   0  0  1  0  0  0
  -30.1572  -15.7572   20.5795 N   0  0  0  0  0  0
  -26.7141  -20.5585   18.7828 N   0  3  0  0  0  0
  -30.4324  -19.3665   19.8386 N   0  3  0  0  0  0
  -30.2433  -24.6232   18.4150 N   0  3  0  0  0  0
  -31.4446  -12.4329   19.0830 H   0  0  0  0  0  0
  -30.3371  -11.3481   19.8680 H   0  0  0  0  0  0
  -29.7454  -11.7029   17.4462 H   0  0  0  0  0  0
  -29.5840  -13.4235   17.7235 H   0  0  0  0  0  0
  -27.8788  -11.1986   18.9024 H   0  0  0  0  0  0
  -27.3360  -12.4291   17.7931 H   0  0  0  0  0  0
  -27.6024  -14.1220   19.3806 H   0  0  0  0  0  0
  -28.7327  -12.0534   21.3641 H   0  0  0  0  0  0
  -28.4591  -13.6990   21.8112 H   0  0  0  0  0  0
  -25.2682   -9.5640   22.4793 H   0  0  0  0  0  0
  -23.9997   -7.4577   22.7420 H   0  0  0  0  0  0
  -21.0823   -8.8719   19.8950 H   0  0  0  0  0  0
  -22.3629  -10.9655   19.6219 H   0  0  0  0  0  0
  -21.1944   -7.6122   23.9714 H   0  0  0  0  0  0
  -21.1490   -6.0491   25.9078 H   0  0  0  0  0  0
  -22.0616   -2.7610   23.2818 H   0  0  0  0  0  0
  -22.3942  -11.9956   22.4802 H   0  0  0  0  0  0
  -21.1055  -13.1427   22.2567 H   0  0  0  0  0  0
  -24.7003  -15.8436   20.5542 H   0  0  0  0  0  0
  -26.3175  -15.5965   20.1311 H   0  0  0  0  0  0
  -26.7063  -32.5588   23.1201 H   0  0  0  0  0  0
  -24.9945  -33.9778   25.0464 H   0  0  0  0  0  0
  -22.6853  -31.3042   21.4094 H   0  0  0  0  0  0
  -23.3722  -35.9696   23.3292 H   0  0  0  0  0  0
  -24.3580  -36.8951   22.2057 H   0  0  0  0  0  0
  -23.7255  -37.6554   23.6647 H   0  0  0  0  0  0
  -26.0006  -31.6083   20.5724 H   0  0  0  0  0  0
  -26.8163  -30.9301   21.9534 H   0  0  0  0  0  0
  -28.0849  -29.1841   21.1674 H   0  0  0  0  0  0
  -26.1105  -25.9795   19.0442 H   0  0  0  0  0  0
  -23.9943  -27.2609   19.0777 H   0  0  0  0  0  0
  -23.7123  -30.5842   19.4046 H   0  0  0  0  0  0
  -22.7345  -29.2257   19.8778 H   0  0  0  0  0  0
  -25.1266  -36.1989   25.0844 H   0  0  0  0  0  0
  -20.9965  -28.3206   24.1474 H   0  0  0  0  0  0
  -20.5670  -26.2236   23.3596 H   0  0  0  0  0  0
  -21.6625  -26.7451   22.1210 H   0  0  0  0  0  0
  -19.6888  -25.6319   21.1223 H   0  0  0  0  0  0
  -19.6703  -27.3237   20.6772 H   0  0  0  0  0  0
  -17.4194  -26.6712   21.4043 H   0  0  0  0  0  0
  -18.0335  -26.0078   22.9023 H   0  0  0  0  0  0
  -19.7908  -30.7280   24.2312 H   0  0  0  0  0  0
  -17.4986  -31.6268   24.5181 H   0  0  0  0  0  0
  -15.5338  -30.3013   23.7615 H   0  0  0  0  0  0
  -15.8667  -28.0859   22.7014 H   0  0  0  0  0  0
  -24.5877  -30.7064   25.7855 H   0  0  0  0  0  0
  -24.8952  -32.2848   26.5000 H   0  0  0  0  0  0
  -25.8104  -30.8826   27.0225 H   0  0  0  0  0  0
  -26.2727  -29.6856   24.1082 H   0  0  0  0  0  0
  -27.4084  -29.7258   25.4401 H   0  0  0  0  0  0
  -27.8535  -30.4434   23.9063 H   0  0  0  0  0  0
  -27.2715  -33.3582   26.2068 H   0  0  0  0  0  0
  -28.3832  -32.6814   25.0243 H   0  0  0  0  0  0
  -28.0734  -31.8359   26.5327 H   0  0  0  0  0  0
  -28.2595  -38.0107   24.7478 H   0  0  0  0  0  0
  -28.1070  -36.2630   24.6313 H   0  0  0  0  0  0
  -27.2295  -37.1504   25.8864 H   0  0  0  0  0  0
  -20.9252  -29.8725   21.6980 H   0  0  0  0  0  0
  -26.0182  -38.2873   24.1408 H   0  0  0  0  0  0
  -28.1617  -18.0955   21.5726 H   0  0  0  0  0  0
  -28.1634  -18.0552   19.8187 H   0  0  0  0  0  0
  -28.2204  -15.9204   19.8066 H   0  0  0  0  0  0
  -28.2513  -15.7866   21.5854 H   0  0  0  0  0  0
  -31.9249  -16.9485   20.7544 H   0  0  0  0  0  0
  -31.1306  -16.9594   19.1858 H   0  0  0  0  0  0
  -30.4429  -18.4275   21.7277 H   0  0  0  0  0  0
  -31.8708  -21.7149   16.6939 H   0  0  0  0  0  0
  -30.8408  -20.3291   16.9375 H   0  0  0  0  0  0
  -31.9943  -20.8188   18.1832 H   0  0  0  0  0  0
  -28.6754  -20.9881   16.0172 H   0  0  0  0  0  0
  -27.4626  -22.1323   16.6069 H   0  0  0  0  0  0
  -27.0118  -20.4998   16.1316 H   0  0  0  0  0  0
  -31.6878  -26.7245   20.6269 H   0  0  0  0  0  0
  -30.6416  -25.3734   20.9148 H   0  0  0  0  0  0
  -32.0681  -25.6606   18.6188 H   0  0  0  0  0  0
  -30.7304  -26.6520   18.1407 H   0  0  0  0  0  0
  -28.8360  -20.3750   20.8129 H   0  0  0  0  0  0
  -30.3199  -21.2429   20.7399 H   0  0  0  0  0  0
  -31.9306  -23.3887   18.4531 H   0  0  0  0  0  0
  -30.9067  -23.2131   19.8490 H   0  0  0  0  0  0
  -29.8450  -28.1709   19.9427 H   0  0  0  0  0  0
  -29.5478  -27.4772   21.5386 H   0  0  0  0  0  0
  -29.7371  -22.5652   17.1815 H   0  0  0  0  0  0
  -28.5559  -22.2281   19.3319 H   0  0  0  0  0  0
  -28.3516  -19.5632   17.9772 H   0  0  0  0  0  0
  -26.3164  -21.4771   18.8723 H   0  0  0  0  0  0
  -26.7607  -20.1557   19.7029 H   0  0  0  0  0  0
  -26.0563  -20.0095   18.2531 H   0  0  0  0  0  0
  -30.2994  -19.0950   18.8778 H   0  0  0  0  0  0
  -31.4135  -19.5761   19.9447 H   0  0  0  0  0  0
  -30.1513  -24.6512   17.4115 H   0  0  0  0  0  0
  -29.3159  -24.6864   18.8036 H   0  0  0  0  0  0
  1 25  1  0  0  0
  1 30  2  0  0  0
  1 85  1  0  0  0
  2  3  1  0  0  0
  2 25  1  0  0  0
  2 89  1  0  0  0
  2 90  1  0  0  0
  3  4  1  0  0  0
  3 91  1  0  0  0
  3 92  1  0  0  0
  4  5  1  0  0  0
  4 93  1  0  0  0
  4 94  1  0  0  0
  5  6  1  0  0  0
  5 26  1  0  0  0
  5 95  1  0  0  0
  6 25  1  0  0  0
  6 96  1  0  0  0
  6 97  1  0  0  0
  7  8  2  0  0  0
  7 26  1  0  0  0
  7 29  1  0  0  0
  8  9  1  0  0  0
  8 22  1  0  0  0
  9 10  1  0  0  0
  9 27  2  0  0  0
 10 11  2  0  0  0
 10 15  1  0  0  0
 11 12  1  0  0  0
 11 98  1  0  0  0
 12 13  2  0  0  0
 12 99  1  0  0  0
 13 14  1  0  0  0
 13 31  1  0  0  0
 14 15  2  0  0  0
 14100  1  0  0  0
 15101  1  0  0  0
 16 17  2  0  0  0
 16 21  1  0  0  0
 16 31  1  0  0  0
 17 18  1  0  0  0
 17102  1  0  0  0
 18 19  2  0  0  0
 18103  1  0  0  0
 19 20  1  0  0  0
 19 24  1  0  0  0
 20 21  2  0  0  0
 20104  1  0  0  0
 21 23  1  0  0  0
 22 28  1  0  0  0
 22 32  2  0  0  0
 26 27  1  0  0  0
 28105  1  0  0  0
 28106  1  0  0  0
 29107  1  0  0  0
 29108  1  0  0  0
 33 34  1  0  0  0
 33 66  1  0  0  0
 33 70  2  0  0  0
 34 36  1  0  0  0
 34 59  1  0  0  0
 34109  1  0  0  0
 35 44  2  0  0  0
 35 45  1  0  0  0
 35 68  1  0  0  0
 36 56  1  0  0  0
 36110  1  0  0  0
 37 39  1  0  0  0
 37 47  1  0  0  0
 37 66  1  0  0  0
 37111  1  0  0  0
 38 43  2  0  0  0
 38 46  1  0  0  0
 38 47  1  0  0  0
 39 64  1  0  0  0
 39 67  2  0  0  0
 40 52  1  0  0  0
 40 53  2  0  0  0
 40 58  1  0  0  0
 41112  1  0  0  0
 41113  1  0  0  0
 41114  1  0  0  0
 41 48  1  0  0  0
 42 43  1  0  0  0
 42 66  1  0  0  0
 42115  1  0  0  0
 42116  1  0  0  0
 43 44  1  0  0  0
 44117  1  0  0  0
 45 46  2  0  0  0
 45118  1  0  0  0
 46119  1  0  0  0
 47120  1  0  0  0
 47121  1  0  0  0
 48 56  1  0  0  0
 48 65  1  0  0  0
 48122  1  0  0  0
 49 50  1  0  0  0
 49 53  1  0  0  0
 49 64  1  0  0  0
 49123  1  0  0  0
 50 51  1  0  0  0
 50124  1  0  0  0
 50125  1  0  0  0
 51 52  1  0  0  0
 51126  1  0  0  0
 51127  1  0  0  0
 52128  1  0  0  0
 52129  1  0  0  0
 53 54  1  0  0  0
 54 55  2  0  0  0
 54130  1  0  0  0
 55 57  1  0  0  0
 55131  1  0  0  0
 56 69  2  0  0  0
 57 58  2  0  0  0
 57132  1  0  0  0
 58133  1  0  0  0
 59 60  1  0  0  0
 59 61  1  0  0  0
 59 62  1  0  0  0
 60134  1  0  0  0
 60135  1  0  0  0
 60136  1  0  0  0
 61137  1  0  0  0
 61138  1  0  0  0
 61139  1  0  0  0
 62140  1  0  0  0
 62141  1  0  0  0
 62142  1  0  0  0
 63 65  1  0  0  0
 63143  1  0  0  0
 63144  1  0  0  0
 63145  1  0  0  0
 64146  1  0  0  0
 65147  1  0  0  0
 68 81  1  0  0  0
 71 72  1  0  0  0
 71 74  1  0  0  0
 71148  1  0  0  0
 71149  1  0  0  0
 72 85  1  0  0  0
 72150  1  0  0  0
 72151  1  0  0  0
 73 74  1  0  0  0
 73 85  1  0  0  0
 73152  1  0  0  0
 73153  1  0  0  0
 74 87  1  0  0  0
 74154  1  0  0  0
 75155  1  0  0  0
 75156  1  0  0  0
 75157  1  0  0  0
 75 82  1  0  0  0
 76158  1  0  0  0
 76159  1  0  0  0
 76160  1  0  0  0
 76 84  1  0  0  0
 77 78  1  0  0  0
 77 81  1  0  0  0
 77161  1  0  0  0
 77162  1  0  0  0
 78 88  1  0  0  0
 78163  1  0  0  0
 78164  1  0  0  0
 79 87  1  0  0  0
 79165  1  0  0  0
 79166  1  0  0  0
 79 83  1  0  0  0
 80 82  1  0  0  0
 80 88  1  0  0  0
 80167  1  0  0  0
 80168  1  0  0  0
 81169  1  0  0  0
 81170  1  0  0  0
 82 83  1  0  0  0
 82171  1  0  0  0
 83 84  1  0  0  0
 83172  1  0  0  0
 84 86  1  0  0  0
 84173  1  0  0  0
 86174  1  0  0  0
 86175  1  0  0  0
 86176  1  0  0  0
 87177  1  0  0  0
 87178  1  0  0  0
 88179  1  0  0  0
 88180  1  0  0  0
M  CHG  3  86   1  87   1  88   1
M  ISO  4   1 100  68 101  81 101  85 100
M  END
> <chiral flag>
0

> <version>
0

> <s_m_source_file>
/data/baiqing/PycharmProjects/Reinvent-master-3.2/result/LINK_invent/BTK/process_docking_weight1_custom_sum_contain_oxygen_bond_distance_aromatic_linkinvent_7_9_3/rearranged_h_0122.sdf

> <i_m_source_file_index>
19

> <r_mmod_Potential_Energy-OPLS-2005>
-239.129409790039

> <r_mmod_Stretch_Energy-OPLS-2005>
44.3750038146973

> <r_mmod_Bend_Energy-OPLS-2005>
167.650726318359

> <r_mmod_Torsional_Energy-OPLS-2005>
405.167694091797

> <r_mmod_Improper_Torsional_Energy-OPLS-2005>
8.30429077148438

> <r_mmod_Van_der_Waal_Energy-OPLS-2005>
146.881195068359

> <r_mmod_Electrostatic_Energy-OPLS-2005>
723.168212890625

> <r_mmod_Solvation_Energy-OPLS-2005>
-1765.06481933594

> <b_mmod_Minimization_Converged-OPLS-2005>
0

> <r_mmod_RMS_Derivative-OPLS-2005>
3.71674966812134

$$$$
19
                    3D
 Structure written by MMmdl.
165174  0  0  1  0            999 V2000
  -30.7324  -14.4362   20.6843 C   0  0  0  0  0  0
  -30.4299  -12.3318   19.4102 C   0  0  0  0  0  0
  -29.4912  -12.5296   18.2074 C   0  0  0  0  0  0
  -28.0186  -12.3665   18.6268 C   0  0  0  0  0  0
  -27.6633  -13.1936   19.8848 C   0  0  2  0  0  0
  -28.6987  -12.9390   21.0016 C   0  0  0  0  0  0
  -25.2582  -13.8128   20.5642 C   0  0  0  0  0  0
  -24.1819  -13.0425   20.9228 C   0  0  0  0  0  0
  -24.6391  -11.6888   20.8766 C   0  0  0  0  0  0
  -23.9037  -10.4281   21.0402 C   0  0  0  0  0  0
  -24.3591   -9.4193   21.9184 C   0  0  0  0  0  0
  -23.6273   -8.2233   22.0761 C   0  0  0  0  0  0
  -22.4268   -8.0256   21.3537 C   0  0  0  0  0  0
  -21.9876   -9.0231   20.4654 C   0  0  0  0  0  0
  -22.7207  -10.2118   20.3058 C   0  0  0  0  0  0
  -21.6826   -6.0726   22.5292 C   0  0  0  0  0  0
  -21.4007   -6.5628   23.8231 C   0  0  0  0  0  0
  -21.3667   -5.6778   24.9191 C   0  0  0  0  0  0
  -21.6042   -4.3039   24.7235 C   0  0  0  0  0  0
  -21.8820   -3.8135   23.4354 C   0  0  0  0  0  0
  -21.9193   -4.6956   22.3413 C   0  0  0  0  0  0
  -22.7862  -13.5236   21.1871 C   0  0  0  0  0  0
  -22.1651   -4.2130   21.0990 F   0  0  0  0  0  0
  -21.5633   -3.4532   25.7754 F   0  0  0  0  0  0
  -30.0301  -13.2827   20.4711 N   0  0  0  0  0  0
  -26.3025  -12.9297   20.3410 N   0  0  0  0  0  0
  -25.9303  -11.6472   20.5781 N   0  0  0  0  0  0
  -22.0472  -12.8249   22.0421 N   0  0  0  0  0  0
  -25.4256  -15.1867   20.4018 N   0  0  0  0  0  0
  -31.8024  -14.6666   20.1159 O   0  0  0  0  0  0
  -21.6620   -6.8859   21.4253 O   0  0  0  0  0  0
  -22.3559  -14.5538   20.6693 O   0  0  0  0  0  0
  -24.6147  -31.8709   23.2138 C   0  0  0  0  0  0
  -25.9074  -32.4829   23.8389 C   0  0  1  0  0  0
  -27.2052  -27.4485   20.0836 C   0  0  0  0  0  0
  -25.5926  -33.8616   24.2301 N   0  0  0  0  0  0
  -23.3949  -30.5066   21.5502 C   0  0  2  0  0  0
  -24.8357  -28.9903   20.1006 C   0  0  0  0  0  0
  -22.7373  -29.4734   22.4934 C   0  0  0  0  0  0
  -18.0288  -28.1441   22.8441 C   0  0  0  0  0  0
  -24.1498  -36.7320   23.2626 C   0  0  0  0  0  0
  -25.9286  -30.8432   21.3657 C   0  0  0  0  0  0
  -25.9998  -29.4883   20.6977 C   0  0  0  0  0  0
  -27.1903  -28.7260   20.6864 C   0  0  0  0  0  0
  -26.0277  -26.9844   19.4490 C   0  0  0  0  0  0
  -24.8442  -27.7400   19.4692 C   0  0  0  0  0  0
  -23.5983  -29.8527   20.1594 C   0  0  0  0  0  0
  -25.4114  -36.3081   24.0315 C   0  0  1  0  0  0
  -20.5870  -28.3746   23.1278 C   0  0  2  0  0  0
  -20.6776  -26.9474   22.5418 C   0  0  0  0  0  0
  -19.5813  -26.6449   21.5165 C   0  0  0  0  0  0
  -18.1976  -26.8003   22.1534 C   0  0  0  0  0  0
  -19.1528  -28.8898   23.2881 C   0  0  0  0  0  0
  -18.9439  -30.1491   23.8917 C   0  0  0  0  0  0
  -17.6444  -30.6594   24.0591 C   0  0  0  0  0  0
  -25.9058  -34.9456   23.5103 C   0  0  0  0  0  0
  -16.5321  -29.9115   23.6305 C   0  0  0  0  0  0
  -16.7266  -28.6571   23.0270 C   0  0  0  0  0  0
  -26.4487  -31.6596   25.0706 C   0  0  0  0  0  0
  -25.3782  -31.3696   26.1473 C   0  0  0  0  0  0
  -27.0313  -30.3023   24.6105 C   0  0  0  0  0  0
  -27.6038  -32.4304   25.7508 C   0  0  0  0  0  0
  -27.5579  -37.1813   24.8462 C   0  0  0  0  0  0
  -21.4115  -29.3110   22.3671 N   0  0  0  0  0  0
  -26.4290  -37.3773   23.9408 N   0  0  0  0  0  0
  -24.6640  -31.0874   22.1003 N   0  0  0  0  0  0
  -23.4159  -28.8276   23.2972 O   0  0  0  0  0  0
  -28.3460  -26.6712   20.1648 O   0  0  0  0  0  0
  -26.5600  -34.8921   22.4657 O   0  0  0  0  0  0
  -23.5359  -32.1437   23.7554 O   0  0  0  0  0  0
  -30.1194  -18.2728   21.6379 C   0  0  0  0  0  0
  -30.0582  -19.6694   21.7930 C   0  0  0  0  0  0
  -29.0191  -17.4774   22.0244 C   0  0  0  0  0  0
  -28.9039  -20.2467   22.3420 C   0  0  0  0  0  0
  -27.8824  -18.1563   22.5415 C   0  0  0  0  0  0
  -29.0009  -22.9401   20.2150 C   0  0  0  0  0  0
  -26.9585  -23.4705   21.7389 C   0  0  0  0  0  0
  -29.3913  -24.4316   20.3027 C   0  0  0  0  0  0
  -27.4070  -24.9437   21.6844 C   0  0  0  0  0  0
  -28.0427  -22.4351   21.3301 C   0  0  1  0  0  0
  -28.1106  -25.2639   20.3457 C   0  0  1  0  0  0
  -26.5980  -17.4572   22.9491 C   0  0  0  0  0  0
  -29.0234  -15.9448   21.8324 C   0  0  0  0  0  0
  -28.7793  -21.7600   22.5152 C   0  0  0  0  0  0
  -27.8381  -19.4986   22.7046 N   0  0  0  0  0  0
  -30.3291  -15.2796   21.6593 N   0  0  0  0  0  0
  -31.4647  -12.4581   19.0869 H   0  0  0  0  0  0
  -30.3709  -11.3078   19.7793 H   0  0  0  0  0  0
  -29.7288  -11.8191   17.4189 H   0  0  0  0  0  0
  -29.6544  -13.5200   17.7740 H   0  0  0  0  0  0
  -27.8452  -11.3049   18.8212 H   0  0  0  0  0  0
  -27.3597  -12.6369   17.8027 H   0  0  0  0  0  0
  -27.7140  -14.2378   19.5802 H   0  0  0  0  0  0
  -28.6935  -11.8835   21.2706 H   0  0  0  0  0  0
  -28.4406  -13.4457   21.9275 H   0  0  0  0  0  0
  -25.2736   -9.5671   22.4745 H   0  0  0  0  0  0
  -23.9980   -7.4628   22.7480 H   0  0  0  0  0  0
  -21.0797   -8.8753   19.8954 H   0  0  0  0  0  0
  -22.3662  -10.9659   19.6164 H   0  0  0  0  0  0
  -21.1982   -7.6130   23.9729 H   0  0  0  0  0  0
  -21.1488   -6.0506   25.9097 H   0  0  0  0  0  0
  -22.0590   -2.7589   23.2870 H   0  0  0  0  0  0
  -22.4044  -11.9924   22.4856 H   0  0  0  0  0  0
  -21.1121  -13.1315   22.2614 H   0  0  0  0  0  0
  -24.6278  -15.8111   20.4527 H   0  0  0  0  0  0
  -26.2359  -15.6121   19.9713 H   0  0  0  0  0  0
  -26.7133  -32.5517   23.1133 H   0  0  0  0  0  0
  -25.0075  -33.9780   25.0438 H   0  0  0  0  0  0
  -22.6836  -31.3261   21.4181 H   0  0  0  0  0  0
  -23.3731  -35.9693   23.3294 H   0  0  0  0  0  0
  -24.3589  -36.8944   22.2046 H   0  0  0  0  0  0
  -23.7307  -37.6540   23.6658 H   0  0  0  0  0  0
  -26.0612  -31.6199   20.6111 H   0  0  0  0  0  0
  -26.8109  -30.8732   21.9929 H   0  0  0  0  0  0
  -28.0823  -29.0981   21.1676 H   0  0  0  0  0  0
  -25.9789  -26.0409   18.9257 H   0  0  0  0  0  0
  -23.9537  -27.3565   18.9910 H   0  0  0  0  0  0
  -23.6974  -30.6342   19.4040 H   0  0  0  0  0  0
  -22.7210  -29.2724   19.8659 H   0  0  0  0  0  0
  -25.1301  -36.1912   25.0806 H   0  0  0  0  0  0
  -20.9965  -28.3339   24.1385 H   0  0  0  0  0  0
  -20.5618  -26.2349   23.3599 H   0  0  0  0  0  0
  -21.6674  -26.7475   22.1286 H   0  0  0  0  0  0
  -19.6983  -25.6382   21.1174 H   0  0  0  0  0  0
  -19.6807  -27.3261   20.6709 H   0  0  0  0  0  0
  -17.4265  -26.6734   21.3933 H   0  0  0  0  0  0
  -18.0346  -26.0111   22.8867 H   0  0  0  0  0  0
  -19.7930  -30.7308   24.2259 H   0  0  0  0  0  0
  -17.5011  -31.6258   24.5230 H   0  0  0  0  0  0
  -15.5327  -30.3036   23.7637 H   0  0  0  0  0  0
  -15.8653  -28.0956   22.6885 H   0  0  0  0  0  0
  -24.5957  -30.7020   25.7845 H   0  0  0  0  0  0
  -24.8987  -32.2860   26.4929 H   0  0  0  0  0  0
  -25.8185  -30.8884   27.0225 H   0  0  0  0  0  0
  -26.2856  -29.6779   24.1171 H   0  0  0  0  0  0
  -27.4069  -29.7251   25.4572 H   0  0  0  0  0  0
  -27.8702  -30.4293   23.9254 H   0  0  0  0  0  0
  -27.2621  -33.3574   26.2126 H   0  0  0  0  0  0
  -28.3873  -32.6923   25.0382 H   0  0  0  0  0  0
  -28.0690  -31.8410   26.5424 H   0  0  0  0  0  0
  -28.2586  -38.0108   24.7488 H   0  0  0  0  0  0
  -28.1075  -36.2646   24.6301 H   0  0  0  0  0  0
  -27.2305  -37.1480   25.8862 H   0  0  0  0  0  0
  -20.9233  -29.8830   21.6911 H   0  0  0  0  0  0
  -26.0155  -38.2850   24.1383 H   0  0  0  0  0  0
  -31.0132  -17.8333   21.2174 H   0  0  0  0  0  0
  -30.8877  -20.2886   21.4872 H   0  0  0  0  0  0
  -29.8959  -22.3205   20.1614 H   0  0  0  0  0  0
  -28.5030  -22.7900   19.2575 H   0  0  0  0  0  0
  -26.1127  -23.3618   21.0578 H   0  0  0  0  0  0
  -26.5514  -23.2489   22.7271 H   0  0  0  0  0  0
  -29.9866  -24.7103   19.4313 H   0  0  0  0  0  0
  -30.0099  -24.6348   21.1799 H   0  0  0  0  0  0
  -28.0762  -25.1714   22.5167 H   0  0  0  0  0  0
  -26.5310  -25.5776   21.8367 H   0  0  0  0  0  0
  -27.4579  -21.6296   20.8792 H   0  0  0  0  0  0
  -27.5179  -24.8915   19.5135 H   0  0  0  0  0  0
  -26.3987  -17.6120   24.0108 H   0  0  0  0  0  0
  -26.5976  -16.3855   22.7672 H   0  0  0  0  0  0
  -25.7552  -17.8711   22.3929 H   0  0  0  0  0  0
  -28.5917  -15.4996   22.7282 H   0  0  0  0  0  0
  -28.3619  -15.7353   20.9963 H   0  0  0  0  0  0
  -29.7714  -22.1901   22.6442 H   0  0  0  0  0  0
  -28.2664  -21.9405   23.4600 H   0  0  0  0  0  0
  -31.0938  -15.8328   22.0175 H   0  0  0  0  0  0
  1 25  1  0  0  0
  1 30  2  0  0  0
  1 86  1  0  0  0
  2  3  1  0  0  0
  2 25  1  0  0  0
  2 87  1  0  0  0
  2 88  1  0  0  0
  3  4  1  0  0  0
  3 89  1  0  0  0
  3 90  1  0  0  0
  4  5  1  0  0  0
  4 91  1  0  0  0
  4 92  1  0  0  0
  5  6  1  0  0  0
  5 26  1  0  0  0
  5 93  1  0  0  0
  6 25  1  0  0  0
  6 94  1  0  0  0
  6 95  1  0  0  0
  7  8  2  0  0  0
  7 26  1  0  0  0
  7 29  1  0  0  0
  8  9  1  0  0  0
  8 22  1  0  0  0
  9 10  1  0  0  0
  9 27  2  0  0  0
 10 11  2  0  0  0
 10 15  1  0  0  0
 11 12  1  0  0  0
 11 96  1  0  0  0
 12 13  2  0  0  0
 12 97  1  0  0  0
 13 14  1  0  0  0
 13 31  1  0  0  0
 14 15  2  0  0  0
 14 98  1  0  0  0
 15 99  1  0  0  0
 16 17  2  0  0  0
 16 21  1  0  0  0
 16 31  1  0  0  0
 17 18  1  0  0  0
 17100  1  0  0  0
 18 19  2  0  0  0
 18101  1  0  0  0
 19 20  1  0  0  0
 19 24  1  0  0  0
 20 21  2  0  0  0
 20102  1  0  0  0
 21 23  1  0  0  0
 22 28  1  0  0  0
 22 32  2  0  0  0
 26 27  1  0  0  0
 28103  1  0  0  0
 28104  1  0  0  0
 29105  1  0  0  0
 29106  1  0  0  0
 33 34  1  0  0  0
 33 66  1  0  0  0
 33 70  2  0  0  0
 34 36  1  0  0  0
 34 59  1  0  0  0
 34107  1  0  0  0
 35 44  2  0  0  0
 35 45  1  0  0  0
 35 68  1  0  0  0
 36 56  1  0  0  0
 36108  1  0  0  0
 37 39  1  0  0  0
 37 47  1  0  0  0
 37 66  1  0  0  0
 37109  1  0  0  0
 38 43  2  0  0  0
 38 46  1  0  0  0
 38 47  1  0  0  0
 39 64  1  0  0  0
 39 67  2  0  0  0
 40 52  1  0  0  0
 40 53  2  0  0  0
 40 58  1  0  0  0
 41110  1  0  0  0
 41111  1  0  0  0
 41112  1  0  0  0
 41 48  1  0  0  0
 42 43  1  0  0  0
 42 66  1  0  0  0
 42113  1  0  0  0
 42114  1  0  0  0
 43 44  1  0  0  0
 44115  1  0  0  0
 45 46  2  0  0  0
 45116  1  0  0  0
 46117  1  0  0  0
 47118  1  0  0  0
 47119  1  0  0  0
 48 56  1  0  0  0
 48 65  1  0  0  0
 48120  1  0  0  0
 49 50  1  0  0  0
 49 53  1  0  0  0
 49 64  1  0  0  0
 49121  1  0  0  0
 50 51  1  0  0  0
 50122  1  0  0  0
 50123  1  0  0  0
 51 52  1  0  0  0
 51124  1  0  0  0
 51125  1  0  0  0
 52126  1  0  0  0
 52127  1  0  0  0
 53 54  1  0  0  0
 54 55  2  0  0  0
 54128  1  0  0  0
 55 57  1  0  0  0
 55129  1  0  0  0
 56 69  2  0  0  0
 57 58  2  0  0  0
 57130  1  0  0  0
 58131  1  0  0  0
 59 60  1  0  0  0
 59 61  1  0  0  0
 59 62  1  0  0  0
 60132  1  0  0  0
 60133  1  0  0  0
 60134  1  0  0  0
 61135  1  0  0  0
 61136  1  0  0  0
 61137  1  0  0  0
 62138  1  0  0  0
 62139  1  0  0  0
 62140  1  0  0  0
 63 65  1  0  0  0
 63141  1  0  0  0
 63142  1  0  0  0
 63143  1  0  0  0
 64144  1  0  0  0
 65145  1  0  0  0
 68 81  1  0  0  0
 71 72  2  0  0  0
 71 73  1  0  0  0
 71146  1  0  0  0
 72 74  1  0  0  0
 72147  1  0  0  0
 73 75  2  0  0  0
 73 83  1  0  0  0
 74 84  1  0  0  0
 74 85  2  0  0  0
 75 82  1  0  0  0
 75 85  1  0  0  0
 76 78  1  0  0  0
 76 80  1  0  0  0
 76148  1  0  0  0
 76149  1  0  0  0
 77 79  1  0  0  0
 77 80  1  0  0  0
 77150  1  0  0  0
 77151  1  0  0  0
 78 81  1  0  0  0
 78152  1  0  0  0
 78153  1  0  0  0
 79 81  1  0  0  0
 79154  1  0  0  0
 79155  1  0  0  0
 80 84  1  0  0  0
 80156  1  0  0  0
 81157  1  0  0  0
 82158  1  0  0  0
 82159  1  0  0  0
 82160  1  0  0  0
 83 86  1  0  0  0
 83161  1  0  0  0
 83162  1  0  0  0
 84163  1  0  0  0
 84164  1  0  0  0
 86165  1  0  0  0
M  ISO  4   1 100  68 101  81 101  86 100
M  END
> <chiral flag>
0

> <version>
0

> <s_m_source_file>
/data/baiqing/PycharmProjects/Reinvent-master-3.2/result/LINK_invent/BTK/process_docking_weight1_custom_sum_contain_oxygen_bond_distance_aromatic_linkinvent_7_9_3/rearranged_h_0122.sdf

> <i_m_source_file_index>
20

> <r_mmod_Potential_Energy-OPLS-2005>
-83.4299545288086

> <r_mmod_Stretch_Energy-OPLS-2005>
39.663818359375

> <r_mmod_Bend_Energy-OPLS-2005>
123.802146911621

> <r_mmod_Torsional_Energy-OPLS-2005>
277.685302734375

> <r_mmod_Improper_Torsional_Energy-OPLS-2005>
6.3908953666687

> <r_mmod_Van_der_Waal_Energy-OPLS-2005>
165.802505493164

> <r_mmod_Electrostatic_Energy-OPLS-2005>
-504.105377197266

> <r_mmod_Solvation_Energy-OPLS-2005>
-207.028274536133

> <b_mmod_Minimization_Converged-OPLS-2005>
0

> <r_mmod_RMS_Derivative-OPLS-2005>
6.83253049850464

$$$$
20
                    3D
 Structure written by MMmdl.
165174  0  0  1  0            999 V2000
  -30.6233  -14.6321   20.5048 C   0  0  0  0  0  0
  -30.4383  -12.3858   19.4527 C   0  0  0  0  0  0
  -29.5076  -12.5077   18.2252 C   0  0  0  0  0  0
  -28.0301  -12.3460   18.6354 C   0  0  0  0  0  0
  -27.6538  -13.2142   19.8652 C   0  0  2  0  0  0
  -28.6981  -13.0613   20.9947 C   0  0  0  0  0  0
  -25.2558  -13.8165   20.5683 C   0  0  0  0  0  0
  -24.1824  -13.0433   20.9195 C   0  0  0  0  0  0
  -24.6390  -11.6903   20.8740 C   0  0  0  0  0  0
  -23.9059  -10.4287   21.0402 C   0  0  0  0  0  0
  -24.3613   -9.4205   21.9179 C   0  0  0  0  0  0
  -23.6291   -8.2238   22.0747 C   0  0  0  0  0  0
  -22.4270   -8.0278   21.3541 C   0  0  0  0  0  0
  -21.9907   -9.0250   20.4640 C   0  0  0  0  0  0
  -22.7233  -10.2128   20.3051 C   0  0  0  0  0  0
  -21.6854   -6.0735   22.5278 C   0  0  0  0  0  0
  -21.4013   -6.5639   23.8212 C   0  0  0  0  0  0
  -21.3659   -5.6790   24.9175 C   0  0  0  0  0  0
  -21.6044   -4.3054   24.7224 C   0  0  0  0  0  0
  -21.8820   -3.8146   23.4346 C   0  0  0  0  0  0
  -21.9190   -4.6962   22.3402 C   0  0  0  0  0  0
  -22.7848  -13.5227   21.1864 C   0  0  0  0  0  0
  -22.1660   -4.2148   21.0981 F   0  0  0  0  0  0
  -21.5631   -3.4538   25.7738 F   0  0  0  0  0  0
  -30.0160  -13.4043   20.4346 N   0  0  0  0  0  0
  -26.2986  -12.9342   20.3320 N   0  0  0  0  0  0
  -25.9318  -11.6499   20.5758 N   0  0  0  0  0  0
  -22.0493  -12.8211   22.0418 N   0  0  0  0  0  0
  -25.4273  -15.1888   20.4088 N   0  0  0  0  0  0
  -31.7866  -14.7860   20.1148 O   0  0  0  0  0  0
  -21.6638   -6.8873   21.4239 O   0  0  0  0  0  0
  -22.3532  -14.5537   20.6721 O   0  0  0  0  0  0
  -24.6253  -31.8600   23.2033 C   0  0  0  0  0  0
  -25.9099  -32.4782   23.8365 C   0  0  1  0  0  0
  -27.2265  -27.3266   20.1156 C   0  0  0  0  0  0
  -25.5915  -33.8585   24.2286 N   0  0  0  0  0  0
  -23.4186  -30.4857   21.5445 C   0  0  2  0  0  0
  -24.8656  -28.9426   20.1103 C   0  0  0  0  0  0
  -22.7471  -29.4626   22.4918 C   0  0  0  0  0  0
  -18.0286  -28.1382   22.8483 C   0  0  0  0  0  0
  -24.1491  -36.7299   23.2643 C   0  0  0  0  0  0
  -25.9601  -30.7945   21.3730 C   0  0  0  0  0  0
  -26.0344  -29.4232   20.7139 C   0  0  0  0  0  0
  -27.2175  -28.6278   20.7054 C   0  0  0  0  0  0
  -26.0333  -26.8987   19.4858 C   0  0  0  0  0  0
  -24.8671  -27.6857   19.4877 C   0  0  0  0  0  0
  -23.6331  -29.8217   20.1594 C   0  0  0  0  0  0
  -25.4114  -36.3088   24.0333 C   0  0  1  0  0  0
  -20.5887  -28.3682   23.1275 C   0  0  2  0  0  0
  -20.6767  -26.9401   22.5405 C   0  0  0  0  0  0
  -19.5750  -26.6375   21.5204 C   0  0  0  0  0  0
  -18.1930  -26.7927   22.1614 C   0  0  0  0  0  0
  -19.1540  -28.8846   23.2881 C   0  0  0  0  0  0
  -18.9465  -30.1449   23.8896 C   0  0  0  0  0  0
  -17.6465  -30.6581   24.0565 C   0  0  0  0  0  0
  -25.9045  -34.9455   23.5109 C   0  0  0  0  0  0
  -16.5356  -29.9082   23.6327 C   0  0  0  0  0  0
  -16.7273  -28.6499   23.0347 C   0  0  0  0  0  0
  -26.4486  -31.6599   25.0737 C   0  0  0  0  0  0
  -25.3717  -31.3738   26.1464 C   0  0  0  0  0  0
  -27.0327  -30.3024   24.6193 C   0  0  0  0  0  0
  -27.6053  -32.4330   25.7498 C   0  0  0  0  0  0
  -27.5583  -37.1805   24.8463 C   0  0  0  0  0  0
  -21.4182  -29.3047   22.3673 N   0  0  0  0  0  0
  -26.4293  -37.3779   23.9409 N   0  0  0  0  0  0
  -24.6870  -31.0629   22.0970 N   0  0  0  0  0  0
  -23.4205  -28.8153   23.2979 O   0  0  0  0  0  0
  -28.3490  -26.4849   20.1745 O   0  0  0  0  0  0
  -26.5616  -34.8920   22.4676 O   0  0  0  0  0  0
  -23.5414  -32.1382   23.7370 O   0  0  0  0  0  0
  -28.7802  -19.2712   21.3106 C   0  0  0  0  0  0
  -28.7952  -17.8493   21.3061 C   0  0  0  0  0  0
  -29.8674  -20.0129   20.7877 C   0  0  0  0  0  0
  -30.9034  -19.2029   20.2261 C   0  0  0  0  0  0
  -29.8891  -17.1175   20.7829 C   0  0  0  0  0  0
  -31.3629  -20.8386   24.7265 C   0  0  0  0  0  0
  -30.9519  -19.6423   23.9033 C   0  0  0  0  0  0
  -31.2730  -20.9561   23.2217 C   0  0  0  0  0  0
  -32.1553  -19.8153   19.6247 C   0  0  0  0  0  0
  -30.1977  -21.8195   22.5719 C   0  0  0  0  0  0
  -29.2675  -24.0374   20.5535 C   0  0  0  0  0  0
  -28.1439  -25.0248   20.0198 C   0  0  0  0  0  0
  -30.0130  -21.5737   21.0468 C   0  0  2  0  0  0
  -30.9033  -17.8314   20.2250 N   0  0  0  0  0  0
  -29.8099  -15.6654   20.8889 N   0  0  0  0  0  0
  -28.9917  -22.5333   20.4477 N   0  3  0  0  0  0
  -31.4800  -12.5093   19.1508 H   0  0  0  0  0  0
  -30.3721  -11.3886   19.8904 H   0  0  0  0  0  0
  -29.7714  -11.7593   17.4772 H   0  0  0  0  0  0
  -29.6508  -13.4789   17.7494 H   0  0  0  0  0  0
  -27.8660  -11.2925   18.8644 H   0  0  0  0  0  0
  -27.3759  -12.5777   17.7942 H   0  0  0  0  0  0
  -27.6731  -14.2506   19.5277 H   0  0  0  0  0  0
  -28.7068  -12.0369   21.3697 H   0  0  0  0  0  0
  -28.4423  -13.6853   21.8524 H   0  0  0  0  0  0
  -25.2761   -9.5683   22.4751 H   0  0  0  0  0  0
  -24.0004   -7.4628   22.7463 H   0  0  0  0  0  0
  -21.0840   -8.8762   19.8946 H   0  0  0  0  0  0
  -22.3690  -10.9664   19.6158 H   0  0  0  0  0  0
  -21.2004   -7.6145   23.9716 H   0  0  0  0  0  0
  -21.1482   -6.0520   25.9077 H   0  0  0  0  0  0
  -22.0600   -2.7608   23.2846 H   0  0  0  0  0  0
  -22.4109  -11.9866   22.4792 H   0  0  0  0  0  0
  -21.1110  -13.1224   22.2631 H   0  0  0  0  0  0
  -24.6556  -15.8389   20.5098 H   0  0  0  0  0  0
  -26.2656  -15.6263   20.0495 H   0  0  0  0  0  0
  -26.7171  -32.5453   23.1117 H   0  0  0  0  0  0
  -25.0071  -33.9739   25.0435 H   0  0  0  0  0  0
  -22.7121  -31.3058   21.4022 H   0  0  0  0  0  0
  -23.3754  -35.9629   23.3300 H   0  0  0  0  0  0
  -24.3583  -36.8916   22.2057 H   0  0  0  0  0  0
  -23.7243  -37.6501   23.6663 H   0  0  0  0  0  0
  -26.0915  -31.5590   20.6060 H   0  0  0  0  0  0
  -26.8407  -30.8411   22.0022 H   0  0  0  0  0  0
  -28.1144  -28.9944   21.1852 H   0  0  0  0  0  0
  -25.9699  -25.9408   18.9921 H   0  0  0  0  0  0
  -23.9713  -27.3134   19.0089 H   0  0  0  0  0  0
  -23.7500  -30.5988   19.4036 H   0  0  0  0  0  0
  -22.7539  -29.2499   19.8569 H   0  0  0  0  0  0
  -25.1292  -36.1942   25.0823 H   0  0  0  0  0  0
  -20.9992  -28.3256   24.1390 H   0  0  0  0  0  0
  -20.5639  -26.2296   23.3609 H   0  0  0  0  0  0
  -21.6639  -26.7404   22.1218 H   0  0  0  0  0  0
  -19.6909  -25.6282   21.1239 H   0  0  0  0  0  0
  -19.6701  -27.3181   20.6734 H   0  0  0  0  0  0
  -17.4201  -26.6681   21.4015 H   0  0  0  0  0  0
  -18.0324  -26.0061   22.8999 H   0  0  0  0  0  0
  -19.7941  -30.7263   24.2266 H   0  0  0  0  0  0
  -17.5020  -31.6264   24.5163 H   0  0  0  0  0  0
  -15.5356  -30.2989   23.7650 H   0  0  0  0  0  0
  -15.8673  -28.0824   22.7059 H   0  0  0  0  0  0
  -24.5912  -30.7055   25.7807 H   0  0  0  0  0  0
  -24.8882  -32.2899   26.4870 H   0  0  0  0  0  0
  -25.8039  -30.8948   27.0258 H   0  0  0  0  0  0
  -26.2902  -29.6782   24.1210 H   0  0  0  0  0  0
  -27.4014  -29.7277   25.4701 H   0  0  0  0  0  0
  -27.8773  -30.4318   23.9422 H   0  0  0  0  0  0
  -27.2681  -33.3640   26.2071 H   0  0  0  0  0  0
  -28.3865  -32.6873   25.0321 H   0  0  0  0  0  0
  -28.0722  -31.8457   26.5416 H   0  0  0  0  0  0
  -28.2596  -38.0108   24.7502 H   0  0  0  0  0  0
  -28.1077  -36.2633   24.6283 H   0  0  0  0  0  0
  -27.2298  -37.1444   25.8866 H   0  0  0  0  0  0
  -20.9345  -29.8801   21.6922 H   0  0  0  0  0  0
  -26.0175  -38.2851   24.1411 H   0  0  0  0  0  0
  -27.9547  -19.7850   21.7810 H   0  0  0  0  0  0
  -27.9599  -17.3277   21.7532 H   0  0  0  0  0  0
  -32.3553  -20.8197   25.1740 H   0  0  0  0  0  0
  -30.5924  -21.3223   25.3244 H   0  0  0  0  0  0
  -29.9106  -19.3315   23.9650 H   0  0  0  0  0  0
  -31.6701  -18.8321   23.7869 H   0  0  0  0  0  0
  -32.2332  -21.0069   22.7110 H   0  0  0  0  0  0
  -32.7662  -20.2781   20.3997 H   0  0  0  0  0  0
  -31.8968  -20.5720   18.8842 H   0  0  0  0  0  0
  -32.7684  -19.0651   19.1237 H   0  0  0  0  0  0
  -30.4757  -22.8531   22.7679 H   0  0  0  0  0  0
  -29.2539  -21.6521   23.0934 H   0  0  0  0  0  0
  -29.4291  -24.3030   21.5956 H   0  0  0  0  0  0
  -30.2022  -24.2552   20.0359 H   0  0  0  0  0  0
  -27.2231  -24.7528   20.5384 H   0  0  0  0  0  0
  -27.9768  -24.8181   18.9619 H   0  0  0  0  0  0
  -30.9500  -21.8822   20.5857 H   0  0  0  0  0  0
  -28.9260  -15.3349   21.2382 H   0  0  0  0  0  0
  -28.9067  -22.3081   19.4680 H   0  0  0  0  0  0
  -28.0949  -22.3429   20.8660 H   0  0  0  0  0  0
  1 25  1  0  0  0
  1 30  2  0  0  0
  1 85  1  0  0  0
  2  3  1  0  0  0
  2 25  1  0  0  0
  2 87  1  0  0  0
  2 88  1  0  0  0
  3  4  1  0  0  0
  3 89  1  0  0  0
  3 90  1  0  0  0
  4  5  1  0  0  0
  4 91  1  0  0  0
  4 92  1  0  0  0
  5  6  1  0  0  0
  5 26  1  0  0  0
  5 93  1  0  0  0
  6 25  1  0  0  0
  6 94  1  0  0  0
  6 95  1  0  0  0
  7  8  2  0  0  0
  7 26  1  0  0  0
  7 29  1  0  0  0
  8  9  1  0  0  0
  8 22  1  0  0  0
  9 10  1  0  0  0
  9 27  2  0  0  0
 10 11  2  0  0  0
 10 15  1  0  0  0
 11 12  1  0  0  0
 11 96  1  0  0  0
 12 13  2  0  0  0
 12 97  1  0  0  0
 13 14  1  0  0  0
 13 31  1  0  0  0
 14 15  2  0  0  0
 14 98  1  0  0  0
 15 99  1  0  0  0
 16 17  2  0  0  0
 16 21  1  0  0  0
 16 31  1  0  0  0
 17 18  1  0  0  0
 17100  1  0  0  0
 18 19  2  0  0  0
 18101  1  0  0  0
 19 20  1  0  0  0
 19 24  1  0  0  0
 20 21  2  0  0  0
 20102  1  0  0  0
 21 23  1  0  0  0
 22 28  1  0  0  0
 22 32  2  0  0  0
 26 27  1  0  0  0
 28103  1  0  0  0
 28104  1  0  0  0
 29105  1  0  0  0
 29106  1  0  0  0
 33 34  1  0  0  0
 33 66  1  0  0  0
 33 70  2  0  0  0
 34 36  1  0  0  0
 34 59  1  0  0  0
 34107  1  0  0  0
 35 44  2  0  0  0
 35 45  1  0  0  0
 35 68  1  0  0  0
 36 56  1  0  0  0
 36108  1  0  0  0
 37 39  1  0  0  0
 37 47  1  0  0  0
 37 66  1  0  0  0
 37109  1  0  0  0
 38 43  2  0  0  0
 38 46  1  0  0  0
 38 47  1  0  0  0
 39 64  1  0  0  0
 39 67  2  0  0  0
 40 52  1  0  0  0
 40 53  2  0  0  0
 40 58  1  0  0  0
 41110  1  0  0  0
 41111  1  0  0  0
 41112  1  0  0  0
 41 48  1  0  0  0
 42 43  1  0  0  0
 42 66  1  0  0  0
 42113  1  0  0  0
 42114  1  0  0  0
 43 44  1  0  0  0
 44115  1  0  0  0
 45 46  2  0  0  0
 45116  1  0  0  0
 46117  1  0  0  0
 47118  1  0  0  0
 47119  1  0  0  0
 48 56  1  0  0  0
 48 65  1  0  0  0
 48120  1  0  0  0
 49 50  1  0  0  0
 49 53  1  0  0  0
 49 64  1  0  0  0
 49121  1  0  0  0
 50 51  1  0  0  0
 50122  1  0  0  0
 50123  1  0  0  0
 51 52  1  0  0  0
 51124  1  0  0  0
 51125  1  0  0  0
 52126  1  0  0  0
 52127  1  0  0  0
 53 54  1  0  0  0
 54 55  2  0  0  0
 54128  1  0  0  0
 55 57  1  0  0  0
 55129  1  0  0  0
 56 69  2  0  0  0
 57 58  2  0  0  0
 57130  1  0  0  0
 58131  1  0  0  0
 59 60  1  0  0  0
 59 61  1  0  0  0
 59 62  1  0  0  0
 60132  1  0  0  0
 60133  1  0  0  0
 60134  1  0  0  0
 61135  1  0  0  0
 61136  1  0  0  0
 61137  1  0  0  0
 62138  1  0  0  0
 62139  1  0  0  0
 62140  1  0  0  0
 63 65  1  0  0  0
 63141  1  0  0  0
 63142  1  0  0  0
 63143  1  0  0  0
 64144  1  0  0  0
 65145  1  0  0  0
 68 82  1  0  0  0
 71 72  2  0  0  0
 71 73  1  0  0  0
 71146  1  0  0  0
 72 75  1  0  0  0
 72147  1  0  0  0
 73 74  2  0  0  0
 73 83  1  0  0  0
 74 79  1  0  0  0
 74 84  1  0  0  0
 75 84  2  0  0  0
 75 85  1  0  0  0
 76 77  1  0  0  0
 76 78  1  0  0  0
 76148  1  0  0  0
 76149  1  0  0  0
 77 78  1  0  0  0
 77150  1  0  0  0
 77151  1  0  0  0
 78 80  1  0  0  0
 78152  1  0  0  0
 79153  1  0  0  0
 79154  1  0  0  0
 79155  1  0  0  0
 80156  1  0  0  0
 80157  1  0  0  0
 80 83  1  0  0  0
 81 82  1  0  0  0
 81 86  1  0  0  0
 81158  1  0  0  0
 81159  1  0  0  0
 82160  1  0  0  0
 82161  1  0  0  0
 83 86  1  0  0  0
 83162  1  0  0  0
 85163  1  0  0  0
 86164  1  0  0  0
 86165  1  0  0  0
M  CHG  1  86   1
M  ISO  4   1 100  68 101  82 101  85 100
M  END
> <chiral flag>
0

> <version>
0

> <s_m_source_file>
/data/baiqing/PycharmProjects/Reinvent-master-3.2/result/LINK_invent/BTK/process_docking_weight1_custom_sum_contain_oxygen_bond_distance_aromatic_linkinvent_7_9_3/rearranged_h_0122.sdf

> <i_m_source_file_index>
21

> <r_mmod_Potential_Energy-OPLS-2005>
-173.561370849609

> <r_mmod_Stretch_Energy-OPLS-2005>
81.8384628295898

> <r_mmod_Bend_Energy-OPLS-2005>
142.962142944336

> <r_mmod_Torsional_Energy-OPLS-2005>
242.322052001953

> <r_mmod_Improper_Torsional_Energy-OPLS-2005>
5.02372407913208

> <r_mmod_Van_der_Waal_Energy-OPLS-2005>
143.180145263672

> <r_mmod_Electrostatic_Energy-OPLS-2005>
-352.416442871094

> <r_mmod_Solvation_Energy-OPLS-2005>
-481.861541748047

> <b_mmod_Minimization_Converged-OPLS-2005>
0

> <r_mmod_RMS_Derivative-OPLS-2005>
0.947659075260162

$$$$
21
                    3D
 Structure written by MMmdl.
170179  0  0  1  0            999 V2000
  -30.7965  -14.3505   20.7184 C   0  0  0  0  0  0
  -30.4128  -12.3059   19.3887 C   0  0  0  0  0  0
  -29.4784  -12.5368   18.1893 C   0  0  0  0  0  0
  -28.0065  -12.3811   18.6107 C   0  0  0  0  0  0
  -27.6632  -13.2075   19.8769 C   0  0  2  0  0  0
  -28.7012  -12.9665   20.9944 C   0  0  0  0  0  0
  -25.2584  -13.8170   20.5682 C   0  0  0  0  0  0
  -24.1832  -13.0450   20.9173 C   0  0  0  0  0  0
  -24.6388  -11.6916   20.8723 C   0  0  0  0  0  0
  -23.9054  -10.4302   21.0393 C   0  0  0  0  0  0
  -24.3609   -9.4218   21.9171 C   0  0  0  0  0  0
  -23.6291   -8.2250   22.0742 C   0  0  0  0  0  0
  -22.4273   -8.0283   21.3539 C   0  0  0  0  0  0
  -21.9905   -9.0251   20.4632 C   0  0  0  0  0  0
  -22.7226  -10.2135   20.3040 C   0  0  0  0  0  0
  -21.6850   -6.0738   22.5281 C   0  0  0  0  0  0
  -21.4015   -6.5640   23.8213 C   0  0  0  0  0  0
  -21.3659   -5.6791   24.9169 C   0  0  0  0  0  0
  -21.6046   -4.3057   24.7219 C   0  0  0  0  0  0
  -21.8820   -3.8151   23.4340 C   0  0  0  0  0  0
  -21.9195   -4.6968   22.3400 C   0  0  0  0  0  0
  -22.7856  -13.5239   21.1855 C   0  0  0  0  0  0
  -22.1664   -4.2158   21.0975 F   0  0  0  0  0  0
  -21.5628   -3.4537   25.7726 F   0  0  0  0  0  0
  -30.0463  -13.2482   20.4569 N   0  0  0  0  0  0
  -26.3025  -12.9344   20.3368 N   0  0  0  0  0  0
  -25.9314  -11.6499   20.5744 N   0  0  0  0  0  0
  -22.0497  -12.8216   22.0403 N   0  0  0  0  0  0
  -25.4329  -15.1883   20.4105 N   0  0  0  0  0  0
  -31.7883  -14.6669   20.0557 O   0  0  0  0  0  0
  -21.6641   -6.8879   21.4242 O   0  0  0  0  0  0
  -22.3542  -14.5552   20.6717 O   0  0  0  0  0  0
  -24.6091  -31.8694   23.2118 C   0  0  0  0  0  0
  -25.8996  -32.4828   23.8404 C   0  0  1  0  0  0
  -27.2390  -27.4619   20.0907 C   0  0  0  0  0  0
  -25.5872  -33.8634   24.2320 N   0  0  0  0  0  0
  -23.3989  -30.4890   21.5512 C   0  0  2  0  0  0
  -24.8491  -28.9596   20.1148 C   0  0  0  0  0  0
  -22.7389  -29.4645   22.5012 C   0  0  0  0  0  0
  -18.0254  -28.1371   22.8487 C   0  0  0  0  0  0
  -24.1479  -36.7337   23.2636 C   0  0  0  0  0  0
  -25.9234  -30.8399   21.3640 C   0  0  0  0  0  0
  -26.0027  -29.4733   20.7200 C   0  0  0  0  0  0
  -27.2008  -28.7269   20.7181 C   0  0  0  0  0  0
  -26.0787  -26.9624   19.4685 C   0  0  0  0  0  0
  -24.8792  -27.6999   19.4894 C   0  0  0  0  0  0
  -23.6073  -29.8204   20.1655 C   0  0  0  0  0  0
  -25.4100  -36.3121   24.0327 C   0  0  1  0  0  0
  -20.5843  -28.3656   23.1332 C   0  0  2  0  0  0
  -20.6750  -26.9399   22.5427 C   0  0  0  0  0  0
  -19.5742  -26.6386   21.5217 C   0  0  0  0  0  0
  -18.1910  -26.7918   22.1620 C   0  0  0  0  0  0
  -19.1504  -28.8832   23.2903 C   0  0  0  0  0  0
  -18.9439  -30.1431   23.8915 C   0  0  0  0  0  0
  -17.6449  -30.6578   24.0559 C   0  0  0  0  0  0
  -25.9028  -34.9482   23.5124 C   0  0  0  0  0  0
  -16.5335  -29.9077   23.6333 C   0  0  0  0  0  0
  -16.7248  -28.6498   23.0348 C   0  0  0  0  0  0
  -26.4444  -31.6614   25.0732 C   0  0  0  0  0  0
  -25.3713  -31.3718   26.1493 C   0  0  0  0  0  0
  -27.0289  -30.3068   24.6086 C   0  0  0  0  0  0
  -27.6010  -32.4356   25.7503 C   0  0  0  0  0  0
  -27.5572  -37.1805   24.8453 C   0  0  0  0  0  0
  -21.4125  -29.3021   22.3743 N   0  0  0  0  0  0
  -26.4289  -37.3797   23.9407 N   0  0  0  0  0  0
  -24.6613  -31.0810   22.1008 N   0  0  0  0  0  0
  -23.4155  -28.8190   23.3059 O   0  0  0  0  0  0
  -28.3839  -26.7054   20.0323 O   0  0  0  0  0  0
  -26.5610  -34.8917   22.4688 O   0  0  0  0  0  0
  -23.5291  -32.1449   23.7518 O   0  0  0  0  0  0
  -29.7871  -19.2983   21.8963 C   0  0  0  0  0  0
  -32.1368  -18.7595   21.5784 C   0  0  0  0  0  0
  -29.9568  -20.4994   21.1743 C   0  0  0  0  0  0
  -31.2252  -20.8271   20.6339 C   0  0  0  0  0  0
  -30.8744  -18.4263   22.1156 C   0  0  0  0  0  0
  -32.3152  -19.9438   20.8316 C   0  0  0  0  0  0
  -31.4281  -22.1737   19.9363 C   0  0  0  0  0  0
  -28.7694  -21.4473   21.0133 C   0  0  0  0  0  0
  -30.1200  -22.9324   19.6464 C   0  0  0  0  0  0
  -33.6959  -20.2693   20.2856 C   0  0  0  0  0  0
  -30.6963  -17.2188   23.0347 C   0  0  0  0  0  0
  -31.3601  -15.8946   22.5912 C   0  0  0  0  0  0
  -28.0667  -23.8176   20.7449 C   0  0  0  0  0  0
  -28.8933  -26.2517   21.2866 C   0  0  0  0  0  0
  -28.2005  -24.9582   21.7929 C   0  0  1  0  0  0
  -30.4723  -15.0016   21.8434 N   0  0  0  0  0  0
  -29.1993  -22.8530   20.8038 N   0  3  1  0  0  0
  -26.9386  -25.2947   22.3557 O   0  0  0  0  0  0
  -31.4542  -12.4109   19.0786 H   0  0  0  0  0  0
  -30.3171  -11.2827   19.7546 H   0  0  0  0  0  0
  -29.7135  -11.8362   17.3869 H   0  0  0  0  0  0
  -29.6413  -13.5362   17.7824 H   0  0  0  0  0  0
  -27.8213  -11.3221   18.7961 H   0  0  0  0  0  0
  -27.3479  -12.6651   17.7886 H   0  0  0  0  0  0
  -27.7165  -14.2601   19.5972 H   0  0  0  0  0  0
  -28.6608  -11.9295   21.3319 H   0  0  0  0  0  0
  -28.4419  -13.5665   21.8670 H   0  0  0  0  0  0
  -25.2749   -9.5704   22.4746 H   0  0  0  0  0  0
  -24.0006   -7.4642   22.7457 H   0  0  0  0  0  0
  -21.0841   -8.8761   19.8932 H   0  0  0  0  0  0
  -22.3678  -10.9672   19.6148 H   0  0  0  0  0  0
  -21.2008   -7.6143   23.9716 H   0  0  0  0  0  0
  -21.1481   -6.0516   25.9070 H   0  0  0  0  0  0
  -22.0601   -2.7615   23.2831 H   0  0  0  0  0  0
  -22.4109  -11.9873   22.4786 H   0  0  0  0  0  0
  -21.1109  -13.1230   22.2601 H   0  0  0  0  0  0
  -24.6722  -15.8499   20.5176 H   0  0  0  0  0  0
  -26.2974  -15.6244   20.1150 H   0  0  0  0  0  0
  -26.7054  -32.5559   23.1169 H   0  0  0  0  0  0
  -25.0011  -33.9823   25.0454 H   0  0  0  0  0  0
  -22.6846  -31.3020   21.4097 H   0  0  0  0  0  0
  -23.3725  -35.9686   23.3312 H   0  0  0  0  0  0
  -24.3576  -36.8963   22.2048 H   0  0  0  0  0  0
  -23.7250  -37.6541   23.6669 H   0  0  0  0  0  0
  -26.0261  -31.5976   20.5845 H   0  0  0  0  0  0
  -26.8144  -30.9042   21.9759 H   0  0  0  0  0  0
  -28.0917  -29.1244   21.1835 H   0  0  0  0  0  0
  -26.1006  -26.0013   18.9750 H   0  0  0  0  0  0
  -23.9948  -27.3009   19.0138 H   0  0  0  0  0  0
  -23.7033  -30.5923   19.4009 H   0  0  0  0  0  0
  -22.7354  -29.2291   19.8795 H   0  0  0  0  0  0
  -25.1255  -36.2000   25.0817 H   0  0  0  0  0  0
  -20.9912  -28.3219   24.1465 H   0  0  0  0  0  0
  -20.5673  -26.2253   23.3606 H   0  0  0  0  0  0
  -21.6615  -26.7468   22.1201 H   0  0  0  0  0  0
  -19.6917  -25.6303   21.1234 H   0  0  0  0  0  0
  -19.6686  -27.3198   20.6748 H   0  0  0  0  0  0
  -17.4181  -26.6667   21.4010 H   0  0  0  0  0  0
  -18.0307  -26.0054   22.9012 H   0  0  0  0  0  0
  -19.7917  -30.7226   24.2305 H   0  0  0  0  0  0
  -17.5009  -31.6267   24.5142 H   0  0  0  0  0  0
  -15.5337  -30.2976   23.7674 H   0  0  0  0  0  0
  -15.8650  -28.0826   22.7066 H   0  0  0  0  0  0
  -24.5865  -30.7100   25.7825 H   0  0  0  0  0  0
  -24.8931  -32.2869   26.4981 H   0  0  0  0  0  0
  -25.8051  -30.8849   27.0233 H   0  0  0  0  0  0
  -26.2839  -29.6837   24.1123 H   0  0  0  0  0  0
  -27.4050  -29.7291   25.4539 H   0  0  0  0  0  0
  -27.8657  -30.4405   23.9231 H   0  0  0  0  0  0
  -27.2609  -33.3639   26.2099 H   0  0  0  0  0  0
  -28.3793  -32.6958   25.0323 H   0  0  0  0  0  0
  -28.0696  -31.8484   26.5408 H   0  0  0  0  0  0
  -28.2560  -38.0120   24.7510 H   0  0  0  0  0  0
  -28.1085  -36.2648   24.6255 H   0  0  0  0  0  0
  -27.2300  -37.1431   25.8856 H   0  0  0  0  0  0
  -20.9287  -29.8766   21.6982 H   0  0  0  0  0  0
  -26.0178  -38.2876   24.1405 H   0  0  0  0  0  0
  -28.8204  -19.0641   22.3219 H   0  0  0  0  0  0
  -32.9897  -18.1242   21.7687 H   0  0  0  0  0  0
  -31.9689  -22.0321   19.0003 H   0  0  0  0  0  0
  -32.0675  -22.7877   20.5726 H   0  0  0  0  0  0
  -28.1415  -21.3835   21.9029 H   0  0  0  0  0  0
  -28.1621  -21.1123   20.1703 H   0  0  0  0  0  0
  -29.6277  -22.5094   18.7681 H   0  0  0  0  0  0
  -30.3491  -23.9709   19.4018 H   0  0  0  0  0  0
  -34.4262  -19.5062   20.5568 H   0  0  0  0  0  0
  -34.0531  -21.2222   20.6777 H   0  0  0  0  0  0
  -33.6729  -20.3274   19.1964 H   0  0  0  0  0  0
  -29.6380  -17.0565   23.2452 H   0  0  0  0  0  0
  -31.1352  -17.5114   23.9901 H   0  0  0  0  0  0
  -31.6089  -15.3383   23.4957 H   0  0  0  0  0  0
  -32.3177  -16.0557   22.0970 H   0  0  0  0  0  0
  -27.9340  -24.2130   19.7367 H   0  0  0  0  0  0
  -27.1423  -23.2721   20.9423 H   0  0  0  0  0  0
  -29.9521  -26.0409   21.1312 H   0  0  0  0  0  0
  -28.8639  -27.0324   22.0493 H   0  0  0  0  0  0
  -28.7833  -24.5870   22.6382 H   0  0  0  0  0  0
  -29.6441  -14.6739   22.3207 H   0  0  0  0  0  0
  -29.7379  -23.0939   21.6206 H   0  0  0  0  0  0
  -26.6262  -24.5584   22.8717 H   0  0  0  0  0  0
  1 25  1  0  0  0
  1 30  2  0  0  0
  1 86  1  0  0  0
  2  3  1  0  0  0
  2 25  1  0  0  0
  2 89  1  0  0  0
  2 90  1  0  0  0
  3  4  1  0  0  0
  3 91  1  0  0  0
  3 92  1  0  0  0
  4  5  1  0  0  0
  4 93  1  0  0  0
  4 94  1  0  0  0
  5  6  1  0  0  0
  5 26  1  0  0  0
  5 95  1  0  0  0
  6 25  1  0  0  0
  6 96  1  0  0  0
  6 97  1  0  0  0
  7  8  2  0  0  0
  7 26  1  0  0  0
  7 29  1  0  0  0
  8  9  1  0  0  0
  8 22  1  0  0  0
  9 10  1  0  0  0
  9 27  2  0  0  0
 10 11  2  0  0  0
 10 15  1  0  0  0
 11 12  1  0  0  0
 11 98  1  0  0  0
 12 13  2  0  0  0
 12 99  1  0  0  0
 13 14  1  0  0  0
 13 31  1  0  0  0
 14 15  2  0  0  0
 14100  1  0  0  0
 15101  1  0  0  0
 16 17  2  0  0  0
 16 21  1  0  0  0
 16 31  1  0  0  0
 17 18  1  0  0  0
 17102  1  0  0  0
 18 19  2  0  0  0
 18103  1  0  0  0
 19 20  1  0  0  0
 19 24  1  0  0  0
 20 21  2  0  0  0
 20104  1  0  0  0
 21 23  1  0  0  0
 22 28  1  0  0  0
 22 32  2  0  0  0
 26 27  1  0  0  0
 28105  1  0  0  0
 28106  1  0  0  0
 29107  1  0  0  0
 29108  1  0  0  0
 33 34  1  0  0  0
 33 66  1  0  0  0
 33 70  2  0  0  0
 34 36  1  0  0  0
 34 59  1  0  0  0
 34109  1  0  0  0
 35 44  2  0  0  0
 35 45  1  0  0  0
 35 68  1  0  0  0
 36 56  1  0  0  0
 36110  1  0  0  0
 37 39  1  0  0  0
 37 47  1  0  0  0
 37 66  1  0  0  0
 37111  1  0  0  0
 38 43  2  0  0  0
 38 46  1  0  0  0
 38 47  1  0  0  0
 39 64  1  0  0  0
 39 67  2  0  0  0
 40 52  1  0  0  0
 40 53  2  0  0  0
 40 58  1  0  0  0
 41112  1  0  0  0
 41113  1  0  0  0
 41114  1  0  0  0
 41 48  1  0  0  0
 42 43  1  0  0  0
 42 66  1  0  0  0
 42115  1  0  0  0
 42116  1  0  0  0
 43 44  1  0  0  0
 44117  1  0  0  0
 45 46  2  0  0  0
 45118  1  0  0  0
 46119  1  0  0  0
 47120  1  0  0  0
 47121  1  0  0  0
 48 56  1  0  0  0
 48 65  1  0  0  0
 48122  1  0  0  0
 49 50  1  0  0  0
 49 53  1  0  0  0
 49 64  1  0  0  0
 49123  1  0  0  0
 50 51  1  0  0  0
 50124  1  0  0  0
 50125  1  0  0  0
 51 52  1  0  0  0
 51126  1  0  0  0
 51127  1  0  0  0
 52128  1  0  0  0
 52129  1  0  0  0
 53 54  1  0  0  0
 54 55  2  0  0  0
 54130  1  0  0  0
 55 57  1  0  0  0
 55131  1  0  0  0
 56 69  2  0  0  0
 57 58  2  0  0  0
 57132  1  0  0  0
 58133  1  0  0  0
 59 60  1  0  0  0
 59 61  1  0  0  0
 59 62  1  0  0  0
 60134  1  0  0  0
 60135  1  0  0  0
 60136  1  0  0  0
 61137  1  0  0  0
 61138  1  0  0  0
 61139  1  0  0  0
 62140  1  0  0  0
 62141  1  0  0  0
 62142  1  0  0  0
 63 65  1  0  0  0
 63143  1  0  0  0
 63144  1  0  0  0
 63145  1  0  0  0
 64146  1  0  0  0
 65147  1  0  0  0
 68 84  1  0  0  0
 71 73  2  0  0  0
 71 75  1  0  0  0
 71148  1  0  0  0
 72 75  2  0  0  0
 72 76  1  0  0  0
 72149  1  0  0  0
 73 74  1  0  0  0
 73 78  1  0  0  0
 74 76  2  0  0  0
 74 77  1  0  0  0
 75 81  1  0  0  0
 76 80  1  0  0  0
 77 79  1  0  0  0
 77150  1  0  0  0
 77151  1  0  0  0
 78 87  1  0  0  0
 78152  1  0  0  0
 78153  1  0  0  0
 79 87  1  0  0  0
 79154  1  0  0  0
 79155  1  0  0  0
 80156  1  0  0  0
 80157  1  0  0  0
 80158  1  0  0  0
 81 82  1  0  0  0
 81159  1  0  0  0
 81160  1  0  0  0
 82 86  1  0  0  0
 82161  1  0  0  0
 82162  1  0  0  0
 83 85  1  0  0  0
 83163  1  0  0  0
 83164  1  0  0  0
 83 87  1  0  0  0
 84 85  1  0  0  0
 84165  1  0  0  0
 84166  1  0  0  0
 85 88  1  0  0  0
 85167  1  0  0  0
 86168  1  0  0  0
 87169  1  0  0  0
 88170  1  0  0  0
M  CHG  1  87   1
M  ISO  4   1 100  68 101  84 101  86 100
M  END
> <chiral flag>
0

> <version>
0

> <s_m_source_file>
/data/baiqing/PycharmProjects/Reinvent-master-3.2/result/LINK_invent/BTK/process_docking_weight1_custom_sum_contain_oxygen_bond_distance_aromatic_linkinvent_7_9_3/rearranged_h_0122.sdf

> <i_m_source_file_index>
22

> <r_mmod_Potential_Energy-OPLS-2005>
-206.78987121582

> <r_mmod_Stretch_Energy-OPLS-2005>
35.9490585327148

> <r_mmod_Bend_Energy-OPLS-2005>
97.1957092285156

> <r_mmod_Torsional_Energy-OPLS-2005>
272.378387451172

> <r_mmod_Improper_Torsional_Energy-OPLS-2005>
3.98436141014099

> <r_mmod_Van_der_Waal_Energy-OPLS-2005>
156.567398071289

> <r_mmod_Electrostatic_Energy-OPLS-2005>
-307.154113769531

> <r_mmod_Solvation_Energy-OPLS-2005>
-472.839385986328

> <b_mmod_Minimization_Converged-OPLS-2005>
0

> <r_mmod_RMS_Derivative-OPLS-2005>
1.85809624195099

$$$$
22
                    3D
 Structure written by MMmdl.
163171  0  0  1  0            999 V2000
  -30.5367  -14.9940   20.4216 C   0  0  0  0  0  0
  -30.4437  -12.6247   19.4828 C   0  0  0  0  0  0
  -29.5207  -12.5292   18.2452 C   0  0  0  0  0  0
  -28.0550  -12.3137   18.6711 C   0  0  0  0  0  0
  -27.6279  -13.2502   19.8319 C   0  0  2  0  0  0
  -28.6761  -13.2976   20.9621 C   0  0  0  0  0  0
  -25.2472  -13.8213   20.5715 C   0  0  0  0  0  0
  -24.1784  -13.0425   20.9231 C   0  0  0  0  0  0
  -24.6412  -11.6925   20.8747 C   0  0  0  0  0  0
  -23.9089  -10.4287   21.0407 C   0  0  0  0  0  0
  -24.3633   -9.4199   21.9180 C   0  0  0  0  0  0
  -23.6296   -8.2241   22.0761 C   0  0  0  0  0  0
  -22.4273   -8.0280   21.3552 C   0  0  0  0  0  0
  -21.9919   -9.0258   20.4651 C   0  0  0  0  0  0
  -22.7261  -10.2134   20.3054 C   0  0  0  0  0  0
  -21.6855   -6.0727   22.5274 C   0  0  0  0  0  0
  -21.4015   -6.5634   23.8203 C   0  0  0  0  0  0
  -21.3654   -5.6793   24.9170 C   0  0  0  0  0  0
  -21.6044   -4.3052   24.7227 C   0  0  0  0  0  0
  -21.8819   -3.8140   23.4347 C   0  0  0  0  0  0
  -21.9198   -4.6954   22.3402 C   0  0  0  0  0  0
  -22.7807  -13.5209   21.1870 C   0  0  0  0  0  0
  -22.1663   -4.2138   21.0980 F   0  0  0  0  0  0
  -21.5633   -3.4539   25.7737 F   0  0  0  0  0  0
  -29.9363  -13.7324   20.3450 N   0  0  0  0  0  0
  -26.2889  -12.9448   20.3233 N   0  0  0  0  0  0
  -25.9345  -11.6570   20.5724 N   0  0  0  0  0  0
  -22.0464  -12.8194   22.0430 N   0  0  0  0  0  0
  -25.4102  -15.1940   20.4125 N   0  0  0  0  0  0
  -31.7552  -15.0351   20.2245 O   0  0  0  0  0  0
  -21.6641   -6.8872   21.4236 O   0  0  0  0  0  0
  -22.3493  -14.5512   20.6719 O   0  0  0  0  0  0
  -24.6509  -31.8374   23.1832 C   0  0  0  0  0  0
  -25.9252  -32.4654   23.8236 C   0  0  1  0  0  0
  -27.2183  -27.0808   20.1565 C   0  0  0  0  0  0
  -25.5967  -33.8453   24.2136 N   0  0  0  0  0  0
  -23.4569  -30.4560   21.5252 C   0  0  2  0  0  0
  -24.9070  -28.8708   20.1074 C   0  0  0  0  0  0
  -22.7580  -29.4513   22.4764 C   0  0  0  0  0  0
  -18.0316  -28.1376   22.8472 C   0  0  0  0  0  0
  -24.1483  -36.7232   23.2643 C   0  0  0  0  0  0
  -26.0183  -30.6938   21.3946 C   0  0  0  0  0  0
  -26.0838  -29.2998   20.7334 C   0  0  0  0  0  0
  -27.2344  -28.4189   20.7431 C   0  0  0  0  0  0
  -26.0164  -26.7672   19.4867 C   0  0  0  0  0  0
  -24.8872  -27.6178   19.4738 C   0  0  0  0  0  0
  -23.6880  -29.7807   20.1468 C   0  0  0  0  0  0
  -25.4120  -36.2990   24.0306 C   0  0  1  0  0  0
  -20.5930  -28.3692   23.1190 C   0  0  2  0  0  0
  -20.6775  -26.9377   22.5378 C   0  0  0  0  0  0
  -19.5755  -26.6360   21.5171 C   0  0  0  0  0  0
  -18.1937  -26.7913   22.1597 C   0  0  0  0  0  0
  -19.1575  -28.8848   23.2831 C   0  0  0  0  0  0
  -18.9507  -30.1450   23.8856 C   0  0  0  0  0  0
  -17.6504  -30.6571   24.0539 C   0  0  0  0  0  0
  -25.9085  -34.9367   23.5025 C   0  0  0  0  0  0
  -16.5380  -29.9073   23.6326 C   0  0  0  0  0  0
  -16.7306  -28.6485   23.0357 C   0  0  0  0  0  0
  -26.4525  -31.6577   25.0740 C   0  0  0  0  0  0
  -25.3666  -31.3847   26.1424 C   0  0  0  0  0  0
  -27.0423  -30.2953   24.6439 C   0  0  0  0  0  0
  -27.6026  -32.4373   25.7548 C   0  0  0  0  0  0
  -27.5564  -37.1770   24.8464 C   0  0  0  0  0  0
  -21.4264  -29.3035   22.3548 N   0  0  0  0  0  0
  -26.4270  -37.3722   23.9411 N   0  0  0  0  0  0
  -24.7277  -31.0199   22.0865 N   0  0  0  0  0  0
  -23.4206  -28.8004   23.2888 O   0  0  0  0  0  0
  -28.2715  -26.0847   20.2616 O   0  0  0  0  0  0
  -26.5686  -34.8869   22.4619 O   0  0  0  0  0  0
  -23.5612  -32.1256   23.7029 O   0  0  0  0  0  0
  -29.6900  -19.7171   19.0730 C   0  0  0  0  0  0
  -29.3572  -21.1285   19.0543 C   0  0  0  0  0  0
  -29.5788  -19.1738   20.3290 C   0  0  0  0  0  0
  -29.0034  -21.6059   20.2959 C   0  0  0  0  0  0
  -29.5242  -24.4988   22.8697 C   0  0  0  0  0  0
  -27.1670  -20.7598   22.6822 C   0  0  0  0  0  0
  -29.5845  -20.5225   23.5077 C   0  0  0  0  0  0
  -30.1258  -17.7028   20.9049 C   0  0  0  0  0  0
  -29.9187  -23.6755   21.6297 C   0  0  0  0  0  0
  -28.2213  -24.5458   19.8751 C   0  0  0  0  0  0
  -28.7129  -23.1843   20.7984 C   0  0  1  0  0  0
  -28.5579  -20.1525   22.4333 C   0  0  0  0  0  0
  -29.0379  -20.3329   21.0577 N   0  0  0  0  0  0
  -29.7655  -16.1983   20.5238 N   0  0  0  0  0  0
  -31.4731  -12.7940   19.1633 H   0  0  0  0  0  0
  -30.4529  -11.6807   20.0305 H   0  0  0  0  0  0
  -29.8452  -11.7144   17.5961 H   0  0  0  0  0  0
  -29.6008  -13.4420   17.6527 H   0  0  0  0  0  0
  -27.9573  -11.2739   18.9820 H   0  0  0  0  0  0
  -27.3896  -12.4373   17.8161 H   0  0  0  0  0  0
  -27.5844  -14.2486   19.3967 H   0  0  0  0  0  0
  -28.7842  -12.3235   21.4413 H   0  0  0  0  0  0
  -28.3720  -13.9962   21.7430 H   0  0  0  0  0  0
  -25.2783   -9.5671   22.4753 H   0  0  0  0  0  0
  -23.9996   -7.4636   22.7495 H   0  0  0  0  0  0
  -21.0842   -8.8778   19.8965 H   0  0  0  0  0  0
  -22.3715  -10.9667   19.6154 H   0  0  0  0  0  0
  -21.1999   -7.6140   23.9703 H   0  0  0  0  0  0
  -21.1478   -6.0522   25.9072 H   0  0  0  0  0  0
  -22.0604   -2.7601   23.2853 H   0  0  0  0  0  0
  -22.4096  -11.9859   22.4801 H   0  0  0  0  0  0
  -21.1067  -13.1200   22.2624 H   0  0  0  0  0  0
  -24.6378  -15.8398   20.5305 H   0  0  0  0  0  0
  -26.2393  -15.6369   20.0396 H   0  0  0  0  0  0
  -26.7329  -32.5207   23.0965 H   0  0  0  0  0  0
  -25.0034  -33.9530   25.0226 H   0  0  0  0  0  0
  -22.7667  -31.2858   21.3633 H   0  0  0  0  0  0
  -23.3735  -35.9576   23.3304 H   0  0  0  0  0  0
  -24.3549  -36.8883   22.2056 H   0  0  0  0  0  0
  -23.7248  -37.6423   23.6704 H   0  0  0  0  0  0
  -26.1933  -31.4548   20.6316 H   0  0  0  0  0  0
  -26.8818  -30.7369   22.0481 H   0  0  0  0  0  0
  -28.1247  -28.7388   21.2646 H   0  0  0  0  0  0
  -25.9065  -25.8155   18.9913 H   0  0  0  0  0  0
  -23.9858  -27.2788   18.9798 H   0  0  0  0  0  0
  -23.8331  -30.5556   19.3945 H   0  0  0  0  0  0
  -22.8046  -29.2263   19.8243 H   0  0  0  0  0  0
  -25.1306  -36.1799   25.0800 H   0  0  0  0  0  0
  -21.0049  -28.3299   24.1301 H   0  0  0  0  0  0
  -20.5614  -26.2293   23.3597 H   0  0  0  0  0  0
  -21.6641  -26.7325   22.1195 H   0  0  0  0  0  0
  -19.6904  -25.6271   21.1220 H   0  0  0  0  0  0
  -19.6718  -27.3138   20.6675 H   0  0  0  0  0  0
  -17.4187  -26.6642   21.4019 H   0  0  0  0  0  0
  -18.0377  -26.0070   22.9016 H   0  0  0  0  0  0
  -19.8005  -30.7260   24.2198 H   0  0  0  0  0  0
  -17.5078  -31.6260   24.5131 H   0  0  0  0  0  0
  -15.5385  -30.2954   23.7703 H   0  0  0  0  0  0
  -15.8698  -28.0792   22.7093 H   0  0  0  0  0  0
  -24.5861  -30.7170   25.7774 H   0  0  0  0  0  0
  -24.8821  -32.3052   26.4688 H   0  0  0  0  0  0
  -25.7914  -30.9158   27.0300 H   0  0  0  0  0  0
  -26.3098  -29.6648   24.1406 H   0  0  0  0  0  0
  -27.3910  -29.7322   25.5099 H   0  0  0  0  0  0
  -27.9035  -30.4141   23.9869 H   0  0  0  0  0  0
  -27.2597  -33.3697   26.2033 H   0  0  0  0  0  0
  -28.3897  -32.6889   25.0435 H   0  0  0  0  0  0
  -28.0619  -31.8561   26.5547 H   0  0  0  0  0  0
  -28.2552  -38.0091   24.7501 H   0  0  0  0  0  0
  -28.1080  -36.2607   24.6295 H   0  0  0  0  0  0
  -27.2272  -37.1407   25.8864 H   0  0  0  0  0  0
  -20.9440  -29.8821   21.6801 H   0  0  0  0  0  0
  -26.0127  -38.2779   24.1448 H   0  0  0  0  0  0
  -30.0655  -19.1573   18.2265 H   0  0  0  0  0  0
  -29.4263  -21.7609   18.1792 H   0  0  0  0  0  0
  -30.4098  -24.9005   23.3635 H   0  0  0  0  0  0
  -28.9778  -23.8992   23.5988 H   0  0  0  0  0  0
  -28.8854  -25.3445   22.6181 H   0  0  0  0  0  0
  -26.5435  -20.7129   21.7879 H   0  0  0  0  0  0
  -27.2154  -21.7927   23.0185 H   0  0  0  0  0  0
  -26.6498  -20.2055   23.4659 H   0  0  0  0  0  0
  -30.5455  -20.0485   23.3102 H   0  0  0  0  0  0
  -29.2422  -20.1839   24.4857 H   0  0  0  0  0  0
  -29.7366  -21.5950   23.5871 H   0  0  0  0  0  0
  -30.0116  -17.7195   21.9870 H   0  0  0  0  0  0
  -31.2098  -17.7398   20.7892 H   0  0  0  0  0  0
  -30.5222  -22.8342   21.9647 H   0  0  0  0  0  0
  -30.5889  -24.2556   20.9950 H   0  0  0  0  0  0
  -27.2308  -24.2992   19.5025 H   0  0  0  0  0  0
  -28.8487  -24.5120   18.9836 H   0  0  0  0  0  0
  -27.8936  -23.0906   21.5005 H   0  0  0  0  0  0
  -28.3828  -19.0835   22.5460 H   0  0  0  0  0  0
  -28.7754  -16.0141   20.5386 H   0  0  0  0  0  0
  1 25  1  0  0  0
  1 30  2  0  0  0
  1 84  1  0  0  0
  2  3  1  0  0  0
  2 25  1  0  0  0
  2 85  1  0  0  0
  2 86  1  0  0  0
  3  4  1  0  0  0
  3 87  1  0  0  0
  3 88  1  0  0  0
  4  5  1  0  0  0
  4 89  1  0  0  0
  4 90  1  0  0  0
  5  6  1  0  0  0
  5 26  1  0  0  0
  5 91  1  0  0  0
  6 25  1  0  0  0
  6 92  1  0  0  0
  6 93  1  0  0  0
  7  8  2  0  0  0
  7 26  1  0  0  0
  7 29  1  0  0  0
  8  9  1  0  0  0
  8 22  1  0  0  0
  9 10  1  0  0  0
  9 27  2  0  0  0
 10 11  2  0  0  0
 10 15  1  0  0  0
 11 12  1  0  0  0
 11 94  1  0  0  0
 12 13  2  0  0  0
 12 95  1  0  0  0
 13 14  1  0  0  0
 13 31  1  0  0  0
 14 15  2  0  0  0
 14 96  1  0  0  0
 15 97  1  0  0  0
 16 17  2  0  0  0
 16 21  1  0  0  0
 16 31  1  0  0  0
 17 18  1  0  0  0
 17 98  1  0  0  0
 18 19  2  0  0  0
 18 99  1  0  0  0
 19 20  1  0  0  0
 19 24  1  0  0  0
 20 21  2  0  0  0
 20100  1  0  0  0
 21 23  1  0  0  0
 22 28  1  0  0  0
 22 32  2  0  0  0
 26 27  1  0  0  0
 28101  1  0  0  0
 28102  1  0  0  0
 29103  1  0  0  0
 29104  1  0  0  0
 33 34  1  0  0  0
 33 66  1  0  0  0
 33 70  2  0  0  0
 34 36  1  0  0  0
 34 59  1  0  0  0
 34105  1  0  0  0
 35 44  2  0  0  0
 35 45  1  0  0  0
 35 68  1  0  0  0
 36 56  1  0  0  0
 36106  1  0  0  0
 37 39  1  0  0  0
 37 47  1  0  0  0
 37 66  1  0  0  0
 37107  1  0  0  0
 38 43  2  0  0  0
 38 46  1  0  0  0
 38 47  1  0  0  0
 39 64  1  0  0  0
 39 67  2  0  0  0
 40 52  1  0  0  0
 40 53  2  0  0  0
 40 58  1  0  0  0
 41108  1  0  0  0
 41109  1  0  0  0
 41110  1  0  0  0
 41 48  1  0  0  0
 42 43  1  0  0  0
 42 66  1  0  0  0
 42111  1  0  0  0
 42112  1  0  0  0
 43 44  1  0  0  0
 44113  1  0  0  0
 45 46  2  0  0  0
 45114  1  0  0  0
 46115  1  0  0  0
 47116  1  0  0  0
 47117  1  0  0  0
 48 56  1  0  0  0
 48 65  1  0  0  0
 48118  1  0  0  0
 49 50  1  0  0  0
 49 53  1  0  0  0
 49 64  1  0  0  0
 49119  1  0  0  0
 50 51  1  0  0  0
 50120  1  0  0  0
 50121  1  0  0  0
 51 52  1  0  0  0
 51122  1  0  0  0
 51123  1  0  0  0
 52124  1  0  0  0
 52125  1  0  0  0
 53 54  1  0  0  0
 54 55  2  0  0  0
 54126  1  0  0  0
 55 57  1  0  0  0
 55127  1  0  0  0
 56 69  2  0  0  0
 57 58  2  0  0  0
 57128  1  0  0  0
 58129  1  0  0  0
 59 60  1  0  0  0
 59 61  1  0  0  0
 59 62  1  0  0  0
 60130  1  0  0  0
 60131  1  0  0  0
 60132  1  0  0  0
 61133  1  0  0  0
 61134  1  0  0  0
 61135  1  0  0  0
 62136  1  0  0  0
 62137  1  0  0  0
 62138  1  0  0  0
 63 65  1  0  0  0
 63139  1  0  0  0
 63140  1  0  0  0
 63141  1  0  0  0
 64142  1  0  0  0
 65143  1  0  0  0
 68 80  1  0  0  0
 71 72  1  0  0  0
 71 73  2  0  0  0
 71144  1  0  0  0
 72 74  2  0  0  0
 72145  1  0  0  0
 73 78  1  0  0  0
 73 83  1  0  0  0
 74 81  1  0  0  0
 74 83  1  0  0  0
 75 79  1  0  0  0
 75146  1  0  0  0
 75147  1  0  0  0
 75148  1  0  0  0
 76149  1  0  0  0
 76150  1  0  0  0
 76151  1  0  0  0
 76 82  1  0  0  0
 77 82  1  0  0  0
 77152  1  0  0  0
 77153  1  0  0  0
 77154  1  0  0  0
 78 84  1  0  0  0
 78155  1  0  0  0
 78156  1  0  0  0
 79157  1  0  0  0
 79158  1  0  0  0
 79 81  1  0  0  0
 80 81  1  0  0  0
 80159  1  0  0  0
 80160  1  0  0  0
 81161  1  0  0  0
 82 83  1  0  0  0
 82162  1  0  0  0
 84163  1  0  0  0
M  ISO  4   1 100  68 101  80 101  84 100
M  END
> <chiral flag>
0

> <version>
0

> <s_m_source_file>
/data/baiqing/PycharmProjects/Reinvent-master-3.2/result/LINK_invent/BTK/process_docking_weight1_custom_sum_contain_oxygen_bond_distance_aromatic_linkinvent_7_9_3/rearranged_h_0122.sdf

> <i_m_source_file_index>
23

> <r_mmod_Potential_Energy-OPLS-2005>
637.297607421875

> <r_mmod_Stretch_Energy-OPLS-2005>
325.321655273438

> <r_mmod_Bend_Energy-OPLS-2005>
313.937286376953

> <r_mmod_Torsional_Energy-OPLS-2005>
268.528106689453

> <r_mmod_Improper_Torsional_Energy-OPLS-2005>
5.51202869415283

> <r_mmod_Van_der_Waal_Energy-OPLS-2005>
106.209251403809

> <r_mmod_Electrostatic_Energy-OPLS-2005>
-410.065612792969

> <r_mmod_Solvation_Energy-OPLS-2005>
-206.80061340332

> <b_mmod_Minimization_Converged-OPLS-2005>
0

> <r_mmod_RMS_Derivative-OPLS-2005>
2.91679382324219

$$$$
23
                    3D
 Structure written by MMmdl.
162171  0  0  1  0            999 V2000
  -30.6916  -14.4512   20.6078 C   0  0  0  0  0  0
  -30.4346  -12.3047   19.4140 C   0  0  0  0  0  0
  -29.5003  -12.5208   18.2042 C   0  0  0  0  0  0
  -28.0213  -12.3738   18.6134 C   0  0  0  0  0  0
  -27.6692  -13.1977   19.8808 C   0  0  2  0  0  0
  -28.7086  -12.9417   20.9967 C   0  0  0  0  0  0
  -25.2628  -13.8153   20.5667 C   0  0  0  0  0  0
  -24.1864  -13.0447   20.9187 C   0  0  0  0  0  0
  -24.6403  -11.6909   20.8733 C   0  0  0  0  0  0
  -23.9060  -10.4306   21.0411 C   0  0  0  0  0  0
  -24.3609   -9.4217   21.9185 C   0  0  0  0  0  0
  -23.6283   -8.2254   22.0760 C   0  0  0  0  0  0
  -22.4256   -8.0301   21.3555 C   0  0  0  0  0  0
  -21.9897   -9.0280   20.4651 C   0  0  0  0  0  0
  -22.7238  -10.2154   20.3059 C   0  0  0  0  0  0
  -21.6852   -6.0728   22.5278 C   0  0  0  0  0  0
  -21.4022   -6.5627   23.8216 C   0  0  0  0  0  0
  -21.3664   -5.6775   24.9174 C   0  0  0  0  0  0
  -21.6045   -4.3040   24.7218 C   0  0  0  0  0  0
  -21.8823   -3.8135   23.4340 C   0  0  0  0  0  0
  -21.9198   -4.6956   22.3399 C   0  0  0  0  0  0
  -22.7893  -13.5284   21.1859 C   0  0  0  0  0  0
  -22.1662   -4.2138   21.0976 F   0  0  0  0  0  0
  -21.5628   -3.4529   25.7733 F   0  0  0  0  0  0
  -30.0443  -13.2637   20.4584 N   0  0  0  0  0  0
  -26.3060  -12.9296   20.3372 N   0  0  0  0  0  0
  -25.9320  -11.6461   20.5739 N   0  0  0  0  0  0
  -22.0486  -12.8281   22.0395 N   0  0  0  0  0  0
  -25.4359  -15.1867   20.4043 N   0  0  0  0  0  0
  -31.7888  -14.6966   20.0991 O   0  0  0  0  0  0
  -21.6637   -6.8879   21.4243 O   0  0  0  0  0  0
  -22.3593  -14.5603   20.6731 O   0  0  0  0  0  0
  -24.6139  -31.8708   23.2100 C   0  0  0  0  0  0
  -25.9053  -32.4829   23.8389 C   0  0  1  0  0  0
  -27.2338  -27.4497   20.0963 C   0  0  0  0  0  0
  -25.5933  -33.8629   24.2339 N   0  0  0  0  0  0
  -23.3988  -30.4935   21.5503 C   0  0  2  0  0  0
  -24.8486  -28.9582   20.1120 C   0  0  0  0  0  0
  -22.7389  -29.4689   22.5002 C   0  0  0  0  0  0
  -18.0281  -28.1344   22.8486 C   0  0  0  0  0  0
  -24.1490  -36.7318   23.2629 C   0  0  0  0  0  0
  -25.9264  -30.8370   21.3638 C   0  0  0  0  0  0
  -26.0071  -29.4731   20.7107 C   0  0  0  0  0  0
  -27.2053  -28.7259   20.7006 C   0  0  0  0  0  0
  -26.0666  -26.9431   19.4918 C   0  0  0  0  0  0
  -24.8732  -27.6919   19.4980 C   0  0  0  0  0  0
  -23.6088  -29.8235   20.1640 C   0  0  0  0  0  0
  -25.4104  -36.3116   24.0340 C   0  0  1  0  0  0
  -20.5855  -28.3665   23.1335 C   0  0  2  0  0  0
  -20.6759  -26.9404   22.5432 C   0  0  0  0  0  0
  -19.5757  -26.6351   21.5229 C   0  0  0  0  0  0
  -18.1929  -26.7884   22.1622 C   0  0  0  0  0  0
  -19.1520  -28.8821   23.2893 C   0  0  0  0  0  0
  -18.9444  -30.1428   23.8890 C   0  0  0  0  0  0
  -17.6446  -30.6563   24.0530 C   0  0  0  0  0  0
  -25.9036  -34.9487   23.5123 C   0  0  0  0  0  0
  -16.5342  -29.9068   23.6286 C   0  0  0  0  0  0
  -16.7275  -28.6484   23.0320 C   0  0  0  0  0  0
  -26.4471  -31.6599   25.0707 C   0  0  0  0  0  0
  -25.3719  -31.3740   26.1445 C   0  0  0  0  0  0
  -27.0305  -30.3044   24.6076 C   0  0  0  0  0  0
  -27.6051  -32.4316   25.7465 C   0  0  0  0  0  0
  -27.5583  -37.1806   24.8458 C   0  0  0  0  0  0
  -21.4120  -29.3057   22.3757 N   0  0  0  0  0  0
  -26.4296  -37.3793   23.9404 N   0  0  0  0  0  0
  -24.6639  -31.0806   22.1008 N   0  0  0  0  0  0
  -23.4164  -28.8237   23.3049 O   0  0  0  0  0  0
  -28.3761  -26.6878   20.0957 O   0  0  0  0  0  0
  -26.5590  -34.8939   22.4684 O   0  0  0  0  0  0
  -23.5344  -32.1497   23.7502 O   0  0  0  0  0  0
  -27.4478  -21.1141   21.6136 C   0  0  0  0  0  0
  -29.8703  -19.8847   21.2900 C   0  0  0  0  0  0
  -27.4496  -19.7122   21.4428 C   0  0  0  0  0  0
  -28.7134  -19.0718   21.3061 C   0  0  0  0  0  0
  -28.6535  -21.8335   21.6278 C   0  0  0  0  0  0
  -25.0757  -19.3619   20.3891 C   0  0  0  0  0  0
  -24.8081  -19.5191   21.8665 C   0  0  0  0  0  0
  -26.1339  -18.9561   21.3881 C   0  0  0  0  0  0
  -28.7981  -17.5431   21.1706 C   0  0  0  0  0  0
  -28.6587  -23.3299   21.9408 C   0  0  0  0  0  0
  -28.4586  -24.2828   20.7390 C   0  0  0  0  0  0
  -30.1792  -16.8471   21.2597 C   0  0  0  0  0  0
  -28.4543  -25.7640   21.1888 C   0  0  0  0  0  0
  -29.8458  -21.2290   21.4397 N   0  0  0  0  0  0
  -29.9755  -15.3924   21.2436 N   0  0  0  0  0  0
  -31.4776  -12.4204   19.1123 H   0  0  0  0  0  0
  -30.3448  -11.2838   19.7882 H   0  0  0  0  0  0
  -29.7410  -11.8137   17.4101 H   0  0  0  0  0  0
  -29.6678  -13.5144   17.7856 H   0  0  0  0  0  0
  -27.8321  -11.3155   18.7981 H   0  0  0  0  0  0
  -27.3721  -12.6566   17.7842 H   0  0  0  0  0  0
  -27.7258  -14.2510   19.6059 H   0  0  0  0  0  0
  -28.6839  -11.8928   21.2972 H   0  0  0  0  0  0
  -28.4610  -13.5008   21.8991 H   0  0  0  0  0  0
  -25.2759   -9.5684   22.4746 H   0  0  0  0  0  0
  -23.9989   -7.4636   22.7475 H   0  0  0  0  0  0
  -21.0832   -8.8830   19.8939 H   0  0  0  0  0  0
  -22.3736  -10.9700   19.6158 H   0  0  0  0  0  0
  -21.2012   -7.6132   23.9729 H   0  0  0  0  0  0
  -21.1483   -6.0487   25.9082 H   0  0  0  0  0  0
  -22.0598   -2.7594   23.2840 H   0  0  0  0  0  0
  -22.4056  -11.9921   22.4768 H   0  0  0  0  0  0
  -21.1117  -13.1347   22.2609 H   0  0  0  0  0  0
  -24.6598  -15.8346   20.4842 H   0  0  0  0  0  0
  -26.2730  -15.6091   20.0246 H   0  0  0  0  0  0
  -26.7129  -32.5537   23.1162 H   0  0  0  0  0  0
  -25.0105  -33.9795   25.0499 H   0  0  0  0  0  0
  -22.6853  -31.3091   21.4102 H   0  0  0  0  0  0
  -23.3756  -35.9648   23.3303 H   0  0  0  0  0  0
  -24.3570  -36.8916   22.2037 H   0  0  0  0  0  0
  -23.7242  -37.6525   23.6638 H   0  0  0  0  0  0
  -26.0319  -31.6028   20.5946 H   0  0  0  0  0  0
  -26.8167  -30.8939   21.9787 H   0  0  0  0  0  0
  -28.1018  -29.1182   21.1606 H   0  0  0  0  0  0
  -26.0821  -25.9689   19.0227 H   0  0  0  0  0  0
  -23.9851  -27.2905   19.0300 H   0  0  0  0  0  0
  -23.7169  -30.5967   19.4023 H   0  0  0  0  0  0
  -22.7330  -29.2425   19.8713 H   0  0  0  0  0  0
  -25.1271  -36.1985   25.0837 H   0  0  0  0  0  0
  -20.9939  -28.3224   24.1454 H   0  0  0  0  0  0
  -20.5662  -26.2298   23.3629 H   0  0  0  0  0  0
  -21.6632  -26.7455   22.1249 H   0  0  0  0  0  0
  -19.6921  -25.6242   21.1283 H   0  0  0  0  0  0
  -19.6715  -27.3147   20.6752 H   0  0  0  0  0  0
  -17.4191  -26.6621   21.4026 H   0  0  0  0  0  0
  -18.0364  -26.0012   22.9012 H   0  0  0  0  0  0
  -19.7923  -30.7242   24.2259 H   0  0  0  0  0  0
  -17.5008  -31.6244   24.5116 H   0  0  0  0  0  0
  -15.5331  -30.2960   23.7588 H   0  0  0  0  0  0
  -15.8688  -28.0805   22.7022 H   0  0  0  0  0  0
  -24.5881  -30.7103   25.7778 H   0  0  0  0  0  0
  -24.8932  -32.2922   26.4865 H   0  0  0  0  0  0
  -25.8053  -30.8915   27.0214 H   0  0  0  0  0  0
  -26.2866  -29.6796   24.1116 H   0  0  0  0  0  0
  -27.4072  -29.7279   25.4532 H   0  0  0  0  0  0
  -27.8700  -30.4367   23.9243 H   0  0  0  0  0  0
  -27.2673  -33.3606   26.2078 H   0  0  0  0  0  0
  -28.3843  -32.6889   25.0278 H   0  0  0  0  0  0
  -28.0737  -31.8410   26.5346 H   0  0  0  0  0  0
  -28.2600  -38.0100   24.7506 H   0  0  0  0  0  0
  -28.1084  -36.2636   24.6293 H   0  0  0  0  0  0
  -27.2302  -37.1465   25.8860 H   0  0  0  0  0  0
  -20.9261  -29.8854   21.7053 H   0  0  0  0  0  0
  -26.0198  -38.2878   24.1408 H   0  0  0  0  0  0
  -26.5257  -21.6590   21.7508 H   0  0  0  0  0  0
  -30.8527  -19.4533   21.1677 H   0  0  0  0  0  0
  -25.2363  -20.2738   19.8172 H   0  0  0  0  0  0
  -24.5443  -18.5691   19.8664 H   0  0  0  0  0  0
  -24.0908  -18.8249   22.3016 H   0  0  0  0  0  0
  -24.7604  -20.5291   22.2643 H   0  0  0  0  0  0
  -26.2511  -17.8932   21.5697 H   0  0  0  0  0  0
  -28.3226  -17.2735   20.2261 H   0  0  0  0  0  0
  -28.1893  -17.1174   21.9667 H   0  0  0  0  0  0
  -29.5970  -23.5762   22.4397 H   0  0  0  0  0  0
  -27.8801  -23.5197   22.6802 H   0  0  0  0  0  0
  -27.5200  -24.0460   20.2352 H   0  0  0  0  0  0
  -29.2502  -24.1217   20.0077 H   0  0  0  0  0  0
  -30.6849  -17.1140   22.1895 H   0  0  0  0  0  0
  -30.8228  -17.1571   20.4336 H   0  0  0  0  0  0
  -29.3730  -25.9794   21.7365 H   0  0  0  0  0  0
  -27.6429  -25.9212   21.9052 H   0  0  0  0  0  0
  -29.1103  -15.0622   21.6419 H   0  0  0  0  0  0
  1 25  1  0  0  0
  1 30  2  0  0  0
  1 85  1  0  0  0
  2  3  1  0  0  0
  2 25  1  0  0  0
  2 86  1  0  0  0
  2 87  1  0  0  0
  3  4  1  0  0  0
  3 88  1  0  0  0
  3 89  1  0  0  0
  4  5  1  0  0  0
  4 90  1  0  0  0
  4 91  1  0  0  0
  5  6  1  0  0  0
  5 26  1  0  0  0
  5 92  1  0  0  0
  6 25  1  0  0  0
  6 93  1  0  0  0
  6 94  1  0  0  0
  7  8  2  0  0  0
  7 26  1  0  0  0
  7 29  1  0  0  0
  8  9  1  0  0  0
  8 22  1  0  0  0
  9 10  1  0  0  0
  9 27  2  0  0  0
 10 11  2  0  0  0
 10 15  1  0  0  0
 11 12  1  0  0  0
 11 95  1  0  0  0
 12 13  2  0  0  0
 12 96  1  0  0  0
 13 14  1  0  0  0
 13 31  1  0  0  0
 14 15  2  0  0  0
 14 97  1  0  0  0
 15 98  1  0  0  0
 16 17  2  0  0  0
 16 21  1  0  0  0
 16 31  1  0  0  0
 17 18  1  0  0  0
 17 99  1  0  0  0
 18 19  2  0  0  0
 18100  1  0  0  0
 19 20  1  0  0  0
 19 24  1  0  0  0
 20 21  2  0  0  0
 20101  1  0  0  0
 21 23  1  0  0  0
 22 28  1  0  0  0
 22 32  2  0  0  0
 26 27  1  0  0  0
 28102  1  0  0  0
 28103  1  0  0  0
 29104  1  0  0  0
 29105  1  0  0  0
 33 34  1  0  0  0
 33 66  1  0  0  0
 33 70  2  0  0  0
 34 36  1  0  0  0
 34 59  1  0  0  0
 34106  1  0  0  0
 35 44  2  0  0  0
 35 45  1  0  0  0
 35 68  1  0  0  0
 36 56  1  0  0  0
 36107  1  0  0  0
 37 39  1  0  0  0
 37 47  1  0  0  0
 37 66  1  0  0  0
 37108  1  0  0  0
 38 43  2  0  0  0
 38 46  1  0  0  0
 38 47  1  0  0  0
 39 64  1  0  0  0
 39 67  2  0  0  0
 40 52  1  0  0  0
 40 53  2  0  0  0
 40 58  1  0  0  0
 41109  1  0  0  0
 41110  1  0  0  0
 41111  1  0  0  0
 41 48  1  0  0  0
 42 43  1  0  0  0
 42 66  1  0  0  0
 42112  1  0  0  0
 42113  1  0  0  0
 43 44  1  0  0  0
 44114  1  0  0  0
 45 46  2  0  0  0
 45115  1  0  0  0
 46116  1  0  0  0
 47117  1  0  0  0
 47118  1  0  0  0
 48 56  1  0  0  0
 48 65  1  0  0  0
 48119  1  0  0  0
 49 50  1  0  0  0
 49 53  1  0  0  0
 49 64  1  0  0  0
 49120  1  0  0  0
 50 51  1  0  0  0
 50121  1  0  0  0
 50122  1  0  0  0
 51 52  1  0  0  0
 51123  1  0  0  0
 51124  1  0  0  0
 52125  1  0  0  0
 52126  1  0  0  0
 53 54  1  0  0  0
 54 55  2  0  0  0
 54127  1  0  0  0
 55 57  1  0  0  0
 55128  1  0  0  0
 56 69  2  0  0  0
 57 58  2  0  0  0
 57129  1  0  0  0
 58130  1  0  0  0
 59 60  1  0  0  0
 59 61  1  0  0  0
 59 62  1  0  0  0
 60131  1  0  0  0
 60132  1  0  0  0
 60133  1  0  0  0
 61134  1  0  0  0
 61135  1  0  0  0
 61136  1  0  0  0
 62137  1  0  0  0
 62138  1  0  0  0
 62139  1  0  0  0
 63 65  1  0  0  0
 63140  1  0  0  0
 63141  1  0  0  0
 63142  1  0  0  0
 64143  1  0  0  0
 65144  1  0  0  0
 68 83  1  0  0  0
 71 73  2  0  0  0
 71 75  1  0  0  0
 71145  1  0  0  0
 72 74  2  0  0  0
 72 84  1  0  0  0
 72146  1  0  0  0
 73 74  1  0  0  0
 73 78  1  0  0  0
 74 79  1  0  0  0
 75 80  1  0  0  0
 75 84  2  0  0  0
 76 77  1  0  0  0
 76 78  1  0  0  0
 76147  1  0  0  0
 76148  1  0  0  0
 77 78  1  0  0  0
 77149  1  0  0  0
 77150  1  0  0  0
 78151  1  0  0  0
 79 82  1  0  0  0
 79152  1  0  0  0
 79153  1  0  0  0
 80 81  1  0  0  0
 80154  1  0  0  0
 80155  1  0  0  0
 81 83  1  0  0  0
 81156  1  0  0  0
 81157  1  0  0  0
 82 85  1  0  0  0
 82158  1  0  0  0
 82159  1  0  0  0
 83160  1  0  0  0
 83161  1  0  0  0
 85162  1  0  0  0
M  ISO  4   1 100  68 101  83 101  85 100
M  END
> <chiral flag>
0

> <version>
0

> <s_m_source_file>
/data/baiqing/PycharmProjects/Reinvent-master-3.2/result/LINK_invent/BTK/process_docking_weight1_custom_sum_contain_oxygen_bond_distance_aromatic_linkinvent_7_9_3/rearranged_h_0122.sdf

> <i_m_source_file_index>
24

> <r_mmod_Potential_Energy-OPLS-2005>
-264.843933105469

> <r_mmod_Stretch_Energy-OPLS-2005>
36.7292213439941

> <r_mmod_Bend_Energy-OPLS-2005>
96.8074188232422

> <r_mmod_Torsional_Energy-OPLS-2005>
245.832443237305

> <r_mmod_Improper_Torsional_Energy-OPLS-2005>
3.82064938545227

> <r_mmod_Van_der_Waal_Energy-OPLS-2005>
149.031173706055

> <r_mmod_Electrostatic_Energy-OPLS-2005>
-583.041137695312

> <r_mmod_Solvation_Energy-OPLS-2005>
-224.423614501953

> <b_mmod_Minimization_Converged-OPLS-2005>
0

> <r_mmod_RMS_Derivative-OPLS-2005>
2.35477519035339

$$$$
24
                    3D
 Structure written by MMmdl.
172181  0  0  1  0            999 V2000
  -30.7094  -14.6282   20.4788 C   0  0  0  0  0  0
  -30.4171  -12.3925   19.4591 C   0  0  0  0  0  0
  -29.5013  -12.5068   18.2247 C   0  0  0  0  0  0
  -28.0259  -12.3523   18.6371 C   0  0  0  0  0  0
  -27.6450  -13.2325   19.8580 C   0  0  2  0  0  0
  -28.6957  -13.1611   20.9888 C   0  0  0  0  0  0
  -25.2533  -13.8210   20.5716 C   0  0  0  0  0  0
  -24.1812  -13.0435   20.9200 C   0  0  0  0  0  0
  -24.6422  -11.6922   20.8759 C   0  0  0  0  0  0
  -23.9106  -10.4291   21.0410 C   0  0  0  0  0  0
  -24.3643   -9.4198   21.9182 C   0  0  0  0  0  0
  -23.6304   -8.2242   22.0757 C   0  0  0  0  0  0
  -22.4288   -8.0293   21.3547 C   0  0  0  0  0  0
  -21.9928   -9.0265   20.4644 C   0  0  0  0  0  0
  -22.7276  -10.2139   20.3048 C   0  0  0  0  0  0
  -21.6856   -6.0738   22.5278 C   0  0  0  0  0  0
  -21.4016   -6.5644   23.8211 C   0  0  0  0  0  0
  -21.3662   -5.6799   24.9177 C   0  0  0  0  0  0
  -21.6045   -4.3060   24.7227 C   0  0  0  0  0  0
  -21.8822   -3.8151   23.4348 C   0  0  0  0  0  0
  -21.9191   -4.6967   22.3401 C   0  0  0  0  0  0
  -22.7836  -13.5218   21.1855 C   0  0  0  0  0  0
  -22.1658   -4.2154   21.0982 F   0  0  0  0  0  0
  -21.5631   -3.4543   25.7743 F   0  0  0  0  0  0
  -30.0069  -13.4541   20.3987 N   0  0  0  0  0  0
  -26.2975  -12.9409   20.3356 N   0  0  0  0  0  0
  -25.9360  -11.6552   20.5786 N   0  0  0  0  0  0
  -22.0492  -12.8175   22.0406 N   0  0  0  0  0  0
  -25.4220  -15.1929   20.4150 N   0  0  0  0  0  0
  -31.9048  -14.6637   20.1704 O   0  0  0  0  0  0
  -21.6647   -6.8887   21.4245 O   0  0  0  0  0  0
  -22.3499  -14.5515   20.6717 O   0  0  0  0  0  0
  -24.6217  -31.8622   23.2047 C   0  0  0  0  0  0
  -25.9090  -32.4804   23.8338 C   0  0  1  0  0  0
  -27.2221  -27.3461   20.1084 C   0  0  0  0  0  0
  -25.5922  -33.8598   24.2278 N   0  0  0  0  0  0
  -23.4126  -30.4862   21.5470 C   0  0  2  0  0  0
  -24.8614  -28.9509   20.1077 C   0  0  0  0  0  0
  -22.7450  -29.4643   22.4964 C   0  0  0  0  0  0
  -18.0283  -28.1378   22.8480 C   0  0  0  0  0  0
  -24.1504  -36.7305   23.2632 C   0  0  0  0  0  0
  -25.9493  -30.8049   21.3699 C   0  0  0  0  0  0
  -26.0275  -29.4316   20.7166 C   0  0  0  0  0  0
  -27.2100  -28.6372   20.7164 C   0  0  0  0  0  0
  -26.0376  -26.9278   19.4538 C   0  0  0  0  0  0
  -24.8669  -27.7041   19.4678 C   0  0  0  0  0  0
  -23.6249  -29.8207   20.1626 C   0  0  0  0  0  0
  -25.4124  -36.3098   24.0319 C   0  0  1  0  0  0
  -20.5870  -28.3688   23.1288 C   0  0  2  0  0  0
  -20.6779  -26.9418   22.5420 C   0  0  0  0  0  0
  -19.5769  -26.6382   21.5203 C   0  0  0  0  0  0
  -18.1934  -26.7922   22.1597 C   0  0  0  0  0  0
  -19.1533  -28.8839   23.2877 C   0  0  0  0  0  0
  -18.9474  -30.1431   23.8910 C   0  0  0  0  0  0
  -17.6476  -30.6592   24.0556 C   0  0  0  0  0  0
  -25.9050  -34.9469   23.5100 C   0  0  0  0  0  0
  -16.5359  -29.9092   23.6322 C   0  0  0  0  0  0
  -16.7270  -28.6502   23.0356 C   0  0  0  0  0  0
  -26.4495  -31.6591   25.0680 C   0  0  0  0  0  0
  -25.3716  -31.3703   26.1398 C   0  0  0  0  0  0
  -27.0339  -30.3030   24.6074 C   0  0  0  0  0  0
  -27.6090  -32.4277   25.7440 C   0  0  0  0  0  0
  -27.5600  -37.1789   24.8445 C   0  0  0  0  0  0
  -21.4163  -29.3049   22.3697 N   0  0  0  0  0  0
  -26.4309  -37.3789   23.9402 N   0  0  0  0  0  0
  -24.6805  -31.0641   22.0999 N   0  0  0  0  0  0
  -23.4190  -28.8186   23.3038 O   0  0  0  0  0  0
  -28.3414  -26.5085   20.1814 O   0  0  0  0  0  0
  -26.5623  -34.8928   22.4671 O   0  0  0  0  0  0
  -23.5391  -32.1415   23.7398 O   0  0  0  0  0  0
  -27.0883  -21.9068   17.7709 C   0  0  0  0  0  0
  -26.1998  -22.4368   18.8947 C   0  0  0  0  0  0
  -27.9839  -20.8724   18.4571 C   0  0  0  0  0  0
  -26.8397  -21.9435   20.2093 C   0  0  0  0  0  0
  -28.7925  -17.8492   19.6493 C   0  0  0  0  0  0
  -29.9051  -18.1412   21.7973 C   0  0  0  0  0  0
  -29.6037  -16.5238   19.4466 C   0  0  0  0  0  0
  -30.7186  -16.8352   21.5238 C   0  0  0  0  0  0
  -29.4967  -18.9269   20.5206 C   0  0  0  0  0  0
  -28.2557  -21.4062   19.8801 C   0  0  0  0  0  0
  -30.5585  -24.6457   20.5864 C   0  0  0  0  0  0
  -28.6605  -20.2345   20.8973 C   0  0  0  0  0  0
  -29.3068  -22.6024   19.7888 C   0  0  0  0  0  0
  -28.1608  -25.0742   19.8946 C   0  0  0  0  0  0
  -29.1584  -24.0144   20.5201 C   0  0  2  0  0  0
  -30.0374  -15.8174   20.6792 N   0  0  0  0  0  0
  -31.4621  -12.4775   19.1541 H   0  0  0  0  0  0
  -30.3226  -11.4107   19.9270 H   0  0  0  0  0  0
  -29.7668  -11.7512   17.4842 H   0  0  0  0  0  0
  -29.6514  -13.4739   17.7410 H   0  0  0  0  0  0
  -27.8588  -11.3004   18.8700 H   0  0  0  0  0  0
  -27.3760  -12.5853   17.7928 H   0  0  0  0  0  0
  -27.6347  -14.2569   19.4943 H   0  0  0  0  0  0
  -28.7024  -12.1802   21.4654 H   0  0  0  0  0  0
  -28.4554  -13.8839   21.7706 H   0  0  0  0  0  0
  -25.2790   -9.5669   22.4750 H   0  0  0  0  0  0
  -24.0014   -7.4635   22.7475 H   0  0  0  0  0  0
  -21.0863   -8.8798   19.8941 H   0  0  0  0  0  0
  -22.3751  -10.9680   19.6152 H   0  0  0  0  0  0
  -21.2013   -7.6156   23.9718 H   0  0  0  0  0  0
  -21.1481   -6.0531   25.9083 H   0  0  0  0  0  0
  -22.0597   -2.7613   23.2856 H   0  0  0  0  0  0
  -22.4129  -11.9827   22.4762 H   0  0  0  0  0  0
  -21.1110  -13.1171   22.2638 H   0  0  0  0  0  0
  -24.6592  -15.8500   20.5344 H   0  0  0  0  0  0
  -26.2879  -15.6353   20.1354 H   0  0  0  0  0  0
  -26.7149  -32.5517   23.1086 H   0  0  0  0  0  0
  -25.0047  -33.9730   25.0400 H   0  0  0  0  0  0
  -22.7052  -31.3068   21.4049 H   0  0  0  0  0  0
  -23.3782  -35.9629   23.3278 H   0  0  0  0  0  0
  -24.3610  -36.8961   22.2061 H   0  0  0  0  0  0
  -23.7235  -37.6477   23.6687 H   0  0  0  0  0  0
  -26.0558  -31.5692   20.5985 H   0  0  0  0  0  0
  -26.8384  -30.8690   21.9861 H   0  0  0  0  0  0
  -28.1018  -28.9916   21.2144 H   0  0  0  0  0  0
  -25.9832  -25.9858   18.9294 H   0  0  0  0  0  0
  -23.9758  -27.3371   18.9764 H   0  0  0  0  0  0
  -23.7332  -30.5941   19.4000 H   0  0  0  0  0  0
  -22.7486  -29.2366   19.8730 H   0  0  0  0  0  0
  -25.1302  -36.1962   25.0810 H   0  0  0  0  0  0
  -20.9937  -28.3296   24.1418 H   0  0  0  0  0  0
  -20.5695  -26.2290   23.3621 H   0  0  0  0  0  0
  -21.6653  -26.7477   22.1204 H   0  0  0  0  0  0
  -19.6944  -25.6283   21.1260 H   0  0  0  0  0  0
  -19.6734  -27.3180   20.6718 H   0  0  0  0  0  0
  -17.4208  -26.6671   21.4000 H   0  0  0  0  0  0
  -18.0329  -26.0061   22.8989 H   0  0  0  0  0  0
  -19.7963  -30.7204   24.2336 H   0  0  0  0  0  0
  -17.5061  -31.6304   24.5133 H   0  0  0  0  0  0
  -15.5369  -30.3011   23.7659 H   0  0  0  0  0  0
  -15.8661  -28.0835   22.7074 H   0  0  0  0  0  0
  -24.5951  -30.6994   25.7695 H   0  0  0  0  0  0
  -24.8819  -32.2846   26.4761 H   0  0  0  0  0  0
  -25.8020  -30.8926   27.0208 H   0  0  0  0  0  0
  -26.2887  -29.6746   24.1181 H   0  0  0  0  0  0
  -27.4152  -29.7313   25.4541 H   0  0  0  0  0  0
  -27.8700  -30.4332   23.9197 H   0  0  0  0  0  0
  -27.2779  -33.3610   26.2007 H   0  0  0  0  0  0
  -28.3916  -32.6769   25.0255 H   0  0  0  0  0  0
  -28.0734  -31.8372   26.5353 H   0  0  0  0  0  0
  -28.2568  -38.0138   24.7573 H   0  0  0  0  0  0
  -28.1149  -36.2668   24.6185 H   0  0  0  0  0  0
  -27.2323  -37.1324   25.8846 H   0  0  0  0  0  0
  -20.9345  -29.8781   21.6923 H   0  0  0  0  0  0
  -26.0202  -38.2853   24.1479 H   0  0  0  0  0  0
  -27.6870  -22.7173   17.3542 H   0  0  0  0  0  0
  -26.5122  -21.4815   16.9476 H   0  0  0  0  0  0
  -25.1842  -22.0516   18.8049 H   0  0  0  0  0  0
  -26.1269  -23.5199   18.8363 H   0  0  0  0  0  0
  -28.8930  -20.6589   17.8926 H   0  0  0  0  0  0
  -27.4004  -19.9548   18.5106 H   0  0  0  0  0  0
  -26.2079  -21.1327   20.5758 H   0  0  0  0  0  0
  -26.8332  -22.6860   21.0064 H   0  0  0  0  0  0
  -27.8123  -17.6216   20.0686 H   0  0  0  0  0  0
  -28.6162  -18.2438   18.6531 H   0  0  0  0  0  0
  -30.4943  -18.7927   22.4450 H   0  0  0  0  0  0
  -29.0132  -17.8860   22.3708 H   0  0  0  0  0  0
  -30.4913  -16.7544   18.8530 H   0  0  0  0  0  0
  -29.0177  -15.8480   18.8235 H   0  0  0  0  0  0
  -30.9993  -16.3836   22.4771 H   0  0  0  0  0  0
  -31.6597  -17.1211   21.0484 H   0  0  0  0  0  0
  -30.4080  -19.2441   20.0118 H   0  0  0  0  0  0
  -31.2720  -23.9804   21.0742 H   0  0  0  0  0  0
  -30.5475  -25.5724   21.1603 H   0  0  0  0  0  0
  -30.9309  -24.8728   19.5852 H   0  0  0  0  0  0
  -29.1914  -20.7297   21.7115 H   0  0  0  0  0  0
  -27.7585  -19.8600   21.3804 H   0  0  0  0  0  0
  -29.4974  -22.8348   18.7410 H   0  0  0  0  0  0
  -30.2528  -22.1651   20.1076 H   0  0  0  0  0  0
  -27.1790  -24.7865   20.2644 H   0  0  0  0  0  0
  -28.1541  -24.9590   18.8103 H   0  0  0  0  0  0
  -28.8537  -23.8293   21.5517 H   0  0  0  0  0  0
  1 25  1  0  0  0
  1 30  2  0  0  0
  1 86  1  0  0  0
  2  3  1  0  0  0
  2 25  1  0  0  0
  2 87  1  0  0  0
  2 88  1  0  0  0
  3  4  1  0  0  0
  3 89  1  0  0  0
  3 90  1  0  0  0
  4  5  1  0  0  0
  4 91  1  0  0  0
  4 92  1  0  0  0
  5  6  1  0  0  0
  5 26  1  0  0  0
  5 93  1  0  0  0
  6 25  1  0  0  0
  6 94  1  0  0  0
  6 95  1  0  0  0
  7  8  2  0  0  0
  7 26  1  0  0  0
  7 29  1  0  0  0
  8  9  1  0  0  0
  8 22  1  0  0  0
  9 10  1  0  0  0
  9 27  2  0  0  0
 10 11  2  0  0  0
 10 15  1  0  0  0
 11 12  1  0  0  0
 11 96  1  0  0  0
 12 13  2  0  0  0
 12 97  1  0  0  0
 13 14  1  0  0  0
 13 31  1  0  0  0
 14 15  2  0  0  0
 14 98  1  0  0  0
 15 99  1  0  0  0
 16 17  2  0  0  0
 16 21  1  0  0  0
 16 31  1  0  0  0
 17 18  1  0  0  0
 17100  1  0  0  0
 18 19  2  0  0  0
 18101  1  0  0  0
 19 20  1  0  0  0
 19 24  1  0  0  0
 20 21  2  0  0  0
 20102  1  0  0  0
 21 23  1  0  0  0
 22 28  1  0  0  0
 22 32  2  0  0  0
 26 27  1  0  0  0
 28103  1  0  0  0
 28104  1  0  0  0
 29105  1  0  0  0
 29106  1  0  0  0
 33 34  1  0  0  0
 33 66  1  0  0  0
 33 70  2  0  0  0
 34 36  1  0  0  0
 34 59  1  0  0  0
 34107  1  0  0  0
 35 44  2  0  0  0
 35 45  1  0  0  0
 35 68  1  0  0  0
 36 56  1  0  0  0
 36108  1  0  0  0
 37 39  1  0  0  0
 37 47  1  0  0  0
 37 66  1  0  0  0
 37109  1  0  0  0
 38 43  2  0  0  0
 38 46  1  0  0  0
 38 47  1  0  0  0
 39 64  1  0  0  0
 39 67  2  0  0  0
 40 52  1  0  0  0
 40 53  2  0  0  0
 40 58  1  0  0  0
 41110  1  0  0  0
 41111  1  0  0  0
 41112  1  0  0  0
 41 48  1  0  0  0
 42 43  1  0  0  0
 42 66  1  0  0  0
 42113  1  0  0  0
 42114  1  0  0  0
 43 44  1  0  0  0
 44115  1  0  0  0
 45 46  2  0  0  0
 45116  1  0  0  0
 46117  1  0  0  0
 47118  1  0  0  0
 47119  1  0  0  0
 48 56  1  0  0  0
 48 65  1  0  0  0
 48120  1  0  0  0
 49 50  1  0  0  0
 49 53  1  0  0  0
 49 64  1  0  0  0
 49121  1  0  0  0
 50 51  1  0  0  0
 50122  1  0  0  0
 50123  1  0  0  0
 51 52  1  0  0  0
 51124  1  0  0  0
 51125  1  0  0  0
 52126  1  0  0  0
 52127  1  0  0  0
 53 54  1  0  0  0
 54 55  2  0  0  0
 54128  1  0  0  0
 55 57  1  0  0  0
 55129  1  0  0  0
 56 69  2  0  0  0
 57 58  2  0  0  0
 57130  1  0  0  0
 58131  1  0  0  0
 59 60  1  0  0  0
 59 61  1  0  0  0
 59 62  1  0  0  0
 60132  1  0  0  0
 60133  1  0  0  0
 60134  1  0  0  0
 61135  1  0  0  0
 61136  1  0  0  0
 61137  1  0  0  0
 62138  1  0  0  0
 62139  1  0  0  0
 62140  1  0  0  0
 63 65  1  0  0  0
 63141  1  0  0  0
 63142  1  0  0  0
 63143  1  0  0  0
 64144  1  0  0  0
 65145  1  0  0  0
 68 84  1  0  0  0
 71 72  1  0  0  0
 71 73  1  0  0  0
 71146  1  0  0  0
 71147  1  0  0  0
 72 74  1  0  0  0
 72148  1  0  0  0
 72149  1  0  0  0
 73 80  1  0  0  0
 73150  1  0  0  0
 73151  1  0  0  0
 74 80  1  0  0  0
 74152  1  0  0  0
 74153  1  0  0  0
 75 77  1  0  0  0
 75 79  1  0  0  0
 75154  1  0  0  0
 75155  1  0  0  0
 76 78  1  0  0  0
 76 79  1  0  0  0
 76156  1  0  0  0
 76157  1  0  0  0
 77 86  1  0  0  0
 77158  1  0  0  0
 77159  1  0  0  0
 78 86  1  0  0  0
 78160  1  0  0  0
 78161  1  0  0  0
 79 82  1  0  0  0
 79162  1  0  0  0
 80 82  1  0  0  0
 80 83  1  0  0  0
 81163  1  0  0  0
 81164  1  0  0  0
 81165  1  0  0  0
 81 85  1  0  0  0
 82166  1  0  0  0
 82167  1  0  0  0
 83 85  1  0  0  0
 83168  1  0  0  0
 83169  1  0  0  0
 84 85  1  0  0  0
 84170  1  0  0  0
 84171  1  0  0  0
 85172  1  0  0  0
M  ISO  4   1 100  68 101  84 101  86 100
M  END
> <chiral flag>
0

> <version>
0

> <s_m_source_file>
/data/baiqing/PycharmProjects/Reinvent-master-3.2/result/LINK_invent/BTK/process_docking_weight1_custom_sum_contain_oxygen_bond_distance_aromatic_linkinvent_7_9_3/rearranged_h_0122.sdf

> <i_m_source_file_index>
25

> <r_mmod_Potential_Energy-OPLS-2005>
441.228729248047

> <r_mmod_Stretch_Energy-OPLS-2005>
79.342887878418

> <r_mmod_Bend_Energy-OPLS-2005>
207.696701049805

> <r_mmod_Torsional_Energy-OPLS-2005>
413.844757080078

> <r_mmod_Improper_Torsional_Energy-OPLS-2005>
10.2022562026978

> <r_mmod_Van_der_Waal_Energy-OPLS-2005>
140.721878051758

> <r_mmod_Electrostatic_Energy-OPLS-2005>
-281.840393066406

> <r_mmod_Solvation_Energy-OPLS-2005>
-177.64714050293

> <b_mmod_Minimization_Converged-OPLS-2005>
0

> <r_mmod_RMS_Derivative-OPLS-2005>
2.93907356262207

$$$$
25
                    3D
 Structure written by MMmdl.
159167  0  0  1  0            999 V2000
  -30.6147  -14.7352   20.4695 C   0  0  0  0  0  0
  -30.4299  -12.4573   19.4539 C   0  0  0  0  0  0
  -29.5051  -12.5239   18.2197 C   0  0  0  0  0  0
  -28.0305  -12.3487   18.6345 C   0  0  0  0  0  0
  -27.6397  -13.2353   19.8476 C   0  0  2  0  0  0
  -28.6892  -13.1633   20.9770 C   0  0  0  0  0  0
  -25.2501  -13.8191   20.5691 C   0  0  0  0  0  0
  -24.1799  -13.0423   20.9210 C   0  0  0  0  0  0
  -24.6406  -11.6914   20.8752 C   0  0  0  0  0  0
  -23.9089  -10.4284   21.0404 C   0  0  0  0  0  0
  -24.3636   -9.4198   21.9186 C   0  0  0  0  0  0
  -23.6300   -8.2243   22.0760 C   0  0  0  0  0  0
  -22.4281   -8.0283   21.3549 C   0  0  0  0  0  0
  -21.9926   -9.0254   20.4643 C   0  0  0  0  0  0
  -22.7266  -10.2126   20.3046 C   0  0  0  0  0  0
  -21.6848   -6.0734   22.5277 C   0  0  0  0  0  0
  -21.4023   -6.5641   23.8212 C   0  0  0  0  0  0
  -21.3662   -5.6793   24.9173 C   0  0  0  0  0  0
  -21.6040   -4.3052   24.7223 C   0  0  0  0  0  0
  -21.8816   -3.8145   23.4345 C   0  0  0  0  0  0
  -21.9196   -4.6964   22.3403 C   0  0  0  0  0  0
  -22.7818  -13.5203   21.1875 C   0  0  0  0  0  0
  -22.1655   -4.2150   21.0980 F   0  0  0  0  0  0
  -21.5631   -3.4539   25.7737 F   0  0  0  0  0  0
  -29.9847  -13.5157   20.3846 N   0  0  0  0  0  0
  -26.2933  -12.9417   20.3270 N   0  0  0  0  0  0
  -25.9338  -11.6548   20.5739 N   0  0  0  0  0  0
  -22.0473  -12.8170   22.0415 N   0  0  0  0  0  0
  -25.4130  -15.1934   20.4115 N   0  0  0  0  0  0
  -31.8151  -14.8338   20.2003 O   0  0  0  0  0  0
  -21.6641   -6.8881   21.4242 O   0  0  0  0  0  0
  -22.3502  -14.5517   20.6741 O   0  0  0  0  0  0
  -24.6321  -31.8564   23.1957 C   0  0  0  0  0  0
  -25.9142  -32.4771   23.8313 C   0  0  1  0  0  0
  -27.2144  -27.2555   20.1181 C   0  0  0  0  0  0
  -25.5959  -33.8575   24.2252 N   0  0  0  0  0  0
  -23.4259  -30.4812   21.5405 C   0  0  2  0  0  0
  -24.8719  -28.9334   20.1022 C   0  0  0  0  0  0
  -22.7514  -29.4603   22.4885 C   0  0  0  0  0  0
  -18.0307  -28.1415   22.8479 C   0  0  0  0  0  0
  -24.1505  -36.7273   23.2637 C   0  0  0  0  0  0
  -25.9709  -30.7732   21.3683 C   0  0  0  0  0  0
  -26.0426  -29.3931   20.7143 C   0  0  0  0  0  0
  -27.2113  -28.5655   20.7146 C   0  0  0  0  0  0
  -26.0122  -26.8667   19.4814 C   0  0  0  0  0  0
  -24.8626  -27.6815   19.4743 C   0  0  0  0  0  0
  -23.6411  -29.8178   20.1539 C   0  0  0  0  0  0
  -25.4125  -36.3062   24.0327 C   0  0  1  0  0  0
  -20.5906  -28.3703   23.1302 C   0  0  2  0  0  0
  -20.6794  -26.9428   22.5415 C   0  0  0  0  0  0
  -19.5762  -26.6398   21.5233 C   0  0  0  0  0  0
  -18.1938  -26.7959   22.1626 C   0  0  0  0  0  0
  -19.1553  -28.8873   23.2896 C   0  0  0  0  0  0
  -18.9468  -30.1475   23.8902 C   0  0  0  0  0  0
  -17.6461  -30.6594   24.0564 C   0  0  0  0  0  0
  -25.9076  -34.9446   23.5077 C   0  0  0  0  0  0
  -16.5359  -29.9080   23.6342 C   0  0  0  0  0  0
  -16.7293  -28.6518   23.0331 C   0  0  0  0  0  0
  -26.4528  -31.6574   25.0665 C   0  0  0  0  0  0
  -25.3747  -31.3659   26.1357 C   0  0  0  0  0  0
  -27.0351  -30.3017   24.6046 C   0  0  0  0  0  0
  -27.6106  -32.4269   25.7454 C   0  0  0  0  0  0
  -27.5580  -37.1777   24.8463 C   0  0  0  0  0  0
  -21.4220  -29.3037   22.3669 N   0  0  0  0  0  0
  -26.4275  -37.3765   23.9424 N   0  0  0  0  0  0
  -24.6972  -31.0524   22.0931 N   0  0  0  0  0  0
  -23.4231  -28.8128   23.2964 O   0  0  0  0  0  0
  -28.3263  -26.3796   20.2134 O   0  0  0  0  0  0
  -26.5620  -34.8904   22.4625 O   0  0  0  0  0  0
  -23.5484  -32.1395   23.7252 O   0  0  0  0  0  0
  -29.1829  -21.4462   22.0839 C   0  0  0  0  0  0
  -28.7248  -22.3449   19.9082 C   0  0  0  0  0  0
  -28.9747  -21.1677   20.7207 C   0  0  0  0  0  0
  -29.1192  -22.7711   22.5687 C   0  0  0  0  0  0
  -28.6766  -23.6856   20.4643 C   0  0  0  0  0  0
  -29.2904  -23.0395   24.0494 C   0  0  0  0  0  0
  -28.3743  -24.9982   19.6065 C   0  0  0  0  0  0
  -30.2818  -17.2757   21.0840 C   0  0  0  0  0  0
  -28.8635  -19.6372   20.2498 C   0  0  2  0  0  0
  -30.1436  -18.6237   20.1701 C   0  0  1  0  0  0
  -28.8850  -23.8560   21.7910 N   0  0  0  0  0  0
  -29.8419  -15.8679   20.6736 N   0  0  0  0  0  0
  -31.3598  -19.4416   20.3524 N   0  3  0  0  0  0
  -28.1689  -19.5640   19.0139 O   0  0  0  0  0  0
  -31.4717  -12.5829   19.1543 H   0  0  0  0  0  0
  -30.3672  -11.4777   19.9296 H   0  0  0  0  0  0
  -29.7844  -11.7619   17.4914 H   0  0  0  0  0  0
  -29.6312  -13.4846   17.7182 H   0  0  0  0  0  0
  -27.8774  -11.2970   18.8781 H   0  0  0  0  0  0
  -27.3746  -12.5625   17.7891 H   0  0  0  0  0  0
  -27.6316  -14.2603   19.4761 H   0  0  0  0  0  0
  -28.7253  -12.1646   21.4151 H   0  0  0  0  0  0
  -28.4289  -13.8450   21.7895 H   0  0  0  0  0  0
  -25.2781   -9.5673   22.4761 H   0  0  0  0  0  0
  -24.0002   -7.4635   22.7483 H   0  0  0  0  0  0
  -21.0861   -8.8772   19.8943 H   0  0  0  0  0  0
  -22.3731  -10.9665   19.6149 H   0  0  0  0  0  0
  -21.2014   -7.6149   23.9718 H   0  0  0  0  0  0
  -21.1487   -6.0521   25.9076 H   0  0  0  0  0  0
  -22.0594   -2.7607   23.2843 H   0  0  0  0  0  0
  -22.4089  -11.9806   22.4758 H   0  0  0  0  0  0
  -21.1090  -13.1175   22.2641 H   0  0  0  0  0  0
  -24.6341  -15.8356   20.5097 H   0  0  0  0  0  0
  -26.2484  -15.6400   20.0559 H   0  0  0  0  0  0
  -26.7175  -32.5431   23.1035 H   0  0  0  0  0  0
  -25.0171  -33.9748   25.0439 H   0  0  0  0  0  0
  -22.7213  -31.3029   21.3963 H   0  0  0  0  0  0
  -23.3775  -35.9594   23.3287 H   0  0  0  0  0  0
  -24.3590  -36.8921   22.2052 H   0  0  0  0  0  0
  -23.7252  -37.6460   23.6688 H   0  0  0  0  0  0
  -26.0870  -31.5299   20.5912 H   0  0  0  0  0  0
  -26.8592  -30.8416   21.9836 H   0  0  0  0  0  0
  -28.1035  -28.9107   21.2145 H   0  0  0  0  0  0
  -25.8906  -25.9114   19.0006 H   0  0  0  0  0  0
  -23.9632  -27.3269   18.9892 H   0  0  0  0  0  0
  -23.7592  -30.5966   19.3995 H   0  0  0  0  0  0
  -22.7606  -29.2489   19.8483 H   0  0  0  0  0  0
  -25.1307  -36.1887   25.0818 H   0  0  0  0  0  0
  -21.0011  -28.3249   24.1422 H   0  0  0  0  0  0
  -20.5763  -26.2282   23.3590 H   0  0  0  0  0  0
  -21.6648  -26.7476   22.1161 H   0  0  0  0  0  0
  -19.6936  -25.6318   21.1243 H   0  0  0  0  0  0
  -19.6723  -27.3215   20.6772 H   0  0  0  0  0  0
  -17.4226  -26.6739   21.4014 H   0  0  0  0  0  0
  -18.0309  -26.0110   22.9025 H   0  0  0  0  0  0
  -19.7936  -30.7310   24.2244 H   0  0  0  0  0  0
  -17.5005  -31.6268   24.5168 H   0  0  0  0  0  0
  -15.5356  -30.2969   23.7677 H   0  0  0  0  0  0
  -15.8700  -28.0848   22.7010 H   0  0  0  0  0  0
  -24.6053  -30.6872   25.7652 H   0  0  0  0  0  0
  -24.8781  -32.2789   26.4666 H   0  0  0  0  0  0
  -25.8082  -30.8942   27.0184 H   0  0  0  0  0  0
  -26.2871  -29.6769   24.1143 H   0  0  0  0  0  0
  -27.4196  -29.7255   25.4473 H   0  0  0  0  0  0
  -27.8691  -30.4360   23.9141 H   0  0  0  0  0  0
  -27.2802  -33.3671   26.1875 H   0  0  0  0  0  0
  -28.4013  -32.6629   25.0315 H   0  0  0  0  0  0
  -28.0632  -31.8434   26.5481 H   0  0  0  0  0  0
  -28.2540  -38.0126   24.7535 H   0  0  0  0  0  0
  -28.1129  -36.2644   24.6257 H   0  0  0  0  0  0
  -27.2287  -37.1359   25.8860 H   0  0  0  0  0  0
  -20.9384  -29.8753   21.6882 H   0  0  0  0  0  0
  -26.0156  -38.2827   24.1457 H   0  0  0  0  0  0
  -29.3351  -20.6338   22.7819 H   0  0  0  0  0  0
  -28.5271  -22.2260   18.8516 H   0  0  0  0  0  0
  -29.1583  -22.1243   24.6269 H   0  0  0  0  0  0
  -28.5582  -23.7650   24.4074 H   0  0  0  0  0  0
  -30.2879  -23.4261   24.2541 H   0  0  0  0  0  0
  -27.5170  -24.7621   18.9868 H   0  0  0  0  0  0
  -29.1897  -25.0504   18.8840 H   0  0  0  0  0  0
  -29.7824  -17.4795   22.0322 H   0  0  0  0  0  0
  -31.3304  -17.1697   21.3677 H   0  0  0  0  0  0
  -28.1788  -19.1838   20.9684 H   0  0  0  0  0  0
  -30.2184  -18.2728   19.1398 H   0  0  0  0  0  0
  -28.8495  -15.6918   20.7324 H   0  0  0  0  0  0
  -31.3982  -19.8396   21.2739 H   0  0  0  0  0  0
  -31.3742  -20.1930   19.6853 H   0  0  0  0  0  0
  -32.1832  -18.8858   20.2055 H   0  0  0  0  0  0
  -28.7054  -19.9962   18.3601 H   0  0  0  0  0  0
  1 25  1  0  0  0
  1 30  2  0  0  0
  1 82  1  0  0  0
  2  3  1  0  0  0
  2 25  1  0  0  0
  2 85  1  0  0  0
  2 86  1  0  0  0
  3  4  1  0  0  0
  3 87  1  0  0  0
  3 88  1  0  0  0
  4  5  1  0  0  0
  4 89  1  0  0  0
  4 90  1  0  0  0
  5  6  1  0  0  0
  5 26  1  0  0  0
  5 91  1  0  0  0
  6 25  1  0  0  0
  6 92  1  0  0  0
  6 93  1  0  0  0
  7  8  2  0  0  0
  7 26  1  0  0  0
  7 29  1  0  0  0
  8  9  1  0  0  0
  8 22  1  0  0  0
  9 10  1  0  0  0
  9 27  2  0  0  0
 10 11  2  0  0  0
 10 15  1  0  0  0
 11 12  1  0  0  0
 11 94  1  0  0  0
 12 13  2  0  0  0
 12 95  1  0  0  0
 13 14  1  0  0  0
 13 31  1  0  0  0
 14 15  2  0  0  0
 14 96  1  0  0  0
 15 97  1  0  0  0
 16 17  2  0  0  0
 16 21  1  0  0  0
 16 31  1  0  0  0
 17 18  1  0  0  0
 17 98  1  0  0  0
 18 19  2  0  0  0
 18 99  1  0  0  0
 19 20  1  0  0  0
 19 24  1  0  0  0
 20 21  2  0  0  0
 20100  1  0  0  0
 21 23  1  0  0  0
 22 28  1  0  0  0
 22 32  2  0  0  0
 26 27  1  0  0  0
 28101  1  0  0  0
 28102  1  0  0  0
 29103  1  0  0  0
 29104  1  0  0  0
 33 34  1  0  0  0
 33 66  1  0  0  0
 33 70  2  0  0  0
 34 36  1  0  0  0
 34 59  1  0  0  0
 34105  1  0  0  0
 35 44  2  0  0  0
 35 45  1  0  0  0
 35 68  1  0  0  0
 36 56  1  0  0  0
 36106  1  0  0  0
 37 39  1  0  0  0
 37 47  1  0  0  0
 37 66  1  0  0  0
 37107  1  0  0  0
 38 43  2  0  0  0
 38 46  1  0  0  0
 38 47  1  0  0  0
 39 64  1  0  0  0
 39 67  2  0  0  0
 40 52  1  0  0  0
 40 53  2  0  0  0
 40 58  1  0  0  0
 41108  1  0  0  0
 41109  1  0  0  0
 41110  1  0  0  0
 41 48  1  0  0  0
 42 43  1  0  0  0
 42 66  1  0  0  0
 42111  1  0  0  0
 42112  1  0  0  0
 43 44  1  0  0  0
 44113  1  0  0  0
 45 46  2  0  0  0
 45114  1  0  0  0
 46115  1  0  0  0
 47116  1  0  0  0
 47117  1  0  0  0
 48 56  1  0  0  0
 48 65  1  0  0  0
 48118  1  0  0  0
 49 50  1  0  0  0
 49 53  1  0  0  0
 49 64  1  0  0  0
 49119  1  0  0  0
 50 51  1  0  0  0
 50120  1  0  0  0
 50121  1  0  0  0
 51 52  1  0  0  0
 51122  1  0  0  0
 51123  1  0  0  0
 52124  1  0  0  0
 52125  1  0  0  0
 53 54  1  0  0  0
 54 55  2  0  0  0
 54126  1  0  0  0
 55 57  1  0  0  0
 55127  1  0  0  0
 56 69  2  0  0  0
 57 58  2  0  0  0
 57128  1  0  0  0
 58129  1  0  0  0
 59 60  1  0  0  0
 59 61  1  0  0  0
 59 62  1  0  0  0
 60130  1  0  0  0
 60131  1  0  0  0
 60132  1  0  0  0
 61133  1  0  0  0
 61134  1  0  0  0
 61135  1  0  0  0
 62136  1  0  0  0
 62137  1  0  0  0
 62138  1  0  0  0
 63 65  1  0  0  0
 63139  1  0  0  0
 63140  1  0  0  0
 63141  1  0  0  0
 64142  1  0  0  0
 65143  1  0  0  0
 68 77  1  0  0  0
 71 73  2  0  0  0
 71 74  1  0  0  0
 71144  1  0  0  0
 72 73  1  0  0  0
 72 75  2  0  0  0
 72145  1  0  0  0
 73 79  1  0  0  0
 74 76  1  0  0  0
 74 81  2  0  0  0
 75 77  1  0  0  0
 75 81  1  0  0  0
 76146  1  0  0  0
 76147  1  0  0  0
 76148  1  0  0  0
 77149  1  0  0  0
 77150  1  0  0  0
 78 80  1  0  0  0
 78 82  1  0  0  0
 78151  1  0  0  0
 78152  1  0  0  0
 79 80  1  0  0  0
 79 84  1  0  0  0
 79153  1  0  0  0
 80 83  1  0  0  0
 80154  1  0  0  0
 82155  1  0  0  0
 83156  1  0  0  0
 83157  1  0  0  0
 83158  1  0  0  0
 84159  1  0  0  0
M  CHG  1  83   1
M  ISO  4   1 100  68 101  77 101  82 100
M  END
> <chiral flag>
0

> <version>
0

> <s_m_source_file>
/data/baiqing/PycharmProjects/Reinvent-master-3.2/result/LINK_invent/BTK/process_docking_weight1_custom_sum_contain_oxygen_bond_distance_aromatic_linkinvent_7_9_3/rearranged_h_0122.sdf

> <i_m_source_file_index>
26

> <r_mmod_Potential_Energy-OPLS-2005>
-258.599060058594

> <r_mmod_Stretch_Energy-OPLS-2005>
130.931121826172

> <r_mmod_Bend_Energy-OPLS-2005>
193.688446044922

> <r_mmod_Torsional_Energy-OPLS-2005>
261.675598144531

> <r_mmod_Improper_Torsional_Energy-OPLS-2005>
5.1422290802002

> <r_mmod_Van_der_Waal_Energy-OPLS-2005>
143.386474609375

> <r_mmod_Electrostatic_Energy-OPLS-2005>
-514.96875

> <r_mmod_Solvation_Energy-OPLS-2005>
-563.546875

> <b_mmod_Minimization_Converged-OPLS-2005>
0

> <r_mmod_RMS_Derivative-OPLS-2005>
2.68979668617249

$$$$
26
                    3D
 Structure written by MMmdl.
170178  0  0  1  0            999 V2000
  -30.7519  -14.5475   20.4723 C   0  0  0  0  0  0
  -30.4040  -12.3348   19.4524 C   0  0  0  0  0  0
  -29.4891  -12.4566   18.2186 C   0  0  0  0  0  0
  -28.0178  -12.2774   18.6357 C   0  0  0  0  0  0
  -27.6316  -13.1799   19.8317 C   0  0  2  0  0  0
  -28.6863  -13.1308   20.9660 C   0  0  0  0  0  0
  -25.2509  -13.8055   20.5649 C   0  0  0  0  0  0
  -24.1778  -13.0369   20.9220 C   0  0  0  0  0  0
  -24.6322  -11.6837   20.8789 C   0  0  0  0  0  0
  -23.8998  -10.4250   21.0449 C   0  0  0  0  0  0
  -24.3573   -9.4169   21.9211 C   0  0  0  0  0  0
  -23.6264   -8.2201   22.0762 C   0  0  0  0  0  0
  -22.4250   -8.0248   21.3544 C   0  0  0  0  0  0
  -21.9876   -9.0218   20.4650 C   0  0  0  0  0  0
  -22.7189  -10.2103   20.3078 C   0  0  0  0  0  0
  -21.6834   -6.0715   22.5279 C   0  0  0  0  0  0
  -21.3998   -6.5625   23.8211 C   0  0  0  0  0  0
  -21.3661   -5.6783   24.9176 C   0  0  0  0  0  0
  -21.6050   -4.3047   24.7230 C   0  0  0  0  0  0
  -21.8821   -3.8135   23.4353 C   0  0  0  0  0  0
  -21.9188   -4.6947   22.3407 C   0  0  0  0  0  0
  -22.7817  -13.5203   21.1881 C   0  0  0  0  0  0
  -22.1660   -4.2134   21.0985 F   0  0  0  0  0  0
  -21.5637   -3.4534   25.7746 F   0  0  0  0  0  0
  -30.0093  -13.4020   20.3919 N   0  0  0  0  0  0
  -26.2875  -12.9156   20.3228 N   0  0  0  0  0  0
  -25.9225  -11.6365   20.5785 N   0  0  0  0  0  0
  -22.0447  -12.8216   22.0440 N   0  0  0  0  0  0
  -25.4179  -15.1774   20.4002 N   0  0  0  0  0  0
  -31.9595  -14.4843   20.2517 O   0  0  0  0  0  0
  -21.6616   -6.8849   21.4238 O   0  0  0  0  0  0
  -22.3524  -14.5519   20.6728 O   0  0  0  0  0  0
  -24.6121  -31.8698   23.2112 C   0  0  0  0  0  0
  -25.9022  -32.4835   23.8403 C   0  0  1  0  0  0
  -27.2341  -27.4448   20.1120 C   0  0  0  0  0  0
  -25.5887  -33.8632   24.2339 N   0  0  0  0  0  0
  -23.4003  -30.4912   21.5509 C   0  0  2  0  0  0
  -24.8492  -28.9529   20.1226 C   0  0  0  0  0  0
  -22.7398  -29.4665   22.5003 C   0  0  0  0  0  0
  -18.0268  -28.1378   22.8496 C   0  0  0  0  0  0
  -24.1487  -36.7322   23.2639 C   0  0  0  0  0  0
  -25.9264  -30.8380   21.3631 C   0  0  0  0  0  0
  -26.0058  -29.4680   20.7229 C   0  0  0  0  0  0
  -27.2033  -28.7190   20.7203 C   0  0  0  0  0  0
  -26.0684  -26.9405   19.5023 C   0  0  0  0  0  0
  -24.8735  -27.6858   19.5121 C   0  0  0  0  0  0
  -23.6103  -29.8193   20.1669 C   0  0  0  0  0  0
  -25.4107  -36.3122   24.0341 C   0  0  1  0  0  0
  -20.5858  -28.3662   23.1328 C   0  0  2  0  0  0
  -20.6761  -26.9401   22.5421 C   0  0  0  0  0  0
  -19.5742  -26.6389   21.5215 C   0  0  0  0  0  0
  -18.1917  -26.7926   22.1624 C   0  0  0  0  0  0
  -19.1518  -28.8836   23.2908 C   0  0  0  0  0  0
  -18.9448  -30.1442   23.8919 C   0  0  0  0  0  0
  -17.6452  -30.6585   24.0569 C   0  0  0  0  0  0
  -25.9032  -34.9484   23.5137 C   0  0  0  0  0  0
  -16.5342  -29.9091   23.6324 C   0  0  0  0  0  0
  -16.7260  -28.6507   23.0346 C   0  0  0  0  0  0
  -26.4462  -31.6603   25.0718 C   0  0  0  0  0  0
  -25.3735  -31.3698   26.1471 C   0  0  0  0  0  0
  -27.0292  -30.3054   24.6066 C   0  0  0  0  0  0
  -27.6049  -32.4314   25.7473 C   0  0  0  0  0  0
  -27.5583  -37.1815   24.8467 C   0  0  0  0  0  0
  -21.4130  -29.3032   22.3739 N   0  0  0  0  0  0
  -26.4301  -37.3799   23.9405 N   0  0  0  0  0  0
  -24.6643  -31.0807   22.1006 N   0  0  0  0  0  0
  -23.4178  -28.8206   23.3039 O   0  0  0  0  0  0
  -28.3966  -26.7195   20.0313 O   0  0  0  0  0  0
  -26.5593  -34.8931   22.4700 O   0  0  0  0  0  0
  -23.5317  -32.1444   23.7513 O   0  0  0  0  0  0
  -29.4545  -20.3434   20.9913 C   0  0  0  0  0  0
  -32.0022  -19.3921   19.3880 C   0  0  0  0  0  0
  -32.4388  -18.9666   17.9753 C   0  0  0  0  0  0
  -31.5013  -16.7137   18.3959 C   0  0  0  0  0  0
  -31.1634  -17.0642   19.8898 C   0  0  1  0  0  0
  -30.7645  -18.5826   19.8492 C   0  0  1  0  0  0
  -28.7550  -16.2641   20.1283 C   0  0  0  0  0  0
  -28.8529  -20.9280   22.2772 C   0  0  0  0  0  0
  -27.9705  -22.1929   22.0456 C   0  0  0  0  0  0
  -27.9687  -24.5362   21.1337 C   0  0  0  0  0  0
  -28.7137  -25.8948   21.1571 C   0  0  0  0  0  0
  -30.1978  -16.0240   20.6016 C   0  0  1  0  0  0
  -30.1508  -19.1866   21.0461 N   0  0  0  0  0  0
  -32.6483  -17.5063   17.8968 N   0  3  0  0  0  0
  -28.7426  -23.4378   21.7794 N   0  3  0  0  0  0
  -29.3006  -20.9571   19.9325 O   0  0  0  0  0  0
  -31.4494  -12.3913   19.1443 H   0  0  0  0  0  0
  -30.2902  -11.3572   19.9230 H   0  0  0  0  0  0
  -29.7591  -11.7058   17.4752 H   0  0  0  0  0  0
  -29.6282  -13.4280   17.7417 H   0  0  0  0  0  0
  -27.8735  -11.2294   18.9001 H   0  0  0  0  0  0
  -27.3580  -12.4700   17.7889 H   0  0  0  0  0  0
  -27.5923  -14.1624   19.3875 H   0  0  0  0  0  0
  -28.6884  -12.1461   21.4351 H   0  0  0  0  0  0
  -28.4526  -13.8354   21.7646 H   0  0  0  0  0  0
  -25.2718   -9.5646   22.4784 H   0  0  0  0  0  0
  -23.9978   -7.4582   22.7469 H   0  0  0  0  0  0
  -21.0811   -8.8729   19.8947 H   0  0  0  0  0  0
  -22.3651  -10.9647   19.6193 H   0  0  0  0  0  0
  -21.1979   -7.6130   23.9708 H   0  0  0  0  0  0
  -21.1487   -6.0514   25.9078 H   0  0  0  0  0  0
  -22.0603   -2.7597   23.2855 H   0  0  0  0  0  0
  -22.4040  -11.9873   22.4839 H   0  0  0  0  0  0
  -21.1072  -13.1260   22.2645 H   0  0  0  0  0  0
  -24.6479  -15.8275   20.5131 H   0  0  0  0  0  0
  -26.2670  -15.6205   20.0751 H   0  0  0  0  0  0
  -26.7096  -32.5563   23.1175 H   0  0  0  0  0  0
  -25.0039  -33.9798   25.0484 H   0  0  0  0  0  0
  -22.6884  -31.3070   21.4099 H   0  0  0  0  0  0
  -23.3744  -35.9660   23.3318 H   0  0  0  0  0  0
  -24.3582  -36.8917   22.2050 H   0  0  0  0  0  0
  -23.7243  -37.6534   23.6639 H   0  0  0  0  0  0
  -26.0303  -31.5972   20.5866 H   0  0  0  0  0  0
  -26.8178  -30.9014   21.9753 H   0  0  0  0  0  0
  -28.1008  -29.1200   21.1708 H   0  0  0  0  0  0
  -26.0877  -25.9755   19.0153 H   0  0  0  0  0  0
  -23.9859  -27.2848   19.0428 H   0  0  0  0  0  0
  -23.7188  -30.5920   19.4049 H   0  0  0  0  0  0
  -22.7352  -29.2371   19.8720 H   0  0  0  0  0  0
  -25.1283  -36.1998   25.0834 H   0  0  0  0  0  0
  -20.9947  -28.3226   24.1451 H   0  0  0  0  0  0
  -20.5673  -26.2267   23.3604 H   0  0  0  0  0  0
  -21.6632  -26.7453   22.1210 H   0  0  0  0  0  0
  -19.6906  -25.6306   21.1230 H   0  0  0  0  0  0
  -19.6683  -27.3213   20.6756 H   0  0  0  0  0  0
  -17.4190  -26.6678   21.4023 H   0  0  0  0  0  0
  -18.0317  -26.0064   22.9016 H   0  0  0  0  0  0
  -19.7925  -30.7248   24.2303 H   0  0  0  0  0  0
  -17.5010  -31.6268   24.5165 H   0  0  0  0  0  0
  -15.5345  -30.3002   23.7636 H   0  0  0  0  0  0
  -15.8658  -28.0834   22.7051 H   0  0  0  0  0  0
  -24.5902  -30.7055   25.7802 H   0  0  0  0  0  0
  -24.8930  -32.2850   26.4942 H   0  0  0  0  0  0
  -25.8091  -30.8847   27.0215 H   0  0  0  0  0  0
  -26.2825  -29.6818   24.1138 H   0  0  0  0  0  0
  -27.4099  -29.7287   25.4504 H   0  0  0  0  0  0
  -27.8642  -30.4392   23.9183 H   0  0  0  0  0  0
  -27.2678  -33.3600   26.2091 H   0  0  0  0  0  0
  -28.3833  -32.6896   25.0281 H   0  0  0  0  0  0
  -28.0745  -31.8412   26.5352 H   0  0  0  0  0  0
  -28.2614  -38.0100   24.7507 H   0  0  0  0  0  0
  -28.1066  -36.2634   24.6305 H   0  0  0  0  0  0
  -27.2299  -37.1480   25.8870 H   0  0  0  0  0  0
  -20.9289  -29.8753   21.6962 H   0  0  0  0  0  0
  -26.0198  -38.2883   24.1394 H   0  0  0  0  0  0
  -31.7967  -20.4623   19.3682 H   0  0  0  0  0  0
  -32.8238  -19.2607   20.0936 H   0  0  0  0  0  0
  -33.3562  -19.4823   17.6887 H   0  0  0  0  0  0
  -31.6785  -19.2572   17.2485 H   0  0  0  0  0  0
  -30.6345  -16.8964   17.7584 H   0  0  0  0  0  0
  -31.7566  -15.6729   18.2181 H   0  0  0  0  0  0
  -32.0936  -17.0087   20.4590 H   0  0  0  0  0  0
  -30.0059  -18.6794   19.0679 H   0  0  0  0  0  0
  -28.4652  -17.3099   20.2025 H   0  0  0  0  0  0
  -28.0427  -15.7522   20.7665 H   0  0  0  0  0  0
  -28.6237  -15.9820   19.0843 H   0  0  0  0  0  0
  -29.6480  -21.1354   22.9935 H   0  0  0  0  0  0
  -28.2329  -20.1491   22.7228 H   0  0  0  0  0  0
  -27.3417  -22.3624   22.9202 H   0  0  0  0  0  0
  -27.2803  -22.0087   21.2201 H   0  0  0  0  0  0
  -27.7793  -24.2427   20.1002 H   0  0  0  0  0  0
  -26.9947  -24.6509   21.6109 H   0  0  0  0  0  0
  -29.7893  -25.7239   21.1051 H   0  0  0  0  0  0
  -28.5368  -26.4211   22.0969 H   0  0  0  0  0  0
  -30.2172  -16.2453   21.6689 H   0  0  0  0  0  0
  -30.2565  -18.7188   21.9372 H   0  0  0  0  0  0
  -33.4746  -17.2567   18.4170 H   0  0  0  0  0  0
  -32.8245  -17.2582   16.9354 H   0  0  0  0  0  0
  -29.5145  -23.2083   21.1710 H   0  0  0  0  0  0
  -29.1274  -23.7632   22.6535 H   0  0  0  0  0  0
  1 25  1  0  0  0
  1 30  2  0  0  0
  1 82  1  0  0  0
  2  3  1  0  0  0
  2 25  1  0  0  0
  2 87  1  0  0  0
  2 88  1  0  0  0
  3  4  1  0  0  0
  3 89  1  0  0  0
  3 90  1  0  0  0
  4  5  1  0  0  0
  4 91  1  0  0  0
  4 92  1  0  0  0
  5  6  1  0  0  0
  5 26  1  0  0  0
  5 93  1  0  0  0
  6 25  1  0  0  0
  6 94  1  0  0  0
  6 95  1  0  0  0
  7  8  2  0  0  0
  7 26  1  0  0  0
  7 29  1  0  0  0
  8  9  1  0  0  0
  8 22  1  0  0  0
  9 10  1  0  0  0
  9 27  2  0  0  0
 10 11  2  0  0  0
 10 15  1  0  0  0
 11 12  1  0  0  0
 11 96  1  0  0  0
 12 13  2  0  0  0
 12 97  1  0  0  0
 13 14  1  0  0  0
 13 31  1  0  0  0
 14 15  2  0  0  0
 14 98  1  0  0  0
 15 99  1  0  0  0
 16 17  2  0  0  0
 16 21  1  0  0  0
 16 31  1  0  0  0
 17 18  1  0  0  0
 17100  1  0  0  0
 18 19  2  0  0  0
 18101  1  0  0  0
 19 20  1  0  0  0
 19 24  1  0  0  0
 20 21  2  0  0  0
 20102  1  0  0  0
 21 23  1  0  0  0
 22 28  1  0  0  0
 22 32  2  0  0  0
 26 27  1  0  0  0
 28103  1  0  0  0
 28104  1  0  0  0
 29105  1  0  0  0
 29106  1  0  0  0
 33 34  1  0  0  0
 33 66  1  0  0  0
 33 70  2  0  0  0
 34 36  1  0  0  0
 34 59  1  0  0  0
 34107  1  0  0  0
 35 44  2  0  0  0
 35 45  1  0  0  0
 35 68  1  0  0  0
 36 56  1  0  0  0
 36108  1  0  0  0
 37 39  1  0  0  0
 37 47  1  0  0  0
 37 66  1  0  0  0
 37109  1  0  0  0
 38 43  2  0  0  0
 38 46  1  0  0  0
 38 47  1  0  0  0
 39 64  1  0  0  0
 39 67  2  0  0  0
 40 52  1  0  0  0
 40 53  2  0  0  0
 40 58  1  0  0  0
 41110  1  0  0  0
 41111  1  0  0  0
 41112  1  0  0  0
 41 48  1  0  0  0
 42 43  1  0  0  0
 42 66  1  0  0  0
 42113  1  0  0  0
 42114  1  0  0  0
 43 44  1  0  0  0
 44115  1  0  0  0
 45 46  2  0  0  0
 45116  1  0  0  0
 46117  1  0  0  0
 47118  1  0  0  0
 47119  1  0  0  0
 48 56  1  0  0  0
 48 65  1  0  0  0
 48120  1  0  0  0
 49 50  1  0  0  0
 49 53  1  0  0  0
 49 64  1  0  0  0
 49121  1  0  0  0
 50 51  1  0  0  0
 50122  1  0  0  0
 50123  1  0  0  0
 51 52  1  0  0  0
 51124  1  0  0  0
 51125  1  0  0  0
 52126  1  0  0  0
 52127  1  0  0  0
 53 54  1  0  0  0
 54 55  2  0  0  0
 54128  1  0  0  0
 55 57  1  0  0  0
 55129  1  0  0  0
 56 69  2  0  0  0
 57 58  2  0  0  0
 57130  1  0  0  0
 58131  1  0  0  0
 59 60  1  0  0  0
 59 61  1  0  0  0
 59 62  1  0  0  0
 60132  1  0  0  0
 60133  1  0  0  0
 60134  1  0  0  0
 61135  1  0  0  0
 61136  1  0  0  0
 61137  1  0  0  0
 62138  1  0  0  0
 62139  1  0  0  0
 62140  1  0  0  0
 63 65  1  0  0  0
 63141  1  0  0  0
 63142  1  0  0  0
 63143  1  0  0  0
 64144  1  0  0  0
 65145  1  0  0  0
 68 81  1  0  0  0
 71 78  1  0  0  0
 71 83  1  0  0  0
 71 86  2  0  0  0
 72 73  1  0  0  0
 72 76  1  0  0  0
 72146  1  0  0  0
 72147  1  0  0  0
 73 84  1  0  0  0
 73148  1  0  0  0
 73149  1  0  0  0
 74 84  1  0  0  0
 74150  1  0  0  0
 74151  1  0  0  0
 74 75  1  0  0  0
 75 76  1  0  0  0
 75 82  1  0  0  0
 75152  1  0  0  0
 76 83  1  0  0  0
 76153  1  0  0  0
 77154  1  0  0  0
 77155  1  0  0  0
 77156  1  0  0  0
 77 82  1  0  0  0
 78 79  1  0  0  0
 78157  1  0  0  0
 78158  1  0  0  0
 79 85  1  0  0  0
 79159  1  0  0  0
 79160  1  0  0  0
 80 81  1  0  0  0
 80 85  1  0  0  0
 80161  1  0  0  0
 80162  1  0  0  0
 81163  1  0  0  0
 81164  1  0  0  0
 82165  1  0  0  0
 83166  1  0  0  0
 84167  1  0  0  0
 84168  1  0  0  0
 85169  1  0  0  0
 85170  1  0  0  0
M  CHG  2  84   1  85   1
M  ISO  4   1 100  68 101  81 101  82 100
M  END
> <chiral flag>
0

> <version>
0

> <s_m_source_file>
/data/baiqing/PycharmProjects/Reinvent-master-3.2/result/LINK_invent/BTK/process_docking_weight1_custom_sum_contain_oxygen_bond_distance_aromatic_linkinvent_7_9_3/rearranged_h_0122.sdf

> <i_m_source_file_index>
27

> <r_mmod_Potential_Energy-OPLS-2005>
-299.837341308594

> <r_mmod_Stretch_Energy-OPLS-2005>
47.5343780517578

> <r_mmod_Bend_Energy-OPLS-2005>
136.105880737305

> <r_mmod_Torsional_Energy-OPLS-2005>
246.846466064453

> <r_mmod_Improper_Torsional_Energy-OPLS-2005>
4.38296413421631

> <r_mmod_Van_der_Waal_Energy-OPLS-2005>
155.684814453125

> <r_mmod_Electrostatic_Energy-OPLS-2005>
-78.3833312988281

> <r_mmod_Solvation_Energy-OPLS-2005>
-847.912414550781

> <b_mmod_Minimization_Converged-OPLS-2005>
0

> <r_mmod_RMS_Derivative-OPLS-2005>
0.645353734493256

$$$$
27
                    3D
 Structure written by MMmdl.
170179  0  0  1  0            999 V2000
  -30.6471  -14.5121   20.5322 C   0  0  0  0  0  0
  -30.4354  -12.3245   19.4131 C   0  0  0  0  0  0
  -29.4928  -12.4931   18.2016 C   0  0  0  0  0  0
  -28.0134  -12.3484   18.6191 C   0  0  0  0  0  0
  -27.6566  -13.1957   19.8677 C   0  0  2  0  0  0
  -28.7037  -12.9862   20.9852 C   0  0  0  0  0  0
  -25.2584  -13.8124   20.5672 C   0  0  0  0  0  0
  -24.1825  -13.0425   20.9194 C   0  0  0  0  0  0
  -24.6362  -11.6888   20.8754 C   0  0  0  0  0  0
  -23.9029  -10.4290   21.0418 C   0  0  0  0  0  0
  -24.3585   -9.4216   21.9187 C   0  0  0  0  0  0
  -23.6279   -8.2240   22.0759 C   0  0  0  0  0  0
  -22.4264   -8.0272   21.3549 C   0  0  0  0  0  0
  -21.9888   -9.0243   20.4652 C   0  0  0  0  0  0
  -22.7201  -10.2127   20.3065 C   0  0  0  0  0  0
  -21.6852   -6.0732   22.5273 C   0  0  0  0  0  0
  -21.4011   -6.5642   23.8200 C   0  0  0  0  0  0
  -21.3658   -5.6795   24.9171 C   0  0  0  0  0  0
  -21.6042   -4.3063   24.7229 C   0  0  0  0  0  0
  -21.8818   -3.8145   23.4352 C   0  0  0  0  0  0
  -21.9192   -4.6955   22.3402 C   0  0  0  0  0  0
  -22.7858  -13.5240   21.1863 C   0  0  0  0  0  0
  -22.1662   -4.2133   21.0983 F   0  0  0  0  0  0
  -21.5630   -3.4546   25.7748 F   0  0  0  0  0  0
  -30.0269  -13.3089   20.4219 N   0  0  0  0  0  0
  -26.2983  -12.9273   20.3324 N   0  0  0  0  0  0
  -25.9284  -11.6451   20.5777 N   0  0  0  0  0  0
  -22.0497  -12.8223   22.0411 N   0  0  0  0  0  0
  -25.4313  -15.1859   20.4083 N   0  0  0  0  0  0
  -31.8165  -14.7086   20.1801 O   0  0  0  0  0  0
  -21.6643   -6.8858   21.4235 O   0  0  0  0  0  0
  -22.3545  -14.5548   20.6715 O   0  0  0  0  0  0
  -24.6162  -31.8650   23.2077 C   0  0  0  0  0  0
  -25.8999  -32.4837   23.8417 C   0  0  1  0  0  0
  -27.2465  -27.3929   20.1060 C   0  0  0  0  0  0
  -25.5861  -33.8624   24.2357 N   0  0  0  0  0  0
  -23.4142  -30.4805   21.5450 C   0  0  2  0  0  0
  -24.8673  -28.9333   20.1251 C   0  0  0  0  0  0
  -22.7458  -29.4586   22.4964 C   0  0  0  0  0  0
  -18.0284  -28.1367   22.8483 C   0  0  0  0  0  0
  -24.1487  -36.7302   23.2644 C   0  0  0  0  0  0
  -25.9470  -30.8091   21.3732 C   0  0  0  0  0  0
  -26.0235  -29.4401   20.7284 C   0  0  0  0  0  0
  -27.2142  -28.6703   20.7231 C   0  0  0  0  0  0
  -26.0688  -26.9135   19.4874 C   0  0  0  0  0  0
  -24.8844  -27.6712   19.5051 C   0  0  0  0  0  0
  -23.6362  -29.8064   20.1631 C   0  0  0  0  0  0
  -25.4112  -36.3124   24.0355 C   0  0  1  0  0  0
  -20.5884  -28.3654   23.1302 C   0  0  2  0  0  0
  -20.6771  -26.9379   22.5412 C   0  0  0  0  0  0
  -19.5748  -26.6372   21.5201 C   0  0  0  0  0  0
  -18.1936  -26.7908   22.1623 C   0  0  0  0  0  0
  -19.1540  -28.8815   23.2892 C   0  0  0  0  0  0
  -18.9462  -30.1432   23.8907 C   0  0  0  0  0  0
  -17.6466  -30.6564   24.0551 C   0  0  0  0  0  0
  -25.9010  -34.9484   23.5177 C   0  0  0  0  0  0
  -16.5355  -29.9067   23.6310 C   0  0  0  0  0  0
  -16.7282  -28.6477   23.0335 C   0  0  0  0  0  0
  -26.4456  -31.6611   25.0737 C   0  0  0  0  0  0
  -25.3708  -31.3698   26.1477 C   0  0  0  0  0  0
  -27.0286  -30.3046   24.6095 C   0  0  0  0  0  0
  -27.6058  -32.4321   25.7474 C   0  0  0  0  0  0
  -27.5589  -37.1818   24.8479 C   0  0  0  0  0  0
  -21.4168  -29.3028   22.3699 N   0  0  0  0  0  0
  -26.4316  -37.3809   23.9407 N   0  0  0  0  0  0
  -24.6778  -31.0656   22.1030 N   0  0  0  0  0  0
  -23.4177  -28.8079   23.3004 O   0  0  0  0  0  0
  -28.4222  -26.6641   20.1470 O   0  0  0  0  0  0
  -26.5581  -34.8929   22.4717 O   0  0  0  0  0  0
  -23.5314  -32.1409   23.7398 O   0  0  0  0  0  0
  -30.4906  -17.0735   22.5459 C   0  0  0  0  0  0
  -29.8084  -17.9778   20.3610 C   0  0  0  0  0  0
  -30.3922  -19.4846   22.1579 C   0  0  0  0  0  0
  -30.6360  -18.3970   22.9802 C   0  0  0  0  0  0
  -29.9540  -19.3247   20.8180 C   0  0  0  0  0  0
  -30.0835  -16.8576   21.2119 C   0  0  0  0  0  0
  -30.6267  -20.7323   22.9372 C   0  0  0  0  0  0
  -31.0182  -18.8948   24.3488 C   0  0  0  0  0  0
  -29.6974  -21.6382   25.8898 C   0  0  0  0  0  0
  -32.0291  -22.4029   25.1726 C   0  0  0  0  0  0
  -29.7288  -20.5267   19.8650 C   0  0  0  0  0  0
  -28.1483  -24.1171   20.1097 C   0  0  0  0  0  0
  -28.7866  -22.8279   19.4755 C   0  0  0  0  0  0
  -28.5818  -25.4432   19.3939 C   0  0  0  0  0  0
  -31.0887  -21.2017   25.3921 C   0  0  0  0  0  0
  -30.9637  -20.3580   24.1937 N   0  0  0  0  0  0
  -29.7954  -15.5254   20.8017 N   0  0  0  0  0  0
  -28.7923  -21.5969   20.3289 N   0  3  0  0  0  0
  -30.4596  -21.8724   22.4955 O   0  0  0  0  0  0
  -31.4739  -12.4584   19.1059 H   0  0  0  0  0  0
  -30.3691  -11.3160   19.8219 H   0  0  0  0  0  0
  -29.7341  -11.7573   17.4341 H   0  0  0  0  0  0
  -29.6493  -13.4719   17.7458 H   0  0  0  0  0  0
  -27.8309  -11.2933   18.8269 H   0  0  0  0  0  0
  -27.3595  -12.6088   17.7856 H   0  0  0  0  0  0
  -27.6900  -14.2386   19.5528 H   0  0  0  0  0  0
  -28.6909  -11.9532   21.3341 H   0  0  0  0  0  0
  -28.4703  -13.5936   21.8609 H   0  0  0  0  0  0
  -25.2725   -9.5704   22.4780 H   0  0  0  0  0  0
  -23.9990   -7.4636   22.7480 H   0  0  0  0  0  0
  -21.0819   -8.8757   19.8965 H   0  0  0  0  0  0
  -22.3645  -10.9675   19.6192 H   0  0  0  0  0  0
  -21.2006   -7.6147   23.9693 H   0  0  0  0  0  0
  -21.1482   -6.0538   25.9061 H   0  0  0  0  0  0
  -22.0602   -2.7609   23.2862 H   0  0  0  0  0  0
  -22.4105  -11.9867   22.4773 H   0  0  0  0  0  0
  -21.1124  -13.1273   22.2639 H   0  0  0  0  0  0
  -24.6641  -15.8411   20.5187 H   0  0  0  0  0  0
  -26.2737  -15.6250   20.0606 H   0  0  0  0  0  0
  -26.7061  -32.5526   23.1157 H   0  0  0  0  0  0
  -25.0026  -33.9839   25.0518 H   0  0  0  0  0  0
  -22.7082  -31.2960   21.3915 H   0  0  0  0  0  0
  -23.3775  -35.9617   23.3356 H   0  0  0  0  0  0
  -24.3569  -36.8847   22.2049 H   0  0  0  0  0  0
  -23.7214  -37.6518   23.6605 H   0  0  0  0  0  0
  -26.0607  -31.5714   20.6002 H   0  0  0  0  0  0
  -26.8324  -30.8732   21.9937 H   0  0  0  0  0  0
  -28.1057  -29.0495   21.2009 H   0  0  0  0  0  0
  -26.0387  -25.9551   18.9884 H   0  0  0  0  0  0
  -23.9924  -27.2823   19.0407 H   0  0  0  0  0  0
  -23.7691  -30.5740   19.4032 H   0  0  0  0  0  0
  -22.7668  -29.2249   19.8554 H   0  0  0  0  0  0
  -25.1291  -36.2047   25.0866 H   0  0  0  0  0  0
  -20.9989  -28.3225   24.1411 H   0  0  0  0  0  0
  -20.5669  -26.2251   23.3608 H   0  0  0  0  0  0
  -21.6639  -26.7399   22.1202 H   0  0  0  0  0  0
  -19.6915  -25.6288   21.1208 H   0  0  0  0  0  0
  -19.6695  -27.3201   20.6748 H   0  0  0  0  0  0
  -17.4205  -26.6658   21.4031 H   0  0  0  0  0  0
  -18.0348  -26.0041   22.9011 H   0  0  0  0  0  0
  -19.7942  -30.7233   24.2291 H   0  0  0  0  0  0
  -17.5018  -31.6256   24.5162 H   0  0  0  0  0  0
  -15.5362  -30.2979   23.7608 H   0  0  0  0  0  0
  -15.8682  -28.0806   22.7043 H   0  0  0  0  0  0
  -24.5905  -30.7028   25.7785 H   0  0  0  0  0  0
  -24.8861  -32.2838   26.4919 H   0  0  0  0  0  0
  -25.8059  -30.8863   27.0229 H   0  0  0  0  0  0
  -26.2817  -29.6837   24.1125 H   0  0  0  0  0  0
  -27.4038  -29.7272   25.4558 H   0  0  0  0  0  0
  -27.8686  -30.4398   23.9269 H   0  0  0  0  0  0
  -27.2713  -33.3611   26.2095 H   0  0  0  0  0  0
  -28.3830  -32.6868   25.0262 H   0  0  0  0  0  0
  -28.0749  -31.8383   26.5335 H   0  0  0  0  0  0
  -28.2649  -38.0078   24.7500 H   0  0  0  0  0  0
  -28.1054  -36.2608   24.6373 H   0  0  0  0  0  0
  -27.2285  -37.1542   25.8879 H   0  0  0  0  0  0
  -20.9340  -29.8773   21.6943 H   0  0  0  0  0  0
  -26.0231  -38.2914   24.1379 H   0  0  0  0  0  0
  -30.6537  -16.2512   23.2293 H   0  0  0  0  0  0
  -29.4877  -17.7993   19.3446 H   0  0  0  0  0  0
  -32.0190  -18.5612   24.6226 H   0  0  0  0  0  0
  -30.2996  -18.5515   25.0942 H   0  0  0  0  0  0
  -29.1728  -22.2433   25.1506 H   0  0  0  0  0  0
  -29.7706  -22.2265   26.8064 H   0  0  0  0  0  0
  -29.0768  -20.7697   26.1114 H   0  0  0  0  0  0
  -32.1888  -22.9511   26.1014 H   0  0  0  0  0  0
  -31.6294  -23.1106   24.4467 H   0  0  0  0  0  0
  -33.0066  -22.0712   24.8164 H   0  0  0  0  0  0
  -29.4015  -20.1603   18.8883 H   0  0  0  0  0  0
  -30.7132  -20.9728   19.7052 H   0  0  0  0  0  0
  -28.4441  -24.1847   21.1536 H   0  0  0  0  0  0
  -27.0581  -24.0292   20.0921 H   0  0  0  0  0  0
  -29.8213  -23.0536   19.2249 H   0  0  0  0  0  0
  -28.2906  -22.5880   18.5344 H   0  0  0  0  0  0
  -29.6499  -25.3919   19.1903 H   0  0  0  0  0  0
  -28.1466  -25.5313   18.3974 H   0  0  0  0  0  0
  -31.5368  -20.5855   26.1742 H   0  0  0  0  0  0
  -28.8333  -15.2404   20.8988 H   0  0  0  0  0  0
  -29.1279  -21.8634   21.2504 H   0  0  0  0  0  0
  -27.8642  -21.2146   20.4198 H   0  0  0  0  0  0
  1 25  1  0  0  0
  1 30  2  0  0  0
  1 87  1  0  0  0
  2  3  1  0  0  0
  2 25  1  0  0  0
  2 90  1  0  0  0
  2 91  1  0  0  0
  3  4  1  0  0  0
  3 92  1  0  0  0
  3 93  1  0  0  0
  4  5  1  0  0  0
  4 94  1  0  0  0
  4 95  1  0  0  0
  5  6  1  0  0  0
  5 26  1  0  0  0
  5 96  1  0  0  0
  6 25  1  0  0  0
  6 97  1  0  0  0
  6 98  1  0  0  0
  7  8  2  0  0  0
  7 26  1  0  0  0
  7 29  1  0  0  0
  8  9  1  0  0  0
  8 22  1  0  0  0
  9 10  1  0  0  0
  9 27  2  0  0  0
 10 11  2  0  0  0
 10 15  1  0  0  0
 11 12  1  0  0  0
 11 99  1  0  0  0
 12 13  2  0  0  0
 12100  1  0  0  0
 13 14  1  0  0  0
 13 31  1  0  0  0
 14 15  2  0  0  0
 14101  1  0  0  0
 15102  1  0  0  0
 16 17  2  0  0  0
 16 21  1  0  0  0
 16 31  1  0  0  0
 17 18  1  0  0  0
 17103  1  0  0  0
 18 19  2  0  0  0
 18104  1  0  0  0
 19 20  1  0  0  0
 19 24  1  0  0  0
 20 21  2  0  0  0
 20105  1  0  0  0
 21 23  1  0  0  0
 22 28  1  0  0  0
 22 32  2  0  0  0
 26 27  1  0  0  0
 28106  1  0  0  0
 28107  1  0  0  0
 29108  1  0  0  0
 29109  1  0  0  0
 33 34  1  0  0  0
 33 66  1  0  0  0
 33 70  2  0  0  0
 34 36  1  0  0  0
 34 59  1  0  0  0
 34110  1  0  0  0
 35 44  2  0  0  0
 35 45  1  0  0  0
 35 68  1  0  0  0
 36 56  1  0  0  0
 36111  1  0  0  0
 37 39  1  0  0  0
 37 47  1  0  0  0
 37 66  1  0  0  0
 37112  1  0  0  0
 38 43  2  0  0  0
 38 46  1  0  0  0
 38 47  1  0  0  0
 39 64  1  0  0  0
 39 67  2  0  0  0
 40 52  1  0  0  0
 40 53  2  0  0  0
 40 58  1  0  0  0
 41113  1  0  0  0
 41114  1  0  0  0
 41115  1  0  0  0
 41 48  1  0  0  0
 42 43  1  0  0  0
 42 66  1  0  0  0
 42116  1  0  0  0
 42117  1  0  0  0
 43 44  1  0  0  0
 44118  1  0  0  0
 45 46  2  0  0  0
 45119  1  0  0  0
 46120  1  0  0  0
 47121  1  0  0  0
 47122  1  0  0  0
 48 56  1  0  0  0
 48 65  1  0  0  0
 48123  1  0  0  0
 49 50  1  0  0  0
 49 53  1  0  0  0
 49 64  1  0  0  0
 49124  1  0  0  0
 50 51  1  0  0  0
 50125  1  0  0  0
 50126  1  0  0  0
 51 52  1  0  0  0
 51127  1  0  0  0
 51128  1  0  0  0
 52129  1  0  0  0
 52130  1  0  0  0
 53 54  1  0  0  0
 54 55  2  0  0  0
 54131  1  0  0  0
 55 57  1  0  0  0
 55132  1  0  0  0
 56 69  2  0  0  0
 57 58  2  0  0  0
 57133  1  0  0  0
 58134  1  0  0  0
 59 60  1  0  0  0
 59 61  1  0  0  0
 59 62  1  0  0  0
 60135  1  0  0  0
 60136  1  0  0  0
 60137  1  0  0  0
 61138  1  0  0  0
 61139  1  0  0  0
 61140  1  0  0  0
 62141  1  0  0  0
 62142  1  0  0  0
 62143  1  0  0  0
 63 65  1  0  0  0
 63144  1  0  0  0
 63145  1  0  0  0
 63146  1  0  0  0
 64147  1  0  0  0
 65148  1  0  0  0
 68 84  1  0  0  0
 71 74  2  0  0  0
 71 76  1  0  0  0
 71149  1  0  0  0
 72 75  1  0  0  0
 72 76  2  0  0  0
 72150  1  0  0  0
 73 74  1  0  0  0
 73 75  2  0  0  0
 73 77  1  0  0  0
 74 78  1  0  0  0
 75 81  1  0  0  0
 76 87  1  0  0  0
 77 86  1  0  0  0
 77 89  2  0  0  0
 78 86  1  0  0  0
 78151  1  0  0  0
 78152  1  0  0  0
 79153  1  0  0  0
 79154  1  0  0  0
 79155  1  0  0  0
 79 85  1  0  0  0
 80 85  1  0  0  0
 80156  1  0  0  0
 80157  1  0  0  0
 80158  1  0  0  0
 81 88  1  0  0  0
 81159  1  0  0  0
 81160  1  0  0  0
 82 83  1  0  0  0
 82 84  1  0  0  0
 82161  1  0  0  0
 82162  1  0  0  0
 83 88  1  0  0  0
 83163  1  0  0  0
 83164  1  0  0  0
 84165  1  0  0  0
 84166  1  0  0  0
 85 86  1  0  0  0
 85167  1  0  0  0
 87168  1  0  0  0
 88169  1  0  0  0
 88170  1  0  0  0
M  CHG  1  88   1
M  ISO  4   1 100  68 101  84 101  87 100
M  END
> <chiral flag>
0

> <version>
0

> <s_m_source_file>
/data/baiqing/PycharmProjects/Reinvent-master-3.2/result/LINK_invent/BTK/process_docking_weight1_custom_sum_contain_oxygen_bond_distance_aromatic_linkinvent_7_9_3/rearranged_h_0122.sdf

> <i_m_source_file_index>
28

> <r_mmod_Potential_Energy-OPLS-2005>
-117.663017272949

> <r_mmod_Stretch_Energy-OPLS-2005>
49.8504638671875

> <r_mmod_Bend_Energy-OPLS-2005>
180.555923461914

> <r_mmod_Torsional_Energy-OPLS-2005>
253.726608276367

> <r_mmod_Improper_Torsional_Energy-OPLS-2005>
8.10995197296143

> <r_mmod_Van_der_Waal_Energy-OPLS-2005>
148.045516967773

> <r_mmod_Electrostatic_Energy-OPLS-2005>
-326.504058837891

> <r_mmod_Solvation_Energy-OPLS-2005>
-453.203094482422

> <b_mmod_Minimization_Converged-OPLS-2005>
0

> <r_mmod_RMS_Derivative-OPLS-2005>
6.56981325149536

$$$$
28
                    3D
 Structure written by MMmdl.
171179  0  0  1  0            999 V2000
  -30.6881  -14.5259   20.5366 C   0  0  0  0  0  0
  -30.4227  -12.3305   19.4276 C   0  0  0  0  0  0
  -29.4882  -12.4988   18.2085 C   0  0  0  0  0  0
  -28.0121  -12.3650   18.6259 C   0  0  0  0  0  0
  -27.6551  -13.2114   19.8767 C   0  0  2  0  0  0
  -28.7063  -13.0249   20.9979 C   0  0  0  0  0  0
  -25.2477  -13.8156   20.5595 C   0  0  0  0  0  0
  -24.1770  -13.0413   20.9179 C   0  0  0  0  0  0
  -24.6369  -11.6911   20.8789 C   0  0  0  0  0  0
  -23.9075  -10.4280   21.0439 C   0  0  0  0  0  0
  -24.3626   -9.4182   21.9205 C   0  0  0  0  0  0
  -23.6296   -8.2221   22.0748 C   0  0  0  0  0  0
  -22.4279   -8.0263   21.3530 C   0  0  0  0  0  0
  -21.9933   -9.0253   20.4639 C   0  0  0  0  0  0
  -22.7274  -10.2133   20.3081 C   0  0  0  0  0  0
  -21.6841   -6.0729   22.5289 C   0  0  0  0  0  0
  -21.4017   -6.5639   23.8222 C   0  0  0  0  0  0
  -21.3665   -5.6783   24.9185 C   0  0  0  0  0  0
  -21.6050   -4.3044   24.7233 C   0  0  0  0  0  0
  -21.8830   -3.8155   23.4350 C   0  0  0  0  0  0
  -21.9188   -4.6974   22.3397 C   0  0  0  0  0  0
  -22.7785  -13.5183   21.1804 C   0  0  0  0  0  0
  -22.1676   -4.2174   21.0981 F   0  0  0  0  0  0
  -21.5600   -3.4511   25.7732 F   0  0  0  0  0  0
  -30.0297  -13.3361   20.4294 N   0  0  0  0  0  0
  -26.2969  -12.9361   20.3378 N   0  0  0  0  0  0
  -25.9314  -11.6538   20.5851 N   0  0  0  0  0  0
  -22.0483  -12.8223   22.0442 N   0  0  0  0  0  0
  -25.4039  -15.1859   20.3788 N   0  0  0  0  0  0
  -31.8248  -14.7070   20.1029 O   0  0  0  0  0  0
  -21.6636   -6.8875   21.4246 O   0  0  0  0  0  0
  -22.3449  -14.5437   20.6582 O   0  0  0  0  0  0
  -24.6161  -31.8692   23.2100 C   0  0  0  0  0  0
  -25.9064  -32.4825   23.8360 C   0  0  1  0  0  0
  -27.2245  -27.4146   20.0885 C   0  0  0  0  0  0
  -25.5941  -33.8619   24.2334 N   0  0  0  0  0  0
  -23.3997  -30.4955   21.5536 C   0  0  2  0  0  0
  -24.8437  -28.9642   20.1140 C   0  0  0  0  0  0
  -22.7408  -29.4661   22.5000 C   0  0  0  0  0  0
  -18.0263  -28.1388   22.8458 C   0  0  0  0  0  0
  -24.1502  -36.7315   23.2616 C   0  0  0  0  0  0
  -25.9312  -30.8307   21.3609 C   0  0  0  0  0  0
  -26.0081  -29.4617   20.7140 C   0  0  0  0  0  0
  -27.1975  -28.6918   20.7054 C   0  0  0  0  0  0
  -26.0406  -26.9558   19.4607 C   0  0  0  0  0  0
  -24.8579  -27.7126   19.4823 C   0  0  0  0  0  0
  -23.6066  -29.8326   20.1676 C   0  0  0  0  0  0
  -25.4119  -36.3112   24.0337 C   0  0  1  0  0  0
  -20.5851  -28.3681   23.1335 C   0  0  2  0  0  0
  -20.6763  -26.9422   22.5434 C   0  0  0  0  0  0
  -19.5760  -26.6386   21.5220 C   0  0  0  0  0  0
  -18.1928  -26.7918   22.1608 C   0  0  0  0  0  0
  -19.1505  -28.8844   23.2883 C   0  0  0  0  0  0
  -18.9441  -30.1440   23.8911 C   0  0  0  0  0  0
  -17.6446  -30.6586   24.0555 C   0  0  0  0  0  0
  -25.9046  -34.9484   23.5131 C   0  0  0  0  0  0
  -16.5333  -29.9098   23.6313 C   0  0  0  0  0  0
  -16.7252  -28.6516   23.0328 C   0  0  0  0  0  0
  -26.4478  -31.6564   25.0663 C   0  0  0  0  0  0
  -25.3739  -31.3674   26.1413 C   0  0  0  0  0  0
  -27.0248  -30.2998   24.5969 C   0  0  0  0  0  0
  -27.6100  -32.4211   25.7428 C   0  0  0  0  0  0
  -27.5598  -37.1817   24.8457 C   0  0  0  0  0  0
  -21.4141  -29.3043   22.3759 N   0  0  0  0  0  0
  -26.4297  -37.3810   23.9415 N   0  0  0  0  0  0
  -24.6678  -31.0784   22.1003 N   0  0  0  0  0  0
  -23.4174  -28.8205   23.3057 O   0  0  0  0  0  0
  -28.3790  -26.6452   20.1312 O   0  0  0  0  0  0
  -26.5595  -34.8935   22.4687 O   0  0  0  0  0  0
  -23.5374  -32.1451   23.7518 O   0  0  0  0  0  0
  -27.9862  -21.7876   21.5639 C   0  0  0  0  0  0
  -28.1334  -18.9463   17.7199 C   0  0  0  0  0  0
  -29.0623  -17.7629   17.4598 C   0  0  0  0  0  0
  -29.1796  -19.2991   19.9183 C   0  0  1  0  0  0
  -29.9808  -17.9184   19.7609 C   0  0  1  0  0  0
  -27.8134  -20.7549   22.6801 C   0  0  0  0  0  0
  -29.7108  -17.5328   22.3812 C   0  0  0  0  0  0
  -29.9120  -20.5140   20.6013 C   0  0  0  0  0  0
  -29.3701  -24.3265   20.3410 C   0  0  0  0  0  0
  -29.3339  -22.8599   19.7798 C   0  0  0  0  0  0
  -28.2493  -25.2474   19.7905 C   0  0  0  0  0  0
  -30.2837  -17.0170   21.0479 C   0  0  1  0  0  0
  -28.8252  -19.8699   18.6075 N   0  0  0  0  0  0
  -29.9210  -15.5706   20.9333 N   0  0  0  0  0  0
  -29.0717  -21.7486   20.7460 N   0  0  0  0  0  0
  -29.3161  -17.0761   18.7347 N   0  3  0  0  0  0
  -27.1123  -22.6521   21.4650 O   0  0  0  0  0  0
  -31.4677  -12.4261   19.1227 H   0  0  0  0  0  0
  -30.3220  -11.3277   19.8457 H   0  0  0  0  0  0
  -29.7183  -11.7544   17.4431 H   0  0  0  0  0  0
  -29.6502  -13.4751   17.7469 H   0  0  0  0  0  0
  -27.8259  -11.3075   18.8251 H   0  0  0  0  0  0
  -27.3571  -12.6410   17.7986 H   0  0  0  0  0  0
  -27.6835  -14.2551   19.5683 H   0  0  0  0  0  0
  -28.6987  -11.9996   21.3694 H   0  0  0  0  0  0
  -28.4730  -13.6470   21.8643 H   0  0  0  0  0  0
  -25.2764   -9.5641   22.4797 H   0  0  0  0  0  0
  -23.9973   -7.4595   22.7463 H   0  0  0  0  0  0
  -21.0852   -8.8817   19.8923 H   0  0  0  0  0  0
  -22.3730  -10.9693   19.6209 H   0  0  0  0  0  0
  -21.2042   -7.6155   23.9738 H   0  0  0  0  0  0
  -21.1465   -6.0515   25.9074 H   0  0  0  0  0  0
  -22.0607   -2.7619   23.2841 H   0  0  0  0  0  0
  -22.4132  -11.9902   22.4835 H   0  0  0  0  0  0
  -21.1096  -13.1249   22.2635 H   0  0  0  0  0  0
  -24.5781  -15.7771   20.3759 H   0  0  0  0  0  0
  -26.1795  -15.5998   19.8845 H   0  0  0  0  0  0
  -26.7127  -32.5542   23.1113 H   0  0  0  0  0  0
  -25.0118  -33.9757   25.0499 H   0  0  0  0  0  0
  -22.6850  -31.3113   21.4229 H   0  0  0  0  0  0
  -23.3766  -35.9645   23.3261 H   0  0  0  0  0  0
  -24.3592  -36.8933   22.2028 H   0  0  0  0  0  0
  -23.7255  -37.6521   23.6622 H   0  0  0  0  0  0
  -26.0287  -31.5840   20.5791 H   0  0  0  0  0  0
  -26.8253  -30.8946   21.9703 H   0  0  0  0  0  0
  -28.0911  -29.0680   21.1840 H   0  0  0  0  0  0
  -25.9980  -26.0109   18.9373 H   0  0  0  0  0  0
  -23.9708  -27.3254   19.0001 H   0  0  0  0  0  0
  -23.7203  -30.6093   19.4112 H   0  0  0  0  0  0
  -22.7264  -29.2594   19.8642 H   0  0  0  0  0  0
  -25.1296  -36.1965   25.0829 H   0  0  0  0  0  0
  -20.9910  -28.3252   24.1472 H   0  0  0  0  0  0
  -20.5691  -26.2285   23.3614 H   0  0  0  0  0  0
  -21.6646  -26.7492   22.1240 H   0  0  0  0  0  0
  -19.6937  -25.6307   21.1243 H   0  0  0  0  0  0
  -19.6710  -27.3192   20.6757 H   0  0  0  0  0  0
  -17.4206  -26.6644   21.3996 H   0  0  0  0  0  0
  -18.0340  -26.0061   22.9018 H   0  0  0  0  0  0
  -19.7921  -30.7231   24.2310 H   0  0  0  0  0  0
  -17.5016  -31.6273   24.5159 H   0  0  0  0  0  0
  -15.5338  -30.3022   23.7643 H   0  0  0  0  0  0
  -15.8635  -28.0853   22.7055 H   0  0  0  0  0  0
  -24.6034  -30.6853   25.7783 H   0  0  0  0  0  0
  -24.8774  -32.2798   26.4704 H   0  0  0  0  0  0
  -25.8119  -30.9012   27.0246 H   0  0  0  0  0  0
  -26.2738  -29.6819   24.1024 H   0  0  0  0  0  0
  -27.4011  -29.7169   25.4384 H   0  0  0  0  0  0
  -27.8583  -30.4296   23.9075 H   0  0  0  0  0  0
  -27.2800  -33.3555   26.1964 H   0  0  0  0  0  0
  -28.3937  -32.6650   25.0245 H   0  0  0  0  0  0
  -28.0686  -31.8295   26.5350 H   0  0  0  0  0  0
  -28.2619  -38.0122   24.7536 H   0  0  0  0  0  0
  -28.1097  -36.2658   24.6240 H   0  0  0  0  0  0
  -27.2304  -37.1405   25.8855 H   0  0  0  0  0  0
  -20.9316  -29.8777   21.6979 H   0  0  0  0  0  0
  -26.0188  -38.2888   24.1421 H   0  0  0  0  0  0
  -27.1809  -18.6248   18.1451 H   0  0  0  0  0  0
  -27.9089  -19.4512   16.7773 H   0  0  0  0  0  0
  -30.0008  -18.0921   17.0108 H   0  0  0  0  0  0
  -28.6044  -17.0735   16.7521 H   0  0  0  0  0  0
  -28.2519  -19.0850   20.4462 H   0  0  0  0  0  0
  -30.9541  -18.1813   19.3402 H   0  0  0  0  0  0
  -28.7577  -20.3650   23.0511 H   0  0  0  0  0  0
  -27.1972  -19.9247   22.3400 H   0  0  0  0  0  0
  -27.3104  -21.2112   23.5331 H   0  0  0  0  0  0
  -30.1973  -18.4467   22.7084 H   0  0  0  0  0  0
  -29.8850  -16.8166   23.1836 H   0  0  0  0  0  0
  -28.6367  -17.7123   22.3360 H   0  0  0  0  0  0
  -30.8129  -20.7503   20.0326 H   0  0  0  0  0  0
  -30.3144  -20.2418   21.5714 H   0  0  0  0  0  0
  -30.3266  -24.7761   20.0741 H   0  0  0  0  0  0
  -29.3407  -24.3329   21.4308 H   0  0  0  0  0  0
  -30.2851  -22.6842   19.2753 H   0  0  0  0  0  0
  -28.5909  -22.7984   18.9848 H   0  0  0  0  0  0
  -27.3123  -24.8474   20.1837 H   0  0  0  0  0  0
  -28.2103  -25.1728   18.7031 H   0  0  0  0  0  0
  -31.3681  -17.0435   21.1883 H   0  0  0  0  0  0
  -28.2381  -20.6885   18.7427 H   0  0  0  0  0  0
  -29.0079  -15.3082   21.2739 H   0  0  0  0  0  0
  -29.8833  -16.2635   18.5600 H   0  0  0  0  0  0
  -28.4258  -16.7914   19.1001 H   0  0  0  0  0  0
  1 25  1  0  0  0
  1 30  2  0  0  0
  1 84  1  0  0  0
  2  3  1  0  0  0
  2 25  1  0  0  0
  2 88  1  0  0  0
  2 89  1  0  0  0
  3  4  1  0  0  0
  3 90  1  0  0  0
  3 91  1  0  0  0
  4  5  1  0  0  0
  4 92  1  0  0  0
  4 93  1  0  0  0
  5  6  1  0  0  0
  5 26  1  0  0  0
  5 94  1  0  0  0
  6 25  1  0  0  0
  6 95  1  0  0  0
  6 96  1  0  0  0
  7  8  2  0  0  0
  7 26  1  0  0  0
  7 29  1  0  0  0
  8  9  1  0  0  0
  8 22  1  0  0  0
  9 10  1  0  0  0
  9 27  2  0  0  0
 10 11  2  0  0  0
 10 15  1  0  0  0
 11 12  1  0  0  0
 11 97  1  0  0  0
 12 13  2  0  0  0
 12 98  1  0  0  0
 13 14  1  0  0  0
 13 31  1  0  0  0
 14 15  2  0  0  0
 14 99  1  0  0  0
 15100  1  0  0  0
 16 17  2  0  0  0
 16 21  1  0  0  0
 16 31  1  0  0  0
 17 18  1  0  0  0
 17101  1  0  0  0
 18 19  2  0  0  0
 18102  1  0  0  0
 19 20  1  0  0  0
 19 24  1  0  0  0
 20 21  2  0  0  0
 20103  1  0  0  0
 21 23  1  0  0  0
 22 28  1  0  0  0
 22 32  2  0  0  0
 26 27  1  0  0  0
 28104  1  0  0  0
 28105  1  0  0  0
 29106  1  0  0  0
 29107  1  0  0  0
 33 34  1  0  0  0
 33 66  1  0  0  0
 33 70  2  0  0  0
 34 36  1  0  0  0
 34 59  1  0  0  0
 34108  1  0  0  0
 35 44  2  0  0  0
 35 45  1  0  0  0
 35 68  1  0  0  0
 36 56  1  0  0  0
 36109  1  0  0  0
 37 39  1  0  0  0
 37 47  1  0  0  0
 37 66  1  0  0  0
 37110  1  0  0  0
 38 43  2  0  0  0
 38 46  1  0  0  0
 38 47  1  0  0  0
 39 64  1  0  0  0
 39 67  2  0  0  0
 40 52  1  0  0  0
 40 53  2  0  0  0
 40 58  1  0  0  0
 41111  1  0  0  0
 41112  1  0  0  0
 41113  1  0  0  0
 41 48  1  0  0  0
 42 43  1  0  0  0
 42 66  1  0  0  0
 42114  1  0  0  0
 42115  1  0  0  0
 43 44  1  0  0  0
 44116  1  0  0  0
 45 46  2  0  0  0
 45117  1  0  0  0
 46118  1  0  0  0
 47119  1  0  0  0
 47120  1  0  0  0
 48 56  1  0  0  0
 48 65  1  0  0  0
 48121  1  0  0  0
 49 50  1  0  0  0
 49 53  1  0  0  0
 49 64  1  0  0  0
 49122  1  0  0  0
 50 51  1  0  0  0
 50123  1  0  0  0
 50124  1  0  0  0
 51 52  1  0  0  0
 51125  1  0  0  0
 51126  1  0  0  0
 52127  1  0  0  0
 52128  1  0  0  0
 53 54  1  0  0  0
 54 55  2  0  0  0
 54129  1  0  0  0
 55 57  1  0  0  0
 55130  1  0  0  0
 56 69  2  0  0  0
 57 58  2  0  0  0
 57131  1  0  0  0
 58132  1  0  0  0
 59 60  1  0  0  0
 59 61  1  0  0  0
 59 62  1  0  0  0
 60133  1  0  0  0
 60134  1  0  0  0
 60135  1  0  0  0
 61136  1  0  0  0
 61137  1  0  0  0
 61138  1  0  0  0
 62139  1  0  0  0
 62140  1  0  0  0
 62141  1  0  0  0
 63 65  1  0  0  0
 63142  1  0  0  0
 63143  1  0  0  0
 63144  1  0  0  0
 64145  1  0  0  0
 65146  1  0  0  0
 68 81  1  0  0  0
 71 76  1  0  0  0
 71 85  1  0  0  0
 71 87  2  0  0  0
 72 73  1  0  0  0
 72 83  1  0  0  0
 72147  1  0  0  0
 72148  1  0  0  0
 73 86  1  0  0  0
 73149  1  0  0  0
 73150  1  0  0  0
 74 75  1  0  0  0
 74 78  1  0  0  0
 74 83  1  0  0  0
 74151  1  0  0  0
 75 82  1  0  0  0
 75 86  1  0  0  0
 75152  1  0  0  0
 76153  1  0  0  0
 76154  1  0  0  0
 76155  1  0  0  0
 77156  1  0  0  0
 77157  1  0  0  0
 77158  1  0  0  0
 77 82  1  0  0  0
 78 85  1  0  0  0
 78159  1  0  0  0
 78160  1  0  0  0
 79 80  1  0  0  0
 79 81  1  0  0  0
 79161  1  0  0  0
 79162  1  0  0  0
 80 85  1  0  0  0
 80163  1  0  0  0
 80164  1  0  0  0
 81165  1  0  0  0
 81166  1  0  0  0
 82 84  1  0  0  0
 82167  1  0  0  0
 83168  1  0  0  0
 84169  1  0  0  0
 86170  1  0  0  0
 86171  1  0  0  0
M  CHG  1  86   1
M  ISO  4   1 100  68 101  81 101  84 100
M  END
> <chiral flag>
0

> <version>
0

> <s_m_source_file>
/data/baiqing/PycharmProjects/Reinvent-master-3.2/result/LINK_invent/BTK/process_docking_weight1_custom_sum_contain_oxygen_bond_distance_aromatic_linkinvent_7_9_3/rearranged_h_0122.sdf

> <i_m_source_file_index>
29

> <r_mmod_Potential_Energy-OPLS-2005>
-99.3862686157227

> <r_mmod_Stretch_Energy-OPLS-2005>
63.5750389099121

> <r_mmod_Bend_Energy-OPLS-2005>
129.905731201172

> <r_mmod_Torsional_Energy-OPLS-2005>
314.187957763672

> <r_mmod_Improper_Torsional_Energy-OPLS-2005>
7.26997137069702

> <r_mmod_Van_der_Waal_Energy-OPLS-2005>
155.521255493164

> <r_mmod_Electrostatic_Energy-OPLS-2005>
-297.151214599609

> <r_mmod_Solvation_Energy-OPLS-2005>
-492.39892578125

> <b_mmod_Minimization_Converged-OPLS-2005>
0

> <r_mmod_RMS_Derivative-OPLS-2005>
4.69578647613525

$$$$
29
                    3D
 Structure written by MMmdl.
180188  0  0  1  0            999 V2000
  -30.6880  -14.4326   20.6294 C   0  0  0  0  0  0
  -30.4318  -12.2970   19.4031 C   0  0  0  0  0  0
  -29.5030  -12.5214   18.1943 C   0  0  0  0  0  0
  -28.0214  -12.3866   18.6034 C   0  0  0  0  0  0
  -27.6701  -13.1952   19.8809 C   0  0  2  0  0  0
  -28.7056  -12.9258   20.9966 C   0  0  0  0  0  0
  -25.2452  -13.8033   20.5380 C   0  0  0  0  0  0
  -24.1819  -13.0325   20.9113 C   0  0  0  0  0  0
  -24.6411  -11.6813   20.8764 C   0  0  0  0  0  0
  -23.9066  -10.4274   21.0428 C   0  0  0  0  0  0
  -24.3633   -9.4183   21.9185 C   0  0  0  0  0  0
  -23.6315   -8.2213   22.0727 C   0  0  0  0  0  0
  -22.4303   -8.0251   21.3504 C   0  0  0  0  0  0
  -21.9931   -9.0226   20.4608 C   0  0  0  0  0  0
  -22.7241  -10.2113   20.3050 C   0  0  0  0  0  0
  -21.6845   -6.0743   22.5280 C   0  0  0  0  0  0
  -21.4001   -6.5640   23.8207 C   0  0  0  0  0  0
  -21.3671   -5.6778   24.9168 C   0  0  0  0  0  0
  -21.6053   -4.3058   24.7208 C   0  0  0  0  0  0
  -21.8804   -3.8146   23.4332 C   0  0  0  0  0  0
  -21.9191   -4.6973   22.3388 C   0  0  0  0  0  0
  -22.7899  -13.5141   21.1824 C   0  0  0  0  0  0
  -22.1666   -4.2154   21.0973 F   0  0  0  0  0  0
  -21.5639   -3.4540   25.7728 F   0  0  0  0  0  0
  -30.0417  -13.2467   20.4567 N   0  0  0  0  0  0
  -26.3035  -12.9256   20.3326 N   0  0  0  0  0  0
  -25.9350  -11.6443   20.5844 N   0  0  0  0  0  0
  -22.0590  -12.8214   22.0464 N   0  0  0  0  0  0
  -25.3912  -15.1720   20.3393 N   0  0  0  0  0  0
  -31.7762  -14.7022   20.1040 O   0  0  0  0  0  0
  -21.6610   -6.8891   21.4248 O   0  0  0  0  0  0
  -22.3620  -14.5453   20.6618 O   0  0  0  0  0  0
  -24.6058  -31.8712   23.2172 C   0  0  0  0  0  0
  -25.8956  -32.4868   23.8423 C   0  0  1  0  0  0
  -27.2335  -27.4681   20.0942 C   0  0  0  0  0  0
  -25.5799  -33.8663   24.2346 N   0  0  0  0  0  0
  -23.3930  -30.4940   21.5617 C   0  0  2  0  0  0
  -24.8400  -28.9760   20.1084 C   0  0  0  0  0  0
  -22.7460  -29.4556   22.5041 C   0  0  0  0  0  0
  -18.0374  -28.1259   22.8540 C   0  0  0  0  0  0
  -24.1482  -36.7324   23.2646 C   0  0  0  0  0  0
  -25.9200  -30.8552   21.3612 C   0  0  0  0  0  0
  -25.9976  -29.4932   20.7010 C   0  0  0  0  0  0
  -27.1939  -28.7498   20.6798 C   0  0  0  0  0  0
  -26.0542  -26.9498   19.5108 C   0  0  0  0  0  0
  -24.8654  -27.7049   19.5082 C   0  0  0  0  0  0
  -23.5950  -29.8366   20.1678 C   0  0  0  0  0  0
  -25.4104  -36.3177   24.0359 C   0  0  1  0  0  0
  -20.5964  -28.3465   23.1305 C   0  0  2  0  0  0
  -20.6901  -26.9169   22.5474 C   0  0  0  0  0  0
  -19.5698  -26.5801   21.5514 C   0  0  0  0  0  0
  -18.1968  -26.7626   22.2072 C   0  0  0  0  0  0
  -19.1660  -28.8758   23.2763 C   0  0  0  0  0  0
  -18.9645  -30.1486   23.8574 C   0  0  0  0  0  0
  -17.6679  -30.6668   24.0257 C   0  0  0  0  0  0
  -25.8983  -34.9512   23.5179 C   0  0  0  0  0  0
  -16.5535  -29.9046   23.6280 C   0  0  0  0  0  0
  -16.7382  -28.6368   23.0475 C   0  0  0  0  0  0
  -26.4436  -31.6642   25.0735 C   0  0  0  0  0  0
  -25.3734  -31.3638   26.1496 C   0  0  0  0  0  0
  -27.0247  -30.3100   24.6067 C   0  0  0  0  0  0
  -27.6055  -32.4330   25.7459 C   0  0  0  0  0  0
  -27.5593  -37.1822   24.8483 C   0  0  0  0  0  0
  -21.4219  -29.2904   22.3809 N   0  0  0  0  0  0
  -26.4297  -37.3839   23.9441 N   0  0  0  0  0  0
  -24.6603  -31.0873   22.1040 N   0  0  0  0  0  0
  -23.4317  -28.8026   23.2965 O   0  0  0  0  0  0
  -28.4499  -26.8163   20.0741 O   0  0  0  0  0  0
  -26.5592  -34.8929   22.4769 O   0  0  0  0  0  0
  -23.5257  -32.1369   23.7593 O   0  0  0  0  0  0
  -27.7702  -16.7278   22.3386 C   0  0  0  0  0  0
  -26.8188  -17.4866   23.2661 C   0  0  0  0  0  0
  -29.0486  -18.9504   22.4367 C   0  0  0  0  0  0
  -28.9111  -17.5735   21.7252 C   0  0  2  0  0  0
  -26.4384  -18.8570   22.6979 C   0  0  2  0  0  0
  -27.7203  -19.7649   22.6588 C   0  0  2  0  0  0
  -22.8064  -19.1808   22.8983 C   0  0  0  0  0  0
  -23.8176  -21.4915   23.1610 C   0  0  0  0  0  0
  -27.6765  -22.6391   23.7581 C   0  0  0  0  0  0
  -25.2694  -19.4349   23.5493 C   0  0  0  0  0  0
  -27.5676  -20.9757   21.6832 C   0  0  0  0  0  0
  -30.2391  -16.7494   21.6392 C   0  0  0  0  0  0
  -28.4644  -24.8196   21.4995 C   0  0  0  0  0  0
  -28.7388  -23.2917   21.5340 C   0  0  0  0  0  0
  -28.5165  -25.3919   20.0666 C   0  0  0  0  0  0
  -24.0822  -20.0325   22.7444 C   0  0  0  0  0  0
  -27.6380  -22.4491   22.2253 C   0  0  2  0  0  0
  -29.9962  -15.3221   21.3509 N   0  0  0  0  0  0
  -31.4777  -12.4104   19.1111 H   0  0  0  0  0  0
  -30.3369  -11.2711   19.7580 H   0  0  0  0  0  0
  -29.7412  -11.8134   17.3963 H   0  0  0  0  0  0
  -29.6802  -13.5146   17.7809 H   0  0  0  0  0  0
  -27.8290  -11.3276   18.7687 H   0  0  0  0  0  0
  -27.3759  -12.6911   17.7772 H   0  0  0  0  0  0
  -27.7443  -14.2534   19.6171 H   0  0  0  0  0  0
  -28.6871  -11.8744   21.2846 H   0  0  0  0  0  0
  -28.4530  -13.4752   21.9076 H   0  0  0  0  0  0
  -25.2811   -9.5628   22.4725 H   0  0  0  0  0  0
  -23.9980   -7.4628   22.7481 H   0  0  0  0  0  0
  -21.0828   -8.8730   19.8987 H   0  0  0  0  0  0
  -22.3704  -10.9621   19.6121 H   0  0  0  0  0  0
  -21.1980   -7.6143   23.9716 H   0  0  0  0  0  0
  -21.1527   -6.0517   25.9068 H   0  0  0  0  0  0
  -22.0589   -2.7620   23.2814 H   0  0  0  0  0  0
  -22.4179  -11.9808   22.4800 H   0  0  0  0  0  0
  -21.1179  -13.1153   22.2658 H   0  0  0  0  0  0
  -24.6480  -15.8391   20.5110 H   0  0  0  0  0  0
  -26.2530  -15.6222   20.0631 H   0  0  0  0  0  0
  -26.7002  -32.5580   23.1150 H   0  0  0  0  0  0
  -24.9979  -33.9851   25.0503 H   0  0  0  0  0  0
  -22.6681  -31.3027   21.4352 H   0  0  0  0  0  0
  -23.3766  -35.9628   23.3340 H   0  0  0  0  0  0
  -24.3551  -36.8888   22.2047 H   0  0  0  0  0  0
  -23.7172  -37.6505   23.6622 H   0  0  0  0  0  0
  -26.0292  -31.6375   20.6066 H   0  0  0  0  0  0
  -26.8068  -30.8987   21.9816 H   0  0  0  0  0  0
  -28.0956  -29.1605   21.1173 H   0  0  0  0  0  0
  -26.0270  -25.9850   19.0261 H   0  0  0  0  0  0
  -23.9719  -27.3013   19.0511 H   0  0  0  0  0  0
  -23.6820  -30.6238   19.4162 H   0  0  0  0  0  0
  -22.7189  -29.2549   19.8756 H   0  0  0  0  0  0
  -25.1279  -36.2061   25.0842 H   0  0  0  0  0  0
  -21.0005  -28.2963   24.1450 H   0  0  0  0  0  0
  -20.6084  -26.2062   23.3714 H   0  0  0  0  0  0
  -21.6709  -26.7184   22.1104 H   0  0  0  0  0  0
  -19.6731  -25.5512   21.2115 H   0  0  0  0  0  0
  -19.6558  -27.2019   20.6598 H   0  0  0  0  0  0
  -17.4018  -26.5891   21.4769 H   0  0  0  0  0  0
  -18.0566  -26.0127   22.9863 H   0  0  0  0  0  0
  -19.8196  -30.7327   24.1711 H   0  0  0  0  0  0
  -17.5363  -31.6480   24.4551 H   0  0  0  0  0  0
  -15.5564  -30.3004   23.7684 H   0  0  0  0  0  0
  -15.8794  -28.0515   22.7523 H   0  0  0  0  0  0
  -24.5937  -30.6972   25.7816 H   0  0  0  0  0  0
  -24.8878  -32.2721   26.5059 H   0  0  0  0  0  0
  -25.8104  -30.8736   27.0204 H   0  0  0  0  0  0
  -26.2756  -29.6864   24.1177 H   0  0  0  0  0  0
  -27.4091  -29.7344   25.4497 H   0  0  0  0  0  0
  -27.8576  -30.4456   23.9161 H   0  0  0  0  0  0
  -27.2741  -33.3622   26.2099 H   0  0  0  0  0  0
  -28.3800  -32.6872   25.0222 H   0  0  0  0  0  0
  -28.0801  -31.8411   26.5286 H   0  0  0  0  0  0
  -28.2670  -38.0084   24.7562 H   0  0  0  0  0  0
  -28.1049  -36.2620   24.6305 H   0  0  0  0  0  0
  -27.2327  -37.1490   25.8893 H   0  0  0  0  0  0
  -20.9321  -29.8754   21.7240 H   0  0  0  0  0  0
  -26.0222  -38.2935   24.1399 H   0  0  0  0  0  0
  -27.2206  -16.3199   21.5015 H   0  0  0  0  0  0
  -28.1139  -15.8617   22.9003 H   0  0  0  0  0  0
  -27.3089  -17.6275   24.2294 H   0  0  0  0  0  0
  -25.9477  -16.8577   23.4460 H   0  0  0  0  0  0
  -29.7926  -19.5637   21.9274 H   0  0  0  0  0  0
  -29.4855  -18.7475   23.4151 H   0  0  0  0  0  0
  -28.6132  -17.8076   20.6989 H   0  0  0  0  0  0
  -26.0864  -18.6867   21.6743 H   0  0  0  0  0  0
  -27.8309  -20.1453   23.6696 H   0  0  0  0  0  0
  -21.9688  -19.5683   22.3127 H   0  0  0  0  0  0
  -22.4773  -19.1462   23.9364 H   0  0  0  0  0  0
  -22.9714  -18.1496   22.5764 H   0  0  0  0  0  0
  -23.0383  -21.9412   22.5496 H   0  0  0  0  0  0
  -24.7121  -22.0983   23.0449 H   0  0  0  0  0  0
  -23.5098  -21.5620   24.2067 H   0  0  0  0  0  0
  -26.9203  -22.0307   24.2596 H   0  0  0  0  0  0
  -27.4569  -23.6736   24.0335 H   0  0  0  0  0  0
  -28.6426  -22.3734   24.1817 H   0  0  0  0  0  0
  -25.6610  -20.1577   24.2674 H   0  0  0  0  0  0
  -24.8665  -18.6572   24.1950 H   0  0  0  0  0  0
  -26.6087  -20.8673   21.1719 H   0  0  0  0  0  0
  -28.2689  -20.8550   20.8560 H   0  0  0  0  0  0
  -30.7646  -16.8137   22.5937 H   0  0  0  0  0  0
  -30.9203  -17.1741   20.8982 H   0  0  0  0  0  0
  -29.2202  -25.3311   22.1072 H   0  0  0  0  0  0
  -27.5099  -25.0680   21.9598 H   0  0  0  0  0  0
  -29.6997  -23.1039   22.0133 H   0  0  0  0  0  0
  -28.8714  -22.9432   20.5089 H   0  0  0  0  0  0
  -27.7755  -24.9173   19.4271 H   0  0  0  0  0  0
  -29.4857  -25.1383   19.6306 H   0  0  0  0  0  0
  -24.3265  -20.0426   21.6813 H   0  0  0  0  0  0
  -26.6955  -22.8969   21.9049 H   0  0  0  0  0  0
  -29.1435  -14.9425   21.7369 H   0  0  0  0  0  0
  1 25  1  0  0  0
  1 30  2  0  0  0
  1 88  1  0  0  0
  2  3  1  0  0  0
  2 25  1  0  0  0
  2 89  1  0  0  0
  2 90  1  0  0  0
  3  4  1  0  0  0
  3 91  1  0  0  0
  3 92  1  0  0  0
  4  5  1  0  0  0
  4 93  1  0  0  0
  4 94  1  0  0  0
  5  6  1  0  0  0
  5 26  1  0  0  0
  5 95  1  0  0  0
  6 25  1  0  0  0
  6 96  1  0  0  0
  6 97  1  0  0  0
  7  8  2  0  0  0
  7 26  1  0  0  0
  7 29  1  0  0  0
  8  9  1  0  0  0
  8 22  1  0  0  0
  9 10  1  0  0  0
  9 27  2  0  0  0
 10 11  2  0  0  0
 10 15  1  0  0  0
 11 12  1  0  0  0
 11 98  1  0  0  0
 12 13  2  0  0  0
 12 99  1  0  0  0
 13 14  1  0  0  0
 13 31  1  0  0  0
 14 15  2  0  0  0
 14100  1  0  0  0
 15101  1  0  0  0
 16 17  2  0  0  0
 16 21  1  0  0  0
 16 31  1  0  0  0
 17 18  1  0  0  0
 17102  1  0  0  0
 18 19  2  0  0  0
 18103  1  0  0  0
 19 20  1  0  0  0
 19 24  1  0  0  0
 20 21  2  0  0  0
 20104  1  0  0  0
 21 23  1  0  0  0
 22 28  1  0  0  0
 22 32  2  0  0  0
 26 27  1  0  0  0
 28105  1  0  0  0
 28106  1  0  0  0
 29107  1  0  0  0
 29108  1  0  0  0
 33 34  1  0  0  0
 33 66  1  0  0  0
 33 70  2  0  0  0
 34 36  1  0  0  0
 34 59  1  0  0  0
 34109  1  0  0  0
 35 44  2  0  0  0
 35 45  1  0  0  0
 35 68  1  0  0  0
 36 56  1  0  0  0
 36110  1  0  0  0
 37 39  1  0  0  0
 37 47  1  0  0  0
 37 66  1  0  0  0
 37111  1  0  0  0
 38 43  2  0  0  0
 38 46  1  0  0  0
 38 47  1  0  0  0
 39 64  1  0  0  0
 39 67  2  0  0  0
 40 52  1  0  0  0
 40 53  2  0  0  0
 40 58  1  0  0  0
 41112  1  0  0  0
 41113  1  0  0  0
 41114  1  0  0  0
 41 48  1  0  0  0
 42 43  1  0  0  0
 42 66  1  0  0  0
 42115  1  0  0  0
 42116  1  0  0  0
 43 44  1  0  0  0
 44117  1  0  0  0
 45 46  2  0  0  0
 45118  1  0  0  0
 46119  1  0  0  0
 47120  1  0  0  0
 47121  1  0  0  0
 48 56  1  0  0  0
 48 65  1  0  0  0
 48122  1  0  0  0
 49 50  1  0  0  0
 49 53  1  0  0  0
 49 64  1  0  0  0
 49123  1  0  0  0
 50 51  1  0  0  0
 50124  1  0  0  0
 50125  1  0  0  0
 51 52  1  0  0  0
 51126  1  0  0  0
 51127  1  0  0  0
 52128  1  0  0  0
 52129  1  0  0  0
 53 54  1  0  0  0
 54 55  2  0  0  0
 54130  1  0  0  0
 55 57  1  0  0  0
 55131  1  0  0  0
 56 69  2  0  0  0
 57 58  2  0  0  0
 57132  1  0  0  0
 58133  1  0  0  0
 59 60  1  0  0  0
 59 61  1  0  0  0
 59 62  1  0  0  0
 60134  1  0  0  0
 60135  1  0  0  0
 60136  1  0  0  0
 61137  1  0  0  0
 61138  1  0  0  0
 61139  1  0  0  0
 62140  1  0  0  0
 62141  1  0  0  0
 62142  1  0  0  0
 63 65  1  0  0  0
 63143  1  0  0  0
 63144  1  0  0  0
 63145  1  0  0  0
 64146  1  0  0  0
 65147  1  0  0  0
 68 85  1  0  0  0
 71 72  1  0  0  0
 71 74  1  0  0  0
 71148  1  0  0  0
 71149  1  0  0  0
 72 75  1  0  0  0
 72150  1  0  0  0
 72151  1  0  0  0
 73 74  1  0  0  0
 73 76  1  0  0  0
 73152  1  0  0  0
 73153  1  0  0  0
 74 82  1  0  0  0
 74154  1  0  0  0
 75 76  1  0  0  0
 75 80  1  0  0  0
 75155  1  0  0  0
 76 81  1  0  0  0
 76156  1  0  0  0
 77157  1  0  0  0
 77158  1  0  0  0
 77159  1  0  0  0
 77 86  1  0  0  0
 78 86  1  0  0  0
 78160  1  0  0  0
 78161  1  0  0  0
 78162  1  0  0  0
 79163  1  0  0  0
 79164  1  0  0  0
 79165  1  0  0  0
 79 87  1  0  0  0
 80 86  1  0  0  0
 80166  1  0  0  0
 80167  1  0  0  0
 81 87  1  0  0  0
 81168  1  0  0  0
 81169  1  0  0  0
 82 88  1  0  0  0
 82170  1  0  0  0
 82171  1  0  0  0
 83 84  1  0  0  0
 83 85  1  0  0  0
 83172  1  0  0  0
 83173  1  0  0  0
 84 87  1  0  0  0
 84174  1  0  0  0
 84175  1  0  0  0
 85176  1  0  0  0
 85177  1  0  0  0
 86178  1  0  0  0
 87179  1  0  0  0
 88180  1  0  0  0
M  ISO  4   1 100  68 101  85 101  88 100
M  END
> <chiral flag>
0

> <version>
0

> <s_m_source_file>
/data/baiqing/PycharmProjects/Reinvent-master-3.2/result/LINK_invent/BTK/process_docking_weight1_custom_sum_contain_oxygen_bond_distance_aromatic_linkinvent_7_9_3/rearranged_h_0122.sdf

> <i_m_source_file_index>
30

> <r_mmod_Potential_Energy-OPLS-2005>
98.8955917358398

> <r_mmod_Stretch_Energy-OPLS-2005>
45.0382308959961

> <r_mmod_Bend_Energy-OPLS-2005>
139.842330932617

> <r_mmod_Torsional_Energy-OPLS-2005>
322.459381103516

> <r_mmod_Improper_Torsional_Energy-OPLS-2005>
2.56822299957275

> <r_mmod_Van_der_Waal_Energy-OPLS-2005>
149.042510986328

> <r_mmod_Electrostatic_Energy-OPLS-2005>
-392.160949707031

> <r_mmod_Solvation_Energy-OPLS-2005>
-179.69026184082

> <b_mmod_Minimization_Converged-OPLS-2005>
0

> <r_mmod_RMS_Derivative-OPLS-2005>
9.71020126342773

$$$$
30
                    3D
 Structure written by MMmdl.
177185  0  0  1  0            999 V2000
  -30.7682  -14.3625   20.6475 C   0  0  0  0  0  0
  -30.4158  -12.2667   19.4101 C   0  0  0  0  0  0
  -29.4972  -12.5103   18.1989 C   0  0  0  0  0  0
  -28.0182  -12.3782   18.6100 C   0  0  0  0  0  0
  -27.6707  -13.2065   19.8770 C   0  0  2  0  0  0
  -28.7053  -12.9574   20.9968 C   0  0  0  0  0  0
  -25.2667  -13.8189   20.5704 C   0  0  0  0  0  0
  -24.1894  -13.0454   20.9174 C   0  0  0  0  0  0
  -24.6448  -11.6925   20.8743 C   0  0  0  0  0  0
  -23.9112  -10.4301   21.0428 C   0  0  0  0  0  0
  -24.3642   -9.4219   21.9229 C   0  0  0  0  0  0
  -23.6294   -8.2267   22.0796 C   0  0  0  0  0  0
  -22.4279   -8.0312   21.3578 C   0  0  0  0  0  0
  -21.9921   -9.0300   20.4692 C   0  0  0  0  0  0
  -22.7281  -10.2163   20.3090 C   0  0  0  0  0  0
  -21.6861   -6.0748   22.5298 C   0  0  0  0  0  0
  -21.4015   -6.5644   23.8233 C   0  0  0  0  0  0
  -21.3655   -5.6800   24.9198 C   0  0  0  0  0  0
  -21.6037   -4.3059   24.7244 C   0  0  0  0  0  0
  -21.8817   -3.8152   23.4367 C   0  0  0  0  0  0
  -21.9195   -4.6973   22.3423 C   0  0  0  0  0  0
  -22.7932  -13.5297   21.1800 C   0  0  0  0  0  0
  -22.1673   -4.2161   21.1002 F   0  0  0  0  0  0
  -21.5614   -3.4539   25.7754 F   0  0  0  0  0  0
  -30.0495  -13.2301   20.4569 N   0  0  0  0  0  0
  -26.3090  -12.9349   20.3364 N   0  0  0  0  0  0
  -25.9365  -11.6506   20.5742 N   0  0  0  0  0  0
  -22.0507  -12.8328   22.0337 N   0  0  0  0  0  0
  -25.4367  -15.1905   20.4179 N   0  0  0  0  0  0
  -31.8457  -14.5818   20.0840 O   0  0  0  0  0  0
  -21.6645   -6.8902   21.4265 O   0  0  0  0  0  0
  -22.3656  -14.5618   20.6656 O   0  0  0  0  0  0
  -24.6055  -31.8756   23.2147 C   0  0  0  0  0  0
  -25.8999  -32.4869   23.8424 C   0  0  1  0  0  0
  -27.2243  -27.4979   20.0852 C   0  0  0  0  0  0
  -25.5875  -33.8663   24.2362 N   0  0  0  0  0  0
  -23.3902  -30.4984   21.5523 C   0  0  2  0  0  0
  -24.8379  -28.9766   20.1068 C   0  0  0  0  0  0
  -22.7392  -29.4700   22.5034 C   0  0  0  0  0  0
  -18.0255  -28.1357   22.8484 C   0  0  0  0  0  0
  -24.1475  -36.7322   23.2634 C   0  0  0  0  0  0
  -25.9117  -30.8591   21.3614 C   0  0  0  0  0  0
  -25.9888  -29.4963   20.7131 C   0  0  0  0  0  0
  -27.1868  -28.7590   20.7115 C   0  0  0  0  0  0
  -26.0713  -26.9912   19.4555 C   0  0  0  0  0  0
  -24.8692  -27.7216   19.4721 C   0  0  0  0  0  0
  -23.5967  -29.8332   20.1622 C   0  0  0  0  0  0
  -25.4098  -36.3140   24.0341 C   0  0  1  0  0  0
  -20.5818  -28.3731   23.1382 C   0  0  2  0  0  0
  -20.6784  -26.9452   22.5610 C   0  0  0  0  0  0
  -19.5814  -26.6292   21.5390 C   0  0  0  0  0  0
  -18.1978  -26.7836   22.1754 C   0  0  0  0  0  0
  -19.1461  -28.8884   23.2861 C   0  0  0  0  0  0
  -18.9357  -30.1514   23.8801 C   0  0  0  0  0  0
  -17.6344  -30.6619   24.0432 C   0  0  0  0  0  0
  -25.9026  -34.9511   23.5151 C   0  0  0  0  0  0
  -16.5255  -29.9066   23.6235 C   0  0  0  0  0  0
  -16.7223  -28.6456   23.0309 C   0  0  0  0  0  0
  -26.4462  -31.6623   25.0714 C   0  0  0  0  0  0
  -25.3734  -31.3720   26.1468 C   0  0  0  0  0  0
  -27.0311  -30.3078   24.6048 C   0  0  0  0  0  0
  -27.6066  -32.4309   25.7470 C   0  0  0  0  0  0
  -27.5587  -37.1821   24.8470 C   0  0  0  0  0  0
  -21.4133  -29.3035   22.3767 N   0  0  0  0  0  0
  -26.4293  -37.3813   23.9412 N   0  0  0  0  0  0
  -24.6529  -31.0918   22.1010 N   0  0  0  0  0  0
  -23.4210  -28.8233   23.3030 O   0  0  0  0  0  0
  -28.3564  -26.7292   20.1080 O   0  0  0  0  0  0
  -26.5596  -34.8955   22.4714 O   0  0  0  0  0  0
  -23.5267  -32.1476   23.7594 O   0  0  0  0  0  0
  -29.8074  -18.2413   18.2891 C   0  0  0  0  0  0
  -29.0360  -19.3486   18.6490 C   0  0  0  0  0  0
  -30.3200  -17.4093   19.2896 C   0  0  0  0  0  0
  -28.7527  -19.6108   20.0047 C   0  0  0  0  0  0
  -30.0096  -17.6112   20.6535 C   0  0  0  0  0  0
  -29.1611  -18.7008   21.0278 C   0  0  0  0  0  0
  -29.7679  -19.4711   23.4047 C   0  0  0  0  0  0
  -27.9030  -17.7127   23.0531 C   0  0  0  0  0  0
  -28.0794  -24.8947   23.4286 C   0  0  0  0  0  0
  -28.1044  -20.9528   20.2994 C   0  0  0  0  0  0
  -30.6663  -16.6391   21.6366 C   0  0  0  0  0  0
  -26.5702  -20.9310   20.3932 C   0  0  0  0  0  0
  -25.9256  -22.3277   20.2546 C   0  0  0  0  0  0
  -27.4988  -24.0841   21.0794 C   0  0  0  0  0  0
  -28.7065  -26.2857   21.4203 C   0  0  0  0  0  0
  -28.6776  -18.9135   22.4755 C   0  0  0  0  0  0
  -27.6609  -25.3041   22.0093 C   0  0  2  0  0  0
  -30.1987  -15.2724   21.4407 N   0  0  0  0  0  0
  -26.2776  -23.2821   21.3374 N   0  3  0  0  0  0
  -31.4649  -12.3352   19.1153 H   0  0  0  0  0  0
  -30.2867  -11.2520   19.7864 H   0  0  0  0  0  0
  -29.7264  -11.7972   17.4062 H   0  0  0  0  0  0
  -29.6862  -13.5025   17.7838 H   0  0  0  0  0  0
  -27.8173  -11.3217   18.7922 H   0  0  0  0  0  0
  -27.3739  -12.6709   17.7805 H   0  0  0  0  0  0
  -27.7259  -14.2594   19.5984 H   0  0  0  0  0  0
  -28.6630  -11.9200   21.3301 H   0  0  0  0  0  0
  -28.4614  -13.5493   21.8797 H   0  0  0  0  0  0
  -25.2783   -9.5673   22.4817 H   0  0  0  0  0  0
  -23.9984   -7.4656   22.7525 H   0  0  0  0  0  0
  -21.0843   -8.8873   19.8997 H   0  0  0  0  0  0
  -22.3793  -10.9725   19.6194 H   0  0  0  0  0  0
  -21.2013   -7.6151   23.9745 H   0  0  0  0  0  0
  -21.1468   -6.0527   25.9105 H   0  0  0  0  0  0
  -22.0582   -2.7608   23.2880 H   0  0  0  0  0  0
  -22.4031  -11.9962   22.4731 H   0  0  0  0  0  0
  -21.1156  -13.1466   22.2502 H   0  0  0  0  0  0
  -24.6676  -15.8383   20.5449 H   0  0  0  0  0  0
  -26.2919  -15.6412   20.1139 H   0  0  0  0  0  0
  -26.7105  -32.5602   23.1236 H   0  0  0  0  0  0
  -25.0019  -33.9822   25.0510 H   0  0  0  0  0  0
  -22.6737  -31.3132   21.4198 H   0  0  0  0  0  0
  -23.3737  -35.9650   23.3326 H   0  0  0  0  0  0
  -24.3566  -36.8896   22.2034 H   0  0  0  0  0  0
  -23.7235  -37.6539   23.6638 H   0  0  0  0  0  0
  -26.0120  -31.6283   20.5940 H   0  0  0  0  0  0
  -26.8017  -30.9182   21.9755 H   0  0  0  0  0  0
  -28.0714  -29.1543   21.1919 H   0  0  0  0  0  0
  -26.0998  -26.0292   18.9657 H   0  0  0  0  0  0
  -23.9863  -27.3283   18.9852 H   0  0  0  0  0  0
  -23.7007  -30.6092   19.4025 H   0  0  0  0  0  0
  -22.7260  -29.2438   19.8652 H   0  0  0  0  0  0
  -25.1279  -36.2008   25.0830 H   0  0  0  0  0  0
  -20.9794  -28.3418   24.1565 H   0  0  0  0  0  0
  -20.5639  -26.2445   23.3889 H   0  0  0  0  0  0
  -21.6661  -26.7527   22.1432 H   0  0  0  0  0  0
  -19.7039  -25.6143   21.1595 H   0  0  0  0  0  0
  -19.6805  -27.2981   20.6824 H   0  0  0  0  0  0
  -17.4278  -26.6424   21.4157 H   0  0  0  0  0  0
  -18.0421  -26.0050   22.9248 H   0  0  0  0  0  0
  -19.7815  -30.7354   24.2163 H   0  0  0  0  0  0
  -17.4875  -31.6317   24.4990 H   0  0  0  0  0  0
  -15.5243  -30.2936   23.7565 H   0  0  0  0  0  0
  -15.8628  -28.0737   22.7075 H   0  0  0  0  0  0
  -24.5874  -30.7121   25.7799 H   0  0  0  0  0  0
  -24.8958  -32.2880   26.4953 H   0  0  0  0  0  0
  -25.8059  -30.8851   27.0220 H   0  0  0  0  0  0
  -26.2865  -29.6812   24.1123 H   0  0  0  0  0  0
  -27.4162  -29.7326   25.4490 H   0  0  0  0  0  0
  -27.8664  -30.4444   23.9165 H   0  0  0  0  0  0
  -27.2729  -33.3590   26.2130 H   0  0  0  0  0  0
  -28.3849  -32.6884   25.0275 H   0  0  0  0  0  0
  -28.0776  -31.8365   26.5310 H   0  0  0  0  0  0
  -28.2642  -38.0090   24.7509 H   0  0  0  0  0  0
  -28.1062  -36.2630   24.6318 H   0  0  0  0  0  0
  -27.2320  -37.1493   25.8882 H   0  0  0  0  0  0
  -20.9332  -29.8654   21.6884 H   0  0  0  0  0  0
  -26.0199  -38.2903   24.1398 H   0  0  0  0  0  0
  -30.0510  -18.0600   17.2521 H   0  0  0  0  0  0
  -28.6949  -20.0207   17.8740 H   0  0  0  0  0  0
  -30.9725  -16.6056   18.9894 H   0  0  0  0  0  0
  -30.1272  -20.4338   23.0421 H   0  0  0  0  0  0
  -30.6395  -18.8289   23.4929 H   0  0  0  0  0  0
  -29.3735  -19.6226   24.4093 H   0  0  0  0  0  0
  -27.1111  -17.3973   22.3721 H   0  0  0  0  0  0
  -27.4217  -17.9789   23.9955 H   0  0  0  0  0  0
  -28.5206  -16.8428   23.2510 H   0  0  0  0  0  0
  -27.3984  -24.1598   23.8612 H   0  0  0  0  0  0
  -28.0903  -25.7620   24.0893 H   0  0  0  0  0  0
  -29.0861  -24.4720   23.4278 H   0  0  0  0  0  0
  -28.4065  -21.6466   19.5103 H   0  0  0  0  0  0
  -28.5489  -21.3485   21.2085 H   0  0  0  0  0  0
  -30.5388  -16.8964   22.6806 H   0  0  0  0  0  0
  -31.7469  -16.6961   21.4931 H   0  0  0  0  0  0
  -26.2356  -20.4452   21.3086 H   0  0  0  0  0  0
  -26.1839  -20.3190   19.5772 H   0  0  0  0  0  0
  -24.8412  -22.2077   20.2634 H   0  0  0  0  0  0
  -26.1563  -22.7567   19.2760 H   0  0  0  0  0  0
  -28.3965  -23.4785   21.1505 H   0  0  0  0  0  0
  -27.4543  -24.4312   20.0477 H   0  0  0  0  0  0
  -29.6775  -25.7958   21.3605 H   0  0  0  0  0  0
  -28.8465  -27.1355   22.0891 H   0  0  0  0  0  0
  -27.9093  -19.6796   22.4711 H   0  0  0  0  0  0
  -26.7038  -25.8195   22.0898 H   0  0  0  0  0  0
  -29.3054  -15.0310   21.8402 H   0  0  0  0  0  0
  -26.3283  -22.8078   22.2259 H   0  0  0  0  0  0
  -25.5041  -23.9262   21.3900 H   0  0  0  0  0  0
  1 25  1  0  0  0
  1 30  2  0  0  0
  1 88  1  0  0  0
  2  3  1  0  0  0
  2 25  1  0  0  0
  2 90  1  0  0  0
  2 91  1  0  0  0
  3  4  1  0  0  0
  3 92  1  0  0  0
  3 93  1  0  0  0
  4  5  1  0  0  0
  4 94  1  0  0  0
  4 95  1  0  0  0
  5  6  1  0  0  0
  5 26  1  0  0  0
  5 96  1  0  0  0
  6 25  1  0  0  0
  6 97  1  0  0  0
  6 98  1  0  0  0
  7  8  2  0  0  0
  7 26  1  0  0  0
  7 29  1  0  0  0
  8  9  1  0  0  0
  8 22  1  0  0  0
  9 10  1  0  0  0
  9 27  2  0  0  0
 10 11  2  0  0  0
 10 15  1  0  0  0
 11 12  1  0  0  0
 11 99  1  0  0  0
 12 13  2  0  0  0
 12100  1  0  0  0
 13 14  1  0  0  0
 13 31  1  0  0  0
 14 15  2  0  0  0
 14101  1  0  0  0
 15102  1  0  0  0
 16 17  2  0  0  0
 16 21  1  0  0  0
 16 31  1  0  0  0
 17 18  1  0  0  0
 17103  1  0  0  0
 18 19  2  0  0  0
 18104  1  0  0  0
 19 20  1  0  0  0
 19 24  1  0  0  0
 20 21  2  0  0  0
 20105  1  0  0  0
 21 23  1  0  0  0
 22 28  1  0  0  0
 22 32  2  0  0  0
 26 27  1  0  0  0
 28106  1  0  0  0
 28107  1  0  0  0
 29108  1  0  0  0
 29109  1  0  0  0
 33 34  1  0  0  0
 33 66  1  0  0  0
 33 70  2  0  0  0
 34 36  1  0  0  0
 34 59  1  0  0  0
 34110  1  0  0  0
 35 44  2  0  0  0
 35 45  1  0  0  0
 35 68  1  0  0  0
 36 56  1  0  0  0
 36111  1  0  0  0
 37 39  1  0  0  0
 37 47  1  0  0  0
 37 66  1  0  0  0
 37112  1  0  0  0
 38 43  2  0  0  0
 38 46  1  0  0  0
 38 47  1  0  0  0
 39 64  1  0  0  0
 39 67  2  0  0  0
 40 52  1  0  0  0
 40 53  2  0  0  0
 40 58  1  0  0  0
 41113  1  0  0  0
 41114  1  0  0  0
 41115  1  0  0  0
 41 48  1  0  0  0
 42 43  1  0  0  0
 42 66  1  0  0  0
 42116  1  0  0  0
 42117  1  0  0  0
 43 44  1  0  0  0
 44118  1  0  0  0
 45 46  2  0  0  0
 45119  1  0  0  0
 46120  1  0  0  0
 47121  1  0  0  0
 47122  1  0  0  0
 48 56  1  0  0  0
 48 65  1  0  0  0
 48123  1  0  0  0
 49 50  1  0  0  0
 49 53  1  0  0  0
 49 64  1  0  0  0
 49124  1  0  0  0
 50 51  1  0  0  0
 50125  1  0  0  0
 50126  1  0  0  0
 51 52  1  0  0  0
 51127  1  0  0  0
 51128  1  0  0  0
 52129  1  0  0  0
 52130  1  0  0  0
 53 54  1  0  0  0
 54 55  2  0  0  0
 54131  1  0  0  0
 55 57  1  0  0  0
 55132  1  0  0  0
 56 69  2  0  0  0
 57 58  2  0  0  0
 57133  1  0  0  0
 58134  1  0  0  0
 59 60  1  0  0  0
 59 61  1  0  0  0
 59 62  1  0  0  0
 60135  1  0  0  0
 60136  1  0  0  0
 60137  1  0  0  0
 61138  1  0  0  0
 61139  1  0  0  0
 61140  1  0  0  0
 62141  1  0  0  0
 62142  1  0  0  0
 62143  1  0  0  0
 63 65  1  0  0  0
 63144  1  0  0  0
 63145  1  0  0  0
 63146  1  0  0  0
 64147  1  0  0  0
 65148  1  0  0  0
 68 85  1  0  0  0
 71 72  2  0  0  0
 71 73  1  0  0  0
 71149  1  0  0  0
 72 74  1  0  0  0
 72150  1  0  0  0
 73 75  2  0  0  0
 73151  1  0  0  0
 74 76  2  0  0  0
 74 80  1  0  0  0
 75 76  1  0  0  0
 75 81  1  0  0  0
 76 86  1  0  0  0
 77152  1  0  0  0
 77153  1  0  0  0
 77154  1  0  0  0
 77 86  1  0  0  0
 78 86  1  0  0  0
 78155  1  0  0  0
 78156  1  0  0  0
 78157  1  0  0  0
 79158  1  0  0  0
 79159  1  0  0  0
 79160  1  0  0  0
 79 87  1  0  0  0
 80 82  1  0  0  0
 80161  1  0  0  0
 80162  1  0  0  0
 81 88  1  0  0  0
 81163  1  0  0  0
 81164  1  0  0  0
 82 83  1  0  0  0
 82165  1  0  0  0
 82166  1  0  0  0
 83 89  1  0  0  0
 83167  1  0  0  0
 83168  1  0  0  0
 84 87  1  0  0  0
 84 89  1  0  0  0
 84169  1  0  0  0
 84170  1  0  0  0
 85 87  1  0  0  0
 85171  1  0  0  0
 85172  1  0  0  0
 86173  1  0  0  0
 87174  1  0  0  0
 88175  1  0  0  0
 89176  1  0  0  0
 89177  1  0  0  0
M  CHG  1  89   1
M  ISO  4   1 100  68 101  85 101  88 100
M  END
> <chiral flag>
0

> <version>
0

> <s_m_source_file>
/data/baiqing/PycharmProjects/Reinvent-master-3.2/result/LINK_invent/BTK/process_docking_weight1_custom_sum_contain_oxygen_bond_distance_aromatic_linkinvent_7_9_3/rearranged_h_0122.sdf

> <i_m_source_file_index>
31

> <r_mmod_Potential_Energy-OPLS-2005>
-241.118789672852

> <r_mmod_Stretch_Energy-OPLS-2005>
36.3653831481934

> <r_mmod_Bend_Energy-OPLS-2005>
106.954078674316

> <r_mmod_Torsional_Energy-OPLS-2005>
243.477996826172

> <r_mmod_Improper_Torsional_Energy-OPLS-2005>
2.58518838882446

> <r_mmod_Van_der_Waal_Energy-OPLS-2005>
161.176300048828

> <r_mmod_Electrostatic_Energy-OPLS-2005>
-355.792694091797

> <r_mmod_Solvation_Energy-OPLS-2005>
-444.912353515625

> <b_mmod_Minimization_Converged-OPLS-2005>
0

> <r_mmod_RMS_Derivative-OPLS-2005>
4.14337730407715

$$$$
31
                    3D
 Structure written by MMmdl.
159167  0  0  1  0            999 V2000
  -30.7053  -14.4538   20.5767 C   0  0  0  0  0  0
  -30.4193  -12.3021   19.4122 C   0  0  0  0  0  0
  -29.4884  -12.5299   18.2001 C   0  0  0  0  0  0
  -28.0095  -12.3876   18.6082 C   0  0  0  0  0  0
  -27.6601  -13.2092   19.8775 C   0  0  2  0  0  0
  -28.7044  -12.9668   20.9941 C   0  0  0  0  0  0
  -25.2547  -13.8167   20.5640 C   0  0  0  0  0  0
  -24.1802  -13.0439   20.9135 C   0  0  0  0  0  0
  -24.6366  -11.6908   20.8707 C   0  0  0  0  0  0
  -23.9049  -10.4283   21.0366 C   0  0  0  0  0  0
  -24.3609   -9.4203   21.9140 C   0  0  0  0  0  0
  -23.6303   -8.2230   22.0713 C   0  0  0  0  0  0
  -22.4293   -8.0248   21.3510 C   0  0  0  0  0  0
  -21.9905   -9.0215   20.4612 C   0  0  0  0  0  0
  -22.7212  -10.2113   20.3021 C   0  0  0  0  0  0
  -21.6856   -6.0703   22.5269 C   0  0  0  0  0  0
  -21.4007   -6.5612   23.8200 C   0  0  0  0  0  0
  -21.3678   -5.6764   24.9163 C   0  0  0  0  0  0
  -21.6080   -4.3031   24.7226 C   0  0  0  0  0  0
  -21.8824   -3.8117   23.4349 C   0  0  0  0  0  0
  -21.9194   -4.6928   22.3397 C   0  0  0  0  0  0
  -22.7828  -13.5211   21.1840 C   0  0  0  0  0  0
  -22.1645   -4.2113   21.0972 F   0  0  0  0  0  0
  -21.5671   -3.4525   25.7741 F   0  0  0  0  0  0
  -30.0410  -13.2720   20.4516 N   0  0  0  0  0  0
  -26.2992  -12.9330   20.3366 N   0  0  0  0  0  0
  -25.9302  -11.6494   20.5769 N   0  0  0  0  0  0
  -22.0491  -12.8203   22.0417 N   0  0  0  0  0  0
  -25.4267  -15.1898   20.4076 N   0  0  0  0  0  0
  -31.8117  -14.6621   20.0689 O   0  0  0  0  0  0
  -21.6648   -6.8852   21.4232 O   0  0  0  0  0  0
  -22.3504  -14.5494   20.6656 O   0  0  0  0  0  0
  -24.6201  -31.8644   23.2099 C   0  0  0  0  0  0
  -25.9087  -32.4782   23.8375 C   0  0  1  0  0  0
  -27.2136  -27.4038   20.0860 C   0  0  0  0  0  0
  -25.5956  -33.8623   24.2299 N   0  0  0  0  0  0
  -23.4072  -30.4916   21.5541 C   0  0  2  0  0  0
  -24.8440  -28.9625   20.1077 C   0  0  0  0  0  0
  -22.7427  -29.4634   22.4971 C   0  0  0  0  0  0
  -18.0269  -28.1356   22.8514 C   0  0  0  0  0  0
  -24.1491  -36.7326   23.2642 C   0  0  0  0  0  0
  -25.9417  -30.8172   21.3688 C   0  0  0  0  0  0
  -26.0124  -29.4559   20.7058 C   0  0  0  0  0  0
  -27.2016  -28.6910   20.6819 C   0  0  0  0  0  0
  -26.0213  -26.9357   19.4798 C   0  0  0  0  0  0
  -24.8483  -27.7027   19.4900 C   0  0  0  0  0  0
  -23.6104  -29.8330   20.1650 C   0  0  0  0  0  0
  -25.4111  -36.3114   24.0309 C   0  0  1  0  0  0
  -20.5864  -28.3648   23.1298 C   0  0  2  0  0  0
  -20.6777  -26.9377   22.5407 C   0  0  0  0  0  0
  -19.5751  -26.6363   21.5229 C   0  0  0  0  0  0
  -18.1921  -26.7904   22.1628 C   0  0  0  0  0  0
  -19.1522  -28.8835   23.2900 C   0  0  0  0  0  0
  -18.9446  -30.1449   23.8898 C   0  0  0  0  0  0
  -17.6445  -30.6562   24.0570 C   0  0  0  0  0  0
  -25.9050  -34.9473   23.5073 C   0  0  0  0  0  0
  -16.5343  -29.9050   23.6344 C   0  0  0  0  0  0
  -16.7264  -28.6463   23.0368 C   0  0  0  0  0  0
  -26.4518  -31.6625   25.0738 C   0  0  0  0  0  0
  -25.3819  -31.3730   26.1517 C   0  0  0  0  0  0
  -27.0358  -30.3051   24.6188 C   0  0  0  0  0  0
  -27.6047  -32.4421   25.7511 C   0  0  0  0  0  0
  -27.5577  -37.1813   24.8455 C   0  0  0  0  0  0
  -21.4149  -29.3024   22.3720 N   0  0  0  0  0  0
  -26.4303  -37.3789   23.9389 N   0  0  0  0  0  0
  -24.6755  -31.0701   22.1038 N   0  0  0  0  0  0
  -23.4187  -28.8161   23.3002 O   0  0  0  0  0  0
  -28.3600  -26.6259   20.1181 O   0  0  0  0  0  0
  -26.5593  -34.8924   22.4620 O   0  0  0  0  0  0
  -23.5386  -32.1414   23.7465 O   0  0  0  0  0  0
  -30.7317  -19.0822   21.6749 C   0  0  0  0  0  0
  -29.7520  -18.7595   19.4749 C   0  0  0  0  0  0
  -30.6687  -17.6945   21.9227 C   0  0  0  0  0  0
  -29.7034  -17.3649   19.7144 C   0  0  0  0  0  0
  -30.2630  -19.6363   20.4629 C   0  0  0  0  0  0
  -30.1589  -16.8218   20.9401 C   0  0  0  0  0  0
  -30.9544  -21.5405   18.9166 C   0  0  0  0  0  0
  -29.3639  -24.3763   20.5831 C   0  0  0  0  0  0
  -28.9295  -21.8329   20.4812 C   0  0  0  0  0  0
  -28.1614  -25.1931   20.0550 C   0  0  0  0  0  0
  -30.3186  -21.1635   20.2698 C   0  0  1  0  0  0
  -30.0328  -15.4284   21.2122 N   0  0  0  0  0  0
  -28.9723  -23.1031   21.2564 N   0  3  0  0  0  0
  -31.4627  -12.4011   19.1100 H   0  0  0  0  0  0
  -30.3182  -11.2832   19.7896 H   0  0  0  0  0  0
  -29.7237  -11.8303   17.3981 H   0  0  0  0  0  0
  -29.6600  -13.5294   17.7930 H   0  0  0  0  0  0
  -27.8102  -11.3297   18.7784 H   0  0  0  0  0  0
  -27.3655  -12.6823   17.7783 H   0  0  0  0  0  0
  -27.7060  -14.2610   19.5973 H   0  0  0  0  0  0
  -28.6764  -11.9216   21.3061 H   0  0  0  0  0  0
  -28.4638  -13.5431   21.8882 H   0  0  0  0  0  0
  -25.2745   -9.5709   22.4722 H   0  0  0  0  0  0
  -24.0025   -7.4629   22.7430 H   0  0  0  0  0  0
  -21.0819   -8.8706   19.8936 H   0  0  0  0  0  0
  -22.3604  -10.9644   19.6148 H   0  0  0  0  0  0
  -21.1954   -7.6108   23.9694 H   0  0  0  0  0  0
  -21.1529   -6.0485   25.9073 H   0  0  0  0  0  0
  -22.0600   -2.7577   23.2850 H   0  0  0  0  0  0
  -22.4111  -11.9908   22.4863 H   0  0  0  0  0  0
  -21.1096  -13.1200   22.2598 H   0  0  0  0  0  0
  -24.6635  -15.8506   20.5128 H   0  0  0  0  0  0
  -26.2951  -15.6343   20.1378 H   0  0  0  0  0  0
  -26.7127  -32.5451   23.1125 H   0  0  0  0  0  0
  -25.0268  -33.9857   25.0558 H   0  0  0  0  0  0
  -22.6963  -31.3094   21.4181 H   0  0  0  0  0  0
  -23.3747  -35.9671   23.3316 H   0  0  0  0  0  0
  -24.3605  -36.8942   22.2056 H   0  0  0  0  0  0
  -23.7237  -37.6528   23.6673 H   0  0  0  0  0  0
  -26.0730  -31.5836   20.6026 H   0  0  0  0  0  0
  -26.8269  -30.8565   21.9923 H   0  0  0  0  0  0
  -28.1023  -29.0712   21.1436 H   0  0  0  0  0  0
  -25.9644  -25.9724   18.9936 H   0  0  0  0  0  0
  -23.9515  -27.3159   19.0257 H   0  0  0  0  0  0
  -23.7164  -30.6178   19.4132 H   0  0  0  0  0  0
  -22.7326  -29.2567   19.8660 H   0  0  0  0  0  0
  -25.1263  -36.1988   25.0791 H   0  0  0  0  0  0
  -21.0001  -28.3224   24.1401 H   0  0  0  0  0  0
  -20.5729  -26.2252   23.3596 H   0  0  0  0  0  0
  -21.6623  -26.7444   22.1151 H   0  0  0  0  0  0
  -19.6922  -25.6283   21.1237 H   0  0  0  0  0  0
  -19.6686  -27.3194   20.6790 H   0  0  0  0  0  0
  -17.4205  -26.6721   21.3999 H   0  0  0  0  0  0
  -18.0269  -25.9978   22.8965 H   0  0  0  0  0  0
  -19.7921  -30.7283   24.2224 H   0  0  0  0  0  0
  -17.4988  -31.6239   24.5170 H   0  0  0  0  0  0
  -15.5338  -30.2963   23.7654 H   0  0  0  0  0  0
  -15.8660  -28.0799   22.7091 H   0  0  0  0  0  0
  -24.5975  -30.7083   25.7883 H   0  0  0  0  0  0
  -24.9077  -32.2897   26.5032 H   0  0  0  0  0  0
  -25.8225  -30.8870   27.0245 H   0  0  0  0  0  0
  -26.2890  -29.6791   24.1304 H   0  0  0  0  0  0
  -27.4119  -29.7313   25.4665 H   0  0  0  0  0  0
  -27.8736  -30.4277   23.9327 H   0  0  0  0  0  0
  -27.2576  -33.3691   26.2093 H   0  0  0  0  0  0
  -28.3858  -32.7083   25.0379 H   0  0  0  0  0  0
  -28.0755  -31.8612   26.5458 H   0  0  0  0  0  0
  -28.2577  -38.0133   24.7500 H   0  0  0  0  0  0
  -28.1075  -36.2647   24.6259 H   0  0  0  0  0  0
  -27.2301  -37.1411   25.8869 H   0  0  0  0  0  0
  -20.9309  -29.8743   21.6941 H   0  0  0  0  0  0
  -26.0174  -38.2862   24.1437 H   0  0  0  0  0  0
  -31.1416  -19.7278   22.4378 H   0  0  0  0  0  0
  -29.3849  -19.1393   18.5315 H   0  0  0  0  0  0
  -31.0117  -17.3096   22.8721 H   0  0  0  0  0  0
  -29.3006  -16.7137   18.9516 H   0  0  0  0  0  0
  -31.9264  -21.0650   18.7949 H   0  0  0  0  0  0
  -31.1242  -22.6106   18.8230 H   0  0  0  0  0  0
  -30.3260  -21.2416   18.0776 H   0  0  0  0  0  0
  -29.8633  -24.9682   21.3484 H   0  0  0  0  0  0
  -30.1070  -24.2249   19.8052 H   0  0  0  0  0  0
  -28.3254  -21.1530   21.0866 H   0  0  0  0  0  0
  -28.3812  -21.9528   19.5456 H   0  0  0  0  0  0
  -27.2856  -24.9317   20.6551 H   0  0  0  0  0  0
  -27.9519  -24.8877   19.0273 H   0  0  0  0  0  0
  -30.9906  -21.5467   21.0387 H   0  0  0  0  0  0
  -29.1918  -15.1340   21.6869 H   0  0  0  0  0  0
  -28.0531  -23.2362   21.6537 H   0  0  0  0  0  0
  -29.5881  -22.9492   22.0383 H   0  0  0  0  0  0
  1 25  1  0  0  0
  1 30  2  0  0  0
  1 82  1  0  0  0
  2  3  1  0  0  0
  2 25  1  0  0  0
  2 84  1  0  0  0
  2 85  1  0  0  0
  3  4  1  0  0  0
  3 86  1  0  0  0
  3 87  1  0  0  0
  4  5  1  0  0  0
  4 88  1  0  0  0
  4 89  1  0  0  0
  5  6  1  0  0  0
  5 26  1  0  0  0
  5 90  1  0  0  0
  6 25  1  0  0  0
  6 91  1  0  0  0
  6 92  1  0  0  0
  7  8  2  0  0  0
  7 26  1  0  0  0
  7 29  1  0  0  0
  8  9  1  0  0  0
  8 22  1  0  0  0
  9 10  1  0  0  0
  9 27  2  0  0  0
 10 11  2  0  0  0
 10 15  1  0  0  0
 11 12  1  0  0  0
 11 93  1  0  0  0
 12 13  2  0  0  0
 12 94  1  0  0  0
 13 14  1  0  0  0
 13 31  1  0  0  0
 14 15  2  0  0  0
 14 95  1  0  0  0
 15 96  1  0  0  0
 16 17  2  0  0  0
 16 21  1  0  0  0
 16 31  1  0  0  0
 17 18  1  0  0  0
 17 97  1  0  0  0
 18 19  2  0  0  0
 18 98  1  0  0  0
 19 20  1  0  0  0
 19 24  1  0  0  0
 20 21  2  0  0  0
 20 99  1  0  0  0
 21 23  1  0  0  0
 22 28  1  0  0  0
 22 32  2  0  0  0
 26 27  1  0  0  0
 28100  1  0  0  0
 28101  1  0  0  0
 29102  1  0  0  0
 29103  1  0  0  0
 33 34  1  0  0  0
 33 66  1  0  0  0
 33 70  2  0  0  0
 34 36  1  0  0  0
 34 59  1  0  0  0
 34104  1  0  0  0
 35 44  2  0  0  0
 35 45  1  0  0  0
 35 68  1  0  0  0
 36 56  1  0  0  0
 36105  1  0  0  0
 37 39  1  0  0  0
 37 47  1  0  0  0
 37 66  1  0  0  0
 37106  1  0  0  0
 38 43  2  0  0  0
 38 46  1  0  0  0
 38 47  1  0  0  0
 39 64  1  0  0  0
 39 67  2  0  0  0
 40 52  1  0  0  0
 40 53  2  0  0  0
 40 58  1  0  0  0
 41107  1  0  0  0
 41108  1  0  0  0
 41109  1  0  0  0
 41 48  1  0  0  0
 42 43  1  0  0  0
 42 66  1  0  0  0
 42110  1  0  0  0
 42111  1  0  0  0
 43 44  1  0  0  0
 44112  1  0  0  0
 45 46  2  0  0  0
 45113  1  0  0  0
 46114  1  0  0  0
 47115  1  0  0  0
 47116  1  0  0  0
 48 56  1  0  0  0
 48 65  1  0  0  0
 48117  1  0  0  0
 49 50  1  0  0  0
 49 53  1  0  0  0
 49 64  1  0  0  0
 49118  1  0  0  0
 50 51  1  0  0  0
 50119  1  0  0  0
 50120  1  0  0  0
 51 52  1  0  0  0
 51121  1  0  0  0
 51122  1  0  0  0
 52123  1  0  0  0
 52124  1  0  0  0
 53 54  1  0  0  0
 54 55  2  0  0  0
 54125  1  0  0  0
 55 57  1  0  0  0
 55126  1  0  0  0
 56 69  2  0  0  0
 57 58  2  0  0  0
 57127  1  0  0  0
 58128  1  0  0  0
 59 60  1  0  0  0
 59 61  1  0  0  0
 59 62  1  0  0  0
 60129  1  0  0  0
 60130  1  0  0  0
 60131  1  0  0  0
 61132  1  0  0  0
 61133  1  0  0  0
 61134  1  0  0  0
 62135  1  0  0  0
 62136  1  0  0  0
 62137  1  0  0  0
 63 65  1  0  0  0
 63138  1  0  0  0
 63139  1  0  0  0
 63140  1  0  0  0
 64141  1  0  0  0
 65142  1  0  0  0
 68 80  1  0  0  0
 71 73  2  0  0  0
 71 75  1  0  0  0
 71143  1  0  0  0
 72 74  1  0  0  0
 72 75  2  0  0  0
 72144  1  0  0  0
 73 76  1  0  0  0
 73145  1  0  0  0
 74 76  2  0  0  0
 74146  1  0  0  0
 75 81  1  0  0  0
 76 82  1  0  0  0
 77147  1  0  0  0
 77148  1  0  0  0
 77149  1  0  0  0
 77 81  1  0  0  0
 78 80  1  0  0  0
 78 83  1  0  0  0
 78150  1  0  0  0
 78151  1  0  0  0
 79 81  1  0  0  0
 79 83  1  0  0  0
 79152  1  0  0  0
 79153  1  0  0  0
 80154  1  0  0  0
 80155  1  0  0  0
 81156  1  0  0  0
 82157  1  0  0  0
 83158  1  0  0  0
 83159  1  0  0  0
M  CHG  1  83   1
M  ISO  4   1 100  68 101  80 101  82 100
M  END
> <chiral flag>
0

> <version>
0

> <s_m_source_file>
/data/baiqing/PycharmProjects/Reinvent-master-3.2/result/LINK_invent/BTK/process_docking_weight1_custom_sum_contain_oxygen_bond_distance_aromatic_linkinvent_7_9_3/rearranged_h_0122.sdf

> <i_m_source_file_index>
32

> <r_mmod_Potential_Energy-OPLS-2005>
-135.527786254883

> <r_mmod_Stretch_Energy-OPLS-2005>
39.9810829162598

> <r_mmod_Bend_Energy-OPLS-2005>
99.3259658813477

> <r_mmod_Torsional_Energy-OPLS-2005>
275.803192138672

> <r_mmod_Improper_Torsional_Energy-OPLS-2005>
3.589524269104

> <r_mmod_Van_der_Waal_Energy-OPLS-2005>
152.184936523438

> <r_mmod_Electrostatic_Energy-OPLS-2005>
-258.366577148438

> <r_mmod_Solvation_Energy-OPLS-2005>
-463.015563964844

> <b_mmod_Minimization_Converged-OPLS-2005>
0

> <r_mmod_RMS_Derivative-OPLS-2005>
5.09083652496338

$$$$
32
                    3D
 Structure written by MMmdl.
155163  0  0  1  0            999 V2000
  -30.6841  -14.4856   20.4988 C   0  0  0  0  0  0
  -30.4191  -12.2889   19.4226 C   0  0  0  0  0  0
  -29.4962  -12.4904   18.2020 C   0  0  0  0  0  0
  -28.0121  -12.3730   18.6079 C   0  0  0  0  0  0
  -27.6607  -13.2058   19.8715 C   0  0  2  0  0  0
  -28.7095  -13.0051   20.9917 C   0  0  0  0  0  0
  -25.2608  -13.8178   20.5689 C   0  0  0  0  0  0
  -24.1843  -13.0434   20.9170 C   0  0  0  0  0  0
  -24.6398  -11.6911   20.8697 C   0  0  0  0  0  0
  -23.9063  -10.4281   21.0372 C   0  0  0  0  0  0
  -24.3600   -9.4216   21.9167 C   0  0  0  0  0  0
  -23.6277   -8.2254   22.0743 C   0  0  0  0  0  0
  -22.4272   -8.0272   21.3537 C   0  0  0  0  0  0
  -21.9888   -9.0244   20.4644 C   0  0  0  0  0  0
  -22.7219  -10.2130   20.3043 C   0  0  0  0  0  0
  -21.6851   -6.0724   22.5276 C   0  0  0  0  0  0
  -21.4021   -6.5634   23.8208 C   0  0  0  0  0  0
  -21.3665   -5.6791   24.9173 C   0  0  0  0  0  0
  -21.6030   -4.3051   24.7228 C   0  0  0  0  0  0
  -21.8819   -3.8143   23.4355 C   0  0  0  0  0  0
  -21.9195   -4.6949   22.3411 C   0  0  0  0  0  0
  -22.7872  -13.5245   21.1827 C   0  0  0  0  0  0
  -22.1658   -4.2127   21.0989 F   0  0  0  0  0  0
  -21.5629   -3.4539   25.7754 F   0  0  0  0  0  0
  -30.0321  -13.2948   20.4219 N   0  0  0  0  0  0
  -26.3029  -12.9314   20.3358 N   0  0  0  0  0  0
  -25.9328  -11.6473   20.5724 N   0  0  0  0  0  0
  -22.0515  -12.8228   22.0384 N   0  0  0  0  0  0
  -25.4331  -15.1886   20.4141 N   0  0  0  0  0  0
  -31.8582  -14.6306   20.1577 O   0  0  0  0  0  0
  -21.6646   -6.8869   21.4243 O   0  0  0  0  0  0
  -22.3563  -14.5554   20.6689 O   0  0  0  0  0  0
  -24.6154  -31.8692   23.2132 C   0  0  0  0  0  0
  -25.9035  -32.4828   23.8461 C   0  0  1  0  0  0
  -27.2246  -27.4190   20.0880 C   0  0  0  0  0  0
  -25.5898  -33.8633   24.2386 N   0  0  0  0  0  0
  -23.4033  -30.5000   21.5530 C   0  0  2  0  0  0
  -24.8420  -28.9594   20.1158 C   0  0  0  0  0  0
  -22.7408  -29.4715   22.4982 C   0  0  0  0  0  0
  -18.0338  -28.1457   22.8478 C   0  0  0  0  0  0
  -24.1466  -36.7322   23.2653 C   0  0  0  0  0  0
  -25.9359  -30.8257   21.3681 C   0  0  0  0  0  0
  -26.0041  -29.4593   20.7164 C   0  0  0  0  0  0
  -27.1930  -28.6930   20.7084 C   0  0  0  0  0  0
  -26.0414  -26.9374   19.4803 C   0  0  0  0  0  0
  -24.8541  -27.6923   19.5061 C   0  0  0  0  0  0
  -23.6095  -29.8342   20.1658 C   0  0  0  0  0  0
  -25.4081  -36.3119   24.0361 C   0  0  1  0  0  0
  -20.5926  -28.3736   23.1349 C   0  0  2  0  0  0
  -20.6830  -26.9446   22.5516 C   0  0  0  0  0  0
  -19.5909  -26.6552   21.5169 C   0  0  0  0  0  0
  -18.2053  -26.8038   22.1523 C   0  0  0  0  0  0
  -19.1568  -28.8901   23.2929 C   0  0  0  0  0  0
  -18.9480  -30.1499   23.8907 C   0  0  0  0  0  0
  -17.6486  -30.6654   24.0555 C   0  0  0  0  0  0
  -25.9014  -34.9482   23.5177 C   0  0  0  0  0  0
  -16.5376  -29.9155   23.6339 C   0  0  0  0  0  0
  -16.7322  -28.6599   23.0338 C   0  0  0  0  0  0
  -26.4477  -31.6573   25.0771 C   0  0  0  0  0  0
  -25.3814  -31.3635   26.1589 C   0  0  0  0  0  0
  -27.0286  -30.3013   24.6102 C   0  0  0  0  0  0
  -27.6048  -32.4299   25.7534 C   0  0  0  0  0  0
  -27.5565  -37.1824   24.8479 C   0  0  0  0  0  0
  -21.4162  -29.3074   22.3717 N   0  0  0  0  0  0
  -26.4267  -37.3802   23.9433 N   0  0  0  0  0  0
  -24.6714  -31.0782   22.1032 N   0  0  0  0  0  0
  -23.4137  -28.8226   23.3029 O   0  0  0  0  0  0
  -28.4090  -26.7076   20.1084 O   0  0  0  0  0  0
  -26.5579  -34.8917   22.4742 O   0  0  0  0  0  0
  -23.5318  -32.1464   23.7474 O   0  0  0  0  0  0
  -28.9241  -20.1617   21.8426 C   0  0  0  0  0  0
  -29.3650  -18.8599   22.1555 C   0  0  0  0  0  0
  -28.3390  -19.3357   19.6545 C   0  0  0  0  0  0
  -28.3714  -20.4115   20.5694 C   0  0  0  0  0  0
  -29.2278  -17.8329   21.2017 C   0  0  0  0  0  0
  -27.6751  -21.7473   20.2585 C   0  0  0  0  0  0
  -29.4600  -16.3627   21.5777 C   0  0  0  0  0  0
  -27.8846  -24.2437   20.2988 C   0  0  0  0  0  0
  -28.5174  -25.4102   19.4930 C   0  0  0  0  0  0
  -28.7607  -18.0803   19.9547 N   0  0  0  0  0  0
  -29.8792  -15.5533   20.4397 N   0  0  0  0  0  0
  -28.5620  -22.9293   20.0790 N   0  3  0  0  0  0
  -30.3029  -11.2800   19.8261 H   0  0  0  0  0  0
  -31.4646  -12.3805   19.1212 H   0  0  0  0  0  0
  -29.7257  -11.7557   17.4303 H   0  0  0  0  0  0
  -29.6811  -13.4695   17.7570 H   0  0  0  0  0  0
  -27.7985  -11.3176   18.7790 H   0  0  0  0  0  0
  -27.3733  -12.6748   17.7761 H   0  0  0  0  0  0
  -27.6940  -14.2501   19.5656 H   0  0  0  0  0  0
  -28.6916  -11.9820   21.3677 H   0  0  0  0  0  0
  -28.4935  -13.6436   21.8481 H   0  0  0  0  0  0
  -25.2738   -9.5690   22.4736 H   0  0  0  0  0  0
  -23.9975   -7.4656   22.7468 H   0  0  0  0  0  0
  -21.0800   -8.8762   19.8962 H   0  0  0  0  0  0
  -22.3656  -10.9658   19.6140 H   0  0  0  0  0  0
  -21.2018   -7.6140   23.9705 H   0  0  0  0  0  0
  -21.1481   -6.0527   25.9076 H   0  0  0  0  0  0
  -22.0591   -2.7596   23.2873 H   0  0  0  0  0  0
  -22.4135  -11.9918   22.4803 H   0  0  0  0  0  0
  -21.1129  -13.1245   22.2576 H   0  0  0  0  0  0
  -24.6716  -15.8473   20.5359 H   0  0  0  0  0  0
  -26.2935  -15.6309   20.1115 H   0  0  0  0  0  0
  -26.7110  -32.5531   23.1225 H   0  0  0  0  0  0
  -25.0071  -33.9827   25.0541 H   0  0  0  0  0  0
  -22.6956  -31.3229   21.4162 H   0  0  0  0  0  0
  -23.3706  -35.9670   23.3306 H   0  0  0  0  0  0
  -24.3581  -36.8940   22.2074 H   0  0  0  0  0  0
  -23.7232  -37.6547   23.6639 H   0  0  0  0  0  0
  -26.0527  -31.5805   20.5916 H   0  0  0  0  0  0
  -26.8237  -30.8818   21.9835 H   0  0  0  0  0  0
  -28.0873  -29.0735   21.1833 H   0  0  0  0  0  0
  -26.0018  -25.9815   18.9799 H   0  0  0  0  0  0
  -23.9594  -27.2927   19.0501 H   0  0  0  0  0  0
  -23.7328  -30.6140   19.4099 H   0  0  0  0  0  0
  -22.7233  -29.2704   19.8692 H   0  0  0  0  0  0
  -25.1231  -36.2025   25.0846 H   0  0  0  0  0  0
  -21.0003  -28.3431   24.1457 H   0  0  0  0  0  0
  -20.5542  -26.2359   23.3692 H   0  0  0  0  0  0
  -21.6747  -26.7394   22.1454 H   0  0  0  0  0  0
  -19.7082  -25.6578   21.0939 H   0  0  0  0  0  0
  -19.6938  -27.3595   20.6882 H   0  0  0  0  0  0
  -17.4298  -26.6838   21.3952 H   0  0  0  0  0  0
  -18.0469  -26.0106   22.8824 H   0  0  0  0  0  0
  -19.8011  -30.7317   24.2122 H   0  0  0  0  0  0
  -17.5044  -31.6388   24.5094 H   0  0  0  0  0  0
  -15.5384  -30.3048   23.7703 H   0  0  0  0  0  0
  -15.8688  -28.1005   22.7063 H   0  0  0  0  0  0
  -24.5990  -30.6927   25.8027 H   0  0  0  0  0  0
  -24.8967  -32.2740   26.5121 H   0  0  0  0  0  0
  -25.8296  -30.8841   27.0313 H   0  0  0  0  0  0
  -26.2805  -29.6816   24.1130 H   0  0  0  0  0  0
  -27.4067  -29.7213   25.4544 H   0  0  0  0  0  0
  -27.8647  -30.4347   23.9226 H   0  0  0  0  0  0
  -27.2660  -33.3597   26.2127 H   0  0  0  0  0  0
  -28.3859  -32.6890   25.0370 H   0  0  0  0  0  0
  -28.0705  -31.8423   26.5466 H   0  0  0  0  0  0
  -28.2607  -38.0093   24.7501 H   0  0  0  0  0  0
  -28.1041  -36.2650   24.6297 H   0  0  0  0  0  0
  -27.2309  -37.1476   25.8889 H   0  0  0  0  0  0
  -20.9271  -29.8735   21.6917 H   0  0  0  0  0  0
  -26.0163  -38.2891   24.1397 H   0  0  0  0  0  0
  -28.9442  -20.9355   22.5968 H   0  0  0  0  0  0
  -29.7315  -18.6453   23.1491 H   0  0  0  0  0  0
  -27.8975  -19.4612   18.6758 H   0  0  0  0  0  0
  -26.9941  -21.9365   21.0910 H   0  0  0  0  0  0
  -27.0464  -21.6427   19.3714 H   0  0  0  0  0  0
  -30.1694  -16.2797   22.4043 H   0  0  0  0  0  0
  -28.5102  -15.9732   21.9410 H   0  0  0  0  0  0
  -26.8244  -24.1652   20.0479 H   0  0  0  0  0  0
  -27.9263  -24.4610   21.3652 H   0  0  0  0  0  0
  -28.1392  -25.4205   18.4703 H   0  0  0  0  0  0
  -29.5895  -25.2353   19.4057 H   0  0  0  0  0  0
  -30.1343  -16.1872   19.6963 H   0  0  0  0  0  0
  -28.9460  -22.9024   19.1469 H   0  0  0  0  0  0
  -29.3380  -22.8649   20.7196 H   0  0  0  0  0  0
  1 25  1  0  0  0
  1 30  2  0  0  0
  1 81  1  0  0  0
  2  3  1  0  0  0
  2 25  1  0  0  0
  2 83  1  0  0  0
  2 84  1  0  0  0
  3  4  1  0  0  0
  3 85  1  0  0  0
  3 86  1  0  0  0
  4  5  1  0  0  0
  4 87  1  0  0  0
  4 88  1  0  0  0
  5  6  1  0  0  0
  5 26  1  0  0  0
  5 89  1  0  0  0
  6 25  1  0  0  0
  6 90  1  0  0  0
  6 91  1  0  0  0
  7  8  2  0  0  0
  7 26  1  0  0  0
  7 29  1  0  0  0
  8  9  1  0  0  0
  8 22  1  0  0  0
  9 10  1  0  0  0
  9 27  2  0  0  0
 10 11  2  0  0  0
 10 15  1  0  0  0
 11 12  1  0  0  0
 11 92  1  0  0  0
 12 13  2  0  0  0
 12 93  1  0  0  0
 13 14  1  0  0  0
 13 31  1  0  0  0
 14 15  2  0  0  0
 14 94  1  0  0  0
 15 95  1  0  0  0
 16 17  2  0  0  0
 16 21  1  0  0  0
 16 31  1  0  0  0
 17 18  1  0  0  0
 17 96  1  0  0  0
 18 19  2  0  0  0
 18 97  1  0  0  0
 19 20  1  0  0  0
 19 24  1  0  0  0
 20 21  2  0  0  0
 20 98  1  0  0  0
 21 23  1  0  0  0
 22 28  1  0  0  0
 22 32  2  0  0  0
 26 27  1  0  0  0
 28 99  1  0  0  0
 28100  1  0  0  0
 29101  1  0  0  0
 29102  1  0  0  0
 33 34  1  0  0  0
 33 66  1  0  0  0
 33 70  2  0  0  0
 34 36  1  0  0  0
 34 59  1  0  0  0
 34103  1  0  0  0
 35 44  2  0  0  0
 35 45  1  0  0  0
 35 68  1  0  0  0
 36 56  1  0  0  0
 36104  1  0  0  0
 37 39  1  0  0  0
 37 47  1  0  0  0
 37 66  1  0  0  0
 37105  1  0  0  0
 38 43  2  0  0  0
 38 46  1  0  0  0
 38 47  1  0  0  0
 39 64  1  0  0  0
 39 67  2  0  0  0
 40 52  1  0  0  0
 40 53  2  0  0  0
 40 58  1  0  0  0
 41106  1  0  0  0
 41107  1  0  0  0
 41108  1  0  0  0
 41 48  1  0  0  0
 42 43  1  0  0  0
 42 66  1  0  0  0
 42109  1  0  0  0
 42110  1  0  0  0
 43 44  1  0  0  0
 44111  1  0  0  0
 45 46  2  0  0  0
 45112  1  0  0  0
 46113  1  0  0  0
 47114  1  0  0  0
 47115  1  0  0  0
 48 56  1  0  0  0
 48 65  1  0  0  0
 48116  1  0  0  0
 49 50  1  0  0  0
 49 53  1  0  0  0
 49 64  1  0  0  0
 49117  1  0  0  0
 50 51  1  0  0  0
 50118  1  0  0  0
 50119  1  0  0  0
 51 52  1  0  0  0
 51120  1  0  0  0
 51121  1  0  0  0
 52122  1  0  0  0
 52123  1  0  0  0
 53 54  1  0  0  0
 54 55  2  0  0  0
 54124  1  0  0  0
 55 57  1  0  0  0
 55125  1  0  0  0
 56 69  2  0  0  0
 57 58  2  0  0  0
 57126  1  0  0  0
 58127  1  0  0  0
 59 60  1  0  0  0
 59 61  1  0  0  0
 59 62  1  0  0  0
 60128  1  0  0  0
 60129  1  0  0  0
 60130  1  0  0  0
 61131  1  0  0  0
 61132  1  0  0  0
 61133  1  0  0  0
 62134  1  0  0  0
 62135  1  0  0  0
 62136  1  0  0  0
 63 65  1  0  0  0
 63137  1  0  0  0
 63138  1  0  0  0
 63139  1  0  0  0
 64140  1  0  0  0
 65141  1  0  0  0
 68 79  1  0  0  0
 71 72  2  0  0  0
 71 74  1  0  0  0
 71142  1  0  0  0
 72 75  1  0  0  0
 72143  1  0  0  0
 73 74  2  0  0  0
 73 80  1  0  0  0
 73144  1  0  0  0
 74 76  1  0  0  0
 75 77  1  0  0  0
 75 80  2  0  0  0
 76 82  1  0  0  0
 76145  1  0  0  0
 76146  1  0  0  0
 77 81  1  0  0  0
 77147  1  0  0  0
 77148  1  0  0  0
 78 79  1  0  0  0
 78 82  1  0  0  0
 78149  1  0  0  0
 78150  1  0  0  0
 79151  1  0  0  0
 79152  1  0  0  0
 81153  1  0  0  0
 82154  1  0  0  0
 82155  1  0  0  0
M  CHG  1  82   1
M  ISO  4   1 100  68 101  79 101  81 100
M  END
> <chiral flag>
0

> <version>
0

> <s_m_source_file>
/data/baiqing/PycharmProjects/Reinvent-master-3.2/result/LINK_invent/BTK/process_docking_weight1_custom_sum_contain_oxygen_bond_distance_aromatic_linkinvent_7_9_3/rearranged_h_0122.sdf

> <i_m_source_file_index>
33

> <r_mmod_Potential_Energy-OPLS-2005>
-397.004272460938

> <r_mmod_Stretch_Energy-OPLS-2005>
37.3079223632812

> <r_mmod_Bend_Energy-OPLS-2005>
110.929298400879

> <r_mmod_Torsional_Energy-OPLS-2005>
262.220947265625

> <r_mmod_Improper_Torsional_Energy-OPLS-2005>
22.4700183868408

> <r_mmod_Van_der_Waal_Energy-OPLS-2005>
148.254013061523

> <r_mmod_Electrostatic_Energy-OPLS-2005>
-523.668762207031

> <r_mmod_Solvation_Energy-OPLS-2005>
-472.563079833984

> <b_mmod_Minimization_Converged-OPLS-2005>
0

> <r_mmod_RMS_Derivative-OPLS-2005>
5.220947265625

$$$$
33
                    3D
 Structure written by MMmdl.
147155  0  0  1  0            999 V2000
  -30.2678  -15.8568   20.3242 C   0  0  0  0  0  0
  -30.3927  -13.2570   19.5310 C   0  0  0  0  0  0
  -29.5470  -12.7100   18.3414 C   0  0  0  0  0  0
  -28.1440  -12.3042   18.8051 C   0  0  0  0  0  0
  -27.5837  -13.3338   19.8084 C   0  0  2  0  0  0
  -28.5857  -13.7827   20.9057 C   0  0  0  0  0  0
  -25.2276  -13.8332   20.5854 C   0  0  0  0  0  0
  -24.1688  -13.0444   20.9311 C   0  0  0  0  0  0
  -24.6424  -11.6964   20.8770 C   0  0  0  0  0  0
  -23.9134  -10.4298   21.0390 C   0  0  0  0  0  0
  -24.3663   -9.4210   21.9175 C   0  0  0  0  0  0
  -23.6320   -8.2253   22.0752 C   0  0  0  0  0  0
  -22.4300   -8.0292   21.3544 C   0  0  0  0  0  0
  -21.9950   -9.0268   20.4642 C   0  0  0  0  0  0
  -22.7297  -10.2138   20.3045 C   0  0  0  0  0  0
  -21.6862   -6.0743   22.5277 C   0  0  0  0  0  0
  -21.4021   -6.5643   23.8211 C   0  0  0  0  0  0
  -21.3661   -5.6795   24.9172 C   0  0  0  0  0  0
  -21.6044   -4.3057   24.7222 C   0  0  0  0  0  0
  -21.8818   -3.8150   23.4343 C   0  0  0  0  0  0
  -21.9196   -4.6969   22.3400 C   0  0  0  0  0  0
  -22.7694  -13.5152   21.1931 C   0  0  0  0  0  0
  -22.1662   -4.2154   21.0977 F   0  0  0  0  0  0
  -21.5627   -3.4540   25.7734 F   0  0  0  0  0  0
  -29.7137  -14.4750   20.2175 N   0  0  0  0  0  0
  -26.2747  -12.9709   20.3298 N   0  0  0  0  0  0
  -25.9381  -11.6749   20.5709 N   0  0  0  0  0  0
  -22.0367  -12.8120   22.0481 N   0  0  0  0  0  0
  -25.3854  -15.2078   20.4312 N   0  0  0  0  0  0
  -31.5027  -15.6774   20.2012 O   0  0  0  0  0  0
  -21.6654   -6.8893   21.4242 O   0  0  0  0  0  0
  -22.3362  -14.5446   20.6764 O   0  0  0  0  0  0
  -24.6986  -31.7815   23.1379 C   0  0  0  0  0  0
  -25.9492  -32.4374   23.7985 C   0  0  1  0  0  0
  -27.2302  -26.5427   20.2295 C   0  0  0  0  0  0
  -25.6007  -33.8208   24.1856 N   0  0  0  0  0  0
  -23.5322  -30.3760   21.4953 C   0  0  2  0  0  0
  -24.9911  -28.6836   20.1205 C   0  0  0  0  0  0
  -22.7834  -29.4215   22.4663 C   0  0  0  0  0  0
  -18.0349  -28.1431   22.8448 C   0  0  0  0  0  0
  -24.1493  -36.7109   23.2657 C   0  0  0  0  0  0
  -26.1189  -30.4610   21.4269 C   0  0  0  0  0  0
  -26.1819  -29.0083   20.7797 C   0  0  0  0  0  0
  -27.2778  -27.9702   20.7978 C   0  0  0  0  0  0
  -26.0064  -26.4687   19.5059 C   0  0  0  0  0  0
  -24.9520  -27.4420   19.4588 C   0  0  0  0  0  0
  -23.7950  -29.6585   20.1371 C   0  0  0  0  0  0
  -25.4150  -36.2839   24.0270 C   0  0  1  0  0  0
  -20.5992  -28.3797   23.1112 C   0  0  2  0  0  0
  -20.6805  -26.9440   22.5407 C   0  0  0  0  0  0
  -19.5784  -26.6365   21.5219 C   0  0  0  0  0  0
  -18.1966  -26.7956   22.1618 C   0  0  0  0  0  0
  -19.1620  -28.8941   23.2756 C   0  0  0  0  0  0
  -18.9524  -30.1521   23.8807 C   0  0  0  0  0  0
  -17.6512  -30.6609   24.0547 C   0  0  0  0  0  0
  -25.9142  -34.9235   23.4912 C   0  0  0  0  0  0
  -16.5399  -29.9088   23.6355 C   0  0  0  0  0  0
  -16.7328  -28.6512   23.0371 C   0  0  0  0  0  0
  -26.4620  -31.6479   25.0676 C   0  0  0  0  0  0
  -25.3643  -31.3844   26.1261 C   0  0  0  0  0  0
  -27.0580  -30.2800   24.6695 C   0  0  0  0  0  0
  -27.6037  -32.4380   25.7503 C   0  0  0  0  0  0
  -27.5556  -37.1708   24.8467 C   0  0  0  0  0  0
  -21.4467  -29.3012   22.3413 N   0  0  0  0  0  0
  -26.4260  -37.3619   23.9412 N   0  0  0  0  0  0
  -24.8085  -30.9101   22.0720 N   0  0  0  0  0  0
  -23.4203  -28.7841   23.3082 O   0  0  0  0  0  0
  -28.1711  -25.2519   20.3204 O   0  0  0  0  0  0
  -26.5805  -34.8845   22.4546 O   0  0  0  0  0  0
  -23.5970  -32.0965   23.6232 O   0  0  0  0  0  0
  -29.8879  -20.4661   19.6856 C   0  0  0  0  0  0
  -27.9692  -19.9954   20.5254 C   0  0  0  0  0  0
  -30.4428  -18.7933   20.0452 C   0  0  0  0  0  0
  -28.4776  -18.2898   20.8404 C   0  0  0  0  0  0
  -28.7797  -21.5379   20.4681 C   0  0  0  0  0  0
  -28.0510  -23.4252   20.1041 C   0  0  0  0  0  0
  -29.6840  -17.3757   20.2690 N   0  0  0  0  0  0
  -31.3683  -13.5347   19.1313 H   0  0  0  0  0  0
  -30.6083  -12.4639   20.2492 H   0  0  0  0  0  0
  -30.0486  -11.8644   17.8689 H   0  0  0  0  0  0
  -29.4650  -13.4850   17.5779 H   0  0  0  0  0  0
  -28.2185  -11.3301   19.2900 H   0  0  0  0  0  0
  -27.4736  -12.1783   17.9539 H   0  0  0  0  0  0
  -27.4087  -14.2173   19.1923 H   0  0  0  0  0  0
  -28.9049  -12.9505   21.5351 H   0  0  0  0  0  0
  -28.1065  -14.5000   21.5736 H   0  0  0  0  0  0
  -25.2800   -9.5683   22.4764 H   0  0  0  0  0  0
  -24.0017   -7.4647   22.7481 H   0  0  0  0  0  0
  -21.0878   -8.8799   19.8950 H   0  0  0  0  0  0
  -22.3754  -10.9680   19.6159 H   0  0  0  0  0  0
  -21.2016   -7.6152   23.9716 H   0  0  0  0  0  0
  -21.1483   -6.0524   25.9075 H   0  0  0  0  0  0
  -22.0595   -2.7612   23.2842 H   0  0  0  0  0  0
  -22.4021  -11.9802   22.4877 H   0  0  0  0  0  0
  -21.0969  -13.1102   22.2678 H   0  0  0  0  0  0
  -24.6150  -15.8567   20.5499 H   0  0  0  0  0  0
  -26.2354  -15.6543   20.1123 H   0  0  0  0  0  0
  -26.7589  -32.4804   23.0702 H   0  0  0  0  0  0
  -25.0042  -33.9220   24.9936 H   0  0  0  0  0  0
  -22.8666  -31.2173   21.2917 H   0  0  0  0  0  0
  -23.3781  -35.9410   23.3250 H   0  0  0  0  0  0
  -24.3555  -36.8852   22.2085 H   0  0  0  0  0  0
  -23.7227  -37.6251   23.6794 H   0  0  0  0  0  0
  -26.3387  -31.1750   20.6320 H   0  0  0  0  0  0
  -26.9636  -30.5345   22.0991 H   0  0  0  0  0  0
  -28.1686  -28.2294   21.3525 H   0  0  0  0  0  0
  -25.8133  -25.5381   18.9909 H   0  0  0  0  0  0
  -24.0579  -27.1821   18.9089 H   0  0  0  0  0  0
  -23.9835  -30.4121   19.3716 H   0  0  0  0  0  0
  -22.8965  -29.1332   19.8089 H   0  0  0  0  0  0
  -25.1365  -36.1575   25.0758 H   0  0  0  0  0  0
  -21.0070  -28.3435   24.1241 H   0  0  0  0  0  0
  -20.5654  -26.2425   23.3684 H   0  0  0  0  0  0
  -21.6665  -26.7357   22.1234 H   0  0  0  0  0  0
  -19.6937  -25.6253   21.1306 H   0  0  0  0  0  0
  -19.6732  -27.3127   20.6710 H   0  0  0  0  0  0
  -17.4237  -26.6701   21.4020 H   0  0  0  0  0  0
  -18.0347  -26.0119   22.9033 H   0  0  0  0  0  0
  -19.8000  -30.7359   24.2137 H   0  0  0  0  0  0
  -17.5063  -31.6280   24.5166 H   0  0  0  0  0  0
  -15.5397  -30.2962   23.7733 H   0  0  0  0  0  0
  -15.8729  -28.0801   22.7137 H   0  0  0  0  0  0
  -24.5863  -30.7162   25.7553 H   0  0  0  0  0  0
  -24.8798  -32.3081   26.4435 H   0  0  0  0  0  0
  -25.7779  -30.9168   27.0206 H   0  0  0  0  0  0
  -26.3328  -29.6361   24.1710 H   0  0  0  0  0  0
  -27.3965  -29.7314   25.5495 H   0  0  0  0  0  0
  -27.9323  -30.3888   24.0277 H   0  0  0  0  0  0
  -27.2558  -33.3774   26.1812 H   0  0  0  0  0  0
  -28.3980  -32.6794   25.0428 H   0  0  0  0  0  0
  -28.0561  -31.8695   26.5639 H   0  0  0  0  0  0
  -28.2527  -38.0045   24.7519 H   0  0  0  0  0  0
  -28.1097  -36.2564   24.6286 H   0  0  0  0  0  0
  -27.2272  -37.1329   25.8868 H   0  0  0  0  0  0
  -20.9810  -29.8645   21.6434 H   0  0  0  0  0  0
  -26.0070  -38.2657   24.1440 H   0  0  0  0  0  0
  -29.5696  -20.4340   18.6413 H   0  0  0  0  0  0
  -30.8115  -21.0437   19.6313 H   0  0  0  0  0  0
  -27.1595  -20.1586   21.2374 H   0  0  0  0  0  0
  -27.4334  -19.9361   19.5754 H   0  0  0  0  0  0
  -31.0627  -18.8886   20.9384 H   0  0  0  0  0  0
  -31.1673  -18.5649   19.2626 H   0  0  0  0  0  0
  -27.5875  -17.6844   20.6658 H   0  0  0  0  0  0
  -28.6135  -18.2320   21.9215 H   0  0  0  0  0  0
  -29.1787  -21.6640   21.4749 H   0  0  0  0  0  0
  -27.0604  -23.3092   20.5441 H   0  0  0  0  0  0
  -27.8517  -23.3763   19.0336 H   0  0  0  0  0  0
  1 25  1  0  0  0
  1 30  2  0  0  0
  1 77  1  0  0  0
  2  3  1  0  0  0
  2 25  1  0  0  0
  2 78  1  0  0  0
  2 79  1  0  0  0
  3  4  1  0  0  0
  3 80  1  0  0  0
  3 81  1  0  0  0
  4  5  1  0  0  0
  4 82  1  0  0  0
  4 83  1  0  0  0
  5  6  1  0  0  0
  5 26  1  0  0  0
  5 84  1  0  0  0
  6 25  1  0  0  0
  6 85  1  0  0  0
  6 86  1  0  0  0
  7  8  2  0  0  0
  7 26  1  0  0  0
  7 29  1  0  0  0
  8  9  1  0  0  0
  8 22  1  0  0  0
  9 10  1  0  0  0
  9 27  2  0  0  0
 10 11  2  0  0  0
 10 15  1  0  0  0
 11 12  1  0  0  0
 11 87  1  0  0  0
 12 13  2  0  0  0
 12 88  1  0  0  0
 13 14  1  0  0  0
 13 31  1  0  0  0
 14 15  2  0  0  0
 14 89  1  0  0  0
 15 90  1  0  0  0
 16 17  2  0  0  0
 16 21  1  0  0  0
 16 31  1  0  0  0
 17 18  1  0  0  0
 17 91  1  0  0  0
 18 19  2  0  0  0
 18 92  1  0  0  0
 19 20  1  0  0  0
 19 24  1  0  0  0
 20 21  2  0  0  0
 20 93  1  0  0  0
 21 23  1  0  0  0
 22 28  1  0  0  0
 22 32  2  0  0  0
 26 27  1  0  0  0
 28 94  1  0  0  0
 28 95  1  0  0  0
 29 96  1  0  0  0
 29 97  1  0  0  0
 33 34  1  0  0  0
 33 66  1  0  0  0
 33 70  2  0  0  0
 34 36  1  0  0  0
 34 59  1  0  0  0
 34 98  1  0  0  0
 35 44  2  0  0  0
 35 45  1  0  0  0
 35 68  1  0  0  0
 36 56  1  0  0  0
 36 99  1  0  0  0
 37 39  1  0  0  0
 37 47  1  0  0  0
 37 66  1  0  0  0
 37100  1  0  0  0
 38 43  2  0  0  0
 38 46  1  0  0  0
 38 47  1  0  0  0
 39 64  1  0  0  0
 39 67  2  0  0  0
 40 52  1  0  0  0
 40 53  2  0  0  0
 40 58  1  0  0  0
 41101  1  0  0  0
 41102  1  0  0  0
 41103  1  0  0  0
 41 48  1  0  0  0
 42 43  1  0  0  0
 42 66  1  0  0  0
 42104  1  0  0  0
 42105  1  0  0  0
 43 44  1  0  0  0
 44106  1  0  0  0
 45 46  2  0  0  0
 45107  1  0  0  0
 46108  1  0  0  0
 47109  1  0  0  0
 47110  1  0  0  0
 48 56  1  0  0  0
 48 65  1  0  0  0
 48111  1  0  0  0
 49 50  1  0  0  0
 49 53  1  0  0  0
 49 64  1  0  0  0
 49112  1  0  0  0
 50 51  1  0  0  0
 50113  1  0  0  0
 50114  1  0  0  0
 51 52  1  0  0  0
 51115  1  0  0  0
 51116  1  0  0  0
 52117  1  0  0  0
 52118  1  0  0  0
 53 54  1  0  0  0
 54 55  2  0  0  0
 54119  1  0  0  0
 55 57  1  0  0  0
 55120  1  0  0  0
 56 69  2  0  0  0
 57 58  2  0  0  0
 57121  1  0  0  0
 58122  1  0  0  0
 59 60  1  0  0  0
 59 61  1  0  0  0
 59 62  1  0  0  0
 60123  1  0  0  0
 60124  1  0  0  0
 60125  1  0  0  0
 61126  1  0  0  0
 61127  1  0  0  0
 61128  1  0  0  0
 62129  1  0  0  0
 62130  1  0  0  0
 62131  1  0  0  0
 63 65  1  0  0  0
 63132  1  0  0  0
 63133  1  0  0  0
 63134  1  0  0  0
 64135  1  0  0  0
 65136  1  0  0  0
 68 76  1  0  0  0
 71 73  1  0  0  0
 71 75  1  0  0  0
 71137  1  0  0  0
 71138  1  0  0  0
 72 74  1  0  0  0
 72 75  1  0  0  0
 72139  1  0  0  0
 72140  1  0  0  0
 73 77  1  0  0  0
 73141  1  0  0  0
 73142  1  0  0  0
 74 77  1  0  0  0
 74143  1  0  0  0
 74144  1  0  0  0
 75 76  1  0  0  0
 75145  1  0  0  0
 76146  1  0  0  0
 76147  1  0  0  0
M  ISO  4   1 100  68 101  76 101  77 100
M  END
> <chiral flag>
0

> <version>
0

> <s_m_source_file>
/data/baiqing/PycharmProjects/Reinvent-master-3.2/result/LINK_invent/BTK/process_docking_weight1_custom_sum_contain_oxygen_bond_distance_aromatic_linkinvent_7_9_3/rearranged_h_0122.sdf

> <i_m_source_file_index>
34

> <r_mmod_Potential_Energy-OPLS-2005>
3558.36840820312

> <r_mmod_Stretch_Energy-OPLS-2005>
1375.01708984375

> <r_mmod_Bend_Energy-OPLS-2005>
961.027893066406

> <r_mmod_Torsional_Energy-OPLS-2005>
310.429077148438

> <r_mmod_Improper_Torsional_Energy-OPLS-2005>
10.2289934158325

> <r_mmod_Van_der_Waal_Energy-OPLS-2005>
121.921272277832

> <r_mmod_Electrostatic_Energy-OPLS-2005>
-266.876007080078

> <r_mmod_Solvation_Energy-OPLS-2005>
-210.197875976562

> <b_mmod_Minimization_Converged-OPLS-2005>
0

> <r_mmod_RMS_Derivative-OPLS-2005>
0.203677028417587

$$$$
34
                    3D
 Structure written by MMmdl.
166174  0  0  1  0            999 V2000
  -30.6571  -14.5517   20.5139 C   0  0  0  0  0  0
  -30.4297  -12.3356   19.4496 C   0  0  0  0  0  0
  -29.5049  -12.4996   18.2230 C   0  0  0  0  0  0
  -28.0249  -12.3543   18.6294 C   0  0  0  0  0  0
  -27.6589  -13.2104   19.8717 C   0  0  2  0  0  0
  -28.7000  -13.0314   21.0026 C   0  0  0  0  0  0
  -25.2572  -13.8163   20.5669 C   0  0  0  0  0  0
  -24.1828  -13.0435   20.9175 C   0  0  0  0  0  0
  -24.6390  -11.6901   20.8731 C   0  0  0  0  0  0
  -23.9063  -10.4285   21.0398 C   0  0  0  0  0  0
  -24.3618   -9.4199   21.9172 C   0  0  0  0  0  0
  -23.6292   -8.2238   22.0744 C   0  0  0  0  0  0
  -22.4274   -8.0273   21.3535 C   0  0  0  0  0  0
  -21.9909   -9.0249   20.4637 C   0  0  0  0  0  0
  -22.7236  -10.2127   20.3048 C   0  0  0  0  0  0
  -21.6854   -6.0732   22.5279 C   0  0  0  0  0  0
  -21.4016   -6.5636   23.8210 C   0  0  0  0  0  0
  -21.3660   -5.6788   24.9172 C   0  0  0  0  0  0
  -21.6051   -4.3052   24.7226 C   0  0  0  0  0  0
  -21.8824   -3.8145   23.4348 C   0  0  0  0  0  0
  -21.9190   -4.6962   22.3402 C   0  0  0  0  0  0
  -22.7851  -13.5223   21.1836 C   0  0  0  0  0  0
  -22.1661   -4.2151   21.0980 F   0  0  0  0  0  0
  -21.5627   -3.4533   25.7738 F   0  0  0  0  0  0
  -30.0294  -13.3409   20.4516 N   0  0  0  0  0  0
  -26.3008  -12.9336   20.3343 N   0  0  0  0  0  0
  -25.9320  -11.6494   20.5757 N   0  0  0  0  0  0
  -22.0496  -12.8215   22.0400 N   0  0  0  0  0  0
  -25.4307  -15.1883   20.4073 N   0  0  0  0  0  0
  -31.7963  -14.7294   20.0765 O   0  0  0  0  0  0
  -21.6640   -6.8870   21.4233 O   0  0  0  0  0  0
  -22.3536  -14.5526   20.6677 O   0  0  0  0  0  0
  -24.6194  -31.8652   23.2075 C   0  0  0  0  0  0
  -25.9068  -32.4805   23.8381 C   0  0  1  0  0  0
  -27.2298  -27.3821   20.0940 C   0  0  0  0  0  0
  -25.5908  -33.8605   24.2309 N   0  0  0  0  0  0
  -23.4089  -30.4902   21.5489 C   0  0  2  0  0  0
  -24.8541  -28.9544   20.1086 C   0  0  0  0  0  0
  -22.7432  -29.4649   22.4960 C   0  0  0  0  0  0
  -18.0278  -28.1380   22.8488 C   0  0  0  0  0  0
  -24.1490  -36.7307   23.2638 C   0  0  0  0  0  0
  -25.9442  -30.8124   21.3708 C   0  0  0  0  0  0
  -26.0169  -29.4445   20.7137 C   0  0  0  0  0  0
  -27.2017  -28.6634   20.7087 C   0  0  0  0  0  0
  -26.0403  -26.9238   19.4781 C   0  0  0  0  0  0
  -24.8640  -27.6956   19.4881 C   0  0  0  0  0  0
  -23.6188  -29.8271   20.1617 C   0  0  0  0  0  0
  -25.4113  -36.3102   24.0335 C   0  0  1  0  0  0
  -20.5873  -28.3675   23.1300 C   0  0  2  0  0  0
  -20.6768  -26.9404   22.5414 C   0  0  0  0  0  0
  -19.5744  -26.6384   21.5212 C   0  0  0  0  0  0
  -18.1924  -26.7926   22.1623 C   0  0  0  0  0  0
  -19.1529  -28.8843   23.2892 C   0  0  0  0  0  0
  -18.9453  -30.1448   23.8906 C   0  0  0  0  0  0
  -17.6454  -30.6583   24.0566 C   0  0  0  0  0  0
  -25.9044  -34.9469   23.5122 C   0  0  0  0  0  0
  -16.5347  -29.9085   23.6325 C   0  0  0  0  0  0
  -16.7268  -28.6503   23.0348 C   0  0  0  0  0  0
  -26.4478  -31.6594   25.0724 C   0  0  0  0  0  0
  -25.3731  -31.3708   26.1461 C   0  0  0  0  0  0
  -27.0309  -30.3028   24.6131 C   0  0  0  0  0  0
  -27.6049  -32.4323   25.7482 C   0  0  0  0  0  0
  -27.5584  -37.1806   24.8463 C   0  0  0  0  0  0
  -21.4155  -29.3039   22.3702 N   0  0  0  0  0  0
  -26.4297  -37.3789   23.9408 N   0  0  0  0  0  0
  -24.6759  -31.0715   22.0997 N   0  0  0  0  0  0
  -23.4186  -28.8190   23.3016 O   0  0  0  0  0  0
  -28.3889  -26.6096   20.1606 O   0  0  0  0  0  0
  -26.5608  -34.8922   22.4686 O   0  0  0  0  0  0
  -23.5376  -32.1426   23.7439 O   0  0  0  0  0  0
  -30.8750  -24.5196   17.5290 C   0  0  0  0  0  0
  -29.6867  -25.2646   16.9219 C   0  0  0  0  0  0
  -30.3939  -23.6523   18.6936 C   0  0  0  0  0  0
  -29.0777  -26.1991   17.9668 C   0  0  0  0  0  0
  -29.6727  -24.4454   19.8176 C   0  0  1  0  0  0
  -28.6126  -25.4881   19.2617 C   0  0  1  0  0  0
  -28.7495  -21.9586   20.5768 C   0  0  0  0  0  0
  -29.8594  -16.9317   20.1653 C   0  0  0  0  0  0
  -29.7579  -20.7887   20.9044 C   0  0  0  0  0  0
  -29.8002  -18.2134   21.0707 C   0  0  0  0  0  0
  -29.1426  -23.4552   20.9357 C   0  0  1  0  0  0
  -29.8651  -15.6024   20.8409 N   0  0  0  0  0  0
  -29.3982  -19.4526   20.3180 N   0  3  0  0  0  0
  -30.0523  -23.4465   22.0258 O   0  0  0  0  0  0
  -31.4752  -12.4376   19.1518 H   0  0  0  0  0  0
  -30.3365  -11.3321   19.8666 H   0  0  0  0  0  0
  -29.7572  -11.7615   17.4605 H   0  0  0  0  0  0
  -29.6659  -13.4775   17.7666 H   0  0  0  0  0  0
  -27.8405  -11.2993   18.8375 H   0  0  0  0  0  0
  -27.3777  -12.6123   17.7907 H   0  0  0  0  0  0
  -27.6897  -14.2509   19.5478 H   0  0  0  0  0  0
  -28.6831  -12.0067   21.3765 H   0  0  0  0  0  0
  -28.4570  -13.6615   21.8596 H   0  0  0  0  0  0
  -25.2770   -9.5674   22.4735 H   0  0  0  0  0  0
  -24.0012   -7.4624   22.7456 H   0  0  0  0  0  0
  -21.0845   -8.8762   19.8936 H   0  0  0  0  0  0
  -22.3700  -10.9660   19.6151 H   0  0  0  0  0  0
  -21.2007   -7.6146   23.9717 H   0  0  0  0  0  0
  -21.1481   -6.0516   25.9074 H   0  0  0  0  0  0
  -22.0602   -2.7611   23.2847 H   0  0  0  0  0  0
  -22.4131  -11.9907   22.4834 H   0  0  0  0  0  0
  -21.1094  -13.1214   22.2560 H   0  0  0  0  0  0
  -24.6613  -15.8415   20.5053 H   0  0  0  0  0  0
  -26.2789  -15.6230   20.0683 H   0  0  0  0  0  0
  -26.7131  -32.5493   23.1131 H   0  0  0  0  0  0
  -25.0055  -33.9763   25.0452 H   0  0  0  0  0  0
  -22.7002  -31.3093   21.4107 H   0  0  0  0  0  0
  -23.3755  -35.9636   23.3305 H   0  0  0  0  0  0
  -24.3585  -36.8918   22.2051 H   0  0  0  0  0  0
  -23.7237  -37.6510   23.6652 H   0  0  0  0  0  0
  -26.0692  -31.5795   20.6053 H   0  0  0  0  0  0
  -26.8277  -30.8597   21.9956 H   0  0  0  0  0  0
  -28.0960  -29.0357   21.1889 H   0  0  0  0  0  0
  -25.9729  -25.9615   18.9985 H   0  0  0  0  0  0
  -23.9692  -27.3124   19.0175 H   0  0  0  0  0  0
  -23.7287  -30.6051   19.4054 H   0  0  0  0  0  0
  -22.7403  -29.2522   19.8635 H   0  0  0  0  0  0
  -25.1291  -36.1969   25.0828 H   0  0  0  0  0  0
  -20.9968  -28.3247   24.1419 H   0  0  0  0  0  0
  -20.5672  -26.2283   23.3607 H   0  0  0  0  0  0
  -21.6638  -26.7443   22.1207 H   0  0  0  0  0  0
  -19.6909  -25.6298   21.1234 H   0  0  0  0  0  0
  -19.6685  -27.3200   20.6747 H   0  0  0  0  0  0
  -17.4196  -26.6675   21.4026 H   0  0  0  0  0  0
  -18.0326  -26.0065   22.9017 H   0  0  0  0  0  0
  -19.7929  -30.7262   24.2280 H   0  0  0  0  0  0
  -17.5010  -31.6264   24.5167 H   0  0  0  0  0  0
  -15.5348  -30.2993   23.7641 H   0  0  0  0  0  0
  -15.8667  -28.0828   22.7055 H   0  0  0  0  0  0
  -24.5908  -30.7054   25.7791 H   0  0  0  0  0  0
  -24.8916  -32.2862   26.4911 H   0  0  0  0  0  0
  -25.8073  -30.8872   27.0218 H   0  0  0  0  0  0
  -26.2859  -29.6789   24.1176 H   0  0  0  0  0  0
  -27.4051  -29.7271   25.4607 H   0  0  0  0  0  0
  -27.8714  -30.4334   23.9308 H   0  0  0  0  0  0
  -27.2667  -33.3618   26.2074 H   0  0  0  0  0  0
  -28.3843  -32.6892   25.0296 H   0  0  0  0  0  0
  -28.0734  -31.8439   26.5381 H   0  0  0  0  0  0
  -28.2603  -38.0105   24.7521 H   0  0  0  0  0  0
  -28.1082  -36.2637   24.6280 H   0  0  0  0  0  0
  -27.2302  -37.1444   25.8866 H   0  0  0  0  0  0
  -20.9321  -29.8765   21.6924 H   0  0  0  0  0  0
  -26.0189  -38.2869   24.1409 H   0  0  0  0  0  0
  -31.6385  -25.2228   17.8651 H   0  0  0  0  0  0
  -31.3433  -23.8913   16.7700 H   0  0  0  0  0  0
  -28.9331  -24.5609   16.5634 H   0  0  0  0  0  0
  -30.0106  -25.8415   16.0544 H   0  0  0  0  0  0
  -31.2426  -23.1100   19.1120 H   0  0  0  0  0  0
  -29.7347  -22.9036   18.2612 H   0  0  0  0  0  0
  -28.2426  -26.7394   17.5201 H   0  0  0  0  0  0
  -29.8213  -26.9565   18.2203 H   0  0  0  0  0  0
  -30.4410  -25.0779   20.2664 H   0  0  0  0  0  0
  -27.7143  -24.9109   19.0571 H   0  0  0  0  0  0
  -27.8503  -21.7321   21.1514 H   0  0  0  0  0  0
  -28.4011  -21.8941   19.5480 H   0  0  0  0  0  0
  -30.7180  -17.0154   19.4956 H   0  0  0  0  0  0
  -28.9855  -16.9246   19.5129 H   0  0  0  0  0  0
  -29.8307  -20.6921   21.9887 H   0  0  0  0  0  0
  -30.7585  -21.0468   20.5569 H   0  0  0  0  0  0
  -30.7792  -18.3672   21.5271 H   0  0  0  0  0  0
  -29.0954  -18.0685   21.8903 H   0  0  0  0  0  0
  -28.2396  -23.9215   21.3359 H   0  0  0  0  0  0
  -28.9911  -15.3378   21.2708 H   0  0  0  0  0  0
  -29.8045  -19.4107   19.3974 H   0  0  0  0  0  0
  -28.3980  -19.4142   20.2019 H   0  0  0  0  0  0
  -30.9352  -23.3500   21.6815 H   0  0  0  0  0  0
  1 25  1  0  0  0
  1 30  2  0  0  0
  1 82  1  0  0  0
  2  3  1  0  0  0
  2 25  1  0  0  0
  2 85  1  0  0  0
  2 86  1  0  0  0
  3  4  1  0  0  0
  3 87  1  0  0  0
  3 88  1  0  0  0
  4  5  1  0  0  0
  4 89  1  0  0  0
  4 90  1  0  0  0
  5  6  1  0  0  0
  5 26  1  0  0  0
  5 91  1  0  0  0
  6 25  1  0  0  0
  6 92  1  0  0  0
  6 93  1  0  0  0
  7  8  2  0  0  0
  7 26  1  0  0  0
  7 29  1  0  0  0
  8  9  1  0  0  0
  8 22  1  0  0  0
  9 10  1  0  0  0
  9 27  2  0  0  0
 10 11  2  0  0  0
 10 15  1  0  0  0
 11 12  1  0  0  0
 11 94  1  0  0  0
 12 13  2  0  0  0
 12 95  1  0  0  0
 13 14  1  0  0  0
 13 31  1  0  0  0
 14 15  2  0  0  0
 14 96  1  0  0  0
 15 97  1  0  0  0
 16 17  2  0  0  0
 16 21  1  0  0  0
 16 31  1  0  0  0
 17 18  1  0  0  0
 17 98  1  0  0  0
 18 19  2  0  0  0
 18 99  1  0  0  0
 19 20  1  0  0  0
 19 24  1  0  0  0
 20 21  2  0  0  0
 20100  1  0  0  0
 21 23  1  0  0  0
 22 28  1  0  0  0
 22 32  2  0  0  0
 26 27  1  0  0  0
 28101  1  0  0  0
 28102  1  0  0  0
 29103  1  0  0  0
 29104  1  0  0  0
 33 34  1  0  0  0
 33 66  1  0  0  0
 33 70  2  0  0  0
 34 36  1  0  0  0
 34 59  1  0  0  0
 34105  1  0  0  0
 35 44  2  0  0  0
 35 45  1  0  0  0
 35 68  1  0  0  0
 36 56  1  0  0  0
 36106  1  0  0  0
 37 39  1  0  0  0
 37 47  1  0  0  0
 37 66  1  0  0  0
 37107  1  0  0  0
 38 43  2  0  0  0
 38 46  1  0  0  0
 38 47  1  0  0  0
 39 64  1  0  0  0
 39 67  2  0  0  0
 40 52  1  0  0  0
 40 53  2  0  0  0
 40 58  1  0  0  0
 41108  1  0  0  0
 41109  1  0  0  0
 41110  1  0  0  0
 41 48  1  0  0  0
 42 43  1  0  0  0
 42 66  1  0  0  0
 42111  1  0  0  0
 42112  1  0  0  0
 43 44  1  0  0  0
 44113  1  0  0  0
 45 46  2  0  0  0
 45114  1  0  0  0
 46115  1  0  0  0
 47116  1  0  0  0
 47117  1  0  0  0
 48 56  1  0  0  0
 48 65  1  0  0  0
 48118  1  0  0  0
 49 50  1  0  0  0
 49 53  1  0  0  0
 49 64  1  0  0  0
 49119  1  0  0  0
 50 51  1  0  0  0
 50120  1  0  0  0
 50121  1  0  0  0
 51 52  1  0  0  0
 51122  1  0  0  0
 51123  1  0  0  0
 52124  1  0  0  0
 52125  1  0  0  0
 53 54  1  0  0  0
 54 55  2  0  0  0
 54126  1  0  0  0
 55 57  1  0  0  0
 55127  1  0  0  0
 56 69  2  0  0  0
 57 58  2  0  0  0
 57128  1  0  0  0
 58129  1  0  0  0
 59 60  1  0  0  0
 59 61  1  0  0  0
 59 62  1  0  0  0
 60130  1  0  0  0
 60131  1  0  0  0
 60132  1  0  0  0
 61133  1  0  0  0
 61134  1  0  0  0
 61135  1  0  0  0
 62136  1  0  0  0
 62137  1  0  0  0
 62138  1  0  0  0
 63 65  1  0  0  0
 63139  1  0  0  0
 63140  1  0  0  0
 63141  1  0  0  0
 64142  1  0  0  0
 65143  1  0  0  0
 68 76  1  0  0  0
 71 72  1  0  0  0
 71 73  1  0  0  0
 71144  1  0  0  0
 71145  1  0  0  0
 72 74  1  0  0  0
 72146  1  0  0  0
 72147  1  0  0  0
 73148  1  0  0  0
 73149  1  0  0  0
 73 75  1  0  0  0
 74 76  1  0  0  0
 74150  1  0  0  0
 74151  1  0  0  0
 75 76  1  0  0  0
 75 81  1  0  0  0
 75152  1  0  0  0
 76153  1  0  0  0
 77 79  1  0  0  0
 77 81  1  0  0  0
 77154  1  0  0  0
 77155  1  0  0  0
 78 80  1  0  0  0
 78 82  1  0  0  0
 78156  1  0  0  0
 78157  1  0  0  0
 79 83  1  0  0  0
 79158  1  0  0  0
 79159  1  0  0  0
 80 83  1  0  0  0
 80160  1  0  0  0
 80161  1  0  0  0
 81 84  1  0  0  0
 81162  1  0  0  0
 82163  1  0  0  0
 83164  1  0  0  0
 83165  1  0  0  0
 84166  1  0  0  0
M  CHG  1  83   1
M  ISO  4   1 100  68 101  76 101  82 100
M  END
> <chiral flag>
0

> <version>
0

> <s_m_source_file>
/data/baiqing/PycharmProjects/Reinvent-master-3.2/result/LINK_invent/BTK/process_docking_weight1_custom_sum_contain_oxygen_bond_distance_aromatic_linkinvent_7_9_3/rearranged_h_0122.sdf

> <i_m_source_file_index>
35

> <r_mmod_Potential_Energy-OPLS-2005>
-128.154891967773

> <r_mmod_Stretch_Energy-OPLS-2005>
59.8377876281738

> <r_mmod_Bend_Energy-OPLS-2005>
134.689025878906

> <r_mmod_Torsional_Energy-OPLS-2005>
277.678039550781

> <r_mmod_Improper_Torsional_Energy-OPLS-2005>
8.0520133972168

> <r_mmod_Van_der_Waal_Energy-OPLS-2005>
135.175399780273

> <r_mmod_Electrostatic_Energy-OPLS-2005>
-261.971588134766

> <r_mmod_Solvation_Energy-OPLS-2005>
-507.146942138672

> <b_mmod_Minimization_Converged-OPLS-2005>
0

> <r_mmod_RMS_Derivative-OPLS-2005>
1.0660548210144

$$$$
35
                    3D
 Structure written by MMmdl.
157166  0  0  1  0            999 V2000
  -30.4443  -14.9892   20.4161 C   0  0  0  0  0  0
  -30.4457  -12.6154   19.5005 C   0  0  0  0  0  0
  -29.5278  -12.5558   18.2538 C   0  0  0  0  0  0
  -28.0584  -12.3313   18.6596 C   0  0  0  0  0  0
  -27.6267  -13.2477   19.8304 C   0  0  2  0  0  0
  -28.6592  -13.2526   20.9782 C   0  0  0  0  0  0
  -25.2430  -13.8186   20.5610 C   0  0  0  0  0  0
  -24.1783  -13.0421   20.9237 C   0  0  0  0  0  0
  -24.6410  -11.6914   20.8755 C   0  0  0  0  0  0
  -23.9071  -10.4307   21.0413 C   0  0  0  0  0  0
  -24.3632   -9.4229   21.9180 C   0  0  0  0  0  0
  -23.6319   -8.2265   22.0746 C   0  0  0  0  0  0
  -22.4306   -8.0297   21.3538 C   0  0  0  0  0  0
  -21.9927   -9.0271   20.4653 C   0  0  0  0  0  0
  -22.7231  -10.2159   20.3067 C   0  0  0  0  0  0
  -21.6876   -6.0741   22.5264 C   0  0  0  0  0  0
  -21.4022   -6.5641   23.8190 C   0  0  0  0  0  0
  -21.3660   -5.6772   24.9138 C   0  0  0  0  0  0
  -21.6048   -4.3032   24.7191 C   0  0  0  0  0  0
  -21.8816   -3.8138   23.4309 C   0  0  0  0  0  0
  -21.9207   -4.6968   22.3381 C   0  0  0  0  0  0
  -22.7807  -13.5216   21.1872 C   0  0  0  0  0  0
  -22.1677   -4.2171   21.0956 F   0  0  0  0  0  0
  -21.5630   -3.4501   25.7695 F   0  0  0  0  0  0
  -29.9329  -13.6920   20.3992 N   0  0  0  0  0  0
  -26.2846  -12.9427   20.3108 N   0  0  0  0  0  0
  -25.9330  -11.6568   20.5678 N   0  0  0  0  0  0
  -22.0424  -12.8264   22.0431 N   0  0  0  0  0  0
  -25.4029  -15.1900   20.3943 N   0  0  0  0  0  0
  -31.6343  -15.1302   20.1046 O   0  0  0  0  0  0
  -21.6661   -6.8900   21.4242 O   0  0  0  0  0  0
  -22.3519  -14.5498   20.6666 O   0  0  0  0  0  0
  -24.6458  -31.8423   23.1875 C   0  0  0  0  0  0
  -25.9236  -32.4668   23.8262 C   0  0  1  0  0  0
  -27.2170  -27.1378   20.1268 C   0  0  0  0  0  0
  -25.5981  -33.8473   24.2175 N   0  0  0  0  0  0
  -23.4470  -30.4600   21.5353 C   0  0  2  0  0  0
  -24.8913  -28.8833   20.1080 C   0  0  0  0  0  0
  -22.7561  -29.4547   22.4909 C   0  0  0  0  0  0
  -18.0293  -28.1425   22.8462 C   0  0  0  0  0  0
  -24.1497  -36.7249   23.2639 C   0  0  0  0  0  0
  -26.0015  -30.7123   21.3881 C   0  0  0  0  0  0
  -26.0673  -29.3259   20.7231 C   0  0  0  0  0  0
  -27.2274  -28.4649   20.7211 C   0  0  0  0  0  0
  -26.0127  -26.7897   19.4810 C   0  0  0  0  0  0
  -24.8745  -27.6297   19.4761 C   0  0  0  0  0  0
  -23.6673  -29.7859   20.1556 C   0  0  0  0  0  0
  -25.4119  -36.2999   24.0311 C   0  0  1  0  0  0
  -20.5902  -28.3729   23.1285 C   0  0  2  0  0  0
  -20.6773  -26.9440   22.5453 C   0  0  0  0  0  0
  -19.5780  -26.6378   21.5230 C   0  0  0  0  0  0
  -18.1935  -26.7972   22.1595 C   0  0  0  0  0  0
  -19.1537  -28.8891   23.2861 C   0  0  0  0  0  0
  -18.9429  -30.1495   23.8873 C   0  0  0  0  0  0
  -17.6430  -30.6624   24.0552 C   0  0  0  0  0  0
  -25.9061  -34.9377   23.5037 C   0  0  0  0  0  0
  -16.5327  -29.9104   23.6358 C   0  0  0  0  0  0
  -16.7278  -28.6532   23.0353 C   0  0  0  0  0  0
  -26.4519  -31.6566   25.0739 C   0  0  0  0  0  0
  -25.3684  -31.3863   26.1444 C   0  0  0  0  0  0
  -27.0314  -30.2908   24.6403 C   0  0  0  0  0  0
  -27.6093  -32.4310   25.7492 C   0  0  0  0  0  0
  -27.5612  -37.1758   24.8443 C   0  0  0  0  0  0
  -21.4240  -29.3031   22.3634 N   0  0  0  0  0  0
  -26.4292  -37.3710   23.9416 N   0  0  0  0  0  0
  -24.7172  -31.0276   22.0909 N   0  0  0  0  0  0
  -23.4187  -28.8108   23.3075 O   0  0  0  0  0  0
  -28.2930  -26.1832   20.2271 O   0  0  0  0  0  0
  -26.5641  -34.8889   22.4612 O   0  0  0  0  0  0
  -23.5582  -32.1330   23.7086 O   0  0  0  0  0  0
  -30.5020  -18.3917   19.7276 C   0  0  0  0  0  0
  -30.3862  -19.8189   19.5250 C   0  0  0  0  0  0
  -29.5322  -17.6288   20.4510 C   0  0  0  0  0  0
  -28.4801  -18.5268   20.9357 C   0  0  0  0  0  0
  -29.3213  -20.6214   20.0368 C   0  0  0  0  0  0
  -25.6775  -18.2548   23.1420 C   0  0  0  0  0  0
  -27.2023  -18.3707   23.2834 C   0  0  0  0  0  0
  -25.8690  -18.5182   21.6434 C   0  0  0  0  0  0
  -27.3216  -18.0015   21.7924 C   0  0  0  0  0  0
  -28.3634  -24.7531   19.6170 C   0  0  0  0  0  0
  -28.4275  -23.2197   20.3353 C   0  0  0  0  0  0
  -28.3983  -19.9178   20.7588 N   0  0  0  0  0  0
  -29.5583  -16.0903   20.6386 N   0  0  0  0  0  0
  -29.2365  -22.0542   19.7345 O   0  0  0  0  0  0
  -31.4783  -12.8007   19.1955 H   0  0  0  0  0  0
  -30.4596  -11.6524   20.0156 H   0  0  0  0  0  0
  -29.8614  -11.7666   17.5780 H   0  0  0  0  0  0
  -29.6154  -13.4876   17.6927 H   0  0  0  0  0  0
  -27.9484  -11.2853   18.9524 H   0  0  0  0  0  0
  -27.4019  -12.4852   17.8024 H   0  0  0  0  0  0
  -27.5934  -14.2543   19.4095 H   0  0  0  0  0  0
  -28.7520  -12.2682   21.4406 H   0  0  0  0  0  0
  -28.3432  -13.9303   21.7746 H   0  0  0  0  0  0
  -25.2782   -9.5740   22.4715 H   0  0  0  0  0  0
  -24.0052   -7.4667   22.7447 H   0  0  0  0  0  0
  -21.0853   -8.8782   19.8972 H   0  0  0  0  0  0
  -22.3672  -10.9698   19.6173 H   0  0  0  0  0  0
  -21.2040   -7.6156   23.9706 H   0  0  0  0  0  0
  -21.1470   -6.0488   25.9037 H   0  0  0  0  0  0
  -22.0617   -2.7617   23.2755 H   0  0  0  0  0  0
  -22.4047  -12.0001   22.4942 H   0  0  0  0  0  0
  -21.1024  -13.1335   22.2546 H   0  0  0  0  0  0
  -24.5963  -15.7963   20.4818 H   0  0  0  0  0  0
  -26.1367  -15.5909   19.8253 H   0  0  0  0  0  0
  -26.7299  -32.5231   23.0980 H   0  0  0  0  0  0
  -25.0162  -33.9546   25.0353 H   0  0  0  0  0  0
  -22.7516  -31.2859   21.3847 H   0  0  0  0  0  0
  -23.3753  -35.9593   23.3259 H   0  0  0  0  0  0
  -24.3629  -36.8921   22.2070 H   0  0  0  0  0  0
  -23.7247  -37.6431   23.6701 H   0  0  0  0  0  0
  -26.1668  -31.4659   20.6161 H   0  0  0  0  0  0
  -26.8679  -30.7509   22.0386 H   0  0  0  0  0  0
  -28.1234  -28.7930   21.2264 H   0  0  0  0  0  0
  -25.9045  -25.8247   19.0107 H   0  0  0  0  0  0
  -23.9710  -27.2837   18.9956 H   0  0  0  0  0  0
  -23.8006  -30.5584   19.3975 H   0  0  0  0  0  0
  -22.7793  -29.2281   19.8514 H   0  0  0  0  0  0
  -25.1304  -36.1818   25.0801 H   0  0  0  0  0  0
  -20.9972  -28.3318   24.1424 H   0  0  0  0  0  0
  -20.5681  -26.2326   23.3646 H   0  0  0  0  0  0
  -21.6652  -26.7454   22.1286 H   0  0  0  0  0  0
  -19.6950  -25.6259   21.1337 H   0  0  0  0  0  0
  -19.6808  -27.3123   20.6715 H   0  0  0  0  0  0
  -17.4245  -26.6749   21.3945 H   0  0  0  0  0  0
  -18.0307  -26.0134   22.9000 H   0  0  0  0  0  0
  -19.7876  -30.7317   24.2263 H   0  0  0  0  0  0
  -17.4963  -31.6304   24.5154 H   0  0  0  0  0  0
  -15.5324  -30.2958   23.7729 H   0  0  0  0  0  0
  -15.8686  -28.0844   22.7085 H   0  0  0  0  0  0
  -24.5875  -30.7161   25.7835 H   0  0  0  0  0  0
  -24.8828  -32.3063   26.4702 H   0  0  0  0  0  0
  -25.7932  -30.9194   27.0330 H   0  0  0  0  0  0
  -26.2901  -29.6667   24.1388 H   0  0  0  0  0  0
  -27.3789  -29.7227   25.5043 H   0  0  0  0  0  0
  -27.8902  -30.4049   23.9787 H   0  0  0  0  0  0
  -27.2740  -33.3630   26.2063 H   0  0  0  0  0  0
  -28.3897  -32.6840   25.0301 H   0  0  0  0  0  0
  -28.0783  -31.8443   26.5402 H   0  0  0  0  0  0
  -28.2568  -38.0109   24.7497 H   0  0  0  0  0  0
  -28.1141  -36.2624   24.6182 H   0  0  0  0  0  0
  -27.2371  -37.1336   25.8858 H   0  0  0  0  0  0
  -20.9474  -29.8670   21.6745 H   0  0  0  0  0  0
  -26.0152  -38.2786   24.1406 H   0  0  0  0  0  0
  -31.3562  -17.8835   19.3043 H   0  0  0  0  0  0
  -31.1543  -20.3152   18.9512 H   0  0  0  0  0  0
  -25.1095  -19.0203   23.6705 H   0  0  0  0  0  0
  -25.2995  -17.2509   23.3513 H   0  0  0  0  0  0
  -27.6680  -17.6594   23.9681 H   0  0  0  0  0  0
  -27.5123  -19.3960   23.4970 H   0  0  0  0  0  0
  -25.7969  -19.5851   21.4206 H   0  0  0  0  0  0
  -25.2195  -17.9354   20.9919 H   0  0  0  0  0  0
  -27.3004  -16.9175   21.6974 H   0  0  0  0  0  0
  -27.6730  -24.6926   18.7779 H   0  0  0  0  0  0
  -29.3253  -24.8142   19.1071 H   0  0  0  0  0  0
  -27.4045  -22.8685   20.4672 H   0  0  0  0  0  0
  -28.8147  -23.3513   21.3445 H   0  0  0  0  0  0
  -28.6668  -15.7352   20.9530 H   0  0  0  0  0  0
  1 25  1  0  0  0
  1 30  2  0  0  0
  1 83  1  0  0  0
  2  3  1  0  0  0
  2 25  1  0  0  0
  2 85  1  0  0  0
  2 86  1  0  0  0
  3  4  1  0  0  0
  3 87  1  0  0  0
  3 88  1  0  0  0
  4  5  1  0  0  0
  4 89  1  0  0  0
  4 90  1  0  0  0
  5  6  1  0  0  0
  5 26  1  0  0  0
  5 91  1  0  0  0
  6 25  1  0  0  0
  6 92  1  0  0  0
  6 93  1  0  0  0
  7  8  2  0  0  0
  7 26  1  0  0  0
  7 29  1  0  0  0
  8  9  1  0  0  0
  8 22  1  0  0  0
  9 10  1  0  0  0
  9 27  2  0  0  0
 10 11  2  0  0  0
 10 15  1  0  0  0
 11 12  1  0  0  0
 11 94  1  0  0  0
 12 13  2  0  0  0
 12 95  1  0  0  0
 13 14  1  0  0  0
 13 31  1  0  0  0
 14 15  2  0  0  0
 14 96  1  0  0  0
 15 97  1  0  0  0
 16 17  2  0  0  0
 16 21  1  0  0  0
 16 31  1  0  0  0
 17 18  1  0  0  0
 17 98  1  0  0  0
 18 19  2  0  0  0
 18 99  1  0  0  0
 19 20  1  0  0  0
 19 24  1  0  0  0
 20 21  2  0  0  0
 20100  1  0  0  0
 21 23  1  0  0  0
 22 28  1  0  0  0
 22 32  2  0  0  0
 26 27  1  0  0  0
 28101  1  0  0  0
 28102  1  0  0  0
 29103  1  0  0  0
 29104  1  0  0  0
 33 34  1  0  0  0
 33 66  1  0  0  0
 33 70  2  0  0  0
 34 36  1  0  0  0
 34 59  1  0  0  0
 34105  1  0  0  0
 35 44  2  0  0  0
 35 45  1  0  0  0
 35 68  1  0  0  0
 36 56  1  0  0  0
 36106  1  0  0  0
 37 39  1  0  0  0
 37 47  1  0  0  0
 37 66  1  0  0  0
 37107  1  0  0  0
 38 43  2  0  0  0
 38 46  1  0  0  0
 38 47  1  0  0  0
 39 64  1  0  0  0
 39 67  2  0  0  0
 40 52  1  0  0  0
 40 53  2  0  0  0
 40 58  1  0  0  0
 41108  1  0  0  0
 41109  1  0  0  0
 41110  1  0  0  0
 41 48  1  0  0  0
 42 43  1  0  0  0
 42 66  1  0  0  0
 42111  1  0  0  0
 42112  1  0  0  0
 43 44  1  0  0  0
 44113  1  0  0  0
 45 46  2  0  0  0
 45114  1  0  0  0
 46115  1  0  0  0
 47116  1  0  0  0
 47117  1  0  0  0
 48 56  1  0  0  0
 48 65  1  0  0  0
 48118  1  0  0  0
 49 50  1  0  0  0
 49 53  1  0  0  0
 49 64  1  0  0  0
 49119  1  0  0  0
 50 51  1  0  0  0
 50120  1  0  0  0
 50121  1  0  0  0
 51 52  1  0  0  0
 51122  1  0  0  0
 51123  1  0  0  0
 52124  1  0  0  0
 52125  1  0  0  0
 53 54  1  0  0  0
 54 55  2  0  0  0
 54126  1  0  0  0
 55 57  1  0  0  0
 55127  1  0  0  0
 56 69  2  0  0  0
 57 58  2  0  0  0
 57128  1  0  0  0
 58129  1  0  0  0
 59 60  1  0  0  0
 59 61  1  0  0  0
 59 62  1  0  0  0
 60130  1  0  0  0
 60131  1  0  0  0
 60132  1  0  0  0
 61133  1  0  0  0
 61134  1  0  0  0
 61135  1  0  0  0
 62136  1  0  0  0
 62137  1  0  0  0
 62138  1  0  0  0
 63 65  1  0  0  0
 63139  1  0  0  0
 63140  1  0  0  0
 63141  1  0  0  0
 64142  1  0  0  0
 65143  1  0  0  0
 68 80  1  0  0  0
 71 72  2  0  0  0
 71 73  1  0  0  0
 71144  1  0  0  0
 72 75  1  0  0  0
 72145  1  0  0  0
 73 74  2  0  0  0
 73 83  1  0  0  0
 74 82  1  0  0  0
 74 79  1  0  0  0
 75 82  2  0  0  0
 75 84  1  0  0  0
 76 77  1  0  0  0
 76 78  1  0  0  0
 76146  1  0  0  0
 76147  1  0  0  0
 77 79  1  0  0  0
 77148  1  0  0  0
 77149  1  0  0  0
 78 79  1  0  0  0
 78150  1  0  0  0
 78151  1  0  0  0
 79152  1  0  0  0
 80 81  1  0  0  0
 80153  1  0  0  0
 80154  1  0  0  0
 81 84  1  0  0  0
 81155  1  0  0  0
 81156  1  0  0  0
 83157  1  0  0  0
M  ISO  4   1 100  68 101  80 101  83 100
M  END
> <chiral flag>
0

> <version>
0

> <s_m_source_file>
/data/baiqing/PycharmProjects/Reinvent-master-3.2/result/LINK_invent/BTK/process_docking_weight1_custom_sum_contain_oxygen_bond_distance_aromatic_linkinvent_7_9_3/rearranged_h_0122.sdf

> <i_m_source_file_index>
36

> <r_mmod_Potential_Energy-OPLS-2005>
339.864929199219

> <r_mmod_Stretch_Energy-OPLS-2005>
242.081405639648

> <r_mmod_Bend_Energy-OPLS-2005>
319.994873046875

> <r_mmod_Torsional_Energy-OPLS-2005>
217.050323486328

> <r_mmod_Improper_Torsional_Energy-OPLS-2005>
5.48853826522827

> <r_mmod_Van_der_Waal_Energy-OPLS-2005>
125.795097351074

> <r_mmod_Electrostatic_Energy-OPLS-2005>
-571.841918945312

> <r_mmod_Solvation_Energy-OPLS-2005>
-210.874130249023

> <b_mmod_Minimization_Converged-OPLS-2005>
0

> <r_mmod_RMS_Derivative-OPLS-2005>
4.81396865844727

$$$$
36
                    3D
 Structure written by MMmdl.
173182  0  0  1  0            999 V2000
  -30.6314  -14.7039   20.4905 C   0  0  0  0  0  0
  -30.4352  -12.4386   19.4564 C   0  0  0  0  0  0
  -29.5059  -12.5099   18.2253 C   0  0  0  0  0  0
  -28.0316  -12.3379   18.6412 C   0  0  0  0  0  0
  -27.6450  -13.2285   19.8523 C   0  0  2  0  0  0
  -28.6929  -13.1392   20.9825 C   0  0  0  0  0  0
  -25.2524  -13.8195   20.5693 C   0  0  0  0  0  0
  -24.1811  -13.0444   20.9206 C   0  0  0  0  0  0
  -24.6403  -11.6921   20.8753 C   0  0  0  0  0  0
  -23.9078  -10.4293   21.0417 C   0  0  0  0  0  0
  -24.3625   -9.4205   21.9195 C   0  0  0  0  0  0
  -23.6295   -8.2243   22.0760 C   0  0  0  0  0  0
  -22.4280   -8.0283   21.3548 C   0  0  0  0  0  0
  -21.9920   -9.0260   20.4650 C   0  0  0  0  0  0
  -22.7254  -10.2137   20.3061 C   0  0  0  0  0  0
  -21.6853   -6.0740   22.5284 C   0  0  0  0  0  0
  -21.4013   -6.5643   23.8216 C   0  0  0  0  0  0
  -21.3654   -5.6798   24.9179 C   0  0  0  0  0  0
  -21.6043   -4.3061   24.7231 C   0  0  0  0  0  0
  -21.8817   -3.8153   23.4350 C   0  0  0  0  0  0
  -21.9191   -4.6968   22.3408 C   0  0  0  0  0  0
  -22.7829  -13.5224   21.1866 C   0  0  0  0  0  0
  -22.1661   -4.2154   21.0985 F   0  0  0  0  0  0
  -21.5626   -3.4545   25.7742 F   0  0  0  0  0  0
  -29.9954  -13.4888   20.3999 N   0  0  0  0  0  0
  -26.2955  -12.9400   20.3296 N   0  0  0  0  0  0
  -25.9333  -11.6544   20.5760 N   0  0  0  0  0  0
  -22.0469  -12.8207   22.0412 N   0  0  0  0  0  0
  -25.4200  -15.1918   20.4092 N   0  0  0  0  0  0
  -31.8200  -14.8134   20.1808 O   0  0  0  0  0  0
  -21.6641   -6.8886   21.4247 O   0  0  0  0  0  0
  -22.3514  -14.5534   20.6721 O   0  0  0  0  0  0
  -24.6313  -31.8568   23.2007 C   0  0  0  0  0  0
  -25.9141  -32.4764   23.8352 C   0  0  1  0  0  0
  -27.2131  -27.2661   20.1209 C   0  0  0  0  0  0
  -25.5940  -33.8569   24.2272 N   0  0  0  0  0  0
  -23.4271  -30.4828   21.5453 C   0  0  2  0  0  0
  -24.8716  -28.9350   20.1131 C   0  0  0  0  0  0
  -22.7505  -29.4614   22.4921 C   0  0  0  0  0  0
  -18.0292  -28.1386   22.8488 C   0  0  0  0  0  0
  -24.1486  -36.7278   23.2642 C   0  0  0  0  0  0
  -25.9745  -30.7722   21.3793 C   0  0  0  0  0  0
  -26.0469  -29.3967   20.7190 C   0  0  0  0  0  0
  -27.2221  -28.5762   20.7102 C   0  0  0  0  0  0
  -26.0080  -26.8779   19.4873 C   0  0  0  0  0  0
  -24.8571  -27.6837   19.4873 C   0  0  0  0  0  0
  -23.6441  -29.8221   20.1607 C   0  0  0  0  0  0
  -25.4116  -36.3073   24.0327 C   0  0  1  0  0  0
  -20.5896  -28.3701   23.1266 C   0  0  2  0  0  0
  -20.6781  -26.9419   22.5406 C   0  0  0  0  0  0
  -19.5754  -26.6386   21.5212 C   0  0  0  0  0  0
  -18.1933  -26.7929   22.1622 C   0  0  0  0  0  0
  -19.1546  -28.8863   23.2871 C   0  0  0  0  0  0
  -18.9467  -30.1461   23.8895 C   0  0  0  0  0  0
  -17.6467  -30.6588   24.0565 C   0  0  0  0  0  0
  -25.9062  -34.9445   23.5100 C   0  0  0  0  0  0
  -16.5360  -29.9081   23.6337 C   0  0  0  0  0  0
  -16.7277  -28.6499   23.0359 C   0  0  0  0  0  0
  -26.4508  -31.6580   25.0737 C   0  0  0  0  0  0
  -25.3725  -31.3710   26.1449 C   0  0  0  0  0  0
  -27.0361  -30.3001   24.6208 C   0  0  0  0  0  0
  -27.6068  -32.4317   25.7504 C   0  0  0  0  0  0
  -27.5575  -37.1798   24.8468 C   0  0  0  0  0  0
  -21.4212  -29.3050   22.3662 N   0  0  0  0  0  0
  -26.4285  -37.3775   23.9415 N   0  0  0  0  0  0
  -24.6971  -31.0543   22.0983 N   0  0  0  0  0  0
  -23.4202  -28.8145   23.3014 O   0  0  0  0  0  0
  -28.3042  -26.3636   20.1683 O   0  0  0  0  0  0
  -26.5629  -34.8910   22.4664 O   0  0  0  0  0  0
  -23.5467  -32.1391   23.7303 O   0  0  0  0  0  0
  -28.2272  -21.7357   18.7574 C   0  0  0  0  0  0
  -25.5968  -19.0298   16.6076 C   0  0  0  0  0  0
  -26.9963  -19.6024   16.8424 C   0  0  0  0  0  0
  -25.1177  -19.9941   17.6964 C   0  0  0  0  0  0
  -29.9941  -23.6519   21.4383 C   0  0  0  0  0  0
  -30.7049  -22.2733   21.3521 C   0  0  0  0  0  0
  -28.6682  -22.1719   20.1568 C   0  0  2  0  0  0
  -29.1096  -23.7176   20.1975 C   0  0  1  0  0  0
  -26.3204  -20.8962   17.3535 C   0  0  0  0  0  0
  -26.0880  -22.0443   16.3659 C   0  0  0  0  0  0
  -28.0001  -24.8897   20.1476 C   0  0  0  0  0  0
  -29.6673  -18.5539   20.3925 C   0  0  0  0  0  0
  -30.2902  -17.2428   21.1146 C   0  0  0  0  0  0
  -29.6956  -19.9382   21.2307 C   0  0  0  0  0  0
  -26.9359  -21.4109   18.5803 N   0  0  0  0  0  0
  -29.8652  -15.8220   20.7596 N   0  0  0  0  0  0
  -29.8555  -21.3256   20.5664 N   0  3  2  0  0  0
  -29.0718  -21.6613   17.8610 O   0  0  0  0  0  0
  -31.4748  -12.5676   19.1499 H   0  0  0  0  0  0
  -30.3818  -11.4562   19.9280 H   0  0  0  0  0  0
  -29.7813  -11.7449   17.4982 H   0  0  0  0  0  0
  -29.6354  -13.4703   17.7233 H   0  0  0  0  0  0
  -27.8813  -11.2874   18.8932 H   0  0  0  0  0  0
  -27.3740  -12.5448   17.7960 H   0  0  0  0  0  0
  -27.6451  -14.2548   19.4841 H   0  0  0  0  0  0
  -28.7229  -12.1339   21.4046 H   0  0  0  0  0  0
  -28.4349  -13.8065   21.8062 H   0  0  0  0  0  0
  -25.2767   -9.5682   22.4773 H   0  0  0  0  0  0
  -24.0004   -7.4634   22.7479 H   0  0  0  0  0  0
  -21.0851   -8.8783   19.8951 H   0  0  0  0  0  0
  -22.3719  -10.9678   19.6167 H   0  0  0  0  0  0
  -21.2004   -7.6152   23.9723 H   0  0  0  0  0  0
  -21.1476   -6.0527   25.9081 H   0  0  0  0  0  0
  -22.0598   -2.7615   23.2854 H   0  0  0  0  0  0
  -22.4077  -11.9855   22.4786 H   0  0  0  0  0  0
  -21.1083  -13.1226   22.2618 H   0  0  0  0  0  0
  -24.6473  -15.8406   20.5105 H   0  0  0  0  0  0
  -26.2599  -15.6316   20.0570 H   0  0  0  0  0  0
  -26.7207  -32.5407   23.1098 H   0  0  0  0  0  0
  -25.0107  -33.9726   25.0429 H   0  0  0  0  0  0
  -22.7234  -31.3053   21.4017 H   0  0  0  0  0  0
  -23.3752  -35.9604   23.3303 H   0  0  0  0  0  0
  -24.3581  -36.8904   22.2058 H   0  0  0  0  0  0
  -23.7229  -37.6475   23.6668 H   0  0  0  0  0  0
  -26.1117  -31.5323   20.6091 H   0  0  0  0  0  0
  -26.8536  -30.8206   22.0099 H   0  0  0  0  0  0
  -28.1231  -28.9257   21.1955 H   0  0  0  0  0  0
  -25.9031  -25.9312   18.9851 H   0  0  0  0  0  0
  -23.9561  -27.3265   19.0076 H   0  0  0  0  0  0
  -23.7707  -30.6003   19.4070 H   0  0  0  0  0  0
  -22.7616  -29.2585   19.8543 H   0  0  0  0  0  0
  -25.1287  -36.1927   25.0817 H   0  0  0  0  0  0
  -20.9992  -28.3279   24.1384 H   0  0  0  0  0  0
  -20.5692  -26.2313   23.3612 H   0  0  0  0  0  0
  -21.6647  -26.7448   22.1196 H   0  0  0  0  0  0
  -19.6923  -25.6298   21.1240 H   0  0  0  0  0  0
  -19.6685  -27.3202   20.6745 H   0  0  0  0  0  0
  -17.4206  -26.6691   21.4017 H   0  0  0  0  0  0
  -18.0324  -26.0057   22.9007 H   0  0  0  0  0  0
  -19.7947  -30.7275   24.2261 H   0  0  0  0  0  0
  -17.5021  -31.6269   24.5166 H   0  0  0  0  0  0
  -15.5361  -30.2980   23.7664 H   0  0  0  0  0  0
  -15.8677  -28.0813   22.7079 H   0  0  0  0  0  0
  -24.5938  -30.7015   25.7778 H   0  0  0  0  0  0
  -24.8870  -32.2864   26.4847 H   0  0  0  0  0  0
  -25.8049  -30.8926   27.0245 H   0  0  0  0  0  0
  -26.2950  -29.6740   24.1229 H   0  0  0  0  0  0
  -27.4050  -29.7266   25.4721 H   0  0  0  0  0  0
  -27.8813  -30.4284   23.9440 H   0  0  0  0  0  0
  -27.2703  -33.3647   26.2033 H   0  0  0  0  0  0
  -28.3903  -32.6829   25.0341 H   0  0  0  0  0  0
  -28.0695  -31.8462   26.5458 H   0  0  0  0  0  0
  -28.2584  -38.0101   24.7525 H   0  0  0  0  0  0
  -28.1072  -36.2636   24.6274 H   0  0  0  0  0  0
  -27.2292  -37.1423   25.8867 H   0  0  0  0  0  0
  -20.9399  -29.8782   21.6875 H   0  0  0  0  0  0
  -26.0155  -38.2841   24.1428 H   0  0  0  0  0  0
  -25.4873  -17.9719   16.8493 H   0  0  0  0  0  0
  -25.1963  -19.2626   15.6190 H   0  0  0  0  0  0
  -27.5948  -19.7227   15.9379 H   0  0  0  0  0  0
  -27.5448  -19.0496   17.6085 H   0  0  0  0  0  0
  -25.1629  -19.5463   18.6919 H   0  0  0  0  0  0
  -24.1386  -20.4357   17.5062 H   0  0  0  0  0  0
  -30.7006  -24.4805   21.4958 H   0  0  0  0  0  0
  -29.3723  -23.6900   22.3343 H   0  0  0  0  0  0
  -30.9313  -21.9161   22.3576 H   0  0  0  0  0  0
  -31.6591  -22.3768   20.8338 H   0  0  0  0  0  0
  -27.8641  -22.0124   20.8774 H   0  0  0  0  0  0
  -29.7702  -23.8926   19.3462 H   0  0  0  0  0  0
  -25.6145  -21.6948   15.4485 H   0  0  0  0  0  0
  -27.0220  -22.5264   16.0768 H   0  0  0  0  0  0
  -25.4388  -22.8111   16.7893 H   0  0  0  0  0  0
  -27.2750  -24.6971   20.9398 H   0  0  0  0  0  0
  -27.4867  -24.6821   19.2113 H   0  0  0  0  0  0
  -28.6321  -18.3549   20.1133 H   0  0  0  0  0  0
  -30.1966  -18.6980   19.4499 H   0  0  0  0  0  0
  -30.0756  -17.3324   22.1804 H   0  0  0  0  0  0
  -31.3776  -17.3057   21.0485 H   0  0  0  0  0  0
  -30.5637  -19.8218   21.8803 H   0  0  0  0  0  0
  -28.8508  -19.9680   21.9198 H   0  0  0  0  0  0
  -26.3245  -21.5136   19.3808 H   0  0  0  0  0  0
  -28.8878  -15.6191   20.9064 H   0  0  0  0  0  0
  -30.3482  -21.1742   19.6965 H   0  0  0  0  0  0
  1 25  1  0  0  0
  1 30  2  0  0  0
  1 86  1  0  0  0
  2  3  1  0  0  0
  2 25  1  0  0  0
  2 89  1  0  0  0
  2 90  1  0  0  0
  3  4  1  0  0  0
  3 91  1  0  0  0
  3 92  1  0  0  0
  4  5  1  0  0  0
  4 93  1  0  0  0
  4 94  1  0  0  0
  5  6  1  0  0  0
  5 26  1  0  0  0
  5 95  1  0  0  0
  6 25  1  0  0  0
  6 96  1  0  0  0
  6 97  1  0  0  0
  7  8  2  0  0  0
  7 26  1  0  0  0
  7 29  1  0  0  0
  8  9  1  0  0  0
  8 22  1  0  0  0
  9 10  1  0  0  0
  9 27  2  0  0  0
 10 11  2  0  0  0
 10 15  1  0  0  0
 11 12  1  0  0  0
 11 98  1  0  0  0
 12 13  2  0  0  0
 12 99  1  0  0  0
 13 14  1  0  0  0
 13 31  1  0  0  0
 14 15  2  0  0  0
 14100  1  0  0  0
 15101  1  0  0  0
 16 17  2  0  0  0
 16 21  1  0  0  0
 16 31  1  0  0  0
 17 18  1  0  0  0
 17102  1  0  0  0
 18 19  2  0  0  0
 18103  1  0  0  0
 19 20  1  0  0  0
 19 24  1  0  0  0
 20 21  2  0  0  0
 20104  1  0  0  0
 21 23  1  0  0  0
 22 28  1  0  0  0
 22 32  2  0  0  0
 26 27  1  0  0  0
 28105  1  0  0  0
 28106  1  0  0  0
 29107  1  0  0  0
 29108  1  0  0  0
 33 34  1  0  0  0
 33 66  1  0  0  0
 33 70  2  0  0  0
 34 36  1  0  0  0
 34 59  1  0  0  0
 34109  1  0  0  0
 35 44  2  0  0  0
 35 45  1  0  0  0
 35 68  1  0  0  0
 36 56  1  0  0  0
 36110  1  0  0  0
 37 39  1  0  0  0
 37 47  1  0  0  0
 37 66  1  0  0  0
 37111  1  0  0  0
 38 43  2  0  0  0
 38 46  1  0  0  0
 38 47  1  0  0  0
 39 64  1  0  0  0
 39 67  2  0  0  0
 40 52  1  0  0  0
 40 53  2  0  0  0
 40 58  1  0  0  0
 41112  1  0  0  0
 41113  1  0  0  0
 41114  1  0  0  0
 41 48  1  0  0  0
 42 43  1  0  0  0
 42 66  1  0  0  0
 42115  1  0  0  0
 42116  1  0  0  0
 43 44  1  0  0  0
 44117  1  0  0  0
 45 46  2  0  0  0
 45118  1  0  0  0
 46119  1  0  0  0
 47120  1  0  0  0
 47121  1  0  0  0
 48 56  1  0  0  0
 48 65  1  0  0  0
 48122  1  0  0  0
 49 50  1  0  0  0
 49 53  1  0  0  0
 49 64  1  0  0  0
 49123  1  0  0  0
 50 51  1  0  0  0
 50124  1  0  0  0
 50125  1  0  0  0
 51 52  1  0  0  0
 51126  1  0  0  0
 51127  1  0  0  0
 52128  1  0  0  0
 52129  1  0  0  0
 53 54  1  0  0  0
 54 55  2  0  0  0
 54130  1  0  0  0
 55 57  1  0  0  0
 55131  1  0  0  0
 56 69  2  0  0  0
 57 58  2  0  0  0
 57132  1  0  0  0
 58133  1  0  0  0
 59 60  1  0  0  0
 59 61  1  0  0  0
 59 62  1  0  0  0
 60134  1  0  0  0
 60135  1  0  0  0
 60136  1  0  0  0
 61137  1  0  0  0
 61138  1  0  0  0
 61139  1  0  0  0
 62140  1  0  0  0
 62141  1  0  0  0
 62142  1  0  0  0
 63 65  1  0  0  0
 63143  1  0  0  0
 63144  1  0  0  0
 63145  1  0  0  0
 64146  1  0  0  0
 65147  1  0  0  0
 68 81  1  0  0  0
 71 85  1  0  0  0
 71 88  2  0  0  0
 71 77  1  0  0  0
 72 73  1  0  0  0
 72 74  1  0  0  0
 72148  1  0  0  0
 72149  1  0  0  0
 73 79  1  0  0  0
 73150  1  0  0  0
 73151  1  0  0  0
 74 79  1  0  0  0
 74152  1  0  0  0
 74153  1  0  0  0
 75 76  1  0  0  0
 75 78  1  0  0  0
 75154  1  0  0  0
 75155  1  0  0  0
 76 87  1  0  0  0
 76156  1  0  0  0
 76157  1  0  0  0
 77 78  1  0  0  0
 77 87  1  0  0  0
 77158  1  0  0  0
 78 81  1  0  0  0
 78159  1  0  0  0
 79 80  1  0  0  0
 79 85  1  0  0  0
 80160  1  0  0  0
 80161  1  0  0  0
 80162  1  0  0  0
 81163  1  0  0  0
 81164  1  0  0  0
 82 83  1  0  0  0
 82 84  1  0  0  0
 82165  1  0  0  0
 82166  1  0  0  0
 83 86  1  0  0  0
 83167  1  0  0  0
 83168  1  0  0  0
 84169  1  0  0  0
 84170  1  0  0  0
 84 87  1  0  0  0
 85171  1  0  0  0
 86172  1  0  0  0
 87173  1  0  0  0
M  CHG  1  87   1
M  ISO  4   1 100  68 101  81 101  86 100
M  END
> <chiral flag>
0

> <version>
0

> <s_m_source_file>
/data/baiqing/PycharmProjects/Reinvent-master-3.2/result/LINK_invent/BTK/process_docking_weight1_custom_sum_contain_oxygen_bond_distance_aromatic_linkinvent_7_9_3/rearranged_h_0122.sdf

> <i_m_source_file_index>
37

> <r_mmod_Potential_Energy-OPLS-2005>
45.0996780395508

> <r_mmod_Stretch_Energy-OPLS-2005>
115.755714416504

> <r_mmod_Bend_Energy-OPLS-2005>
226.291549682617

> <r_mmod_Torsional_Energy-OPLS-2005>
296.423553466797

> <r_mmod_Improper_Torsional_Energy-OPLS-2005>
4.23176956176758

> <r_mmod_Van_der_Waal_Energy-OPLS-2005>
118.74063873291

> <r_mmod_Electrostatic_Energy-OPLS-2005>
-324.441467285156

> <r_mmod_Solvation_Energy-OPLS-2005>
-467.700500488281

> <b_mmod_Minimization_Converged-OPLS-2005>
0

> <r_mmod_RMS_Derivative-OPLS-2005>
0.977184653282166

$$$$
37
                    3D
 Structure written by MMmdl.
168176  0  0  1  0            999 V2000
  -30.7207  -14.3987   20.5996 C   0  0  0  0  0  0
  -30.4274  -12.2764   19.3956 C   0  0  0  0  0  0
  -29.4905  -12.5132   18.1939 C   0  0  0  0  0  0
  -28.0095  -12.3861   18.6057 C   0  0  0  0  0  0
  -27.6682  -13.2002   19.8834 C   0  0  2  0  0  0
  -28.7111  -12.9339   20.9923 C   0  0  0  0  0  0
  -25.2605  -13.8128   20.5702 C   0  0  0  0  0  0
  -24.1839  -13.0434   20.9174 C   0  0  0  0  0  0
  -24.6370  -11.6900   20.8723 C   0  0  0  0  0  0
  -23.9010  -10.4302   21.0389 C   0  0  0  0  0  0
  -24.3562   -9.4225   21.9163 C   0  0  0  0  0  0
  -23.6268   -8.2238   22.0707 C   0  0  0  0  0  0
  -22.4245   -8.0261   21.3510 C   0  0  0  0  0  0
  -21.9868   -9.0230   20.4599 C   0  0  0  0  0  0
  -22.7177  -10.2137   20.3035 C   0  0  0  0  0  0
  -21.6819   -6.0748   22.5293 C   0  0  0  0  0  0
  -21.4000   -6.5638   23.8237 C   0  0  0  0  0  0
  -21.3649   -5.6769   24.9182 C   0  0  0  0  0  0
  -21.6037   -4.3043   24.7208 C   0  0  0  0  0  0
  -21.8817   -3.8152   23.4320 C   0  0  0  0  0  0
  -21.9175   -4.6975   22.3390 C   0  0  0  0  0  0
  -22.7852  -13.5266   21.1826 C   0  0  0  0  0  0
  -22.1630   -4.2167   21.0957 F   0  0  0  0  0  0
  -21.5631   -3.4521   25.7714 F   0  0  0  0  0  0
  -30.0452  -13.2326   20.4410 N   0  0  0  0  0  0
  -26.3061  -12.9310   20.3419 N   0  0  0  0  0  0
  -25.9309  -11.6474   20.5735 N   0  0  0  0  0  0
  -22.0452  -12.8319   22.0375 N   0  0  0  0  0  0
  -25.4335  -15.1852   20.4175 N   0  0  0  0  0  0
  -31.8454  -14.6041   20.1298 O   0  0  0  0  0  0
  -21.6584   -6.8891   21.4251 O   0  0  0  0  0  0
  -22.3544  -14.5579   20.6660 O   0  0  0  0  0  0
  -24.6105  -31.8691   23.2161 C   0  0  0  0  0  0
  -25.9034  -32.4835   23.8415 C   0  0  1  0  0  0
  -27.2354  -27.4706   20.0857 C   0  0  0  0  0  0
  -25.5912  -33.8629   24.2363 N   0  0  0  0  0  0
  -23.3936  -30.4946   21.5548 C   0  0  2  0  0  0
  -24.8406  -28.9582   20.1213 C   0  0  0  0  0  0
  -22.7379  -29.4666   22.5041 C   0  0  0  0  0  0
  -18.0251  -28.1358   22.8499 C   0  0  0  0  0  0
  -24.1474  -36.7312   23.2641 C   0  0  0  0  0  0
  -25.9173  -30.8432   21.3652 C   0  0  0  0  0  0
  -25.9958  -29.4761   20.7208 C   0  0  0  0  0  0
  -27.1960  -28.7363   20.7123 C   0  0  0  0  0  0
  -26.0707  -26.9598   19.4829 C   0  0  0  0  0  0
  -24.8689  -27.6942   19.5049 C   0  0  0  0  0  0
  -23.6025  -29.8232   20.1703 C   0  0  0  0  0  0
  -25.4092  -36.3113   24.0356 C   0  0  1  0  0  0
  -20.5838  -28.3626   23.1351 C   0  0  2  0  0  0
  -20.6744  -26.9387   22.5416 C   0  0  0  0  0  0
  -19.5735  -26.6374   21.5208 C   0  0  0  0  0  0
  -18.1902  -26.7905   22.1608 C   0  0  0  0  0  0
  -19.1502  -28.8814   23.2901 C   0  0  0  0  0  0
  -18.9435  -30.1419   23.8903 C   0  0  0  0  0  0
  -17.6450  -30.6578   24.0542 C   0  0  0  0  0  0
  -25.9022  -34.9487   23.5150 C   0  0  0  0  0  0
  -16.5333  -29.9083   23.6318 C   0  0  0  0  0  0
  -16.7238  -28.6484   23.0359 C   0  0  0  0  0  0
  -26.4472  -31.6601   25.0724 C   0  0  0  0  0  0
  -25.3741  -31.3718   26.1480 C   0  0  0  0  0  0
  -27.0311  -30.3055   24.6085 C   0  0  0  0  0  0
  -27.6035  -32.4326   25.7494 C   0  0  0  0  0  0
  -27.5577  -37.1797   24.8470 C   0  0  0  0  0  0
  -21.4119  -29.3013   22.3781 N   0  0  0  0  0  0
  -26.4283  -37.3805   23.9433 N   0  0  0  0  0  0
  -24.6583  -31.0830   22.1045 N   0  0  0  0  0  0
  -23.4182  -28.8196   23.3048 O   0  0  0  0  0  0
  -28.3931  -26.7430   19.9846 O   0  0  0  0  0  0
  -26.5550  -34.8949   22.4694 O   0  0  0  0  0  0
  -23.5316  -32.1414   23.7607 O   0  0  0  0  0  0
  -29.9938  -15.9055   22.4121 C   0  0  0  0  0  0
  -29.4417  -17.2137   21.8570 C   0  0  2  0  0  0
  -30.1217  -16.8000   20.5547 C   0  0  2  0  0  0
  -29.4333  -16.9851   19.2022 C   0  0  0  0  0  0
  -28.9131  -18.7074   23.8313 C   0  0  0  0  0  0
  -28.6318  -23.8523   20.6539 C   0  0  0  0  0  0
  -28.4014  -24.9981   21.6564 C   0  0  0  0  0  0
  -29.7496  -19.7692   21.6632 C   0  0  0  0  0  0
  -28.1199  -22.5069   21.1969 C   0  0  0  0  0  0
  -28.4053  -20.0587   20.9599 C   0  0  0  0  0  0
  -28.9952  -26.3437   21.2096 C   0  0  0  0  0  0
  -29.7793  -18.5239   22.5731 C   0  0  2  0  0  0
  -29.9564  -15.4174   21.0321 N   0  0  0  0  0  0
  -28.4142  -21.3767   20.2909 N   0  3  0  0  0  0
  -31.4675  -12.3860   19.0832 H   0  0  0  0  0  0
  -30.3380  -11.2556   19.7695 H   0  0  0  0  0  0
  -29.7202  -11.8075   17.3937 H   0  0  0  0  0  0
  -29.6671  -13.5101   17.7857 H   0  0  0  0  0  0
  -27.7985  -11.3289   18.7741 H   0  0  0  0  0  0
  -27.3670  -12.6988   17.7814 H   0  0  0  0  0  0
  -27.7273  -14.2551   19.6155 H   0  0  0  0  0  0
  -28.6717  -11.8894   21.3040 H   0  0  0  0  0  0
  -28.4821  -13.5142   21.8876 H   0  0  0  0  0  0
  -25.2680   -9.5742   22.4776 H   0  0  0  0  0  0
  -23.9994   -7.4634   22.7430 H   0  0  0  0  0  0
  -21.0802   -8.8753   19.8903 H   0  0  0  0  0  0
  -22.3604  -10.9685   19.6177 H   0  0  0  0  0  0
  -21.1997   -7.6144   23.9762 H   0  0  0  0  0  0
  -21.1469   -6.0479   25.9097 H   0  0  0  0  0  0
  -22.0623   -2.7616   23.2807 H   0  0  0  0  0  0
  -22.3967  -11.9962   22.4815 H   0  0  0  0  0  0
  -21.1083  -13.1429   22.2501 H   0  0  0  0  0  0
  -24.6658  -15.8401   20.5254 H   0  0  0  0  0  0
  -26.3017  -15.6235   20.1399 H   0  0  0  0  0  0
  -26.7087  -32.5571   23.1161 H   0  0  0  0  0  0
  -25.0112  -33.9764   25.0548 H   0  0  0  0  0  0
  -22.6779  -31.3085   21.4197 H   0  0  0  0  0  0
  -23.3751  -35.9626   23.3296 H   0  0  0  0  0  0
  -24.3564  -36.8920   22.2056 H   0  0  0  0  0  0
  -23.7219  -37.6521   23.6637 H   0  0  0  0  0  0
  -26.0198  -31.6087   20.5942 H   0  0  0  0  0  0
  -26.8087  -30.9018   21.9775 H   0  0  0  0  0  0
  -28.0891  -29.1480   21.1604 H   0  0  0  0  0  0
  -26.0985  -25.9951   18.9945 H   0  0  0  0  0  0
  -23.9808  -27.2920   19.0352 H   0  0  0  0  0  0
  -23.7045  -30.5953   19.4067 H   0  0  0  0  0  0
  -22.7282  -29.2368   19.8823 H   0  0  0  0  0  0
  -25.1267  -36.1958   25.0845 H   0  0  0  0  0  0
  -20.9875  -28.3167   24.1489 H   0  0  0  0  0  0
  -20.5637  -26.2242   23.3587 H   0  0  0  0  0  0
  -21.6618  -26.7433   22.1216 H   0  0  0  0  0  0
  -19.6895  -25.6281   21.1242 H   0  0  0  0  0  0
  -19.6704  -27.3167   20.6730 H   0  0  0  0  0  0
  -17.4186  -26.6661   21.3993 H   0  0  0  0  0  0
  -18.0301  -26.0038   22.8994 H   0  0  0  0  0  0
  -19.7928  -30.7221   24.2289 H   0  0  0  0  0  0
  -17.5020  -31.6281   24.5117 H   0  0  0  0  0  0
  -15.5332  -30.2991   23.7662 H   0  0  0  0  0  0
  -15.8633  -28.0815   22.7087 H   0  0  0  0  0  0
  -24.5916  -30.7050   25.7837 H   0  0  0  0  0  0
  -24.8927  -32.2880   26.4910 H   0  0  0  0  0  0
  -25.8093  -30.8914   27.0247 H   0  0  0  0  0  0
  -26.2848  -29.6822   24.1138 H   0  0  0  0  0  0
  -27.4100  -29.7299   25.4542 H   0  0  0  0  0  0
  -27.8675  -30.4417   23.9225 H   0  0  0  0  0  0
  -27.2629  -33.3625   26.2071 H   0  0  0  0  0  0
  -28.3837  -32.6881   25.0305 H   0  0  0  0  0  0
  -28.0693  -31.8444   26.5410 H   0  0  0  0  0  0
  -28.2573  -38.0113   24.7537 H   0  0  0  0  0  0
  -28.1078  -36.2645   24.6238 H   0  0  0  0  0  0
  -27.2301  -37.1388   25.8873 H   0  0  0  0  0  0
  -20.9265  -29.8758   21.7048 H   0  0  0  0  0  0
  -26.0176  -38.2880   24.1440 H   0  0  0  0  0  0
  -29.3128  -15.4108   23.1057 H   0  0  0  0  0  0
  -31.0017  -15.9895   22.8300 H   0  0  0  0  0  0
  -28.3589  -17.1177   21.7285 H   0  0  0  0  0  0
  -31.1695  -17.1128   20.5303 H   0  0  0  0  0  0
  -28.3531  -16.8545   19.2769 H   0  0  0  0  0  0
  -29.7859  -16.2648   18.4625 H   0  0  0  0  0  0
  -29.6228  -17.9763   18.7887 H   0  0  0  0  0  0
  -29.0965  -17.9059   24.5472 H   0  0  0  0  0  0
  -27.8468  -18.6983   23.5988 H   0  0  0  0  0  0
  -29.1348  -19.6476   24.3366 H   0  0  0  0  0  0
  -29.6994  -23.7777   20.4393 H   0  0  0  0  0  0
  -28.1383  -24.0821   19.7081 H   0  0  0  0  0  0
  -28.8472  -24.7311   22.6156 H   0  0  0  0  0  0
  -27.3324  -25.1101   21.8401 H   0  0  0  0  0  0
  -30.0541  -20.6272   22.2628 H   0  0  0  0  0  0
  -30.5268  -19.6685   20.9052 H   0  0  0  0  0  0
  -27.0428  -22.5434   21.3550 H   0  0  0  0  0  0
  -28.5669  -22.3347   22.1769 H   0  0  0  0  0  0
  -27.5672  -20.0131   21.6568 H   0  0  0  0  0  0
  -28.2121  -19.2944   20.2086 H   0  0  0  0  0  0
  -30.0684  -26.2425   21.0449 H   0  0  0  0  0  0
  -28.8784  -27.0891   21.9967 H   0  0  0  0  0  0
  -30.8094  -18.4504   22.9277 H   0  0  0  0  0  0
  -29.3081  -21.5117   19.8478 H   0  0  0  0  0  0
  -27.7159  -21.3686   19.5630 H   0  0  0  0  0  0
  1 25  1  0  0  0
  1 30  2  0  0  0
  1 83  1  0  0  0
  2  3  1  0  0  0
  2 25  1  0  0  0
  2 85  1  0  0  0
  2 86  1  0  0  0
  3  4  1  0  0  0
  3 87  1  0  0  0
  3 88  1  0  0  0
  4  5  1  0  0  0
  4 89  1  0  0  0
  4 90  1  0  0  0
  5  6  1  0  0  0
  5 26  1  0  0  0
  5 91  1  0  0  0
  6 25  1  0  0  0
  6 92  1  0  0  0
  6 93  1  0  0  0
  7  8  2  0  0  0
  7 26  1  0  0  0
  7 29  1  0  0  0
  8  9  1  0  0  0
  8 22  1  0  0  0
  9 10  1  0  0  0
  9 27  2  0  0  0
 10 11  2  0  0  0
 10 15  1  0  0  0
 11 12  1  0  0  0
 11 94  1  0  0  0
 12 13  2  0  0  0
 12 95  1  0  0  0
 13 14  1  0  0  0
 13 31  1  0  0  0
 14 15  2  0  0  0
 14 96  1  0  0  0
 15 97  1  0  0  0
 16 17  2  0  0  0
 16 21  1  0  0  0
 16 31  1  0  0  0
 17 18  1  0  0  0
 17 98  1  0  0  0
 18 19  2  0  0  0
 18 99  1  0  0  0
 19 20  1  0  0  0
 19 24  1  0  0  0
 20 21  2  0  0  0
 20100  1  0  0  0
 21 23  1  0  0  0
 22 28  1  0  0  0
 22 32  2  0  0  0
 26 27  1  0  0  0
 28101  1  0  0  0
 28102  1  0  0  0
 29103  1  0  0  0
 29104  1  0  0  0
 33 34  1  0  0  0
 33 66  1  0  0  0
 33 70  2  0  0  0
 34 36  1  0  0  0
 34 59  1  0  0  0
 34105  1  0  0  0
 35 44  2  0  0  0
 35 45  1  0  0  0
 35 68  1  0  0  0
 36 56  1  0  0  0
 36106  1  0  0  0
 37 39  1  0  0  0
 37 47  1  0  0  0
 37 66  1  0  0  0
 37107  1  0  0  0
 38 43  2  0  0  0
 38 46  1  0  0  0
 38 47  1  0  0  0
 39 64  1  0  0  0
 39 67  2  0  0  0
 40 52  1  0  0  0
 40 53  2  0  0  0
 40 58  1  0  0  0
 41108  1  0  0  0
 41109  1  0  0  0
 41110  1  0  0  0
 41 48  1  0  0  0
 42 43  1  0  0  0
 42 66  1  0  0  0
 42111  1  0  0  0
 42112  1  0  0  0
 43 44  1  0  0  0
 44113  1  0  0  0
 45 46  2  0  0  0
 45114  1  0  0  0
 46115  1  0  0  0
 47116  1  0  0  0
 47117  1  0  0  0
 48 56  1  0  0  0
 48 65  1  0  0  0
 48118  1  0  0  0
 49 50  1  0  0  0
 49 53  1  0  0  0
 49 64  1  0  0  0
 49119  1  0  0  0
 50 51  1  0  0  0
 50120  1  0  0  0
 50121  1  0  0  0
 51 52  1  0  0  0
 51122  1  0  0  0
 51123  1  0  0  0
 52124  1  0  0  0
 52125  1  0  0  0
 53 54  1  0  0  0
 54 55  2  0  0  0
 54126  1  0  0  0
 55 57  1  0  0  0
 55127  1  0  0  0
 56 69  2  0  0  0
 57 58  2  0  0  0
 57128  1  0  0  0
 58129  1  0  0  0
 59 60  1  0  0  0
 59 61  1  0  0  0
 59 62  1  0  0  0
 60130  1  0  0  0
 60131  1  0  0  0
 60132  1  0  0  0
 61133  1  0  0  0
 61134  1  0  0  0
 61135  1  0  0  0
 62136  1  0  0  0
 62137  1  0  0  0
 62138  1  0  0  0
 63 65  1  0  0  0
 63139  1  0  0  0
 63140  1  0  0  0
 63141  1  0  0  0
 64142  1  0  0  0
 65143  1  0  0  0
 68 81  1  0  0  0
 71 83  1  0  0  0
 71144  1  0  0  0
 71145  1  0  0  0
 71 72  1  0  0  0
 72 73  1  0  0  0
 72 82  1  0  0  0
 72146  1  0  0  0
 73 74  1  0  0  0
 73 83  1  0  0  0
 73147  1  0  0  0
 74148  1  0  0  0
 74149  1  0  0  0
 74150  1  0  0  0
 75151  1  0  0  0
 75152  1  0  0  0
 75153  1  0  0  0
 75 82  1  0  0  0
 76 77  1  0  0  0
 76 79  1  0  0  0
 76154  1  0  0  0
 76155  1  0  0  0
 77 81  1  0  0  0
 77156  1  0  0  0
 77157  1  0  0  0
 78 80  1  0  0  0
 78 82  1  0  0  0
 78158  1  0  0  0
 78159  1  0  0  0
 79 84  1  0  0  0
 79160  1  0  0  0
 79161  1  0  0  0
 80 84  1  0  0  0
 80162  1  0  0  0
 80163  1  0  0  0
 81164  1  0  0  0
 81165  1  0  0  0
 82166  1  0  0  0
 84167  1  0  0  0
 84168  1  0  0  0
M  CHG  1  84   1
M  ISO  4   1 100  68 101  81 101  83 100
M  END
> <chiral flag>
0

> <version>
0

> <s_m_source_file>
/data/baiqing/PycharmProjects/Reinvent-master-3.2/result/LINK_invent/BTK/process_docking_weight1_custom_sum_contain_oxygen_bond_distance_aromatic_linkinvent_7_9_3/rearranged_h_0122.sdf

> <i_m_source_file_index>
38

> <r_mmod_Potential_Energy-OPLS-2005>
-67.867301940918

> <r_mmod_Stretch_Energy-OPLS-2005>
31.086404800415

> <r_mmod_Bend_Energy-OPLS-2005>
96.0193634033203

> <r_mmod_Torsional_Energy-OPLS-2005>
301.894195556641

> <r_mmod_Improper_Torsional_Energy-OPLS-2005>
14.4260282516479

> <r_mmod_Van_der_Waal_Energy-OPLS-2005>
122.102523803711

> <r_mmod_Electrostatic_Energy-OPLS-2005>
-194.982040405273

> <r_mmod_Solvation_Energy-OPLS-2005>
-446.831604003906

> <b_mmod_Minimization_Converged-OPLS-2005>
0

> <r_mmod_RMS_Derivative-OPLS-2005>
3.57924795150757

$$$$
38
                    3D
 Structure written by MMmdl.
165173  0  0  1  0            999 V2000
  -30.6017  -14.8102   20.4399 C   0  0  0  0  0  0
  -30.4320  -12.4947   19.4942 C   0  0  0  0  0  0
  -29.5153  -12.5174   18.2499 C   0  0  0  0  0  0
  -28.0433  -12.3284   18.6616 C   0  0  0  0  0  0
  -27.6369  -13.2412   19.8489 C   0  0  2  0  0  0
  -28.6798  -13.2149   20.9894 C   0  0  0  0  0  0
  -25.2426  -13.8170   20.5610 C   0  0  0  0  0  0
  -24.1761  -13.0408   20.9212 C   0  0  0  0  0  0
  -24.6395  -11.6910   20.8768 C   0  0  0  0  0  0
  -23.9083  -10.4282   21.0420 C   0  0  0  0  0  0
  -24.3631   -9.4195   21.9193 C   0  0  0  0  0  0
  -23.6296   -8.2234   22.0756 C   0  0  0  0  0  0
  -22.4276   -8.0278   21.3547 C   0  0  0  0  0  0
  -21.9922   -9.0253   20.4651 C   0  0  0  0  0  0
  -22.7257  -10.2130   20.3062 C   0  0  0  0  0  0
  -21.6851   -6.0739   22.5281 C   0  0  0  0  0  0
  -21.4013   -6.5642   23.8215 C   0  0  0  0  0  0
  -21.3659   -5.6794   24.9174 C   0  0  0  0  0  0
  -21.6040   -4.3056   24.7227 C   0  0  0  0  0  0
  -21.8816   -3.8150   23.4348 C   0  0  0  0  0  0
  -21.9194   -4.6967   22.3405 C   0  0  0  0  0  0
  -22.7788  -13.5192   21.1869 C   0  0  0  0  0  0
  -22.1659   -4.2150   21.0982 F   0  0  0  0  0  0
  -21.5632   -3.4539   25.7744 F   0  0  0  0  0  0
  -29.9806  -13.5742   20.4100 N   0  0  0  0  0  0
  -26.2906  -12.9426   20.3276 N   0  0  0  0  0  0
  -25.9335  -11.6563   20.5787 N   0  0  0  0  0  0
  -22.0439  -12.8192   22.0442 N   0  0  0  0  0  0
  -25.3952  -15.1862   20.3826 N   0  0  0  0  0  0
  -31.7822  -14.8905   20.0899 O   0  0  0  0  0  0
  -21.6633   -6.8880   21.4241 O   0  0  0  0  0  0
  -22.3473  -14.5487   20.6703 O   0  0  0  0  0  0
  -24.6344  -31.8512   23.1929 C   0  0  0  0  0  0
  -25.9152  -32.4732   23.8292 C   0  0  1  0  0  0
  -27.2202  -27.2181   20.1387 C   0  0  0  0  0  0
  -25.5931  -33.8536   24.2214 N   0  0  0  0  0  0
  -23.4326  -30.4727   21.5371 C   0  0  2  0  0  0
  -24.8795  -28.9105   20.1099 C   0  0  0  0  0  0
  -22.7515  -29.4580   22.4882 C   0  0  0  0  0  0
  -18.0293  -28.1393   22.8492 C   0  0  0  0  0  0
  -24.1478  -36.7268   23.2639 C   0  0  0  0  0  0
  -25.9813  -30.7550   21.3745 C   0  0  0  0  0  0
  -26.0527  -29.3717   20.7188 C   0  0  0  0  0  0
  -27.2211  -28.5381   20.7197 C   0  0  0  0  0  0
  -26.0177  -26.8315   19.5050 C   0  0  0  0  0  0
  -24.8698  -27.6507   19.4928 C   0  0  0  0  0  0
  -23.6527  -29.8023   20.1546 C   0  0  0  0  0  0
  -25.4106  -36.3051   24.0319 C   0  0  1  0  0  0
  -20.5901  -28.3698   23.1257 C   0  0  2  0  0  0
  -20.6780  -26.9408   22.5410 C   0  0  0  0  0  0
  -19.5752  -26.6379   21.5222 C   0  0  0  0  0  0
  -18.1927  -26.7931   22.1633 C   0  0  0  0  0  0
  -19.1551  -28.8863   23.2873 C   0  0  0  0  0  0
  -18.9477  -30.1468   23.8890 C   0  0  0  0  0  0
  -17.6472  -30.6597   24.0557 C   0  0  0  0  0  0
  -25.9057  -34.9430   23.5068 C   0  0  0  0  0  0
  -16.5364  -29.9093   23.6331 C   0  0  0  0  0  0
  -16.7277  -28.6510   23.0353 C   0  0  0  0  0  0
  -26.4504  -31.6581   25.0709 C   0  0  0  0  0  0
  -25.3700  -31.3781   26.1418 C   0  0  0  0  0  0
  -27.0365  -30.2987   24.6235 C   0  0  0  0  0  0
  -27.6044  -32.4334   25.7495 C   0  0  0  0  0  0
  -27.5564  -37.1788   24.8465 C   0  0  0  0  0  0
  -21.4216  -29.3040   22.3641 N   0  0  0  0  0  0
  -26.4276  -37.3758   23.9410 N   0  0  0  0  0  0
  -24.7028  -31.0442   22.0918 N   0  0  0  0  0  0
  -23.4200  -28.8118   23.2988 O   0  0  0  0  0  0
  -28.3311  -26.3327   20.2279 O   0  0  0  0  0  0
  -26.5647  -34.8920   22.4648 O   0  0  0  0  0  0
  -23.5489  -32.1350   23.7207 O   0  0  0  0  0  0
  -28.0311  -20.9443   21.2303 C   0  0  0  0  0  0
  -30.2588  -20.0334   19.7128 C   0  0  0  0  0  0
  -28.2180  -19.3696   20.9626 C   0  0  1  0  0  0
  -29.7073  -18.8887   20.6779 C   0  0  1  0  0  0
  -28.6932  -22.0118   20.2797 C   0  0  1  0  0  0
  -27.5133  -17.1684   22.2154 C   0  0  0  0  0  0
  -29.5694  -23.9277   21.8626 C   0  0  0  0  0  0
  -27.5542  -18.6925   22.1914 C   0  0  0  0  0  0
  -30.0679  -17.3903   20.0370 C   0  0  0  0  0  0
  -28.3712  -24.8777   19.7669 C   0  0  0  0  0  0
  -28.5280  -23.5945   20.7792 C   0  0  2  0  0  0
  -29.8416  -15.9718   20.6246 N   0  0  0  0  0  0
  -30.0926  -21.4896   20.1244 N   0  3  0  0  0  0
  -31.4725  -12.6176   19.1898 H   0  0  0  0  0  0
  -30.3834  -11.5272   19.9956 H   0  0  0  0  0  0
  -29.8110  -11.7375   17.5472 H   0  0  0  0  0  0
  -29.6304  -13.4660   17.7236 H   0  0  0  0  0  0
  -27.9130  -11.2817   18.9410 H   0  0  0  0  0  0
  -27.3851  -12.4991   17.8091 H   0  0  0  0  0  0
  -27.6189  -14.2549   19.4489 H   0  0  0  0  0  0
  -28.7253  -12.2302   21.4551 H   0  0  0  0  0  0
  -28.4016  -13.9170   21.7772 H   0  0  0  0  0  0
  -25.2773   -9.5671   22.4769 H   0  0  0  0  0  0
  -24.0004   -7.4625   22.7473 H   0  0  0  0  0  0
  -21.0854   -8.8778   19.8951 H   0  0  0  0  0  0
  -22.3717  -10.9673   19.6171 H   0  0  0  0  0  0
  -21.1994   -7.6145   23.9721 H   0  0  0  0  0  0
  -21.1485   -6.0519   25.9079 H   0  0  0  0  0  0
  -22.0594   -2.7611   23.2848 H   0  0  0  0  0  0
  -22.4072  -11.9876   22.4853 H   0  0  0  0  0  0
  -21.1050  -13.1213   22.2626 H   0  0  0  0  0  0
  -24.6134  -15.8254   20.4732 H   0  0  0  0  0  0
  -26.2267  -15.6281   20.0161 H   0  0  0  0  0  0
  -26.7224  -32.5377   23.1040 H   0  0  0  0  0  0
  -25.0067  -33.9659   25.0353 H   0  0  0  0  0  0
  -22.7324  -31.2977   21.3860 H   0  0  0  0  0  0
  -23.3744  -35.9598   23.3301 H   0  0  0  0  0  0
  -24.3567  -36.8904   22.2056 H   0  0  0  0  0  0
  -23.7228  -37.6461   23.6675 H   0  0  0  0  0  0
  -26.1204  -31.5121   20.6016 H   0  0  0  0  0  0
  -26.8600  -30.8079   22.0066 H   0  0  0  0  0  0
  -28.1183  -28.8884   21.2108 H   0  0  0  0  0  0
  -25.9124  -25.8681   19.0346 H   0  0  0  0  0  0
  -23.9673  -27.2875   19.0190 H   0  0  0  0  0  0
  -23.7787  -30.5766   19.3974 H   0  0  0  0  0  0
  -22.7700  -29.2379   19.8484 H   0  0  0  0  0  0
  -25.1288  -36.1887   25.0812 H   0  0  0  0  0  0
  -21.0016  -28.3296   24.1372 H   0  0  0  0  0  0
  -20.5688  -26.2311   23.3623 H   0  0  0  0  0  0
  -21.6641  -26.7425   22.1199 H   0  0  0  0  0  0
  -19.6908  -25.6291   21.1253 H   0  0  0  0  0  0
  -19.6690  -27.3194   20.6756 H   0  0  0  0  0  0
  -17.4201  -26.6689   21.4035 H   0  0  0  0  0  0
  -18.0313  -26.0080   22.9034 H   0  0  0  0  0  0
  -19.7956  -30.7283   24.2254 H   0  0  0  0  0  0
  -17.5029  -31.6275   24.5162 H   0  0  0  0  0  0
  -15.5368  -30.2993   23.7653 H   0  0  0  0  0  0
  -15.8677  -28.0827   22.7061 H   0  0  0  0  0  0
  -24.5883  -30.7114   25.7764 H   0  0  0  0  0  0
  -24.8900  -32.2979   26.4771 H   0  0  0  0  0  0
  -25.7995  -30.9018   27.0237 H   0  0  0  0  0  0
  -26.2985  -29.6742   24.1198 H   0  0  0  0  0  0
  -27.3957  -29.7240   25.4783 H   0  0  0  0  0  0
  -27.8879  -30.4246   23.9543 H   0  0  0  0  0  0
  -27.2627  -33.3640   26.2029 H   0  0  0  0  0  0
  -28.3870  -32.6894   25.0341 H   0  0  0  0  0  0
  -28.0683  -31.8493   26.5453 H   0  0  0  0  0  0
  -28.2577  -38.0086   24.7501 H   0  0  0  0  0  0
  -28.1052  -36.2613   24.6293 H   0  0  0  0  0  0
  -27.2282  -37.1449   25.8869 H   0  0  0  0  0  0
  -20.9404  -29.8772   21.6855 H   0  0  0  0  0  0
  -26.0141  -38.2822   24.1435 H   0  0  0  0  0  0
  -28.3884  -21.1530   22.2387 H   0  0  0  0  0  0
  -26.9629  -21.1618   21.2681 H   0  0  0  0  0  0
  -29.8019  -19.9161   18.7290 H   0  0  0  0  0  0
  -31.3258  -19.8707   19.5544 H   0  0  0  0  0  0
  -27.6288  -19.1213   20.0783 H   0  0  0  0  0  0
  -30.2589  -18.9709   21.6152 H   0  0  0  0  0  0
  -28.2030  -21.9248   19.3081 H   0  0  0  0  0  0
  -28.4508  -16.7636   22.5932 H   0  0  0  0  0  0
  -27.3148  -16.7692   21.2245 H   0  0  0  0  0  0
  -26.7274  -16.8127   22.8835 H   0  0  0  0  0  0
  -30.5768  -23.9801   21.4495 H   0  0  0  0  0  0
  -29.5678  -23.1879   22.6644 H   0  0  0  0  0  0
  -29.3594  -24.8940   22.3230 H   0  0  0  0  0  0
  -26.5217  -19.0402   22.2494 H   0  0  0  0  0  0
  -28.0292  -19.0331   23.1133 H   0  0  0  0  0  0
  -31.1332  -17.4273   19.8064 H   0  0  0  0  0  0
  -29.5888  -17.3544   19.0577 H   0  0  0  0  0  0
  -27.5568  -24.6583   19.0831 H   0  0  0  0  0  0
  -29.2478  -24.8427   19.1198 H   0  0  0  0  0  0
  -27.5682  -23.5950   21.2975 H   0  0  0  0  0  0
  -28.9051  -15.7998   20.9603 H   0  0  0  0  0  0
  -30.5554  -22.0529   19.4292 H   0  0  0  0  0  0
  -30.5924  -21.6258   20.9879 H   0  0  0  0  0  0
  1 25  1  0  0  0
  1 30  2  0  0  0
  1 82  1  0  0  0
  2  3  1  0  0  0
  2 25  1  0  0  0
  2 84  1  0  0  0
  2 85  1  0  0  0
  3  4  1  0  0  0
  3 86  1  0  0  0
  3 87  1  0  0  0
  4  5  1  0  0  0
  4 88  1  0  0  0
  4 89  1  0  0  0
  5  6  1  0  0  0
  5 26  1  0  0  0
  5 90  1  0  0  0
  6 25  1  0  0  0
  6 91  1  0  0  0
  6 92  1  0  0  0
  7  8  2  0  0  0
  7 26  1  0  0  0
  7 29  1  0  0  0
  8  9  1  0  0  0
  8 22  1  0  0  0
  9 10  1  0  0  0
  9 27  2  0  0  0
 10 11  2  0  0  0
 10 15  1  0  0  0
 11 12  1  0  0  0
 11 93  1  0  0  0
 12 13  2  0  0  0
 12 94  1  0  0  0
 13 14  1  0  0  0
 13 31  1  0  0  0
 14 15  2  0  0  0
 14 95  1  0  0  0
 15 96  1  0  0  0
 16 17  2  0  0  0
 16 21  1  0  0  0
 16 31  1  0  0  0
 17 18  1  0  0  0
 17 97  1  0  0  0
 18 19  2  0  0  0
 18 98  1  0  0  0
 19 20  1  0  0  0
 19 24  1  0  0  0
 20 21  2  0  0  0
 20 99  1  0  0  0
 21 23  1  0  0  0
 22 28  1  0  0  0
 22 32  2  0  0  0
 26 27  1  0  0  0
 28100  1  0  0  0
 28101  1  0  0  0
 29102  1  0  0  0
 29103  1  0  0  0
 33 34  1  0  0  0
 33 66  1  0  0  0
 33 70  2  0  0  0
 34 36  1  0  0  0
 34 59  1  0  0  0
 34104  1  0  0  0
 35 44  2  0  0  0
 35 45  1  0  0  0
 35 68  1  0  0  0
 36 56  1  0  0  0
 36105  1  0  0  0
 37 39  1  0  0  0
 37 47  1  0  0  0
 37 66  1  0  0  0
 37106  1  0  0  0
 38 43  2  0  0  0
 38 46  1  0  0  0
 38 47  1  0  0  0
 39 64  1  0  0  0
 39 67  2  0  0  0
 40 52  1  0  0  0
 40 53  2  0  0  0
 40 58  1  0  0  0
 41107  1  0  0  0
 41108  1  0  0  0
 41109  1  0  0  0
 41 48  1  0  0  0
 42 43  1  0  0  0
 42 66  1  0  0  0
 42110  1  0  0  0
 42111  1  0  0  0
 43 44  1  0  0  0
 44112  1  0  0  0
 45 46  2  0  0  0
 45113  1  0  0  0
 46114  1  0  0  0
 47115  1  0  0  0
 47116  1  0  0  0
 48 56  1  0  0  0
 48 65  1  0  0  0
 48117  1  0  0  0
 49 50  1  0  0  0
 49 53  1  0  0  0
 49 64  1  0  0  0
 49118  1  0  0  0
 50 51  1  0  0  0
 50119  1  0  0  0
 50120  1  0  0  0
 51 52  1  0  0  0
 51121  1  0  0  0
 51122  1  0  0  0
 52123  1  0  0  0
 52124  1  0  0  0
 53 54  1  0  0  0
 54 55  2  0  0  0
 54125  1  0  0  0
 55 57  1  0  0  0
 55126  1  0  0  0
 56 69  2  0  0  0
 57 58  2  0  0  0
 57127  1  0  0  0
 58128  1  0  0  0
 59 60  1  0  0  0
 59 61  1  0  0  0
 59 62  1  0  0  0
 60129  1  0  0  0
 60130  1  0  0  0
 60131  1  0  0  0
 61132  1  0  0  0
 61133  1  0  0  0
 61134  1  0  0  0
 62135  1  0  0  0
 62136  1  0  0  0
 62137  1  0  0  0
 63 65  1  0  0  0
 63138  1  0  0  0
 63139  1  0  0  0
 63140  1  0  0  0
 64141  1  0  0  0
 65142  1  0  0  0
 68 80  1  0  0  0
 71 73  1  0  0  0
 71143  1  0  0  0
 71144  1  0  0  0
 71 75  1  0  0  0
 72 74  1  0  0  0
 72 83  1  0  0  0
 72145  1  0  0  0
 72146  1  0  0  0
 73 74  1  0  0  0
 73 78  1  0  0  0
 73147  1  0  0  0
 74 79  1  0  0  0
 74148  1  0  0  0
 75 81  1  0  0  0
 75 83  1  0  0  0
 75149  1  0  0  0
 76 78  1  0  0  0
 76150  1  0  0  0
 76151  1  0  0  0
 76152  1  0  0  0
 77153  1  0  0  0
 77154  1  0  0  0
 77155  1  0  0  0
 77 81  1  0  0  0
 78156  1  0  0  0
 78157  1  0  0  0
 79 82  1  0  0  0
 79158  1  0  0  0
 79159  1  0  0  0
 80 81  1  0  0  0
 80160  1  0  0  0
 80161  1  0  0  0
 81162  1  0  0  0
 82163  1  0  0  0
 83164  1  0  0  0
 83165  1  0  0  0
M  CHG  1  83   1
M  ISO  4   1 100  68 101  80 101  82 100
M  END
> <chiral flag>
0

> <version>
0

> <s_m_source_file>
/data/baiqing/PycharmProjects/Reinvent-master-3.2/result/LINK_invent/BTK/process_docking_weight1_custom_sum_contain_oxygen_bond_distance_aromatic_linkinvent_7_9_3/rearranged_h_0122.sdf

> <i_m_source_file_index>
39

> <r_mmod_Potential_Energy-OPLS-2005>
219.728897094727

> <r_mmod_Stretch_Energy-OPLS-2005>
173.313003540039

> <r_mmod_Bend_Energy-OPLS-2005>
256.172668457031

> <r_mmod_Torsional_Energy-OPLS-2005>
278.787994384766

> <r_mmod_Improper_Torsional_Energy-OPLS-2005>
6.54005336761475

> <r_mmod_Van_der_Waal_Energy-OPLS-2005>
119.385345458984

> <r_mmod_Electrostatic_Energy-OPLS-2005>
-264.365142822266

> <r_mmod_Solvation_Energy-OPLS-2005>
-462.765045166016

> <b_mmod_Minimization_Converged-OPLS-2005>
0

> <r_mmod_RMS_Derivative-OPLS-2005>
1.62155830860138

$$$$
39
                    3D
 Structure written by MMmdl.
175184  0  0  1  0            999 V2000
  -30.6763  -14.5329   20.4967 C   0  0  0  0  0  0
  -30.4209  -12.3203   19.4363 C   0  0  0  0  0  0
  -29.5012  -12.4944   18.2093 C   0  0  0  0  0  0
  -28.0207  -12.3519   18.6178 C   0  0  0  0  0  0
  -27.6532  -13.2048   19.8632 C   0  0  2  0  0  0
  -28.7009  -13.0372   20.9880 C   0  0  0  0  0  0
  -25.2585  -13.7961   20.5903 C   0  0  0  0  0  0
  -24.1785  -13.0279   20.9179 C   0  0  0  0  0  0
  -24.6363  -11.6779   20.8683 C   0  0  0  0  0  0
  -23.9031  -10.4204   21.0374 C   0  0  0  0  0  0
  -24.3588   -9.4137   21.9159 C   0  0  0  0  0  0
  -23.6269   -8.2179   22.0717 C   0  0  0  0  0  0
  -22.4250   -8.0233   21.3517 C   0  0  0  0  0  0
  -21.9882   -9.0202   20.4621 C   0  0  0  0  0  0
  -22.7202  -10.2074   20.3027 C   0  0  0  0  0  0
  -21.6833   -6.0716   22.5293 C   0  0  0  0  0  0
  -21.4012   -6.5615   23.8230 C   0  0  0  0  0  0
  -21.3656   -5.6763   24.9191 C   0  0  0  0  0  0
  -21.6036   -4.3026   24.7232 C   0  0  0  0  0  0
  -21.8814   -3.8124   23.4351 C   0  0  0  0  0  0
  -21.9186   -4.6947   22.3412 C   0  0  0  0  0  0
  -22.7837  -13.5152   21.1880 C   0  0  0  0  0  0
  -22.1648   -4.2134   21.0987 F   0  0  0  0  0  0
  -21.5635   -3.4502   25.7741 F   0  0  0  0  0  0
  -30.0243  -13.3391   20.4228 N   0  0  0  0  0  0
  -26.3003  -12.9201   20.3357 N   0  0  0  0  0  0
  -25.9296  -11.6361   20.5683 N   0  0  0  0  0  0
  -22.0453  -12.8174   22.0426 N   0  0  0  0  0  0
  -25.4401  -15.1632   20.4878 N   0  0  0  0  0  0
  -31.8452  -14.6626   20.1216 O   0  0  0  0  0  0
  -21.6592   -6.8853   21.4251 O   0  0  0  0  0  0
  -22.3584  -14.5503   20.6756 O   0  0  0  0  0  0
  -24.6140  -31.8657   23.2079 C   0  0  0  0  0  0
  -25.9036  -32.4810   23.8379 C   0  0  1  0  0  0
  -27.2605  -27.4358   20.0844 C   0  0  0  0  0  0
  -25.5887  -33.8608   24.2302 N   0  0  0  0  0  0
  -23.4039  -30.4847   21.5465 C   0  0  2  0  0  0
  -24.8547  -28.9443   20.1126 C   0  0  0  0  0  0
  -22.7419  -29.4634   22.4980 C   0  0  0  0  0  0
  -18.0266  -28.1377   22.8479 C   0  0  0  0  0  0
  -24.1482  -36.7314   23.2643 C   0  0  0  0  0  0
  -25.9320  -30.8253   21.3654 C   0  0  0  0  0  0
  -26.0084  -29.4577   20.7137 C   0  0  0  0  0  0
  -27.2051  -28.7084   20.7008 C   0  0  0  0  0  0
  -26.0827  -26.9340   19.4787 C   0  0  0  0  0  0
  -24.8858  -27.6807   19.4953 C   0  0  0  0  0  0
  -23.6141  -29.8091   20.1630 C   0  0  0  0  0  0
  -25.4113  -36.3108   24.0333 C   0  0  1  0  0  0
  -20.5856  -28.3667   23.1314 C   0  0  2  0  0  0
  -20.6762  -26.9404   22.5429 C   0  0  0  0  0  0
  -19.5745  -26.6385   21.5221 C   0  0  0  0  0  0
  -18.1916  -26.7918   22.1627 C   0  0  0  0  0  0
  -19.1519  -28.8844   23.2879 C   0  0  0  0  0  0
  -18.9450  -30.1453   23.8881 C   0  0  0  0  0  0
  -17.6453  -30.6585   24.0568 C   0  0  0  0  0  0
  -25.9035  -34.9472   23.5123 C   0  0  0  0  0  0
  -16.5339  -29.9093   23.6328 C   0  0  0  0  0  0
  -16.7259  -28.6517   23.0329 C   0  0  0  0  0  0
  -26.4472  -31.6597   25.0719 C   0  0  0  0  0  0
  -25.3758  -31.3711   26.1483 C   0  0  0  0  0  0
  -27.0304  -30.3035   24.6119 C   0  0  0  0  0  0
  -27.6026  -32.4349   25.7481 C   0  0  0  0  0  0
  -27.5584  -37.1808   24.8466 C   0  0  0  0  0  0
  -21.4150  -29.3020   22.3724 N   0  0  0  0  0  0
  -26.4298  -37.3802   23.9403 N   0  0  0  0  0  0
  -24.6675  -31.0750   22.0969 N   0  0  0  0  0  0
  -23.4195  -28.8186   23.3027 O   0  0  0  0  0  0
  -28.4680  -26.7572   20.1348 O   0  0  0  0  0  0
  -26.5624  -34.8931   22.4687 O   0  0  0  0  0  0
  -23.5336  -32.1396   23.7469 O   0  0  0  0  0  0
  -31.7637  -18.9088   20.6828 C   0  0  0  0  0  0
  -31.4403  -17.5559   20.9443 C   0  0  0  0  0  0
  -29.6384  -19.1833   19.5743 C   0  0  0  0  0  0
  -29.2608  -17.8569   19.8923 C   0  0  0  0  0  0
  -30.8614  -19.7362   19.9800 C   0  0  0  0  0  0
  -30.1987  -16.9942   20.5415 C   0  0  0  0  0  0
  -26.7675  -18.4670   19.8721 C   0  0  0  0  0  0
  -27.8047  -17.1322   17.9559 C   0  0  0  0  0  0
  -25.3812  -18.2481   19.2293 C   0  0  0  0  0  0
  -26.3767  -16.8449   17.4581 C   0  0  0  0  0  0
  -27.8535  -17.4213   19.4683 C   0  0  0  0  0  0
  -29.0887  -25.8723   18.0001 C   0  0  0  0  0  0
  -31.1863  -21.1809   19.5807 C   0  0  0  0  0  0
  -30.2201  -22.2632   20.1489 C   0  0  0  0  0  0
  -29.8432  -24.7833   20.2091 C   0  0  0  0  0  0
  -28.7015  -25.5169   19.4458 C   0  0  2  0  0  0
  -29.9026  -15.6064   20.7969 N   0  0  0  0  0  0
  -25.4740  -17.9693   17.7796 N   0  3  0  0  0  0
  -30.4229  -23.5954   19.5126 N   0  3  0  0  0  0
  -31.4694  -12.4087   19.1443 H   0  0  0  0  0  0
  -30.3097  -11.3200   19.8573 H   0  0  0  0  0  0
  -29.7499  -11.7610   17.4402 H   0  0  0  0  0  0
  -29.6670  -13.4764   17.7623 H   0  0  0  0  0  0
  -27.8356  -11.2986   18.8267 H   0  0  0  0  0  0
  -27.3728  -12.6080   17.7787 H   0  0  0  0  0  0
  -27.6732  -14.2407   19.5302 H   0  0  0  0  0  0
  -28.6871  -12.0154   21.3715 H   0  0  0  0  0  0
  -28.4686  -13.6750   21.8413 H   0  0  0  0  0  0
  -25.2738   -9.5609   22.4723 H   0  0  0  0  0  0
  -23.9965   -7.4563   22.7433 H   0  0  0  0  0  0
  -21.0798   -8.8717   19.8955 H   0  0  0  0  0  0
  -22.3656  -10.9601   19.6127 H   0  0  0  0  0  0
  -21.1999   -7.6122   23.9730 H   0  0  0  0  0  0
  -21.1491   -6.0494   25.9092 H   0  0  0  0  0  0
  -22.0609   -2.7586   23.2855 H   0  0  0  0  0  0
  -22.4008  -11.9788   22.4799 H   0  0  0  0  0  0
  -21.1092  -13.1275   22.2640 H   0  0  0  0  0  0
  -24.7109  -15.7358   20.8974 H   0  0  0  0  0  0
  -26.3608  -15.5236   20.6826 H   0  0  0  0  0  0
  -26.7096  -32.5525   23.1128 H   0  0  0  0  0  0
  -25.0022  -33.9775   25.0444 H   0  0  0  0  0  0
  -22.6912  -31.2987   21.4043 H   0  0  0  0  0  0
  -23.3747  -35.9640   23.3312 H   0  0  0  0  0  0
  -24.3565  -36.8947   22.2057 H   0  0  0  0  0  0
  -23.7234  -37.6525   23.6646 H   0  0  0  0  0  0
  -26.0532  -31.5888   20.5957 H   0  0  0  0  0  0
  -26.8162  -30.8717   21.9895 H   0  0  0  0  0  0
  -28.0971  -29.1035   21.1682 H   0  0  0  0  0  0
  -26.0599  -25.9721   18.9918 H   0  0  0  0  0  0
  -23.9966  -27.2785   19.0309 H   0  0  0  0  0  0
  -23.7202  -30.5800   19.3986 H   0  0  0  0  0  0
  -22.7396  -29.2244   19.8728 H   0  0  0  0  0  0
  -25.1285  -36.1979   25.0831 H   0  0  0  0  0  0
  -20.9928  -28.3236   24.1441 H   0  0  0  0  0  0
  -20.5675  -26.2277   23.3614 H   0  0  0  0  0  0
  -21.6628  -26.7458   22.1202 H   0  0  0  0  0  0
  -19.6909  -25.6303   21.1229 H   0  0  0  0  0  0
  -19.6690  -27.3216   20.6762 H   0  0  0  0  0  0
  -17.4199  -26.6673   21.4020 H   0  0  0  0  0  0
  -18.0307  -26.0069   22.9030 H   0  0  0  0  0  0
  -19.7936  -30.7274   24.2234 H   0  0  0  0  0  0
  -17.5020  -31.6252   24.5197 H   0  0  0  0  0  0
  -15.5342  -30.2996   23.7673 H   0  0  0  0  0  0
  -15.8651  -28.0862   22.7008 H   0  0  0  0  0  0
  -24.5886  -30.7112   25.7828 H   0  0  0  0  0  0
  -24.9010  -32.2883   26.4973 H   0  0  0  0  0  0
  -25.8130  -30.8843   27.0209 H   0  0  0  0  0  0
  -26.2851  -29.6801   24.1180 H   0  0  0  0  0  0
  -27.4074  -29.7271   25.4574 H   0  0  0  0  0  0
  -27.8669  -30.4342   23.9256 H   0  0  0  0  0  0
  -27.2588  -33.3614   26.2082 H   0  0  0  0  0  0
  -28.3793  -32.6996   25.0295 H   0  0  0  0  0  0
  -28.0726  -31.8491   26.5392 H   0  0  0  0  0  0
  -28.2602  -38.0107   24.7510 H   0  0  0  0  0  0
  -28.1077  -36.2642   24.6268 H   0  0  0  0  0  0
  -27.2297  -37.1434   25.8871 H   0  0  0  0  0  0
  -20.9331  -29.8751   21.6942 H   0  0  0  0  0  0
  -26.0194  -38.2883   24.1406 H   0  0  0  0  0  0
  -32.7231  -19.2954   20.9992 H   0  0  0  0  0  0
  -32.1636  -16.9441   21.4638 H   0  0  0  0  0  0
  -28.9832  -19.8088   18.9888 H   0  0  0  0  0  0
  -26.6709  -18.4898   20.9581 H   0  0  0  0  0  0
  -27.0501  -19.4781   19.5934 H   0  0  0  0  0  0
  -28.2026  -17.9817   17.3994 H   0  0  0  0  0  0
  -28.4570  -16.2900   17.7212 H   0  0  0  0  0  0
  -24.7654  -19.1350   19.3812 H   0  0  0  0  0  0
  -24.8370  -17.4479   19.7173 H   0  0  0  0  0  0
  -25.9929  -15.9243   17.9004 H   0  0  0  0  0  0
  -26.3823  -16.6896   16.3785 H   0  0  0  0  0  0
  -27.6164  -16.5039   19.9963 H   0  0  0  0  0  0
  -30.0002  -26.4707   17.9742 H   0  0  0  0  0  0
  -28.3057  -26.4577   17.5188 H   0  0  0  0  0  0
  -29.2497  -24.9819   17.3911 H   0  0  0  0  0  0
  -31.1722  -21.2184   18.4906 H   0  0  0  0  0  0
  -32.2135  -21.4121   19.8703 H   0  0  0  0  0  0
  -30.3766  -22.3279   21.2265 H   0  0  0  0  0  0
  -29.1781  -21.9759   19.9992 H   0  0  0  0  0  0
  -29.5050  -24.5158   21.2105 H   0  0  0  0  0  0
  -30.6644  -25.4864   20.3559 H   0  0  0  0  0  0
  -27.8212  -24.8778   19.4618 H   0  0  0  0  0  0
  -28.9412  -15.3847   20.9951 H   0  0  0  0  0  0
  -25.7893  -18.7963   17.2971 H   0  0  0  0  0  0
  -24.5499  -17.7557   17.4350 H   0  0  0  0  0  0
  -30.0899  -23.5606   18.5612 H   0  0  0  0  0  0
  -31.4176  -23.7523   19.4613 H   0  0  0  0  0  0
  1 25  1  0  0  0
  1 30  2  0  0  0
  1 87  1  0  0  0
  2  3  1  0  0  0
  2 25  1  0  0  0
  2 90  1  0  0  0
  2 91  1  0  0  0
  3  4  1  0  0  0
  3 92  1  0  0  0
  3 93  1  0  0  0
  4  5  1  0  0  0
  4 94  1  0  0  0
  4 95  1  0  0  0
  5  6  1  0  0  0
  5 26  1  0  0  0
  5 96  1  0  0  0
  6 25  1  0  0  0
  6 97  1  0  0  0
  6 98  1  0  0  0
  7  8  2  0  0  0
  7 26  1  0  0  0
  7 29  1  0  0  0
  8  9  1  0  0  0
  8 22  1  0  0  0
  9 10  1  0  0  0
  9 27  2  0  0  0
 10 11  2  0  0  0
 10 15  1  0  0  0
 11 12  1  0  0  0
 11 99  1  0  0  0
 12 13  2  0  0  0
 12100  1  0  0  0
 13 14  1  0  0  0
 13 31  1  0  0  0
 14 15  2  0  0  0
 14101  1  0  0  0
 15102  1  0  0  0
 16 17  2  0  0  0
 16 21  1  0  0  0
 16 31  1  0  0  0
 17 18  1  0  0  0
 17103  1  0  0  0
 18 19  2  0  0  0
 18104  1  0  0  0
 19 20  1  0  0  0
 19 24  1  0  0  0
 20 21  2  0  0  0
 20105  1  0  0  0
 21 23  1  0  0  0
 22 28  1  0  0  0
 22 32  2  0  0  0
 26 27  1  0  0  0
 28106  1  0  0  0
 28107  1  0  0  0
 29108  1  0  0  0
 29109  1  0  0  0
 33 34  1  0  0  0
 33 66  1  0  0  0
 33 70  2  0  0  0
 34 36  1  0  0  0
 34 59  1  0  0  0
 34110  1  0  0  0
 35 44  2  0  0  0
 35 45  1  0  0  0
 35 68  1  0  0  0
 36 56  1  0  0  0
 36111  1  0  0  0
 37 39  1  0  0  0
 37 47  1  0  0  0
 37 66  1  0  0  0
 37112  1  0  0  0
 38 43  2  0  0  0
 38 46  1  0  0  0
 38 47  1  0  0  0
 39 64  1  0  0  0
 39 67  2  0  0  0
 40 52  1  0  0  0
 40 53  2  0  0  0
 40 58  1  0  0  0
 41113  1  0  0  0
 41114  1  0  0  0
 41115  1  0  0  0
 41 48  1  0  0  0
 42 43  1  0  0  0
 42 66  1  0  0  0
 42116  1  0  0  0
 42117  1  0  0  0
 43 44  1  0  0  0
 44118  1  0  0  0
 45 46  2  0  0  0
 45119  1  0  0  0
 46120  1  0  0  0
 47121  1  0  0  0
 47122  1  0  0  0
 48 56  1  0  0  0
 48 65  1  0  0  0
 48123  1  0  0  0
 49 50  1  0  0  0
 49 53  1  0  0  0
 49 64  1  0  0  0
 49124  1  0  0  0
 50 51  1  0  0  0
 50125  1  0  0  0
 50126  1  0  0  0
 51 52  1  0  0  0
 51127  1  0  0  0
 51128  1  0  0  0
 52129  1  0  0  0
 52130  1  0  0  0
 53 54  1  0  0  0
 54 55  2  0  0  0
 54131  1  0  0  0
 55 57  1  0  0  0
 55132  1  0  0  0
 56 69  2  0  0  0
 57 58  2  0  0  0
 57133  1  0  0  0
 58134  1  0  0  0
 59 60  1  0  0  0
 59 61  1  0  0  0
 59 62  1  0  0  0
 60135  1  0  0  0
 60136  1  0  0  0
 60137  1  0  0  0
 61138  1  0  0  0
 61139  1  0  0  0
 61140  1  0  0  0
 62141  1  0  0  0
 62142  1  0  0  0
 62143  1  0  0  0
 63 65  1  0  0  0
 63144  1  0  0  0
 63145  1  0  0  0
 63146  1  0  0  0
 64147  1  0  0  0
 65148  1  0  0  0
 68 86  1  0  0  0
 71 72  2  0  0  0
 71 75  1  0  0  0
 71149  1  0  0  0
 72 76  1  0  0  0
 72150  1  0  0  0
 73 74  1  0  0  0
 73 75  2  0  0  0
 73151  1  0  0  0
 74 76  2  0  0  0
 74 81  1  0  0  0
 75 83  1  0  0  0
 76 87  1  0  0  0
 77 79  1  0  0  0
 77 81  1  0  0  0
 77152  1  0  0  0
 77153  1  0  0  0
 78 80  1  0  0  0
 78 81  1  0  0  0
 78154  1  0  0  0
 78155  1  0  0  0
 79 88  1  0  0  0
 79156  1  0  0  0
 79157  1  0  0  0
 80 88  1  0  0  0
 80158  1  0  0  0
 80159  1  0  0  0
 81160  1  0  0  0
 82161  1  0  0  0
 82162  1  0  0  0
 82163  1  0  0  0
 82 86  1  0  0  0
 83 84  1  0  0  0
 83164  1  0  0  0
 83165  1  0  0  0
 84 89  1  0  0  0
 84166  1  0  0  0
 84167  1  0  0  0
 85 86  1  0  0  0
 85 89  1  0  0  0
 85168  1  0  0  0
 85169  1  0  0  0
 86170  1  0  0  0
 87171  1  0  0  0
 88172  1  0  0  0
 88173  1  0  0  0
 89174  1  0  0  0
 89175  1  0  0  0
M  CHG  2  88   1  89   1
M  ISO  4   1 100  68 101  86 101  87 100
M  END
> <chiral flag>
0

> <version>
0

> <s_m_source_file>
/data/baiqing/PycharmProjects/Reinvent-master-3.2/result/LINK_invent/BTK/process_docking_weight1_custom_sum_contain_oxygen_bond_distance_aromatic_linkinvent_7_9_3/rearranged_h_0122.sdf

> <i_m_source_file_index>
40

> <r_mmod_Potential_Energy-OPLS-2005>
-299.549102783203

> <r_mmod_Stretch_Energy-OPLS-2005>
45.3522872924805

> <r_mmod_Bend_Energy-OPLS-2005>
114.168434143066

> <r_mmod_Torsional_Energy-OPLS-2005>
279.958709716797

> <r_mmod_Improper_Torsional_Energy-OPLS-2005>
9.41530895233154

> <r_mmod_Van_der_Waal_Energy-OPLS-2005>
148.619583129883

> <r_mmod_Electrostatic_Energy-OPLS-2005>
-16.2750759124756

> <r_mmod_Solvation_Energy-OPLS-2005>
-902.410034179688

> <b_mmod_Minimization_Converged-OPLS-2005>
0

> <r_mmod_RMS_Derivative-OPLS-2005>
3.00323081016541

$$$$
40
                    3D
 Structure written by MMmdl.
158166  0  0  1  0            999 V2000
  -30.5354  -14.8975   20.4308 C   0  0  0  0  0  0
  -30.4452  -12.5484   19.5001 C   0  0  0  0  0  0
  -29.5233  -12.5310   18.2575 C   0  0  0  0  0  0
  -28.0531  -12.3266   18.6699 C   0  0  0  0  0  0
  -27.6390  -13.2414   19.8515 C   0  0  2  0  0  0
  -28.6810  -13.2213   20.9916 C   0  0  0  0  0  0
  -25.2496  -13.8204   20.5710 C   0  0  0  0  0  0
  -24.1796  -13.0439   20.9213 C   0  0  0  0  0  0
  -24.6398  -11.6919   20.8749 C   0  0  0  0  0  0
  -23.9075  -10.4292   21.0405 C   0  0  0  0  0  0
  -24.3624   -9.4206   21.9182 C   0  0  0  0  0  0
  -23.6295   -8.2244   22.0754 C   0  0  0  0  0  0
  -22.4279   -8.0281   21.3543 C   0  0  0  0  0  0
  -21.9915   -9.0255   20.4646 C   0  0  0  0  0  0
  -22.7246  -10.2132   20.3055 C   0  0  0  0  0  0
  -21.6852   -6.0733   22.5274 C   0  0  0  0  0  0
  -21.4015   -6.5637   23.8207 C   0  0  0  0  0  0
  -21.3663   -5.6791   24.9169 C   0  0  0  0  0  0
  -21.6044   -4.3054   24.7221 C   0  0  0  0  0  0
  -21.8820   -3.8144   23.4342 C   0  0  0  0  0  0
  -21.9193   -4.6960   22.3398 C   0  0  0  0  0  0
  -22.7817  -13.5217   21.1866 C   0  0  0  0  0  0
  -22.1662   -4.2145   21.0976 F   0  0  0  0  0  0
  -21.5631   -3.4540   25.7736 F   0  0  0  0  0  0
  -29.9699  -13.6259   20.4119 N   0  0  0  0  0  0
  -26.2926  -12.9425   20.3285 N   0  0  0  0  0  0
  -25.9333  -11.6558   20.5751 N   0  0  0  0  0  0
  -22.0467  -12.8206   22.0425 N   0  0  0  0  0  0
  -25.4182  -15.1930   20.4137 N   0  0  0  0  0  0
  -31.7141  -15.0052   20.0688 O   0  0  0  0  0  0
  -21.6642   -6.8879   21.4237 O   0  0  0  0  0  0
  -22.3502  -14.5522   20.6709 O   0  0  0  0  0  0
  -24.6409  -31.8450   23.1896 C   0  0  0  0  0  0
  -25.9193  -32.4698   23.8273 C   0  0  1  0  0  0
  -27.2224  -27.1569   20.1338 C   0  0  0  0  0  0
  -25.5952  -33.8504   24.2190 N   0  0  0  0  0  0
  -23.4431  -30.4650   21.5343 C   0  0  2  0  0  0
  -24.8924  -28.8969   20.1042 C   0  0  0  0  0  0
  -22.7549  -29.4548   22.4857 C   0  0  0  0  0  0
  -18.0299  -28.1391   22.8466 C   0  0  0  0  0  0
  -24.1493  -36.7258   23.2642 C   0  0  0  0  0  0
  -25.9972  -30.7235   21.3865 C   0  0  0  0  0  0
  -26.0666  -29.3379   20.7244 C   0  0  0  0  0  0
  -27.2259  -28.4801   20.7296 C   0  0  0  0  0  0
  -26.0170  -26.8105   19.4808 C   0  0  0  0  0  0
  -24.8785  -27.6453   19.4712 C   0  0  0  0  0  0
  -23.6675  -29.7959   20.1517 C   0  0  0  0  0  0
  -25.4126  -36.3032   24.0314 C   0  0  1  0  0  0
  -20.5909  -28.3711   23.1234 C   0  0  2  0  0  0
  -20.6785  -26.9415   22.5405 C   0  0  0  0  0  0
  -19.5766  -26.6376   21.5205 C   0  0  0  0  0  0
  -18.1943  -26.7929   22.1611 C   0  0  0  0  0  0
  -19.1555  -28.8868   23.2842 C   0  0  0  0  0  0
  -18.9476  -30.1464   23.8868 C   0  0  0  0  0  0
  -17.6474  -30.6587   24.0554 C   0  0  0  0  0  0
  -25.9073  -34.9407   23.5058 C   0  0  0  0  0  0
  -16.5362  -29.9081   23.6338 C   0  0  0  0  0  0
  -16.7284  -28.6505   23.0348 C   0  0  0  0  0  0
  -26.4521  -31.6569   25.0712 C   0  0  0  0  0  0
  -25.3712  -31.3754   26.1412 C   0  0  0  0  0  0
  -27.0392  -30.2967   24.6292 C   0  0  0  0  0  0
  -27.6049  -32.4339   25.7499 C   0  0  0  0  0  0
  -27.5577  -37.1785   24.8465 C   0  0  0  0  0  0
  -21.4244  -29.3040   22.3609 N   0  0  0  0  0  0
  -26.4289  -37.3745   23.9405 N   0  0  0  0  0  0
  -24.7132  -31.0320   22.0921 N   0  0  0  0  0  0
  -23.4202  -28.8097   23.2998 O   0  0  0  0  0  0
  -28.2965  -26.2066   20.2671 O   0  0  0  0  0  0
  -26.5654  -34.8903   22.4634 O   0  0  0  0  0  0
  -23.5533  -32.1319   23.7128 O   0  0  0  0  0  0
  -29.4937  -18.4206   21.6185 C   0  0  0  0  0  0
  -29.5553  -19.5212   19.1806 C   0  0  0  0  0  0
  -29.3370  -19.8655   21.4930 C   0  0  0  0  0  0
  -29.3156  -20.5072   20.1992 C   0  0  0  0  0  0
  -29.7333  -17.5143   20.5353 C   0  0  0  0  0  0
  -27.8094  -20.4411   23.4172 C   0  0  0  0  0  0
  -30.3179  -20.3436   23.7964 C   0  0  0  0  0  0
  -29.1896  -22.1060   19.7459 C   0  0  0  0  0  0
  -28.3763  -24.8748   19.5433 C   0  0  0  0  0  0
  -29.1939  -20.6610   22.7965 C   0  0  0  0  0  0
  -29.7582  -18.1514   19.3236 N   0  0  0  0  0  0
  -29.7317  -16.0097   20.7673 N   0  0  0  0  0  0
  -28.5810  -23.3782   20.4526 N   0  3  0  0  0  0
  -29.3136  -21.9672   22.5700 F   0  0  0  0  0  0
  -31.4812  -12.7005   19.1934 H   0  0  0  0  0  0
  -30.4266  -11.5834   20.0091 H   0  0  0  0  0  0
  -29.8323  -11.7446   17.5676 H   0  0  0  0  0  0
  -29.6226  -13.4718   17.7134 H   0  0  0  0  0  0
  -27.9348  -11.2813   18.9571 H   0  0  0  0  0  0
  -27.3925  -12.4852   17.8168 H   0  0  0  0  0  0
  -27.6178  -14.2543   19.4484 H   0  0  0  0  0  0
  -28.7503  -12.2286   21.4388 H   0  0  0  0  0  0
  -28.3854  -13.8959   21.7963 H   0  0  0  0  0  0
  -25.2767   -9.5682   22.4757 H   0  0  0  0  0  0
  -24.0002   -7.4637   22.7477 H   0  0  0  0  0  0
  -21.0846   -8.8774   19.8954 H   0  0  0  0  0  0
  -22.3703  -10.9670   19.6166 H   0  0  0  0  0  0
  -21.2008   -7.6145   23.9707 H   0  0  0  0  0  0
  -21.1486   -6.0523   25.9072 H   0  0  0  0  0  0
  -22.0598   -2.7605   23.2841 H   0  0  0  0  0  0
  -22.4092  -11.9866   22.4804 H   0  0  0  0  0  0
  -21.1082  -13.1220   22.2636 H   0  0  0  0  0  0
  -24.6465  -15.8430   20.5175 H   0  0  0  0  0  0
  -26.2566  -15.6304   20.0539 H   0  0  0  0  0  0
  -26.7252  -32.5305   23.0998 H   0  0  0  0  0  0
  -25.0086  -33.9619   25.0326 H   0  0  0  0  0  0
  -22.7455  -31.2912   21.3821 H   0  0  0  0  0  0
  -23.3757  -35.9587   23.3294 H   0  0  0  0  0  0
  -24.3578  -36.8903   22.2059 H   0  0  0  0  0  0
  -23.7250  -37.6450   23.6688 H   0  0  0  0  0  0
  -26.1519  -31.4809   20.6167 H   0  0  0  0  0  0
  -26.8680  -30.7712   22.0290 H   0  0  0  0  0  0
  -28.1171  -28.8079   21.2465 H   0  0  0  0  0  0
  -25.8881  -25.8506   19.0097 H   0  0  0  0  0  0
  -23.9769  -27.2979   18.9847 H   0  0  0  0  0  0
  -23.8012  -30.5728   19.3979 H   0  0  0  0  0  0
  -22.7825  -29.2376   19.8419 H   0  0  0  0  0  0
  -25.1316  -36.1861   25.0806 H   0  0  0  0  0  0
  -20.9995  -28.3306   24.1359 H   0  0  0  0  0  0
  -20.5674  -26.2322   23.3621 H   0  0  0  0  0  0
  -21.6652  -26.7424   22.1206 H   0  0  0  0  0  0
  -19.6930  -25.6283   21.1251 H   0  0  0  0  0  0
  -19.6713  -27.3170   20.6721 H   0  0  0  0  0  0
  -17.4211  -26.6661   21.4016 H   0  0  0  0  0  0
  -18.0345  -26.0081   22.9017 H   0  0  0  0  0  0
  -19.7955  -30.7279   24.2227 H   0  0  0  0  0  0
  -17.5034  -31.6269   24.5155 H   0  0  0  0  0  0
  -15.5364  -30.2969   23.7689 H   0  0  0  0  0  0
  -15.8684  -28.0821   22.7068 H   0  0  0  0  0  0
  -24.5903  -30.7088   25.7738 H   0  0  0  0  0  0
  -24.8886  -32.2932   26.4779 H   0  0  0  0  0  0
  -25.8001  -30.8972   27.0229 H   0  0  0  0  0  0
  -26.3008  -29.6688   24.1295 H   0  0  0  0  0  0
  -27.4003  -29.7275   25.4868 H   0  0  0  0  0  0
  -27.8915  -30.4206   23.9609 H   0  0  0  0  0  0
  -27.2640  -33.3662   26.2015 H   0  0  0  0  0  0
  -28.3893  -32.6868   25.0353 H   0  0  0  0  0  0
  -28.0683  -31.8509   26.5470 H   0  0  0  0  0  0
  -28.2580  -38.0092   24.7506 H   0  0  0  0  0  0
  -28.1085  -36.2619   24.6297 H   0  0  0  0  0  0
  -27.2288  -37.1435   25.8865 H   0  0  0  0  0  0
  -20.9444  -29.8765   21.6805 H   0  0  0  0  0  0
  -26.0156  -38.2810   24.1414 H   0  0  0  0  0  0
  -29.4319  -17.9856   22.6056 H   0  0  0  0  0  0
  -29.6056  -19.8548   18.1545 H   0  0  0  0  0  0
  -27.6498  -19.3937   23.6726 H   0  0  0  0  0  0
  -27.0184  -20.7366   22.7282 H   0  0  0  0  0  0
  -27.6899  -21.0249   24.3294 H   0  0  0  0  0  0
  -30.2898  -19.3124   24.1447 H   0  0  0  0  0  0
  -30.2439  -20.9796   24.6786 H   0  0  0  0  0  0
  -31.2964  -20.5178   23.3486 H   0  0  0  0  0  0
  -28.6607  -22.0681   18.7930 H   0  0  0  0  0  0
  -30.2052  -22.3988   19.4773 H   0  0  0  0  0  0
  -27.5756  -24.7162   18.8271 H   0  0  0  0  0  0
  -29.2813  -24.9546   18.9407 H   0  0  0  0  0  0
  -28.8887  -15.7028   21.2254 H   0  0  0  0  0  0
  -29.1618  -23.5478   21.2584 H   0  0  0  0  0  0
  -27.6832  -23.1095   20.8166 H   0  0  0  0  0  0
  1 25  1  0  0  0
  1 30  2  0  0  0
  1 82  1  0  0  0
  2  3  1  0  0  0
  2 25  1  0  0  0
  2 85  1  0  0  0
  2 86  1  0  0  0
  3  4  1  0  0  0
  3 87  1  0  0  0
  3 88  1  0  0  0
  4  5  1  0  0  0
  4 89  1  0  0  0
  4 90  1  0  0  0
  5  6  1  0  0  0
  5 26  1  0  0  0
  5 91  1  0  0  0
  6 25  1  0  0  0
  6 92  1  0  0  0
  6 93  1  0  0  0
  7  8  2  0  0  0
  7 26  1  0  0  0
  7 29  1  0  0  0
  8  9  1  0  0  0
  8 22  1  0  0  0
  9 10  1  0  0  0
  9 27  2  0  0  0
 10 11  2  0  0  0
 10 15  1  0  0  0
 11 12  1  0  0  0
 11 94  1  0  0  0
 12 13  2  0  0  0
 12 95  1  0  0  0
 13 14  1  0  0  0
 13 31  1  0  0  0
 14 15  2  0  0  0
 14 96  1  0  0  0
 15 97  1  0  0  0
 16 17  2  0  0  0
 16 21  1  0  0  0
 16 31  1  0  0  0
 17 18  1  0  0  0
 17 98  1  0  0  0
 18 19  2  0  0  0
 18 99  1  0  0  0
 19 20  1  0  0  0
 19 24  1  0  0  0
 20 21  2  0  0  0
 20100  1  0  0  0
 21 23  1  0  0  0
 22 28  1  0  0  0
 22 32  2  0  0  0
 26 27  1  0  0  0
 28101  1  0  0  0
 28102  1  0  0  0
 29103  1  0  0  0
 29104  1  0  0  0
 33 34  1  0  0  0
 33 66  1  0  0  0
 33 70  2  0  0  0
 34 36  1  0  0  0
 34 59  1  0  0  0
 34105  1  0  0  0
 35 44  2  0  0  0
 35 45  1  0  0  0
 35 68  1  0  0  0
 36 56  1  0  0  0
 36106  1  0  0  0
 37 39  1  0  0  0
 37 47  1  0  0  0
 37 66  1  0  0  0
 37107  1  0  0  0
 38 43  2  0  0  0
 38 46  1  0  0  0
 38 47  1  0  0  0
 39 64  1  0  0  0
 39 67  2  0  0  0
 40 52  1  0  0  0
 40 53  2  0  0  0
 40 58  1  0  0  0
 41108  1  0  0  0
 41109  1  0  0  0
 41110  1  0  0  0
 41 48  1  0  0  0
 42 43  1  0  0  0
 42 66  1  0  0  0
 42111  1  0  0  0
 42112  1  0  0  0
 43 44  1  0  0  0
 44113  1  0  0  0
 45 46  2  0  0  0
 45114  1  0  0  0
 46115  1  0  0  0
 47116  1  0  0  0
 47117  1  0  0  0
 48 56  1  0  0  0
 48 65  1  0  0  0
 48118  1  0  0  0
 49 50  1  0  0  0
 49 53  1  0  0  0
 49 64  1  0  0  0
 49119  1  0  0  0
 50 51  1  0  0  0
 50120  1  0  0  0
 50121  1  0  0  0
 51 52  1  0  0  0
 51122  1  0  0  0
 51123  1  0  0  0
 52124  1  0  0  0
 52125  1  0  0  0
 53 54  1  0  0  0
 54 55  2  0  0  0
 54126  1  0  0  0
 55 57  1  0  0  0
 55127  1  0  0  0
 56 69  2  0  0  0
 57 58  2  0  0  0
 57128  1  0  0  0
 58129  1  0  0  0
 59 60  1  0  0  0
 59 61  1  0  0  0
 59 62  1  0  0  0
 60130  1  0  0  0
 60131  1  0  0  0
 60132  1  0  0  0
 61133  1  0  0  0
 61134  1  0  0  0
 61135  1  0  0  0
 62136  1  0  0  0
 62137  1  0  0  0
 62138  1  0  0  0
 63 65  1  0  0  0
 63139  1  0  0  0
 63140  1  0  0  0
 63141  1  0  0  0
 64142  1  0  0  0
 65143  1  0  0  0
 68 79  1  0  0  0
 71 73  2  0  0  0
 71 75  1  0  0  0
 71144  1  0  0  0
 72 74  2  0  0  0
 72 81  1  0  0  0
 72145  1  0  0  0
 73 74  1  0  0  0
 73 80  1  0  0  0
 74 78  1  0  0  0
 75 81  2  0  0  0
 75 82  1  0  0  0
 76146  1  0  0  0
 76147  1  0  0  0
 76148  1  0  0  0
 76 80  1  0  0  0
 77 80  1  0  0  0
 77149  1  0  0  0
 77150  1  0  0  0
 77151  1  0  0  0
 78 83  1  0  0  0
 78152  1  0  0  0
 78153  1  0  0  0
 79 83  1  0  0  0
 79154  1  0  0  0
 79155  1  0  0  0
 80 84  1  0  0  0
 82156  1  0  0  0
 83157  1  0  0  0
 83158  1  0  0  0
M  CHG  1  83   1
M  ISO  4   1 100  68 101  79 101  82 100
M  END
> <chiral flag>
0

> <version>
0

> <s_m_source_file>
/data/baiqing/PycharmProjects/Reinvent-master-3.2/result/LINK_invent/BTK/process_docking_weight1_custom_sum_contain_oxygen_bond_distance_aromatic_linkinvent_7_9_3/rearranged_h_0122.sdf

> <i_m_source_file_index>
41

> <r_mmod_Potential_Energy-OPLS-2005>
28.9177589416504

> <r_mmod_Stretch_Energy-OPLS-2005>
222.572021484375

> <r_mmod_Bend_Energy-OPLS-2005>
286.317199707031

> <r_mmod_Torsional_Energy-OPLS-2005>
227.036834716797

> <r_mmod_Improper_Torsional_Energy-OPLS-2005>
4.26374244689941

> <r_mmod_Van_der_Waal_Energy-OPLS-2005>
146.340850830078

> <r_mmod_Electrostatic_Energy-OPLS-2005>
-532.735046386719

> <r_mmod_Solvation_Energy-OPLS-2005>
-489.303955078125

> <b_mmod_Minimization_Converged-OPLS-2005>
0

> <r_mmod_RMS_Derivative-OPLS-2005>
0.701644957065582

$$$$
41
                    3D
 Structure written by MMmdl.
166174  0  0  1  0            999 V2000
  -30.6846  -14.4408   20.5546 C   0  0  0  0  0  0
  -30.4284  -12.2780   19.4194 C   0  0  0  0  0  0
  -29.4991  -12.4992   18.2067 C   0  0  0  0  0  0
  -28.0152  -12.3750   18.6124 C   0  0  0  0  0  0
  -27.6674  -13.1974   19.8827 C   0  0  2  0  0  0
  -28.7090  -12.9511   21.0006 C   0  0  0  0  0  0
  -25.2617  -13.8150   20.5669 C   0  0  0  0  0  0
  -24.1855  -13.0429   20.9142 C   0  0  0  0  0  0
  -24.6393  -11.6890   20.8716 C   0  0  0  0  0  0
  -23.9063  -10.4279   21.0378 C   0  0  0  0  0  0
  -24.3630   -9.4190   21.9146 C   0  0  0  0  0  0
  -23.6297   -8.2232   22.0723 C   0  0  0  0  0  0
  -22.4273   -8.0271   21.3527 C   0  0  0  0  0  0
  -21.9908   -9.0234   20.4607 C   0  0  0  0  0  0
  -22.7238  -10.2110   20.3018 C   0  0  0  0  0  0
  -21.6852   -6.0723   22.5263 C   0  0  0  0  0  0
  -21.4010   -6.5626   23.8194 C   0  0  0  0  0  0
  -21.3666   -5.6774   24.9153 C   0  0  0  0  0  0
  -21.6044   -4.3035   24.7191 C   0  0  0  0  0  0
  -21.8832   -3.8134   23.4309 C   0  0  0  0  0  0
  -21.9187   -4.6955   22.3371 C   0  0  0  0  0  0
  -22.7871  -13.5212   21.1793 C   0  0  0  0  0  0
  -22.1655   -4.2147   21.0946 F   0  0  0  0  0  0
  -21.5639   -3.4522   25.7708 F   0  0  0  0  0  0
  -30.0439  -13.2493   20.4526 N   0  0  0  0  0  0
  -26.3056  -12.9295   20.3389 N   0  0  0  0  0  0
  -25.9323  -11.6464   20.5777 N   0  0  0  0  0  0
  -22.0531  -12.8201   22.0376 N   0  0  0  0  0  0
  -25.4387  -15.1871   20.4087 N   0  0  0  0  0  0
  -31.8160  -14.6506   20.1073 O   0  0  0  0  0  0
  -21.6624   -6.8886   21.4235 O   0  0  0  0  0  0
  -22.3533  -14.5498   20.6627 O   0  0  0  0  0  0
  -24.6131  -31.8673   23.2090 C   0  0  0  0  0  0
  -25.9018  -32.4827   23.8402 C   0  0  1  0  0  0
  -27.2599  -27.4661   20.0781 C   0  0  0  0  0  0
  -25.5886  -33.8627   24.2349 N   0  0  0  0  0  0
  -23.4029  -30.4860   21.5465 C   0  0  2  0  0  0
  -24.8547  -28.9468   20.1155 C   0  0  0  0  0  0
  -22.7387  -29.4661   22.4982 C   0  0  0  0  0  0
  -18.0269  -28.1379   22.8479 C   0  0  0  0  0  0
  -24.1489  -36.7316   23.2637 C   0  0  0  0  0  0
  -25.9268  -30.8375   21.3584 C   0  0  0  0  0  0
  -26.0084  -29.4698   20.7139 C   0  0  0  0  0  0
  -27.2077  -28.7285   20.7066 C   0  0  0  0  0  0
  -26.0898  -26.9418   19.4880 C   0  0  0  0  0  0
  -24.8869  -27.6769   19.5087 C   0  0  0  0  0  0
  -23.6132  -29.8082   20.1641 C   0  0  0  0  0  0
  -25.4100  -36.3116   24.0351 C   0  0  1  0  0  0
  -20.5856  -28.3674   23.1298 C   0  0  2  0  0  0
  -20.6764  -26.9408   22.5407 C   0  0  0  0  0  0
  -19.5754  -26.6394   21.5191 C   0  0  0  0  0  0
  -18.1930  -26.7930   22.1603 C   0  0  0  0  0  0
  -19.1517  -28.8839   23.2895 C   0  0  0  0  0  0
  -18.9452  -30.1442   23.8916 C   0  0  0  0  0  0
  -17.6459  -30.6590   24.0574 C   0  0  0  0  0  0
  -25.9018  -34.9477   23.5144 C   0  0  0  0  0  0
  -16.5350  -29.9088   23.6330 C   0  0  0  0  0  0
  -16.7263  -28.6505   23.0346 C   0  0  0  0  0  0
  -26.4466  -31.6599   25.0723 C   0  0  0  0  0  0
  -25.3759  -31.3642   26.1492 C   0  0  0  0  0  0
  -27.0295  -30.3069   24.6049 C   0  0  0  0  0  0
  -27.6085  -32.4285   25.7454 C   0  0  0  0  0  0
  -27.5592  -37.1798   24.8464 C   0  0  0  0  0  0
  -21.4125  -29.3049   22.3713 N   0  0  0  0  0  0
  -26.4287  -37.3803   23.9431 N   0  0  0  0  0  0
  -24.6656  -31.0779   22.0976 N   0  0  0  0  0  0
  -23.4154  -28.8209   23.3041 O   0  0  0  0  0  0
  -28.4403  -26.7619   20.1118 O   0  0  0  0  0  0
  -26.5579  -34.8918   22.4701 O   0  0  0  0  0  0
  -23.5326  -32.1405   23.7491 O   0  0  0  0  0  0
  -32.6712  -23.6554   20.1610 C   0  0  0  0  0  0
  -31.3199  -23.5102   20.5562 C   0  0  0  0  0  0
  -33.1643  -21.5881   21.0542 C   0  0  0  0  0  0
  -31.7961  -21.4079   21.4084 C   0  0  0  0  0  0
  -34.2463  -20.5818   21.4084 C   0  0  0  0  0  0
  -30.1285  -24.1854   17.8992 C   0  0  0  0  0  0
  -30.3562  -24.6845   20.4246 C   0  0  0  0  0  0
  -31.2917  -20.1386   22.0964 C   0  0  0  0  0  0
  -30.0626  -16.8466   20.5279 C   0  0  0  0  0  0
  -30.6247  -17.7748   21.6236 C   0  0  0  0  0  0
  -28.9166  -26.1627   18.9077 C   0  0  0  0  0  0
  -29.4472  -24.7312   19.1686 C   0  0  1  0  0  0
  -33.5933  -22.6990   20.4084 N   0  0  0  0  0  0
  -30.8703  -22.3706   21.1470 N   0  0  0  0  0  0
  -29.9005  -15.4534   20.9551 N   0  0  0  0  0  0
  -30.8550  -19.1420   21.0995 N   0  3  0  0  0  0
  -31.4740  -12.3812   19.1202 H   0  0  0  0  0  0
  -30.3226  -11.2611   19.8025 H   0  0  0  0  0  0
  -29.7318  -11.7837   17.4165 H   0  0  0  0  0  0
  -29.6821  -13.4889   17.7829 H   0  0  0  0  0  0
  -27.8024  -11.3189   18.7827 H   0  0  0  0  0  0
  -27.3732  -12.6796   17.7847 H   0  0  0  0  0  0
  -27.7172  -14.2488   19.5995 H   0  0  0  0  0  0
  -28.6767  -11.9095   21.3223 H   0  0  0  0  0  0
  -28.4846  -13.5393   21.8925 H   0  0  0  0  0  0
  -25.2798   -9.5638   22.4695 H   0  0  0  0  0  0
  -23.9988   -7.4616   22.7442 H   0  0  0  0  0  0
  -21.0833   -8.8735   19.8935 H   0  0  0  0  0  0
  -22.3693  -10.9629   19.6111 H   0  0  0  0  0  0
  -21.2025   -7.6136   23.9695 H   0  0  0  0  0  0
  -21.1487   -6.0499   25.9057 H   0  0  0  0  0  0
  -22.0625   -2.7599   23.2782 H   0  0  0  0  0  0
  -22.4162  -11.9877   22.4784 H   0  0  0  0  0  0
  -21.1144  -13.1185   22.2585 H   0  0  0  0  0  0
  -24.6869  -15.8549   20.5410 H   0  0  0  0  0  0
  -26.3006  -15.6213   20.1046 H   0  0  0  0  0  0
  -26.7095  -32.5556   23.1175 H   0  0  0  0  0  0
  -25.0101  -33.9809   25.0541 H   0  0  0  0  0  0
  -22.6950  -31.3036   21.3987 H   0  0  0  0  0  0
  -23.3759  -35.9639   23.3282 H   0  0  0  0  0  0
  -24.3601  -36.8936   22.2057 H   0  0  0  0  0  0
  -23.7218  -37.6517   23.6634 H   0  0  0  0  0  0
  -26.0284  -31.5964   20.5811 H   0  0  0  0  0  0
  -26.8205  -30.9041   21.9668 H   0  0  0  0  0  0
  -28.0995  -29.1271   21.1711 H   0  0  0  0  0  0
  -26.1013  -25.9627   19.0292 H   0  0  0  0  0  0
  -23.9979  -27.2565   19.0591 H   0  0  0  0  0  0
  -23.7210  -30.5784   19.3991 H   0  0  0  0  0  0
  -22.7425  -29.2187   19.8706 H   0  0  0  0  0  0
  -25.1257  -36.1996   25.0844 H   0  0  0  0  0  0
  -20.9961  -28.3245   24.1411 H   0  0  0  0  0  0
  -20.5638  -26.2287   23.3598 H   0  0  0  0  0  0
  -21.6637  -26.7446   22.1212 H   0  0  0  0  0  0
  -19.6918  -25.6299   21.1228 H   0  0  0  0  0  0
  -19.6698  -27.3199   20.6713 H   0  0  0  0  0  0
  -17.4196  -26.6669   21.4011 H   0  0  0  0  0  0
  -18.0350  -26.0062   22.8988 H   0  0  0  0  0  0
  -19.7928  -30.7250   24.2305 H   0  0  0  0  0  0
  -17.5015  -31.6274   24.5170 H   0  0  0  0  0  0
  -15.5354  -30.3010   23.7643 H   0  0  0  0  0  0
  -15.8656  -28.0843   22.7058 H   0  0  0  0  0  0
  -24.5978  -30.6932   25.7826 H   0  0  0  0  0  0
  -24.8894  -32.2756   26.4984 H   0  0  0  0  0  0
  -25.8172  -30.8812   27.0224 H   0  0  0  0  0  0
  -26.2803  -29.6817   24.1184 H   0  0  0  0  0  0
  -27.4187  -29.7316   25.4459 H   0  0  0  0  0  0
  -27.8569  -30.4430   23.9083 H   0  0  0  0  0  0
  -27.2783  -33.3605   26.2044 H   0  0  0  0  0  0
  -28.3879  -32.6806   25.0249 H   0  0  0  0  0  0
  -28.0754  -31.8382   26.5351 H   0  0  0  0  0  0
  -28.2581  -38.0131   24.7582 H   0  0  0  0  0  0
  -28.1118  -36.2673   24.6180 H   0  0  0  0  0  0
  -27.2328  -37.1312   25.8870 H   0  0  0  0  0  0
  -20.9280  -29.8781   21.6943 H   0  0  0  0  0  0
  -26.0185  -38.2876   24.1475 H   0  0  0  0  0  0
  -33.0212  -24.5564   19.6764 H   0  0  0  0  0  0
  -34.3927  -20.5632   22.4890 H   0  0  0  0  0  0
  -35.2038  -20.8482   20.9582 H   0  0  0  0  0  0
  -33.9903  -19.5764   21.0729 H   0  0  0  0  0  0
  -30.3594  -23.1238   17.9895 H   0  0  0  0  0  0
  -31.0594  -24.7123   17.6819 H   0  0  0  0  0  0
  -29.4814  -24.2970   17.0279 H   0  0  0  0  0  0
  -30.9650  -25.5878   20.4564 H   0  0  0  0  0  0
  -29.7374  -24.7259   21.3208 H   0  0  0  0  0  0
  -30.4567  -20.3758   22.7579 H   0  0  0  0  0  0
  -32.0710  -19.7259   22.7359 H   0  0  0  0  0  0
  -30.6817  -16.9003   19.6293 H   0  0  0  0  0  0
  -29.0783  -17.2047   20.2211 H   0  0  0  0  0  0
  -31.5646  -17.3764   22.0119 H   0  0  0  0  0  0
  -29.9268  -17.8192   22.4616 H   0  0  0  0  0  0
  -28.1763  -26.1516   18.1075 H   0  0  0  0  0  0
  -29.7315  -26.7908   18.5444 H   0  0  0  0  0  0
  -28.5912  -24.0854   19.3688 H   0  0  0  0  0  0
  -28.9961  -15.1927   21.3215 H   0  0  0  0  0  0
  -31.5582  -19.0954   20.3812 H   0  0  0  0  0  0
  -30.0141  -19.4987   20.6761 H   0  0  0  0  0  0
  1 25  1  0  0  0
  1 30  2  0  0  0
  1 85  1  0  0  0
  2  3  1  0  0  0
  2 25  1  0  0  0
  2 87  1  0  0  0
  2 88  1  0  0  0
  3  4  1  0  0  0
  3 89  1  0  0  0
  3 90  1  0  0  0
  4  5  1  0  0  0
  4 91  1  0  0  0
  4 92  1  0  0  0
  5  6  1  0  0  0
  5 26  1  0  0  0
  5 93  1  0  0  0
  6 25  1  0  0  0
  6 94  1  0  0  0
  6 95  1  0  0  0
  7  8  2  0  0  0
  7 26  1  0  0  0
  7 29  1  0  0  0
  8  9  1  0  0  0
  8 22  1  0  0  0
  9 10  1  0  0  0
  9 27  2  0  0  0
 10 11  2  0  0  0
 10 15  1  0  0  0
 11 12  1  0  0  0
 11 96  1  0  0  0
 12 13  2  0  0  0
 12 97  1  0  0  0
 13 14  1  0  0  0
 13 31  1  0  0  0
 14 15  2  0  0  0
 14 98  1  0  0  0
 15 99  1  0  0  0
 16 17  2  0  0  0
 16 21  1  0  0  0
 16 31  1  0  0  0
 17 18  1  0  0  0
 17100  1  0  0  0
 18 19  2  0  0  0
 18101  1  0  0  0
 19 20  1  0  0  0
 19 24  1  0  0  0
 20 21  2  0  0  0
 20102  1  0  0  0
 21 23  1  0  0  0
 22 28  1  0  0  0
 22 32  2  0  0  0
 26 27  1  0  0  0
 28103  1  0  0  0
 28104  1  0  0  0
 29105  1  0  0  0
 29106  1  0  0  0
 33 34  1  0  0  0
 33 66  1  0  0  0
 33 70  2  0  0  0
 34 36  1  0  0  0
 34 59  1  0  0  0
 34107  1  0  0  0
 35 44  2  0  0  0
 35 45  1  0  0  0
 35 68  1  0  0  0
 36 56  1  0  0  0
 36108  1  0  0  0
 37 39  1  0  0  0
 37 47  1  0  0  0
 37 66  1  0  0  0
 37109  1  0  0  0
 38 43  2  0  0  0
 38 46  1  0  0  0
 38 47  1  0  0  0
 39 64  1  0  0  0
 39 67  2  0  0  0
 40 52  1  0  0  0
 40 53  2  0  0  0
 40 58  1  0  0  0
 41110  1  0  0  0
 41111  1  0  0  0
 41112  1  0  0  0
 41 48  1  0  0  0
 42 43  1  0  0  0
 42 66  1  0  0  0
 42113  1  0  0  0
 42114  1  0  0  0
 43 44  1  0  0  0
 44115  1  0  0  0
 45 46  2  0  0  0
 45116  1  0  0  0
 46117  1  0  0  0
 47118  1  0  0  0
 47119  1  0  0  0
 48 56  1  0  0  0
 48 65  1  0  0  0
 48120  1  0  0  0
 49 50  1  0  0  0
 49 53  1  0  0  0
 49 64  1  0  0  0
 49121  1  0  0  0
 50 51  1  0  0  0
 50122  1  0  0  0
 50123  1  0  0  0
 51 52  1  0  0  0
 51124  1  0  0  0
 51125  1  0  0  0
 52126  1  0  0  0
 52127  1  0  0  0
 53 54  1  0  0  0
 54 55  2  0  0  0
 54128  1  0  0  0
 55 57  1  0  0  0
 55129  1  0  0  0
 56 69  2  0  0  0
 57 58  2  0  0  0
 57130  1  0  0  0
 58131  1  0  0  0
 59 60  1  0  0  0
 59 61  1  0  0  0
 59 62  1  0  0  0
 60132  1  0  0  0
 60133  1  0  0  0
 60134  1  0  0  0
 61135  1  0  0  0
 61136  1  0  0  0
 61137  1  0  0  0
 62138  1  0  0  0
 62139  1  0  0  0
 62140  1  0  0  0
 63 65  1  0  0  0
 63141  1  0  0  0
 63142  1  0  0  0
 63143  1  0  0  0
 64144  1  0  0  0
 65145  1  0  0  0
 68 81  1  0  0  0
 71 72  2  0  0  0
 71 83  1  0  0  0
 71146  1  0  0  0
 72 77  1  0  0  0
 72 84  1  0  0  0
 73 74  1  0  0  0
 73 75  1  0  0  0
 73 83  2  0  0  0
 74 78  1  0  0  0
 74 84  2  0  0  0
 75147  1  0  0  0
 75148  1  0  0  0
 75149  1  0  0  0
 76150  1  0  0  0
 76151  1  0  0  0
 76152  1  0  0  0
 76 82  1  0  0  0
 77 82  1  0  0  0
 77153  1  0  0  0
 77154  1  0  0  0
 78 86  1  0  0  0
 78155  1  0  0  0
 78156  1  0  0  0
 79 80  1  0  0  0
 79 85  1  0  0  0
 79157  1  0  0  0
 79158  1  0  0  0
 80 86  1  0  0  0
 80159  1  0  0  0
 80160  1  0  0  0
 81 82  1  0  0  0
 81161  1  0  0  0
 81162  1  0  0  0
 82163  1  0  0  0
 85164  1  0  0  0
 86165  1  0  0  0
 86166  1  0  0  0
M  CHG  1  86   1
M  ISO  4   1 100  68 101  81 101  85 100
M  END
> <chiral flag>
0

> <version>
0

> <s_m_source_file>
/data/baiqing/PycharmProjects/Reinvent-master-3.2/result/LINK_invent/BTK/process_docking_weight1_custom_sum_contain_oxygen_bond_distance_aromatic_linkinvent_7_9_3/rearranged_h_0122.sdf

> <i_m_source_file_index>
42

> <r_mmod_Potential_Energy-OPLS-2005>
-299.609619140625

> <r_mmod_Stretch_Energy-OPLS-2005>
36.7885818481445

> <r_mmod_Bend_Energy-OPLS-2005>
98.3493194580078

> <r_mmod_Torsional_Energy-OPLS-2005>
213.381240844727

> <r_mmod_Improper_Torsional_Energy-OPLS-2005>
7.03605175018311

> <r_mmod_Van_der_Waal_Energy-OPLS-2005>
155.903869628906

> <r_mmod_Electrostatic_Energy-OPLS-2005>
-334.814971923828

> <r_mmod_Solvation_Energy-OPLS-2005>
-487.148162841797

> <b_mmod_Minimization_Converged-OPLS-2005>
0

> <r_mmod_RMS_Derivative-OPLS-2005>
2.85185599327087

$$$$
42
                    3D
 Structure written by MMmdl.
174182  0  0  1  0            999 V2000
  -30.7692  -14.2874   20.7301 C   0  0  0  0  0  0
  -30.4083  -12.2376   19.4140 C   0  0  0  0  0  0
  -29.5088  -12.5258   18.2049 C   0  0  0  0  0  0
  -28.0258  -12.3662   18.6055 C   0  0  0  0  0  0
  -27.6677  -13.1851   19.8751 C   0  0  2  0  0  0
  -28.6780  -12.9050   21.0043 C   0  0  0  0  0  0
  -25.2715  -13.8190   20.5676 C   0  0  0  0  0  0
  -24.1874  -13.0505   20.9196 C   0  0  0  0  0  0
  -24.6341  -11.6939   20.8676 C   0  0  0  0  0  0
  -23.9006  -10.4310   21.0382 C   0  0  0  0  0  0
  -24.3578   -9.4271   21.9204 C   0  0  0  0  0  0
  -23.6254   -8.2293   22.0814 C   0  0  0  0  0  0
  -22.4247   -8.0318   21.3578 C   0  0  0  0  0  0
  -21.9862   -9.0278   20.4680 C   0  0  0  0  0  0
  -22.7181  -10.2163   20.3056 C   0  0  0  0  0  0
  -21.6873   -6.0765   22.5272 C   0  0  0  0  0  0
  -21.4057   -6.5653   23.8221 C   0  0  0  0  0  0
  -21.3642   -5.6809   24.9179 C   0  0  0  0  0  0
  -21.6005   -4.3059   24.7221 C   0  0  0  0  0  0
  -21.8841   -3.8151   23.4331 C   0  0  0  0  0  0
  -21.9203   -4.6976   22.3402 C   0  0  0  0  0  0
  -22.7919  -13.5373   21.1845 C   0  0  0  0  0  0
  -22.1697   -4.2172   21.0980 F   0  0  0  0  0  0
  -21.5556   -3.4524   25.7711 F   0  0  0  0  0  0
  -30.0335  -13.1748   20.4842 N   0  0  0  0  0  0
  -26.3018  -12.9237   20.3239 N   0  0  0  0  0  0
  -25.9222  -11.6432   20.5610 N   0  0  0  0  0  0
  -22.0507  -12.8340   22.0362 N   0  0  0  0  0  0
  -25.4633  -15.1860   20.4170 N   0  0  0  0  0  0
  -31.8495  -14.5096   20.1694 O   0  0  0  0  0  0
  -21.6650   -6.8885   21.4235 O   0  0  0  0  0  0
  -22.3607  -14.5657   20.6656 O   0  0  0  0  0  0
  -24.6117  -31.8674   23.2159 C   0  0  0  0  0  0
  -25.9022  -32.4808   23.8442 C   0  0  1  0  0  0
  -27.2443  -27.4604   20.0627 C   0  0  0  0  0  0
  -25.5882  -33.8616   24.2332 N   0  0  0  0  0  0
  -23.4014  -30.4936   21.5502 C   0  0  2  0  0  0
  -24.8475  -28.9592   20.1198 C   0  0  0  0  0  0
  -22.7405  -29.4660   22.4986 C   0  0  0  0  0  0
  -18.0261  -28.1364   22.8502 C   0  0  0  0  0  0
  -24.1465  -36.7306   23.2640 C   0  0  0  0  0  0
  -25.9310  -30.8316   21.3793 C   0  0  0  0  0  0
  -26.0045  -29.4689   20.7207 C   0  0  0  0  0  0
  -27.2004  -28.7193   20.7025 C   0  0  0  0  0  0
  -26.0580  -26.9500   19.4820 C   0  0  0  0  0  0
  -24.8642  -27.6932   19.5112 C   0  0  0  0  0  0
  -23.6120  -29.8263   20.1659 C   0  0  0  0  0  0
  -25.4089  -36.3102   24.0341 C   0  0  1  0  0  0
  -20.5853  -28.3650   23.1317 C   0  0  2  0  0  0
  -20.6745  -26.9383   22.5418 C   0  0  0  0  0  0
  -19.5712  -26.6375   21.5214 C   0  0  0  0  0  0
  -18.1898  -26.7902   22.1641 C   0  0  0  0  0  0
  -19.1506  -28.8822   23.2905 C   0  0  0  0  0  0
  -18.9445  -30.1431   23.8901 C   0  0  0  0  0  0
  -17.6440  -30.6571   24.0563 C   0  0  0  0  0  0
  -25.9012  -34.9450   23.5128 C   0  0  0  0  0  0
  -16.5338  -29.9084   23.6320 C   0  0  0  0  0  0
  -16.7244  -28.6502   23.0340 C   0  0  0  0  0  0
  -26.4476  -31.6591   25.0769 C   0  0  0  0  0  0
  -25.3773  -31.3710   26.1561 C   0  0  0  0  0  0
  -27.0313  -30.3013   24.6192 C   0  0  0  0  0  0
  -27.6045  -32.4343   25.7511 C   0  0  0  0  0  0
  -27.5566  -37.1811   24.8456 C   0  0  0  0  0  0
  -21.4127  -29.3033   22.3721 N   0  0  0  0  0  0
  -26.4267  -37.3796   23.9400 N   0  0  0  0  0  0
  -24.6645  -31.0793   22.1048 N   0  0  0  0  0  0
  -23.4153  -28.8170   23.3013 O   0  0  0  0  0  0
  -28.4586  -26.7960   19.9938 O   0  0  0  0  0  0
  -26.5594  -34.8917   22.4689 O   0  0  0  0  0  0
  -23.5314  -32.1430   23.7538 O   0  0  0  0  0  0
  -31.4219  -16.4387   23.2231 C   0  0  0  0  0  0
  -31.3701  -17.2009   21.8960 C   0  0  0  0  0  0
  -30.6097  -15.1451   22.9743 C   0  0  0  0  0  0
  -30.0832  -16.6237   21.2977 C   0  0  1  0  0  0
  -30.3365  -16.7872   18.5889 C   0  0  0  0  0  0
  -27.8463  -21.5028   20.0047 C   0  0  0  0  0  0
  -29.4967  -21.7387   18.0602 C   0  0  0  0  0  0
  -30.7034  -22.6918   18.2793 C   0  0  0  0  0  0
  -29.7695  -25.0103   18.5319 C   0  0  0  0  0  0
  -28.8793  -19.4122   18.9928 C   0  0  0  0  0  0
  -28.5262  -25.5543   19.2803 C   0  0  0  0  0  0
  -29.5843  -17.1441   19.9100 C   0  0  2  0  0  0
  -29.0886  -20.9159   19.3086 C   0  0  2  0  0  0
  -30.1921  -15.1822   21.5628 N   0  0  0  0  0  0
  -30.4006  -23.8295   19.1808 N   0  3  0  0  0  0
  -29.4337  -18.6018   20.0907 N   0  3  0  0  0  0
  -31.4623  -12.3057   19.1325 H   0  0  0  0  0  0
  -30.2564  -11.2052   19.7381 H   0  0  0  0  0  0
  -29.7524  -11.8463   17.3884 H   0  0  0  0  0  0
  -29.7039  -13.5357   17.8415 H   0  0  0  0  0  0
  -27.8414  -11.3057   18.7844 H   0  0  0  0  0  0
  -27.3768  -12.6437   17.7776 H   0  0  0  0  0  0
  -27.7479  -14.2438   19.6282 H   0  0  0  0  0  0
  -28.6061  -11.8599   21.3225 H   0  0  0  0  0  0
  -28.3966  -13.4837   21.8864 H   0  0  0  0  0  0
  -25.2754   -9.5752   22.4740 H   0  0  0  0  0  0
  -23.9963   -7.4712   22.7587 H   0  0  0  0  0  0
  -21.0790   -8.8772   19.8995 H   0  0  0  0  0  0
  -22.3666  -10.9662   19.6103 H   0  0  0  0  0  0
  -21.2145   -7.6177   23.9700 H   0  0  0  0  0  0
  -21.1408   -6.0563   25.9077 H   0  0  0  0  0  0
  -22.0626   -2.7594   23.2839 H   0  0  0  0  0  0
  -22.4033  -11.9846   22.4509 H   0  0  0  0  0  0
  -21.1153  -13.1434   22.2600 H   0  0  0  0  0  0
  -24.7196  -15.8655   20.5458 H   0  0  0  0  0  0
  -26.3041  -15.5800   20.0109 H   0  0  0  0  0  0
  -26.7081  -32.5528   23.1189 H   0  0  0  0  0  0
  -25.0017  -33.9765   25.0479 H   0  0  0  0  0  0
  -22.6893  -31.3093   21.4093 H   0  0  0  0  0  0
  -23.3727  -35.9643   23.3307 H   0  0  0  0  0  0
  -24.3562  -36.8921   22.2057 H   0  0  0  0  0  0
  -23.7227  -37.6510   23.6658 H   0  0  0  0  0  0
  -26.0636  -31.6081   20.6256 H   0  0  0  0  0  0
  -26.8083  -30.8615   22.0152 H   0  0  0  0  0  0
  -28.0957  -29.1167   21.1574 H   0  0  0  0  0  0
  -26.0382  -25.9918   18.9841 H   0  0  0  0  0  0
  -23.9733  -27.2992   19.0420 H   0  0  0  0  0  0
  -23.7276  -30.5987   19.4074 H   0  0  0  0  0  0
  -22.7383  -29.2482   19.8631 H   0  0  0  0  0  0
  -25.1259  -36.1968   25.0843 H   0  0  0  0  0  0
  -20.9938  -28.3221   24.1440 H   0  0  0  0  0  0
  -20.5638  -26.2261   23.3606 H   0  0  0  0  0  0
  -21.6618  -26.7420   22.1207 H   0  0  0  0  0  0
  -19.6880  -25.6298   21.1212 H   0  0  0  0  0  0
  -19.6639  -27.3216   20.6767 H   0  0  0  0  0  0
  -17.4164  -26.6633   21.4055 H   0  0  0  0  0  0
  -18.0322  -26.0044   22.9041 H   0  0  0  0  0  0
  -19.7918  -30.7251   24.2260 H   0  0  0  0  0  0
  -17.4998  -31.6246   24.5162 H   0  0  0  0  0  0
  -15.5330  -30.2976   23.7636 H   0  0  0  0  0  0
  -15.8656  -28.0819   22.7033 H   0  0  0  0  0  0
  -24.5893  -30.7100   25.7934 H   0  0  0  0  0  0
  -24.9061  -32.2876   26.5110 H   0  0  0  0  0  0
  -25.8196  -30.8820   27.0249 H   0  0  0  0  0  0
  -26.2879  -29.6791   24.1206 H   0  0  0  0  0  0
  -27.3969  -29.7262   25.4706 H   0  0  0  0  0  0
  -27.8765  -30.4282   23.9430 H   0  0  0  0  0  0
  -27.2604  -33.3576   26.2189 H   0  0  0  0  0  0
  -28.3793  -32.7030   25.0312 H   0  0  0  0  0  0
  -28.0789  -31.8437   26.5356 H   0  0  0  0  0  0
  -28.2584  -38.0113   24.7507 H   0  0  0  0  0  0
  -28.1058  -36.2642   24.6257 H   0  0  0  0  0  0
  -27.2281  -37.1436   25.8862 H   0  0  0  0  0  0
  -20.9271  -29.8811   21.7005 H   0  0  0  0  0  0
  -26.0148  -38.2855   24.1470 H   0  0  0  0  0  0
  -30.9540  -17.0294   24.0164 H   0  0  0  0  0  0
  -32.4446  -16.2351   23.5366 H   0  0  0  0  0  0
  -32.2253  -16.9501   21.2689 H   0  0  0  0  0  0
  -31.3813  -18.2816   22.0326 H   0  0  0  0  0  0
  -29.7065  -15.1366   23.5925 H   0  0  0  0  0  0
  -31.1841  -14.2504   23.2439 H   0  0  0  0  0  0
  -29.2728  -16.9404   21.9697 H   0  0  0  0  0  0
  -29.6282  -16.7591   17.7585 H   0  0  0  0  0  0
  -30.7548  -15.7939   18.5766 H   0  0  0  0  0  0
  -31.1327  -17.4811   18.2975 H   0  0  0  0  0  0
  -26.9831  -21.5191   19.3349 H   0  0  0  0  0  0
  -28.0191  -22.5241   20.3377 H   0  0  0  0  0  0
  -27.5606  -20.9290   20.8875 H   0  0  0  0  0  0
  -29.7860  -21.0517   17.2630 H   0  0  0  0  0  0
  -28.6385  -22.2744   17.6506 H   0  0  0  0  0  0
  -31.0525  -23.0734   17.3206 H   0  0  0  0  0  0
  -31.5551  -22.1404   18.6830 H   0  0  0  0  0  0
  -30.5282  -25.7911   18.4175 H   0  0  0  0  0  0
  -29.4624  -24.7368   17.5218 H   0  0  0  0  0  0
  -27.8283  -19.1813   18.8299 H   0  0  0  0  0  0
  -29.3957  -19.1238   18.0831 H   0  0  0  0  0  0
  -28.5024  -26.3064   18.4883 H   0  0  0  0  0  0
  -29.0274  -25.4258   20.2398 H   0  0  0  0  0  0
  -28.5866  -16.7228   19.7938 H   0  0  0  0  0  0
  -29.9191  -20.9841   20.0131 H   0  0  0  0  0  0
  -31.2789  -24.1501   19.5630 H   0  0  0  0  0  0
  -29.8463  -23.5094   19.9584 H   0  0  0  0  0  0
  -30.3624  -18.9469   20.2701 H   0  0  0  0  0  0
  -28.8828  -18.7491   20.9225 H   0  0  0  0  0  0
  1 25  1  0  0  0
  1 30  2  0  0  0
  1 84  1  0  0  0
  2  3  1  0  0  0
  2 25  1  0  0  0
  2 87  1  0  0  0
  2 88  1  0  0  0
  3  4  1  0  0  0
  3 89  1  0  0  0
  3 90  1  0  0  0
  4  5  1  0  0  0
  4 91  1  0  0  0
  4 92  1  0  0  0
  5  6  1  0  0  0
  5 26  1  0  0  0
  5 93  1  0  0  0
  6 25  1  0  0  0
  6 94  1  0  0  0
  6 95  1  0  0  0
  7  8  2  0  0  0
  7 26  1  0  0  0
  7 29  1  0  0  0
  8  9  1  0  0  0
  8 22  1  0  0  0
  9 10  1  0  0  0
  9 27  2  0  0  0
 10 11  2  0  0  0
 10 15  1  0  0  0
 11 12  1  0  0  0
 11 96  1  0  0  0
 12 13  2  0  0  0
 12 97  1  0  0  0
 13 14  1  0  0  0
 13 31  1  0  0  0
 14 15  2  0  0  0
 14 98  1  0  0  0
 15 99  1  0  0  0
 16 17  2  0  0  0
 16 21  1  0  0  0
 16 31  1  0  0  0
 17 18  1  0  0  0
 17100  1  0  0  0
 18 19  2  0  0  0
 18101  1  0  0  0
 19 20  1  0  0  0
 19 24  1  0  0  0
 20 21  2  0  0  0
 20102  1  0  0  0
 21 23  1  0  0  0
 22 28  1  0  0  0
 22 32  2  0  0  0
 26 27  1  0  0  0
 28103  1  0  0  0
 28104  1  0  0  0
 29105  1  0  0  0
 29106  1  0  0  0
 33 34  1  0  0  0
 33 66  1  0  0  0
 33 70  2  0  0  0
 34 36  1  0  0  0
 34 59  1  0  0  0
 34107  1  0  0  0
 35 44  2  0  0  0
 35 45  1  0  0  0
 35 68  1  0  0  0
 36 56  1  0  0  0
 36108  1  0  0  0
 37 39  1  0  0  0
 37 47  1  0  0  0
 37 66  1  0  0  0
 37109  1  0  0  0
 38 43  2  0  0  0
 38 46  1  0  0  0
 38 47  1  0  0  0
 39 64  1  0  0  0
 39 67  2  0  0  0
 40 52  1  0  0  0
 40 53  2  0  0  0
 40 58  1  0  0  0
 41110  1  0  0  0
 41111  1  0  0  0
 41112  1  0  0  0
 41 48  1  0  0  0
 42 43  1  0  0  0
 42 66  1  0  0  0
 42113  1  0  0  0
 42114  1  0  0  0
 43 44  1  0  0  0
 44115  1  0  0  0
 45 46  2  0  0  0
 45116  1  0  0  0
 46117  1  0  0  0
 47118  1  0  0  0
 47119  1  0  0  0
 48 56  1  0  0  0
 48 65  1  0  0  0
 48120  1  0  0  0
 49 50  1  0  0  0
 49 53  1  0  0  0
 49 64  1  0  0  0
 49121  1  0  0  0
 50 51  1  0  0  0
 50122  1  0  0  0
 50123  1  0  0  0
 51 52  1  0  0  0
 51124  1  0  0  0
 51125  1  0  0  0
 52126  1  0  0  0
 52127  1  0  0  0
 53 54  1  0  0  0
 54 55  2  0  0  0
 54128  1  0  0  0
 55 57  1  0  0  0
 55129  1  0  0  0
 56 69  2  0  0  0
 57 58  2  0  0  0
 57130  1  0  0  0
 58131  1  0  0  0
 59 60  1  0  0  0
 59 61  1  0  0  0
 59 62  1  0  0  0
 60132  1  0  0  0
 60133  1  0  0  0
 60134  1  0  0  0
 61135  1  0  0  0
 61136  1  0  0  0
 61137  1  0  0  0
 62138  1  0  0  0
 62139  1  0  0  0
 62140  1  0  0  0
 63 65  1  0  0  0
 63141  1  0  0  0
 63142  1  0  0  0
 63143  1  0  0  0
 64144  1  0  0  0
 65145  1  0  0  0
 68 81  1  0  0  0
 71 72  1  0  0  0
 71 73  1  0  0  0
 71146  1  0  0  0
 71147  1  0  0  0
 72148  1  0  0  0
 72149  1  0  0  0
 72 74  1  0  0  0
 73 84  1  0  0  0
 73150  1  0  0  0
 73151  1  0  0  0
 74 82  1  0  0  0
 74 84  1  0  0  0
 74152  1  0  0  0
 75153  1  0  0  0
 75154  1  0  0  0
 75155  1  0  0  0
 75 82  1  0  0  0
 76156  1  0  0  0
 76157  1  0  0  0
 76158  1  0  0  0
 76 83  1  0  0  0
 77 78  1  0  0  0
 77 83  1  0  0  0
 77159  1  0  0  0
 77160  1  0  0  0
 78 85  1  0  0  0
 78161  1  0  0  0
 78162  1  0  0  0
 79 81  1  0  0  0
 79 85  1  0  0  0
 79163  1  0  0  0
 79164  1  0  0  0
 80 83  1  0  0  0
 80 86  1  0  0  0
 80165  1  0  0  0
 80166  1  0  0  0
 81167  1  0  0  0
 81168  1  0  0  0
 82 86  1  0  0  0
 82169  1  0  0  0
 83170  1  0  0  0
 85171  1  0  0  0
 85172  1  0  0  0
 86173  1  0  0  0
 86174  1  0  0  0
M  CHG  2  85   1  86   1
M  ISO  4   1 100  68 101  81 101  84 100
M  END
> <chiral flag>
0

> <version>
0

> <s_m_source_file>
/data/baiqing/PycharmProjects/Reinvent-master-3.2/result/LINK_invent/BTK/process_docking_weight1_custom_sum_contain_oxygen_bond_distance_aromatic_linkinvent_7_9_3/rearranged_h_0122.sdf

> <i_m_source_file_index>
43

> <r_mmod_Potential_Energy-OPLS-2005>
235.855438232422

> <r_mmod_Stretch_Energy-OPLS-2005>
39.3730239868164

> <r_mmod_Bend_Energy-OPLS-2005>
389.522552490234

> <r_mmod_Torsional_Energy-OPLS-2005>
387.926025390625

> <r_mmod_Improper_Torsional_Energy-OPLS-2005>
7.25964212417603

> <r_mmod_Van_der_Waal_Energy-OPLS-2005>
155.542892456055

> <r_mmod_Electrostatic_Energy-OPLS-2005>
157.081588745117

> <r_mmod_Solvation_Energy-OPLS-2005>
-914.8173828125

> <b_mmod_Minimization_Converged-OPLS-2005>
0

> <r_mmod_RMS_Derivative-OPLS-2005>
8.77995872497559

$$$$
43
                    3D
 Structure written by MMmdl.
166175  0  0  1  0            999 V2000
  -30.5721  -14.8748   20.4100 C   0  0  0  0  0  0
  -30.4433  -12.5480   19.4624 C   0  0  0  0  0  0
  -29.5087  -12.5172   18.2325 C   0  0  0  0  0  0
  -28.0407  -12.3226   18.6592 C   0  0  0  0  0  0
  -27.6364  -13.2354   19.8474 C   0  0  2  0  0  0
  -28.6900  -13.2323   20.9755 C   0  0  0  0  0  0
  -25.2458  -13.8114   20.5668 C   0  0  0  0  0  0
  -24.1802  -13.0395   20.9302 C   0  0  0  0  0  0
  -24.6412  -11.6880   20.8840 C   0  0  0  0  0  0
  -23.9080  -10.4287   21.0441 C   0  0  0  0  0  0
  -24.3624   -9.4206   21.9201 C   0  0  0  0  0  0
  -23.6306   -8.2243   22.0760 C   0  0  0  0  0  0
  -22.4290   -8.0276   21.3542 C   0  0  0  0  0  0
  -21.9925   -9.0264   20.4643 C   0  0  0  0  0  0
  -22.7260  -10.2143   20.3072 C   0  0  0  0  0  0
  -21.6865   -6.0732   22.5275 C   0  0  0  0  0  0
  -21.4025   -6.5637   23.8206 C   0  0  0  0  0  0
  -21.3675   -5.6784   24.9161 C   0  0  0  0  0  0
  -21.6041   -4.3045   24.7212 C   0  0  0  0  0  0
  -21.8828   -3.8147   23.4331 C   0  0  0  0  0  0
  -21.9204   -4.6961   22.3393 C   0  0  0  0  0  0
  -22.7829  -13.5208   21.1945 C   0  0  0  0  0  0
  -22.1662   -4.2143   21.0967 F   0  0  0  0  0  0
  -21.5629   -3.4528   25.7727 F   0  0  0  0  0  0
  -29.9683  -13.6283   20.3667 N   0  0  0  0  0  0
  -26.2936  -12.9376   20.3327 N   0  0  0  0  0  0
  -25.9348  -11.6520   20.5820 N   0  0  0  0  0  0
  -22.0413  -12.8216   22.0443 N   0  0  0  0  0  0
  -25.3934  -15.1798   20.3672 N   0  0  0  0  0  0
  -31.7753  -14.9547   20.1479 O   0  0  0  0  0  0
  -21.6657   -6.8866   21.4235 O   0  0  0  0  0  0
  -22.3620  -14.5564   20.6792 O   0  0  0  0  0  0
  -24.6381  -31.8490   23.1939 C   0  0  0  0  0  0
  -25.9194  -32.4708   23.8301 C   0  0  1  0  0  0
  -27.2216  -27.1860   20.1194 C   0  0  0  0  0  0
  -25.5965  -33.8511   24.2202 N   0  0  0  0  0  0
  -23.4399  -30.4717   21.5353 C   0  0  2  0  0  0
  -24.8887  -28.9149   20.1063 C   0  0  0  0  0  0
  -22.7544  -29.4562   22.4850 C   0  0  0  0  0  0
  -18.0314  -28.1438   22.8418 C   0  0  0  0  0  0
  -24.1498  -36.7270   23.2632 C   0  0  0  0  0  0
  -25.9936  -30.7329   21.3903 C   0  0  0  0  0  0
  -26.0629  -29.3513   20.7291 C   0  0  0  0  0  0
  -27.2250  -28.4992   20.7315 C   0  0  0  0  0  0
  -26.0098  -26.8447   19.4701 C   0  0  0  0  0  0
  -24.8713  -27.6714   19.4659 C   0  0  0  0  0  0
  -23.6642  -29.8095   20.1517 C   0  0  0  0  0  0
  -25.4125  -36.3009   24.0291 C   0  0  1  0  0  0
  -20.5928  -28.3656   23.1182 C   0  0  2  0  0  0
  -20.6748  -26.9338   22.5419 C   0  0  0  0  0  0
  -19.5632  -26.6068   21.5382 C   0  0  0  0  0  0
  -18.1834  -26.7900   22.1729 C   0  0  0  0  0  0
  -19.1592  -28.8865   23.2801 C   0  0  0  0  0  0
  -18.9571  -30.1449   23.8859 C   0  0  0  0  0  0
  -17.6578  -30.6608   24.0549 C   0  0  0  0  0  0
  -25.9079  -34.9397   23.5040 C   0  0  0  0  0  0
  -16.5430  -29.9178   23.6271 C   0  0  0  0  0  0
  -16.7318  -28.6609   23.0250 C   0  0  0  0  0  0
  -26.4523  -31.6566   25.0734 C   0  0  0  0  0  0
  -25.3714  -31.3792   26.1434 C   0  0  0  0  0  0
  -27.0383  -30.2956   24.6299 C   0  0  0  0  0  0
  -27.6029  -32.4338   25.7562 C   0  0  0  0  0  0
  -27.5569  -37.1789   24.8450 C   0  0  0  0  0  0
  -21.4265  -29.2953   22.3513 N   0  0  0  0  0  0
  -26.4275  -37.3727   23.9397 N   0  0  0  0  0  0
  -24.7093  -31.0392   22.0945 N   0  0  0  0  0  0
  -23.4174  -28.8167   23.3048 O   0  0  0  0  0  0
  -28.2909  -26.2301   20.2223 O   0  0  0  0  0  0
  -26.5648  -34.8891   22.4608 O   0  0  0  0  0  0
  -23.5521  -32.1361   23.7185 O   0  0  0  0  0  0
  -29.7430  -21.1687   19.1199 C   0  0  0  0  0  0
  -28.5180  -21.2245   21.1310 C   0  0  0  0  0  0
  -29.5679  -22.5981   18.9892 C   0  0  0  0  0  0
  -28.3431  -22.6639   21.0028 C   0  0  0  0  0  0
  -29.1567  -20.3654   20.1548 C   0  0  0  0  0  0
  -28.8153  -23.4242   19.8877 C   0  0  0  0  0  0
  -27.4820  -17.4862   18.2454 C   0  0  0  0  0  0
  -26.1822  -18.1162   18.7786 C   0  0  0  0  0  0
  -28.6860  -18.4007   18.5263 C   0  0  0  0  0  0
  -27.6710  -18.3432   20.8436 C   0  0  0  0  0  0
  -26.3672  -18.8117   20.1507 C   0  0  2  0  0  0
  -28.9612  -18.7119   20.0449 C   0  0  2  0  0  0
  -28.3370  -24.9199   19.4299 C   0  0  0  0  0  0
  -30.0989  -17.5763   20.5083 C   0  0  0  0  0  0
  -29.7840  -16.0342   20.5308 N   0  0  0  0  0  0
  -25.1920  -18.6079   21.0166 N   0  3  0  0  0  0
  -31.4696  -12.7172   19.1325 H   0  0  0  0  0  0
  -30.4413  -11.5873   19.9800 H   0  0  0  0  0  0
  -29.8080  -11.7122   17.5588 H   0  0  0  0  0  0
  -29.6058  -13.4441   17.6638 H   0  0  0  0  0  0
  -27.9181  -11.2755   18.9365 H   0  0  0  0  0  0
  -27.3757  -12.4898   17.8098 H   0  0  0  0  0  0
  -27.6075  -14.2485   19.4489 H   0  0  0  0  0  0
  -28.7709  -12.2515   21.4459 H   0  0  0  0  0  0
  -28.4072  -13.9295   21.7666 H   0  0  0  0  0  0
  -25.2765   -9.5691   22.4767 H   0  0  0  0  0  0
  -24.0022   -7.4644   22.7479 H   0  0  0  0  0  0
  -21.0863   -8.8808   19.8929 H   0  0  0  0  0  0
  -22.3739  -10.9699   19.6183 H   0  0  0  0  0  0
  -21.2008   -7.6139   23.9703 H   0  0  0  0  0  0
  -21.1491   -6.0502   25.9054 H   0  0  0  0  0  0
  -22.0589   -2.7608   23.2832 H   0  0  0  0  0  0
  -22.3986  -11.9879   22.4869 H   0  0  0  0  0  0
  -21.1012  -13.1223   22.2575 H   0  0  0  0  0  0
  -24.4785  -15.5734   20.1824 H   0  0  0  0  0  0
  -26.0297  -15.3850   19.6089 H   0  0  0  0  0  0
  -26.7274  -32.5325   23.1040 H   0  0  0  0  0  0
  -25.0098  -33.9635   25.0333 H   0  0  0  0  0  0
  -22.7396  -31.2955   21.3849 H   0  0  0  0  0  0
  -23.3734  -35.9633   23.3274 H   0  0  0  0  0  0
  -24.3569  -36.8933   22.2053 H   0  0  0  0  0  0
  -23.7309  -37.6469   23.6714 H   0  0  0  0  0  0
  -26.1481  -31.4906   20.6209 H   0  0  0  0  0  0
  -26.8650  -30.7796   22.0311 H   0  0  0  0  0  0
  -28.1148  -28.8240   21.2509 H   0  0  0  0  0  0
  -25.8574  -25.8985   18.9833 H   0  0  0  0  0  0
  -23.9734  -27.3340   18.9683 H   0  0  0  0  0  0
  -23.8048  -30.5895   19.4022 H   0  0  0  0  0  0
  -22.7835  -29.2479   19.8334 H   0  0  0  0  0  0
  -25.1328  -36.1800   25.0784 H   0  0  0  0  0  0
  -21.0040  -28.3297   24.1287 H   0  0  0  0  0  0
  -20.5837  -26.2291   23.3701 H   0  0  0  0  0  0
  -21.6540  -26.7361   22.1054 H   0  0  0  0  0  0
  -19.6626  -25.5760   21.1944 H   0  0  0  0  0  0
  -19.6611  -27.2476   20.6610 H   0  0  0  0  0  0
  -18.0142  -26.0265   22.9313 H   0  0  0  0  0  0
  -17.4079  -26.6540   21.4164 H   0  0  0  0  0  0
  -19.8096  -30.7227   24.2216 H   0  0  0  0  0  0
  -17.5177  -31.6277   24.5181 H   0  0  0  0  0  0
  -15.5440  -30.3108   23.7591 H   0  0  0  0  0  0
  -15.8691  -28.0993   22.6929 H   0  0  0  0  0  0
  -24.5881  -30.7131   25.7788 H   0  0  0  0  0  0
  -24.8928  -32.3015   26.4759 H   0  0  0  0  0  0
  -25.8003  -30.9053   27.0274 H   0  0  0  0  0  0
  -26.3008  -29.6701   24.1256 H   0  0  0  0  0  0
  -27.3945  -29.7212   25.4860 H   0  0  0  0  0  0
  -27.8944  -30.4175   23.9656 H   0  0  0  0  0  0
  -27.2569  -33.3636   26.2097 H   0  0  0  0  0  0
  -28.3916  -32.6893   25.0475 H   0  0  0  0  0  0
  -28.0625  -31.8496   26.5544 H   0  0  0  0  0  0
  -28.2548  -38.0114   24.7480 H   0  0  0  0  0  0
  -28.1098  -36.2630   24.6292 H   0  0  0  0  0  0
  -27.2287  -37.1466   25.8851 H   0  0  0  0  0  0
  -20.9500  -29.8419   21.6475 H   0  0  0  0  0  0
  -26.0115  -38.2783   24.1392 H   0  0  0  0  0  0
  -30.2672  -20.6687   18.3157 H   0  0  0  0  0  0
  -28.0466  -20.7777   21.9937 H   0  0  0  0  0  0
  -29.9650  -23.0641   18.0977 H   0  0  0  0  0  0
  -27.7547  -23.1814   21.7482 H   0  0  0  0  0  0
  -27.3835  -17.3090   17.1731 H   0  0  0  0  0  0
  -27.6546  -16.5087   18.6953 H   0  0  0  0  0  0
  -25.4134  -17.3464   18.8122 H   0  0  0  0  0  0
  -25.8126  -18.8534   18.0651 H   0  0  0  0  0  0
  -28.4576  -19.3118   17.9727 H   0  0  0  0  0  0
  -29.5733  -17.9987   18.0388 H   0  0  0  0  0  0
  -27.5850  -17.2658   20.9659 H   0  0  0  0  0  0
  -27.7464  -18.6981   21.8684 H   0  0  0  0  0  0
  -26.4418  -19.8858   19.9645 H   0  0  0  0  0  0
  -27.3991  -24.6988   18.9397 H   0  0  0  0  0  0
  -28.9892  -25.1788   18.5963 H   0  0  0  0  0  0
  -30.4188  -17.8167   21.5222 H   0  0  0  0  0  0
  -30.9935  -17.7164   19.9001 H   0  0  0  0  0  0
  -28.8121  -15.8243   20.6930 H   0  0  0  0  0  0
  -25.0515  -17.6298   21.2091 H   0  0  0  0  0  0
  -24.3611  -18.9655   20.5769 H   0  0  0  0  0  0
  -25.3122  -19.0854   21.8912 H   0  0  0  0  0  0
  1 25  1  0  0  0
  1 30  2  0  0  0
  1 85  1  0  0  0
  2  3  1  0  0  0
  2 25  1  0  0  0
  2 87  1  0  0  0
  2 88  1  0  0  0
  3  4  1  0  0  0
  3 89  1  0  0  0
  3 90  1  0  0  0
  4  5  1  0  0  0
  4 91  1  0  0  0
  4 92  1  0  0  0
  5  6  1  0  0  0
  5 26  1  0  0  0
  5 93  1  0  0  0
  6 25  1  0  0  0
  6 94  1  0  0  0
  6 95  1  0  0  0
  7  8  2  0  0  0
  7 26  1  0  0  0
  7 29  1  0  0  0
  8  9  1  0  0  0
  8 22  1  0  0  0
  9 10  1  0  0  0
  9 27  2  0  0  0
 10 11  2  0  0  0
 10 15  1  0  0  0
 11 12  1  0  0  0
 11 96  1  0  0  0
 12 13  2  0  0  0
 12 97  1  0  0  0
 13 14  1  0  0  0
 13 31  1  0  0  0
 14 15  2  0  0  0
 14 98  1  0  0  0
 15 99  1  0  0  0
 16 17  2  0  0  0
 16 21  1  0  0  0
 16 31  1  0  0  0
 17 18  1  0  0  0
 17100  1  0  0  0
 18 19  2  0  0  0
 18101  1  0  0  0
 19 20  1  0  0  0
 19 24  1  0  0  0
 20 21  2  0  0  0
 20102  1  0  0  0
 21 23  1  0  0  0
 22 28  1  0  0  0
 22 32  2  0  0  0
 26 27  1  0  0  0
 28103  1  0  0  0
 28104  1  0  0  0
 29105  1  0  0  0
 29106  1  0  0  0
 33 34  1  0  0  0
 33 66  1  0  0  0
 33 70  2  0  0  0
 34 36  1  0  0  0
 34 59  1  0  0  0
 34107  1  0  0  0
 35 44  2  0  0  0
 35 45  1  0  0  0
 35 68  1  0  0  0
 36 56  1  0  0  0
 36108  1  0  0  0
 37 39  1  0  0  0
 37 47  1  0  0  0
 37 66  1  0  0  0
 37109  1  0  0  0
 38 43  2  0  0  0
 38 46  1  0  0  0
 38 47  1  0  0  0
 39 64  1  0  0  0
 39 67  2  0  0  0
 40 52  1  0  0  0
 40 53  2  0  0  0
 40 58  1  0  0  0
 41110  1  0  0  0
 41111  1  0  0  0
 41112  1  0  0  0
 41 48  1  0  0  0
 42 43  1  0  0  0
 42 66  1  0  0  0
 42113  1  0  0  0
 42114  1  0  0  0
 43 44  1  0  0  0
 44115  1  0  0  0
 45 46  2  0  0  0
 45116  1  0  0  0
 46117  1  0  0  0
 47118  1  0  0  0
 47119  1  0  0  0
 48 56  1  0  0  0
 48 65  1  0  0  0
 48120  1  0  0  0
 49 50  1  0  0  0
 49 53  1  0  0  0
 49 64  1  0  0  0
 49121  1  0  0  0
 50 51  1  0  0  0
 50122  1  0  0  0
 50123  1  0  0  0
 51 52  1  0  0  0
 51124  1  0  0  0
 51125  1  0  0  0
 52126  1  0  0  0
 52127  1  0  0  0
 53 54  1  0  0  0
 54 55  2  0  0  0
 54128  1  0  0  0
 55 57  1  0  0  0
 55129  1  0  0  0
 56 69  2  0  0  0
 57 58  2  0  0  0
 57130  1  0  0  0
 58131  1  0  0  0
 59 60  1  0  0  0
 59 61  1  0  0  0
 59 62  1  0  0  0
 60132  1  0  0  0
 60133  1  0  0  0
 60134  1  0  0  0
 61135  1  0  0  0
 61136  1  0  0  0
 61137  1  0  0  0
 62138  1  0  0  0
 62139  1  0  0  0
 62140  1  0  0  0
 63 65  1  0  0  0
 63141  1  0  0  0
 63142  1  0  0  0
 63143  1  0  0  0
 64144  1  0  0  0
 65145  1  0  0  0
 68 83  1  0  0  0
 71 73  2  0  0  0
 71 75  1  0  0  0
 71146  1  0  0  0
 72 74  1  0  0  0
 72 75  2  0  0  0
 72147  1  0  0  0
 73 76  1  0  0  0
 73148  1  0  0  0
 74 76  2  0  0  0
 74149  1  0  0  0
 75 82  1  0  0  0
 76 83  1  0  0  0
 77 78  1  0  0  0
 77 79  1  0  0  0
 77150  1  0  0  0
 77151  1  0  0  0
 78 81  1  0  0  0
 78152  1  0  0  0
 78153  1  0  0  0
 79 82  1  0  0  0
 79154  1  0  0  0
 79155  1  0  0  0
 80 81  1  0  0  0
 80 82  1  0  0  0
 80156  1  0  0  0
 80157  1  0  0  0
 81 86  1  0  0  0
 81158  1  0  0  0
 82 84  1  0  0  0
 83159  1  0  0  0
 83160  1  0  0  0
 84 85  1  0  0  0
 84161  1  0  0  0
 84162  1  0  0  0
 85163  1  0  0  0
 86164  1  0  0  0
 86165  1  0  0  0
 86166  1  0  0  0
M  CHG  1  86   1
M  ISO  4   1 100  68 101  83 101  85 100
M  END
> <chiral flag>
0

> <version>
0

> <s_m_source_file>
/data/baiqing/PycharmProjects/Reinvent-master-3.2/result/LINK_invent/BTK/process_docking_weight1_custom_sum_contain_oxygen_bond_distance_aromatic_linkinvent_7_9_3/rearranged_h_0122.sdf

> <i_m_source_file_index>
44

> <r_mmod_Potential_Energy-OPLS-2005>
246.217712402344

> <r_mmod_Stretch_Energy-OPLS-2005>
211.317977905273

> <r_mmod_Bend_Energy-OPLS-2005>
253.298110961914

> <r_mmod_Torsional_Energy-OPLS-2005>
306.884399414062

> <r_mmod_Improper_Torsional_Energy-OPLS-2005>
15.4751605987549

> <r_mmod_Van_der_Waal_Energy-OPLS-2005>
151.437759399414

> <r_mmod_Electrostatic_Energy-OPLS-2005>
-349.398712158203

> <r_mmod_Solvation_Energy-OPLS-2005>
-492.684234619141

> <b_mmod_Minimization_Converged-OPLS-2005>
0

> <r_mmod_RMS_Derivative-OPLS-2005>
4.1709508895874

$$$$
44
                    3D
 Structure written by MMmdl.
172181  0  0  1  0            999 V2000
  -30.7655  -14.3807   20.6663 C   0  0  0  0  0  0
  -30.4144  -12.2919   19.4041 C   0  0  0  0  0  0
  -29.4854  -12.5250   18.1983 C   0  0  0  0  0  0
  -28.0098  -12.3809   18.6141 C   0  0  0  0  0  0
  -27.6650  -13.2060   19.8821 C   0  0  2  0  0  0
  -28.7038  -12.9622   21.0001 C   0  0  0  0  0  0
  -25.2565  -13.8095   20.5640 C   0  0  0  0  0  0
  -24.1820  -13.0391   20.9145 C   0  0  0  0  0  0
  -24.6393  -11.6871   20.8722 C   0  0  0  0  0  0
  -23.9057  -10.4266   21.0399 C   0  0  0  0  0  0
  -24.3607   -9.4190   21.9183 C   0  0  0  0  0  0
  -23.6282   -8.2227   22.0754 C   0  0  0  0  0  0
  -22.4264   -8.0267   21.3544 C   0  0  0  0  0  0
  -21.9898   -9.0238   20.4645 C   0  0  0  0  0  0
  -22.7228  -10.2115   20.3050 C   0  0  0  0  0  0
  -21.6848   -6.0727   22.5280 C   0  0  0  0  0  0
  -21.4010   -6.5634   23.8211 C   0  0  0  0  0  0
  -21.3659   -5.6788   24.9175 C   0  0  0  0  0  0
  -21.6044   -4.3051   24.7226 C   0  0  0  0  0  0
  -21.8821   -3.8141   23.4349 C   0  0  0  0  0  0
  -21.9191   -4.6954   22.3404 C   0  0  0  0  0  0
  -22.7852  -13.5209   21.1829 C   0  0  0  0  0  0
  -22.1661   -4.2141   21.0982 F   0  0  0  0  0  0
  -21.5630   -3.4535   25.7740 F   0  0  0  0  0  0
  -30.0472  -13.2462   20.4620 N   0  0  0  0  0  0
  -26.3039  -12.9305   20.3397 N   0  0  0  0  0  0
  -25.9330  -11.6461   20.5783 N   0  0  0  0  0  0
  -22.0494  -12.8208   22.0393 N   0  0  0  0  0  0
  -25.4241  -15.1777   20.4027 N   0  0  0  0  0  0
  -31.7897  -14.6564   20.0359 O   0  0  0  0  0  0
  -21.6632   -6.8865   21.4239 O   0  0  0  0  0  0
  -22.3537  -14.5527   20.6696 O   0  0  0  0  0  0
  -24.6112  -31.8712   23.2127 C   0  0  0  0  0  0
  -25.9014  -32.4845   23.8414 C   0  0  1  0  0  0
  -27.2338  -27.4561   20.0806 C   0  0  0  0  0  0
  -25.5887  -33.8645   24.2344 N   0  0  0  0  0  0
  -23.3981  -30.4968   21.5528 C   0  0  2  0  0  0
  -24.8425  -28.9666   20.1157 C   0  0  0  0  0  0
  -22.7399  -29.4678   22.4993 C   0  0  0  0  0  0
  -18.0275  -28.1380   22.8500 C   0  0  0  0  0  0
  -24.1490  -36.7311   23.2637 C   0  0  0  0  0  0
  -25.9261  -30.8415   21.3638 C   0  0  0  0  0  0
  -26.0021  -29.4784   20.7086 C   0  0  0  0  0  0
  -27.1991  -28.7302   20.6896 C   0  0  0  0  0  0
  -26.0501  -26.9558   19.4837 C   0  0  0  0  0  0
  -24.8591  -27.7030   19.5041 C   0  0  0  0  0  0
  -23.6049  -29.8323   20.1666 C   0  0  0  0  0  0
  -25.4113  -36.3131   24.0348 C   0  0  1  0  0  0
  -20.5866  -28.3661   23.1326 C   0  0  2  0  0  0
  -20.6772  -26.9400   22.5423 C   0  0  0  0  0  0
  -19.5751  -26.6391   21.5217 C   0  0  0  0  0  0
  -18.1926  -26.7930   22.1625 C   0  0  0  0  0  0
  -19.1525  -28.8835   23.2912 C   0  0  0  0  0  0
  -18.9457  -30.1445   23.8921 C   0  0  0  0  0  0
  -17.6459  -30.6591   24.0571 C   0  0  0  0  0  0
  -25.9034  -34.9491   23.5143 C   0  0  0  0  0  0
  -16.5346  -29.9101   23.6327 C   0  0  0  0  0  0
  -16.7265  -28.6515   23.0350 C   0  0  0  0  0  0
  -26.4450  -31.6617   25.0729 C   0  0  0  0  0  0
  -25.3723  -31.3721   26.1483 C   0  0  0  0  0  0
  -27.0275  -30.3073   24.6072 C   0  0  0  0  0  0
  -27.6042  -32.4324   25.7477 C   0  0  0  0  0  0
  -27.5591  -37.1811   24.8466 C   0  0  0  0  0  0
  -21.4131  -29.3034   22.3731 N   0  0  0  0  0  0
  -26.4298  -37.3816   23.9417 N   0  0  0  0  0  0
  -24.6635  -31.0835   22.1015 N   0  0  0  0  0  0
  -23.4190  -28.8211   23.3011 O   0  0  0  0  0  0
  -28.4212  -26.7536   20.0893 O   0  0  0  0  0  0
  -26.5590  -34.8933   22.4699 O   0  0  0  0  0  0
  -23.5311  -32.1442   23.7538 O   0  0  0  0  0  0
  -25.9717  -18.1945   21.9011 C   0  0  0  0  0  0
  -26.4755  -18.1988   20.5865 C   0  0  0  0  0  0
  -26.8437  -17.9865   22.9854 C   0  0  0  0  0  0
  -27.8493  -17.9899   20.3558 C   0  0  0  0  0  0
  -28.2209  -17.7989   22.7578 C   0  0  0  0  0  0
  -28.7367  -17.8021   21.4401 C   0  0  0  0  0  0
  -31.7834  -23.7446   19.8121 C   0  0  0  0  0  0
  -30.8912  -24.9444   19.4967 C   0  0  0  0  0  0
  -30.7873  -22.5785   19.9119 C   0  0  1  0  0  0
  -29.6436  -24.6612   20.3416 C   0  0  1  0  0  0
  -31.2775  -21.4051   20.7976 C   0  0  0  0  0  0
  -28.3525  -25.3462   19.8563 C   0  0  0  0  0  0
  -30.9003  -16.5046   21.9540 C   0  0  0  0  0  0
  -30.4689  -20.1033   20.5929 C   0  0  0  0  0  0
  -30.2424  -17.6801   21.1828 C   0  0  2  0  0  0
  -30.3028  -15.2066   21.6140 N   0  0  0  0  0  0
  -29.5164  -23.1841   20.3788 N   0  3  0  0  0  0
  -30.9191  -18.9750   21.4510 N   0  3  0  0  0  0
  -31.4589  -12.3838   19.1007 H   0  0  0  0  0  0
  -30.3063  -11.2712   19.7753 H   0  0  0  0  0  0
  -29.7191  -11.8193   17.4001 H   0  0  0  0  0  0
  -29.6575  -13.5212   17.7875 H   0  0  0  0  0  0
  -27.8182  -11.3231   18.7969 H   0  0  0  0  0  0
  -27.3566  -12.6686   17.7896 H   0  0  0  0  0  0
  -27.7170  -14.2593   19.6047 H   0  0  0  0  0  0
  -28.6638  -11.9233   21.3313 H   0  0  0  0  0  0
  -28.4532  -13.5534   21.8809 H   0  0  0  0  0  0
  -25.2755   -9.5664   22.4753 H   0  0  0  0  0  0
  -23.9989   -7.4618   22.7475 H   0  0  0  0  0  0
  -21.0827   -8.8754   19.8954 H   0  0  0  0  0  0
  -22.3690  -10.9649   19.6151 H   0  0  0  0  0  0
  -21.1999   -7.6140   23.9712 H   0  0  0  0  0  0
  -21.1479   -6.0519   25.9078 H   0  0  0  0  0  0
  -22.0602   -2.7602   23.2852 H   0  0  0  0  0  0
  -22.4100  -11.9852   22.4761 H   0  0  0  0  0  0
  -21.1120  -13.1245   22.2613 H   0  0  0  0  0  0
  -24.6696  -15.8342   20.5628 H   0  0  0  0  0  0
  -26.3049  -15.6362   20.2073 H   0  0  0  0  0  0
  -26.7081  -32.5564   23.1179 H   0  0  0  0  0  0
  -25.0076  -33.9819   25.0516 H   0  0  0  0  0  0
  -22.6854  -31.3129   21.4167 H   0  0  0  0  0  0
  -23.3770  -35.9625   23.3314 H   0  0  0  0  0  0
  -24.3591  -36.8902   22.2048 H   0  0  0  0  0  0
  -23.7216  -37.6512   23.6634 H   0  0  0  0  0  0
  -26.0384  -31.6096   20.5977 H   0  0  0  0  0  0
  -26.8144  -30.8921   21.9817 H   0  0  0  0  0  0
  -28.0953  -29.1246   21.1486 H   0  0  0  0  0  0
  -26.0210  -25.9970   18.9874 H   0  0  0  0  0  0
  -23.9663  -27.3054   19.0418 H   0  0  0  0  0  0
  -23.7134  -30.6089   19.4084 H   0  0  0  0  0  0
  -22.7288  -29.2526   19.8696 H   0  0  0  0  0  0
  -25.1289  -36.2006   25.0844 H   0  0  0  0  0  0
  -20.9968  -28.3222   24.1442 H   0  0  0  0  0  0
  -20.5688  -26.2260   23.3604 H   0  0  0  0  0  0
  -21.6640  -26.7461   22.1197 H   0  0  0  0  0  0
  -19.6919  -25.6312   21.1225 H   0  0  0  0  0  0
  -19.6700  -27.3219   20.6763 H   0  0  0  0  0  0
  -17.4206  -26.6688   21.4017 H   0  0  0  0  0  0
  -18.0319  -26.0062   22.9009 H   0  0  0  0  0  0
  -19.7935  -30.7255   24.2295 H   0  0  0  0  0  0
  -17.5023  -31.6272   24.5170 H   0  0  0  0  0  0
  -15.5354  -30.3017   23.7646 H   0  0  0  0  0  0
  -15.8658  -28.0851   22.7048 H   0  0  0  0  0  0
  -24.5898  -30.7061   25.7827 H   0  0  0  0  0  0
  -24.8905  -32.2873   26.4932 H   0  0  0  0  0  0
  -25.8078  -30.8897   27.0242 H   0  0  0  0  0  0
  -26.2810  -29.6850   24.1120 H   0  0  0  0  0  0
  -27.4065  -29.7291   25.4508 H   0  0  0  0  0  0
  -27.8639  -30.4425   23.9209 H   0  0  0  0  0  0
  -27.2687  -33.3628   26.2072 H   0  0  0  0  0  0
  -28.3836  -32.6871   25.0282 H   0  0  0  0  0  0
  -28.0720  -31.8429   26.5372 H   0  0  0  0  0  0
  -28.2608  -38.0111   24.7542 H   0  0  0  0  0  0
  -28.1086  -36.2648   24.6262 H   0  0  0  0  0  0
  -27.2307  -37.1415   25.8865 H   0  0  0  0  0  0
  -20.9274  -29.8767   21.6973 H   0  0  0  0  0  0
  -26.0197  -38.2894   24.1438 H   0  0  0  0  0  0
  -24.9156  -18.3463   22.0778 H   0  0  0  0  0  0
  -25.8042  -18.3556   19.7532 H   0  0  0  0  0  0
  -26.4576  -17.9824   23.9958 H   0  0  0  0  0  0
  -28.2181  -18.0021   19.3391 H   0  0  0  0  0  0
  -28.8721  -17.6676   23.6101 H   0  0  0  0  0  0
  -32.2888  -23.8999   20.7665 H   0  0  0  0  0  0
  -32.5491  -23.5774   19.0535 H   0  0  0  0  0  0
  -30.6442  -24.9555   18.4332 H   0  0  0  0  0  0
  -31.3576  -25.9004   19.7393 H   0  0  0  0  0  0
  -30.6148  -22.2145   18.8972 H   0  0  0  0  0  0
  -29.8425  -24.9796   21.3664 H   0  0  0  0  0  0
  -31.2711  -21.7031   21.8471 H   0  0  0  0  0  0
  -32.3205  -21.2035   20.5503 H   0  0  0  0  0  0
  -27.5133  -24.9252   20.4140 H   0  0  0  0  0  0
  -28.1835  -25.1463   18.7973 H   0  0  0  0  0  0
  -30.8082  -16.6465   23.0307 H   0  0  0  0  0  0
  -31.9745  -16.4872   21.7600 H   0  0  0  0  0  0
  -30.5338  -19.8011   19.5457 H   0  0  0  0  0  0
  -29.4166  -20.3078   20.7931 H   0  0  0  0  0  0
  -30.3819  -17.4708   20.1202 H   0  0  0  0  0  0
  -29.4631  -14.9310   22.1015 H   0  0  0  0  0  0
  -29.2875  -22.8989   21.3192 H   0  0  0  0  0  0
  -28.7675  -22.8853   19.7715 H   0  0  0  0  0  0
  -30.7830  -19.2155   22.4194 H   0  0  0  0  0  0
  -31.9062  -18.8371   21.3065 H   0  0  0  0  0  0
  1 25  1  0  0  0
  1 30  2  0  0  0
  1 86  1  0  0  0
  2  3  1  0  0  0
  2 25  1  0  0  0
  2 89  1  0  0  0
  2 90  1  0  0  0
  3  4  1  0  0  0
  3 91  1  0  0  0
  3 92  1  0  0  0
  4  5  1  0  0  0
  4 93  1  0  0  0
  4 94  1  0  0  0
  5  6  1  0  0  0
  5 26  1  0  0  0
  5 95  1  0  0  0
  6 25  1  0  0  0
  6 96  1  0  0  0
  6 97  1  0  0  0
  7  8  2  0  0  0
  7 26  1  0  0  0
  7 29  1  0  0  0
  8  9  1  0  0  0
  8 22  1  0  0  0
  9 10  1  0  0  0
  9 27  2  0  0  0
 10 11  2  0  0  0
 10 15  1  0  0  0
 11 12  1  0  0  0
 11 98  1  0  0  0
 12 13  2  0  0  0
 12 99  1  0  0  0
 13 14  1  0  0  0
 13 31  1  0  0  0
 14 15  2  0  0  0
 14100  1  0  0  0
 15101  1  0  0  0
 16 17  2  0  0  0
 16 21  1  0  0  0
 16 31  1  0  0  0
 17 18  1  0  0  0
 17102  1  0  0  0
 18 19  2  0  0  0
 18103  1  0  0  0
 19 20  1  0  0  0
 19 24  1  0  0  0
 20 21  2  0  0  0
 20104  1  0  0  0
 21 23  1  0  0  0
 22 28  1  0  0  0
 22 32  2  0  0  0
 26 27  1  0  0  0
 28105  1  0  0  0
 28106  1  0  0  0
 29107  1  0  0  0
 29108  1  0  0  0
 33 34  1  0  0  0
 33 66  1  0  0  0
 33 70  2  0  0  0
 34 36  1  0  0  0
 34 59  1  0  0  0
 34109  1  0  0  0
 35 44  2  0  0  0
 35 45  1  0  0  0
 35 68  1  0  0  0
 36 56  1  0  0  0
 36110  1  0  0  0
 37 39  1  0  0  0
 37 47  1  0  0  0
 37 66  1  0  0  0
 37111  1  0  0  0
 38 43  2  0  0  0
 38 46  1  0  0  0
 38 47  1  0  0  0
 39 64  1  0  0  0
 39 67  2  0  0  0
 40 52  1  0  0  0
 40 53  2  0  0  0
 40 58  1  0  0  0
 41112  1  0  0  0
 41113  1  0  0  0
 41114  1  0  0  0
 41 48  1  0  0  0
 42 43  1  0  0  0
 42 66  1  0  0  0
 42115  1  0  0  0
 42116  1  0  0  0
 43 44  1  0  0  0
 44117  1  0  0  0
 45 46  2  0  0  0
 45118  1  0  0  0
 46119  1  0  0  0
 47120  1  0  0  0
 47121  1  0  0  0
 48 56  1  0  0  0
 48 65  1  0  0  0
 48122  1  0  0  0
 49 50  1  0  0  0
 49 53  1  0  0  0
 49 64  1  0  0  0
 49123  1  0  0  0
 50 51  1  0  0  0
 50124  1  0  0  0
 50125  1  0  0  0
 51 52  1  0  0  0
 51126  1  0  0  0
 51127  1  0  0  0
 52128  1  0  0  0
 52129  1  0  0  0
 53 54  1  0  0  0
 54 55  2  0  0  0
 54130  1  0  0  0
 55 57  1  0  0  0
 55131  1  0  0  0
 56 69  2  0  0  0
 57 58  2  0  0  0
 57132  1  0  0  0
 58133  1  0  0  0
 59 60  1  0  0  0
 59 61  1  0  0  0
 59 62  1  0  0  0
 60134  1  0  0  0
 60135  1  0  0  0
 60136  1  0  0  0
 61137  1  0  0  0
 61138  1  0  0  0
 61139  1  0  0  0
 62140  1  0  0  0
 62141  1  0  0  0
 62142  1  0  0  0
 63 65  1  0  0  0
 63143  1  0  0  0
 63144  1  0  0  0
 63145  1  0  0  0
 64146  1  0  0  0
 65147  1  0  0  0
 68 82  1  0  0  0
 71 72  2  0  0  0
 71 73  1  0  0  0
 71148  1  0  0  0
 72 74  1  0  0  0
 72149  1  0  0  0
 73 75  2  0  0  0
 73150  1  0  0  0
 74 76  2  0  0  0
 74151  1  0  0  0
 75 76  1  0  0  0
 75152  1  0  0  0
 76 85  1  0  0  0
 77 78  1  0  0  0
 77 79  1  0  0  0
 77153  1  0  0  0
 77154  1  0  0  0
 78 80  1  0  0  0
 78155  1  0  0  0
 78156  1  0  0  0
 79 81  1  0  0  0
 79 87  1  0  0  0
 79157  1  0  0  0
 80 82  1  0  0  0
 80 87  1  0  0  0
 80158  1  0  0  0
 81 84  1  0  0  0
 81159  1  0  0  0
 81160  1  0  0  0
 82161  1  0  0  0
 82162  1  0  0  0
 83 86  1  0  0  0
 83163  1  0  0  0
 83164  1  0  0  0
 83 85  1  0  0  0
 84 88  1  0  0  0
 84165  1  0  0  0
 84166  1  0  0  0
 85 88  1  0  0  0
 85167  1  0  0  0
 86168  1  0  0  0
 87169  1  0  0  0
 87170  1  0  0  0
 88171  1  0  0  0
 88172  1  0  0  0
M  CHG  2  87   1  88   1
M  ISO  4   1 100  68 101  82 101  86 100
M  END
> <chiral flag>
0

> <version>
0

> <s_m_source_file>
/data/baiqing/PycharmProjects/Reinvent-master-3.2/result/LINK_invent/BTK/process_docking_weight1_custom_sum_contain_oxygen_bond_distance_aromatic_linkinvent_7_9_3/rearranged_h_0122.sdf

> <i_m_source_file_index>
45

> <r_mmod_Potential_Energy-OPLS-2005>
-367.824615478516

> <r_mmod_Stretch_Energy-OPLS-2005>
34.8362274169922

> <r_mmod_Bend_Energy-OPLS-2005>
114.468879699707

> <r_mmod_Torsional_Energy-OPLS-2005>
256.231353759766

> <r_mmod_Improper_Torsional_Energy-OPLS-2005>
1.82649147510529

> <r_mmod_Van_der_Waal_Energy-OPLS-2005>
146.282974243164

> <r_mmod_Electrostatic_Energy-OPLS-2005>
39.9918403625488

> <r_mmod_Solvation_Energy-OPLS-2005>
-969.355285644531

> <b_mmod_Minimization_Converged-OPLS-2005>
0

> <r_mmod_RMS_Derivative-OPLS-2005>
1.00568151473999

$$$$
45
                    3D
 Structure written by MMmdl.
163171  0  0  1  0            999 V2000
  -30.5341  -14.8813   20.4119 C   0  0  0  0  0  0
  -30.4501  -12.5268   19.5107 C   0  0  0  0  0  0
  -29.5294  -12.5010   18.2675 C   0  0  0  0  0  0
  -28.0556  -12.3010   18.6767 C   0  0  0  0  0  0
  -27.6352  -13.2126   19.8586 C   0  0  2  0  0  0
  -28.6827  -13.2127   20.9928 C   0  0  0  0  0  0
  -25.2511  -13.8105   20.5754 C   0  0  0  0  0  0
  -24.1782  -13.0403   20.9218 C   0  0  0  0  0  0
  -24.6339  -11.6865   20.8750 C   0  0  0  0  0  0
  -23.8997  -10.4272   21.0399 C   0  0  0  0  0  0
  -24.3566   -9.4206   21.9197 C   0  0  0  0  0  0
  -23.6264   -8.2228   22.0758 C   0  0  0  0  0  0
  -22.4254   -8.0258   21.3534 C   0  0  0  0  0  0
  -21.9859   -9.0221   20.4635 C   0  0  0  0  0  0
  -22.7157  -10.2113   20.3056 C   0  0  0  0  0  0
  -21.6862   -6.0709   22.5269 C   0  0  0  0  0  0
  -21.4023   -6.5625   23.8196 C   0  0  0  0  0  0
  -21.3651   -5.6784   24.9163 C   0  0  0  0  0  0
  -21.6042   -4.3049   24.7220 C   0  0  0  0  0  0
  -21.8840   -3.8134   23.4348 C   0  0  0  0  0  0
  -21.9196   -4.6938   22.3389 C   0  0  0  0  0  0
  -22.7811  -13.5219   21.1853 C   0  0  0  0  0  0
  -22.1674   -4.2124   21.0967 F   0  0  0  0  0  0
  -21.5607   -3.4536   25.7733 F   0  0  0  0  0  0
  -29.9749  -13.6077   20.4157 N   0  0  0  0  0  0
  -26.2919  -12.9265   20.3377 N   0  0  0  0  0  0
  -25.9276  -11.6439   20.5808 N   0  0  0  0  0  0
  -22.0419  -12.8251   22.0397 N   0  0  0  0  0  0
  -25.4239  -15.1823   20.4159 N   0  0  0  0  0  0
  -31.7354  -14.9667   20.1390 O   0  0  0  0  0  0
  -21.6636   -6.8842   21.4233 O   0  0  0  0  0  0
  -22.3523  -14.5525   20.6661 O   0  0  0  0  0  0
  -24.6369  -31.8523   23.1933 C   0  0  0  0  0  0
  -25.9161  -32.4738   23.8327 C   0  0  1  0  0  0
  -27.2211  -27.1999   20.1634 C   0  0  0  0  0  0
  -25.5939  -33.8540   24.2248 N   0  0  0  0  0  0
  -23.4397  -30.4717   21.5379 C   0  0  2  0  0  0
  -24.8902  -28.9098   20.1152 C   0  0  0  0  0  0
  -22.7555  -29.4579   22.4889 C   0  0  0  0  0  0
  -18.0316  -28.1388   22.8489 C   0  0  0  0  0  0
  -24.1488  -36.7269   23.2651 C   0  0  0  0  0  0
  -25.9922  -30.7455   21.3861 C   0  0  0  0  0  0
  -26.0638  -29.3625   20.7326 C   0  0  0  0  0  0
  -27.2323  -28.5235   20.7399 C   0  0  0  0  0  0
  -26.0301  -26.8413   19.4922 C   0  0  0  0  0  0
  -24.8840  -27.6614   19.4770 C   0  0  0  0  0  0
  -23.6628  -29.8025   20.1564 C   0  0  0  0  0  0
  -25.4119  -36.3078   24.0345 C   0  0  1  0  0  0
  -20.5918  -28.3714   23.1239 C   0  0  2  0  0  0
  -20.6783  -26.9419   22.5402 C   0  0  0  0  0  0
  -19.5743  -26.6374   21.5220 C   0  0  0  0  0  0
  -18.1932  -26.7924   22.1631 C   0  0  0  0  0  0
  -19.1574  -28.8870   23.2860 C   0  0  0  0  0  0
  -18.9479  -30.1464   23.8886 C   0  0  0  0  0  0
  -17.6472  -30.6578   24.0563 C   0  0  0  0  0  0
  -25.9065  -34.9438   23.5111 C   0  0  0  0  0  0
  -16.5364  -29.9073   23.6331 C   0  0  0  0  0  0
  -16.7304  -28.6490   23.0357 C   0  0  0  0  0  0
  -26.4506  -31.6561   25.0726 C   0  0  0  0  0  0
  -25.3694  -31.3702   26.1411 C   0  0  0  0  0  0
  -27.0372  -30.2975   24.6238 C   0  0  0  0  0  0
  -27.6073  -32.4305   25.7476 C   0  0  0  0  0  0
  -27.5586  -37.1791   24.8474 C   0  0  0  0  0  0
  -21.4255  -29.3053   22.3635 N   0  0  0  0  0  0
  -26.4303  -37.3770   23.9412 N   0  0  0  0  0  0
  -24.7094  -31.0430   22.0946 N   0  0  0  0  0  0
  -23.4215  -28.8123   23.3016 O   0  0  0  0  0  0
  -28.2909  -26.2548   20.2302 O   0  0  0  0  0  0
  -26.5653  -34.8922   22.4685 O   0  0  0  0  0  0
  -23.5494  -32.1379   23.7172 O   0  0  0  0  0  0
  -28.2726  -21.7646   22.1956 C   0  0  0  0  0  0
  -29.7072  -20.6827   20.3724 C   0  0  0  0  0  0
  -28.6603  -20.4069   22.8610 C   0  0  0  0  0  0
  -28.7087  -21.9404   20.7158 C   0  0  2  0  0  0
  -29.2189  -19.1524   20.7421 C   0  0  1  0  0  0
  -28.8868  -16.3866   19.1133 C   0  0  0  0  0  0
  -31.1613  -17.8494   21.9371 C   0  0  0  0  0  0
  -29.0801  -23.5260   20.3761 C   0  0  0  0  0  0
  -27.9928  -24.7694   20.4716 C   0  0  0  0  0  0
  -29.6404  -16.2744   20.4621 C   0  0  2  0  0  0
  -30.2243  -17.8161   20.7185 C   0  0  1  0  0  0
  -28.4297  -19.2120   22.0020 N   0  3  0  0  0  0
  -31.4857  -12.6799   19.2058 H   0  0  0  0  0  0
  -30.4333  -11.5629   20.0230 H   0  0  0  0  0  0
  -29.8378  -11.7041   17.5894 H   0  0  0  0  0  0
  -29.6383  -13.4322   17.7120 H   0  0  0  0  0  0
  -27.9378  -11.2551   18.9690 H   0  0  0  0  0  0
  -27.4013  -12.4565   17.8187 H   0  0  0  0  0  0
  -27.5811  -14.2115   19.4521 H   0  0  0  0  0  0
  -28.7554  -12.2272   21.4538 H   0  0  0  0  0  0
  -28.3911  -13.8971   21.7895 H   0  0  0  0  0  0
  -25.2702   -9.5711   22.4786 H   0  0  0  0  0  0
  -23.9980   -7.4626   22.7491 H   0  0  0  0  0  0
  -21.0789   -8.8720   19.8935 H   0  0  0  0  0  0
  -22.3601  -10.9657   19.6179 H   0  0  0  0  0  0
  -21.2049   -7.6142   23.9684 H   0  0  0  0  0  0
  -21.1440   -6.0518   25.9055 H   0  0  0  0  0  0
  -22.0625   -2.7591   23.2849 H   0  0  0  0  0  0
  -22.4029  -11.9942   22.4852 H   0  0  0  0  0  0
  -21.1014  -13.1280   22.2523 H   0  0  0  0  0  0
  -24.6537  -15.8338   20.5220 H   0  0  0  0  0  0
  -26.2746  -15.6140   20.0837 H   0  0  0  0  0  0
  -26.7230  -32.5365   23.1077 H   0  0  0  0  0  0
  -25.0083  -33.9659   25.0392 H   0  0  0  0  0  0
  -22.7416  -31.2975   21.3852 H   0  0  0  0  0  0
  -23.3777  -35.9574   23.3315 H   0  0  0  0  0  0
  -24.3599  -36.8881   22.2070 H   0  0  0  0  0  0
  -23.7194  -37.6455   23.6661 H   0  0  0  0  0  0
  -26.1466  -31.4981   20.6123 H   0  0  0  0  0  0
  -26.8648  -30.7935   22.0263 H   0  0  0  0  0  0
  -28.1277  -28.8657   21.2402 H   0  0  0  0  0  0
  -25.9548  -25.9016   18.9688 H   0  0  0  0  0  0
  -23.9945  -27.3135   18.9693 H   0  0  0  0  0  0
  -23.7933  -30.5770   19.3995 H   0  0  0  0  0  0
  -22.7799  -29.2376   19.8489 H   0  0  0  0  0  0
  -25.1289  -36.1970   25.0841 H   0  0  0  0  0  0
  -21.0032  -28.3306   24.1348 H   0  0  0  0  0  0
  -20.5666  -26.2343   23.3629 H   0  0  0  0  0  0
  -21.6643  -26.7401   22.1193 H   0  0  0  0  0  0
  -19.6898  -25.6288   21.1251 H   0  0  0  0  0  0
  -19.6663  -27.3181   20.6748 H   0  0  0  0  0  0
  -17.4197  -26.6713   21.4037 H   0  0  0  0  0  0
  -18.0314  -26.0064   22.9022 H   0  0  0  0  0  0
  -19.7957  -30.7295   24.2235 H   0  0  0  0  0  0
  -17.5017  -31.6249   24.5176 H   0  0  0  0  0  0
  -15.5357  -30.2955   23.7643 H   0  0  0  0  0  0
  -15.8716  -28.0788   22.7066 H   0  0  0  0  0  0
  -24.5884  -30.7062   25.7691 H   0  0  0  0  0  0
  -24.8857  -32.2855   26.4823 H   0  0  0  0  0  0
  -25.7957  -30.8862   27.0202 H   0  0  0  0  0  0
  -26.2970  -29.6707   24.1247 H   0  0  0  0  0  0
  -27.4049  -29.7260   25.4770 H   0  0  0  0  0  0
  -27.8854  -30.4269   23.9512 H   0  0  0  0  0  0
  -27.2715  -33.3632   26.2019 H   0  0  0  0  0  0
  -28.3866  -32.6817   25.0269 H   0  0  0  0  0  0
  -28.0762  -31.8452   26.5395 H   0  0  0  0  0  0
  -28.2608  -38.0085   24.7536 H   0  0  0  0  0  0
  -28.1083  -36.2622   24.6294 H   0  0  0  0  0  0
  -27.2317  -37.1428   25.8881 H   0  0  0  0  0  0
  -20.9483  -29.8811   21.6841 H   0  0  0  0  0  0
  -26.0210  -38.2862   24.1384 H   0  0  0  0  0  0
  -28.7099  -22.5596   22.8009 H   0  0  0  0  0  0
  -27.1940  -21.9142   22.2717 H   0  0  0  0  0  0
  -30.6554  -20.8660   20.8765 H   0  0  0  0  0  0
  -29.9477  -20.7076   19.3084 H   0  0  0  0  0  0
  -28.1044  -20.2890   23.7929 H   0  0  0  0  0  0
  -29.7111  -20.4216   23.1539 H   0  0  0  0  0  0
  -27.8189  -21.7346   20.1176 H   0  0  0  0  0  0
  -28.4634  -18.9454   19.9840 H   0  0  0  0  0  0
  -29.2923  -17.1770   18.4826 H   0  0  0  0  0  0
  -27.8332  -16.6162   19.2643 H   0  0  0  0  0  0
  -28.9540  -15.4945   18.4959 H   0  0  0  0  0  0
  -30.6491  -17.5778   22.8615 H   0  0  0  0  0  0
  -31.5954  -18.8406   22.0709 H   0  0  0  0  0  0
  -31.9922  -17.1558   21.8129 H   0  0  0  0  0  0
  -29.4612  -23.5356   19.3545 H   0  0  0  0  0  0
  -29.9384  -23.8004   20.9909 H   0  0  0  0  0  0
  -27.5543  -24.7322   21.4707 H   0  0  0  0  0  0
  -27.1826  -24.4601   19.8174 H   0  0  0  0  0  0
  -28.9034  -16.0926   21.2450 H   0  0  0  0  0  0
  -30.8805  -17.9992   19.8651 H   0  0  0  0  0  0
  -27.4495  -19.1708   21.7681 H   0  0  0  0  0  0
  -28.6309  -18.3879   22.5466 H   0  0  0  0  0  0
  1 25  1  0  0  0
  1 30  2  0  0  0
  1 80  1  0  0  0
  2  3  1  0  0  0
  2 25  1  0  0  0
  2 83  1  0  0  0
  2 84  1  0  0  0
  3  4  1  0  0  0
  3 85  1  0  0  0
  3 86  1  0  0  0
  4  5  1  0  0  0
  4 87  1  0  0  0
  4 88  1  0  0  0
  5  6  1  0  0  0
  5 26  1  0  0  0
  5 89  1  0  0  0
  6 25  1  0  0  0
  6 90  1  0  0  0
  6 91  1  0  0  0
  7  8  2  0  0  0
  7 26  1  0  0  0
  7 29  1  0  0  0
  8  9  1  0  0  0
  8 22  1  0  0  0
  9 10  1  0  0  0
  9 27  2  0  0  0
 10 11  2  0  0  0
 10 15  1  0  0  0
 11 12  1  0  0  0
 11 92  1  0  0  0
 12 13  2  0  0  0
 12 93  1  0  0  0
 13 14  1  0  0  0
 13 31  1  0  0  0
 14 15  2  0  0  0
 14 94  1  0  0  0
 15 95  1  0  0  0
 16 17  2  0  0  0
 16 21  1  0  0  0
 16 31  1  0  0  0
 17 18  1  0  0  0
 17 96  1  0  0  0
 18 19  2  0  0  0
 18 97  1  0  0  0
 19 20  1  0  0  0
 19 24  1  0  0  0
 20 21  2  0  0  0
 20 98  1  0  0  0
 21 23  1  0  0  0
 22 28  1  0  0  0
 22 32  2  0  0  0
 26 27  1  0  0  0
 28 99  1  0  0  0
 28100  1  0  0  0
 29101  1  0  0  0
 29102  1  0  0  0
 33 34  1  0  0  0
 33 66  1  0  0  0
 33 70  2  0  0  0
 34 36  1  0  0  0
 34 59  1  0  0  0
 34103  1  0  0  0
 35 44  2  0  0  0
 35 45  1  0  0  0
 35 68  1  0  0  0
 36 56  1  0  0  0
 36104  1  0  0  0
 37 39  1  0  0  0
 37 47  1  0  0  0
 37 66  1  0  0  0
 37105  1  0  0  0
 38 43  2  0  0  0
 38 46  1  0  0  0
 38 47  1  0  0  0
 39 64  1  0  0  0
 39 67  2  0  0  0
 40 52  1  0  0  0
 40 53  2  0  0  0
 40 58  1  0  0  0
 41106  1  0  0  0
 41107  1  0  0  0
 41108  1  0  0  0
 41 48  1  0  0  0
 42 43  1  0  0  0
 42 66  1  0  0  0
 42109  1  0  0  0
 42110  1  0  0  0
 43 44  1  0  0  0
 44111  1  0  0  0
 45 46  2  0  0  0
 45112  1  0  0  0
 46113  1  0  0  0
 47114  1  0  0  0
 47115  1  0  0  0
 48 56  1  0  0  0
 48 65  1  0  0  0
 48116  1  0  0  0
 49 50  1  0  0  0
 49 53  1  0  0  0
 49 64  1  0  0  0
 49117  1  0  0  0
 50 51  1  0  0  0
 50118  1  0  0  0
 50119  1  0  0  0
 51 52  1  0  0  0
 51120  1  0  0  0
 51121  1  0  0  0
 52122  1  0  0  0
 52123  1  0  0  0
 53 54  1  0  0  0
 54 55  2  0  0  0
 54124  1  0  0  0
 55 57  1  0  0  0
 55125  1  0  0  0
 56 69  2  0  0  0
 57 58  2  0  0  0
 57126  1  0  0  0
 58127  1  0  0  0
 59 60  1  0  0  0
 59 61  1  0  0  0
 59 62  1  0  0  0
 60128  1  0  0  0
 60129  1  0  0  0
 60130  1  0  0  0
 61131  1  0  0  0
 61132  1  0  0  0
 61133  1  0  0  0
 62134  1  0  0  0
 62135  1  0  0  0
 62136  1  0  0  0
 63 65  1  0  0  0
 63137  1  0  0  0
 63138  1  0  0  0
 63139  1  0  0  0
 64140  1  0  0  0
 65141  1  0  0  0
 68 79  1  0  0  0
 71 73  1  0  0  0
 71 74  1  0  0  0
 71142  1  0  0  0
 71143  1  0  0  0
 72 74  1  0  0  0
 72144  1  0  0  0
 72145  1  0  0  0
 72 75  1  0  0  0
 73 82  1  0  0  0
 73146  1  0  0  0
 73147  1  0  0  0
 74 78  1  0  0  0
 74148  1  0  0  0
 75 81  1  0  0  0
 75 82  1  0  0  0
 75149  1  0  0  0
 76150  1  0  0  0
 76151  1  0  0  0
 76152  1  0  0  0
 76 80  1  0  0  0
 77153  1  0  0  0
 77154  1  0  0  0
 77155  1  0  0  0
 77 81  1  0  0  0
 78 79  1  0  0  0
 78156  1  0  0  0
 78157  1  0  0  0
 79158  1  0  0  0
 79159  1  0  0  0
 80 81  1  0  0  0
 80160  1  0  0  0
 81161  1  0  0  0
 82162  1  0  0  0
 82163  1  0  0  0
M  CHG  1  82   1
M  ISO  4   1 100  68 101  79 101  80 100
M  END
> <chiral flag>
0

> <version>
0

> <s_m_source_file>
/data/baiqing/PycharmProjects/Reinvent-master-3.2/result/LINK_invent/BTK/process_docking_weight1_custom_sum_contain_oxygen_bond_distance_aromatic_linkinvent_7_9_3/rearranged_h_0122.sdf

> <i_m_source_file_index>
46

> <r_mmod_Potential_Energy-OPLS-2005>
344.494537353516

> <r_mmod_Stretch_Energy-OPLS-2005>
213.195159912109

> <r_mmod_Bend_Energy-OPLS-2005>
222.688720703125

> <r_mmod_Torsional_Energy-OPLS-2005>
280.416931152344

> <r_mmod_Improper_Torsional_Energy-OPLS-2005>
5.88361978530884

> <r_mmod_Van_der_Waal_Energy-OPLS-2005>
123.526306152344

> <r_mmod_Electrostatic_Energy-OPLS-2005>
-194.362548828125

> <r_mmod_Solvation_Energy-OPLS-2005>
-451.203094482422

> <b_mmod_Minimization_Converged-OPLS-2005>
0

> <r_mmod_RMS_Derivative-OPLS-2005>
2.99933242797852

$$$$
46
                    3D
 Structure written by MMmdl.
170178  0  0  1  0            999 V2000
  -30.5377  -14.9446   20.4172 C   0  0  0  0  0  0
  -30.4430  -12.5900   19.4809 C   0  0  0  0  0  0
  -29.5188  -12.5236   18.2442 C   0  0  0  0  0  0
  -28.0526  -12.3095   18.6673 C   0  0  0  0  0  0
  -27.6272  -13.2442   19.8297 C   0  0  2  0  0  0
  -28.6740  -13.2734   20.9622 C   0  0  0  0  0  0
  -25.2470  -13.8152   20.5736 C   0  0  0  0  0  0
  -24.1779  -13.0398   20.9247 C   0  0  0  0  0  0
  -24.6396  -11.6891   20.8747 C   0  0  0  0  0  0
  -23.9074  -10.4273   21.0399 C   0  0  0  0  0  0
  -24.3619   -9.4194   21.9183 C   0  0  0  0  0  0
  -23.6288   -8.2237   22.0762 C   0  0  0  0  0  0
  -22.4274   -8.0272   21.3543 C   0  0  0  0  0  0
  -21.9918   -9.0240   20.4638 C   0  0  0  0  0  0
  -22.7252  -10.2114   20.3043 C   0  0  0  0  0  0
  -21.6850   -6.0730   22.5274 C   0  0  0  0  0  0
  -21.4010   -6.5637   23.8204 C   0  0  0  0  0  0
  -21.3659   -5.6793   24.9170 C   0  0  0  0  0  0
  -21.6051   -4.3056   24.7225 C   0  0  0  0  0  0
  -21.8819   -3.8144   23.4346 C   0  0  0  0  0  0
  -21.9189   -4.6958   22.3399 C   0  0  0  0  0  0
  -22.7802  -13.5191   21.1882 C   0  0  0  0  0  0
  -22.1653   -4.2141   21.0978 F   0  0  0  0  0  0
  -21.5640   -3.4544   25.7743 F   0  0  0  0  0  0
  -29.9440  -13.6878   20.3531 N   0  0  0  0  0  0
  -26.2881  -12.9400   20.3207 N   0  0  0  0  0  0
  -25.9324  -11.6532   20.5708 N   0  0  0  0  0  0
  -22.0425  -12.8183   22.0418 N   0  0  0  0  0  0
  -25.4116  -15.1856   20.4208 N   0  0  0  0  0  0
  -31.7534  -15.0129   20.2133 O   0  0  0  0  0  0
  -21.6637   -6.8873   21.4235 O   0  0  0  0  0  0
  -22.3500  -14.5496   20.6712 O   0  0  0  0  0  0
  -24.6444  -31.8438   23.1863 C   0  0  0  0  0  0
  -25.9214  -32.4691   23.8256 C   0  0  1  0  0  0
  -27.2207  -27.1330   20.1335 C   0  0  0  0  0  0
  -25.5963  -33.8495   24.2177 N   0  0  0  0  0  0
  -23.4463  -30.4639   21.5333 C   0  0  2  0  0  0
  -24.8917  -28.8901   20.1097 C   0  0  0  0  0  0
  -22.7566  -29.4547   22.4856 C   0  0  0  0  0  0
  -18.0306  -28.1393   22.8475 C   0  0  0  0  0  0
  -24.1490  -36.7248   23.2641 C   0  0  0  0  0  0
  -26.0028  -30.7168   21.3831 C   0  0  0  0  0  0
  -26.0712  -29.3287   20.7216 C   0  0  0  0  0  0
  -27.2313  -28.4671   20.7143 C   0  0  0  0  0  0
  -25.9981  -26.7870   19.5163 C   0  0  0  0  0  0
  -24.8678  -27.6312   19.4952 C   0  0  0  0  0  0
  -23.6697  -29.7931   20.1526 C   0  0  0  0  0  0
  -25.4123  -36.3024   24.0314 C   0  0  1  0  0  0
  -20.5920  -28.3715   23.1238 C   0  0  2  0  0  0
  -20.6784  -26.9418   22.5400 C   0  0  0  0  0  0
  -19.5757  -26.6381   21.5207 C   0  0  0  0  0  0
  -18.1944  -26.7932   22.1625 C   0  0  0  0  0  0
  -19.1564  -28.8874   23.2850 C   0  0  0  0  0  0
  -18.9479  -30.1471   23.8875 C   0  0  0  0  0  0
  -17.6475  -30.6589   24.0558 C   0  0  0  0  0  0
  -25.9076  -34.9402   23.5054 C   0  0  0  0  0  0
  -16.5367  -29.9080   23.6336 C   0  0  0  0  0  0
  -16.7293  -28.6500   23.0355 C   0  0  0  0  0  0
  -26.4525  -31.6563   25.0704 C   0  0  0  0  0  0
  -25.3706  -31.3761   26.1398 C   0  0  0  0  0  0
  -27.0384  -30.2960   24.6283 C   0  0  0  0  0  0
  -27.6056  -32.4325   25.7496 C   0  0  0  0  0  0
  -27.5573  -37.1780   24.8466 C   0  0  0  0  0  0
  -21.4259  -29.3045   22.3612 N   0  0  0  0  0  0
  -26.4283  -37.3741   23.9411 N   0  0  0  0  0  0
  -24.7181  -31.0300   22.0891 N   0  0  0  0  0  0
  -23.4215  -28.8086   23.2998 O   0  0  0  0  0  0
  -28.3222  -26.1989   20.2118 O   0  0  0  0  0  0
  -26.5660  -34.8904   22.4630 O   0  0  0  0  0  0
  -23.5564  -32.1309   23.7093 O   0  0  0  0  0  0
  -25.5546  -18.2902   19.6768 C   0  0  0  0  0  0
  -26.7985  -18.5385   20.2841 C   0  0  0  0  0  0
  -27.9524  -18.6388   19.4591 C   0  0  0  0  0  0
  -25.4863  -18.1083   18.2891 C   0  0  0  0  0  0
  -27.7741  -18.4386   18.0606 C   0  0  0  0  0  0
  -26.8155  -18.6985   21.7956 C   0  0  0  0  0  0
  -24.1678  -17.8169   17.6054 C   0  0  0  0  0  0
  -28.9137  -18.5046   17.0566 C   0  0  0  0  0  0
  -27.7856  -24.4663   18.3395 C   0  0  0  0  0  0
  -28.6400  -23.2837   20.5445 C   0  0  0  0  0  0
  -30.0405  -17.6448   20.8029 C   0  0  0  0  0  0
  -28.9335  -21.7640   19.8506 C   0  0  0  0  0  0
  -29.3352  -18.9830   20.0422 C   0  0  2  0  0  0
  -28.4833  -24.7292   19.6840 C   0  0  2  0  0  0
  -26.5733  -18.1788   17.4993 N   0  0  0  0  0  0
  -29.7426  -16.1184   20.5078 N   0  0  0  0  0  0
  -29.3423  -20.4541   20.6539 N   0  3  0  0  0  0
  -31.4736  -12.7606   19.1651 H   0  0  0  0  0  0
  -30.4467  -11.6407   20.0185 H   0  0  0  0  0  0
  -29.8376  -11.7222   17.5756 H   0  0  0  0  0  0
  -29.6031  -13.4502   17.6746 H   0  0  0  0  0  0
  -27.9521  -11.2690   18.9782 H   0  0  0  0  0  0
  -27.3872  -12.4383   17.8122 H   0  0  0  0  0  0
  -27.5863  -14.2454   19.3995 H   0  0  0  0  0  0
  -28.7662  -12.2960   21.4385 H   0  0  0  0  0  0
  -28.3763  -13.9749   21.7432 H   0  0  0  0  0  0
  -25.2765   -9.5679   22.4754 H   0  0  0  0  0  0
  -23.9992   -7.4639   22.7495 H   0  0  0  0  0  0
  -21.0853   -8.8752   19.8941 H   0  0  0  0  0  0
  -22.3716  -10.9645   19.6140 H   0  0  0  0  0  0
  -21.1996   -7.6143   23.9703 H   0  0  0  0  0  0
  -21.1482   -6.0525   25.9071 H   0  0  0  0  0  0
  -22.0602   -2.7607   23.2848 H   0  0  0  0  0  0
  -22.4027  -11.9847   22.4823 H   0  0  0  0  0  0
  -21.1024  -13.1191   22.2571 H   0  0  0  0  0  0
  -24.6352  -15.8259   20.5348 H   0  0  0  0  0  0
  -26.2285  -15.6369   20.0328 H   0  0  0  0  0  0
  -26.7277  -32.5284   23.0979 H   0  0  0  0  0  0
  -25.0093  -33.9606   25.0314 H   0  0  0  0  0  0
  -22.7496  -31.2905   21.3797 H   0  0  0  0  0  0
  -23.3759  -35.9572   23.3287 H   0  0  0  0  0  0
  -24.3572  -36.8894   22.2057 H   0  0  0  0  0  0
  -23.7236  -37.6438   23.6685 H   0  0  0  0  0  0
  -26.1593  -31.4717   20.6111 H   0  0  0  0  0  0
  -26.8734  -30.7648   22.0254 H   0  0  0  0  0  0
  -28.1330  -28.8049   21.2061 H   0  0  0  0  0  0
  -25.8505  -25.8201   19.0762 H   0  0  0  0  0  0
  -23.9612  -27.2806   19.0225 H   0  0  0  0  0  0
  -23.8053  -30.5662   19.3953 H   0  0  0  0  0  0
  -22.7838  -29.2348   19.8442 H   0  0  0  0  0  0
  -25.1310  -36.1846   25.0805 H   0  0  0  0  0  0
  -21.0017  -28.3295   24.1357 H   0  0  0  0  0  0
  -20.5669  -26.2326   23.3618 H   0  0  0  0  0  0
  -21.6651  -26.7414   22.1205 H   0  0  0  0  0  0
  -19.6913  -25.6286   21.1249 H   0  0  0  0  0  0
  -19.6694  -27.3180   20.6728 H   0  0  0  0  0  0
  -17.4208  -26.6676   21.4034 H   0  0  0  0  0  0
  -18.0346  -26.0084   22.9031 H   0  0  0  0  0  0
  -19.7955  -30.7291   24.2236 H   0  0  0  0  0  0
  -17.5027  -31.6268   24.5157 H   0  0  0  0  0  0
  -15.5366  -30.2970   23.7672 H   0  0  0  0  0  0
  -15.8695  -28.0808   22.7081 H   0  0  0  0  0  0
  -24.5898  -30.7095   25.7720 H   0  0  0  0  0  0
  -24.8882  -32.2946   26.4756 H   0  0  0  0  0  0
  -25.7990  -30.8985   27.0219 H   0  0  0  0  0  0
  -26.2997  -29.6690   24.1279 H   0  0  0  0  0  0
  -27.3984  -29.7256   25.4853 H   0  0  0  0  0  0
  -27.8908  -30.4196   23.9600 H   0  0  0  0  0  0
  -27.2651  -33.3645   26.2021 H   0  0  0  0  0  0
  -28.3900  -32.6855   25.0351 H   0  0  0  0  0  0
  -28.0681  -31.8483   26.5461 H   0  0  0  0  0  0
  -28.2583  -38.0083   24.7512 H   0  0  0  0  0  0
  -28.1077  -36.2614   24.6294 H   0  0  0  0  0  0
  -27.2293  -37.1425   25.8870 H   0  0  0  0  0  0
  -20.9462  -29.8774   21.6807 H   0  0  0  0  0  0
  -26.0148  -38.2807   24.1419 H   0  0  0  0  0  0
  -24.6558  -18.2268   20.2759 H   0  0  0  0  0  0
  -26.2800  -17.8692   22.2603 H   0  0  0  0  0  0
  -26.3061  -19.6197   22.0797 H   0  0  0  0  0  0
  -27.8108  -18.7145   22.2285 H   0  0  0  0  0  0
  -23.5148  -17.2337   18.2556 H   0  0  0  0  0  0
  -24.3163  -17.2497   16.6861 H   0  0  0  0  0  0
  -23.6591  -18.7476   17.3550 H   0  0  0  0  0  0
  -29.7043  -17.8021   17.3214 H   0  0  0  0  0  0
  -29.3324  -19.5102   17.0128 H   0  0  0  0  0  0
  -28.5787  -18.2490   16.0508 H   0  0  0  0  0  0
  -28.3386  -23.7322   17.7531 H   0  0  0  0  0  0
  -27.7245  -25.3691   17.7307 H   0  0  0  0  0  0
  -26.7871  -24.0527   18.4745 H   0  0  0  0  0  0
  -29.4350  -23.4534   21.2705 H   0  0  0  0  0  0
  -27.7384  -23.1817   21.1488 H   0  0  0  0  0  0
  -29.8184  -17.7426   21.8647 H   0  0  0  0  0  0
  -31.1229  -17.7732   20.7556 H   0  0  0  0  0  0
  -29.7088  -21.8996   19.0965 H   0  0  0  0  0  0
  -28.0396  -21.5071   19.2815 H   0  0  0  0  0  0
  -30.0079  -19.1330   19.2014 H   0  0  0  0  0  0
  -29.5173  -24.8456   19.3557 H   0  0  0  0  0  0
  -28.7559  -15.9093   20.5195 H   0  0  0  0  0  0
  -28.7624  -20.4294   21.4751 H   0  0  0  0  0  0
  -30.2792  -20.6159   20.9892 H   0  0  0  0  0  0
  1 25  1  0  0  0
  1 30  2  0  0  0
  1 86  1  0  0  0
  2  3  1  0  0  0
  2 25  1  0  0  0
  2 88  1  0  0  0
  2 89  1  0  0  0
  3  4  1  0  0  0
  3 90  1  0  0  0
  3 91  1  0  0  0
  4  5  1  0  0  0
  4 92  1  0  0  0
  4 93  1  0  0  0
  5  6  1  0  0  0
  5 26  1  0  0  0
  5 94  1  0  0  0
  6 25  1  0  0  0
  6 95  1  0  0  0
  6 96  1  0  0  0
  7  8  2  0  0  0
  7 26  1  0  0  0
  7 29  1  0  0  0
  8  9  1  0  0  0
  8 22  1  0  0  0
  9 10  1  0  0  0
  9 27  2  0  0  0
 10 11  2  0  0  0
 10 15  1  0  0  0
 11 12  1  0  0  0
 11 97  1  0  0  0
 12 13  2  0  0  0
 12 98  1  0  0  0
 13 14  1  0  0  0
 13 31  1  0  0  0
 14 15  2  0  0  0
 14 99  1  0  0  0
 15100  1  0  0  0
 16 17  2  0  0  0
 16 21  1  0  0  0
 16 31  1  0  0  0
 17 18  1  0  0  0
 17101  1  0  0  0
 18 19  2  0  0  0
 18102  1  0  0  0
 19 20  1  0  0  0
 19 24  1  0  0  0
 20 21  2  0  0  0
 20103  1  0  0  0
 21 23  1  0  0  0
 22 28  1  0  0  0
 22 32  2  0  0  0
 26 27  1  0  0  0
 28104  1  0  0  0
 28105  1  0  0  0
 29106  1  0  0  0
 29107  1  0  0  0
 33 34  1  0  0  0
 33 66  1  0  0  0
 33 70  2  0  0  0
 34 36  1  0  0  0
 34 59  1  0  0  0
 34108  1  0  0  0
 35 44  2  0  0  0
 35 45  1  0  0  0
 35 68  1  0  0  0
 36 56  1  0  0  0
 36109  1  0  0  0
 37 39  1  0  0  0
 37 47  1  0  0  0
 37 66  1  0  0  0
 37110  1  0  0  0
 38 43  2  0  0  0
 38 46  1  0  0  0
 38 47  1  0  0  0
 39 64  1  0  0  0
 39 67  2  0  0  0
 40 52  1  0  0  0
 40 53  2  0  0  0
 40 58  1  0  0  0
 41111  1  0  0  0
 41112  1  0  0  0
 41113  1  0  0  0
 41 48  1  0  0  0
 42 43  1  0  0  0
 42 66  1  0  0  0
 42114  1  0  0  0
 42115  1  0  0  0
 43 44  1  0  0  0
 44116  1  0  0  0
 45 46  2  0  0  0
 45117  1  0  0  0
 46118  1  0  0  0
 47119  1  0  0  0
 47120  1  0  0  0
 48 56  1  0  0  0
 48 65  1  0  0  0
 48121  1  0  0  0
 49 50  1  0  0  0
 49 53  1  0  0  0
 49 64  1  0  0  0
 49122  1  0  0  0
 50 51  1  0  0  0
 50123  1  0  0  0
 50124  1  0  0  0
 51 52  1  0  0  0
 51125  1  0  0  0
 51126  1  0  0  0
 52127  1  0  0  0
 52128  1  0  0  0
 53 54  1  0  0  0
 54 55  2  0  0  0
 54129  1  0  0  0
 55 57  1  0  0  0
 55130  1  0  0  0
 56 69  2  0  0  0
 57 58  2  0  0  0
 57131  1  0  0  0
 58132  1  0  0  0
 59 60  1  0  0  0
 59 61  1  0  0  0
 59 62  1  0  0  0
 60133  1  0  0  0
 60134  1  0  0  0
 60135  1  0  0  0
 61136  1  0  0  0
 61137  1  0  0  0
 61138  1  0  0  0
 62139  1  0  0  0
 62140  1  0  0  0
 62141  1  0  0  0
 63 65  1  0  0  0
 63142  1  0  0  0
 63143  1  0  0  0
 63144  1  0  0  0
 64145  1  0  0  0
 65146  1  0  0  0
 68 84  1  0  0  0
 71 72  2  0  0  0
 71 74  1  0  0  0
 71147  1  0  0  0
 72 73  1  0  0  0
 72 76  1  0  0  0
 73 75  2  0  0  0
 73 83  1  0  0  0
 74 77  1  0  0  0
 74 85  2  0  0  0
 75 78  1  0  0  0
 75 85  1  0  0  0
 76148  1  0  0  0
 76149  1  0  0  0
 76150  1  0  0  0
 77151  1  0  0  0
 77152  1  0  0  0
 77153  1  0  0  0
 78154  1  0  0  0
 78155  1  0  0  0
 78156  1  0  0  0
 79157  1  0  0  0
 79158  1  0  0  0
 79159  1  0  0  0
 79 84  1  0  0  0
 80 82  1  0  0  0
 80 84  1  0  0  0
 80160  1  0  0  0
 80161  1  0  0  0
 81 86  1  0  0  0
 81162  1  0  0  0
 81163  1  0  0  0
 81 83  1  0  0  0
 82 87  1  0  0  0
 82164  1  0  0  0
 82165  1  0  0  0
 83 87  1  0  0  0
 83166  1  0  0  0
 84167  1  0  0  0
 86168  1  0  0  0
 87169  1  0  0  0
 87170  1  0  0  0
M  CHG  1  87   1
M  ISO  4   1 100  68 101  84 101  86 100
M  END
> <chiral flag>
0

> <version>
0

> <s_m_source_file>
/data/baiqing/PycharmProjects/Reinvent-master-3.2/result/LINK_invent/BTK/process_docking_weight1_custom_sum_contain_oxygen_bond_distance_aromatic_linkinvent_7_9_3/rearranged_h_0122.sdf

> <i_m_source_file_index>
47

> <r_mmod_Potential_Energy-OPLS-2005>
155.432907104492

> <r_mmod_Stretch_Energy-OPLS-2005>
275.583648681641

> <r_mmod_Bend_Energy-OPLS-2005>
317.044281005859

> <r_mmod_Torsional_Energy-OPLS-2005>
215.433929443359

> <r_mmod_Improper_Torsional_Energy-OPLS-2005>
4.65318489074707

> <r_mmod_Van_der_Waal_Energy-OPLS-2005>
125.279586791992

> <r_mmod_Electrostatic_Energy-OPLS-2005>
-485.907775878906

> <r_mmod_Solvation_Energy-OPLS-2005>
-484.867584228516

> <b_mmod_Minimization_Converged-OPLS-2005>
0

> <r_mmod_RMS_Derivative-OPLS-2005>
0.857848048210144

$$$$
47
                    3D
 Structure written by MMmdl.
156164  0  0  1  0            999 V2000
  -30.6901  -14.6464   20.4575 C   0  0  0  0  0  0
  -30.4154  -12.3928   19.4636 C   0  0  0  0  0  0
  -29.5020  -12.4955   18.2247 C   0  0  0  0  0  0
  -28.0275  -12.3380   18.6398 C   0  0  0  0  0  0
  -27.6458  -13.2326   19.8510 C   0  0  2  0  0  0
  -28.6929  -13.1597   20.9852 C   0  0  0  0  0  0
  -25.2545  -13.8201   20.5715 C   0  0  0  0  0  0
  -24.1829  -13.0446   20.9210 C   0  0  0  0  0  0
  -24.6416  -11.6927   20.8747 C   0  0  0  0  0  0
  -23.9085  -10.4301   21.0401 C   0  0  0  0  0  0
  -24.3631   -9.4213   21.9179 C   0  0  0  0  0  0
  -23.6308   -8.2245   22.0749 C   0  0  0  0  0  0
  -22.4289   -8.0283   21.3540 C   0  0  0  0  0  0
  -21.9925   -9.0257   20.4643 C   0  0  0  0  0  0
  -22.7255  -10.2139   20.3054 C   0  0  0  0  0  0
  -21.6861   -6.0740   22.5283 C   0  0  0  0  0  0
  -21.4011   -6.5643   23.8215 C   0  0  0  0  0  0
  -21.3657   -5.6795   24.9177 C   0  0  0  0  0  0
  -21.6047   -4.3057   24.7229 C   0  0  0  0  0  0
  -21.8818   -3.8149   23.4349 C   0  0  0  0  0  0
  -21.9193   -4.6965   22.3406 C   0  0  0  0  0  0
  -22.7848  -13.5225   21.1861 C   0  0  0  0  0  0
  -22.1669   -4.2150   21.0985 F   0  0  0  0  0  0
  -21.5627   -3.4543   25.7737 F   0  0  0  0  0  0
  -30.0032  -13.4612   20.3989 N   0  0  0  0  0  0
  -26.2976  -12.9418   20.3304 N   0  0  0  0  0  0
  -25.9348  -11.6555   20.5751 N   0  0  0  0  0  0
  -22.0496  -12.8217   22.0418 N   0  0  0  0  0  0
  -25.4231  -15.1924   20.4137 N   0  0  0  0  0  0
  -31.8880  -14.6788   20.1719 O   0  0  0  0  0  0
  -21.6649   -6.8886   21.4243 O   0  0  0  0  0  0
  -22.3535  -14.5529   20.6703 O   0  0  0  0  0  0
  -24.6272  -31.8594   23.2042 C   0  0  0  0  0  0
  -25.9119  -32.4776   23.8365 C   0  0  1  0  0  0
  -27.2101  -27.3067   20.1205 C   0  0  0  0  0  0
  -25.5937  -33.8577   24.2288 N   0  0  0  0  0  0
  -23.4203  -30.4870   21.5462 C   0  0  2  0  0  0
  -24.8659  -28.9477   20.1072 C   0  0  0  0  0  0
  -22.7473  -29.4637   22.4913 C   0  0  0  0  0  0
  -18.0288  -28.1387   22.8496 C   0  0  0  0  0  0
  -24.1492  -36.7293   23.2637 C   0  0  0  0  0  0
  -25.9641  -30.7863   21.3800 C   0  0  0  0  0  0
  -26.0355  -29.4136   20.7222 C   0  0  0  0  0  0
  -27.2125  -28.6039   20.7229 C   0  0  0  0  0  0
  -26.0273  -26.9161   19.4517 C   0  0  0  0  0  0
  -24.8649  -27.7055   19.4601 C   0  0  0  0  0  0
  -23.6351  -29.8290   20.1586 C   0  0  0  0  0  0
  -25.4112  -36.3076   24.0330 C   0  0  1  0  0  0
  -20.5893  -28.3689   23.1278 C   0  0  2  0  0  0
  -20.6783  -26.9408   22.5414 C   0  0  0  0  0  0
  -19.5759  -26.6382   21.5217 C   0  0  0  0  0  0
  -18.1931  -26.7936   22.1622 C   0  0  0  0  0  0
  -19.1543  -28.8850   23.2890 C   0  0  0  0  0  0
  -18.9467  -30.1455   23.8898 C   0  0  0  0  0  0
  -17.6467  -30.6591   24.0569 C   0  0  0  0  0  0
  -25.9045  -34.9450   23.5102 C   0  0  0  0  0  0
  -16.5357  -29.9093   23.6329 C   0  0  0  0  0  0
  -16.7274  -28.6511   23.0347 C   0  0  0  0  0  0
  -26.4498  -31.6580   25.0733 C   0  0  0  0  0  0
  -25.3726  -31.3739   26.1455 C   0  0  0  0  0  0
  -27.0334  -30.3001   24.6193 C   0  0  0  0  0  0
  -27.6057  -32.4311   25.7502 C   0  0  0  0  0  0
  -27.5574  -37.1799   24.8459 C   0  0  0  0  0  0
  -21.4179  -29.3049   22.3670 N   0  0  0  0  0  0
  -26.4287  -37.3772   23.9403 N   0  0  0  0  0  0
  -24.6893  -31.0612   22.0995 N   0  0  0  0  0  0
  -23.4198  -28.8160   23.2984 O   0  0  0  0  0  0
  -28.2957  -26.4148   20.1723 O   0  0  0  0  0  0
  -26.5608  -34.8920   22.4661 O   0  0  0  0  0  0
  -23.5431  -32.1398   23.7361 O   0  0  0  0  0  0
  -28.4898  -18.7736   20.5053 C   0  0  0  0  0  0
  -27.9616  -20.0903   20.5872 C   0  0  0  0  0  0
  -29.8876  -18.5717   20.4291 C   0  0  0  0  0  0
  -30.6672  -19.7776   20.4884 C   0  0  0  0  0  0
  -28.8087  -21.2212   20.5746 C   0  0  0  0  0  0
  -32.1877  -19.7401   20.4767 C   0  0  0  0  0  0
  -30.6704  -17.1334   18.5444 C   0  0  0  0  0  0
  -27.9693  -25.0132   20.5624 C   0  0  0  0  0  0
  -28.9494  -23.7707   20.3503 C   0  0  0  0  0  0
  -30.5412  -17.1678   20.0838 C   0  0  2  0  0  0
  -30.1498  -21.0475   20.5456 N   0  0  0  0  0  0
  -29.9885  -15.8318   20.5475 N   0  0  0  0  0  0
  -28.2436  -22.5114   20.6135 O   0  0  0  0  0  0
  -31.4630  -12.4709   19.1657 H   0  0  0  0  0  0
  -30.3131  -11.4137   19.9348 H   0  0  0  0  0  0
  -29.7684  -11.7319   17.4926 H   0  0  0  0  0  0
  -29.6483  -13.4578   17.7306 H   0  0  0  0  0  0
  -27.8713  -11.2890   18.8924 H   0  0  0  0  0  0
  -27.3703  -12.5457   17.7947 H   0  0  0  0  0  0
  -27.6440  -14.2561   19.4758 H   0  0  0  0  0  0
  -28.7043  -12.1711   21.4468 H   0  0  0  0  0  0
  -28.4507  -13.8686   21.7789 H   0  0  0  0  0  0
  -25.2769   -9.5688   22.4759 H   0  0  0  0  0  0
  -24.0017   -7.4634   22.7467 H   0  0  0  0  0  0
  -21.0855   -8.8770   19.8952 H   0  0  0  0  0  0
  -22.3703  -10.9675   19.6168 H   0  0  0  0  0  0
  -21.1999   -7.6151   23.9717 H   0  0  0  0  0  0
  -21.1485   -6.0527   25.9080 H   0  0  0  0  0  0
  -22.0597   -2.7609   23.2848 H   0  0  0  0  0  0
  -22.4124  -11.9885   22.4802 H   0  0  0  0  0  0
  -21.1097  -13.1214   22.2595 H   0  0  0  0  0  0
  -24.6519  -15.8423   20.5210 H   0  0  0  0  0  0
  -26.2668  -15.6318   20.0702 H   0  0  0  0  0  0
  -26.7184  -32.5445   23.1109 H   0  0  0  0  0  0
  -25.0106  -33.9735   25.0449 H   0  0  0  0  0  0
  -22.7153  -31.3090   21.4067 H   0  0  0  0  0  0
  -23.3753  -35.9623   23.3292 H   0  0  0  0  0  0
  -24.3591  -36.8919   22.2053 H   0  0  0  0  0  0
  -23.7253  -37.6500   23.6659 H   0  0  0  0  0  0
  -26.1005  -31.5494   20.6120 H   0  0  0  0  0  0
  -26.8440  -30.8309   22.0105 H   0  0  0  0  0  0
  -28.1055  -28.9514   21.2228 H   0  0  0  0  0  0
  -25.9755  -25.9866   18.9068 H   0  0  0  0  0  0
  -23.9755  -27.3534   18.9544 H   0  0  0  0  0  0
  -23.7549  -30.6094   19.4060 H   0  0  0  0  0  0
  -22.7539  -29.2609   19.8529 H   0  0  0  0  0  0
  -25.1298  -36.1918   25.0825 H   0  0  0  0  0  0
  -20.9995  -28.3260   24.1396 H   0  0  0  0  0  0
  -20.5697  -26.2289   23.3611 H   0  0  0  0  0  0
  -21.6651  -26.7444   22.1188 H   0  0  0  0  0  0
  -19.6918  -25.6294   21.1243 H   0  0  0  0  0  0
  -19.6707  -27.3199   20.6757 H   0  0  0  0  0  0
  -17.4211  -26.6688   21.4020 H   0  0  0  0  0  0
  -18.0328  -26.0087   22.9018 H   0  0  0  0  0  0
  -19.7943  -30.7276   24.2259 H   0  0  0  0  0  0
  -17.5024  -31.6271   24.5169 H   0  0  0  0  0  0
  -15.5356  -30.2995   23.7666 H   0  0  0  0  0  0
  -15.8672  -28.0838   22.7047 H   0  0  0  0  0  0
  -24.5909  -30.7076   25.7794 H   0  0  0  0  0  0
  -24.8915  -32.2920   26.4840 H   0  0  0  0  0  0
  -25.8049  -30.8950   27.0249 H   0  0  0  0  0  0
  -26.2912  -29.6760   24.1210 H   0  0  0  0  0  0
  -27.4026  -29.7250   25.4693 H   0  0  0  0  0  0
  -27.8784  -30.4290   23.9428 H   0  0  0  0  0  0
  -27.2670  -33.3627   26.2052 H   0  0  0  0  0  0
  -28.3885  -32.6839   25.0336 H   0  0  0  0  0  0
  -28.0699  -31.8447   26.5447 H   0  0  0  0  0  0
  -28.2577  -38.0107   24.7499 H   0  0  0  0  0  0
  -28.1088  -36.2639   24.6282 H   0  0  0  0  0  0
  -27.2297  -37.1431   25.8864 H   0  0  0  0  0  0
  -20.9334  -29.8795   21.6915 H   0  0  0  0  0  0
  -26.0166  -38.2841   24.1414 H   0  0  0  0  0  0
  -27.8186  -17.9287   20.4510 H   0  0  0  0  0  0
  -26.8905  -20.2320   20.6221 H   0  0  0  0  0  0
  -32.5747  -19.1432   19.6521 H   0  0  0  0  0  0
  -32.5586  -19.3147   21.4097 H   0  0  0  0  0  0
  -32.6154  -20.7386   20.3787 H   0  0  0  0  0  0
  -31.1969  -18.0107   18.1681 H   0  0  0  0  0  0
  -29.6906  -17.1198   18.0667 H   0  0  0  0  0  0
  -31.2256  -16.2677   18.1850 H   0  0  0  0  0  0
  -27.7135  -25.0443   21.6217 H   0  0  0  0  0  0
  -27.0533  -24.6891   20.0775 H   0  0  0  0  0  0
  -29.8292  -23.8593   20.9880 H   0  0  0  0  0  0
  -29.3014  -23.7547   19.3186 H   0  0  0  0  0  0
  -31.5491  -17.2000   20.5004 H   0  0  0  0  0  0
  -29.0049  -15.7687   20.7593 H   0  0  0  0  0  0
  1 25  1  0  0  0
  1 30  2  0  0  0
  1 82  1  0  0  0
  2  3  1  0  0  0
  2 25  1  0  0  0
  2 84  1  0  0  0
  2 85  1  0  0  0
  3  4  1  0  0  0
  3 86  1  0  0  0
  3 87  1  0  0  0
  4  5  1  0  0  0
  4 88  1  0  0  0
  4 89  1  0  0  0
  5  6  1  0  0  0
  5 26  1  0  0  0
  5 90  1  0  0  0
  6 25  1  0  0  0
  6 91  1  0  0  0
  6 92  1  0  0  0
  7  8  2  0  0  0
  7 26  1  0  0  0
  7 29  1  0  0  0
  8  9  1  0  0  0
  8 22  1  0  0  0
  9 10  1  0  0  0
  9 27  2  0  0  0
 10 11  2  0  0  0
 10 15  1  0  0  0
 11 12  1  0  0  0
 11 93  1  0  0  0
 12 13  2  0  0  0
 12 94  1  0  0  0
 13 14  1  0  0  0
 13 31  1  0  0  0
 14 15  2  0  0  0
 14 95  1  0  0  0
 15 96  1  0  0  0
 16 17  2  0  0  0
 16 21  1  0  0  0
 16 31  1  0  0  0
 17 18  1  0  0  0
 17 97  1  0  0  0
 18 19  2  0  0  0
 18 98  1  0  0  0
 19 20  1  0  0  0
 19 24  1  0  0  0
 20 21  2  0  0  0
 20 99  1  0  0  0
 21 23  1  0  0  0
 22 28  1  0  0  0
 22 32  2  0  0  0
 26 27  1  0  0  0
 28100  1  0  0  0
 28101  1  0  0  0
 29102  1  0  0  0
 29103  1  0  0  0
 33 34  1  0  0  0
 33 66  1  0  0  0
 33 70  2  0  0  0
 34 36  1  0  0  0
 34 59  1  0  0  0
 34104  1  0  0  0
 35 44  2  0  0  0
 35 45  1  0  0  0
 35 68  1  0  0  0
 36 56  1  0  0  0
 36105  1  0  0  0
 37 39  1  0  0  0
 37 47  1  0  0  0
 37 66  1  0  0  0
 37106  1  0  0  0
 38 43  2  0  0  0
 38 46  1  0  0  0
 38 47  1  0  0  0
 39 64  1  0  0  0
 39 67  2  0  0  0
 40 52  1  0  0  0
 40 53  2  0  0  0
 40 58  1  0  0  0
 41107  1  0  0  0
 41108  1  0  0  0
 41109  1  0  0  0
 41 48  1  0  0  0
 42 43  1  0  0  0
 42 66  1  0  0  0
 42110  1  0  0  0
 42111  1  0  0  0
 43 44  1  0  0  0
 44112  1  0  0  0
 45 46  2  0  0  0
 45113  1  0  0  0
 46114  1  0  0  0
 47115  1  0  0  0
 47116  1  0  0  0
 48 56  1  0  0  0
 48 65  1  0  0  0
 48117  1  0  0  0
 49 50  1  0  0  0
 49 53  1  0  0  0
 49 64  1  0  0  0
 49118  1  0  0  0
 50 51  1  0  0  0
 50119  1  0  0  0
 50120  1  0  0  0
 51 52  1  0  0  0
 51121  1  0  0  0
 51122  1  0  0  0
 52123  1  0  0  0
 52124  1  0  0  0
 53 54  1  0  0  0
 54 55  2  0  0  0
 54125  1  0  0  0
 55 57  1  0  0  0
 55126  1  0  0  0
 56 69  2  0  0  0
 57 58  2  0  0  0
 57127  1  0  0  0
 58128  1  0  0  0
 59 60  1  0  0  0
 59 61  1  0  0  0
 59 62  1  0  0  0
 60129  1  0  0  0
 60130  1  0  0  0
 60131  1  0  0  0
 61132  1  0  0  0
 61133  1  0  0  0
 61134  1  0  0  0
 62135  1  0  0  0
 62136  1  0  0  0
 62137  1  0  0  0
 63 65  1  0  0  0
 63138  1  0  0  0
 63139  1  0  0  0
 63140  1  0  0  0
 64141  1  0  0  0
 65142  1  0  0  0
 68 78  1  0  0  0
 71 72  2  0  0  0
 71 73  1  0  0  0
 71143  1  0  0  0
 72 75  1  0  0  0
 72144  1  0  0  0
 73 74  2  0  0  0
 73 80  1  0  0  0
 74 76  1  0  0  0
 74 81  1  0  0  0
 75 81  2  0  0  0
 75 83  1  0  0  0
 76145  1  0  0  0
 76146  1  0  0  0
 76147  1  0  0  0
 77148  1  0  0  0
 77149  1  0  0  0
 77150  1  0  0  0
 77 80  1  0  0  0
 78 79  1  0  0  0
 78151  1  0  0  0
 78152  1  0  0  0
 79 83  1  0  0  0
 79153  1  0  0  0
 79154  1  0  0  0
 80 82  1  0  0  0
 80155  1  0  0  0
 82156  1  0  0  0
M  ISO  4   1 100  68 101  78 101  82 100
M  END
> <chiral flag>
0

> <version>
0

> <s_m_source_file>
/data/baiqing/PycharmProjects/Reinvent-master-3.2/result/LINK_invent/BTK/process_docking_weight1_custom_sum_contain_oxygen_bond_distance_aromatic_linkinvent_7_9_3/rearranged_h_0122.sdf

> <i_m_source_file_index>
48

> <r_mmod_Potential_Energy-OPLS-2005>
-65.1435394287109

> <r_mmod_Stretch_Energy-OPLS-2005>
85.9960784912109

> <r_mmod_Bend_Energy-OPLS-2005>
163.89323425293

> <r_mmod_Torsional_Energy-OPLS-2005>
210.645294189453

> <r_mmod_Improper_Torsional_Energy-OPLS-2005>
8.22972583770752

> <r_mmod_Van_der_Waal_Energy-OPLS-2005>
151.440170288086

> <r_mmod_Electrostatic_Energy-OPLS-2005>
-532.70751953125

> <r_mmod_Solvation_Energy-OPLS-2005>
-213.807266235352

> <b_mmod_Minimization_Converged-OPLS-2005>
0

> <r_mmod_RMS_Derivative-OPLS-2005>
1.70717632770538

$$$$
48
                    3D
 Structure written by MMmdl.
152160  0  0  1  0            999 V2000
  -30.5703  -14.8769   20.4260 C   0  0  0  0  0  0
  -30.4331  -12.5357   19.4939 C   0  0  0  0  0  0
  -29.5161  -12.4755   18.2534 C   0  0  0  0  0  0
  -28.0516  -12.2766   18.6805 C   0  0  0  0  0  0
  -27.6248  -13.2355   19.8236 C   0  0  2  0  0  0
  -28.6613  -13.2668   20.9639 C   0  0  0  0  0  0
  -25.2447  -13.8199   20.5708 C   0  0  0  0  0  0
  -24.1753  -13.0439   20.9222 C   0  0  0  0  0  0
  -24.6360  -11.6918   20.8753 C   0  0  0  0  0  0
  -23.9045  -10.4298   21.0429 C   0  0  0  0  0  0
  -24.3598   -9.4210   21.9201 C   0  0  0  0  0  0
  -23.6283   -8.2244   22.0760 C   0  0  0  0  0  0
  -22.4269   -8.0282   21.3548 C   0  0  0  0  0  0
  -21.9895   -9.0250   20.4651 C   0  0  0  0  0  0
  -22.7217  -10.2134   20.3070 C   0  0  0  0  0  0
  -21.6862   -6.0726   22.5286 C   0  0  0  0  0  0
  -21.4023   -6.5632   23.8213 C   0  0  0  0  0  0
  -21.3665   -5.6790   24.9179 C   0  0  0  0  0  0
  -21.6039   -4.3045   24.7228 C   0  0  0  0  0  0
  -21.8813   -3.8132   23.4348 C   0  0  0  0  0  0
  -21.9191   -4.6955   22.3409 C   0  0  0  0  0  0
  -22.7770  -13.5226   21.1874 C   0  0  0  0  0  0
  -22.1656   -4.2144   21.0982 F   0  0  0  0  0  0
  -21.5623   -3.4529   25.7736 F   0  0  0  0  0  0
  -29.9455  -13.6407   20.3649 N   0  0  0  0  0  0
  -26.2844  -12.9422   20.3152 N   0  0  0  0  0  0
  -25.9269  -11.6563   20.5681 N   0  0  0  0  0  0
  -22.0413  -12.8253   22.0450 N   0  0  0  0  0  0
  -25.4102  -15.1938   20.4182 N   0  0  0  0  0  0
  -31.7774  -14.9202   20.1735 O   0  0  0  0  0  0
  -21.6645   -6.8868   21.4244 O   0  0  0  0  0  0
  -22.3460  -14.5529   20.6699 O   0  0  0  0  0  0
  -24.6360  -31.8455   23.1842 C   0  0  0  0  0  0
  -25.9135  -32.4703   23.8259 C   0  0  1  0  0  0
  -27.2302  -27.1564   20.1709 C   0  0  0  0  0  0
  -25.5874  -33.8504   24.2183 N   0  0  0  0  0  0
  -23.4436  -30.4593   21.5242 C   0  0  2  0  0  0
  -24.8980  -28.8783   20.1114 C   0  0  0  0  0  0
  -22.7566  -29.4555   22.4829 C   0  0  0  0  0  0
  -18.0285  -28.1438   22.8456 C   0  0  0  0  0  0
  -24.1483  -36.7293   23.2670 C   0  0  0  0  0  0
  -25.9921  -30.7260   21.3792 C   0  0  0  0  0  0
  -26.0650  -29.3325   20.7357 C   0  0  0  0  0  0
  -27.2250  -28.4804   20.7594 C   0  0  0  0  0  0
  -26.0407  -26.7900   19.5057 C   0  0  0  0  0  0
  -24.8939  -27.6191   19.4851 C   0  0  0  0  0  0
  -23.6741  -29.7788   20.1456 C   0  0  0  0  0  0
  -25.4121  -36.3058   24.0333 C   0  0  1  0  0  0
  -20.5900  -28.3761   23.1210 C   0  0  2  0  0  0
  -20.6775  -26.9461   22.5393 C   0  0  0  0  0  0
  -19.5756  -26.6406   21.5199 C   0  0  0  0  0  0
  -18.1933  -26.7955   22.1612 C   0  0  0  0  0  0
  -19.1549  -28.8910   23.2812 C   0  0  0  0  0  0
  -18.9480  -30.1500   23.8866 C   0  0  0  0  0  0
  -17.6491  -30.6617   24.0579 C   0  0  0  0  0  0
  -25.9050  -34.9417   23.5096 C   0  0  0  0  0  0
  -16.5375  -29.9132   23.6348 C   0  0  0  0  0  0
  -16.7273  -28.6547   23.0344 C   0  0  0  0  0  0
  -26.4474  -31.6560   25.0693 C   0  0  0  0  0  0
  -25.3689  -31.3721   26.1420 C   0  0  0  0  0  0
  -27.0367  -30.2978   24.6238 C   0  0  0  0  0  0
  -27.6027  -32.4318   25.7452 C   0  0  0  0  0  0
  -27.5552  -37.1845   24.8498 C   0  0  0  0  0  0
  -21.4252  -29.3070   22.3586 N   0  0  0  0  0  0
  -26.4317  -37.3733   23.9360 N   0  0  0  0  0  0
  -24.7101  -31.0329   22.0846 N   0  0  0  0  0  0
  -23.4203  -28.8146   23.3015 O   0  0  0  0  0  0
  -28.3290  -26.2412   20.2867 O   0  0  0  0  0  0
  -26.5672  -34.8903   22.4690 O   0  0  0  0  0  0
  -23.5486  -32.1329   23.7046 O   0  0  0  0  0  0
  -30.2383  -21.5009   20.7700 C   0  0  0  0  0  0
  -30.6583  -20.1251   20.7823 C   0  0  0  0  0  0
  -28.0716  -20.7165   20.3325 C   0  0  0  0  0  0
  -28.8860  -21.8901   20.5584 C   0  0  0  0  0  0
  -29.7851  -19.0202   20.5644 C   0  0  0  0  0  0
  -28.8306  -23.8453   22.2434 C   0  0  0  0  0  0
  -30.4315  -17.5089   20.6016 C   0  0  0  0  0  0
  -28.4076  -24.7555   19.8548 C   0  0  0  0  0  0
  -28.3292  -23.4195   20.8517 C   0  0  1  0  0  0
  -28.4807  -19.3736   20.3220 N   0  0  0  0  0  0
  -29.8352  -16.0733   20.5614 N   0  0  0  0  0  0
  -31.4670  -12.6804   19.1767 H   0  0  0  0  0  0
  -30.4152  -11.5878   20.0353 H   0  0  0  0  0  0
  -29.8305  -11.6620   17.5975 H   0  0  0  0  0  0
  -29.6097  -13.3902   17.6673 H   0  0  0  0  0  0
  -27.9616  -11.2456   19.0239 H   0  0  0  0  0  0
  -27.3845  -12.3694   17.8237 H   0  0  0  0  0  0
  -27.5913  -14.2302   19.3770 H   0  0  0  0  0  0
  -28.7303  -12.3011   21.4676 H   0  0  0  0  0  0
  -28.3671  -13.9946   21.7215 H   0  0  0  0  0  0
  -25.2750   -9.5697   22.4747 H   0  0  0  0  0  0
  -24.0001   -7.4646   22.7489 H   0  0  0  0  0  0
  -21.0815   -8.8750   19.8969 H   0  0  0  0  0  0
  -22.3671  -10.9652   19.6156 H   0  0  0  0  0  0
  -21.2028   -7.6142   23.9720 H   0  0  0  0  0  0
  -21.1494   -6.0518   25.9086 H   0  0  0  0  0  0
  -22.0586   -2.7598   23.2846 H   0  0  0  0  0  0
  -22.4027  -11.9939   22.4882 H   0  0  0  0  0  0
  -21.1016  -13.1267   22.2625 H   0  0  0  0  0  0
  -24.6365  -15.8376   20.5480 H   0  0  0  0  0  0
  -26.2487  -15.6470   20.0795 H   0  0  0  0  0  0
  -26.7229  -32.5338   23.1021 H   0  0  0  0  0  0
  -24.9902  -33.9607   25.0252 H   0  0  0  0  0  0
  -22.7412  -31.2791   21.3596 H   0  0  0  0  0  0
  -23.3680  -35.9710   23.3470 H   0  0  0  0  0  0
  -24.3532  -36.8764   22.2056 H   0  0  0  0  0  0
  -23.7333  -37.6574   23.6609 H   0  0  0  0  0  0
  -26.1370  -31.4732   20.5968 H   0  0  0  0  0  0
  -26.8661  -30.7891   22.0162 H   0  0  0  0  0  0
  -28.1090  -28.8159   21.2828 H   0  0  0  0  0  0
  -25.9629  -25.8278   19.0230 H   0  0  0  0  0  0
  -23.9987  -27.2653   18.9904 H   0  0  0  0  0  0
  -23.8164  -30.5425   19.3798 H   0  0  0  0  0  0
  -22.7907  -29.2164   19.8395 H   0  0  0  0  0  0
  -25.1318  -36.1943   25.0837 H   0  0  0  0  0  0
  -20.9975  -28.3383   24.1338 H   0  0  0  0  0  0
  -20.5652  -26.2408   23.3631 H   0  0  0  0  0  0
  -21.6652  -26.7459   22.1224 H   0  0  0  0  0  0
  -19.6929  -25.6300   21.1265 H   0  0  0  0  0  0
  -19.6693  -27.3189   20.6703 H   0  0  0  0  0  0
  -17.4196  -26.6655   21.4020 H   0  0  0  0  0  0
  -18.0358  -26.0109   22.9034 H   0  0  0  0  0  0
  -19.7969  -30.7297   24.2229 H   0  0  0  0  0  0
  -17.5062  -31.6281   24.5225 H   0  0  0  0  0  0
  -15.5381  -30.3051   23.7684 H   0  0  0  0  0  0
  -15.8659  -28.0881   22.7085 H   0  0  0  0  0  0
  -24.5850  -30.7074   25.7755 H   0  0  0  0  0  0
  -24.8897  -32.2899   26.4847 H   0  0  0  0  0  0
  -25.8015  -30.8891   27.0197 H   0  0  0  0  0  0
  -26.2997  -29.6678   24.1256 H   0  0  0  0  0  0
  -27.4027  -29.7273   25.4783 H   0  0  0  0  0  0
  -27.8860  -30.4241   23.9528 H   0  0  0  0  0  0
  -27.2638  -33.3633   26.1992 H   0  0  0  0  0  0
  -28.3850  -32.6861   25.0290 H   0  0  0  0  0  0
  -28.0704  -31.8475   26.5381 H   0  0  0  0  0  0
  -28.2718  -37.9985   24.7317 H   0  0  0  0  0  0
  -28.0887  -36.2514   24.6632 H   0  0  0  0  0  0
  -27.2243  -37.1877   25.8898 H   0  0  0  0  0  0
  -20.9501  -29.8795   21.6754 H   0  0  0  0  0  0
  -26.0203  -38.2846   24.1192 H   0  0  0  0  0  0
  -30.9749  -22.2584   20.9926 H   0  0  0  0  0  0
  -31.6975  -19.9165   20.9952 H   0  0  0  0  0  0
  -27.0076  -20.8499   20.2040 H   0  0  0  0  0  0
  -28.6278  -23.0811   22.9948 H   0  0  0  0  0  0
  -28.3262  -24.7531   22.5733 H   0  0  0  0  0  0
  -29.9034  -24.0406   22.2469 H   0  0  0  0  0  0
  -31.0070  -17.5056   21.5272 H   0  0  0  0  0  0
  -31.1851  -17.5261   19.8134 H   0  0  0  0  0  0
  -27.7415  -24.5967   19.0085 H   0  0  0  0  0  0
  -29.4038  -24.6992   19.4133 H   0  0  0  0  0  0
  -27.2563  -23.2654   20.9700 H   0  0  0  0  0  0
  -28.8346  -15.9990   20.6523 H   0  0  0  0  0  0
  1 25  1  0  0  0
  1 30  2  0  0  0
  1 81  1  0  0  0
  2  3  1  0  0  0
  2 25  1  0  0  0
  2 82  1  0  0  0
  2 83  1  0  0  0
  3  4  1  0  0  0
  3 84  1  0  0  0
  3 85  1  0  0  0
  4  5  1  0  0  0
  4 86  1  0  0  0
  4 87  1  0  0  0
  5  6  1  0  0  0
  5 26  1  0  0  0
  5 88  1  0  0  0
  6 25  1  0  0  0
  6 89  1  0  0  0
  6 90  1  0  0  0
  7  8  2  0  0  0
  7 26  1  0  0  0
  7 29  1  0  0  0
  8  9  1  0  0  0
  8 22  1  0  0  0
  9 10  1  0  0  0
  9 27  2  0  0  0
 10 11  2  0  0  0
 10 15  1  0  0  0
 11 12  1  0  0  0
 11 91  1  0  0  0
 12 13  2  0  0  0
 12 92  1  0  0  0
 13 14  1  0  0  0
 13 31  1  0  0  0
 14 15  2  0  0  0
 14 93  1  0  0  0
 15 94  1  0  0  0
 16 17  2  0  0  0
 16 21  1  0  0  0
 16 31  1  0  0  0
 17 18  1  0  0  0
 17 95  1  0  0  0
 18 19  2  0  0  0
 18 96  1  0  0  0
 19 20  1  0  0  0
 19 24  1  0  0  0
 20 21  2  0  0  0
 20 97  1  0  0  0
 21 23  1  0  0  0
 22 28  1  0  0  0
 22 32  2  0  0  0
 26 27  1  0  0  0
 28 98  1  0  0  0
 28 99  1  0  0  0
 29100  1  0  0  0
 29101  1  0  0  0
 33 34  1  0  0  0
 33 66  1  0  0  0
 33 70  2  0  0  0
 34 36  1  0  0  0
 34 59  1  0  0  0
 34102  1  0  0  0
 35 44  2  0  0  0
 35 45  1  0  0  0
 35 68  1  0  0  0
 36 56  1  0  0  0
 36103  1  0  0  0
 37 39  1  0  0  0
 37 47  1  0  0  0
 37 66  1  0  0  0
 37104  1  0  0  0
 38 43  2  0  0  0
 38 46  1  0  0  0
 38 47  1  0  0  0
 39 64  1  0  0  0
 39 67  2  0  0  0
 40 52  1  0  0  0
 40 53  2  0  0  0
 40 58  1  0  0  0
 41105  1  0  0  0
 41106  1  0  0  0
 41107  1  0  0  0
 41 48  1  0  0  0
 42 43  1  0  0  0
 42 66  1  0  0  0
 42108  1  0  0  0
 42109  1  0  0  0
 43 44  1  0  0  0
 44110  1  0  0  0
 45 46  2  0  0  0
 45111  1  0  0  0
 46112  1  0  0  0
 47113  1  0  0  0
 47114  1  0  0  0
 48 56  1  0  0  0
 48 65  1  0  0  0
 48115  1  0  0  0
 49 50  1  0  0  0
 49 53  1  0  0  0
 49 64  1  0  0  0
 49116  1  0  0  0
 50 51  1  0  0  0
 50117  1  0  0  0
 50118  1  0  0  0
 51 52  1  0  0  0
 51119  1  0  0  0
 51120  1  0  0  0
 52121  1  0  0  0
 52122  1  0  0  0
 53 54  1  0  0  0
 54 55  2  0  0  0
 54123  1  0  0  0
 55 57  1  0  0  0
 55124  1  0  0  0
 56 69  2  0  0  0
 57 58  2  0  0  0
 57125  1  0  0  0
 58126  1  0  0  0
 59 60  1  0  0  0
 59 61  1  0  0  0
 59 62  1  0  0  0
 60127  1  0  0  0
 60128  1  0  0  0
 60129  1  0  0  0
 61130  1  0  0  0
 61131  1  0  0  0
 61132  1  0  0  0
 62133  1  0  0  0
 62134  1  0  0  0
 62135  1  0  0  0
 63 65  1  0  0  0
 63136  1  0  0  0
 63137  1  0  0  0
 63138  1  0  0  0
 64139  1  0  0  0
 65140  1  0  0  0
 68 78  1  0  0  0
 71 72  2  0  0  0
 71 74  1  0  0  0
 71141  1  0  0  0
 72 75  1  0  0  0
 72142  1  0  0  0
 73 74  2  0  0  0
 73 80  1  0  0  0
 73143  1  0  0  0
 74 79  1  0  0  0
 75 77  1  0  0  0
 75 80  2  0  0  0
 76144  1  0  0  0
 76145  1  0  0  0
 76146  1  0  0  0
 76 79  1  0  0  0
 77 81  1  0  0  0
 77147  1  0  0  0
 77148  1  0  0  0
 78 79  1  0  0  0
 78149  1  0  0  0
 78150  1  0  0  0
 79151  1  0  0  0
 81152  1  0  0  0
M  ISO  4   1 100  68 101  78 101  81 100
M  END
> <chiral flag>
0

> <version>
0

> <s_m_source_file>
/data/baiqing/PycharmProjects/Reinvent-master-3.2/result/LINK_invent/BTK/process_docking_weight1_custom_sum_contain_oxygen_bond_distance_aromatic_linkinvent_7_9_3/rearranged_h_0122.sdf

> <i_m_source_file_index>
49

> <r_mmod_Potential_Energy-OPLS-2005>
161.176177978516

> <r_mmod_Stretch_Energy-OPLS-2005>
201.952835083008

> <r_mmod_Bend_Energy-OPLS-2005>
283.957122802734

> <r_mmod_Torsional_Energy-OPLS-2005>
209.894714355469

> <r_mmod_Improper_Torsional_Energy-OPLS-2005>
6.17767715454102

> <r_mmod_Van_der_Waal_Energy-OPLS-2005>
132.768600463867

> <r_mmod_Electrostatic_Energy-OPLS-2005>
-616.201904296875

> <r_mmod_Solvation_Energy-OPLS-2005>
-218.513076782227

> <b_mmod_Minimization_Converged-OPLS-2005>
0

> <r_mmod_RMS_Derivative-OPLS-2005>
3.51124978065491

$$$$
49
                    3D
 Structure written by MMmdl.
159167  0  0  1  0            999 V2000
  -30.5163  -14.9631   20.4163 C   0  0  0  0  0  0
  -30.4443  -12.5906   19.5244 C   0  0  0  0  0  0
  -29.5324  -12.5411   18.2744 C   0  0  0  0  0  0
  -28.0647  -12.3205   18.6821 C   0  0  0  0  0  0
  -27.6362  -13.2472   19.8498 C   0  0  2  0  0  0
  -28.6727  -13.2683   20.9957 C   0  0  0  0  0  0
  -25.2493  -13.8220   20.5701 C   0  0  0  0  0  0
  -24.1804  -13.0458   20.9212 C   0  0  0  0  0  0
  -24.6417  -11.6943   20.8750 C   0  0  0  0  0  0
  -23.9099  -10.4306   21.0423 C   0  0  0  0  0  0
  -24.3655   -9.4215   21.9193 C   0  0  0  0  0  0
  -23.6323   -8.2251   22.0771 C   0  0  0  0  0  0
  -22.4293   -8.0287   21.3570 C   0  0  0  0  0  0
  -21.9935   -9.0264   20.4672 C   0  0  0  0  0  0
  -22.7274  -10.2143   20.3069 C   0  0  0  0  0  0
  -21.6862   -6.0741   22.5286 C   0  0  0  0  0  0
  -21.4014   -6.5644   23.8219 C   0  0  0  0  0  0
  -21.3664   -5.6800   24.9176 C   0  0  0  0  0  0
  -21.6044   -4.3065   24.7229 C   0  0  0  0  0  0
  -21.8821   -3.8155   23.4357 C   0  0  0  0  0  0
  -21.9204   -4.6969   22.3408 C   0  0  0  0  0  0
  -22.7825  -13.5234   21.1837 C   0  0  0  0  0  0
  -22.1663   -4.2148   21.0990 F   0  0  0  0  0  0
  -21.5618   -3.4551   25.7751 F   0  0  0  0  0  0
  -29.9582  -13.6823   20.4179 N   0  0  0  0  0  0
  -26.2916  -12.9451   20.3281 N   0  0  0  0  0  0
  -25.9353  -11.6583   20.5772 N   0  0  0  0  0  0
  -22.0465  -12.8254   22.0407 N   0  0  0  0  0  0
  -25.4200  -15.1943   20.4100 N   0  0  0  0  0  0
  -31.6843  -15.0686   20.0247 O   0  0  0  0  0  0
  -21.6662   -6.8886   21.4252 O   0  0  0  0  0  0
  -22.3524  -14.5533   20.6665 O   0  0  0  0  0  0
  -24.6423  -31.8414   23.1839 C   0  0  0  0  0  0
  -25.9182  -32.4693   23.8255 C   0  0  1  0  0  0
  -27.2402  -27.1381   20.1450 C   0  0  0  0  0  0
  -25.5924  -33.8490   24.2175 N   0  0  0  0  0  0
  -23.4500  -30.4523   21.5293 C   0  0  2  0  0  0
  -24.9028  -28.8714   20.1028 C   0  0  0  0  0  0
  -22.7591  -29.4508   22.4870 C   0  0  0  0  0  0
  -18.0295  -28.1385   22.8487 C   0  0  0  0  0  0
  -24.1485  -36.7242   23.2647 C   0  0  0  0  0  0
  -26.0009  -30.7127   21.3822 C   0  0  0  0  0  0
  -26.0727  -29.3212   20.7275 C   0  0  0  0  0  0
  -27.2325  -28.4650   20.7376 C   0  0  0  0  0  0
  -26.0500  -26.7824   19.4783 C   0  0  0  0  0  0
  -24.9050  -27.6165   19.4639 C   0  0  0  0  0  0
  -23.6769  -29.7736   20.1497 C   0  0  0  0  0  0
  -25.4123  -36.3028   24.0318 C   0  0  1  0  0  0
  -20.5923  -28.3714   23.1257 C   0  0  2  0  0  0
  -20.6790  -26.9424   22.5425 C   0  0  0  0  0  0
  -19.5769  -26.6376   21.5235 C   0  0  0  0  0  0
  -18.1940  -26.7928   22.1626 C   0  0  0  0  0  0
  -19.1559  -28.8871   23.2868 C   0  0  0  0  0  0
  -18.9478  -30.1468   23.8902 C   0  0  0  0  0  0
  -17.6469  -30.6600   24.0561 C   0  0  0  0  0  0
  -25.9073  -34.9398   23.5055 C   0  0  0  0  0  0
  -16.5355  -29.9092   23.6328 C   0  0  0  0  0  0
  -16.7286  -28.6500   23.0372 C   0  0  0  0  0  0
  -26.4498  -31.6576   25.0711 C   0  0  0  0  0  0
  -25.3670  -31.3752   26.1411 C   0  0  0  0  0  0
  -27.0373  -30.2993   24.6266 C   0  0  0  0  0  0
  -27.6074  -32.4322   25.7458 C   0  0  0  0  0  0
  -27.5575  -37.1769   24.8465 C   0  0  0  0  0  0
  -21.4274  -29.3030   22.3631 N   0  0  0  0  0  0
  -26.4275  -37.3756   23.9416 N   0  0  0  0  0  0
  -24.7177  -31.0248   22.0882 N   0  0  0  0  0  0
  -23.4217  -28.8074   23.3055 O   0  0  0  0  0  0
  -28.3220  -26.2018   20.3018 O   0  0  0  0  0  0
  -26.5683  -34.8905   22.4652 O   0  0  0  0  0  0
  -23.5537  -32.1285   23.7043 O   0  0  0  0  0  0
  -27.5368  -22.0680   17.8258 C   0  0  0  0  0  0
  -29.0385  -22.2456   17.4920 C   0  0  0  0  0  0
  -27.0591  -22.7823   19.1199 C   0  0  0  0  0  0
  -30.0004  -21.9623   18.6739 C   0  0  0  0  0  0
  -28.2043  -23.1822   20.0832 C   0  0  1  0  0  0
  -29.2758  -21.8554   20.0357 C   0  0  1  0  0  0
  -28.6005  -24.7947   19.6874 C   0  0  0  0  0  0
  -29.5044  -17.5441   20.0140 C   0  0  0  0  0  0
  -29.6339  -19.0879   20.7003 C   0  0  0  0  0  0
  -29.7114  -16.1076   20.6725 N   0  0  0  0  0  0
  -28.7939  -20.3415   20.1844 N   0  3  0  0  0  0
  -31.4782  -12.7515   19.2169 H   0  0  0  0  0  0
  -30.4359  -11.6339   20.0476 H   0  0  0  0  0  0
  -29.8590  -11.7445   17.6029 H   0  0  0  0  0  0
  -29.6213  -13.4735   17.7144 H   0  0  0  0  0  0
  -27.9640  -11.2783   18.9861 H   0  0  0  0  0  0
  -27.4062  -12.4564   17.8227 H   0  0  0  0  0  0
  -27.6022  -14.2516   19.4274 H   0  0  0  0  0  0
  -28.7538  -12.2908   21.4719 H   0  0  0  0  0  0
  -28.3619  -13.9654   21.7763 H   0  0  0  0  0  0
  -25.2793   -9.5685   22.4788 H   0  0  0  0  0  0
  -24.0035   -7.4646   22.7492 H   0  0  0  0  0  0
  -21.0863   -8.8802   19.8986 H   0  0  0  0  0  0
  -22.3739  -10.9693   19.6190 H   0  0  0  0  0  0
  -21.1995   -7.6152   23.9718 H   0  0  0  0  0  0
  -21.1476   -6.0532   25.9086 H   0  0  0  0  0  0
  -22.0597   -2.7615   23.2867 H   0  0  0  0  0  0
  -22.4095  -11.9935   22.4812 H   0  0  0  0  0  0
  -21.1078  -13.1284   22.2571 H   0  0  0  0  0  0
  -24.6521  -15.8490   20.5064 H   0  0  0  0  0  0
  -26.2629  -15.6261   20.0552 H   0  0  0  0  0  0
  -26.7258  -32.5295   23.1002 H   0  0  0  0  0  0
  -25.0044  -33.9634   25.0301 H   0  0  0  0  0  0
  -22.7537  -31.2791   21.3732 H   0  0  0  0  0  0
  -23.3767  -35.9553   23.3267 H   0  0  0  0  0  0
  -24.3600  -36.8906   22.2074 H   0  0  0  0  0  0
  -23.7191  -37.6404   23.6708 H   0  0  0  0  0  0
  -26.1517  -31.4598   20.6016 H   0  0  0  0  0  0
  -26.8741  -30.7710   22.0209 H   0  0  0  0  0  0
  -28.1191  -28.7935   21.2620 H   0  0  0  0  0  0
  -25.9787  -25.8138   19.0075 H   0  0  0  0  0  0
  -24.0105  -27.2656   18.9677 H   0  0  0  0  0  0
  -23.8122  -30.5468   19.3935 H   0  0  0  0  0  0
  -22.7910  -29.2165   19.8434 H   0  0  0  0  0  0
  -25.1304  -36.1854   25.0810 H   0  0  0  0  0  0
  -21.0023  -28.3277   24.1377 H   0  0  0  0  0  0
  -20.5701  -26.2333   23.3637 H   0  0  0  0  0  0
  -21.6649  -26.7449   22.1218 H   0  0  0  0  0  0
  -19.6941  -25.6291   21.1264 H   0  0  0  0  0  0
  -19.6682  -27.3196   20.6775 H   0  0  0  0  0  0
  -17.4224  -26.6699   21.4006 H   0  0  0  0  0  0
  -18.0308  -26.0064   22.9019 H   0  0  0  0  0  0
  -19.7953  -30.7283   24.2281 H   0  0  0  0  0  0
  -17.5024  -31.6290   24.5148 H   0  0  0  0  0  0
  -15.5364  -30.3005   23.7653 H   0  0  0  0  0  0
  -15.8677  -28.0819   22.7112 H   0  0  0  0  0  0
  -24.5880  -30.7078   25.7710 H   0  0  0  0  0  0
  -24.8818  -32.2916   26.4790 H   0  0  0  0  0  0
  -25.7943  -30.8950   27.0226 H   0  0  0  0  0  0
  -26.2989  -29.6719   24.1272 H   0  0  0  0  0  0
  -27.4016  -29.7305   25.4825 H   0  0  0  0  0  0
  -27.8871  -30.4281   23.9561 H   0  0  0  0  0  0
  -27.2755  -33.3679   26.1980 H   0  0  0  0  0  0
  -28.3897  -32.6786   25.0260 H   0  0  0  0  0  0
  -28.0734  -31.8461   26.5394 H   0  0  0  0  0  0
  -28.2581  -38.0087   24.7573 H   0  0  0  0  0  0
  -28.1072  -36.2617   24.6205 H   0  0  0  0  0  0
  -27.2310  -37.1327   25.8876 H   0  0  0  0  0  0
  -20.9496  -29.8706   21.6770 H   0  0  0  0  0  0
  -26.0120  -38.2805   24.1476 H   0  0  0  0  0  0
  -27.3205  -21.0026   17.9097 H   0  0  0  0  0  0
  -26.9359  -22.4071   16.9799 H   0  0  0  0  0  0
  -29.2023  -23.2605   17.1304 H   0  0  0  0  0  0
  -29.3010  -21.6074   16.6452 H   0  0  0  0  0  0
  -26.3563  -22.1296   19.6364 H   0  0  0  0  0  0
  -26.4698  -23.6578   18.8533 H   0  0  0  0  0  0
  -30.7376  -22.7669   18.7188 H   0  0  0  0  0  0
  -30.5844  -21.0618   18.4751 H   0  0  0  0  0  0
  -27.7992  -23.2206   21.0964 H   0  0  0  0  0  0
  -30.0040  -22.0047   20.8346 H   0  0  0  0  0  0
  -28.4353  -24.9232   18.6170 H   0  0  0  0  0  0
  -29.6887  -24.7855   19.7603 H   0  0  0  0  0  0
  -30.0983  -17.5564   19.1003 H   0  0  0  0  0  0
  -28.4765  -17.4888   19.6538 H   0  0  0  0  0  0
  -30.6857  -19.3662   20.6475 H   0  0  0  0  0  0
  -29.4238  -19.0139   21.7694 H   0  0  0  0  0  0
  -28.8765  -15.8251   21.1653 H   0  0  0  0  0  0
  -28.4210  -20.0824   19.2865 H   0  0  0  0  0  0
  -27.9998  -20.3732   20.8035 H   0  0  0  0  0  0
  1 25  1  0  0  0
  1 30  2  0  0  0
  1 80  1  0  0  0
  2  3  1  0  0  0
  2 25  1  0  0  0
  2 82  1  0  0  0
  2 83  1  0  0  0
  3  4  1  0  0  0
  3 84  1  0  0  0
  3 85  1  0  0  0
  4  5  1  0  0  0
  4 86  1  0  0  0
  4 87  1  0  0  0
  5  6  1  0  0  0
  5 26  1  0  0  0
  5 88  1  0  0  0
  6 25  1  0  0  0
  6 89  1  0  0  0
  6 90  1  0  0  0
  7  8  2  0  0  0
  7 26  1  0  0  0
  7 29  1  0  0  0
  8  9  1  0  0  0
  8 22  1  0  0  0
  9 10  1  0  0  0
  9 27  2  0  0  0
 10 11  2  0  0  0
 10 15  1  0  0  0
 11 12  1  0  0  0
 11 91  1  0  0  0
 12 13  2  0  0  0
 12 92  1  0  0  0
 13 14  1  0  0  0
 13 31  1  0  0  0
 14 15  2  0  0  0
 14 93  1  0  0  0
 15 94  1  0  0  0
 16 17  2  0  0  0
 16 21  1  0  0  0
 16 31  1  0  0  0
 17 18  1  0  0  0
 17 95  1  0  0  0
 18 19  2  0  0  0
 18 96  1  0  0  0
 19 20  1  0  0  0
 19 24  1  0  0  0
 20 21  2  0  0  0
 20 97  1  0  0  0
 21 23  1  0  0  0
 22 28  1  0  0  0
 22 32  2  0  0  0
 26 27  1  0  0  0
 28 98  1  0  0  0
 28 99  1  0  0  0
 29100  1  0  0  0
 29101  1  0  0  0
 33 34  1  0  0  0
 33 66  1  0  0  0
 33 70  2  0  0  0
 34 36  1  0  0  0
 34 59  1  0  0  0
 34102  1  0  0  0
 35 44  2  0  0  0
 35 45  1  0  0  0
 35 68  1  0  0  0
 36 56  1  0  0  0
 36103  1  0  0  0
 37 39  1  0  0  0
 37 47  1  0  0  0
 37 66  1  0  0  0
 37104  1  0  0  0
 38 43  2  0  0  0
 38 46  1  0  0  0
 38 47  1  0  0  0
 39 64  1  0  0  0
 39 67  2  0  0  0
 40 52  1  0  0  0
 40 53  2  0  0  0
 40 58  1  0  0  0
 41105  1  0  0  0
 41106  1  0  0  0
 41107  1  0  0  0
 41 48  1  0  0  0
 42 43  1  0  0  0
 42 66  1  0  0  0
 42108  1  0  0  0
 42109  1  0  0  0
 43 44  1  0  0  0
 44110  1  0  0  0
 45 46  2  0  0  0
 45111  1  0  0  0
 46112  1  0  0  0
 47113  1  0  0  0
 47114  1  0  0  0
 48 56  1  0  0  0
 48 65  1  0  0  0
 48115  1  0  0  0
 49 50  1  0  0  0
 49 53  1  0  0  0
 49 64  1  0  0  0
 49116  1  0  0  0
 50 51  1  0  0  0
 50117  1  0  0  0
 50118  1  0  0  0
 51 52  1  0  0  0
 51119  1  0  0  0
 51120  1  0  0  0
 52121  1  0  0  0
 52122  1  0  0  0
 53 54  1  0  0  0
 54 55  2  0  0  0
 54123  1  0  0  0
 55 57  1  0  0  0
 55124  1  0  0  0
 56 69  2  0  0  0
 57 58  2  0  0  0
 57125  1  0  0  0
 58126  1  0  0  0
 59 60  1  0  0  0
 59 61  1  0  0  0
 59 62  1  0  0  0
 60127  1  0  0  0
 60128  1  0  0  0
 60129  1  0  0  0
 61130  1  0  0  0
 61131  1  0  0  0
 61132  1  0  0  0
 62133  1  0  0  0
 62134  1  0  0  0
 62135  1  0  0  0
 63 65  1  0  0  0
 63136  1  0  0  0
 63137  1  0  0  0
 63138  1  0  0  0
 64139  1  0  0  0
 65140  1  0  0  0
 68 77  1  0  0  0
 71 72  1  0  0  0
 71 73  1  0  0  0
 71141  1  0  0  0
 71142  1  0  0  0
 72 74  1  0  0  0
 72143  1  0  0  0
 72144  1  0  0  0
 73 75  1  0  0  0
 73145  1  0  0  0
 73146  1  0  0  0
 74 76  1  0  0  0
 74147  1  0  0  0
 74148  1  0  0  0
 75 76  1  0  0  0
 75 77  1  0  0  0
 75149  1  0  0  0
 76 81  1  0  0  0
 76150  1  0  0  0
 77151  1  0  0  0
 77152  1  0  0  0
 78 79  1  0  0  0
 78 80  1  0  0  0
 78153  1  0  0  0
 78154  1  0  0  0
 79 81  1  0  0  0
 79155  1  0  0  0
 79156  1  0  0  0
 80157  1  0  0  0
 81158  1  0  0  0
 81159  1  0  0  0
M  CHG  1  81   1
M  ISO  4   1 100  68 101  77 101  80 100
M  END
> <chiral flag>
0

> <version>
0

> <s_m_source_file>
/data/baiqing/PycharmProjects/Reinvent-master-3.2/result/LINK_invent/BTK/process_docking_weight1_custom_sum_contain_oxygen_bond_distance_aromatic_linkinvent_7_9_3/rearranged_h_0122.sdf

> <i_m_source_file_index>
50

> <r_mmod_Potential_Energy-OPLS-2005>
509.137176513672

> <r_mmod_Stretch_Energy-OPLS-2005>
288.366302490234

> <r_mmod_Bend_Energy-OPLS-2005>
351.896026611328

> <r_mmod_Torsional_Energy-OPLS-2005>
315.886535644531

> <r_mmod_Improper_Torsional_Energy-OPLS-2005>
6.06655120849609

> <r_mmod_Van_der_Waal_Energy-OPLS-2005>
115.992652893066

> <r_mmod_Electrostatic_Energy-OPLS-2005>
-280.414947509766

> <r_mmod_Solvation_Energy-OPLS-2005>
-487.033843994141

> <b_mmod_Minimization_Converged-OPLS-2005>
0

> <r_mmod_RMS_Derivative-OPLS-2005>
3.14093708992004

$$$$
50
                    3D
 Structure written by MMmdl.
167176  0  0  1  0            999 V2000
  -30.7072  -14.5580   20.5271 C   0  0  0  0  0  0
  -30.4397  -12.3163   19.4828 C   0  0  0  0  0  0
  -29.5306  -12.4999   18.2531 C   0  0  0  0  0  0
  -28.0515  -12.3302   18.6621 C   0  0  0  0  0  0
  -27.6805  -13.2072   19.8902 C   0  0  2  0  0  0
  -28.7356  -13.0458   21.0226 C   0  0  0  0  0  0
  -25.2583  -13.8053   20.5327 C   0  0  0  0  0  0
  -24.1891  -13.0419   20.9176 C   0  0  0  0  0  0
  -24.6468  -11.6887   20.8841 C   0  0  0  0  0  0
  -23.9127  -10.4266   21.0497 C   0  0  0  0  0  0
  -24.3634   -9.4127   21.9259 C   0  0  0  0  0  0
  -23.6267   -8.2174   22.0819 C   0  0  0  0  0  0
  -22.4239   -8.0298   21.3624 C   0  0  0  0  0  0
  -21.9932   -9.0280   20.4721 C   0  0  0  0  0  0
  -22.7297  -10.2134   20.3150 C   0  0  0  0  0  0
  -21.6809   -6.0718   22.5290 C   0  0  0  0  0  0
  -21.3970   -6.5628   23.8233 C   0  0  0  0  0  0
  -21.3689   -5.6813   24.9218 C   0  0  0  0  0  0
  -21.6072   -4.3090   24.7264 C   0  0  0  0  0  0
  -21.8804   -3.8137   23.4396 C   0  0  0  0  0  0
  -21.9152   -4.6934   22.3414 C   0  0  0  0  0  0
  -22.7916  -13.5251   21.1805 C   0  0  0  0  0  0
  -22.1631   -4.2129   21.0994 F   0  0  0  0  0  0
  -21.5652   -3.4569   25.7765 F   0  0  0  0  0  0
  -30.0494  -13.3585   20.4509 N   0  0  0  0  0  0
  -26.3165  -12.9302   20.3457 N   0  0  0  0  0  0
  -25.9456  -11.6456   20.5984 N   0  0  0  0  0  0
  -22.0613  -12.8277   22.0430 N   0  0  0  0  0  0
  -25.4144  -15.1617   20.2943 N   0  0  0  0  0  0
  -31.8654  -14.6827   20.1181 O   0  0  0  0  0  0
  -21.6650   -6.8852   21.4261 O   0  0  0  0  0  0
  -22.3542  -14.5508   20.6648 O   0  0  0  0  0  0
  -24.6190  -31.8620   23.2079 C   0  0  0  0  0  0
  -25.9030  -32.4820   23.8397 C   0  0  1  0  0  0
  -27.2638  -27.3963   20.0815 C   0  0  0  0  0  0
  -25.5835  -33.8632   24.2326 N   0  0  0  0  0  0
  -23.4138  -30.4830   21.5489 C   0  0  2  0  0  0
  -24.8656  -28.9462   20.1250 C   0  0  0  0  0  0
  -22.7433  -29.4614   22.5005 C   0  0  0  0  0  0
  -18.0260  -28.1323   22.8535 C   0  0  0  0  0  0
  -24.1492  -36.7304   23.2654 C   0  0  0  0  0  0
  -25.9521  -30.8231   21.3686 C   0  0  0  0  0  0
  -26.0336  -29.4534   20.7100 C   0  0  0  0  0  0
  -27.2320  -28.6860   20.6801 C   0  0  0  0  0  0
  -26.0624  -26.9248   19.4945 C   0  0  0  0  0  0
  -24.8751  -27.6799   19.5221 C   0  0  0  0  0  0
  -23.6244  -29.8065   20.1715 C   0  0  0  0  0  0
  -25.4094  -36.3096   24.0355 C   0  0  1  0  0  0
  -20.5828  -28.3644   23.1378 C   0  0  2  0  0  0
  -20.6696  -26.9365   22.5480 C   0  0  0  0  0  0
  -19.5748  -26.6306   21.5275 C   0  0  0  0  0  0
  -18.1925  -26.7870   22.1699 C   0  0  0  0  0  0
  -19.1494  -28.8778   23.3019 C   0  0  0  0  0  0
  -18.9392  -30.1405   23.8956 C   0  0  0  0  0  0
  -17.6373  -30.6585   24.0416 C   0  0  0  0  0  0
  -25.9008  -34.9469   23.5122 C   0  0  0  0  0  0
  -16.5328  -29.9094   23.6101 C   0  0  0  0  0  0
  -16.7264  -28.6445   23.0271 C   0  0  0  0  0  0
  -26.4426  -31.6622   25.0759 C   0  0  0  0  0  0
  -25.3692  -31.3742   26.1530 C   0  0  0  0  0  0
  -27.0270  -30.3053   24.6211 C   0  0  0  0  0  0
  -27.6025  -32.4359   25.7471 C   0  0  0  0  0  0
  -27.5570  -37.1782   24.8462 C   0  0  0  0  0  0
  -21.4123  -29.2985   22.3721 N   0  0  0  0  0  0
  -26.4301  -37.3755   23.9379 N   0  0  0  0  0  0
  -24.6803  -31.0718   22.0983 N   0  0  0  0  0  0
  -23.4207  -28.8156   23.3048 O   0  0  0  0  0  0
  -28.4378  -26.6418   20.0528 O   0  0  0  0  0  0
  -26.5664  -34.8901   22.4747 O   0  0  0  0  0  0
  -23.5350  -32.1358   23.7470 O   0  0  0  0  0  0
  -27.2765  -19.1985   20.5137 C   0  0  0  0  0  0
  -27.8885  -20.2861   19.9011 C   0  0  0  0  0  0
  -28.0597  -18.2214   21.1628 C   0  0  0  0  0  0
  -29.4589  -18.1983   20.8486 C   0  0  0  0  0  0
  -29.2823  -20.4013   19.9513 C   0  0  0  0  0  0
  -26.5800  -15.6854   23.6733 C   0  0  0  0  0  0
  -25.3355  -16.5229   23.3642 C   0  0  0  0  0  0
  -27.6089  -16.0488   22.6075 C   0  0  0  0  0  0
  -25.8330  -17.6600   22.4669 C   0  0  0  0  0  0
  -27.3794  -17.5279   22.3689 C   0  0  0  0  0  0
  -30.4453  -17.0305   21.1959 C   0  0  0  0  0  0
  -29.5060  -24.2677   19.9511 C   0  0  0  0  0  0
  -29.1765  -22.8213   20.4142 C   0  0  0  0  0  0
  -28.3040  -25.2112   20.2800 C   0  0  0  0  0  0
  -30.0472  -19.3166   20.2857 N   0  0  0  0  0  0
  -29.8532  -21.6830   19.7296 N   0  0  0  0  0  0
  -29.9997  -15.6267   20.9674 N   0  0  0  0  0  0
  -31.4973  -12.3596   19.2329 H   0  0  0  0  0  0
  -30.2895  -11.3209   19.9059 H   0  0  0  0  0  0
  -29.7845  -11.7711   17.4826 H   0  0  0  0  0  0
  -29.6845  -13.4950   17.8301 H   0  0  0  0  0  0
  -27.8996  -11.2773   18.8998 H   0  0  0  0  0  0
  -27.3972  -12.5641   17.8184 H   0  0  0  0  0  0
  -27.7214  -14.2439   19.5422 H   0  0  0  0  0  0
  -28.7364  -12.0286   21.4188 H   0  0  0  0  0  0
  -28.5323  -13.6668   21.8927 H   0  0  0  0  0  0
  -25.2780   -9.5510   22.4912 H   0  0  0  0  0  0
  -23.9990   -7.4472   22.7498 H   0  0  0  0  0  0
  -21.0889   -8.8733   19.8977 H   0  0  0  0  0  0
  -22.3758  -10.9683   19.6281 H   0  0  0  0  0  0
  -21.1959   -7.6149   23.9714 H   0  0  0  0  0  0
  -21.1564   -6.0578   25.9128 H   0  0  0  0  0  0
  -22.0563   -2.7610   23.2888 H   0  0  0  0  0  0
  -22.4161  -11.9813   22.4639 H   0  0  0  0  0  0
  -21.1289  -13.1322   22.2771 H   0  0  0  0  0  0
  -24.6707  -15.8316   20.4417 H   0  0  0  0  0  0
  -26.2826  -15.5966   19.9942 H   0  0  0  0  0  0
  -26.7140  -32.5495   23.1196 H   0  0  0  0  0  0
  -24.9811  -33.9822   25.0359 H   0  0  0  0  0  0
  -22.7053  -31.3066   21.3993 H   0  0  0  0  0  0
  -23.3722  -35.9667   23.3337 H   0  0  0  0  0  0
  -24.3596  -36.8882   22.2052 H   0  0  0  0  0  0
  -23.7271  -37.6530   23.6663 H   0  0  0  0  0  0
  -26.0822  -31.5971   20.6121 H   0  0  0  0  0  0
  -26.8289  -30.8633   22.0050 H   0  0  0  0  0  0
  -28.1380  -29.0905   21.1026 H   0  0  0  0  0  0
  -26.0117  -25.9785   18.9797 H   0  0  0  0  0  0
  -23.9750  -27.2764   19.0730 H   0  0  0  0  0  0
  -23.7189  -30.5721   19.4014 H   0  0  0  0  0  0
  -22.7505  -29.2189   19.8858 H   0  0  0  0  0  0
  -25.1269  -36.1961   25.0852 H   0  0  0  0  0  0
  -20.9958  -28.3281   24.1489 H   0  0  0  0  0  0
  -20.5546  -26.2301   23.3648 H   0  0  0  0  0  0
  -21.6544  -26.7243   22.1319 H   0  0  0  0  0  0
  -19.7003  -25.6267   21.1310 H   0  0  0  0  0  0
  -19.6857  -27.3101   20.6847 H   0  0  0  0  0  0
  -17.4253  -26.6558   21.4078 H   0  0  0  0  0  0
  -18.0313  -26.0012   22.9105 H   0  0  0  0  0  0
  -19.7847  -30.7232   24.2409 H   0  0  0  0  0  0
  -17.4905  -31.6354   24.4807 H   0  0  0  0  0  0
  -15.5325  -30.3124   23.7103 H   0  0  0  0  0  0
  -15.8720  -28.0832   22.6737 H   0  0  0  0  0  0
  -24.5869  -30.7107   25.7842 H   0  0  0  0  0  0
  -24.8910  -32.2899   26.4996 H   0  0  0  0  0  0
  -25.8051  -30.8888   27.0264 H   0  0  0  0  0  0
  -26.2857  -29.6827   24.1228 H   0  0  0  0  0  0
  -27.3905  -29.7310   25.4707 H   0  0  0  0  0  0
  -27.8722  -30.4281   23.9469 H   0  0  0  0  0  0
  -27.2657  -33.3633   26.2091 H   0  0  0  0  0  0
  -28.3759  -32.6952   25.0251 H   0  0  0  0  0  0
  -28.0781  -31.8478   26.5315 H   0  0  0  0  0  0
  -28.2586  -38.0064   24.7445 H   0  0  0  0  0  0
  -28.1060  -36.2592   24.6360 H   0  0  0  0  0  0
  -27.2311  -37.1484   25.8878 H   0  0  0  0  0  0
  -20.9336  -29.8490   21.6666 H   0  0  0  0  0  0
  -26.0199  -38.2844   24.1375 H   0  0  0  0  0  0
  -26.2000  -19.2418   20.6037 H   0  0  0  0  0  0
  -27.2542  -21.0669   19.5073 H   0  0  0  0  0  0
  -26.3840  -14.6155   23.7182 H   0  0  0  0  0  0
  -26.9612  -15.9963   24.6424 H   0  0  0  0  0  0
  -24.8583  -16.9066   24.2692 H   0  0  0  0  0  0
  -24.5873  -15.9257   22.8388 H   0  0  0  0  0  0
  -27.4252  -15.5143   21.6831 H   0  0  0  0  0  0
  -28.6031  -15.8185   22.9821 H   0  0  0  0  0  0
  -25.5135  -18.6454   22.8295 H   0  0  0  0  0  0
  -25.3677  -17.5021   21.4918 H   0  0  0  0  0  0
  -27.7924  -18.0258   23.2464 H   0  0  0  0  0  0
  -31.4008  -17.1751   20.6858 H   0  0  0  0  0  0
  -30.6600  -17.1208   22.2582 H   0  0  0  0  0  0
  -29.6930  -24.2682   18.8779 H   0  0  0  0  0  0
  -30.4156  -24.6291   20.4379 H   0  0  0  0  0  0
  -28.1045  -22.7245   20.2726 H   0  0  0  0  0  0
  -29.3041  -22.7499   21.4978 H   0  0  0  0  0  0
  -28.0632  -25.0759   21.3332 H   0  0  0  0  0  0
  -27.4681  -24.7970   19.7301 H   0  0  0  0  0  0
  -30.7894  -21.8055   19.3180 H   0  0  0  0  0  0
  -29.0917  -15.4414   21.3545 H   0  0  0  0  0  0
  1 25  1  0  0  0
  1 30  2  0  0  0
  1 87  1  0  0  0
  2  3  1  0  0  0
  2 25  1  0  0  0
  2 88  1  0  0  0
  2 89  1  0  0  0
  3  4  1  0  0  0
  3 90  1  0  0  0
  3 91  1  0  0  0
  4  5  1  0  0  0
  4 92  1  0  0  0
  4 93  1  0  0  0
  5  6  1  0  0  0
  5 26  1  0  0  0
  5 94  1  0  0  0
  6 25  1  0  0  0
  6 95  1  0  0  0
  6 96  1  0  0  0
  7  8  2  0  0  0
  7 26  1  0  0  0
  7 29  1  0  0  0
  8  9  1  0  0  0
  8 22  1  0  0  0
  9 10  1  0  0  0
  9 27  2  0  0  0
 10 11  2  0  0  0
 10 15  1  0  0  0
 11 12  1  0  0  0
 11 97  1  0  0  0
 12 13  2  0  0  0
 12 98  1  0  0  0
 13 14  1  0  0  0
 13 31  1  0  0  0
 14 15  2  0  0  0
 14 99  1  0  0  0
 15100  1  0  0  0
 16 17  2  0  0  0
 16 21  1  0  0  0
 16 31  1  0  0  0
 17 18  1  0  0  0
 17101  1  0  0  0
 18 19  2  0  0  0
 18102  1  0  0  0
 19 20  1  0  0  0
 19 24  1  0  0  0
 20 21  2  0  0  0
 20103  1  0  0  0
 21 23  1  0  0  0
 22 28  1  0  0  0
 22 32  2  0  0  0
 26 27  1  0  0  0
 28104  1  0  0  0
 28105  1  0  0  0
 29106  1  0  0  0
 29107  1  0  0  0
 33 34  1  0  0  0
 33 66  1  0  0  0
 33 70  2  0  0  0
 34 36  1  0  0  0
 34 59  1  0  0  0
 34108  1  0  0  0
 35 44  2  0  0  0
 35 45  1  0  0  0
 35 68  1  0  0  0
 36 56  1  0  0  0
 36109  1  0  0  0
 37 39  1  0  0  0
 37 47  1  0  0  0
 37 66  1  0  0  0
 37110  1  0  0  0
 38 43  2  0  0  0
 38 46  1  0  0  0
 38 47  1  0  0  0
 39 64  1  0  0  0
 39 67  2  0  0  0
 40 52  1  0  0  0
 40 53  2  0  0  0
 40 58  1  0  0  0
 41111  1  0  0  0
 41112  1  0  0  0
 41113  1  0  0  0
 41 48  1  0  0  0
 42 43  1  0  0  0
 42 66  1  0  0  0
 42114  1  0  0  0
 42115  1  0  0  0
 43 44  1  0  0  0
 44116  1  0  0  0
 45 46  2  0  0  0
 45117  1  0  0  0
 46118  1  0  0  0
 47119  1  0  0  0
 47120  1  0  0  0
 48 56  1  0  0  0
 48 65  1  0  0  0
 48121  1  0  0  0
 49 50  1  0  0  0
 49 53  1  0  0  0
 49 64  1  0  0  0
 49122  1  0  0  0
 50 51  1  0  0  0
 50123  1  0  0  0
 50124  1  0  0  0
 51 52  1  0  0  0
 51125  1  0  0  0
 51126  1  0  0  0
 52127  1  0  0  0
 52128  1  0  0  0
 53 54  1  0  0  0
 54 55  2  0  0  0
 54129  1  0  0  0
 55 57  1  0  0  0
 55130  1  0  0  0
 56 69  2  0  0  0
 57 58  2  0  0  0
 57131  1  0  0  0
 58132  1  0  0  0
 59 60  1  0  0  0
 59 61  1  0  0  0
 59 62  1  0  0  0
 60133  1  0  0  0
 60134  1  0  0  0
 60135  1  0  0  0
 61136  1  0  0  0
 61137  1  0  0  0
 61138  1  0  0  0
 62139  1  0  0  0
 62140  1  0  0  0
 62141  1  0  0  0
 63 65  1  0  0  0
 63142  1  0  0  0
 63143  1  0  0  0
 63144  1  0  0  0
 64145  1  0  0  0
 65146  1  0  0  0
 68 84  1  0  0  0
 71 72  2  0  0  0
 71 73  1  0  0  0
 71147  1  0  0  0
 72 75  1  0  0  0
 72148  1  0  0  0
 73 74  2  0  0  0
 73 80  1  0  0  0
 74 81  1  0  0  0
 74 85  1  0  0  0
 75 85  2  0  0  0
 75 86  1  0  0  0
 76 77  1  0  0  0
 76 78  1  0  0  0
 76149  1  0  0  0
 76150  1  0  0  0
 77 79  1  0  0  0
 77151  1  0  0  0
 77152  1  0  0  0
 78 80  1  0  0  0
 78153  1  0  0  0
 78154  1  0  0  0
 79 80  1  0  0  0
 79155  1  0  0  0
 79156  1  0  0  0
 80157  1  0  0  0
 81 87  1  0  0  0
 81158  1  0  0  0
 81159  1  0  0  0
 82 83  1  0  0  0
 82 84  1  0  0  0
 82160  1  0  0  0
 82161  1  0  0  0
 83 86  1  0  0  0
 83162  1  0  0  0
 83163  1  0  0  0
 84164  1  0  0  0
 84165  1  0  0  0
 86166  1  0  0  0
 87167  1  0  0  0
M  ISO  4   1 100  68 101  84 101  87 100
M  END
> <chiral flag>
0

> <version>
0

> <s_m_source_file>
/data/baiqing/PycharmProjects/Reinvent-master-3.2/result/LINK_invent/BTK/process_docking_weight1_custom_sum_contain_oxygen_bond_distance_aromatic_linkinvent_7_9_3/rearranged_h_0122.sdf

> <i_m_source_file_index>
51

> <r_mmod_Potential_Energy-OPLS-2005>
-155.936798095703

> <r_mmod_Stretch_Energy-OPLS-2005>
65.7013092041016

> <r_mmod_Bend_Energy-OPLS-2005>
177.227981567383

> <r_mmod_Torsional_Energy-OPLS-2005>
315.717407226562

> <r_mmod_Improper_Torsional_Energy-OPLS-2005>
6.97330141067505

> <r_mmod_Van_der_Waal_Energy-OPLS-2005>
168.673431396484

> <r_mmod_Electrostatic_Energy-OPLS-2005>
-685.153991699219

> <r_mmod_Solvation_Energy-OPLS-2005>
-231.174331665039

> <b_mmod_Minimization_Converged-OPLS-2005>
0

> <r_mmod_RMS_Derivative-OPLS-2005>
13.3115119934082

$$$$
51
                    3D
 Structure written by MMmdl.
158166  0  0  1  0            999 V2000
  -30.6971  -14.4476   20.5409 C   0  0  0  0  0  0
  -30.4237  -12.2740   19.4344 C   0  0  0  0  0  0
  -29.5016  -12.4808   18.2140 C   0  0  0  0  0  0
  -28.0184  -12.3642   18.6192 C   0  0  0  0  0  0
  -27.6657  -13.2021   19.8775 C   0  0  2  0  0  0
  -28.7046  -12.9754   21.0014 C   0  0  0  0  0  0
  -25.2609  -13.8154   20.5677 C   0  0  0  0  0  0
  -24.1850  -13.0438   20.9175 C   0  0  0  0  0  0
  -24.6394  -11.6900   20.8737 C   0  0  0  0  0  0
  -23.9053  -10.4288   21.0403 C   0  0  0  0  0  0
  -24.3604   -9.4208   21.9178 C   0  0  0  0  0  0
  -23.6284   -8.2245   22.0746 C   0  0  0  0  0  0
  -22.4268   -8.0282   21.3535 C   0  0  0  0  0  0
  -21.9897   -9.0259   20.4643 C   0  0  0  0  0  0
  -22.7224  -10.2139   20.3054 C   0  0  0  0  0  0
  -21.6856   -6.0740   22.5278 C   0  0  0  0  0  0
  -21.4022   -6.5641   23.8213 C   0  0  0  0  0  0
  -21.3656   -5.6789   24.9172 C   0  0  0  0  0  0
  -21.6046   -4.3052   24.7221 C   0  0  0  0  0  0
  -21.8819   -3.8148   23.4339 C   0  0  0  0  0  0
  -21.9192   -4.6968   22.3397 C   0  0  0  0  0  0
  -22.7871  -13.5247   21.1832 C   0  0  0  0  0  0
  -22.1657   -4.2153   21.0974 F   0  0  0  0  0  0
  -21.5621   -3.4534   25.7731 F   0  0  0  0  0  0
  -30.0416  -13.2600   20.4549 N   0  0  0  0  0  0
  -26.3043  -12.9314   20.3366 N   0  0  0  0  0  0
  -25.9323  -11.6481   20.5778 N   0  0  0  0  0  0
  -22.0502  -12.8256   22.0393 N   0  0  0  0  0  0
  -25.4345  -15.1867   20.4081 N   0  0  0  0  0  0
  -31.8414  -14.6188   20.1073 O   0  0  0  0  0  0
  -21.6634   -6.8881   21.4237 O   0  0  0  0  0  0
  -22.3565  -14.5555   20.6675 O   0  0  0  0  0  0
  -24.6103  -31.8703   23.2128 C   0  0  0  0  0  0
  -25.9009  -32.4841   23.8414 C   0  0  1  0  0  0
  -27.2427  -27.4698   20.1006 C   0  0  0  0  0  0
  -25.5877  -33.8638   24.2344 N   0  0  0  0  0  0
  -23.3979  -30.4934   21.5503 C   0  0  2  0  0  0
  -24.8489  -28.9612   20.1170 C   0  0  0  0  0  0
  -22.7393  -29.4665   22.4989 C   0  0  0  0  0  0
  -18.0268  -28.1373   22.8494 C   0  0  0  0  0  0
  -24.1485  -36.7330   23.2642 C   0  0  0  0  0  0
  -25.9214  -30.8471   21.3612 C   0  0  0  0  0  0
  -26.0030  -29.4809   20.7171 C   0  0  0  0  0  0
  -27.2032  -28.7401   20.7145 C   0  0  0  0  0  0
  -26.0812  -26.9589   19.4895 C   0  0  0  0  0  0
  -24.8800  -27.6950   19.5034 C   0  0  0  0  0  0
  -23.6074  -29.8232   20.1651 C   0  0  0  0  0  0
  -25.4105  -36.3126   24.0345 C   0  0  1  0  0  0
  -20.5854  -28.3656   23.1327 C   0  0  2  0  0  0
  -20.6754  -26.9396   22.5419 C   0  0  0  0  0  0
  -19.5733  -26.6383   21.5212 C   0  0  0  0  0  0
  -18.1914  -26.7920   22.1626 C   0  0  0  0  0  0
  -19.1519  -28.8833   23.2907 C   0  0  0  0  0  0
  -18.9446  -30.1437   23.8921 C   0  0  0  0  0  0
  -17.6450  -30.6581   24.0570 C   0  0  0  0  0  0
  -25.9025  -34.9485   23.5143 C   0  0  0  0  0  0
  -16.5341  -29.9088   23.6320 C   0  0  0  0  0  0
  -16.7258  -28.6503   23.0346 C   0  0  0  0  0  0
  -26.4458  -31.6606   25.0721 C   0  0  0  0  0  0
  -25.3739  -31.3695   26.1482 C   0  0  0  0  0  0
  -27.0283  -30.3055   24.6058 C   0  0  0  0  0  0
  -27.6050  -32.4315   25.7471 C   0  0  0  0  0  0
  -27.5580  -37.1820   24.8465 C   0  0  0  0  0  0
  -21.4123  -29.3032   22.3739 N   0  0  0  0  0  0
  -26.4295  -37.3803   23.9408 N   0  0  0  0  0  0
  -24.6610  -31.0837   22.1007 N   0  0  0  0  0  0
  -23.4184  -28.8210   23.3017 O   0  0  0  0  0  0
  -28.3912  -26.7213   20.0599 O   0  0  0  0  0  0
  -26.5590  -34.8931   22.4704 O   0  0  0  0  0  0
  -23.5305  -32.1430   23.7548 O   0  0  0  0  0  0
  -29.5211  -17.8958   18.1719 C   0  0  0  0  0  0
  -29.5218  -19.0990   18.8889 C   0  0  0  0  0  0
  -29.6764  -16.6966   18.8795 C   0  0  0  0  0  0
  -29.6725  -19.0618   20.2903 C   0  0  0  0  0  0
  -29.8412  -16.7175   20.2825 C   0  0  0  0  0  0
  -29.7012  -20.3366   21.1396 C   0  0  0  0  0  0
  -30.1025  -25.4096   21.1704 C   0  0  0  0  0  0
  -29.6943  -21.6567   20.3306 C   0  0  0  0  0  0
  -29.9033  -24.1189   20.3433 C   0  0  0  0  0  0
  -28.8371  -26.2674   21.3356 C   0  0  0  0  0  0
  -29.8115  -17.8912   20.9642 N   0  0  0  0  0  0
  -29.9514  -15.4806   20.9691 N   0  0  0  0  0  0
  -29.7874  -22.8839   21.1588 N   0  3  0  0  0  0
  -31.4712  -12.3592   19.1391 H   0  0  0  0  0  0
  -30.3099  -11.2646   19.8325 H   0  0  0  0  0  0
  -29.7340  -11.7451   17.4431 H   0  0  0  0  0  0
  -29.6894  -13.4578   17.7671 H   0  0  0  0  0  0
  -27.8145  -11.3101   18.8104 H   0  0  0  0  0  0
  -27.3765  -12.6491   17.7850 H   0  0  0  0  0  0
  -27.7132  -14.2503   19.5823 H   0  0  0  0  0  0
  -28.6678  -11.9420   21.3502 H   0  0  0  0  0  0
  -28.4750  -13.5865   21.8750 H   0  0  0  0  0  0
  -25.2755   -9.5693   22.4742 H   0  0  0  0  0  0
  -24.0000   -7.4643   22.7468 H   0  0  0  0  0  0
  -21.0826   -8.8785   19.8956 H   0  0  0  0  0  0
  -22.3683  -10.9678   19.6161 H   0  0  0  0  0  0
  -21.2024   -7.6148   23.9719 H   0  0  0  0  0  0
  -21.1472   -6.0514   25.9074 H   0  0  0  0  0  0
  -22.0599   -2.7610   23.2835 H   0  0  0  0  0  0
  -22.4105  -11.9927   22.4807 H   0  0  0  0  0  0
  -21.1119  -13.1300   22.2577 H   0  0  0  0  0  0
  -24.6681  -15.8421   20.5166 H   0  0  0  0  0  0
  -26.2837  -15.6234   20.0722 H   0  0  0  0  0  0
  -26.7087  -32.5584   23.1198 H   0  0  0  0  0  0
  -25.0023  -33.9799   25.0484 H   0  0  0  0  0  0
  -22.6850  -31.3086   21.4107 H   0  0  0  0  0  0
  -23.3738  -35.9673   23.3324 H   0  0  0  0  0  0
  -24.3575  -36.8917   22.2050 H   0  0  0  0  0  0
  -23.7245  -37.6550   23.6635 H   0  0  0  0  0  0
  -26.0224  -31.6101   20.5884 H   0  0  0  0  0  0
  -26.8135  -30.9098   21.9727 H   0  0  0  0  0  0
  -28.0953  -29.1466   21.1704 H   0  0  0  0  0  0
  -26.1069  -25.9906   19.0099 H   0  0  0  0  0  0
  -23.9940  -27.2887   19.0356 H   0  0  0  0  0  0
  -23.7149  -30.5966   19.4039 H   0  0  0  0  0  0
  -22.7337  -29.2397   19.8694 H   0  0  0  0  0  0
  -25.1280  -36.2004   25.0839 H   0  0  0  0  0  0
  -20.9947  -28.3222   24.1448 H   0  0  0  0  0  0
  -20.5653  -26.2267   23.3604 H   0  0  0  0  0  0
  -21.6628  -26.7438   22.1222 H   0  0  0  0  0  0
  -19.6893  -25.6301   21.1228 H   0  0  0  0  0  0
  -19.6675  -27.3208   20.6756 H   0  0  0  0  0  0
  -17.4184  -26.6678   21.4026 H   0  0  0  0  0  0
  -18.0315  -26.0054   22.9015 H   0  0  0  0  0  0
  -19.7924  -30.7238   24.2310 H   0  0  0  0  0  0
  -17.5010  -31.6265   24.5165 H   0  0  0  0  0  0
  -15.5346  -30.3003   23.7621 H   0  0  0  0  0  0
  -15.8658  -28.0828   22.7047 H   0  0  0  0  0  0
  -24.5905  -30.7050   25.7823 H   0  0  0  0  0  0
  -24.8944  -32.2846   26.4964 H   0  0  0  0  0  0
  -25.8110  -30.8842   27.0216 H   0  0  0  0  0  0
  -26.2807  -29.6829   24.1135 H   0  0  0  0  0  0
  -27.4095  -29.7280   25.4489 H   0  0  0  0  0  0
  -27.8624  -30.4396   23.9167 H   0  0  0  0  0  0
  -27.2681  -33.3596   26.2099 H   0  0  0  0  0  0
  -28.3833  -32.6901   25.0279 H   0  0  0  0  0  0
  -28.0753  -31.8408   26.5342 H   0  0  0  0  0  0
  -28.2618  -38.0099   24.7503 H   0  0  0  0  0  0
  -28.1055  -36.2632   24.6307 H   0  0  0  0  0  0
  -27.2296  -37.1497   25.8869 H   0  0  0  0  0  0
  -20.9275  -29.8769   21.6980 H   0  0  0  0  0  0
  -26.0194  -38.2888   24.1398 H   0  0  0  0  0  0
  -29.4045  -17.8928   17.0975 H   0  0  0  0  0  0
  -29.4058  -20.0205   18.3367 H   0  0  0  0  0  0
  -29.6660  -15.7696   18.3234 H   0  0  0  0  0  0
  -30.5927  -20.2997   21.7659 H   0  0  0  0  0  0
  -28.8440  -20.3141   21.8126 H   0  0  0  0  0  0
  -30.8520  -26.0251   20.6714 H   0  0  0  0  0  0
  -30.5253  -25.1789   22.1491 H   0  0  0  0  0  0
  -28.7827  -21.7167   19.7345 H   0  0  0  0  0  0
  -30.5334  -21.6473   19.6336 H   0  0  0  0  0  0
  -30.7667  -24.0054   19.6855 H   0  0  0  0  0  0
  -29.0388  -24.2139   19.6843 H   0  0  0  0  0  0
  -29.0649  -27.1174   21.9809 H   0  0  0  0  0  0
  -28.0496  -25.6925   21.8260 H   0  0  0  0  0  0
  -29.1475  -15.2346   21.5234 H   0  0  0  0  0  0
  -30.6006  -22.8100   21.7489 H   0  0  0  0  0  0
  -28.9755  -22.9437   21.7523 H   0  0  0  0  0  0
  1 25  1  0  0  0
  1 30  2  0  0  0
  1 82  1  0  0  0
  2  3  1  0  0  0
  2 25  1  0  0  0
  2 84  1  0  0  0
  2 85  1  0  0  0
  3  4  1  0  0  0
  3 86  1  0  0  0
  3 87  1  0  0  0
  4  5  1  0  0  0
  4 88  1  0  0  0
  4 89  1  0  0  0
  5  6  1  0  0  0
  5 26  1  0  0  0
  5 90  1  0  0  0
  6 25  1  0  0  0
  6 91  1  0  0  0
  6 92  1  0  0  0
  7  8  2  0  0  0
  7 26  1  0  0  0
  7 29  1  0  0  0
  8  9  1  0  0  0
  8 22  1  0  0  0
  9 10  1  0  0  0
  9 27  2  0  0  0
 10 11  2  0  0  0
 10 15  1  0  0  0
 11 12  1  0  0  0
 11 93  1  0  0  0
 12 13  2  0  0  0
 12 94  1  0  0  0
 13 14  1  0  0  0
 13 31  1  0  0  0
 14 15  2  0  0  0
 14 95  1  0  0  0
 15 96  1  0  0  0
 16 17  2  0  0  0
 16 21  1  0  0  0
 16 31  1  0  0  0
 17 18  1  0  0  0
 17 97  1  0  0  0
 18 19  2  0  0  0
 18 98  1  0  0  0
 19 20  1  0  0  0
 19 24  1  0  0  0
 20 21  2  0  0  0
 20 99  1  0  0  0
 21 23  1  0  0  0
 22 28  1  0  0  0
 22 32  2  0  0  0
 26 27  1  0  0  0
 28100  1  0  0  0
 28101  1  0  0  0
 29102  1  0  0  0
 29103  1  0  0  0
 33 34  1  0  0  0
 33 66  1  0  0  0
 33 70  2  0  0  0
 34 36  1  0  0  0
 34 59  1  0  0  0
 34104  1  0  0  0
 35 44  2  0  0  0
 35 45  1  0  0  0
 35 68  1  0  0  0
 36 56  1  0  0  0
 36105  1  0  0  0
 37 39  1  0  0  0
 37 47  1  0  0  0
 37 66  1  0  0  0
 37106  1  0  0  0
 38 43  2  0  0  0
 38 46  1  0  0  0
 38 47  1  0  0  0
 39 64  1  0  0  0
 39 67  2  0  0  0
 40 52  1  0  0  0
 40 53  2  0  0  0
 40 58  1  0  0  0
 41107  1  0  0  0
 41108  1  0  0  0
 41109  1  0  0  0
 41 48  1  0  0  0
 42 43  1  0  0  0
 42 66  1  0  0  0
 42110  1  0  0  0
 42111  1  0  0  0
 43 44  1  0  0  0
 44112  1  0  0  0
 45 46  2  0  0  0
 45113  1  0  0  0
 46114  1  0  0  0
 47115  1  0  0  0
 47116  1  0  0  0
 48 56  1  0  0  0
 48 65  1  0  0  0
 48117  1  0  0  0
 49 50  1  0  0  0
 49 53  1  0  0  0
 49 64  1  0  0  0
 49118  1  0  0  0
 50 51  1  0  0  0
 50119  1  0  0  0
 50120  1  0  0  0
 51 52  1  0  0  0
 51121  1  0  0  0
 51122  1  0  0  0
 52123  1  0  0  0
 52124  1  0  0  0
 53 54  1  0  0  0
 54 55  2  0  0  0
 54125  1  0  0  0
 55 57  1  0  0  0
 55126  1  0  0  0
 56 69  2  0  0  0
 57 58  2  0  0  0
 57127  1  0  0  0
 58128  1  0  0  0
 59 60  1  0  0  0
 59 61  1  0  0  0
 59 62  1  0  0  0
 60129  1  0  0  0
 60130  1  0  0  0
 60131  1  0  0  0
 61132  1  0  0  0
 61133  1  0  0  0
 61134  1  0  0  0
 62135  1  0  0  0
 62136  1  0  0  0
 62137  1  0  0  0
 63 65  1  0  0  0
 63138  1  0  0  0
 63139  1  0  0  0
 63140  1  0  0  0
 64141  1  0  0  0
 65142  1  0  0  0
 68 80  1  0  0  0
 71 72  2  0  0  0
 71 73  1  0  0  0
 71143  1  0  0  0
 72 74  1  0  0  0
 72144  1  0  0  0
 73 75  2  0  0  0
 73145  1  0  0  0
 74 76  1  0  0  0
 74 81  2  0  0  0
 75 81  1  0  0  0
 75 82  1  0  0  0
 76 78  1  0  0  0
 76146  1  0  0  0
 76147  1  0  0  0
 77 79  1  0  0  0
 77 80  1  0  0  0
 77148  1  0  0  0
 77149  1  0  0  0
 78 83  1  0  0  0
 78150  1  0  0  0
 78151  1  0  0  0
 79 83  1  0  0  0
 79152  1  0  0  0
 79153  1  0  0  0
 80154  1  0  0  0
 80155  1  0  0  0
 82156  1  0  0  0
 83157  1  0  0  0
 83158  1  0  0  0
M  CHG  1  83   1
M  ISO  4   1 100  68 101  80 101  82 100
M  END
> <chiral flag>
0

> <version>
0

> <s_m_source_file>
/data/baiqing/PycharmProjects/Reinvent-master-3.2/result/LINK_invent/BTK/process_docking_weight1_custom_sum_contain_oxygen_bond_distance_aromatic_linkinvent_7_9_3/rearranged_h_0122.sdf

> <i_m_source_file_index>
52

> <r_mmod_Potential_Energy-OPLS-2005>
-351.739440917969

> <r_mmod_Stretch_Energy-OPLS-2005>
33.221736907959

> <r_mmod_Bend_Energy-OPLS-2005>
88.6135101318359

> <r_mmod_Torsional_Energy-OPLS-2005>
274.031158447266

> <r_mmod_Improper_Torsional_Energy-OPLS-2005>
6.17575931549072

> <r_mmod_Van_der_Waal_Energy-OPLS-2005>
154.19807434082

> <r_mmod_Electrostatic_Energy-OPLS-2005>
-429.272521972656

> <r_mmod_Solvation_Energy-OPLS-2005>
-489.201873779297

> <b_mmod_Minimization_Converged-OPLS-2005>
0

> <r_mmod_RMS_Derivative-OPLS-2005>
1.17710340023041

$$$$
52
                    3D
 Structure written by MMmdl.
164173  0  0  1  0            999 V2000
  -30.7213  -14.4760   20.5940 C   0  0  0  0  0  0
  -30.4219  -12.3234   19.4143 C   0  0  0  0  0  0
  -29.4901  -12.5150   18.2006 C   0  0  0  0  0  0
  -28.0135  -12.3714   18.6171 C   0  0  0  0  0  0
  -27.6608  -13.2122   19.8732 C   0  0  2  0  0  0
  -28.7050  -13.0029   20.9910 C   0  0  0  0  0  0
  -25.2596  -13.8165   20.5726 C   0  0  0  0  0  0
  -24.1852  -13.0426   20.9184 C   0  0  0  0  0  0
  -24.6415  -11.6897   20.8724 C   0  0  0  0  0  0
  -23.9085  -10.4283   21.0392 C   0  0  0  0  0  0
  -24.3628   -9.4193   21.9171 C   0  0  0  0  0  0
  -23.6301   -8.2235   22.0750 C   0  0  0  0  0  0
  -22.4282   -8.0282   21.3540 C   0  0  0  0  0  0
  -21.9925   -9.0255   20.4633 C   0  0  0  0  0  0
  -22.7260  -10.2128   20.3043 C   0  0  0  0  0  0
  -21.6855   -6.0746   22.5284 C   0  0  0  0  0  0
  -21.4013   -6.5644   23.8215 C   0  0  0  0  0  0
  -21.3656   -5.6795   24.9177 C   0  0  0  0  0  0
  -21.6045   -4.3058   24.7225 C   0  0  0  0  0  0
  -21.8821   -3.8155   23.4346 C   0  0  0  0  0  0
  -21.9192   -4.6975   22.3407 C   0  0  0  0  0  0
  -22.7871  -13.5207   21.1845 C   0  0  0  0  0  0
  -22.1665   -4.2158   21.0984 F   0  0  0  0  0  0
  -21.5625   -3.4535   25.7732 F   0  0  0  0  0  0
  -30.0313  -13.3131   20.4317 N   0  0  0  0  0  0
  -26.3036  -12.9355   20.3380 N   0  0  0  0  0  0
  -25.9345  -11.6503   20.5752 N   0  0  0  0  0  0
  -22.0532  -12.8194   22.0407 N   0  0  0  0  0  0
  -25.4322  -15.1898   20.4226 N   0  0  0  0  0  0
  -31.8471  -14.6480   20.1226 O   0  0  0  0  0  0
  -21.6637   -6.8891   21.4246 O   0  0  0  0  0  0
  -22.3557  -14.5516   20.6696 O   0  0  0  0  0  0
  -24.6198  -31.8667   23.2111 C   0  0  0  0  0  0
  -25.9078  -32.4809   23.8418 C   0  0  1  0  0  0
  -27.2230  -27.4028   20.0904 C   0  0  0  0  0  0
  -25.5920  -33.8611   24.2338 N   0  0  0  0  0  0
  -23.4077  -30.4944   21.5528 C   0  0  2  0  0  0
  -24.8500  -28.9642   20.1129 C   0  0  0  0  0  0
  -22.7433  -29.4668   22.4978 C   0  0  0  0  0  0
  -18.0277  -28.1388   22.8499 C   0  0  0  0  0  0
  -24.1492  -36.7306   23.2645 C   0  0  0  0  0  0
  -25.9425  -30.8238   21.3690 C   0  0  0  0  0  0
  -26.0173  -29.4600   20.7077 C   0  0  0  0  0  0
  -27.2085  -28.6901   20.6879 C   0  0  0  0  0  0
  -26.0314  -26.9408   19.4810 C   0  0  0  0  0  0
  -24.8544  -27.7058   19.4954 C   0  0  0  0  0  0
  -23.6151  -29.8332   20.1664 C   0  0  0  0  0  0
  -25.4115  -36.3108   24.0347 C   0  0  1  0  0  0
  -20.5870  -28.3683   23.1308 C   0  0  2  0  0  0
  -20.6761  -26.9411   22.5413 C   0  0  0  0  0  0
  -19.5731  -26.6390   21.5217 C   0  0  0  0  0  0
  -18.1916  -26.7936   22.1634 C   0  0  0  0  0  0
  -19.1526  -28.8854   23.2900 C   0  0  0  0  0  0
  -18.9449  -30.1461   23.8907 C   0  0  0  0  0  0
  -17.6450  -30.6594   24.0573 C   0  0  0  0  0  0
  -25.9041  -34.9471   23.5137 C   0  0  0  0  0  0
  -16.5342  -29.9093   23.6334 C   0  0  0  0  0  0
  -16.7264  -28.6508   23.0359 C   0  0  0  0  0  0
  -26.4490  -31.6586   25.0747 C   0  0  0  0  0  0
  -25.3748  -31.3715   26.1492 C   0  0  0  0  0  0
  -27.0300  -30.3011   24.6154 C   0  0  0  0  0  0
  -27.6093  -32.4289   25.7493 C   0  0  0  0  0  0
  -27.5583  -37.1820   24.8482 C   0  0  0  0  0  0
  -21.4156  -29.3049   22.3713 N   0  0  0  0  0  0
  -26.4307  -37.3790   23.9409 N   0  0  0  0  0  0
  -24.6754  -31.0755   22.1022 N   0  0  0  0  0  0
  -23.4193  -28.8192   23.3017 O   0  0  0  0  0  0
  -28.3705  -26.6189   20.1257 O   0  0  0  0  0  0
  -26.5591  -34.8924   22.4688 O   0  0  0  0  0  0
  -23.5381  -32.1433   23.7483 O   0  0  0  0  0  0
  -30.6175  -19.6287   19.5472 C   0  0  0  0  0  0
  -29.2525  -18.6773   21.0278 C   0  0  0  0  0  0
  -29.3487  -19.7582   20.1826 C   0  0  0  0  0  0
  -31.2510  -18.5146   20.0281 C   0  0  0  0  0  0
  -28.3246  -24.5209   18.7706 C   0  0  0  0  0  0
  -29.1846  -24.4435   21.0698 C   0  0  0  0  0  0
  -27.9561  -23.0201   18.8453 C   0  0  0  0  0  0
  -28.8599  -22.9212   21.1551 C   0  0  0  0  0  0
  -28.1866  -25.1774   20.1551 C   0  0  1  0  0  0
  -32.6112  -17.9871   19.6940 C   0  0  0  0  0  0
  -28.2864  -20.8242   19.9151 C   0  0  0  0  0  0
  -30.6886  -16.7013   21.7530 C   0  0  0  0  0  0
  -30.4040  -17.9018   20.9454 N   0  0  0  0  0  0
  -30.0772  -15.4655   21.2389 N   0  0  0  0  0  0
  -28.7710  -22.2406   19.8266 N   0  3  1  0  0  0
  -31.4655  -12.4244   19.1100 H   0  0  0  0  0  0
  -30.3249  -11.3150   19.8187 H   0  0  0  0  0  0
  -29.7296  -11.7935   17.4182 H   0  0  0  0  0  0
  -29.6542  -13.5032   17.7675 H   0  0  0  0  0  0
  -27.8283  -11.3160   18.8157 H   0  0  0  0  0  0
  -27.3601  -12.6461   17.7877 H   0  0  0  0  0  0
  -27.7028  -14.2604   19.5754 H   0  0  0  0  0  0
  -28.6875  -11.9682   21.3349 H   0  0  0  0  0  0
  -28.4636  -13.6029   21.8694 H   0  0  0  0  0  0
  -25.2776   -9.5662   22.4738 H   0  0  0  0  0  0
  -24.0002   -7.4632   22.7479 H   0  0  0  0  0  0
  -21.0855   -8.8783   19.8936 H   0  0  0  0  0  0
  -22.3727  -10.9670   19.6154 H   0  0  0  0  0  0
  -21.2004   -7.6155   23.9721 H   0  0  0  0  0  0
  -21.1480   -6.0527   25.9081 H   0  0  0  0  0  0
  -22.0603   -2.7618   23.2846 H   0  0  0  0  0  0
  -22.4166  -11.9845   22.4775 H   0  0  0  0  0  0
  -21.1141  -13.1195   22.2613 H   0  0  0  0  0  0
  -24.6705  -15.8458   20.5565 H   0  0  0  0  0  0
  -26.2928  -15.6359   20.1302 H   0  0  0  0  0  0
  -26.7145  -32.5522   23.1183 H   0  0  0  0  0  0
  -25.0095  -33.9769   25.0500 H   0  0  0  0  0  0
  -22.6971  -31.3122   21.4159 H   0  0  0  0  0  0
  -23.3782  -35.9608   23.3270 H   0  0  0  0  0  0
  -24.3590  -36.8963   22.2066 H   0  0  0  0  0  0
  -23.7204  -37.6481   23.6689 H   0  0  0  0  0  0
  -26.0627  -31.5930   20.6042 H   0  0  0  0  0  0
  -26.8281  -30.8705   21.9919 H   0  0  0  0  0  0
  -28.1090  -29.0670   21.1541 H   0  0  0  0  0  0
  -25.9792  -25.9805   18.9928 H   0  0  0  0  0  0
  -23.9577  -27.3205   19.0305 H   0  0  0  0  0  0
  -23.7250  -30.6104   19.4095 H   0  0  0  0  0  0
  -22.7378  -29.2554   19.8694 H   0  0  0  0  0  0
  -25.1288  -36.1979   25.0841 H   0  0  0  0  0  0
  -20.9963  -28.3258   24.1430 H   0  0  0  0  0  0
  -20.5685  -26.2287   23.3610 H   0  0  0  0  0  0
  -21.6630  -26.7464   22.1192 H   0  0  0  0  0  0
  -19.6889  -25.6307   21.1236 H   0  0  0  0  0  0
  -19.6656  -27.3211   20.6757 H   0  0  0  0  0  0
  -17.4185  -26.6708   21.4038 H   0  0  0  0  0  0
  -18.0296  -26.0074   22.9019 H   0  0  0  0  0  0
  -19.7923  -30.7278   24.2274 H   0  0  0  0  0  0
  -17.5006  -31.6272   24.5175 H   0  0  0  0  0  0
  -15.5341  -30.2996   23.7655 H   0  0  0  0  0  0
  -15.8667  -28.0829   22.7070 H   0  0  0  0  0  0
  -24.5856  -30.7149   25.7813 H   0  0  0  0  0  0
  -24.9022  -32.2881   26.5030 H   0  0  0  0  0  0
  -25.8070  -30.8781   27.0201 H   0  0  0  0  0  0
  -26.2826  -29.6763   24.1241 H   0  0  0  0  0  0
  -27.4065  -29.7275   25.4635 H   0  0  0  0  0  0
  -27.8686  -30.4298   23.9305 H   0  0  0  0  0  0
  -27.2767  -33.3641   26.2019 H   0  0  0  0  0  0
  -28.3924  -32.6740   25.0302 H   0  0  0  0  0  0
  -28.0717  -31.8414   26.5437 H   0  0  0  0  0  0
  -28.2634  -38.0087   24.7493 H   0  0  0  0  0  0
  -28.1043  -36.2614   24.6362 H   0  0  0  0  0  0
  -27.2289  -37.1539   25.8885 H   0  0  0  0  0  0
  -20.9321  -29.8771   21.6932 H   0  0  0  0  0  0
  -26.0201  -38.2879   24.1385 H   0  0  0  0  0  0
  -31.0346  -20.2906   18.7996 H   0  0  0  0  0  0
  -28.4514  -18.3808   21.6929 H   0  0  0  0  0  0
  -27.6876  -25.0122   18.0365 H   0  0  0  0  0  0
  -29.3421  -24.6388   18.3971 H   0  0  0  0  0  0
  -30.2043  -24.5910   20.7124 H   0  0  0  0  0  0
  -29.1498  -24.8744   22.0705 H   0  0  0  0  0  0
  -28.0680  -22.5781   17.8545 H   0  0  0  0  0  0
  -26.8999  -22.9260   19.1043 H   0  0  0  0  0  0
  -27.9115  -22.8000   21.6807 H   0  0  0  0  0  0
  -29.6108  -22.4154   21.7639 H   0  0  0  0  0  0
  -27.2014  -24.9507   20.5677 H   0  0  0  0  0  0
  -33.1402  -18.6739   19.0332 H   0  0  0  0  0  0
  -32.5509  -17.0261   19.1845 H   0  0  0  0  0  0
  -33.2226  -17.8636   20.5881 H   0  0  0  0  0  0
  -27.4883  -20.7436   20.6545 H   0  0  0  0  0  0
  -27.8280  -20.5380   18.9671 H   0  0  0  0  0  0
  -30.3003  -16.8740   22.7568 H   0  0  0  0  0  0
  -31.7656  -16.5868   21.8766 H   0  0  0  0  0  0
  -29.1334  -15.2723   21.5350 H   0  0  0  0  0  0
  -29.7045  -22.1906   19.4485 H   0  0  0  0  0  0
  1 25  1  0  0  0
  1 30  2  0  0  0
  1 84  1  0  0  0
  2  3  1  0  0  0
  2 25  1  0  0  0
  2 86  1  0  0  0
  2 87  1  0  0  0
  3  4  1  0  0  0
  3 88  1  0  0  0
  3 89  1  0  0  0
  4  5  1  0  0  0
  4 90  1  0  0  0
  4 91  1  0  0  0
  5  6  1  0  0  0
  5 26  1  0  0  0
  5 92  1  0  0  0
  6 25  1  0  0  0
  6 93  1  0  0  0
  6 94  1  0  0  0
  7  8  2  0  0  0
  7 26  1  0  0  0
  7 29  1  0  0  0
  8  9  1  0  0  0
  8 22  1  0  0  0
  9 10  1  0  0  0
  9 27  2  0  0  0
 10 11  2  0  0  0
 10 15  1  0  0  0
 11 12  1  0  0  0
 11 95  1  0  0  0
 12 13  2  0  0  0
 12 96  1  0  0  0
 13 14  1  0  0  0
 13 31  1  0  0  0
 14 15  2  0  0  0
 14 97  1  0  0  0
 15 98  1  0  0  0
 16 17  2  0  0  0
 16 21  1  0  0  0
 16 31  1  0  0  0
 17 18  1  0  0  0
 17 99  1  0  0  0
 18 19  2  0  0  0
 18100  1  0  0  0
 19 20  1  0  0  0
 19 24  1  0  0  0
 20 21  2  0  0  0
 20101  1  0  0  0
 21 23  1  0  0  0
 22 28  1  0  0  0
 22 32  2  0  0  0
 26 27  1  0  0  0
 28102  1  0  0  0
 28103  1  0  0  0
 29104  1  0  0  0
 29105  1  0  0  0
 33 34  1  0  0  0
 33 66  1  0  0  0
 33 70  2  0  0  0
 34 36  1  0  0  0
 34 59  1  0  0  0
 34106  1  0  0  0
 35 44  2  0  0  0
 35 45  1  0  0  0
 35 68  1  0  0  0
 36 56  1  0  0  0
 36107  1  0  0  0
 37 39  1  0  0  0
 37 47  1  0  0  0
 37 66  1  0  0  0
 37108  1  0  0  0
 38 43  2  0  0  0
 38 46  1  0  0  0
 38 47  1  0  0  0
 39 64  1  0  0  0
 39 67  2  0  0  0
 40 52  1  0  0  0
 40 53  2  0  0  0
 40 58  1  0  0  0
 41109  1  0  0  0
 41110  1  0  0  0
 41111  1  0  0  0
 41 48  1  0  0  0
 42 43  1  0  0  0
 42 66  1  0  0  0
 42112  1  0  0  0
 42113  1  0  0  0
 43 44  1  0  0  0
 44114  1  0  0  0
 45 46  2  0  0  0
 45115  1  0  0  0
 46116  1  0  0  0
 47117  1  0  0  0
 47118  1  0  0  0
 48 56  1  0  0  0
 48 65  1  0  0  0
 48119  1  0  0  0
 49 50  1  0  0  0
 49 53  1  0  0  0
 49 64  1  0  0  0
 49120  1  0  0  0
 50 51  1  0  0  0
 50121  1  0  0  0
 50122  1  0  0  0
 51 52  1  0  0  0
 51123  1  0  0  0
 51124  1  0  0  0
 52125  1  0  0  0
 52126  1  0  0  0
 53 54  1  0  0  0
 54 55  2  0  0  0
 54127  1  0  0  0
 55 57  1  0  0  0
 55128  1  0  0  0
 56 69  2  0  0  0
 57 58  2  0  0  0
 57129  1  0  0  0
 58130  1  0  0  0
 59 60  1  0  0  0
 59 61  1  0  0  0
 59 62  1  0  0  0
 60131  1  0  0  0
 60132  1  0  0  0
 60133  1  0  0  0
 61134  1  0  0  0
 61135  1  0  0  0
 61136  1  0  0  0
 62137  1  0  0  0
 62138  1  0  0  0
 62139  1  0  0  0
 63 65  1  0  0  0
 63140  1  0  0  0
 63141  1  0  0  0
 63142  1  0  0  0
 64143  1  0  0  0
 65144  1  0  0  0
 68 79  1  0  0  0
 71 73  1  0  0  0
 71 74  2  0  0  0
 71145  1  0  0  0
 72 73  2  0  0  0
 72 83  1  0  0  0
 72146  1  0  0  0
 73 81  1  0  0  0
 74 80  1  0  0  0
 74 83  1  0  0  0
 75 77  1  0  0  0
 75 79  1  0  0  0
 75147  1  0  0  0
 75148  1  0  0  0
 76 78  1  0  0  0
 76 79  1  0  0  0
 76149  1  0  0  0
 76150  1  0  0  0
 77 85  1  0  0  0
 77151  1  0  0  0
 77152  1  0  0  0
 78 85  1  0  0  0
 78153  1  0  0  0
 78154  1  0  0  0
 79155  1  0  0  0
 80156  1  0  0  0
 80157  1  0  0  0
 80158  1  0  0  0
 81159  1  0  0  0
 81160  1  0  0  0
 81 85  1  0  0  0
 82 83  1  0  0  0
 82 84  1  0  0  0
 82161  1  0  0  0
 82162  1  0  0  0
 84163  1  0  0  0
 85164  1  0  0  0
M  CHG  1  85   1
M  ISO  4   1 100  68 101  79 101  84 100
M  END
> <chiral flag>
0

> <version>
0

> <s_m_source_file>
/data/baiqing/PycharmProjects/Reinvent-master-3.2/result/LINK_invent/BTK/process_docking_weight1_custom_sum_contain_oxygen_bond_distance_aromatic_linkinvent_7_9_3/rearranged_h_0122.sdf

> <i_m_source_file_index>
53

> <r_mmod_Potential_Energy-OPLS-2005>
-252.057357788086

> <r_mmod_Stretch_Energy-OPLS-2005>
42.2096290588379

> <r_mmod_Bend_Energy-OPLS-2005>
108.870178222656

> <r_mmod_Torsional_Energy-OPLS-2005>
233.757019042969

> <r_mmod_Improper_Torsional_Energy-OPLS-2005>
2.58196473121643

> <r_mmod_Van_der_Waal_Energy-OPLS-2005>
134.388198852539

> <r_mmod_Electrostatic_Energy-OPLS-2005>
-353.920379638672

> <r_mmod_Solvation_Energy-OPLS-2005>
-436.780731201172

> <b_mmod_Minimization_Converged-OPLS-2005>
0

> <r_mmod_RMS_Derivative-OPLS-2005>
1.57362139225006

$$$$
53
                    3D
 Structure written by MMmdl.
154162  0  0  1  0            999 V2000
  -30.6199  -14.6457   20.5170 C   0  0  0  0  0  0
  -30.4434  -12.4002   19.4551 C   0  0  0  0  0  0
  -29.5108  -12.5145   18.2279 C   0  0  0  0  0  0
  -28.0336  -12.3492   18.6384 C   0  0  0  0  0  0
  -27.6564  -13.2167   19.8685 C   0  0  2  0  0  0
  -28.7009  -13.0630   20.9980 C   0  0  0  0  0  0
  -25.2540  -13.8149   20.5626 C   0  0  0  0  0  0
  -24.1825  -13.0424   20.9192 C   0  0  0  0  0  0
  -24.6404  -11.6900   20.8756 C   0  0  0  0  0  0
  -23.9071  -10.4286   21.0415 C   0  0  0  0  0  0
  -24.3620   -9.4199   21.9191 C   0  0  0  0  0  0
  -23.6292   -8.2237   22.0757 C   0  0  0  0  0  0
  -22.4274   -8.0279   21.3545 C   0  0  0  0  0  0
  -21.9912   -9.0255   20.4648 C   0  0  0  0  0  0
  -22.7245  -10.2133   20.3060 C   0  0  0  0  0  0
  -21.6850   -6.0735   22.5279 C   0  0  0  0  0  0
  -21.4013   -6.5639   23.8213 C   0  0  0  0  0  0
  -21.3659   -5.6792   24.9176 C   0  0  0  0  0  0
  -21.6045   -4.3055   24.7225 C   0  0  0  0  0  0
  -21.8819   -3.8147   23.4346 C   0  0  0  0  0  0
  -21.9192   -4.6964   22.3402 C   0  0  0  0  0  0
  -22.7847  -13.5221   21.1853 C   0  0  0  0  0  0
  -22.1660   -4.2150   21.0980 F   0  0  0  0  0  0
  -21.5629   -3.4538   25.7737 F   0  0  0  0  0  0
  -30.0187  -13.4149   20.4410 N   0  0  0  0  0  0
  -26.3000  -12.9347   20.3333 N   0  0  0  0  0  0
  -25.9339  -11.6504   20.5788 N   0  0  0  0  0  0
  -22.0490  -12.8218   22.0415 N   0  0  0  0  0  0
  -25.4184  -15.1850   20.3889 N   0  0  0  0  0  0
  -31.7637  -14.8327   20.0931 O   0  0  0  0  0  0
  -21.6636   -6.8878   21.4241 O   0  0  0  0  0  0
  -22.3534  -14.5527   20.6700 O   0  0  0  0  0  0
  -24.6272  -31.8599   23.2028 C   0  0  0  0  0  0
  -25.9117  -32.4779   23.8358 C   0  0  1  0  0  0
  -27.2253  -27.3141   20.1129 C   0  0  0  0  0  0
  -25.5932  -33.8579   24.2284 N   0  0  0  0  0  0
  -23.4208  -30.4848   21.5460 C   0  0  2  0  0  0
  -24.8668  -28.9413   20.1123 C   0  0  0  0  0  0
  -22.7479  -29.4627   22.4935 C   0  0  0  0  0  0
  -18.0286  -28.1383   22.8484 C   0  0  0  0  0  0
  -24.1491  -36.7293   23.2640 C   0  0  0  0  0  0
  -25.9634  -30.7897   21.3745 C   0  0  0  0  0  0
  -26.0379  -29.4173   20.7151 C   0  0  0  0  0  0
  -27.2203  -28.6168   20.7038 C   0  0  0  0  0  0
  -26.0253  -26.8939   19.4903 C   0  0  0  0  0  0
  -24.8627  -27.6848   19.4916 C   0  0  0  0  0  0
  -23.6357  -29.8221   20.1610 C   0  0  0  0  0  0
  -25.4115  -36.3083   24.0330 C   0  0  1  0  0  0
  -20.5888  -28.3689   23.1278 C   0  0  2  0  0  0
  -20.6776  -26.9413   22.5405 C   0  0  0  0  0  0
  -19.5752  -26.6384   21.5206 C   0  0  0  0  0  0
  -18.1932  -26.7924   22.1621 C   0  0  0  0  0  0
  -19.1540  -28.8852   23.2876 C   0  0  0  0  0  0
  -18.9464  -30.1453   23.8894 C   0  0  0  0  0  0
  -17.6465  -30.6586   24.0561 C   0  0  0  0  0  0
  -25.9052  -34.9451   23.5105 C   0  0  0  0  0  0
  -16.5355  -29.9085   23.6329 C   0  0  0  0  0  0
  -16.7274  -28.6502   23.0350 C   0  0  0  0  0  0
  -26.4498  -31.6588   25.0728 C   0  0  0  0  0  0
  -25.3731  -31.3722   26.1456 C   0  0  0  0  0  0
  -27.0340  -30.3013   24.6178 C   0  0  0  0  0  0
  -27.6059  -32.4320   25.7498 C   0  0  0  0  0  0
  -27.5578  -37.1805   24.8466 C   0  0  0  0  0  0
  -21.4192  -29.3046   22.3676 N   0  0  0  0  0  0
  -26.4293  -37.3776   23.9406 N   0  0  0  0  0  0
  -24.6896  -31.0609   22.0981 N   0  0  0  0  0  0
  -23.4199  -28.8160   23.3013 O   0  0  0  0  0  0
  -28.3431  -26.4591   20.1560 O   0  0  0  0  0  0
  -26.5618  -34.8919   22.4671 O   0  0  0  0  0  0
  -23.5433  -32.1397   23.7353 O   0  0  0  0  0  0
  -28.8799  -19.3540   21.2495 C   0  0  0  0  0  0
  -30.8290  -17.8445   20.0399 C   0  0  0  0  0  0
  -28.8921  -17.9413   21.4423 C   0  0  0  0  0  0
  -29.8798  -17.1275   20.8161 C   0  0  0  0  0  0
  -29.8668  -19.9759   20.4579 C   0  0  0  0  0  0
  -27.8420  -17.3149   22.3416 C   0  0  0  0  0  0
  -29.2665  -23.9386   20.2953 C   0  0  0  0  0  0
  -28.8595  -22.3882   20.3419 C   0  0  0  0  0  0
  -28.0964  -24.9965   20.0707 C   0  0  0  0  0  0
  -30.8230  -19.2073   19.8786 N   0  0  0  0  0  0
  -29.8290  -15.6672   20.9717 N   0  0  0  0  0  0
  -29.9704  -21.3884   20.2522 N   0  0  0  0  0  0
  -31.4837  -12.5318   19.1522 H   0  0  0  0  0  0
  -30.3849  -11.4022   19.8921 H   0  0  0  0  0  0
  -29.7768  -11.7652   17.4811 H   0  0  0  0  0  0
  -29.6508  -13.4853   17.7498 H   0  0  0  0  0  0
  -27.8708  -11.2954   18.8674 H   0  0  0  0  0  0
  -27.3791  -12.5813   17.7975 H   0  0  0  0  0  0
  -27.6777  -14.2542   19.5344 H   0  0  0  0  0  0
  -28.7143  -12.0369   21.3688 H   0  0  0  0  0  0
  -28.4402  -13.6815   21.8581 H   0  0  0  0  0  0
  -25.2766   -9.5672   22.4766 H   0  0  0  0  0  0
  -23.9999   -7.4625   22.7473 H   0  0  0  0  0  0
  -21.0846   -8.8778   19.8950 H   0  0  0  0  0  0
  -22.3709  -10.9675   19.6169 H   0  0  0  0  0  0
  -21.2004   -7.6148   23.9718 H   0  0  0  0  0  0
  -21.1481   -6.0522   25.9079 H   0  0  0  0  0  0
  -22.0599   -2.7610   23.2846 H   0  0  0  0  0  0
  -22.4103  -11.9879   22.4802 H   0  0  0  0  0  0
  -21.1111  -13.1251   22.2625 H   0  0  0  0  0  0
  -24.6375  -15.8276   20.4642 H   0  0  0  0  0  0
  -26.2443  -15.6120   19.9900 H   0  0  0  0  0  0
  -26.7186  -32.5447   23.1108 H   0  0  0  0  0  0
  -25.0083  -33.9723   25.0431 H   0  0  0  0  0  0
  -22.7151  -31.3059   21.4038 H   0  0  0  0  0  0
  -23.3750  -35.9629   23.3307 H   0  0  0  0  0  0
  -24.3582  -36.8907   22.2053 H   0  0  0  0  0  0
  -23.7249  -37.6500   23.6657 H   0  0  0  0  0  0
  -26.0956  -31.5538   20.6072 H   0  0  0  0  0  0
  -26.8435  -30.8373   22.0041 H   0  0  0  0  0  0
  -28.1188  -28.9793   21.1836 H   0  0  0  0  0  0
  -25.9470  -25.9371   18.9984 H   0  0  0  0  0  0
  -23.9652  -27.3136   19.0161 H   0  0  0  0  0  0
  -23.7564  -30.5994   19.4058 H   0  0  0  0  0  0
  -22.7551  -29.2533   19.8570 H   0  0  0  0  0  0
  -25.1296  -36.1937   25.0823 H   0  0  0  0  0  0
  -20.9978  -28.3263   24.1399 H   0  0  0  0  0  0
  -20.5676  -26.2300   23.3606 H   0  0  0  0  0  0
  -21.6646  -26.7441   22.1201 H   0  0  0  0  0  0
  -19.6917  -25.6294   21.1237 H   0  0  0  0  0  0
  -19.6689  -27.3193   20.6735 H   0  0  0  0  0  0
  -17.4200  -26.6666   21.4025 H   0  0  0  0  0  0
  -18.0339  -26.0067   22.9020 H   0  0  0  0  0  0
  -19.7943  -30.7267   24.2264 H   0  0  0  0  0  0
  -17.5022  -31.6266   24.5163 H   0  0  0  0  0  0
  -15.5355  -30.2987   23.7656 H   0  0  0  0  0  0
  -15.8672  -28.0822   22.7066 H   0  0  0  0  0  0
  -24.5913  -30.7061   25.7787 H   0  0  0  0  0  0
  -24.8913  -32.2885   26.4877 H   0  0  0  0  0  0
  -25.8060  -30.8908   27.0234 H   0  0  0  0  0  0
  -26.2911  -29.6767   24.1203 H   0  0  0  0  0  0
  -27.4044  -29.7266   25.4677 H   0  0  0  0  0  0
  -27.8779  -30.4304   23.9396 H   0  0  0  0  0  0
  -27.2675  -33.3623   26.2071 H   0  0  0  0  0  0
  -28.3873  -32.6874   25.0328 H   0  0  0  0  0  0
  -28.0722  -31.8446   26.5419 H   0  0  0  0  0  0
  -28.2601  -38.0096   24.7504 H   0  0  0  0  0  0
  -28.1069  -36.2627   24.6304 H   0  0  0  0  0  0
  -27.2294  -37.1467   25.8869 H   0  0  0  0  0  0
  -20.9368  -29.8781   21.6898 H   0  0  0  0  0  0
  -26.0175  -38.2852   24.1403 H   0  0  0  0  0  0
  -28.1232  -19.9531   21.7362 H   0  0  0  0  0  0
  -31.6175  -17.3275   19.5147 H   0  0  0  0  0  0
  -27.1734  -18.0663   22.7618 H   0  0  0  0  0  0
  -28.3160  -16.7903   23.1713 H   0  0  0  0  0  0
  -27.2354  -16.6029   21.7866 H   0  0  0  0  0  0
  -29.9982  -24.0870   19.5007 H   0  0  0  0  0  0
  -29.7840  -24.1861   21.2224 H   0  0  0  0  0  0
  -28.1787  -22.1820   19.5151 H   0  0  0  0  0  0
  -28.2876  -22.2025   21.2516 H   0  0  0  0  0  0
  -27.7047  -24.7789   19.0774 H   0  0  0  0  0  0
  -27.3005  -24.7556   20.7772 H   0  0  0  0  0  0
  -28.9759  -15.3243   21.3858 H   0  0  0  0  0  0
  -30.7619  -21.6749   19.6855 H   0  0  0  0  0  0
  1 25  1  0  0  0
  1 30  2  0  0  0
  1 81  1  0  0  0
  2  3  1  0  0  0
  2 25  1  0  0  0
  2 83  1  0  0  0
  2 84  1  0  0  0
  3  4  1  0  0  0
  3 85  1  0  0  0
  3 86  1  0  0  0
  4  5  1  0  0  0
  4 87  1  0  0  0
  4 88  1  0  0  0
  5  6  1  0  0  0
  5 26  1  0  0  0
  5 89  1  0  0  0
  6 25  1  0  0  0
  6 90  1  0  0  0
  6 91  1  0  0  0
  7  8  2  0  0  0
  7 26  1  0  0  0
  7 29  1  0  0  0
  8  9  1  0  0  0
  8 22  1  0  0  0
  9 10  1  0  0  0
  9 27  2  0  0  0
 10 11  2  0  0  0
 10 15  1  0  0  0
 11 12  1  0  0  0
 11 92  1  0  0  0
 12 13  2  0  0  0
 12 93  1  0  0  0
 13 14  1  0  0  0
 13 31  1  0  0  0
 14 15  2  0  0  0
 14 94  1  0  0  0
 15 95  1  0  0  0
 16 17  2  0  0  0
 16 21  1  0  0  0
 16 31  1  0  0  0
 17 18  1  0  0  0
 17 96  1  0  0  0
 18 19  2  0  0  0
 18 97  1  0  0  0
 19 20  1  0  0  0
 19 24  1  0  0  0
 20 21  2  0  0  0
 20 98  1  0  0  0
 21 23  1  0  0  0
 22 28  1  0  0  0
 22 32  2  0  0  0
 26 27  1  0  0  0
 28 99  1  0  0  0
 28100  1  0  0  0
 29101  1  0  0  0
 29102  1  0  0  0
 33 34  1  0  0  0
 33 66  1  0  0  0
 33 70  2  0  0  0
 34 36  1  0  0  0
 34 59  1  0  0  0
 34103  1  0  0  0
 35 44  2  0  0  0
 35 45  1  0  0  0
 35 68  1  0  0  0
 36 56  1  0  0  0
 36104  1  0  0  0
 37 39  1  0  0  0
 37 47  1  0  0  0
 37 66  1  0  0  0
 37105  1  0  0  0
 38 43  2  0  0  0
 38 46  1  0  0  0
 38 47  1  0  0  0
 39 64  1  0  0  0
 39 67  2  0  0  0
 40 52  1  0  0  0
 40 53  2  0  0  0
 40 58  1  0  0  0
 41106  1  0  0  0
 41107  1  0  0  0
 41108  1  0  0  0
 41 48  1  0  0  0
 42 43  1  0  0  0
 42 66  1  0  0  0
 42109  1  0  0  0
 42110  1  0  0  0
 43 44  1  0  0  0
 44111  1  0  0  0
 45 46  2  0  0  0
 45112  1  0  0  0
 46113  1  0  0  0
 47114  1  0  0  0
 47115  1  0  0  0
 48 56  1  0  0  0
 48 65  1  0  0  0
 48116  1  0  0  0
 49 50  1  0  0  0
 49 53  1  0  0  0
 49 64  1  0  0  0
 49117  1  0  0  0
 50 51  1  0  0  0
 50118  1  0  0  0
 50119  1  0  0  0
 51 52  1  0  0  0
 51120  1  0  0  0
 51121  1  0  0  0
 52122  1  0  0  0
 52123  1  0  0  0
 53 54  1  0  0  0
 54 55  2  0  0  0
 54124  1  0  0  0
 55 57  1  0  0  0
 55125  1  0  0  0
 56 69  2  0  0  0
 57 58  2  0  0  0
 57126  1  0  0  0
 58127  1  0  0  0
 59 60  1  0  0  0
 59 61  1  0  0  0
 59 62  1  0  0  0
 60128  1  0  0  0
 60129  1  0  0  0
 60130  1  0  0  0
 61131  1  0  0  0
 61132  1  0  0  0
 61133  1  0  0  0
 62134  1  0  0  0
 62135  1  0  0  0
 62136  1  0  0  0
 63 65  1  0  0  0
 63137  1  0  0  0
 63138  1  0  0  0
 63139  1  0  0  0
 64140  1  0  0  0
 65141  1  0  0  0
 68 79  1  0  0  0
 71 73  2  0  0  0
 71 75  1  0  0  0
 71142  1  0  0  0
 72 74  2  0  0  0
 72 80  1  0  0  0
 72143  1  0  0  0
 73 74  1  0  0  0
 73 76  1  0  0  0
 74 81  1  0  0  0
 75 80  2  0  0  0
 75 82  1  0  0  0
 76144  1  0  0  0
 76145  1  0  0  0
 76146  1  0  0  0
 77 78  1  0  0  0
 77 79  1  0  0  0
 77147  1  0  0  0
 77148  1  0  0  0
 78 82  1  0  0  0
 78149  1  0  0  0
 78150  1  0  0  0
 79151  1  0  0  0
 79152  1  0  0  0
 81153  1  0  0  0
 82154  1  0  0  0
M  ISO  4   1 100  68 101  79 101  81 100
M  END
> <chiral flag>
0

> <version>
0

> <s_m_source_file>
/data/baiqing/PycharmProjects/Reinvent-master-3.2/result/LINK_invent/BTK/process_docking_weight1_custom_sum_contain_oxygen_bond_distance_aromatic_linkinvent_7_9_3/rearranged_h_0122.sdf

> <i_m_source_file_index>
54

> <r_mmod_Potential_Energy-OPLS-2005>
-208.855987548828

> <r_mmod_Stretch_Energy-OPLS-2005>
79.5417861938477

> <r_mmod_Bend_Energy-OPLS-2005>
147.021072387695

> <r_mmod_Torsional_Energy-OPLS-2005>
204.347991943359

> <r_mmod_Improper_Torsional_Energy-OPLS-2005>
5.04954147338867

> <r_mmod_Van_der_Waal_Energy-OPLS-2005>
146.926971435547

> <r_mmod_Electrostatic_Energy-OPLS-2005>
-606.768493652344

> <r_mmod_Solvation_Energy-OPLS-2005>
-235.02619934082

> <b_mmod_Minimization_Converged-OPLS-2005>
0

> <r_mmod_RMS_Derivative-OPLS-2005>
0.275648534297943

$$$$
54
                    3D
 Structure written by MMmdl.
155163  0  0  1  0            999 V2000
  -30.7586  -14.5370   20.5975 C   0  0  0  0  0  0
  -30.4141  -12.3640   19.4610 C   0  0  0  0  0  0
  -29.5043  -12.5460   18.2298 C   0  0  0  0  0  0
  -28.0292  -12.3839   18.6301 C   0  0  0  0  0  0
  -27.6594  -13.2333   19.8751 C   0  0  2  0  0  0
  -28.7000  -13.0976   21.0109 C   0  0  0  0  0  0
  -25.2576  -13.8182   20.5701 C   0  0  0  0  0  0
  -24.1860  -13.0395   20.9179 C   0  0  0  0  0  0
  -24.6469  -11.6891   20.8747 C   0  0  0  0  0  0
  -23.9125  -10.4255   21.0390 C   0  0  0  0  0  0
  -24.3691   -9.4136   21.9135 C   0  0  0  0  0  0
  -23.6339   -8.2178   22.0691 C   0  0  0  0  0  0
  -22.4296   -8.0250   21.3520 C   0  0  0  0  0  0
  -21.9931   -9.0244   20.4659 C   0  0  0  0  0  0
  -22.7280  -10.2116   20.3050 C   0  0  0  0  0  0
  -21.6811   -6.0744   22.5295 C   0  0  0  0  0  0
  -21.3992   -6.5648   23.8228 C   0  0  0  0  0  0
  -21.3687   -5.6807   24.9202 C   0  0  0  0  0  0
  -21.6030   -4.3064   24.7251 C   0  0  0  0  0  0
  -21.8783   -3.8156   23.4367 C   0  0  0  0  0  0
  -21.9163   -4.6976   22.3426 C   0  0  0  0  0  0
  -22.7870  -13.5162   21.1788 C   0  0  0  0  0  0
  -22.1673   -4.2160   21.1014 F   0  0  0  0  0  0
  -21.5640   -3.4549   25.7762 F   0  0  0  0  0  0
  -30.0330  -13.3851   20.4585 N   0  0  0  0  0  0
  -26.3057  -12.9413   20.3397 N   0  0  0  0  0  0
  -25.9416  -11.6535   20.5790 N   0  0  0  0  0  0
  -22.0451  -12.8078   22.0255 N   0  0  0  0  0  0
  -25.4183  -15.1909   20.4043 N   0  0  0  0  0  0
  -31.8527  -14.6762   20.0545 O   0  0  0  0  0  0
  -21.6622   -6.8872   21.4250 O   0  0  0  0  0  0
  -22.3580  -14.5490   20.6699 O   0  0  0  0  0  0
  -24.6214  -31.8618   23.2065 C   0  0  0  0  0  0
  -25.9059  -32.4810   23.8361 C   0  0  1  0  0  0
  -27.2142  -27.3488   20.0865 C   0  0  0  0  0  0
  -25.5864  -33.8608   24.2281 N   0  0  0  0  0  0
  -23.4130  -30.4897   21.5538 C   0  0  2  0  0  0
  -24.8531  -28.9552   20.1122 C   0  0  0  0  0  0
  -22.7458  -29.4635   22.4986 C   0  0  0  0  0  0
  -18.0269  -28.1382   22.8472 C   0  0  0  0  0  0
  -24.1511  -36.7326   23.2642 C   0  0  0  0  0  0
  -25.9535  -30.8036   21.3702 C   0  0  0  0  0  0
  -26.0262  -29.4349   20.7084 C   0  0  0  0  0  0
  -27.2089  -28.6407   20.6922 C   0  0  0  0  0  0
  -26.0141  -26.9227   19.4691 C   0  0  0  0  0  0
  -24.8462  -27.7009   19.4902 C   0  0  0  0  0  0
  -23.6202  -29.8315   20.1679 C   0  0  0  0  0  0
  -25.4124  -36.3102   24.0333 C   0  0  1  0  0  0
  -20.5879  -28.3663   23.1325 C   0  0  2  0  0  0
  -20.6779  -26.9392   22.5433 C   0  0  0  0  0  0
  -19.5757  -26.6380   21.5230 C   0  0  0  0  0  0
  -18.1921  -26.7923   22.1626 C   0  0  0  0  0  0
  -19.1521  -28.8833   23.2887 C   0  0  0  0  0  0
  -18.9440  -30.1435   23.8915 C   0  0  0  0  0  0
  -17.6441  -30.6578   24.0547 C   0  0  0  0  0  0
  -25.9040  -34.9474   23.5108 C   0  0  0  0  0  0
  -16.5330  -29.9083   23.6313 C   0  0  0  0  0  0
  -16.7256  -28.6493   23.0340 C   0  0  0  0  0  0
  -26.4460  -31.6609   25.0709 C   0  0  0  0  0  0
  -25.3701  -31.3750   26.1446 C   0  0  0  0  0  0
  -27.0289  -30.3054   24.6106 C   0  0  0  0  0  0
  -27.6030  -32.4335   25.7449 C   0  0  0  0  0  0
  -27.5591  -37.1826   24.8452 C   0  0  0  0  0  0
  -21.4172  -29.3010   22.3711 N   0  0  0  0  0  0
  -26.4311  -37.3779   23.9385 N   0  0  0  0  0  0
  -24.6827  -31.0662   22.1010 N   0  0  0  0  0  0
  -23.4192  -28.8180   23.3053 O   0  0  0  0  0  0
  -28.3410  -26.5167   20.1058 O   0  0  0  0  0  0
  -26.5625  -34.8933   22.4689 O   0  0  0  0  0  0
  -23.5377  -32.1389   23.7409 O   0  0  0  0  0  0
  -30.1913  -18.4410   17.9642 C   0  0  0  0  0  0
  -30.2355  -19.7681   18.4262 C   0  0  0  0  0  0
  -29.9391  -17.4101   18.8850 C   0  0  0  0  0  0
  -30.0245  -20.0440   19.7893 C   0  0  0  0  0  0
  -29.7408  -17.7251   20.2400 C   0  0  0  0  0  0
  -30.1659  -21.5199   20.2710 C   0  0  0  0  0  0
  -29.3658  -16.5870   21.2282 C   0  0  0  0  0  0
  -29.0362  -22.5436   19.8682 C   0  0  0  0  0  0
  -29.3147  -24.0852   20.1390 C   0  0  0  0  0  0
  -28.1384  -25.0860   19.8228 C   0  0  0  0  0  0
  -29.7796  -19.0278   20.6807 N   0  0  0  0  0  0
  -30.3458  -15.4957   21.4546 N   0  0  0  0  0  0
  -31.4642  -12.4227   19.1711 H   0  0  0  0  0  0
  -30.2907  -11.3707   19.8937 H   0  0  0  0  0  0
  -29.7615  -11.8292   17.4479 H   0  0  0  0  0  0
  -29.6620  -13.5386   17.8031 H   0  0  0  0  0  0
  -27.8528  -11.3277   18.8307 H   0  0  0  0  0  0
  -27.3856  -12.6491   17.7895 H   0  0  0  0  0  0
  -27.6791  -14.2729   19.5502 H   0  0  0  0  0  0
  -28.6786  -12.0955   21.4418 H   0  0  0  0  0  0
  -28.4482  -13.7751   21.8270 H   0  0  0  0  0  0
  -25.2837   -9.5590   22.4717 H   0  0  0  0  0  0
  -24.0003   -7.4541   22.7394 H   0  0  0  0  0  0
  -21.0820   -8.8782   19.9014 H   0  0  0  0  0  0
  -22.3713  -10.9681   19.6181 H   0  0  0  0  0  0
  -21.1987   -7.6155   23.9759 H   0  0  0  0  0  0
  -21.1588   -6.0545   25.9116 H   0  0  0  0  0  0
  -22.0547   -2.7620   23.2869 H   0  0  0  0  0  0
  -22.3938  -11.9557   22.4379 H   0  0  0  0  0  0
  -21.1054  -13.1073   22.2419 H   0  0  0  0  0  0
  -24.6283  -15.8246   20.4603 H   0  0  0  0  0  0
  -26.2515  -15.6326   20.0381 H   0  0  0  0  0  0
  -26.7131  -32.5489   23.1112 H   0  0  0  0  0  0
  -24.9898  -33.9756   25.0347 H   0  0  0  0  0  0
  -22.7066  -31.3093   21.4185 H   0  0  0  0  0  0
  -23.3754  -35.9680   23.3312 H   0  0  0  0  0  0
  -24.3602  -36.8930   22.2055 H   0  0  0  0  0  0
  -23.7314  -37.6558   23.6653 H   0  0  0  0  0  0
  -26.0805  -31.5731   20.6064 H   0  0  0  0  0  0
  -26.8388  -30.8515   21.9911 H   0  0  0  0  0  0
  -28.1101  -29.0042   21.1678 H   0  0  0  0  0  0
  -25.9416  -25.9742   18.9619 H   0  0  0  0  0  0
  -23.9433  -27.3249   19.0284 H   0  0  0  0  0  0
  -23.7272  -30.6118   19.4141 H   0  0  0  0  0  0
  -22.7394  -29.2580   19.8730 H   0  0  0  0  0  0
  -25.1330  -36.1961   25.0832 H   0  0  0  0  0  0
  -20.9943  -28.3222   24.1461 H   0  0  0  0  0  0
  -20.5707  -26.2245   23.3613 H   0  0  0  0  0  0
  -21.6648  -26.7430   22.1216 H   0  0  0  0  0  0
  -19.6924  -25.6303   21.1233 H   0  0  0  0  0  0
  -19.6741  -27.3210   20.6786 H   0  0  0  0  0  0
  -17.4205  -26.6635   21.4020 H   0  0  0  0  0  0
  -18.0302  -26.0098   22.9056 H   0  0  0  0  0  0
  -19.7917  -30.7217   24.2326 H   0  0  0  0  0  0
  -17.5002  -31.6277   24.5122 H   0  0  0  0  0  0
  -15.5337  -30.2982   23.7643 H   0  0  0  0  0  0
  -15.8654  -28.0818   22.7071 H   0  0  0  0  0  0
  -24.5861  -30.7102   25.7776 H   0  0  0  0  0  0
  -24.8900  -32.2941   26.4839 H   0  0  0  0  0  0
  -25.8025  -30.8950   27.0238 H   0  0  0  0  0  0
  -26.2862  -29.6859   24.1065 H   0  0  0  0  0  0
  -27.3969  -29.7241   25.4566 H   0  0  0  0  0  0
  -27.8738  -30.4390   23.9346 H   0  0  0  0  0  0
  -27.2637  -33.3627   26.2040 H   0  0  0  0  0  0
  -28.3814  -32.6903   25.0251 H   0  0  0  0  0  0
  -28.0738  -31.8461   26.5339 H   0  0  0  0  0  0
  -28.2609  -38.0113   24.7446 H   0  0  0  0  0  0
  -28.1090  -36.2640   24.6347 H   0  0  0  0  0  0
  -27.2300  -37.1554   25.8851 H   0  0  0  0  0  0
  -20.9314  -29.8710   21.6934 H   0  0  0  0  0  0
  -26.0210  -38.2872   24.1333 H   0  0  0  0  0  0
  -30.3440  -18.2109   16.9180 H   0  0  0  0  0  0
  -30.4454  -20.5734   17.7337 H   0  0  0  0  0  0
  -29.8752  -16.3882   18.5375 H   0  0  0  0  0  0
  -31.1029  -21.8796   19.8392 H   0  0  0  0  0  0
  -30.3192  -21.5443   21.3507 H   0  0  0  0  0  0
  -28.4133  -16.1591   20.9131 H   0  0  0  0  0  0
  -29.1736  -17.0324   22.2061 H   0  0  0  0  0  0
  -28.1215  -22.2378   20.3748 H   0  0  0  0  0  0
  -28.8353  -22.4172   18.8039 H   0  0  0  0  0  0
  -30.1793  -24.4016   19.5549 H   0  0  0  0  0  0
  -29.6006  -24.2066   21.1840 H   0  0  0  0  0  0
  -27.2654  -24.7381   20.3794 H   0  0  0  0  0  0
  -27.8894  -24.9782   18.7656 H   0  0  0  0  0  0
  -31.1514  -15.9127   21.8978 H   0  0  0  0  0  0
  1 25  1  0  0  0
  1 30  2  0  0  0
  1 82  1  0  0  0
  2  3  1  0  0  0
  2 25  1  0  0  0
  2 83  1  0  0  0
  2 84  1  0  0  0
  3  4  1  0  0  0
  3 85  1  0  0  0
  3 86  1  0  0  0
  4  5  1  0  0  0
  4 87  1  0  0  0
  4 88  1  0  0  0
  5  6  1  0  0  0
  5 26  1  0  0  0
  5 89  1  0  0  0
  6 25  1  0  0  0
  6 90  1  0  0  0
  6 91  1  0  0  0
  7  8  2  0  0  0
  7 26  1  0  0  0
  7 29  1  0  0  0
  8  9  1  0  0  0
  8 22  1  0  0  0
  9 10  1  0  0  0
  9 27  2  0  0  0
 10 11  2  0  0  0
 10 15  1  0  0  0
 11 12  1  0  0  0
 11 92  1  0  0  0
 12 13  2  0  0  0
 12 93  1  0  0  0
 13 14  1  0  0  0
 13 31  1  0  0  0
 14 15  2  0  0  0
 14 94  1  0  0  0
 15 95  1  0  0  0
 16 17  2  0  0  0
 16 21  1  0  0  0
 16 31  1  0  0  0
 17 18  1  0  0  0
 17 96  1  0  0  0
 18 19  2  0  0  0
 18 97  1  0  0  0
 19 20  1  0  0  0
 19 24  1  0  0  0
 20 21  2  0  0  0
 20 98  1  0  0  0
 21 23  1  0  0  0
 22 28  1  0  0  0
 22 32  2  0  0  0
 26 27  1  0  0  0
 28 99  1  0  0  0
 28100  1  0  0  0
 29101  1  0  0  0
 29102  1  0  0  0
 33 34  1  0  0  0
 33 66  1  0  0  0
 33 70  2  0  0  0
 34 36  1  0  0  0
 34 59  1  0  0  0
 34103  1  0  0  0
 35 44  2  0  0  0
 35 45  1  0  0  0
 35 68  1  0  0  0
 36 56  1  0  0  0
 36104  1  0  0  0
 37 39  1  0  0  0
 37 47  1  0  0  0
 37 66  1  0  0  0
 37105  1  0  0  0
 38 43  2  0  0  0
 38 46  1  0  0  0
 38 47  1  0  0  0
 39 64  1  0  0  0
 39 67  2  0  0  0
 40 52  1  0  0  0
 40 53  2  0  0  0
 40 58  1  0  0  0
 41106  1  0  0  0
 41107  1  0  0  0
 41108  1  0  0  0
 41 48  1  0  0  0
 42 43  1  0  0  0
 42 66  1  0  0  0
 42109  1  0  0  0
 42110  1  0  0  0
 43 44  1  0  0  0
 44111  1  0  0  0
 45 46  2  0  0  0
 45112  1  0  0  0
 46113  1  0  0  0
 47114  1  0  0  0
 47115  1  0  0  0
 48 56  1  0  0  0
 48 65  1  0  0  0
 48116  1  0  0  0
 49 50  1  0  0  0
 49 53  1  0  0  0
 49 64  1  0  0  0
 49117  1  0  0  0
 50 51  1  0  0  0
 50118  1  0  0  0
 50119  1  0  0  0
 51 52  1  0  0  0
 51120  1  0  0  0
 51121  1  0  0  0
 52122  1  0  0  0
 52123  1  0  0  0
 53 54  1  0  0  0
 54 55  2  0  0  0
 54124  1  0  0  0
 55 57  1  0  0  0
 55125  1  0  0  0
 56 69  2  0  0  0
 57 58  2  0  0  0
 57126  1  0  0  0
 58127  1  0  0  0
 59 60  1  0  0  0
 59 61  1  0  0  0
 59 62  1  0  0  0
 60128  1  0  0  0
 60129  1  0  0  0
 60130  1  0  0  0
 61131  1  0  0  0
 61132  1  0  0  0
 61133  1  0  0  0
 62134  1  0  0  0
 62135  1  0  0  0
 62136  1  0  0  0
 63 65  1  0  0  0
 63137  1  0  0  0
 63138  1  0  0  0
 63139  1  0  0  0
 64140  1  0  0  0
 65141  1  0  0  0
 68 80  1  0  0  0
 71 72  2  0  0  0
 71 73  1  0  0  0
 71142  1  0  0  0
 72 74  1  0  0  0
 72143  1  0  0  0
 73 75  2  0  0  0
 73144  1  0  0  0
 74 76  1  0  0  0
 74 81  2  0  0  0
 75 77  1  0  0  0
 75 81  1  0  0  0
 76 78  1  0  0  0
 76145  1  0  0  0
 76146  1  0  0  0
 77 82  1  0  0  0
 77147  1  0  0  0
 77148  1  0  0  0
 78 79  1  0  0  0
 78149  1  0  0  0
 78150  1  0  0  0
 79 80  1  0  0  0
 79151  1  0  0  0
 79152  1  0  0  0
 80153  1  0  0  0
 80154  1  0  0  0
 82155  1  0  0  0
M  ISO  4   1 100  68 101  80 101  82 100
M  END
> <chiral flag>
0

> <version>
0

> <s_m_source_file>
/data/baiqing/PycharmProjects/Reinvent-master-3.2/result/LINK_invent/BTK/process_docking_weight1_custom_sum_contain_oxygen_bond_distance_aromatic_linkinvent_7_9_3/rearranged_h_0122.sdf

> <i_m_source_file_index>
55

> <r_mmod_Potential_Energy-OPLS-2005>
-232.555541992188

> <r_mmod_Stretch_Energy-OPLS-2005>
63.0168075561523

> <r_mmod_Bend_Energy-OPLS-2005>
135.115005493164

> <r_mmod_Torsional_Energy-OPLS-2005>
241.887405395508

> <r_mmod_Improper_Torsional_Energy-OPLS-2005>
8.169602394104

> <r_mmod_Van_der_Waal_Energy-OPLS-2005>
142.694351196289

> <r_mmod_Electrostatic_Energy-OPLS-2005>
-634.517883300781

> <r_mmod_Solvation_Energy-OPLS-2005>
-219.299530029297

> <b_mmod_Minimization_Converged-OPLS-2005>
0

> <r_mmod_RMS_Derivative-OPLS-2005>
4.57069730758667

$$$$
55
                    3D
 Structure written by MMmdl.
162170  0  0  1  0            999 V2000
  -30.5489  -14.8848   20.4193 C   0  0  0  0  0  0
  -30.4339  -12.5373   19.4927 C   0  0  0  0  0  0
  -29.5219  -12.5296   18.2451 C   0  0  0  0  0  0
  -28.0469  -12.3310   18.6534 C   0  0  0  0  0  0
  -27.6269  -13.2448   19.8358 C   0  0  2  0  0  0
  -28.6698  -13.2463   20.9731 C   0  0  0  0  0  0
  -25.2438  -13.8214   20.5680 C   0  0  0  0  0  0
  -24.1756  -13.0423   20.9218 C   0  0  0  0  0  0
  -24.6364  -11.6914   20.8714 C   0  0  0  0  0  0
  -23.9036  -10.4291   21.0386 C   0  0  0  0  0  0
  -24.3586   -9.4220   21.9179 C   0  0  0  0  0  0
  -23.6283   -8.2234   22.0751 C   0  0  0  0  0  0
  -22.4268   -8.0260   21.3535 C   0  0  0  0  0  0
  -21.9893   -9.0222   20.4631 C   0  0  0  0  0  0
  -22.7201  -10.2115   20.3046 C   0  0  0  0  0  0
  -21.6850   -6.0712   22.5273 C   0  0  0  0  0  0
  -21.4020   -6.5626   23.8203 C   0  0  0  0  0  0
  -21.3686   -5.6791   24.9174 C   0  0  0  0  0  0
  -21.6051   -4.3052   24.7235 C   0  0  0  0  0  0
  -21.8821   -3.8128   23.4364 C   0  0  0  0  0  0
  -21.9185   -4.6937   22.3409 C   0  0  0  0  0  0
  -22.7783  -13.5195   21.1898 C   0  0  0  0  0  0
  -22.1656   -4.2121   21.0986 F   0  0  0  0  0  0
  -21.5646   -3.4543   25.7757 F   0  0  0  0  0  0
  -29.9524  -13.6341   20.3718 N   0  0  0  0  0  0
  -26.2851  -12.9433   20.3200 N   0  0  0  0  0  0
  -25.9299  -11.6563   20.5718 N   0  0  0  0  0  0
  -22.0432  -12.8183   22.0468 N   0  0  0  0  0  0
  -25.4061  -15.1946   20.4112 N   0  0  0  0  0  0
  -31.7616  -14.9684   20.2035 O   0  0  0  0  0  0
  -21.6650   -6.8837   21.4225 O   0  0  0  0  0  0
  -22.3459  -14.5491   20.6771 O   0  0  0  0  0  0
  -24.6430  -31.8456   23.1929 C   0  0  0  0  0  0
  -25.9227  -32.4679   23.8314 C   0  0  1  0  0  0
  -27.2162  -27.1703   20.1409 C   0  0  0  0  0  0
  -25.5992  -33.8482   24.2226 N   0  0  0  0  0  0
  -23.4439  -30.4701   21.5341 C   0  0  2  0  0  0
  -24.8957  -28.9023   20.1095 C   0  0  0  0  0  0
  -22.7537  -29.4571   22.4817 C   0  0  0  0  0  0
  -18.0304  -28.1416   22.8458 C   0  0  0  0  0  0
  -24.1466  -36.7213   23.2650 C   0  0  0  0  0  0
  -26.0024  -30.7227   21.3959 C   0  0  0  0  0  0
  -26.0718  -29.3404   20.7323 C   0  0  0  0  0  0
  -27.2375  -28.4908   20.7330 C   0  0  0  0  0  0
  -26.0203  -26.8269   19.4755 C   0  0  0  0  0  0
  -24.8802  -27.6557   19.4677 C   0  0  0  0  0  0
  -23.6701  -29.8026   20.1524 C   0  0  0  0  0  0
  -25.4108  -36.3006   24.0324 C   0  0  1  0  0  0
  -20.5916  -28.3742   23.1207 C   0  0  2  0  0  0
  -20.6779  -26.9431   22.5395 C   0  0  0  0  0  0
  -19.5755  -26.6398   21.5197 C   0  0  0  0  0  0
  -18.1938  -26.7952   22.1605 C   0  0  0  0  0  0
  -19.1563  -28.8893   23.2827 C   0  0  0  0  0  0
  -18.9483  -30.1487   23.8856 C   0  0  0  0  0  0
  -17.6481  -30.6600   24.0560 C   0  0  0  0  0  0
  -25.9075  -34.9385   23.5070 C   0  0  0  0  0  0
  -16.5366  -29.9096   23.6343 C   0  0  0  0  0  0
  -16.7288  -28.6517   23.0350 C   0  0  0  0  0  0
  -26.4565  -31.6554   25.0753 C   0  0  0  0  0  0
  -25.3757  -31.3747   26.1454 C   0  0  0  0  0  0
  -27.0488  -30.2947   24.6397 C   0  0  0  0  0  0
  -27.6067  -32.4374   25.7541 C   0  0  0  0  0  0
  -27.5557  -37.1763   24.8474 C   0  0  0  0  0  0
  -21.4228  -29.3061   22.3555 N   0  0  0  0  0  0
  -26.4257  -37.3735   23.9432 N   0  0  0  0  0  0
  -24.7148  -31.0341   22.0948 N   0  0  0  0  0  0
  -23.4178  -28.8086   23.2943 O   0  0  0  0  0  0
  -28.2497  -26.1756   20.1650 O   0  0  0  0  0  0
  -26.5627  -34.8883   22.4629 O   0  0  0  0  0  0
  -23.5557  -32.1341   23.7167 O   0  0  0  0  0  0
  -27.5155  -22.2138   20.8789 C   0  0  0  0  0  0
  -29.8879  -21.4801   19.8578 C   0  0  0  0  0  0
  -27.8167  -20.8043   20.7643 C   0  0  0  0  0  0
  -29.0691  -20.3514   20.2280 C   0  0  0  0  0  0
  -28.3724  -23.2736   20.4665 C   0  0  0  0  0  0
  -26.7654  -19.8156   21.2067 C   0  0  0  0  0  0
  -22.7784  -18.2788   22.9129 C   0  0  0  0  0  0
  -29.3835  -18.7799   19.8302 C   0  0  0  0  0  0
  -27.9066  -24.8214   20.8068 C   0  0  0  0  0  0
  -24.1024  -19.0222   22.7235 C   0  0  0  0  0  0
  -29.9873  -17.5615   20.7859 C   0  0  0  0  0  0
  -24.2895  -19.4743   21.2646 C   0  0  0  0  0  0
  -29.5802  -22.8419   19.9715 N   0  0  0  0  0  0
  -25.5069  -20.2442   21.0630 N   0  0  0  0  0  0
  -29.7401  -16.0374   20.5081 N   0  0  0  0  0  0
  -27.0501  -18.6864   21.6140 O   0  0  0  0  0  0
  -31.4781  -12.6720   19.2092 H   0  0  0  0  0  0
  -30.3872  -11.5789   20.0121 H   0  0  0  0  0  0
  -29.8278  -11.7462   17.5518 H   0  0  0  0  0  0
  -29.6347  -13.4746   17.7106 H   0  0  0  0  0  0
  -27.9174  -11.2852   18.9301 H   0  0  0  0  0  0
  -27.3906  -12.4979   17.7980 H   0  0  0  0  0  0
  -27.5975  -14.2539   19.4258 H   0  0  0  0  0  0
  -28.7358  -12.2715   21.4567 H   0  0  0  0  0  0
  -28.3828  -13.9565   21.7497 H   0  0  0  0  0  0
  -25.2709   -9.5735   22.4782 H   0  0  0  0  0  0
  -24.0006   -7.4636   22.7492 H   0  0  0  0  0  0
  -21.0823   -8.8694   19.8939 H   0  0  0  0  0  0
  -22.3607  -10.9639   19.6167 H   0  0  0  0  0  0
  -21.2021   -7.6141   23.9694 H   0  0  0  0  0  0
  -21.1515   -6.0533   25.9075 H   0  0  0  0  0  0
  -22.0579   -2.7596   23.2875 H   0  0  0  0  0  0
  -22.4050  -11.9845   22.4855 H   0  0  0  0  0  0
  -21.1061  -13.1211   22.2681 H   0  0  0  0  0  0
  -24.6436  -15.8435   20.5707 H   0  0  0  0  0  0
  -26.2573  -15.6507   20.1110 H   0  0  0  0  0  0
  -26.7273  -32.5285   23.1029 H   0  0  0  0  0  0
  -25.0187  -33.9606   25.0408 H   0  0  0  0  0  0
  -22.7459  -31.2965   21.3812 H   0  0  0  0  0  0
  -23.3747  -35.9527   23.3313 H   0  0  0  0  0  0
  -24.3539  -36.8838   22.2063 H   0  0  0  0  0  0
  -23.7194  -37.6394   23.6686 H   0  0  0  0  0  0
  -26.1786  -31.4800   20.6306 H   0  0  0  0  0  0
  -26.8646  -30.7558   22.0516 H   0  0  0  0  0  0
  -28.1324  -28.8179   21.2432 H   0  0  0  0  0  0
  -25.9486  -25.8733   18.9715 H   0  0  0  0  0  0
  -23.9834  -27.3183   18.9658 H   0  0  0  0  0  0
  -23.8051  -30.5799   19.3992 H   0  0  0  0  0  0
  -22.7849  -29.2449   19.8400 H   0  0  0  0  0  0
  -25.1291  -36.1829   25.0815 H   0  0  0  0  0  0
  -21.0038  -28.3359   24.1317 H   0  0  0  0  0  0
  -20.5680  -26.2340   23.3616 H   0  0  0  0  0  0
  -21.6644  -26.7429   22.1187 H   0  0  0  0  0  0
  -19.6916  -25.6310   21.1220 H   0  0  0  0  0  0
  -19.6716  -27.3208   20.6731 H   0  0  0  0  0  0
  -17.4208  -26.6694   21.4007 H   0  0  0  0  0  0
  -18.0341  -26.0112   22.9023 H   0  0  0  0  0  0
  -19.7965  -30.7320   24.2178 H   0  0  0  0  0  0
  -17.5044  -31.6274   24.5182 H   0  0  0  0  0  0
  -15.5365  -30.2998   23.7707 H   0  0  0  0  0  0
  -15.8674  -28.0842   22.7086 H   0  0  0  0  0  0
  -24.5912  -30.7122   25.7783 H   0  0  0  0  0  0
  -24.8991  -32.2934   26.4878 H   0  0  0  0  0  0
  -25.8056  -30.8914   27.0235 H   0  0  0  0  0  0
  -26.3159  -29.6600   24.1398 H   0  0  0  0  0  0
  -27.4066  -29.7318   25.5033 H   0  0  0  0  0  0
  -27.9068  -30.4174   23.9781 H   0  0  0  0  0  0
  -27.2609  -33.3682   26.2060 H   0  0  0  0  0  0
  -28.3903  -32.6937   25.0394 H   0  0  0  0  0  0
  -28.0715  -31.8558   26.5512 H   0  0  0  0  0  0
  -28.2567  -38.0066   24.7528 H   0  0  0  0  0  0
  -28.1045  -36.2592   24.6289 H   0  0  0  0  0  0
  -27.2269  -37.1406   25.8873 H   0  0  0  0  0  0
  -20.9424  -29.8758   21.6728 H   0  0  0  0  0  0
  -26.0105  -38.2783   24.1486 H   0  0  0  0  0  0
  -26.5780  -22.5125   21.3269 H   0  0  0  0  0  0
  -30.8475  -21.2794   19.4026 H   0  0  0  0  0  0
  -22.6601  -17.9506   23.9462 H   0  0  0  0  0  0
  -22.7301  -17.3972   22.2721 H   0  0  0  0  0  0
  -21.9297  -18.9176   22.6660 H   0  0  0  0  0  0
  -28.4532  -18.3997   19.4062 H   0  0  0  0  0  0
  -30.0409  -18.8280   18.9602 H   0  0  0  0  0  0
  -28.1776  -24.9503   21.8547 H   0  0  0  0  0  0
  -26.8199  -24.7568   20.8411 H   0  0  0  0  0  0
  -24.9161  -18.3591   23.0210 H   0  0  0  0  0  0
  -24.1440  -19.8805   23.3949 H   0  0  0  0  0  0
  -29.5585  -17.7128   21.7783 H   0  0  0  0  0  0
  -31.0579  -17.7209   20.9260 H   0  0  0  0  0  0
  -23.4498  -20.1025   20.9626 H   0  0  0  0  0  0
  -24.2915  -18.6158   20.5906 H   0  0  0  0  0  0
  -25.4108  -21.1907   20.7195 H   0  0  0  0  0  0
  -28.7588  -15.8041   20.5177 H   0  0  0  0  0  0
  1 25  1  0  0  0
  1 30  2  0  0  0
  1 85  1  0  0  0
  2  3  1  0  0  0
  2 25  1  0  0  0
  2 87  1  0  0  0
  2 88  1  0  0  0
  3  4  1  0  0  0
  3 89  1  0  0  0
  3 90  1  0  0  0
  4  5  1  0  0  0
  4 91  1  0  0  0
  4 92  1  0  0  0
  5  6  1  0  0  0
  5 26  1  0  0  0
  5 93  1  0  0  0
  6 25  1  0  0  0
  6 94  1  0  0  0
  6 95  1  0  0  0
  7  8  2  0  0  0
  7 26  1  0  0  0
  7 29  1  0  0  0
  8  9  1  0  0  0
  8 22  1  0  0  0
  9 10  1  0  0  0
  9 27  2  0  0  0
 10 11  2  0  0  0
 10 15  1  0  0  0
 11 12  1  0  0  0
 11 96  1  0  0  0
 12 13  2  0  0  0
 12 97  1  0  0  0
 13 14  1  0  0  0
 13 31  1  0  0  0
 14 15  2  0  0  0
 14 98  1  0  0  0
 15 99  1  0  0  0
 16 17  2  0  0  0
 16 21  1  0  0  0
 16 31  1  0  0  0
 17 18  1  0  0  0
 17100  1  0  0  0
 18 19  2  0  0  0
 18101  1  0  0  0
 19 20  1  0  0  0
 19 24  1  0  0  0
 20 21  2  0  0  0
 20102  1  0  0  0
 21 23  1  0  0  0
 22 28  1  0  0  0
 22 32  2  0  0  0
 26 27  1  0  0  0
 28103  1  0  0  0
 28104  1  0  0  0
 29105  1  0  0  0
 29106  1  0  0  0
 33 34  1  0  0  0
 33 66  1  0  0  0
 33 70  2  0  0  0
 34 36  1  0  0  0
 34 59  1  0  0  0
 34107  1  0  0  0
 35 44  2  0  0  0
 35 45  1  0  0  0
 35 68  1  0  0  0
 36 56  1  0  0  0
 36108  1  0  0  0
 37 39  1  0  0  0
 37 47  1  0  0  0
 37 66  1  0  0  0
 37109  1  0  0  0
 38 43  2  0  0  0
 38 46  1  0  0  0
 38 47  1  0  0  0
 39 64  1  0  0  0
 39 67  2  0  0  0
 40 52  1  0  0  0
 40 53  2  0  0  0
 40 58  1  0  0  0
 41110  1  0  0  0
 41111  1  0  0  0
 41112  1  0  0  0
 41 48  1  0  0  0
 42 43  1  0  0  0
 42 66  1  0  0  0
 42113  1  0  0  0
 42114  1  0  0  0
 43 44  1  0  0  0
 44115  1  0  0  0
 45 46  2  0  0  0
 45116  1  0  0  0
 46117  1  0  0  0
 47118  1  0  0  0
 47119  1  0  0  0
 48 56  1  0  0  0
 48 65  1  0  0  0
 48120  1  0  0  0
 49 50  1  0  0  0
 49 53  1  0  0  0
 49 64  1  0  0  0
 49121  1  0  0  0
 50 51  1  0  0  0
 50122  1  0  0  0
 50123  1  0  0  0
 51 52  1  0  0  0
 51124  1  0  0  0
 51125  1  0  0  0
 52126  1  0  0  0
 52127  1  0  0  0
 53 54  1  0  0  0
 54 55  2  0  0  0
 54128  1  0  0  0
 55 57  1  0  0  0
 55129  1  0  0  0
 56 69  2  0  0  0
 57 58  2  0  0  0
 57130  1  0  0  0
 58131  1  0  0  0
 59 60  1  0  0  0
 59 61  1  0  0  0
 59 62  1  0  0  0
 60132  1  0  0  0
 60133  1  0  0  0
 60134  1  0  0  0
 61135  1  0  0  0
 61136  1  0  0  0
 61137  1  0  0  0
 62138  1  0  0  0
 62139  1  0  0  0
 62140  1  0  0  0
 63 65  1  0  0  0
 63141  1  0  0  0
 63142  1  0  0  0
 63143  1  0  0  0
 64144  1  0  0  0
 65145  1  0  0  0
 68 79  1  0  0  0
 71 73  2  0  0  0
 71 75  1  0  0  0
 71146  1  0  0  0
 72 74  2  0  0  0
 72 83  1  0  0  0
 72147  1  0  0  0
 73 74  1  0  0  0
 73 76  1  0  0  0
 74 78  1  0  0  0
 75 79  1  0  0  0
 75 83  2  0  0  0
 76 84  1  0  0  0
 76 86  2  0  0  0
 77 80  1  0  0  0
 77148  1  0  0  0
 77149  1  0  0  0
 77150  1  0  0  0
 78 81  1  0  0  0
 78151  1  0  0  0
 78152  1  0  0  0
 79153  1  0  0  0
 79154  1  0  0  0
 80 82  1  0  0  0
 80155  1  0  0  0
 80156  1  0  0  0
 81 85  1  0  0  0
 81157  1  0  0  0
 81158  1  0  0  0
 82 84  1  0  0  0
 82159  1  0  0  0
 82160  1  0  0  0
 84161  1  0  0  0
 85162  1  0  0  0
M  ISO  4   1 100  68 101  79 101  85 100
M  END
> <chiral flag>
0

> <version>
0

> <s_m_source_file>
/data/baiqing/PycharmProjects/Reinvent-master-3.2/result/LINK_invent/BTK/process_docking_weight1_custom_sum_contain_oxygen_bond_distance_aromatic_linkinvent_7_9_3/rearranged_h_0122.sdf

> <i_m_source_file_index>
56

> <r_mmod_Potential_Energy-OPLS-2005>
195.995346069336

> <r_mmod_Stretch_Energy-OPLS-2005>
203.905609130859

> <r_mmod_Bend_Energy-OPLS-2005>
266.743286132812

> <r_mmod_Torsional_Energy-OPLS-2005>
245.662368774414

> <r_mmod_Improper_Torsional_Energy-OPLS-2005>
6.84434843063354

> <r_mmod_Van_der_Waal_Energy-OPLS-2005>
138.423049926758

> <r_mmod_Electrostatic_Energy-OPLS-2005>
-581.960144042969

> <r_mmod_Solvation_Energy-OPLS-2005>
-247.07551574707

> <b_mmod_Minimization_Converged-OPLS-2005>
0

> <r_mmod_RMS_Derivative-OPLS-2005>
3.27039909362793

$$$$
56
                    3D
 Structure written by MMmdl.
150158  0  0  1  0            999 V2000
  -30.5957  -14.7688   20.4595 C   0  0  0  0  0  0
  -30.4335  -12.4737   19.4656 C   0  0  0  0  0  0
  -29.5050  -12.5049   18.2310 C   0  0  0  0  0  0
  -28.0340  -12.3219   18.6526 C   0  0  0  0  0  0
  -27.6377  -13.2305   19.8461 C   0  0  2  0  0  0
  -28.6843  -13.1729   20.9791 C   0  0  0  0  0  0
  -25.2490  -13.8193   20.5703 C   0  0  0  0  0  0
  -24.1788  -13.0431   20.9229 C   0  0  0  0  0  0
  -24.6385  -11.6913   20.8764 C   0  0  0  0  0  0
  -23.9070  -10.4287   21.0417 C   0  0  0  0  0  0
  -24.3620   -9.4202   21.9194 C   0  0  0  0  0  0
  -23.6296   -8.2238   22.0756 C   0  0  0  0  0  0
  -22.4280   -8.0279   21.3545 C   0  0  0  0  0  0
  -21.9914   -9.0253   20.4650 C   0  0  0  0  0  0
  -22.7244  -10.2133   20.3062 C   0  0  0  0  0  0
  -21.6853   -6.0737   22.5286 C   0  0  0  0  0  0
  -21.4013   -6.5641   23.8220 C   0  0  0  0  0  0
  -21.3660   -5.6792   24.9180 C   0  0  0  0  0  0
  -21.6041   -4.3054   24.7229 C   0  0  0  0  0  0
  -21.8818   -3.8149   23.4349 C   0  0  0  0  0  0
  -21.9192   -4.6965   22.3408 C   0  0  0  0  0  0
  -22.7812  -13.5210   21.1900 C   0  0  0  0  0  0
  -22.1660   -4.2149   21.0986 F   0  0  0  0  0  0
  -21.5628   -3.4541   25.7744 F   0  0  0  0  0  0
  -29.9784  -13.5381   20.3903 N   0  0  0  0  0  0
  -26.2914  -12.9399   20.3273 N   0  0  0  0  0  0
  -25.9311  -11.6543   20.5754 N   0  0  0  0  0  0
  -22.0464  -12.8184   22.0451 N   0  0  0  0  0  0
  -25.4156  -15.1918   20.4116 N   0  0  0  0  0  0
  -31.7907  -14.8687   20.1691 O   0  0  0  0  0  0
  -21.6640   -6.8877   21.4246 O   0  0  0  0  0  0
  -22.3494  -14.5521   20.6761 O   0  0  0  0  0  0
  -24.6317  -31.8535   23.1954 C   0  0  0  0  0  0
  -25.9137  -32.4749   23.8314 C   0  0  1  0  0  0
  -27.2231  -27.2487   20.1437 C   0  0  0  0  0  0
  -25.5929  -33.8553   24.2241 N   0  0  0  0  0  0
  -23.4306  -30.4737   21.5384 C   0  0  2  0  0  0
  -24.8808  -28.9135   20.1140 C   0  0  0  0  0  0
  -22.7512  -29.4590   22.4900 C   0  0  0  0  0  0
  -18.0288  -28.1395   22.8478 C   0  0  0  0  0  0
  -24.1490  -36.7280   23.2642 C   0  0  0  0  0  0
  -25.9770  -30.7633   21.3767 C   0  0  0  0  0  0
  -26.0526  -29.3825   20.7234 C   0  0  0  0  0  0
  -27.2294  -28.5644   20.7225 C   0  0  0  0  0  0
  -26.0324  -26.8484   19.5033 C   0  0  0  0  0  0
  -24.8765  -27.6550   19.4915 C   0  0  0  0  0  0
  -23.6518  -29.8021   20.1570 C   0  0  0  0  0  0
  -25.4115  -36.3067   24.0329 C   0  0  1  0  0  0
  -20.5892  -28.3705   23.1263 C   0  0  2  0  0  0
  -20.6775  -26.9420   22.5408 C   0  0  0  0  0  0
  -19.5753  -26.6383   21.5214 C   0  0  0  0  0  0
  -18.1930  -26.7935   22.1617 C   0  0  0  0  0  0
  -19.1541  -28.8865   23.2866 C   0  0  0  0  0  0
  -18.9465  -30.1466   23.8886 C   0  0  0  0  0  0
  -17.6465  -30.6596   24.0563 C   0  0  0  0  0  0
  -25.9056  -34.9438   23.5089 C   0  0  0  0  0  0
  -16.5355  -29.9090   23.6341 C   0  0  0  0  0  0
  -16.7274  -28.6510   23.0354 C   0  0  0  0  0  0
  -26.4496  -31.6585   25.0711 C   0  0  0  0  0  0
  -25.3713  -31.3738   26.1432 C   0  0  0  0  0  0
  -27.0354  -30.3001   24.6212 C   0  0  0  0  0  0
  -27.6046  -32.4338   25.7479 C   0  0  0  0  0  0
  -27.5580  -37.1793   24.8463 C   0  0  0  0  0  0
  -21.4210  -29.3051   22.3657 N   0  0  0  0  0  0
  -26.4284  -37.3771   23.9415 N   0  0  0  0  0  0
  -24.6990  -31.0489   22.0930 N   0  0  0  0  0  0
  -23.4208  -28.8126   23.2998 O   0  0  0  0  0  0
  -28.3075  -26.3403   20.1568 O   0  0  0  0  0  0
  -26.5631  -34.8917   22.4659 O   0  0  0  0  0  0
  -23.5461  -32.1360   23.7241 O   0  0  0  0  0  0
  -28.8252  -23.6081   18.6178 C   0  0  0  0  0  0
  -29.3218  -21.3303   18.6336 C   0  0  0  0  0  0
  -28.6263  -23.6220   20.0152 C   0  0  0  0  0  0
  -29.1500  -21.2426   20.0393 C   0  0  0  0  0  0
  -28.0831  -24.9540   20.7197 C   0  0  0  0  0  0
  -29.2724  -18.5733   20.1860 C   0  0  0  0  0  0
  -30.2040  -17.3830   20.7997 C   0  0  0  0  0  0
  -29.1701  -22.4859   17.9350 N   0  0  0  0  0  0
  -28.8003  -22.4154   20.7163 N   0  0  0  0  0  0
  -29.3718  -19.9918   20.7476 N   0  0  0  0  0  0
  -29.8136  -15.9025   20.6603 N   0  0  0  0  0  0
  -31.4710  -12.6114   19.1566 H   0  0  0  0  0  0
  -30.3922  -11.4998   19.9555 H   0  0  0  0  0  0
  -29.7894  -11.7237   17.5243 H   0  0  0  0  0  0
  -29.6211  -13.4524   17.7026 H   0  0  0  0  0  0
  -27.9027  -11.2755   18.9299 H   0  0  0  0  0  0
  -27.3700  -12.4965   17.8055 H   0  0  0  0  0  0
  -27.6272  -14.2491   19.4582 H   0  0  0  0  0  0
  -28.7287  -12.1752   21.4178 H   0  0  0  0  0  0
  -28.4158  -13.8524   21.7896 H   0  0  0  0  0  0
  -25.2765   -9.5679   22.4770 H   0  0  0  0  0  0
  -24.0014   -7.4623   22.7467 H   0  0  0  0  0  0
  -21.0853   -8.8771   19.8946 H   0  0  0  0  0  0
  -22.3712  -10.9672   19.6171 H   0  0  0  0  0  0
  -21.2006   -7.6150   23.9722 H   0  0  0  0  0  0
  -21.1481   -6.0525   25.9083 H   0  0  0  0  0  0
  -22.0593   -2.7611   23.2854 H   0  0  0  0  0  0
  -22.4094  -11.9836   22.4812 H   0  0  0  0  0  0
  -21.1083  -13.1194   22.2677 H   0  0  0  0  0  0
  -24.6432  -15.8400   20.5223 H   0  0  0  0  0  0
  -26.2536  -15.6340   20.0573 H   0  0  0  0  0  0
  -26.7194  -32.5401   23.1050 H   0  0  0  0  0  0
  -25.0081  -33.9684   25.0389 H   0  0  0  0  0  0
  -22.7280  -31.2955   21.3873 H   0  0  0  0  0  0
  -23.3758  -35.9606   23.3293 H   0  0  0  0  0  0
  -24.3579  -36.8917   22.2059 H   0  0  0  0  0  0
  -23.7233  -37.6471   23.6676 H   0  0  0  0  0  0
  -26.1165  -31.5218   20.6050 H   0  0  0  0  0  0
  -26.8533  -30.8144   22.0111 H   0  0  0  0  0  0
  -28.1279  -28.9196   21.2071 H   0  0  0  0  0  0
  -25.9861  -25.8834   19.0182 H   0  0  0  0  0  0
  -23.9808  -27.2914   19.0071 H   0  0  0  0  0  0
  -23.7774  -30.5754   19.3985 H   0  0  0  0  0  0
  -22.7716  -29.2336   19.8516 H   0  0  0  0  0  0
  -25.1292  -36.1914   25.0822 H   0  0  0  0  0  0
  -20.9974  -28.3284   24.1387 H   0  0  0  0  0  0
  -20.5673  -26.2312   23.3613 H   0  0  0  0  0  0
  -21.6644  -26.7445   22.1204 H   0  0  0  0  0  0
  -19.6914  -25.6290   21.1254 H   0  0  0  0  0  0
  -19.6697  -27.3188   20.6744 H   0  0  0  0  0  0
  -17.4201  -26.6686   21.4022 H   0  0  0  0  0  0
  -18.0327  -26.0081   22.9017 H   0  0  0  0  0  0
  -19.7944  -30.7282   24.2253 H   0  0  0  0  0  0
  -17.5022  -31.6275   24.5166 H   0  0  0  0  0  0
  -15.5356  -30.2989   23.7677 H   0  0  0  0  0  0
  -15.8672  -28.0829   22.7077 H   0  0  0  0  0  0
  -24.5896  -30.7077   25.7757 H   0  0  0  0  0  0
  -24.8890  -32.2907   26.4833 H   0  0  0  0  0  0
  -25.8025  -30.8931   27.0226 H   0  0  0  0  0  0
  -26.2944  -29.6732   24.1234 H   0  0  0  0  0  0
  -27.4033  -29.7280   25.4741 H   0  0  0  0  0  0
  -27.8822  -30.4271   23.9459 H   0  0  0  0  0  0
  -27.2655  -33.3657   26.2012 H   0  0  0  0  0  0
  -28.3869  -32.6873   25.0313 H   0  0  0  0  0  0
  -28.0692  -31.8489   26.5426 H   0  0  0  0  0  0
  -28.2586  -38.0102   24.7527 H   0  0  0  0  0  0
  -28.1087  -36.2636   24.6263 H   0  0  0  0  0  0
  -27.2301  -37.1403   25.8864 H   0  0  0  0  0  0
  -20.9398  -29.8794   21.6876 H   0  0  0  0  0  0
  -26.0166  -38.2844   24.1423 H   0  0  0  0  0  0
  -28.6793  -24.5060   18.0343 H   0  0  0  0  0  0
  -29.6099  -20.4703   18.0487 H   0  0  0  0  0  0
  -28.5157  -24.9695   21.7203 H   0  0  0  0  0  0
  -27.0186  -24.7936   20.8894 H   0  0  0  0  0  0
  -28.2316  -18.2771   20.3272 H   0  0  0  0  0  0
  -29.4148  -18.5925   19.1059 H   0  0  0  0  0  0
  -30.2839  -17.5500   21.8741 H   0  0  0  0  0  0
  -31.2178  -17.5106   20.4178 H   0  0  0  0  0  0
  -29.2514  -20.0571   21.7545 H   0  0  0  0  0  0
  -28.8361  -15.7055   20.8140 H   0  0  0  0  0  0
  1 25  1  0  0  0
  1 30  2  0  0  0
  1 81  1  0  0  0
  2  3  1  0  0  0
  2 25  1  0  0  0
  2 82  1  0  0  0
  2 83  1  0  0  0
  3  4  1  0  0  0
  3 84  1  0  0  0
  3 85  1  0  0  0
  4  5  1  0  0  0
  4 86  1  0  0  0
  4 87  1  0  0  0
  5  6  1  0  0  0
  5 26  1  0  0  0
  5 88  1  0  0  0
  6 25  1  0  0  0
  6 89  1  0  0  0
  6 90  1  0  0  0
  7  8  2  0  0  0
  7 26  1  0  0  0
  7 29  1  0  0  0
  8  9  1  0  0  0
  8 22  1  0  0  0
  9 10  1  0  0  0
  9 27  2  0  0  0
 10 11  2  0  0  0
 10 15  1  0  0  0
 11 12  1  0  0  0
 11 91  1  0  0  0
 12 13  2  0  0  0
 12 92  1  0  0  0
 13 14  1  0  0  0
 13 31  1  0  0  0
 14 15  2  0  0  0
 14 93  1  0  0  0
 15 94  1  0  0  0
 16 17  2  0  0  0
 16 21  1  0  0  0
 16 31  1  0  0  0
 17 18  1  0  0  0
 17 95  1  0  0  0
 18 19  2  0  0  0
 18 96  1  0  0  0
 19 20  1  0  0  0
 19 24  1  0  0  0
 20 21  2  0  0  0
 20 97  1  0  0  0
 21 23  1  0  0  0
 22 28  1  0  0  0
 22 32  2  0  0  0
 26 27  1  0  0  0
 28 98  1  0  0  0
 28 99  1  0  0  0
 29100  1  0  0  0
 29101  1  0  0  0
 33 34  1  0  0  0
 33 66  1  0  0  0
 33 70  2  0  0  0
 34 36  1  0  0  0
 34 59  1  0  0  0
 34102  1  0  0  0
 35 44  2  0  0  0
 35 45  1  0  0  0
 35 68  1  0  0  0
 36 56  1  0  0  0
 36103  1  0  0  0
 37 39  1  0  0  0
 37 47  1  0  0  0
 37 66  1  0  0  0
 37104  1  0  0  0
 38 43  2  0  0  0
 38 46  1  0  0  0
 38 47  1  0  0  0
 39 64  1  0  0  0
 39 67  2  0  0  0
 40 52  1  0  0  0
 40 53  2  0  0  0
 40 58  1  0  0  0
 41105  1  0  0  0
 41106  1  0  0  0
 41107  1  0  0  0
 41 48  1  0  0  0
 42 43  1  0  0  0
 42 66  1  0  0  0
 42108  1  0  0  0
 42109  1  0  0  0
 43 44  1  0  0  0
 44110  1  0  0  0
 45 46  2  0  0  0
 45111  1  0  0  0
 46112  1  0  0  0
 47113  1  0  0  0
 47114  1  0  0  0
 48 56  1  0  0  0
 48 65  1  0  0  0
 48115  1  0  0  0
 49 50  1  0  0  0
 49 53  1  0  0  0
 49 64  1  0  0  0
 49116  1  0  0  0
 50 51  1  0  0  0
 50117  1  0  0  0
 50118  1  0  0  0
 51 52  1  0  0  0
 51119  1  0  0  0
 51120  1  0  0  0
 52121  1  0  0  0
 52122  1  0  0  0
 53 54  1  0  0  0
 54 55  2  0  0  0
 54123  1  0  0  0
 55 57  1  0  0  0
 55124  1  0  0  0
 56 69  2  0  0  0
 57 58  2  0  0  0
 57125  1  0  0  0
 58126  1  0  0  0
 59 60  1  0  0  0
 59 61  1  0  0  0
 59 62  1  0  0  0
 60127  1  0  0  0
 60128  1  0  0  0
 60129  1  0  0  0
 61130  1  0  0  0
 61131  1  0  0  0
 61132  1  0  0  0
 62133  1  0  0  0
 62134  1  0  0  0
 62135  1  0  0  0
 63 65  1  0  0  0
 63136  1  0  0  0
 63137  1  0  0  0
 63138  1  0  0  0
 64139  1  0  0  0
 65140  1  0  0  0
 68 75  1  0  0  0
 71 73  2  0  0  0
 71 78  1  0  0  0
 71141  1  0  0  0
 72 74  1  0  0  0
 72 78  2  0  0  0
 72142  1  0  0  0
 73 75  1  0  0  0
 73 79  1  0  0  0
 74 79  2  0  0  0
 74 80  1  0  0  0
 75143  1  0  0  0
 75144  1  0  0  0
 76 77  1  0  0  0
 76 80  1  0  0  0
 76145  1  0  0  0
 76146  1  0  0  0
 77 81  1  0  0  0
 77147  1  0  0  0
 77148  1  0  0  0
 80149  1  0  0  0
 81150  1  0  0  0
M  ISO  4   1 100  68 101  75 101  81 100
M  END
> <chiral flag>
0

> <version>
0

> <s_m_source_file>
/data/baiqing/PycharmProjects/Reinvent-master-3.2/result/LINK_invent/BTK/process_docking_weight1_custom_sum_contain_oxygen_bond_distance_aromatic_linkinvent_7_9_3/rearranged_h_0122.sdf

> <i_m_source_file_index>
57

> <r_mmod_Potential_Energy-OPLS-2005>
174.102844238281

> <r_mmod_Stretch_Energy-OPLS-2005>
135.126937866211

> <r_mmod_Bend_Energy-OPLS-2005>
174.254760742188

> <r_mmod_Torsional_Energy-OPLS-2005>
223.380889892578

> <r_mmod_Improper_Torsional_Energy-OPLS-2005>
5.9766001701355

> <r_mmod_Van_der_Waal_Energy-OPLS-2005>
137.092361450195

> <r_mmod_Electrostatic_Energy-OPLS-2005>
-357.729797363281

> <r_mmod_Solvation_Energy-OPLS-2005>
-239.327514648438

> <b_mmod_Minimization_Converged-OPLS-2005>
0

> <r_mmod_RMS_Derivative-OPLS-2005>
1.01460814476013

$$$$
57
                    3D
 Structure written by MMmdl.
167176  0  0  1  0            999 V2000
  -30.7413  -14.4418   20.5648 C   0  0  0  0  0  0
  -30.4124  -12.2813   19.4362 C   0  0  0  0  0  0
  -29.4986  -12.5094   18.2157 C   0  0  0  0  0  0
  -28.0181  -12.3813   18.6204 C   0  0  0  0  0  0
  -27.6649  -13.2150   19.8802 C   0  0  2  0  0  0
  -28.7062  -13.0042   21.0065 C   0  0  0  0  0  0
  -25.2587  -13.8185   20.5698 C   0  0  0  0  0  0
  -24.1830  -13.0454   20.9171 C   0  0  0  0  0  0
  -24.6391  -11.6918   20.8721 C   0  0  0  0  0  0
  -23.9059  -10.4295   21.0380 C   0  0  0  0  0  0
  -24.3599   -9.4210   21.9166 C   0  0  0  0  0  0
  -23.6257   -8.2251   22.0756 C   0  0  0  0  0  0
  -22.4242   -8.0287   21.3561 C   0  0  0  0  0  0
  -21.9879   -9.0259   20.4660 C   0  0  0  0  0  0
  -22.7221  -10.2128   20.3046 C   0  0  0  0  0  0
  -21.6856   -6.0714   22.5266 C   0  0  0  0  0  0
  -21.4016   -6.5618   23.8196 C   0  0  0  0  0  0
  -21.3667   -5.6774   24.9161 C   0  0  0  0  0  0
  -21.6052   -4.3035   24.7215 C   0  0  0  0  0  0
  -21.8817   -3.8131   23.4333 C   0  0  0  0  0  0
  -21.9194   -4.6940   22.3389 C   0  0  0  0  0  0
  -22.7843  -13.5256   21.1811 C   0  0  0  0  0  0
  -22.1661   -4.2129   21.0970 F   0  0  0  0  0  0
  -21.5631   -3.4531   25.7728 F   0  0  0  0  0  0
  -30.0451  -13.2773   20.4564 N   0  0  0  0  0  0
  -26.3036  -12.9370   20.3389 N   0  0  0  0  0  0
  -25.9327  -11.6527   20.5757 N   0  0  0  0  0  0
  -22.0470  -12.8276   22.0368 N   0  0  0  0  0  0
  -25.4312  -15.1901   20.4115 N   0  0  0  0  0  0
  -31.8622  -14.5940   20.0732 O   0  0  0  0  0  0
  -21.6635   -6.8858   21.4229 O   0  0  0  0  0  0
  -22.3534  -14.5559   20.6644 O   0  0  0  0  0  0
  -24.6138  -31.8693   23.2125 C   0  0  0  0  0  0
  -25.9032  -32.4834   23.8413 C   0  0  1  0  0  0
  -27.2407  -27.4439   20.0833 C   0  0  0  0  0  0
  -25.5881  -33.8632   24.2336 N   0  0  0  0  0  0
  -23.4027  -30.4914   21.5548 C   0  0  2  0  0  0
  -24.8497  -28.9641   20.1128 C   0  0  0  0  0  0
  -22.7410  -29.4645   22.5026 C   0  0  0  0  0  0
  -18.0265  -28.1372   22.8496 C   0  0  0  0  0  0
  -24.1480  -36.7319   23.2644 C   0  0  0  0  0  0
  -25.9319  -30.8335   21.3682 C   0  0  0  0  0  0
  -26.0091  -29.4708   20.7112 C   0  0  0  0  0  0
  -27.2059  -28.7178   20.6945 C   0  0  0  0  0  0
  -26.0595  -26.9610   19.4671 C   0  0  0  0  0  0
  -24.8698  -27.7078   19.4869 C   0  0  0  0  0  0
  -23.6100  -29.8270   20.1679 C   0  0  0  0  0  0
  -25.4103  -36.3124   24.0347 C   0  0  1  0  0  0
  -20.5854  -28.3649   23.1337 C   0  0  2  0  0  0
  -20.6753  -26.9388   22.5434 C   0  0  0  0  0  0
  -19.5738  -26.6383   21.5222 C   0  0  0  0  0  0
  -18.1912  -26.7923   22.1620 C   0  0  0  0  0  0
  -19.1516  -28.8830   23.2912 C   0  0  0  0  0  0
  -18.9443  -30.1436   23.8924 C   0  0  0  0  0  0
  -17.6447  -30.6577   24.0569 C   0  0  0  0  0  0
  -25.9028  -34.9489   23.5140 C   0  0  0  0  0  0
  -16.5338  -29.9087   23.6322 C   0  0  0  0  0  0
  -16.7256  -28.6498   23.0346 C   0  0  0  0  0  0
  -26.4462  -31.6611   25.0740 C   0  0  0  0  0  0
  -25.3734  -31.3726   26.1496 C   0  0  0  0  0  0
  -27.0278  -30.3047   24.6113 C   0  0  0  0  0  0
  -27.6041  -32.4338   25.7488 C   0  0  0  0  0  0
  -27.5581  -37.1816   24.8461 C   0  0  0  0  0  0
  -21.4140  -29.3016   22.3752 N   0  0  0  0  0  0
  -26.4293  -37.3803   23.9407 N   0  0  0  0  0  0
  -24.6681  -31.0782   22.1038 N   0  0  0  0  0  0
  -23.4183  -28.8189   23.3071 O   0  0  0  0  0  0
  -28.4164  -26.7136   20.1110 O   0  0  0  0  0  0
  -26.5593  -34.8937   22.4705 O   0  0  0  0  0  0
  -23.5328  -32.1446   23.7512 O   0  0  0  0  0  0
  -29.1806  -22.9719   20.2166 C   0  0  0  0  0  0
  -27.8404  -21.8856   23.4243 C   0  0  0  0  0  0
  -28.3824  -18.5246   20.2699 C   0  0  0  0  0  0
  -30.5260  -19.3268   21.4259 C   0  0  0  0  0  0
  -27.9527  -20.5351   22.7401 C   0  0  0  0  0  0
  -29.2304  -17.3783   19.6974 C   0  0  0  0  0  0
  -30.5105  -17.8437   21.8799 C   0  0  0  0  0  0
  -28.8412  -22.7722   22.6864 C   0  0  0  0  0  0
  -29.2527  -19.7471   20.6364 C   0  0  2  0  0  0
  -28.3808  -20.8606   21.2989 C   0  0  2  0  0  0
  -30.3311  -16.8915   20.6721 C   0  0  1  0  0  0
  -29.5111  -24.4765   20.3227 C   0  0  0  0  0  0
  -28.3066  -25.3096   19.8382 C   0  0  0  0  0  0
  -28.9573  -22.2236   21.3306 N   0  0  0  0  0  0
  -30.0631  -15.4931   21.0588 N   0  0  0  0  0  0
  -29.0831  -22.4963   19.0816 O   0  0  0  0  0  0
  -31.4617  -12.3403   19.1435 H   0  0  0  0  0  0
  -30.2738  -11.2737   19.8308 H   0  0  0  0  0  0
  -29.7340  -11.7944   17.4260 H   0  0  0  0  0  0
  -29.6821  -13.4997   17.7959 H   0  0  0  0  0  0
  -27.8117  -11.3268   18.8051 H   0  0  0  0  0  0
  -27.3766  -12.6746   17.7889 H   0  0  0  0  0  0
  -27.7082  -14.2623   19.5827 H   0  0  0  0  0  0
  -28.6655  -11.9777   21.3730 H   0  0  0  0  0  0
  -28.4794  -13.6307   21.8691 H   0  0  0  0  0  0
  -25.2733   -9.5692   22.4753 H   0  0  0  0  0  0
  -23.9970   -7.4650   22.7480 H   0  0  0  0  0  0
  -21.0811   -8.8783   19.8969 H   0  0  0  0  0  0
  -22.3671  -10.9666   19.6161 H   0  0  0  0  0  0
  -21.2012   -7.6121   23.9693 H   0  0  0  0  0  0
  -21.1498   -6.0502   25.9066 H   0  0  0  0  0  0
  -22.0595   -2.7588   23.2838 H   0  0  0  0  0  0
  -22.4045  -11.9934   22.4787 H   0  0  0  0  0  0
  -21.1101  -13.1355   22.2571 H   0  0  0  0  0  0
  -24.6682  -15.8486   20.5200 H   0  0  0  0  0  0
  -26.2853  -15.6267   20.0900 H   0  0  0  0  0  0
  -26.7103  -32.5541   23.1177 H   0  0  0  0  0  0
  -25.0019  -33.9801   25.0470 H   0  0  0  0  0  0
  -22.6905  -31.3077   21.4181 H   0  0  0  0  0  0
  -23.3743  -35.9652   23.3326 H   0  0  0  0  0  0
  -24.3571  -36.8913   22.2055 H   0  0  0  0  0  0
  -23.7233  -37.6536   23.6637 H   0  0  0  0  0  0
  -26.0458  -31.6018   20.6024 H   0  0  0  0  0  0
  -26.8195  -30.8855   21.9866 H   0  0  0  0  0  0
  -28.1008  -29.1062   21.1597 H   0  0  0  0  0  0
  -26.0329  -26.0101   18.9558 H   0  0  0  0  0  0
  -23.9827  -27.3149   19.0097 H   0  0  0  0  0  0
  -23.7143  -30.6038   19.4096 H   0  0  0  0  0  0
  -22.7356  -29.2435   19.8748 H   0  0  0  0  0  0
  -25.1276  -36.2008   25.0842 H   0  0  0  0  0  0
  -20.9939  -28.3214   24.1462 H   0  0  0  0  0  0
  -20.5654  -26.2256   23.3617 H   0  0  0  0  0  0
  -21.6630  -26.7434   22.1236 H   0  0  0  0  0  0
  -19.6901  -25.6303   21.1232 H   0  0  0  0  0  0
  -19.6686  -27.3213   20.6769 H   0  0  0  0  0  0
  -17.4192  -26.6691   21.4007 H   0  0  0  0  0  0
  -18.0291  -26.0053   22.9001 H   0  0  0  0  0  0
  -19.7922  -30.7240   24.2312 H   0  0  0  0  0  0
  -17.5004  -31.6263   24.5165 H   0  0  0  0  0  0
  -15.5339  -30.2996   23.7630 H   0  0  0  0  0  0
  -15.8654  -28.0827   22.7050 H   0  0  0  0  0  0
  -24.5902  -30.7073   25.7849 H   0  0  0  0  0  0
  -24.8927  -32.2882   26.4950 H   0  0  0  0  0  0
  -25.8097  -30.8901   27.0249 H   0  0  0  0  0  0
  -26.2815  -29.6838   24.1144 H   0  0  0  0  0  0
  -27.4014  -29.7263   25.4570 H   0  0  0  0  0  0
  -27.8670  -30.4360   23.9281 H   0  0  0  0  0  0
  -27.2655  -33.3625   26.2095 H   0  0  0  0  0  0
  -28.3820  -32.6927   25.0293 H   0  0  0  0  0  0
  -28.0742  -31.8453   26.5376 H   0  0  0  0  0  0
  -28.2617  -38.0095   24.7489 H   0  0  0  0  0  0
  -28.1050  -36.2626   24.6291 H   0  0  0  0  0  0
  -27.2300  -37.1499   25.8866 H   0  0  0  0  0  0
  -20.9299  -29.8740   21.6974 H   0  0  0  0  0  0
  -26.0190  -38.2889   24.1393 H   0  0  0  0  0  0
  -28.0339  -21.8341   24.4964 H   0  0  0  0  0  0
  -26.8336  -22.2833   23.2889 H   0  0  0  0  0  0
  -27.8350  -18.1707   21.1445 H   0  0  0  0  0  0
  -27.6255  -18.8169   19.5413 H   0  0  0  0  0  0
  -31.3974  -19.4782   20.7860 H   0  0  0  0  0  0
  -30.6967  -19.9835   22.2796 H   0  0  0  0  0  0
  -27.0188  -19.9724   22.7809 H   0  0  0  0  0  0
  -28.6998  -19.9393   23.2613 H   0  0  0  0  0  0
  -29.7023  -17.7200   18.7747 H   0  0  0  0  0  0
  -28.5750  -16.5599   19.3964 H   0  0  0  0  0  0
  -29.7082  -17.6980   22.6047 H   0  0  0  0  0  0
  -31.4385  -17.6099   22.4045 H   0  0  0  0  0  0
  -29.8205  -22.7396   23.1655 H   0  0  0  0  0  0
  -28.4833  -23.8016   22.7162 H   0  0  0  0  0  0
  -29.6112  -20.1318   19.6827 H   0  0  0  0  0  0
  -27.4669  -20.9601   20.7089 H   0  0  0  0  0  0
  -31.2701  -16.9467   20.1178 H   0  0  0  0  0  0
  -30.3775  -24.6855   19.6946 H   0  0  0  0  0  0
  -29.8099  -24.7668   21.3269 H   0  0  0  0  0  0
  -27.4157  -24.9074   20.3257 H   0  0  0  0  0  0
  -28.1836  -25.1697   18.7624 H   0  0  0  0  0  0
  -29.1686  -15.2936   21.4803 H   0  0  0  0  0  0
  1 25  1  0  0  0
  1 30  2  0  0  0
  1 85  1  0  0  0
  2  3  1  0  0  0
  2 25  1  0  0  0
  2 87  1  0  0  0
  2 88  1  0  0  0
  3  4  1  0  0  0
  3 89  1  0  0  0
  3 90  1  0  0  0
  4  5  1  0  0  0
  4 91  1  0  0  0
  4 92  1  0  0  0
  5  6  1  0  0  0
  5 26  1  0  0  0
  5 93  1  0  0  0
  6 25  1  0  0  0
  6 94  1  0  0  0
  6 95  1  0  0  0
  7  8  2  0  0  0
  7 26  1  0  0  0
  7 29  1  0  0  0
  8  9  1  0  0  0
  8 22  1  0  0  0
  9 10  1  0  0  0
  9 27  2  0  0  0
 10 11  2  0  0  0
 10 15  1  0  0  0
 11 12  1  0  0  0
 11 96  1  0  0  0
 12 13  2  0  0  0
 12 97  1  0  0  0
 13 14  1  0  0  0
 13 31  1  0  0  0
 14 15  2  0  0  0
 14 98  1  0  0  0
 15 99  1  0  0  0
 16 17  2  0  0  0
 16 21  1  0  0  0
 16 31  1  0  0  0
 17 18  1  0  0  0
 17100  1  0  0  0
 18 19  2  0  0  0
 18101  1  0  0  0
 19 20  1  0  0  0
 19 24  1  0  0  0
 20 21  2  0  0  0
 20102  1  0  0  0
 21 23  1  0  0  0
 22 28  1  0  0  0
 22 32  2  0  0  0
 26 27  1  0  0  0
 28103  1  0  0  0
 28104  1  0  0  0
 29105  1  0  0  0
 29106  1  0  0  0
 33 34  1  0  0  0
 33 66  1  0  0  0
 33 70  2  0  0  0
 34 36  1  0  0  0
 34 59  1  0  0  0
 34107  1  0  0  0
 35 44  2  0  0  0
 35 45  1  0  0  0
 35 68  1  0  0  0
 36 56  1  0  0  0
 36108  1  0  0  0
 37 39  1  0  0  0
 37 47  1  0  0  0
 37 66  1  0  0  0
 37109  1  0  0  0
 38 43  2  0  0  0
 38 46  1  0  0  0
 38 47  1  0  0  0
 39 64  1  0  0  0
 39 67  2  0  0  0
 40 52  1  0  0  0
 40 53  2  0  0  0
 40 58  1  0  0  0
 41110  1  0  0  0
 41111  1  0  0  0
 41112  1  0  0  0
 41 48  1  0  0  0
 42 43  1  0  0  0
 42 66  1  0  0  0
 42113  1  0  0  0
 42114  1  0  0  0
 43 44  1  0  0  0
 44115  1  0  0  0
 45 46  2  0  0  0
 45116  1  0  0  0
 46117  1  0  0  0
 47118  1  0  0  0
 47119  1  0  0  0
 48 56  1  0  0  0
 48 65  1  0  0  0
 48120  1  0  0  0
 49 50  1  0  0  0
 49 53  1  0  0  0
 49 64  1  0  0  0
 49121  1  0  0  0
 50 51  1  0  0  0
 50122  1  0  0  0
 50123  1  0  0  0
 51 52  1  0  0  0
 51124  1  0  0  0
 51125  1  0  0  0
 52126  1  0  0  0
 52127  1  0  0  0
 53 54  1  0  0  0
 54 55  2  0  0  0
 54128  1  0  0  0
 55 57  1  0  0  0
 55129  1  0  0  0
 56 69  2  0  0  0
 57 58  2  0  0  0
 57130  1  0  0  0
 58131  1  0  0  0
 59 60  1  0  0  0
 59 61  1  0  0  0
 59 62  1  0  0  0
 60132  1  0  0  0
 60133  1  0  0  0
 60134  1  0  0  0
 61135  1  0  0  0
 61136  1  0  0  0
 61137  1  0  0  0
 62138  1  0  0  0
 62139  1  0  0  0
 62140  1  0  0  0
 63 65  1  0  0  0
 63141  1  0  0  0
 63142  1  0  0  0
 63143  1  0  0  0
 64144  1  0  0  0
 65145  1  0  0  0
 68 83  1  0  0  0
 71 82  1  0  0  0
 71 84  1  0  0  0
 71 86  2  0  0  0
 72 75  1  0  0  0
 72 78  1  0  0  0
 72146  1  0  0  0
 72147  1  0  0  0
 73 76  1  0  0  0
 73148  1  0  0  0
 73149  1  0  0  0
 73 79  1  0  0  0
 74 77  1  0  0  0
 74 79  1  0  0  0
 74150  1  0  0  0
 74151  1  0  0  0
 75152  1  0  0  0
 75153  1  0  0  0
 75 80  1  0  0  0
 76 81  1  0  0  0
 76154  1  0  0  0
 76155  1  0  0  0
 77 81  1  0  0  0
 77156  1  0  0  0
 77157  1  0  0  0
 78 84  1  0  0  0
 78158  1  0  0  0
 78159  1  0  0  0
 79 80  1  0  0  0
 79160  1  0  0  0
 80 84  1  0  0  0
 80161  1  0  0  0
 81 85  1  0  0  0
 81162  1  0  0  0
 82 83  1  0  0  0
 82163  1  0  0  0
 82164  1  0  0  0
 83165  1  0  0  0
 83166  1  0  0  0
 85167  1  0  0  0
M  ISO  4   1 100  68 101  83 101  85 100
M  END
> <chiral flag>
0

> <version>
0

> <s_m_source_file>
/data/baiqing/PycharmProjects/Reinvent-master-3.2/result/LINK_invent/BTK/process_docking_weight1_custom_sum_contain_oxygen_bond_distance_aromatic_linkinvent_7_9_3/rearranged_h_0122.sdf

> <i_m_source_file_index>
58

> <r_mmod_Potential_Energy-OPLS-2005>
79.4174346923828

> <r_mmod_Stretch_Energy-OPLS-2005>
40.3636283874512

> <r_mmod_Bend_Energy-OPLS-2005>
123.873580932617

> <r_mmod_Torsional_Energy-OPLS-2005>
339.094268798828

> <r_mmod_Improper_Torsional_Energy-OPLS-2005>
6.58181142807007

> <r_mmod_Van_der_Waal_Energy-OPLS-2005>
152.049423217773

> <r_mmod_Electrostatic_Energy-OPLS-2005>
-378.328369140625

> <r_mmod_Solvation_Energy-OPLS-2005>
-216.700881958008

> <b_mmod_Minimization_Converged-OPLS-2005>
0

> <r_mmod_RMS_Derivative-OPLS-2005>
2.17186689376831

$$$$
58
                    3D
 Structure written by MMmdl.
162171  0  0  1  0            999 V2000
  -30.5783  -14.7243   20.4725 C   0  0  0  0  0  0
  -30.4400  -12.4424   19.4525 C   0  0  0  0  0  0
  -29.5115  -12.5119   18.2193 C   0  0  0  0  0  0
  -28.0359  -12.3334   18.6342 C   0  0  0  0  0  0
  -27.6447  -13.2147   19.8504 C   0  0  2  0  0  0
  -28.6896  -13.1072   20.9806 C   0  0  0  0  0  0
  -25.2527  -13.8013   20.5687 C   0  0  0  0  0  0
  -24.1805  -13.0344   20.9214 C   0  0  0  0  0  0
  -24.6392  -11.6826   20.8742 C   0  0  0  0  0  0
  -23.9056  -10.4246   21.0410 C   0  0  0  0  0  0
  -24.3616   -9.4165   21.9177 C   0  0  0  0  0  0
  -23.6291   -8.2214   22.0759 C   0  0  0  0  0  0
  -22.4265   -8.0270   21.3551 C   0  0  0  0  0  0
  -21.9897   -9.0241   20.4646 C   0  0  0  0  0  0
  -22.7231  -10.2106   20.3055 C   0  0  0  0  0  0
  -21.6834   -6.0737   22.5279 C   0  0  0  0  0  0
  -21.3995   -6.5644   23.8213 C   0  0  0  0  0  0
  -21.3661   -5.6798   24.9176 C   0  0  0  0  0  0
  -21.6055   -4.3064   24.7221 C   0  0  0  0  0  0
  -21.8818   -3.8152   23.4341 C   0  0  0  0  0  0
  -21.9197   -4.6972   22.3401 C   0  0  0  0  0  0
  -22.7834  -13.5190   21.1900 C   0  0  0  0  0  0
  -22.1670   -4.2171   21.0974 F   0  0  0  0  0  0
  -21.5645   -3.4538   25.7726 F   0  0  0  0  0  0
  -29.9891  -13.4831   20.4032 N   0  0  0  0  0  0
  -26.2951  -12.9252   20.3238 N   0  0  0  0  0  0
  -25.9307  -11.6413   20.5666 N   0  0  0  0  0  0
  -22.0437  -12.8214   22.0431 N   0  0  0  0  0  0
  -25.4224  -15.1676   20.4149 N   0  0  0  0  0  0
  -31.7669  -14.8738   20.1738 O   0  0  0  0  0  0
  -21.6631   -6.8865   21.4233 O   0  0  0  0  0  0
  -22.3580  -14.5540   20.6765 O   0  0  0  0  0  0
  -24.6321  -31.8587   23.1993 C   0  0  0  0  0  0
  -25.9148  -32.4763   23.8355 C   0  0  1  0  0  0
  -27.2216  -27.2698   20.1253 C   0  0  0  0  0  0
  -25.5936  -33.8570   24.2270 N   0  0  0  0  0  0
  -23.4264  -30.4836   21.5456 C   0  0  2  0  0  0
  -24.8736  -28.9341   20.1118 C   0  0  0  0  0  0
  -22.7482  -29.4634   22.4921 C   0  0  0  0  0  0
  -18.0277  -28.1402   22.8457 C   0  0  0  0  0  0
  -24.1490  -36.7285   23.2647 C   0  0  0  0  0  0
  -25.9758  -30.7771   21.3775 C   0  0  0  0  0  0
  -26.0494  -29.4016   20.7129 C   0  0  0  0  0  0
  -27.2274  -28.5844   20.7045 C   0  0  0  0  0  0
  -26.0153  -26.8706   19.5019 C   0  0  0  0  0  0
  -24.8623  -27.6756   19.4947 C   0  0  0  0  0  0
  -23.6416  -29.8176   20.1631 C   0  0  0  0  0  0
  -25.4111  -36.3077   24.0340 C   0  0  1  0  0  0
  -20.5910  -28.3608   23.1164 C   0  0  2  0  0  0
  -20.6809  -26.9400   22.5118 C   0  0  0  0  0  0
  -19.5623  -26.6345   21.5079 C   0  0  0  0  0  0
  -18.1827  -26.7979   22.1522 C   0  0  0  0  0  0
  -19.1575  -28.8771   23.2883 C   0  0  0  0  0  0
  -18.9574  -30.1293   23.9085 C   0  0  0  0  0  0
  -17.6620  -30.6519   24.0774 C   0  0  0  0  0  0
  -25.9068  -34.9441   23.5111 C   0  0  0  0  0  0
  -16.5461  -29.9170   23.6408 C   0  0  0  0  0  0
  -16.7308  -28.6617   23.0359 C   0  0  0  0  0  0
  -26.4509  -31.6592   25.0754 C   0  0  0  0  0  0
  -25.3719  -31.3783   26.1470 C   0  0  0  0  0  0
  -27.0355  -30.2983   24.6301 C   0  0  0  0  0  0
  -27.6042  -32.4343   25.7549 C   0  0  0  0  0  0
  -27.5579  -37.1794   24.8467 C   0  0  0  0  0  0
  -21.4196  -29.3057   22.3657 N   0  0  0  0  0  0
  -26.4282  -37.3770   23.9421 N   0  0  0  0  0  0
  -24.6974  -31.0562   22.0970 N   0  0  0  0  0  0
  -23.4162  -28.8147   23.3011 O   0  0  0  0  0  0
  -28.3134  -26.3667   20.1816 O   0  0  0  0  0  0
  -26.5641  -34.8918   22.4678 O   0  0  0  0  0  0
  -23.5470  -32.1419   23.7295 O   0  0  0  0  0  0
  -26.6007  -20.7243   20.7241 C   0  0  0  0  0  0
  -27.1568  -22.0054   20.7369 C   0  0  0  0  0  0
  -27.3942  -19.6080   20.4047 C   0  0  0  0  0  0
  -28.5230  -22.1895   20.4710 C   0  0  0  0  0  0
  -28.7984  -19.7646   20.2873 C   0  0  0  0  0  0
  -26.5136  -17.9099   18.6466 C   0  0  0  0  0  0
  -25.3113  -18.3285   19.4548 C   0  0  0  0  0  0
  -26.6926  -18.3210   20.0926 C   0  0  0  0  0  0
  -30.2039  -23.7857   19.3658 C   0  0  0  0  0  0
  -29.6722  -18.4656   19.9355 C   0  0  0  0  0  0
  -29.9509  -17.2887   21.0134 C   0  0  0  0  0  0
  -28.0104  -24.8912   20.1459 C   0  0  0  0  0  0
  -29.0807  -23.6910   20.4091 C   0  0  1  0  0  0
  -29.3343  -21.0553   20.3232 N   0  0  0  0  0  0
  -29.7371  -15.8011   20.6976 N   0  0  0  0  0  0
  -31.4812  -12.5828   19.1567 H   0  0  0  0  0  0
  -30.3871  -11.4528   19.9111 H   0  0  0  0  0  0
  -29.7870  -11.7444   17.4931 H   0  0  0  0  0  0
  -29.6418  -13.4705   17.7114 H   0  0  0  0  0  0
  -27.8864  -11.2793   18.8762 H   0  0  0  0  0  0
  -27.3796  -12.5429   17.7902 H   0  0  0  0  0  0
  -27.6487  -14.2432   19.4925 H   0  0  0  0  0  0
  -28.7258  -12.0903   21.3739 H   0  0  0  0  0  0
  -28.4199  -13.7419   21.8263 H   0  0  0  0  0  0
  -25.2762   -9.5659   22.4736 H   0  0  0  0  0  0
  -24.0012   -7.4605   22.7478 H   0  0  0  0  0  0
  -21.0833   -8.8764   19.8953 H   0  0  0  0  0  0
  -22.3697  -10.9659   19.6182 H   0  0  0  0  0  0
  -21.1953   -7.6143   23.9716 H   0  0  0  0  0  0
  -21.1483   -6.0522   25.9080 H   0  0  0  0  0  0
  -22.0586   -2.7613   23.2829 H   0  0  0  0  0  0
  -22.4059  -11.9906   22.4877 H   0  0  0  0  0  0
  -21.1052  -13.1264   22.2617 H   0  0  0  0  0  0
  -24.6328  -15.7972   20.4986 H   0  0  0  0  0  0
  -26.2265  -15.5922   19.9784 H   0  0  0  0  0  0
  -26.7219  -32.5425   23.1105 H   0  0  0  0  0  0
  -24.9998  -33.9702   25.0362 H   0  0  0  0  0  0
  -22.7213  -31.3048   21.4038 H   0  0  0  0  0  0
  -23.3751  -35.9624   23.3318 H   0  0  0  0  0  0
  -24.3570  -36.8907   22.2064 H   0  0  0  0  0  0
  -23.7249  -37.6494   23.6656 H   0  0  0  0  0  0
  -26.1196  -31.5443   20.6159 H   0  0  0  0  0  0
  -26.8492  -30.8156   22.0174 H   0  0  0  0  0  0
  -28.1275  -28.9416   21.1854 H   0  0  0  0  0  0
  -25.9201  -25.9085   19.0258 H   0  0  0  0  0  0
  -23.9602  -27.3058   19.0264 H   0  0  0  0  0  0
  -23.7545  -30.5970   19.4096 H   0  0  0  0  0  0
  -22.7609  -29.2486   19.8590 H   0  0  0  0  0  0
  -25.1280  -36.1929   25.0830 H   0  0  0  0  0  0
  -21.0018  -28.3038   24.1259 H   0  0  0  0  0  0
  -20.6017  -26.2154   23.3231 H   0  0  0  0  0  0
  -21.6607  -26.7627   22.0646 H   0  0  0  0  0  0
  -19.6692  -25.6243   21.1139 H   0  0  0  0  0  0
  -19.6499  -27.3068   20.6533 H   0  0  0  0  0  0
  -17.4115  -26.6937   21.3867 H   0  0  0  0  0  0
  -18.0065  -26.0061   22.8817 H   0  0  0  0  0  0
  -19.8084  -30.6904   24.2671 H   0  0  0  0  0  0
  -17.5277  -31.6096   24.5613 H   0  0  0  0  0  0
  -15.5504  -30.3152   23.7801 H   0  0  0  0  0  0
  -15.8663  -28.1047   22.7024 H   0  0  0  0  0  0
  -24.5875  -30.7145   25.7818 H   0  0  0  0  0  0
  -24.8934  -32.2978   26.4851 H   0  0  0  0  0  0
  -25.8020  -30.8993   27.0273 H   0  0  0  0  0  0
  -26.2970  -29.6741   24.1255 H   0  0  0  0  0  0
  -27.3905  -29.7247   25.4878 H   0  0  0  0  0  0
  -27.8898  -30.4212   23.9637 H   0  0  0  0  0  0
  -27.2604  -33.3623   26.2128 H   0  0  0  0  0  0
  -28.3859  -32.6945   25.0402 H   0  0  0  0  0  0
  -28.0700  -31.8479   26.5487 H   0  0  0  0  0  0
  -28.2586  -38.0099   24.7475 H   0  0  0  0  0  0
  -28.1056  -36.2610   24.6287 H   0  0  0  0  0  0
  -27.2280  -37.1452   25.8866 H   0  0  0  0  0  0
  -20.9338  -29.8846   21.6960 H   0  0  0  0  0  0
  -26.0169  -38.2859   24.1367 H   0  0  0  0  0  0
  -25.5361  -20.6165   20.8782 H   0  0  0  0  0  0
  -26.4847  -22.8291   20.9162 H   0  0  0  0  0  0
  -26.8601  -18.5990   17.8775 H   0  0  0  0  0  0
  -26.6060  -16.8555   18.3995 H   0  0  0  0  0  0
  -24.6010  -17.5508   19.7214 H   0  0  0  0  0  0
  -24.8576  -19.2817   19.1891 H   0  0  0  0  0  0
  -26.9326  -17.5397   20.8121 H   0  0  0  0  0  0
  -31.0373  -23.1388   19.6394 H   0  0  0  0  0  0
  -30.5861  -24.8028   19.2903 H   0  0  0  0  0  0
  -29.8612  -23.4781   18.3780 H   0  0  0  0  0  0
  -30.6417  -18.8225   19.5895 H   0  0  0  0  0  0
  -29.2386  -18.0131   19.0437 H   0  0  0  0  0  0
  -29.3015  -17.4978   21.8640 H   0  0  0  0  0  0
  -30.9589  -17.4112   21.4139 H   0  0  0  0  0  0
  -27.2129  -24.7742   20.8775 H   0  0  0  0  0  0
  -27.5771  -24.6669   19.1715 H   0  0  0  0  0  0
  -29.5216  -23.8762   21.3884 H   0  0  0  0  0  0
  -28.7832  -15.5010   20.8338 H   0  0  0  0  0  0
  1 25  1  0  0  0
  1 30  2  0  0  0
  1 85  1  0  0  0
  2  3  1  0  0  0
  2 25  1  0  0  0
  2 86  1  0  0  0
  2 87  1  0  0  0
  3  4  1  0  0  0
  3 88  1  0  0  0
  3 89  1  0  0  0
  4  5  1  0  0  0
  4 90  1  0  0  0
  4 91  1  0  0  0
  5  6  1  0  0  0
  5 26  1  0  0  0
  5 92  1  0  0  0
  6 25  1  0  0  0
  6 93  1  0  0  0
  6 94  1  0  0  0
  7  8  2  0  0  0
  7 26  1  0  0  0
  7 29  1  0  0  0
  8  9  1  0  0  0
  8 22  1  0  0  0
  9 10  1  0  0  0
  9 27  2  0  0  0
 10 11  2  0  0  0
 10 15  1  0  0  0
 11 12  1  0  0  0
 11 95  1  0  0  0
 12 13  2  0  0  0
 12 96  1  0  0  0
 13 14  1  0  0  0
 13 31  1  0  0  0
 14 15  2  0  0  0
 14 97  1  0  0  0
 15 98  1  0  0  0
 16 17  2  0  0  0
 16 21  1  0  0  0
 16 31  1  0  0  0
 17 18  1  0  0  0
 17 99  1  0  0  0
 18 19  2  0  0  0
 18100  1  0  0  0
 19 20  1  0  0  0
 19 24  1  0  0  0
 20 21  2  0  0  0
 20101  1  0  0  0
 21 23  1  0  0  0
 22 28  1  0  0  0
 22 32  2  0  0  0
 26 27  1  0  0  0
 28102  1  0  0  0
 28103  1  0  0  0
 29104  1  0  0  0
 29105  1  0  0  0
 33 34  1  0  0  0
 33 66  1  0  0  0
 33 70  2  0  0  0
 34 36  1  0  0  0
 34 59  1  0  0  0
 34106  1  0  0  0
 35 44  2  0  0  0
 35 45  1  0  0  0
 35 68  1  0  0  0
 36 56  1  0  0  0
 36107  1  0  0  0
 37 39  1  0  0  0
 37 47  1  0  0  0
 37 66  1  0  0  0
 37108  1  0  0  0
 38 43  2  0  0  0
 38 46  1  0  0  0
 38 47  1  0  0  0
 39 64  1  0  0  0
 39 67  2  0  0  0
 40 52  1  0  0  0
 40 53  2  0  0  0
 40 58  1  0  0  0
 41109  1  0  0  0
 41110  1  0  0  0
 41111  1  0  0  0
 41 48  1  0  0  0
 42 43  1  0  0  0
 42 66  1  0  0  0
 42112  1  0  0  0
 42113  1  0  0  0
 43 44  1  0  0  0
 44114  1  0  0  0
 45 46  2  0  0  0
 45115  1  0  0  0
 46116  1  0  0  0
 47117  1  0  0  0
 47118  1  0  0  0
 48 56  1  0  0  0
 48 65  1  0  0  0
 48119  1  0  0  0
 49 50  1  0  0  0
 49 53  1  0  0  0
 49 64  1  0  0  0
 49120  1  0  0  0
 50 51  1  0  0  0
 50121  1  0  0  0
 50122  1  0  0  0
 51 52  1  0  0  0
 51123  1  0  0  0
 51124  1  0  0  0
 52125  1  0  0  0
 52126  1  0  0  0
 53 54  1  0  0  0
 54 55  2  0  0  0
 54127  1  0  0  0
 55 57  1  0  0  0
 55128  1  0  0  0
 56 69  2  0  0  0
 57 58  2  0  0  0
 57129  1  0  0  0
 58130  1  0  0  0
 59 60  1  0  0  0
 59 61  1  0  0  0
 59 62  1  0  0  0
 60131  1  0  0  0
 60132  1  0  0  0
 60133  1  0  0  0
 61134  1  0  0  0
 61135  1  0  0  0
 61136  1  0  0  0
 62137  1  0  0  0
 62138  1  0  0  0
 62139  1  0  0  0
 63 65  1  0  0  0
 63140  1  0  0  0
 63141  1  0  0  0
 63142  1  0  0  0
 64143  1  0  0  0
 65144  1  0  0  0
 68 82  1  0  0  0
 71 72  2  0  0  0
 71 73  1  0  0  0
 71145  1  0  0  0
 72 74  1  0  0  0
 72146  1  0  0  0
 73 75  2  0  0  0
 73 78  1  0  0  0
 74 83  1  0  0  0
 74 84  2  0  0  0
 75 80  1  0  0  0
 75 84  1  0  0  0
 76 77  1  0  0  0
 76 78  1  0  0  0
 76147  1  0  0  0
 76148  1  0  0  0
 77 78  1  0  0  0
 77149  1  0  0  0
 77150  1  0  0  0
 78151  1  0  0  0
 79152  1  0  0  0
 79153  1  0  0  0
 79154  1  0  0  0
 79 83  1  0  0  0
 80 81  1  0  0  0
 80155  1  0  0  0
 80156  1  0  0  0
 81 85  1  0  0  0
 81157  1  0  0  0
 81158  1  0  0  0
 82 83  1  0  0  0
 82159  1  0  0  0
 82160  1  0  0  0
 83161  1  0  0  0
 85162  1  0  0  0
M  ISO  4   1 100  68 101  82 101  85 100
M  END
> <chiral flag>
0

> <version>
0

> <s_m_source_file>
/data/baiqing/PycharmProjects/Reinvent-master-3.2/result/LINK_invent/BTK/process_docking_weight1_custom_sum_contain_oxygen_bond_distance_aromatic_linkinvent_7_9_3/rearranged_h_0122.sdf

> <i_m_source_file_index>
59

> <r_mmod_Potential_Energy-OPLS-2005>
103.746513366699

> <r_mmod_Stretch_Energy-OPLS-2005>
131.567031860352

> <r_mmod_Bend_Energy-OPLS-2005>
179.96403503418

> <r_mmod_Torsional_Energy-OPLS-2005>
258.3857421875

> <r_mmod_Improper_Torsional_Energy-OPLS-2005>
6.25452947616577

> <r_mmod_Van_der_Waal_Energy-OPLS-2005>
141.590225219727

> <r_mmod_Electrostatic_Energy-OPLS-2005>
-475.420379638672

> <r_mmod_Solvation_Energy-OPLS-2005>
-218.82405090332

> <b_mmod_Minimization_Converged-OPLS-2005>
0

> <r_mmod_RMS_Derivative-OPLS-2005>
3.51933240890503

$$$$
59
                    3D
 Structure written by MMmdl.
178186  0  0  1  0            999 V2000
  -30.6691  -14.5351   20.5623 C   0  0  0  0  0  0
  -30.4323  -12.3464   19.4242 C   0  0  0  0  0  0
  -29.4989  -12.5040   18.2049 C   0  0  0  0  0  0
  -28.0184  -12.3662   18.6172 C   0  0  0  0  0  0
  -27.6588  -13.2107   19.8695 C   0  0  2  0  0  0
  -28.7034  -13.0101   20.9895 C   0  0  0  0  0  0
  -25.2573  -13.8170   20.5682 C   0  0  0  0  0  0
  -24.1840  -13.0437   20.9189 C   0  0  0  0  0  0
  -24.6414  -11.6903   20.8745 C   0  0  0  0  0  0
  -23.9079  -10.4291   21.0413 C   0  0  0  0  0  0
  -24.3635   -9.4203   21.9187 C   0  0  0  0  0  0
  -23.6307   -8.2245   22.0761 C   0  0  0  0  0  0
  -22.4290   -8.0288   21.3547 C   0  0  0  0  0  0
  -21.9938   -9.0259   20.4634 C   0  0  0  0  0  0
  -22.7267  -10.2130   20.3048 C   0  0  0  0  0  0
  -21.6848   -6.0750   22.5282 C   0  0  0  0  0  0
  -21.4005   -6.5652   23.8215 C   0  0  0  0  0  0
  -21.3654   -5.6799   24.9178 C   0  0  0  0  0  0
  -21.6050   -4.3062   24.7220 C   0  0  0  0  0  0
  -21.8824   -3.8151   23.4341 C   0  0  0  0  0  0
  -21.9188   -4.6975   22.3396 C   0  0  0  0  0  0
  -22.7857  -13.5206   21.1847 C   0  0  0  0  0  0
  -22.1661   -4.2156   21.0977 F   0  0  0  0  0  0
  -21.5633   -3.4547   25.7737 F   0  0  0  0  0  0
  -30.0242  -13.3404   20.4303 N   0  0  0  0  0  0
  -26.3016  -12.9346   20.3351 N   0  0  0  0  0  0
  -25.9341  -11.6505   20.5777 N   0  0  0  0  0  0
  -22.0494  -12.8182   22.0385 N   0  0  0  0  0  0
  -25.4267  -15.1894   20.4067 N   0  0  0  0  0  0
  -31.8068  -14.7275   20.1266 O   0  0  0  0  0  0
  -21.6643   -6.8894   21.4244 O   0  0  0  0  0  0
  -22.3533  -14.5518   20.6699 O   0  0  0  0  0  0
  -24.6184  -31.8646   23.2073 C   0  0  0  0  0  0
  -25.9046  -32.4823   23.8375 C   0  0  1  0  0  0
  -27.2323  -27.3856   20.1076 C   0  0  0  0  0  0
  -25.5875  -33.8625   24.2292 N   0  0  0  0  0  0
  -23.4081  -30.4858   21.5511 C   0  0  2  0  0  0
  -24.8535  -28.9436   20.1182 C   0  0  0  0  0  0
  -22.7409  -29.4639   22.5003 C   0  0  0  0  0  0
  -18.0259  -28.1371   22.8514 C   0  0  0  0  0  0
  -24.1480  -36.7292   23.2644 C   0  0  0  0  0  0
  -25.9416  -30.8150   21.3659 C   0  0  0  0  0  0
  -26.0186  -29.4459   20.7120 C   0  0  0  0  0  0
  -27.2099  -28.6766   20.6981 C   0  0  0  0  0  0
  -26.0489  -26.9192   19.4907 C   0  0  0  0  0  0
  -24.8657  -27.6810   19.5037 C   0  0  0  0  0  0
  -23.6173  -29.8139   20.1678 C   0  0  0  0  0  0
  -25.4118  -36.3123   24.0331 C   0  0  1  0  0  0
  -20.5849  -28.3660   23.1317 C   0  0  2  0  0  0
  -20.6732  -26.9393   22.5418 C   0  0  0  0  0  0
  -19.5712  -26.6384   21.5213 C   0  0  0  0  0  0
  -18.1898  -26.7921   22.1637 C   0  0  0  0  0  0
  -19.1512  -28.8831   23.2910 C   0  0  0  0  0  0
  -18.9455  -30.1438   23.8919 C   0  0  0  0  0  0
  -17.6463  -30.6591   24.0569 C   0  0  0  0  0  0
  -25.9051  -34.9490   23.5121 C   0  0  0  0  0  0
  -16.5348  -29.9098   23.6336 C   0  0  0  0  0  0
  -16.7250  -28.6505   23.0370 C   0  0  0  0  0  0
  -26.4454  -31.6627   25.0740 C   0  0  0  0  0  0
  -25.3695  -31.3670   26.1449 C   0  0  0  0  0  0
  -27.0340  -30.3094   24.6156 C   0  0  0  0  0  0
  -27.6011  -32.4357   25.7527 C   0  0  0  0  0  0
  -27.5581  -37.1817   24.8473 C   0  0  0  0  0  0
  -21.4138  -29.3031   22.3732 N   0  0  0  0  0  0
  -26.4295  -37.3823   23.9416 N   0  0  0  0  0  0
  -24.6750  -31.0692   22.1002 N   0  0  0  0  0  0
  -23.4158  -28.8165   23.3055 O   0  0  0  0  0  0
  -28.3968  -26.6251   20.1244 O   0  0  0  0  0  0
  -26.5639  -34.8950   22.4703 O   0  0  0  0  0  0
  -23.5365  -32.1413   23.7449 O   0  0  0  0  0  0
  -29.5583  -19.4776   21.0141 C   0  0  0  0  0  0
  -29.7438  -21.9694   18.2655 C   0  0  0  0  0  0
  -29.8324  -20.5336   18.7827 C   0  0  0  0  0  0
  -29.0120  -22.7757   19.3473 C   0  0  1  0  0  0
  -29.4872  -22.0239   20.6399 C   0  0  2  0  0  0
  -29.3003  -26.3757   15.7904 C   0  0  0  0  0  0
  -32.6283  -22.6412   22.9812 C   0  0  0  0  0  0
  -30.2160  -22.4799   23.7118 C   0  0  0  0  0  0
  -29.7619  -18.0464   20.4068 C   0  0  0  0  0  0
  -30.8047  -22.6108   21.2267 C   0  0  0  0  0  0
  -29.3626  -26.1754   17.3107 C   0  0  0  0  0  0
  -28.7865  -24.8125   17.7496 C   0  0  0  0  0  0
  -30.3320  -16.9454   21.3742 C   0  0  0  0  0  0
  -28.3037  -25.1743   20.2428 C   0  0  0  0  0  0
  -29.1426  -24.3588   19.1991 C   0  0  1  0  0  0
  -31.2352  -22.1027   22.6215 C   0  0  0  0  0  0
  -29.6717  -20.5964   20.2324 N   0  0  0  0  0  0
  -29.9279  -15.5453   21.0768 N   0  0  0  0  0  0
  -29.2683  -19.5636   22.2091 O   0  0  0  0  0  0
  -31.4752  -12.4644   19.1229 H   0  0  0  0  0  0
  -30.3526  -11.3408   19.8408 H   0  0  0  0  0  0
  -29.7410  -11.7561   17.4481 H   0  0  0  0  0  0
  -29.6626  -13.4757   17.7363 H   0  0  0  0  0  0
  -27.8306  -11.3104   18.8169 H   0  0  0  0  0  0
  -27.3707  -12.6383   17.7837 H   0  0  0  0  0  0
  -27.6939  -14.2570   19.5644 H   0  0  0  0  0  0
  -28.6997  -11.9750   21.3337 H   0  0  0  0  0  0
  -28.4614  -13.6104   21.8672 H   0  0  0  0  0  0
  -25.2792   -9.5668   22.4753 H   0  0  0  0  0  0
  -24.0004   -7.4644   22.7501 H   0  0  0  0  0  0
  -21.0880   -8.8789   19.8925 H   0  0  0  0  0  0
  -22.3765  -10.9675   19.6151 H   0  0  0  0  0  0
  -21.1993   -7.6158   23.9718 H   0  0  0  0  0  0
  -21.1476   -6.0534   25.9081 H   0  0  0  0  0  0
  -22.0603   -2.7612   23.2854 H   0  0  0  0  0  0
  -22.4111  -11.9836   22.4761 H   0  0  0  0  0  0
  -21.1092  -13.1172   22.2561 H   0  0  0  0  0  0
  -24.6558  -15.8426   20.4975 H   0  0  0  0  0  0
  -26.2736  -15.6259   20.0643 H   0  0  0  0  0  0
  -26.7127  -32.5519   23.1139 H   0  0  0  0  0  0
  -24.9942  -33.9787   25.0378 H   0  0  0  0  0  0
  -22.7008  -31.3051   21.4096 H   0  0  0  0  0  0
  -23.3789  -35.9576   23.3305 H   0  0  0  0  0  0
  -24.3554  -36.8925   22.2056 H   0  0  0  0  0  0
  -23.7180  -37.6468   23.6674 H   0  0  0  0  0  0
  -26.0610  -31.5782   20.5956 H   0  0  0  0  0  0
  -26.8266  -30.8690   21.9886 H   0  0  0  0  0  0
  -28.1107  -29.0603   21.1563 H   0  0  0  0  0  0
  -26.0234  -25.9641   18.9876 H   0  0  0  0  0  0
  -23.9716  -27.2906   19.0356 H   0  0  0  0  0  0
  -23.7271  -30.5867   19.4063 H   0  0  0  0  0  0
  -22.7411  -29.2328   19.8733 H   0  0  0  0  0  0
  -25.1307  -36.1982   25.0824 H   0  0  0  0  0  0
  -20.9937  -28.3219   24.1440 H   0  0  0  0  0  0
  -20.5620  -26.2269   23.3600 H   0  0  0  0  0  0
  -21.6605  -26.7413   22.1232 H   0  0  0  0  0  0
  -19.6863  -25.6308   21.1212 H   0  0  0  0  0  0
  -19.6634  -27.3217   20.6761 H   0  0  0  0  0  0
  -17.4155  -26.6676   21.4045 H   0  0  0  0  0  0
  -18.0309  -26.0056   22.9034 H   0  0  0  0  0  0
  -19.7933  -30.7243   24.2292 H   0  0  0  0  0  0
  -17.5028  -31.6280   24.5159 H   0  0  0  0  0  0
  -15.5353  -30.3013   23.7651 H   0  0  0  0  0  0
  -15.8647  -28.0822   22.7086 H   0  0  0  0  0  0
  -24.5898  -30.7025   25.7706 H   0  0  0  0  0  0
  -24.8850  -32.2796   26.4934 H   0  0  0  0  0  0
  -25.8013  -30.8776   27.0191 H   0  0  0  0  0  0
  -26.2940  -29.6837   24.1171 H   0  0  0  0  0  0
  -27.4081  -29.7340   25.4633 H   0  0  0  0  0  0
  -27.8759  -30.4450   23.9367 H   0  0  0  0  0  0
  -27.2634  -33.3658   26.2106 H   0  0  0  0  0  0
  -28.3826  -32.6914   25.0361 H   0  0  0  0  0  0
  -28.0687  -31.8494   26.5449 H   0  0  0  0  0  0
  -28.2593  -38.0128   24.7586 H   0  0  0  0  0  0
  -28.1092  -36.2664   24.6253 H   0  0  0  0  0  0
  -27.2288  -37.1410   25.8872 H   0  0  0  0  0  0
  -20.9292  -29.8760   21.6962 H   0  0  0  0  0  0
  -26.0180  -38.2893   24.1458 H   0  0  0  0  0  0
  -29.2373  -21.9850   17.3005 H   0  0  0  0  0  0
  -30.7487  -22.3695   18.1198 H   0  0  0  0  0  0
  -30.7864  -20.0820   18.5052 H   0  0  0  0  0  0
  -29.0299  -19.9291   18.3555 H   0  0  0  0  0  0
  -27.9504  -22.5416   19.2416 H   0  0  0  0  0  0
  -28.6946  -22.0968   21.3839 H   0  0  0  0  0  0
  -29.6700  -27.3627   15.5098 H   0  0  0  0  0  0
  -28.2779  -26.2890   15.4212 H   0  0  0  0  0  0
  -29.9098  -25.6380   15.2653 H   0  0  0  0  0  0
  -32.9498  -22.2823   23.9593 H   0  0  0  0  0  0
  -32.6442  -23.7311   23.0043 H   0  0  0  0  0  0
  -33.3746  -22.3131   22.2560 H   0  0  0  0  0  0
  -30.5861  -22.2281   24.7066 H   0  0  0  0  0  0
  -29.2746  -21.9442   23.5840 H   0  0  0  0  0  0
  -29.9931  -23.5477   23.7013 H   0  0  0  0  0  0
  -30.4088  -18.0856   19.5321 H   0  0  0  0  0  0
  -28.7829  -17.7361   20.0419 H   0  0  0  0  0  0
  -30.7228  -23.6942   21.3007 H   0  0  0  0  0  0
  -31.6131  -22.4324   20.5156 H   0  0  0  0  0  0
  -28.8181  -26.9930   17.7788 H   0  0  0  0  0  0
  -30.3996  -26.2677   17.6379 H   0  0  0  0  0  0
  -29.1761  -24.1019   17.0265 H   0  0  0  0  0  0
  -27.7052  -24.8003   17.6069 H   0  0  0  0  0  0
  -29.9962  -17.1393   22.3938 H   0  0  0  0  0  0
  -31.4200  -17.0256   21.4119 H   0  0  0  0  0  0
  -28.6784  -24.9310   21.2373 H   0  0  0  0  0  0
  -27.2798  -24.8036   20.2515 H   0  0  0  0  0  0
  -30.1928  -24.6121   19.3465 H   0  0  0  0  0  0
  -31.3321  -21.0185   22.5990 H   0  0  0  0  0  0
  -28.9927  -15.2859   21.3575 H   0  0  0  0  0  0
  1 25  1  0  0  0
  1 30  2  0  0  0
  1 88  1  0  0  0
  2  3  1  0  0  0
  2 25  1  0  0  0
  2 90  1  0  0  0
  2 91  1  0  0  0
  3  4  1  0  0  0
  3 92  1  0  0  0
  3 93  1  0  0  0
  4  5  1  0  0  0
  4 94  1  0  0  0
  4 95  1  0  0  0
  5  6  1  0  0  0
  5 26  1  0  0  0
  5 96  1  0  0  0
  6 25  1  0  0  0
  6 97  1  0  0  0
  6 98  1  0  0  0
  7  8  2  0  0  0
  7 26  1  0  0  0
  7 29  1  0  0  0
  8  9  1  0  0  0
  8 22  1  0  0  0
  9 10  1  0  0  0
  9 27  2  0  0  0
 10 11  2  0  0  0
 10 15  1  0  0  0
 11 12  1  0  0  0
 11 99  1  0  0  0
 12 13  2  0  0  0
 12100  1  0  0  0
 13 14  1  0  0  0
 13 31  1  0  0  0
 14 15  2  0  0  0
 14101  1  0  0  0
 15102  1  0  0  0
 16 17  2  0  0  0
 16 21  1  0  0  0
 16 31  1  0  0  0
 17 18  1  0  0  0
 17103  1  0  0  0
 18 19  2  0  0  0
 18104  1  0  0  0
 19 20  1  0  0  0
 19 24  1  0  0  0
 20 21  2  0  0  0
 20105  1  0  0  0
 21 23  1  0  0  0
 22 28  1  0  0  0
 22 32  2  0  0  0
 26 27  1  0  0  0
 28106  1  0  0  0
 28107  1  0  0  0
 29108  1  0  0  0
 29109  1  0  0  0
 33 34  1  0  0  0
 33 66  1  0  0  0
 33 70  2  0  0  0
 34 36  1  0  0  0
 34 59  1  0  0  0
 34110  1  0  0  0
 35 44  2  0  0  0
 35 45  1  0  0  0
 35 68  1  0  0  0
 36 56  1  0  0  0
 36111  1  0  0  0
 37 39  1  0  0  0
 37 47  1  0  0  0
 37 66  1  0  0  0
 37112  1  0  0  0
 38 43  2  0  0  0
 38 46  1  0  0  0
 38 47  1  0  0  0
 39 64  1  0  0  0
 39 67  2  0  0  0
 40 52  1  0  0  0
 40 53  2  0  0  0
 40 58  1  0  0  0
 41113  1  0  0  0
 41114  1  0  0  0
 41115  1  0  0  0
 41 48  1  0  0  0
 42 43  1  0  0  0
 42 66  1  0  0  0
 42116  1  0  0  0
 42117  1  0  0  0
 43 44  1  0  0  0
 44118  1  0  0  0
 45 46  2  0  0  0
 45119  1  0  0  0
 46120  1  0  0  0
 47121  1  0  0  0
 47122  1  0  0  0
 48 56  1  0  0  0
 48 65  1  0  0  0
 48123  1  0  0  0
 49 50  1  0  0  0
 49 53  1  0  0  0
 49 64  1  0  0  0
 49124  1  0  0  0
 50 51  1  0  0  0
 50125  1  0  0  0
 50126  1  0  0  0
 51 52  1  0  0  0
 51127  1  0  0  0
 51128  1  0  0  0
 52129  1  0  0  0
 52130  1  0  0  0
 53 54  1  0  0  0
 54 55  2  0  0  0
 54131  1  0  0  0
 55 57  1  0  0  0
 55132  1  0  0  0
 56 69  2  0  0  0
 57 58  2  0  0  0
 57133  1  0  0  0
 58134  1  0  0  0
 59 60  1  0  0  0
 59 61  1  0  0  0
 59 62  1  0  0  0
 60135  1  0  0  0
 60136  1  0  0  0
 60137  1  0  0  0
 61138  1  0  0  0
 61139  1  0  0  0
 61140  1  0  0  0
 62141  1  0  0  0
 62142  1  0  0  0
 62143  1  0  0  0
 63 65  1  0  0  0
 63144  1  0  0  0
 63145  1  0  0  0
 63146  1  0  0  0
 64147  1  0  0  0
 65148  1  0  0  0
 68 84  1  0  0  0
 71 79  1  0  0  0
 71 87  1  0  0  0
 71 89  2  0  0  0
 72 73  1  0  0  0
 72149  1  0  0  0
 72150  1  0  0  0
 72 74  1  0  0  0
 73 87  1  0  0  0
 73151  1  0  0  0
 73152  1  0  0  0
 74 75  1  0  0  0
 74 85  1  0  0  0
 74153  1  0  0  0
 75 80  1  0  0  0
 75 87  1  0  0  0
 75154  1  0  0  0
 76 81  1  0  0  0
 76155  1  0  0  0
 76156  1  0  0  0
 76157  1  0  0  0
 77158  1  0  0  0
 77159  1  0  0  0
 77160  1  0  0  0
 77 86  1  0  0  0
 78 86  1  0  0  0
 78161  1  0  0  0
 78162  1  0  0  0
 78163  1  0  0  0
 79 83  1  0  0  0
 79164  1  0  0  0
 79165  1  0  0  0
 80 86  1  0  0  0
 80166  1  0  0  0
 80167  1  0  0  0
 81 82  1  0  0  0
 81168  1  0  0  0
 81169  1  0  0  0
 82170  1  0  0  0
 82171  1  0  0  0
 82 85  1  0  0  0
 83 88  1  0  0  0
 83172  1  0  0  0
 83173  1  0  0  0
 84 85  1  0  0  0
 84174  1  0  0  0
 84175  1  0  0  0
 85176  1  0  0  0
 86177  1  0  0  0
 88178  1  0  0  0
M  ISO  4   1 100  68 101  84 101  88 100
M  END
> <chiral flag>
0

> <version>
0

> <s_m_source_file>
/data/baiqing/PycharmProjects/Reinvent-master-3.2/result/LINK_invent/BTK/process_docking_weight1_custom_sum_contain_oxygen_bond_distance_aromatic_linkinvent_7_9_3/rearranged_h_0122.sdf

> <i_m_source_file_index>
60

> <r_mmod_Potential_Energy-OPLS-2005>
142.050903320312

> <r_mmod_Stretch_Energy-OPLS-2005>
60.129768371582

> <r_mmod_Bend_Energy-OPLS-2005>
149.805923461914

> <r_mmod_Torsional_Energy-OPLS-2005>
313.977569580078

> <r_mmod_Improper_Torsional_Energy-OPLS-2005>
3.43264579772949

> <r_mmod_Van_der_Waal_Energy-OPLS-2005>
130.711029052734

> <r_mmod_Electrostatic_Energy-OPLS-2005>
-326.928314208984

> <r_mmod_Solvation_Energy-OPLS-2005>
-210.330764770508

> <b_mmod_Minimization_Converged-OPLS-2005>
0

> <r_mmod_RMS_Derivative-OPLS-2005>
2.17962408065796

$$$$
60
                    3D
 Structure written by MMmdl.
163172  0  0  1  0            999 V2000
  -30.6433  -14.6722   20.4596 C   0  0  0  0  0  0
  -30.4263  -12.4045   19.4766 C   0  0  0  0  0  0
  -29.5137  -12.4997   18.2342 C   0  0  0  0  0  0
  -28.0352  -12.3397   18.6404 C   0  0  0  0  0  0
  -27.6459  -13.2315   19.8508 C   0  0  2  0  0  0
  -28.6874  -13.1457   20.9902 C   0  0  0  0  0  0
  -25.2531  -13.8184   20.5676 C   0  0  0  0  0  0
  -24.1814  -13.0438   20.9206 C   0  0  0  0  0  0
  -24.6401  -11.6915   20.8729 C   0  0  0  0  0  0
  -23.9066  -10.4290   21.0398 C   0  0  0  0  0  0
  -24.3623   -9.4211   21.9175 C   0  0  0  0  0  0
  -23.6313   -8.2241   22.0743 C   0  0  0  0  0  0
  -22.4294   -8.0269   21.3529 C   0  0  0  0  0  0
  -21.9921   -9.0241   20.4641 C   0  0  0  0  0  0
  -22.7238  -10.2132   20.3050 C   0  0  0  0  0  0
  -21.6854   -6.0742   22.5271 C   0  0  0  0  0  0
  -21.4018   -6.5641   23.8210 C   0  0  0  0  0  0
  -21.3660   -5.6790   24.9166 C   0  0  0  0  0  0
  -21.6049   -4.3053   24.7213 C   0  0  0  0  0  0
  -21.8815   -3.8151   23.4331 C   0  0  0  0  0  0
  -21.9193   -4.6971   22.3392 C   0  0  0  0  0  0
  -22.7831  -13.5226   21.1851 C   0  0  0  0  0  0
  -22.1658   -4.2152   21.0975 F   0  0  0  0  0  0
  -21.5638   -3.4534   25.7724 F   0  0  0  0  0  0
  -29.9994  -13.4615   20.4173 N   0  0  0  0  0  0
  -26.2958  -12.9400   20.3256 N   0  0  0  0  0  0
  -25.9336  -11.6543   20.5740 N   0  0  0  0  0  0
  -22.0475  -12.8225   22.0409 N   0  0  0  0  0  0
  -25.4232  -15.1895   20.4063 N   0  0  0  0  0  0
  -31.8348  -14.7557   20.1529 O   0  0  0  0  0  0
  -21.6649   -6.8875   21.4231 O   0  0  0  0  0  0
  -22.3511  -14.5517   20.6676 O   0  0  0  0  0  0
  -24.6258  -31.8586   23.2009 C   0  0  0  0  0  0
  -25.9110  -32.4765   23.8335 C   0  0  1  0  0  0
  -27.2208  -27.2944   20.1365 C   0  0  0  0  0  0
  -25.5924  -33.8568   24.2261 N   0  0  0  0  0  0
  -23.4193  -30.4800   21.5435 C   0  0  2  0  0  0
  -24.8653  -28.9265   20.1133 C   0  0  0  0  0  0
  -22.7471  -29.4614   22.4947 C   0  0  0  0  0  0
  -18.0287  -28.1379   22.8488 C   0  0  0  0  0  0
  -24.1485  -36.7291   23.2640 C   0  0  0  0  0  0
  -25.9596  -30.7785   21.3782 C   0  0  0  0  0  0
  -26.0294  -29.4005   20.7298 C   0  0  0  0  0  0
  -27.2041  -28.5929   20.7372 C   0  0  0  0  0  0
  -26.0429  -26.8878   19.4711 C   0  0  0  0  0  0
  -24.8738  -27.6753   19.4770 C   0  0  0  0  0  0
  -23.6346  -29.8099   20.1594 C   0  0  0  0  0  0
  -25.4107  -36.3074   24.0329 C   0  0  1  0  0  0
  -20.5883  -28.3678   23.1298 C   0  0  2  0  0  0
  -20.6769  -26.9402   22.5421 C   0  0  0  0  0  0
  -19.5749  -26.6377   21.5216 C   0  0  0  0  0  0
  -18.1927  -26.7928   22.1624 C   0  0  0  0  0  0
  -19.1538  -28.8846   23.2889 C   0  0  0  0  0  0
  -18.9461  -30.1456   23.8897 C   0  0  0  0  0  0
  -17.6458  -30.6586   24.0559 C   0  0  0  0  0  0
  -25.9053  -34.9444   23.5092 C   0  0  0  0  0  0
  -16.5351  -29.9079   23.6334 C   0  0  0  0  0  0
  -16.7275  -28.6499   23.0351 C   0  0  0  0  0  0
  -26.4486  -31.6594   25.0724 C   0  0  0  0  0  0
  -25.3722  -31.3750   26.1460 C   0  0  0  0  0  0
  -27.0335  -30.3014   24.6204 C   0  0  0  0  0  0
  -27.6037  -32.4340   25.7494 C   0  0  0  0  0  0
  -27.5578  -37.1794   24.8459 C   0  0  0  0  0  0
  -21.4183  -29.3031   22.3690 N   0  0  0  0  0  0
  -26.4282  -37.3773   23.9415 N   0  0  0  0  0  0
  -24.6865  -31.0577   22.0972 N   0  0  0  0  0  0
  -23.4192  -28.8175   23.3037 O   0  0  0  0  0  0
  -28.3761  -26.4920   20.1542 O   0  0  0  0  0  0
  -26.5624  -34.8920   22.4665 O   0  0  0  0  0  0
  -23.5419  -32.1401   23.7334 O   0  0  0  0  0  0
  -29.7365  -24.4419   20.1264 C   0  0  0  0  0  0
  -27.4920  -22.9134   20.0829 C   0  0  0  0  0  0
  -28.7158  -22.2005   19.9282 C   0  0  0  0  0  0
  -29.8687  -23.0258   19.9963 C   0  0  0  0  0  0
  -28.4669  -25.0676   20.1791 C   0  0  0  0  0  0
  -28.9287  -19.5154   19.2324 C   0  0  0  0  0  0
  -28.7270  -20.8875   19.1612 C   0  0  0  0  0  0
  -28.7757  -18.7877   17.9073 C   0  0  0  0  0  0
  -30.1079  -18.1564   17.5434 C   0  0  0  0  0  0
  -30.3129  -16.9328   18.4199 C   0  0  0  0  0  0
  -29.2911  -18.4797   20.3716 C   0  0  2  0  0  0
  -30.1938  -17.1743   19.9517 C   0  0  1  0  0  0
  -31.2447  -22.4176   19.8119 C   0  0  0  0  0  0
  -28.0006  -18.0422   21.0802 C   0  0  0  0  0  0
  -27.3626  -24.2736   20.2152 N   0  0  0  0  0  0
  -29.8723  -15.8120   20.5540 N   0  0  0  0  0  0
  -31.4742  -12.5027   19.1870 H   0  0  0  0  0  0
  -30.3383  -11.4232   19.9460 H   0  0  0  0  0  0
  -29.7919  -11.7373   17.5056 H   0  0  0  0  0  0
  -29.6575  -13.4641   17.7435 H   0  0  0  0  0  0
  -27.8787  -11.2902   18.8908 H   0  0  0  0  0  0
  -27.3820  -12.5468   17.7917 H   0  0  0  0  0  0
  -27.6495  -14.2562   19.4797 H   0  0  0  0  0  0
  -28.6962  -12.1502   21.4359 H   0  0  0  0  0  0
  -28.4383  -13.8386   21.7953 H   0  0  0  0  0  0
  -25.2777   -9.5696   22.4741 H   0  0  0  0  0  0
  -24.0024   -7.4635   22.7464 H   0  0  0  0  0  0
  -21.0848   -8.8754   19.8958 H   0  0  0  0  0  0
  -22.3682  -10.9664   19.6156 H   0  0  0  0  0  0
  -21.2009   -7.6150   23.9706 H   0  0  0  0  0  0
  -21.1497   -6.0527   25.9069 H   0  0  0  0  0  0
  -22.0600   -2.7612   23.2825 H   0  0  0  0  0  0
  -22.4122  -11.9919   22.4851 H   0  0  0  0  0  0
  -21.1080  -13.1236   22.2576 H   0  0  0  0  0  0
  -24.6532  -15.8410   20.5062 H   0  0  0  0  0  0
  -26.2651  -15.6192   20.0481 H   0  0  0  0  0  0
  -26.7180  -32.5428   23.1079 H   0  0  0  0  0  0
  -25.0062  -33.9700   25.0396 H   0  0  0  0  0  0
  -22.7141  -31.3005   21.3982 H   0  0  0  0  0  0
  -23.3749  -35.9621   23.3281 H   0  0  0  0  0  0
  -24.3584  -36.8940   22.2060 H   0  0  0  0  0  0
  -23.7232  -37.6484   23.6680 H   0  0  0  0  0  0
  -26.0939  -31.5350   20.6039 H   0  0  0  0  0  0
  -26.8395  -30.8296   22.0074 H   0  0  0  0  0  0
  -28.0988  -28.9533   21.2258 H   0  0  0  0  0  0
  -26.0093  -25.9441   18.9482 H   0  0  0  0  0  0
  -23.9852  -27.3104   18.9794 H   0  0  0  0  0  0
  -23.7558  -30.5829   19.3999 H   0  0  0  0  0  0
  -22.7545  -29.2382   19.8601 H   0  0  0  0  0  0
  -25.1286  -36.1907   25.0821 H   0  0  0  0  0  0
  -20.9978  -28.3246   24.1419 H   0  0  0  0  0  0
  -20.5667  -26.2285   23.3618 H   0  0  0  0  0  0
  -21.6643  -26.7430   22.1217 H   0  0  0  0  0  0
  -19.6903  -25.6284   21.1257 H   0  0  0  0  0  0
  -19.6694  -27.3182   20.6743 H   0  0  0  0  0  0
  -17.4202  -26.6694   21.4018 H   0  0  0  0  0  0
  -18.0317  -26.0067   22.9017 H   0  0  0  0  0  0
  -19.7934  -30.7275   24.2270 H   0  0  0  0  0  0
  -17.5010  -31.6272   24.5153 H   0  0  0  0  0  0
  -15.5348  -30.2972   23.7667 H   0  0  0  0  0  0
  -15.8682  -28.0822   22.7054 H   0  0  0  0  0  0
  -24.5869  -30.7126   25.7796 H   0  0  0  0  0  0
  -24.8943  -32.2932   26.4893 H   0  0  0  0  0  0
  -25.8046  -30.8917   27.0232 H   0  0  0  0  0  0
  -26.2921  -29.6760   24.1220 H   0  0  0  0  0  0
  -27.4015  -29.7275   25.4720 H   0  0  0  0  0  0
  -27.8796  -30.4290   23.9447 H   0  0  0  0  0  0
  -27.2628  -33.3629   26.2079 H   0  0  0  0  0  0
  -28.3839  -32.6930   25.0326 H   0  0  0  0  0  0
  -28.0721  -31.8475   26.5408 H   0  0  0  0  0  0
  -28.2580  -38.0104   24.7523 H   0  0  0  0  0  0
  -28.1089  -36.2640   24.6249 H   0  0  0  0  0  0
  -27.2318  -37.1406   25.8867 H   0  0  0  0  0  0
  -20.9359  -29.8750   21.6898 H   0  0  0  0  0  0
  -26.0158  -38.2849   24.1415 H   0  0  0  0  0  0
  -30.6193  -25.0654   20.1094 H   0  0  0  0  0  0
  -26.5580  -22.3871   19.9544 H   0  0  0  0  0  0
  -28.5120  -21.1895   18.1464 H   0  0  0  0  0  0
  -28.4626  -19.4405   17.0919 H   0  0  0  0  0  0
  -27.9920  -18.0332   17.9862 H   0  0  0  0  0  0
  -30.9222  -18.8713   17.6752 H   0  0  0  0  0  0
  -30.1136  -17.8641   16.4927 H   0  0  0  0  0  0
  -31.2801  -16.4859   18.1836 H   0  0  0  0  0  0
  -29.5671  -16.1987   18.1098 H   0  0  0  0  0  0
  -29.8647  -19.0459   21.1065 H   0  0  0  0  0  0
  -31.2029  -17.4219   20.2898 H   0  0  0  0  0  0
  -32.0317  -23.1230   20.0793 H   0  0  0  0  0  0
  -31.3905  -22.1175   18.7743 H   0  0  0  0  0  0
  -31.3553  -21.5355   20.4439 H   0  0  0  0  0  0
  -27.3660  -17.4550   20.4172 H   0  0  0  0  0  0
  -27.4223  -18.9079   21.4032 H   0  0  0  0  0  0
  -28.2134  -17.4474   21.9684 H   0  0  0  0  0  0
  -28.9110  -15.6692   20.8215 H   0  0  0  0  0  0
  1 25  1  0  0  0
  1 30  2  0  0  0
  1 86  1  0  0  0
  2  3  1  0  0  0
  2 25  1  0  0  0
  2 87  1  0  0  0
  2 88  1  0  0  0
  3  4  1  0  0  0
  3 89  1  0  0  0
  3 90  1  0  0  0
  4  5  1  0  0  0
  4 91  1  0  0  0
  4 92  1  0  0  0
  5  6  1  0  0  0
  5 26  1  0  0  0
  5 93  1  0  0  0
  6 25  1  0  0  0
  6 94  1  0  0  0
  6 95  1  0  0  0
  7  8  2  0  0  0
  7 26  1  0  0  0
  7 29  1  0  0  0
  8  9  1  0  0  0
  8 22  1  0  0  0
  9 10  1  0  0  0
  9 27  2  0  0  0
 10 11  2  0  0  0
 10 15  1  0  0  0
 11 12  1  0  0  0
 11 96  1  0  0  0
 12 13  2  0  0  0
 12 97  1  0  0  0
 13 14  1  0  0  0
 13 31  1  0  0  0
 14 15  2  0  0  0
 14 98  1  0  0  0
 15 99  1  0  0  0
 16 17  2  0  0  0
 16 21  1  0  0  0
 16 31  1  0  0  0
 17 18  1  0  0  0
 17100  1  0  0  0
 18 19  2  0  0  0
 18101  1  0  0  0
 19 20  1  0  0  0
 19 24  1  0  0  0
 20 21  2  0  0  0
 20102  1  0  0  0
 21 23  1  0  0  0
 22 28  1  0  0  0
 22 32  2  0  0  0
 26 27  1  0  0  0
 28103  1  0  0  0
 28104  1  0  0  0
 29105  1  0  0  0
 29106  1  0  0  0
 33 34  1  0  0  0
 33 66  1  0  0  0
 33 70  2  0  0  0
 34 36  1  0  0  0
 34 59  1  0  0  0
 34107  1  0  0  0
 35 44  2  0  0  0
 35 45  1  0  0  0
 35 68  1  0  0  0
 36 56  1  0  0  0
 36108  1  0  0  0
 37 39  1  0  0  0
 37 47  1  0  0  0
 37 66  1  0  0  0
 37109  1  0  0  0
 38 43  2  0  0  0
 38 46  1  0  0  0
 38 47  1  0  0  0
 39 64  1  0  0  0
 39 67  2  0  0  0
 40 52  1  0  0  0
 40 53  2  0  0  0
 40 58  1  0  0  0
 41110  1  0  0  0
 41111  1  0  0  0
 41112  1  0  0  0
 41 48  1  0  0  0
 42 43  1  0  0  0
 42 66  1  0  0  0
 42113  1  0  0  0
 42114  1  0  0  0
 43 44  1  0  0  0
 44115  1  0  0  0
 45 46  2  0  0  0
 45116  1  0  0  0
 46117  1  0  0  0
 47118  1  0  0  0
 47119  1  0  0  0
 48 56  1  0  0  0
 48 65  1  0  0  0
 48120  1  0  0  0
 49 50  1  0  0  0
 49 53  1  0  0  0
 49 64  1  0  0  0
 49121  1  0  0  0
 50 51  1  0  0  0
 50122  1  0  0  0
 50123  1  0  0  0
 51 52  1  0  0  0
 51124  1  0  0  0
 51125  1  0  0  0
 52126  1  0  0  0
 52127  1  0  0  0
 53 54  1  0  0  0
 54 55  2  0  0  0
 54128  1  0  0  0
 55 57  1  0  0  0
 55129  1  0  0  0
 56 69  2  0  0  0
 57 58  2  0  0  0
 57130  1  0  0  0
 58131  1  0  0  0
 59 60  1  0  0  0
 59 61  1  0  0  0
 59 62  1  0  0  0
 60132  1  0  0  0
 60133  1  0  0  0
 60134  1  0  0  0
 61135  1  0  0  0
 61136  1  0  0  0
 61137  1  0  0  0
 62138  1  0  0  0
 62139  1  0  0  0
 62140  1  0  0  0
 63 65  1  0  0  0
 63141  1  0  0  0
 63142  1  0  0  0
 63143  1  0  0  0
 64144  1  0  0  0
 65145  1  0  0  0
 68 75  1  0  0  0
 71 74  2  0  0  0
 71 75  1  0  0  0
 71146  1  0  0  0
 72 73  2  0  0  0
 72 85  1  0  0  0
 72147  1  0  0  0
 73 74  1  0  0  0
 73 77  1  0  0  0
 74 83  1  0  0  0
 75 85  2  0  0  0
 76 77  2  0  0  0
 76 78  1  0  0  0
 76 81  1  0  0  0
 77148  1  0  0  0
 78 79  1  0  0  0
 78149  1  0  0  0
 78150  1  0  0  0
 79 80  1  0  0  0
 79151  1  0  0  0
 79152  1  0  0  0
 80 82  1  0  0  0
 80153  1  0  0  0
 80154  1  0  0  0
 81 82  1  0  0  0
 81 84  1  0  0  0
 81155  1  0  0  0
 82 86  1  0  0  0
 82156  1  0  0  0
 83157  1  0  0  0
 83158  1  0  0  0
 83159  1  0  0  0
 84160  1  0  0  0
 84161  1  0  0  0
 84162  1  0  0  0
 86163  1  0  0  0
M  ISO  4   1 100  68 101  75 101  86 100
M  END
> <chiral flag>
0

> <version>
0

> <s_m_source_file>
/data/baiqing/PycharmProjects/Reinvent-master-3.2/result/LINK_invent/BTK/process_docking_weight1_custom_sum_contain_oxygen_bond_distance_aromatic_linkinvent_7_9_3/rearranged_h_0122.sdf

> <i_m_source_file_index>
61

> <r_mmod_Potential_Energy-OPLS-2005>
127.609771728516

> <r_mmod_Stretch_Energy-OPLS-2005>
97.5032730102539

> <r_mmod_Bend_Energy-OPLS-2005>
224.641586303711

> <r_mmod_Torsional_Energy-OPLS-2005>
292.647583007812

> <r_mmod_Improper_Torsional_Energy-OPLS-2005>
15.9389696121216

> <r_mmod_Van_der_Waal_Energy-OPLS-2005>
150.086898803711

> <r_mmod_Electrostatic_Energy-OPLS-2005>
-509.260437011719

> <r_mmod_Solvation_Energy-OPLS-2005>
-202.025588989258

> <b_mmod_Minimization_Converged-OPLS-2005>
0

> <r_mmod_RMS_Derivative-OPLS-2005>
2.15752863883972

$$$$
61
                    3D
 Structure written by MMmdl.
169178  0  0  1  0            999 V2000
  -30.4843  -15.1999   20.3864 C   0  0  0  0  0  0
  -30.4399  -12.7668   19.5174 C   0  0  0  0  0  0
  -29.5304  -12.5619   18.2812 C   0  0  0  0  0  0
  -28.0799  -12.2926   18.7158 C   0  0  0  0  0  0
  -27.6153  -13.2693   19.8246 C   0  0  2  0  0  0
  -28.6538  -13.4277   20.9565 C   0  0  0  0  0  0
  -25.2407  -13.8241   20.5746 C   0  0  0  0  0  0
  -24.1750  -13.0437   20.9259 C   0  0  0  0  0  0
  -24.6397  -11.6933   20.8768 C   0  0  0  0  0  0
  -23.9089  -10.4294   21.0411 C   0  0  0  0  0  0
  -24.3631   -9.4204   21.9188 C   0  0  0  0  0  0
  -23.6297   -8.2243   22.0757 C   0  0  0  0  0  0
  -22.4279   -8.0283   21.3545 C   0  0  0  0  0  0
  -21.9922   -9.0258   20.4646 C   0  0  0  0  0  0
  -22.7260  -10.2135   20.3058 C   0  0  0  0  0  0
  -21.6857   -6.0734   22.5275 C   0  0  0  0  0  0
  -21.4014   -6.5638   23.8209 C   0  0  0  0  0  0
  -21.3659   -5.6790   24.9171 C   0  0  0  0  0  0
  -21.6046   -4.3053   24.7221 C   0  0  0  0  0  0
  -21.8817   -3.8146   23.4345 C   0  0  0  0  0  0
  -21.9190   -4.6960   22.3400 C   0  0  0  0  0  0
  -22.7765  -13.5191   21.1898 C   0  0  0  0  0  0
  -22.1658   -4.2144   21.0978 F   0  0  0  0  0  0
  -21.5626   -3.4539   25.7737 F   0  0  0  0  0  0
  -29.8934  -13.9121   20.3281 N   0  0  0  0  0  0
  -26.2836  -12.9508   20.3239 N   0  0  0  0  0  0
  -25.9337  -11.6619   20.5746 N   0  0  0  0  0  0
  -22.0416  -12.8179   22.0448 N   0  0  0  0  0  0
  -25.4054  -15.1976   20.4169 N   0  0  0  0  0  0
  -31.7066  -15.1887   20.1928 O   0  0  0  0  0  0
  -21.6642   -6.8882   21.4242 O   0  0  0  0  0  0
  -22.3448  -14.5493   20.6732 O   0  0  0  0  0  0
  -24.6608  -31.8271   23.1737 C   0  0  0  0  0  0
  -25.9304  -32.4605   23.8178 C   0  0  1  0  0  0
  -27.2202  -26.9638   20.1634 C   0  0  0  0  0  0
  -25.5983  -33.8416   24.2095 N   0  0  0  0  0  0
  -23.4731  -30.4431   21.5225 C   0  0  2  0  0  0
  -24.9255  -28.8416   20.1101 C   0  0  0  0  0  0
  -22.7652  -29.4468   22.4781 C   0  0  0  0  0  0
  -18.0325  -28.1414   22.8459 C   0  0  0  0  0  0
  -24.1504  -36.7221   23.2650 C   0  0  0  0  0  0
  -26.0427  -30.6455   21.3978 C   0  0  0  0  0  0
  -26.1110  -29.2405   20.7393 C   0  0  0  0  0  0
  -27.2527  -28.3223   20.7450 C   0  0  0  0  0  0
  -25.9964  -26.7122   19.4973 C   0  0  0  0  0  0
  -24.8909  -27.5951   19.4714 C   0  0  0  0  0  0
  -23.7107  -29.7650   20.1468 C   0  0  0  0  0  0
  -25.4143  -36.2983   24.0305 C   0  0  1  0  0  0
  -20.5948  -28.3755   23.1183 C   0  0  2  0  0  0
  -20.6809  -26.9438   22.5394 C   0  0  0  0  0  0
  -19.5783  -26.6384   21.5207 C   0  0  0  0  0  0
  -18.1961  -26.7945   22.1615 C   0  0  0  0  0  0
  -19.1586  -28.8901   23.2813 C   0  0  0  0  0  0
  -18.9500  -30.1491   23.8850 C   0  0  0  0  0  0
  -17.6498  -30.6602   24.0555 C   0  0  0  0  0  0
  -25.9100  -34.9362   23.5020 C   0  0  0  0  0  0
  -16.5386  -29.9088   23.6348 C   0  0  0  0  0  0
  -16.7307  -28.6514   23.0353 C   0  0  0  0  0  0
  -26.4565  -31.6530   25.0683 C   0  0  0  0  0  0
  -25.3694  -31.3746   26.1332 C   0  0  0  0  0  0
  -27.0459  -30.2906   24.6384 C   0  0  0  0  0  0
  -27.6078  -32.4324   25.7467 C   0  0  0  0  0  0
  -27.5578  -37.1766   24.8471 C   0  0  0  0  0  0
  -21.4326  -29.3052   22.3532 N   0  0  0  0  0  0
  -26.4295  -37.3708   23.9406 N   0  0  0  0  0  0
  -24.7471  -30.9967   22.0854 N   0  0  0  0  0  0
  -23.4208  -28.8020   23.3004 O   0  0  0  0  0  0
  -28.2204  -25.8627   20.2576 O   0  0  0  0  0  0
  -26.5694  -34.8886   22.4606 O   0  0  0  0  0  0
  -23.5687  -32.1227   23.6848 O   0  0  0  0  0  0
  -29.9079  -22.2061   19.6770 C   0  0  0  0  0  0
  -28.3628  -20.3268   20.8268 C   0  0  0  0  0  0
  -30.3155  -20.7850   19.7136 C   0  0  0  0  0  0
  -29.5663  -19.6783   20.3165 C   0  0  0  0  0  0
  -28.6908  -22.7687   20.2103 C   0  0  0  0  0  0
  -33.7726  -19.5123   19.8982 C   0  0  0  0  0  0
  -34.5732  -17.4240   22.3203 C   0  0  0  0  0  0
  -34.2451  -18.9129   22.3678 C   0  0  0  0  0  0
  -35.8552  -17.3517   21.4825 C   0  0  0  0  0  0
  -34.7971  -19.4646   21.0415 C   0  0  1  0  0  0
  -28.0790  -24.3833   18.2699 C   0  0  0  0  0  0
  -31.6542  -20.4827   19.0588 C   0  0  0  0  0  0
  -30.2130  -18.0615   20.5317 C   0  0  0  0  0  0
  -27.9822  -24.3110   19.8051 C   0  0  2  0  0  0
  -27.9598  -21.6976   20.7462 N   0  0  0  0  0  0
  -32.7054  -20.3032   20.0503 N   0  0  0  0  0  0
  -29.7530  -16.4791   20.4625 N   0  0  0  0  0  0
  -35.9064  -18.5751   20.6560 N   0  3  0  0  0  0
  -33.9608  -18.8382   18.8805 O   0  0  0  0  0  0
  -31.4610  -12.9589   19.1846 H   0  0  0  0  0  0
  -30.4937  -11.8563   20.1167 H   0  0  0  0  0  0
  -29.8991  -11.7383   17.6681 H   0  0  0  0  0  0
  -29.5642  -13.4530   17.6530 H   0  0  0  0  0  0
  -28.0376  -11.2701   19.0927 H   0  0  0  0  0  0
  -27.4061  -12.3308   17.8588 H   0  0  0  0  0  0
  -27.5364  -14.2387   19.3314 H   0  0  0  0  0  0
  -28.8087  -12.4900   21.4918 H   0  0  0  0  0  0
  -28.3070  -14.1540   21.6931 H   0  0  0  0  0  0
  -25.2769   -9.5674   22.4771 H   0  0  0  0  0  0
  -23.9993   -7.4638   22.7483 H   0  0  0  0  0  0
  -21.0850   -8.8790   19.8957 H   0  0  0  0  0  0
  -22.3723  -10.9675   19.6171 H   0  0  0  0  0  0
  -21.2014   -7.6144   23.9710 H   0  0  0  0  0  0
  -21.1478   -6.0521   25.9072 H   0  0  0  0  0  0
  -22.0598   -2.7605   23.2847 H   0  0  0  0  0  0
  -22.4035  -11.9847   22.4843 H   0  0  0  0  0  0
  -21.1029  -13.1203   22.2649 H   0  0  0  0  0  0
  -24.6350  -15.8480   20.5269 H   0  0  0  0  0  0
  -26.2440  -15.6363   20.0598 H   0  0  0  0  0  0
  -26.7367  -32.5159   23.0884 H   0  0  0  0  0  0
  -25.0088  -33.9499   25.0213 H   0  0  0  0  0  0
  -22.7856  -31.2753   21.3542 H   0  0  0  0  0  0
  -23.3769  -35.9550   23.3304 H   0  0  0  0  0  0
  -24.3586  -36.8868   22.2067 H   0  0  0  0  0  0
  -23.7262  -37.6413   23.6701 H   0  0  0  0  0  0
  -26.2177  -31.3891   20.6194 H   0  0  0  0  0  0
  -26.9064  -30.7017   22.0484 H   0  0  0  0  0  0
  -28.1485  -28.6249   21.2684 H   0  0  0  0  0  0
  -25.8300  -25.7608   19.0177 H   0  0  0  0  0  0
  -23.9878  -27.2796   18.9676 H   0  0  0  0  0  0
  -23.8625  -30.5367   19.3909 H   0  0  0  0  0  0
  -22.8207  -29.2184   19.8301 H   0  0  0  0  0  0
  -25.1340  -36.1795   25.0793 H   0  0  0  0  0  0
  -21.0035  -28.3374   24.1311 H   0  0  0  0  0  0
  -20.5705  -26.2372   23.3631 H   0  0  0  0  0  0
  -21.6671  -26.7432   22.1188 H   0  0  0  0  0  0
  -19.6951  -25.6287   21.1264 H   0  0  0  0  0  0
  -19.6731  -27.3169   20.6716 H   0  0  0  0  0  0
  -17.4229  -26.6683   21.4018 H   0  0  0  0  0  0
  -18.0360  -26.0102   22.9023 H   0  0  0  0  0  0
  -19.7976  -30.7319   24.2194 H   0  0  0  0  0  0
  -17.5049  -31.6275   24.5172 H   0  0  0  0  0  0
  -15.5384  -30.2974   23.7708 H   0  0  0  0  0  0
  -15.8705  -28.0829   22.7078 H   0  0  0  0  0  0
  -24.5910  -30.7071   25.7617 H   0  0  0  0  0  0
  -24.8833  -32.2921   26.4654 H   0  0  0  0  0  0
  -25.7915  -30.8973   27.0180 H   0  0  0  0  0  0
  -26.3115  -29.6572   24.1393 H   0  0  0  0  0  0
  -27.4017  -29.7278   25.5026 H   0  0  0  0  0  0
  -27.9042  -30.4107   23.9772 H   0  0  0  0  0  0
  -27.2691  -33.3692   26.1901 H   0  0  0  0  0  0
  -28.3944  -32.6767   25.0315 H   0  0  0  0  0  0
  -28.0673  -31.8528   26.5483 H   0  0  0  0  0  0
  -28.2579  -38.0073   24.7508 H   0  0  0  0  0  0
  -28.1084  -36.2597   24.6318 H   0  0  0  0  0  0
  -27.2283  -37.1437   25.8869 H   0  0  0  0  0  0
  -20.9570  -29.8765   21.6690 H   0  0  0  0  0  0
  -26.0153  -38.2773   24.1395 H   0  0  0  0  0  0
  -30.5527  -22.9007   19.1561 H   0  0  0  0  0  0
  -27.6590  -19.7063   21.3608 H   0  0  0  0  0  0
  -33.7724  -16.8874   21.8090 H   0  0  0  0  0  0
  -34.6898  -16.9807   23.3098 H   0  0  0  0  0  0
  -34.7727  -19.3806   23.2001 H   0  0  0  0  0  0
  -33.1804  -19.1000   22.5146 H   0  0  0  0  0  0
  -35.8931  -16.4515   20.8677 H   0  0  0  0  0  0
  -36.7302  -17.3398   22.1336 H   0  0  0  0  0  0
  -35.1814  -20.4757   21.1825 H   0  0  0  0  0  0
  -29.1219  -24.4323   17.9582 H   0  0  0  0  0  0
  -27.5873  -25.2537   17.8423 H   0  0  0  0  0  0
  -27.6415  -23.4968   17.8109 H   0  0  0  0  0  0
  -31.9449  -21.2976   18.3943 H   0  0  0  0  0  0
  -31.5456  -19.6121   18.4101 H   0  0  0  0  0  0
  -30.6164  -18.1247   21.5431 H   0  0  0  0  0  0
  -31.1076  -18.0364   19.9150 H   0  0  0  0  0  0
  -26.9361  -24.1407   20.0574 H   0  0  0  0  0  0
  -32.6106  -20.8311   20.9068 H   0  0  0  0  0  0
  -28.7564  -16.3451   20.5470 H   0  0  0  0  0  0
  -35.7133  -18.3526   19.6877 H   0  0  0  0  0  0
  -36.7957  -19.0406   20.7247 H   0  0  0  0  0  0
  1 25  1  0  0  0
  1 30  2  0  0  0
  1 87  1  0  0  0
  2  3  1  0  0  0
  2 25  1  0  0  0
  2 90  1  0  0  0
  2 91  1  0  0  0
  3  4  1  0  0  0
  3 92  1  0  0  0
  3 93  1  0  0  0
  4  5  1  0  0  0
  4 94  1  0  0  0
  4 95  1  0  0  0
  5  6  1  0  0  0
  5 26  1  0  0  0
  5 96  1  0  0  0
  6 25  1  0  0  0
  6 97  1  0  0  0
  6 98  1  0  0  0
  7  8  2  0  0  0
  7 26  1  0  0  0
  7 29  1  0  0  0
  8  9  1  0  0  0
  8 22  1  0  0  0
  9 10  1  0  0  0
  9 27  2  0  0  0
 10 11  2  0  0  0
 10 15  1  0  0  0
 11 12  1  0  0  0
 11 99  1  0  0  0
 12 13  2  0  0  0
 12100  1  0  0  0
 13 14  1  0  0  0
 13 31  1  0  0  0
 14 15  2  0  0  0
 14101  1  0  0  0
 15102  1  0  0  0
 16 17  2  0  0  0
 16 21  1  0  0  0
 16 31  1  0  0  0
 17 18  1  0  0  0
 17103  1  0  0  0
 18 19  2  0  0  0
 18104  1  0  0  0
 19 20  1  0  0  0
 19 24  1  0  0  0
 20 21  2  0  0  0
 20105  1  0  0  0
 21 23  1  0  0  0
 22 28  1  0  0  0
 22 32  2  0  0  0
 26 27  1  0  0  0
 28106  1  0  0  0
 28107  1  0  0  0
 29108  1  0  0  0
 29109  1  0  0  0
 33 34  1  0  0  0
 33 66  1  0  0  0
 33 70  2  0  0  0
 34 36  1  0  0  0
 34 59  1  0  0  0
 34110  1  0  0  0
 35 44  2  0  0  0
 35 45  1  0  0  0
 35 68  1  0  0  0
 36 56  1  0  0  0
 36111  1  0  0  0
 37 39  1  0  0  0
 37 47  1  0  0  0
 37 66  1  0  0  0
 37112  1  0  0  0
 38 43  2  0  0  0
 38 46  1  0  0  0
 38 47  1  0  0  0
 39 64  1  0  0  0
 39 67  2  0  0  0
 40 52  1  0  0  0
 40 53  2  0  0  0
 40 58  1  0  0  0
 41113  1  0  0  0
 41114  1  0  0  0
 41115  1  0  0  0
 41 48  1  0  0  0
 42 43  1  0  0  0
 42 66  1  0  0  0
 42116  1  0  0  0
 42117  1  0  0  0
 43 44  1  0  0  0
 44118  1  0  0  0
 45 46  2  0  0  0
 45119  1  0  0  0
 46120  1  0  0  0
 47121  1  0  0  0
 47122  1  0  0  0
 48 56  1  0  0  0
 48 65  1  0  0  0
 48123  1  0  0  0
 49 50  1  0  0  0
 49 53  1  0  0  0
 49 64  1  0  0  0
 49124  1  0  0  0
 50 51  1  0  0  0
 50125  1  0  0  0
 50126  1  0  0  0
 51 52  1  0  0  0
 51127  1  0  0  0
 51128  1  0  0  0
 52129  1  0  0  0
 52130  1  0  0  0
 53 54  1  0  0  0
 54 55  2  0  0  0
 54131  1  0  0  0
 55 57  1  0  0  0
 55132  1  0  0  0
 56 69  2  0  0  0
 57 58  2  0  0  0
 57133  1  0  0  0
 58134  1  0  0  0
 59 60  1  0  0  0
 59 61  1  0  0  0
 59 62  1  0  0  0
 60135  1  0  0  0
 60136  1  0  0  0
 60137  1  0  0  0
 61138  1  0  0  0
 61139  1  0  0  0
 61140  1  0  0  0
 62141  1  0  0  0
 62142  1  0  0  0
 62143  1  0  0  0
 63 65  1  0  0  0
 63144  1  0  0  0
 63145  1  0  0  0
 63146  1  0  0  0
 64147  1  0  0  0
 65148  1  0  0  0
 68 84  1  0  0  0
 71 73  2  0  0  0
 71 75  1  0  0  0
 71149  1  0  0  0
 72 74  2  0  0  0
 72 85  1  0  0  0
 72150  1  0  0  0
 73 74  1  0  0  0
 73 82  1  0  0  0
 74 83  1  0  0  0
 75 84  1  0  0  0
 75 85  2  0  0  0
 76 86  1  0  0  0
 76 89  2  0  0  0
 76 80  1  0  0  0
 77 78  1  0  0  0
 77 79  1  0  0  0
 77151  1  0  0  0
 77152  1  0  0  0
 78 80  1  0  0  0
 78153  1  0  0  0
 78154  1  0  0  0
 79 88  1  0  0  0
 79155  1  0  0  0
 79156  1  0  0  0
 80 88  1  0  0  0
 80157  1  0  0  0
 81158  1  0  0  0
 81159  1  0  0  0
 81160  1  0  0  0
 81 84  1  0  0  0
 82 86  1  0  0  0
 82161  1  0  0  0
 82162  1  0  0  0
 83 87  1  0  0  0
 83163  1  0  0  0
 83164  1  0  0  0
 84165  1  0  0  0
 86166  1  0  0  0
 87167  1  0  0  0
 88168  1  0  0  0
 88169  1  0  0  0
M  CHG  1  88   1
M  ISO  4   1 100  68 101  84 101  87 100
M  END
> <chiral flag>
0

> <version>
0

> <s_m_source_file>
/data/baiqing/PycharmProjects/Reinvent-master-3.2/result/LINK_invent/BTK/process_docking_weight1_custom_sum_contain_oxygen_bond_distance_aromatic_linkinvent_7_9_3/rearranged_h_0122.sdf

> <i_m_source_file_index>
62

> <r_mmod_Potential_Energy-OPLS-2005>
618.81494140625

> <r_mmod_Stretch_Energy-OPLS-2005>
478.686401367188

> <r_mmod_Bend_Energy-OPLS-2005>
463.180786132812

> <r_mmod_Torsional_Energy-OPLS-2005>
234.234497070312

> <r_mmod_Improper_Torsional_Energy-OPLS-2005>
8.86934089660645

> <r_mmod_Van_der_Waal_Energy-OPLS-2005>
135.616836547852

> <r_mmod_Electrostatic_Energy-OPLS-2005>
-612.969665527344

> <r_mmod_Solvation_Energy-OPLS-2005>
-488.867370605469

> <b_mmod_Minimization_Converged-OPLS-2005>
0

> <r_mmod_RMS_Derivative-OPLS-2005>
1.15048670768738

$$$$
62
                    3D
 Structure written by MMmdl.
157165  0  0  1  0            999 V2000
  -30.6590  -14.5326   20.5194 C   0  0  0  0  0  0
  -30.4270  -12.3234   19.4427 C   0  0  0  0  0  0
  -29.5005  -12.5015   18.2197 C   0  0  0  0  0  0
  -28.0212  -12.3570   18.6311 C   0  0  0  0  0  0
  -27.6608  -13.2073   19.8791 C   0  0  2  0  0  0
  -28.7053  -13.0131   21.0036 C   0  0  0  0  0  0
  -25.2598  -13.8152   20.5738 C   0  0  0  0  0  0
  -24.1842  -13.0428   20.9207 C   0  0  0  0  0  0
  -24.6390  -11.6895   20.8750 C   0  0  0  0  0  0
  -23.9049  -10.4283   21.0403 C   0  0  0  0  0  0
  -24.3598   -9.4200   21.9185 C   0  0  0  0  0  0
  -23.6276   -8.2235   22.0756 C   0  0  0  0  0  0
  -22.4263   -8.0270   21.3544 C   0  0  0  0  0  0
  -21.9894   -9.0241   20.4651 C   0  0  0  0  0  0
  -22.7215  -10.2125   20.3061 C   0  0  0  0  0  0
  -21.6840   -6.0729   22.5277 C   0  0  0  0  0  0
  -21.4006   -6.5636   23.8212 C   0  0  0  0  0  0
  -21.3671   -5.6798   24.9179 C   0  0  0  0  0  0
  -21.6045   -4.3059   24.7234 C   0  0  0  0  0  0
  -21.8812   -3.8145   23.4354 C   0  0  0  0  0  0
  -21.9187   -4.6956   22.3407 C   0  0  0  0  0  0
  -22.7870  -13.5234   21.1858 C   0  0  0  0  0  0
  -22.1658   -4.2141   21.0986 F   0  0  0  0  0  0
  -21.5631   -3.4544   25.7748 F   0  0  0  0  0  0
  -30.0302  -13.3256   20.4458 N   0  0  0  0  0  0
  -26.3028  -12.9320   20.3417 N   0  0  0  0  0  0
  -25.9323  -11.6478   20.5805 N   0  0  0  0  0  0
  -22.0505  -12.8236   22.0415 N   0  0  0  0  0  0
  -25.4334  -15.1871   20.4149 N   0  0  0  0  0  0
  -31.8018  -14.7139   20.0907 O   0  0  0  0  0  0
  -21.6633   -6.8864   21.4237 O   0  0  0  0  0  0
  -22.3567  -14.5543   20.6703 O   0  0  0  0  0  0
  -24.6188  -31.8608   23.2070 C   0  0  0  0  0  0
  -25.9070  -32.4766   23.8370 C   0  0  1  0  0  0
  -27.2329  -27.3857   20.0960 C   0  0  0  0  0  0
  -25.5912  -33.8569   24.2293 N   0  0  0  0  0  0
  -23.4075  -30.4841   21.5488 C   0  0  2  0  0  0
  -24.8508  -28.9415   20.1120 C   0  0  0  0  0  0
  -22.7413  -29.4622   22.4986 C   0  0  0  0  0  0
  -18.0260  -28.1369   22.8484 C   0  0  0  0  0  0
  -24.1485  -36.7308   23.2638 C   0  0  0  0  0  0
  -25.9396  -30.8102   21.3668 C   0  0  0  0  0  0
  -26.0128  -29.4420   20.7110 C   0  0  0  0  0  0
  -27.2000  -28.6694   20.7018 C   0  0  0  0  0  0
  -26.0453  -26.9039   19.4997 C   0  0  0  0  0  0
  -24.8643  -27.6730   19.5057 C   0  0  0  0  0  0
  -23.6152  -29.8137   20.1640 C   0  0  0  0  0  0
  -25.4103  -36.3070   24.0329 C   0  0  1  0  0  0
  -20.5852  -28.3657   23.1317 C   0  0  2  0  0  0
  -20.6745  -26.9394   22.5419 C   0  0  0  0  0  0
  -19.5732  -26.6380   21.5206 C   0  0  0  0  0  0
  -18.1912  -26.7911   22.1620 C   0  0  0  0  0  0
  -19.1511  -28.8836   23.2887 C   0  0  0  0  0  0
  -18.9433  -30.1442   23.8894 C   0  0  0  0  0  0
  -17.6436  -30.6579   24.0560 C   0  0  0  0  0  0
  -25.9032  -34.9439   23.5108 C   0  0  0  0  0  0
  -16.5330  -29.9072   23.6329 C   0  0  0  0  0  0
  -16.7247  -28.6492   23.0344 C   0  0  0  0  0  0
  -26.4480  -31.6562   25.0724 C   0  0  0  0  0  0
  -25.3758  -31.3664   26.1481 C   0  0  0  0  0  0
  -27.0307  -30.2992   24.6140 C   0  0  0  0  0  0
  -27.6039  -32.4298   25.7495 C   0  0  0  0  0  0
  -27.5568  -37.1804   24.8459 C   0  0  0  0  0  0
  -21.4140  -29.3015   22.3721 N   0  0  0  0  0  0
  -26.4274  -37.3770   23.9406 N   0  0  0  0  0  0
  -24.6741  -31.0675   22.0985 N   0  0  0  0  0  0
  -23.4159  -28.8175   23.3057 O   0  0  0  0  0  0
  -28.4112  -26.6516   20.1482 O   0  0  0  0  0  0
  -26.5594  -34.8907   22.4666 O   0  0  0  0  0  0
  -23.5379  -32.1380   23.7455 O   0  0  0  0  0  0
  -27.4834  -20.8156   20.0091 C   0  0  0  0  0  0
  -27.5833  -19.5319   20.4738 C   0  0  0  0  0  0
  -29.6090  -20.4619   20.5847 C   0  0  0  0  0  0
  -28.7697  -21.4285   20.0615 C   0  0  0  0  0  0
  -30.0442  -25.6237   18.8314 C   0  0  0  0  0  0
  -29.1280  -22.8306   19.5342 C   0  0  0  0  0  0
  -28.4828  -24.0934   20.2098 C   0  0  0  0  0  0
  -29.3723  -18.0224   21.4447 C   0  0  0  0  0  0
  -30.0602  -16.9995   20.4857 C   0  0  0  0  0  0
  -28.6261  -25.4325   19.3882 C   0  0  2  0  0  0
  -28.8950  -19.2871   20.8379 N   0  0  0  0  0  0
  -29.8710  -15.5752   20.8717 N   0  0  0  0  0  0
  -31.4734  -12.4193   19.1493 H   0  0  0  0  0  0
  -30.3249  -11.3190   19.8566 H   0  0  0  0  0  0
  -29.7442  -11.7679   17.4504 H   0  0  0  0  0  0
  -29.6632  -13.4832   17.7718 H   0  0  0  0  0  0
  -27.8391  -11.3017   18.8387 H   0  0  0  0  0  0
  -27.3683  -12.6170   17.7970 H   0  0  0  0  0  0
  -27.6953  -14.2517   19.5674 H   0  0  0  0  0  0
  -28.6933  -11.9834   21.3636 H   0  0  0  0  0  0
  -28.4738  -13.6280   21.8740 H   0  0  0  0  0  0
  -25.2732   -9.5678   22.4778 H   0  0  0  0  0  0
  -23.9975   -7.4628   22.7481 H   0  0  0  0  0  0
  -21.0820   -8.8752   19.8967 H   0  0  0  0  0  0
  -22.3649  -10.9666   19.6187 H   0  0  0  0  0  0
  -21.1994   -7.6144   23.9706 H   0  0  0  0  0  0
  -21.1509   -6.0537   25.9081 H   0  0  0  0  0  0
  -22.0582   -2.7605   23.2860 H   0  0  0  0  0  0
  -22.4099  -11.9875   22.4779 H   0  0  0  0  0  0
  -21.1139  -13.1294   22.2643 H   0  0  0  0  0  0
  -24.6650  -15.8402   20.5209 H   0  0  0  0  0  0
  -26.2799  -15.6233   20.0725 H   0  0  0  0  0  0
  -26.7138  -32.5443   23.1120 H   0  0  0  0  0  0
  -25.0062  -33.9709   25.0437 H   0  0  0  0  0  0
  -22.6999  -31.3042   21.4088 H   0  0  0  0  0  0
  -23.3722  -35.9665   23.3298 H   0  0  0  0  0  0
  -24.3580  -36.8926   22.2055 H   0  0  0  0  0  0
  -23.7276  -37.6528   23.6658 H   0  0  0  0  0  0
  -26.0649  -31.5771   20.6013 H   0  0  0  0  0  0
  -26.8230  -30.8564   21.9917 H   0  0  0  0  0  0
  -28.0947  -29.0503   21.1742 H   0  0  0  0  0  0
  -25.9999  -25.9243   19.0485 H   0  0  0  0  0  0
  -23.9667  -27.2745   19.0515 H   0  0  0  0  0  0
  -23.7262  -30.5878   19.4043 H   0  0  0  0  0  0
  -22.7367  -29.2371   19.8677 H   0  0  0  0  0  0
  -25.1286  -36.1917   25.0824 H   0  0  0  0  0  0
  -20.9929  -28.3220   24.1440 H   0  0  0  0  0  0
  -20.5635  -26.2267   23.3601 H   0  0  0  0  0  0
  -21.6617  -26.7430   22.1224 H   0  0  0  0  0  0
  -19.6899  -25.6295   21.1222 H   0  0  0  0  0  0
  -19.6670  -27.3200   20.6747 H   0  0  0  0  0  0
  -17.4176  -26.6647   21.4024 H   0  0  0  0  0  0
  -18.0322  -26.0049   22.9017 H   0  0  0  0  0  0
  -19.7913  -30.7258   24.2255 H   0  0  0  0  0  0
  -17.4991  -31.6254   24.5162 H   0  0  0  0  0  0
  -15.5330  -30.2970   23.7661 H   0  0  0  0  0  0
  -15.8643  -28.0817   22.7054 H   0  0  0  0  0  0
  -24.5956  -30.6967   25.7847 H   0  0  0  0  0  0
  -24.8927  -32.2809   26.4939 H   0  0  0  0  0  0
  -25.8149  -30.8859   27.0237 H   0  0  0  0  0  0
  -26.2856  -29.6759   24.1186 H   0  0  0  0  0  0
  -27.4028  -29.7232   25.4623 H   0  0  0  0  0  0
  -27.8720  -30.4276   23.9324 H   0  0  0  0  0  0
  -27.2634  -33.3592   26.2074 H   0  0  0  0  0  0
  -28.3854  -32.6861   25.0328 H   0  0  0  0  0  0
  -28.0698  -31.8423   26.5415 H   0  0  0  0  0  0
  -28.2577  -38.0105   24.7482 H   0  0  0  0  0  0
  -28.1064  -36.2631   24.6297 H   0  0  0  0  0  0
  -27.2282  -37.1476   25.8859 H   0  0  0  0  0  0
  -20.9312  -29.8726   21.6926 H   0  0  0  0  0  0
  -26.0149  -38.2837   24.1411 H   0  0  0  0  0  0
  -26.5695  -21.2645   19.6436 H   0  0  0  0  0  0
  -26.8264  -18.7654   20.5866 H   0  0  0  0  0  0
  -30.6721  -20.4977   20.7906 H   0  0  0  0  0  0
  -30.7834  -25.6407   19.6325 H   0  0  0  0  0  0
  -30.1206  -26.5652   18.2867 H   0  0  0  0  0  0
  -30.3183  -24.8342   18.1327 H   0  0  0  0  0  0
  -28.8603  -22.8354   18.4769 H   0  0  0  0  0  0
  -30.2134  -22.9240   19.5642 H   0  0  0  0  0  0
  -28.9224  -24.2185   21.1997 H   0  0  0  0  0  0
  -27.4210  -23.9113   20.3770 H   0  0  0  0  0  0
  -30.0476  -18.2662   22.2656 H   0  0  0  0  0  0
  -28.5067  -17.5487   21.9103 H   0  0  0  0  0  0
  -29.6535  -17.1180   19.4804 H   0  0  0  0  0  0
  -31.1225  -17.2400   20.4096 H   0  0  0  0  0  0
  -27.9759  -25.3837   18.5165 H   0  0  0  0  0  0
  -28.9579  -15.3226   21.2191 H   0  0  0  0  0  0
  1 25  1  0  0  0
  1 30  2  0  0  0
  1 82  1  0  0  0
  2  3  1  0  0  0
  2 25  1  0  0  0
  2 83  1  0  0  0
  2 84  1  0  0  0
  3  4  1  0  0  0
  3 85  1  0  0  0
  3 86  1  0  0  0
  4  5  1  0  0  0
  4 87  1  0  0  0
  4 88  1  0  0  0
  5  6  1  0  0  0
  5 26  1  0  0  0
  5 89  1  0  0  0
  6 25  1  0  0  0
  6 90  1  0  0  0
  6 91  1  0  0  0
  7  8  2  0  0  0
  7 26  1  0  0  0
  7 29  1  0  0  0
  8  9  1  0  0  0
  8 22  1  0  0  0
  9 10  1  0  0  0
  9 27  2  0  0  0
 10 11  2  0  0  0
 10 15  1  0  0  0
 11 12  1  0  0  0
 11 92  1  0  0  0
 12 13  2  0  0  0
 12 93  1  0  0  0
 13 14  1  0  0  0
 13 31  1  0  0  0
 14 15  2  0  0  0
 14 94  1  0  0  0
 15 95  1  0  0  0
 16 17  2  0  0  0
 16 21  1  0  0  0
 16 31  1  0  0  0
 17 18  1  0  0  0
 17 96  1  0  0  0
 18 19  2  0  0  0
 18 97  1  0  0  0
 19 20  1  0  0  0
 19 24  1  0  0  0
 20 21  2  0  0  0
 20 98  1  0  0  0
 21 23  1  0  0  0
 22 28  1  0  0  0
 22 32  2  0  0  0
 26 27  1  0  0  0
 28 99  1  0  0  0
 28100  1  0  0  0
 29101  1  0  0  0
 29102  1  0  0  0
 33 34  1  0  0  0
 33 66  1  0  0  0
 33 70  2  0  0  0
 34 36  1  0  0  0
 34 59  1  0  0  0
 34103  1  0  0  0
 35 44  2  0  0  0
 35 45  1  0  0  0
 35 68  1  0  0  0
 36 56  1  0  0  0
 36104  1  0  0  0
 37 39  1  0  0  0
 37 47  1  0  0  0
 37 66  1  0  0  0
 37105  1  0  0  0
 38 43  2  0  0  0
 38 46  1  0  0  0
 38 47  1  0  0  0
 39 64  1  0  0  0
 39 67  2  0  0  0
 40 52  1  0  0  0
 40 53  2  0  0  0
 40 58  1  0  0  0
 41106  1  0  0  0
 41107  1  0  0  0
 41108  1  0  0  0
 41 48  1  0  0  0
 42 43  1  0  0  0
 42 66  1  0  0  0
 42109  1  0  0  0
 42110  1  0  0  0
 43 44  1  0  0  0
 44111  1  0  0  0
 45 46  2  0  0  0
 45112  1  0  0  0
 46113  1  0  0  0
 47114  1  0  0  0
 47115  1  0  0  0
 48 56  1  0  0  0
 48 65  1  0  0  0
 48116  1  0  0  0
 49 50  1  0  0  0
 49 53  1  0  0  0
 49 64  1  0  0  0
 49117  1  0  0  0
 50 51  1  0  0  0
 50118  1  0  0  0
 50119  1  0  0  0
 51 52  1  0  0  0
 51120  1  0  0  0
 51121  1  0  0  0
 52122  1  0  0  0
 52123  1  0  0  0
 53 54  1  0  0  0
 54 55  2  0  0  0
 54124  1  0  0  0
 55 57  1  0  0  0
 55125  1  0  0  0
 56 69  2  0  0  0
 57 58  2  0  0  0
 57126  1  0  0  0
 58127  1  0  0  0
 59 60  1  0  0  0
 59 61  1  0  0  0
 59 62  1  0  0  0
 60128  1  0  0  0
 60129  1  0  0  0
 60130  1  0  0  0
 61131  1  0  0  0
 61132  1  0  0  0
 61133  1  0  0  0
 62134  1  0  0  0
 62135  1  0  0  0
 62136  1  0  0  0
 63 65  1  0  0  0
 63137  1  0  0  0
 63138  1  0  0  0
 63139  1  0  0  0
 64140  1  0  0  0
 65141  1  0  0  0
 68 80  1  0  0  0
 71 72  2  0  0  0
 71 74  1  0  0  0
 71142  1  0  0  0
 72 81  1  0  0  0
 72143  1  0  0  0
 73 74  2  0  0  0
 73 81  1  0  0  0
 73144  1  0  0  0
 74 76  1  0  0  0
 75145  1  0  0  0
 75146  1  0  0  0
 75147  1  0  0  0
 75 80  1  0  0  0
 76 77  1  0  0  0
 76148  1  0  0  0
 76149  1  0  0  0
 77 80  1  0  0  0
 77150  1  0  0  0
 77151  1  0  0  0
 78 79  1  0  0  0
 78 81  1  0  0  0
 78152  1  0  0  0
 78153  1  0  0  0
 79 82  1  0  0  0
 79154  1  0  0  0
 79155  1  0  0  0
 80156  1  0  0  0
 82157  1  0  0  0
M  ISO  4   1 100  68 101  80 101  82 100
M  END
> <chiral flag>
0

> <version>
0

> <s_m_source_file>
/data/baiqing/PycharmProjects/Reinvent-master-3.2/result/LINK_invent/BTK/process_docking_weight1_custom_sum_contain_oxygen_bond_distance_aromatic_linkinvent_7_9_3/rearranged_h_0122.sdf

> <i_m_source_file_index>
63

> <r_mmod_Potential_Energy-OPLS-2005>
-66.4386138916016

> <r_mmod_Stretch_Energy-OPLS-2005>
47.7180633544922

> <r_mmod_Bend_Energy-OPLS-2005>
119.325820922852

> <r_mmod_Torsional_Energy-OPLS-2005>
221.044281005859

> <r_mmod_Improper_Torsional_Energy-OPLS-2005>
6.62942028045654

> <r_mmod_Van_der_Waal_Energy-OPLS-2005>
122.202690124512

> <r_mmod_Electrostatic_Energy-OPLS-2005>
-390.706237792969

> <r_mmod_Solvation_Energy-OPLS-2005>
-214.731552124023

> <b_mmod_Minimization_Converged-OPLS-2005>
0

> <r_mmod_RMS_Derivative-OPLS-2005>
1.6080219745636

$$$$
63
                    3D
 Structure written by MMmdl.
160169  0  0  1  0            999 V2000
  -30.5285  -14.9229   20.4229 C   0  0  0  0  0  0
  -30.4453  -12.5613   19.5194 C   0  0  0  0  0  0
  -29.5284  -12.5281   18.2727 C   0  0  0  0  0  0
  -28.0610  -12.3156   18.6872 C   0  0  0  0  0  0
  -27.6401  -13.2422   19.8570 C   0  0  2  0  0  0
  -28.6779  -13.2445   21.0019 C   0  0  0  0  0  0
  -25.2506  -13.8209   20.5721 C   0  0  0  0  0  0
  -24.1800  -13.0450   20.9221 C   0  0  0  0  0  0
  -24.6401  -11.6929   20.8759 C   0  0  0  0  0  0
  -23.9082  -10.4301   21.0411 C   0  0  0  0  0  0
  -24.3621   -9.4214   21.9199 C   0  0  0  0  0  0
  -23.6294   -8.2253   22.0767 C   0  0  0  0  0  0
  -22.4284   -8.0283   21.3551 C   0  0  0  0  0  0
  -21.9919   -9.0265   20.4659 C   0  0  0  0  0  0
  -22.7249  -10.2144   20.3068 C   0  0  0  0  0  0
  -21.6855   -6.0739   22.5283 C   0  0  0  0  0  0
  -21.4012   -6.5642   23.8213 C   0  0  0  0  0  0
  -21.3662   -5.6796   24.9170 C   0  0  0  0  0  0
  -21.6037   -4.3058   24.7223 C   0  0  0  0  0  0
  -21.8819   -3.8153   23.4343 C   0  0  0  0  0  0
  -21.9195   -4.6972   22.3397 C   0  0  0  0  0  0
  -22.7825  -13.5238   21.1863 C   0  0  0  0  0  0
  -22.1662   -4.2158   21.0977 F   0  0  0  0  0  0
  -21.5632   -3.4541   25.7735 F   0  0  0  0  0  0
  -29.9658  -13.6485   20.4217 N   0  0  0  0  0  0
  -26.2938  -12.9428   20.3316 N   0  0  0  0  0  0
  -25.9342  -11.6565   20.5789 N   0  0  0  0  0  0
  -22.0466  -12.8217   22.0409 N   0  0  0  0  0  0
  -25.4182  -15.1930   20.4130 N   0  0  0  0  0  0
  -31.6925  -15.0343   20.0257 O   0  0  0  0  0  0
  -21.6644   -6.8882   21.4243 O   0  0  0  0  0  0
  -22.3515  -14.5543   20.6721 O   0  0  0  0  0  0
  -24.6425  -31.8402   23.1847 C   0  0  0  0  0  0
  -25.9194  -32.4663   23.8240 C   0  0  1  0  0  0
  -27.2367  -27.1447   20.1667 C   0  0  0  0  0  0
  -25.5953  -33.8475   24.2178 N   0  0  0  0  0  0
  -23.4461  -30.4567   21.5254 C   0  0  2  0  0  0
  -24.9003  -28.8766   20.1042 C   0  0  0  0  0  0
  -22.7558  -29.4513   22.4801 C   0  0  0  0  0  0
  -18.0303  -28.1389   22.8432 C   0  0  0  0  0  0
  -24.1494  -36.7245   23.2643 C   0  0  0  0  0  0
  -25.9954  -30.7235   21.3744 C   0  0  0  0  0  0
  -26.0699  -29.3303   20.7242 C   0  0  0  0  0  0
  -27.2321  -28.4771   20.7407 C   0  0  0  0  0  0
  -26.0439  -26.7795   19.5057 C   0  0  0  0  0  0
  -24.8978  -27.6139   19.4831 C   0  0  0  0  0  0
  -23.6740  -29.7782   20.1459 C   0  0  0  0  0  0
  -25.4115  -36.2999   24.0328 C   0  0  1  0  0  0
  -20.5923  -28.3689   23.1221 C   0  0  2  0  0  0
  -20.6775  -26.9380   22.5408 C   0  0  0  0  0  0
  -19.5768  -26.6367   21.5182 C   0  0  0  0  0  0
  -18.1936  -26.7918   22.1581 C   0  0  0  0  0  0
  -19.1567  -28.8850   23.2816 C   0  0  0  0  0  0
  -18.9492  -30.1445   23.8844 C   0  0  0  0  0  0
  -17.6496  -30.6569   24.0543 C   0  0  0  0  0  0
  -25.9066  -34.9387   23.5062 C   0  0  0  0  0  0
  -16.5374  -29.9057   23.6339 C   0  0  0  0  0  0
  -16.7291  -28.6502   23.0309 C   0  0  0  0  0  0
  -26.4527  -31.6531   25.0669 C   0  0  0  0  0  0
  -25.3715  -31.3705   26.1362 C   0  0  0  0  0  0
  -27.0392  -30.2951   24.6206 C   0  0  0  0  0  0
  -27.6070  -32.4286   25.7456 C   0  0  0  0  0  0
  -27.5567  -37.1775   24.8469 C   0  0  0  0  0  0
  -21.4253  -29.3012   22.3574 N   0  0  0  0  0  0
  -26.4270  -37.3723   23.9415 N   0  0  0  0  0  0
  -24.7140  -31.0276   22.0853 N   0  0  0  0  0  0
  -23.4214  -28.8052   23.2941 O   0  0  0  0  0  0
  -28.3299  -26.2192   20.3123 O   0  0  0  0  0  0
  -26.5636  -34.8894   22.4626 O   0  0  0  0  0  0
  -23.5554  -32.1261   23.7094 O   0  0  0  0  0  0
  -31.4610  -18.5998   22.0944 C   0  0  0  0  0  0
  -29.9769  -18.8837   22.3016 C   0  0  0  0  0  0
  -31.3099  -19.3463   20.7721 C   0  0  0  0  0  0
  -27.7296  -20.1163   19.3061 C   0  0  0  0  0  0
  -27.3566  -20.0475   20.7575 C   0  0  0  0  0  0
  -28.8013  -20.3085   20.3664 C   0  0  0  0  0  0
  -29.7960  -19.0069   20.7719 C   0  0  0  0  0  0
  -29.3100  -21.9000   20.4433 C   0  0  0  0  0  0
  -29.5480  -17.4972   20.0541 C   0  0  0  0  0  0
  -28.3189  -23.2751   20.5791 C   0  0  0  0  0  0
  -28.4896  -24.7610   19.7968 C   0  0  0  0  0  0
  -29.7204  -16.0582   20.6874 N   0  0  0  0  0  0
  -31.4819  -12.7105   19.2155 H   0  0  0  0  0  0
  -30.4291  -11.6016   20.0387 H   0  0  0  0  0  0
  -29.8441  -11.7380   17.5906 H   0  0  0  0  0  0
  -29.6220  -13.4650   17.7221 H   0  0  0  0  0  0
  -27.9549  -11.2735   18.9894 H   0  0  0  0  0  0
  -27.3976  -12.4534   17.8330 H   0  0  0  0  0  0
  -27.6141  -14.2487   19.4410 H   0  0  0  0  0  0
  -28.7511  -12.2608   21.4693 H   0  0  0  0  0  0
  -28.3779  -13.9359   21.7908 H   0  0  0  0  0  0
  -25.2756   -9.5693   22.4787 H   0  0  0  0  0  0
  -24.0003   -7.4639   22.7491 H   0  0  0  0  0  0
  -21.0853   -8.8781   19.8966 H   0  0  0  0  0  0
  -22.3700  -10.9687   19.6182 H   0  0  0  0  0  0
  -21.2002   -7.6151   23.9712 H   0  0  0  0  0  0
  -21.1486   -6.0526   25.9068 H   0  0  0  0  0  0
  -22.0598   -2.7621   23.2838 H   0  0  0  0  0  0
  -22.4066  -11.9841   22.4738 H   0  0  0  0  0  0
  -21.1100  -13.1277   22.2666 H   0  0  0  0  0  0
  -24.6451  -15.8422   20.5064 H   0  0  0  0  0  0
  -26.2636  -15.6314   20.0700 H   0  0  0  0  0  0
  -26.7237  -32.5314   23.0951 H   0  0  0  0  0  0
  -25.0124  -33.9572   25.0343 H   0  0  0  0  0  0
  -22.7480  -31.2806   21.3666 H   0  0  0  0  0  0
  -23.3757  -35.9575   23.3284 H   0  0  0  0  0  0
  -24.3581  -36.8899   22.2061 H   0  0  0  0  0  0
  -23.7280  -37.6455   23.6684 H   0  0  0  0  0  0
  -26.1332  -31.4745   20.5953 H   0  0  0  0  0  0
  -26.8726  -30.7881   22.0070 H   0  0  0  0  0  0
  -28.1209  -28.8142   21.2549 H   0  0  0  0  0  0
  -25.9679  -25.8057   19.0436 H   0  0  0  0  0  0
  -23.9991  -27.2579   18.9975 H   0  0  0  0  0  0
  -23.8082  -30.5505   19.3874 H   0  0  0  0  0  0
  -22.7899  -29.2181   19.8365 H   0  0  0  0  0  0
  -25.1308  -36.1806   25.0824 H   0  0  0  0  0  0
  -21.0020  -28.3288   24.1339 H   0  0  0  0  0  0
  -20.5615  -26.2286   23.3628 H   0  0  0  0  0  0
  -21.6645  -26.7349   22.1232 H   0  0  0  0  0  0
  -19.6927  -25.6271   21.1222 H   0  0  0  0  0  0
  -19.6748  -27.3160   20.6698 H   0  0  0  0  0  0
  -17.4215  -26.6665   21.3973 H   0  0  0  0  0  0
  -18.0326  -26.0070   22.8989 H   0  0  0  0  0  0
  -19.7975  -30.7260   24.2198 H   0  0  0  0  0  0
  -17.5048  -31.6246   24.5152 H   0  0  0  0  0  0
  -15.5369  -30.2935   23.7704 H   0  0  0  0  0  0
  -15.8691  -28.0827   22.7001 H   0  0  0  0  0  0
  -24.5988  -30.6920   25.7723 H   0  0  0  0  0  0
  -24.8766  -32.2861   26.4625 H   0  0  0  0  0  0
  -25.8020  -30.9053   27.0241 H   0  0  0  0  0  0
  -26.3000  -29.6666   24.1231 H   0  0  0  0  0  0
  -27.4057  -29.7240   25.4752 H   0  0  0  0  0  0
  -27.8860  -30.4221   23.9455 H   0  0  0  0  0  0
  -27.2719  -33.3669   26.1888 H   0  0  0  0  0  0
  -28.3964  -32.6710   25.0323 H   0  0  0  0  0  0
  -28.0617  -31.8483   26.5491 H   0  0  0  0  0  0
  -28.2563  -38.0086   24.7491 H   0  0  0  0  0  0
  -28.1081  -36.2620   24.6307 H   0  0  0  0  0  0
  -27.2278  -37.1435   25.8868 H   0  0  0  0  0  0
  -20.9424  -29.8800   21.6845 H   0  0  0  0  0  0
  -26.0131  -38.2779   24.1437 H   0  0  0  0  0  0
  -31.6854  -17.5382   21.9726 H   0  0  0  0  0  0
  -32.1231  -19.0713   22.8208 H   0  0  0  0  0  0
  -29.8024  -19.8240   22.8287 H   0  0  0  0  0  0
  -29.4172  -18.0689   22.7622 H   0  0  0  0  0  0
  -31.8813  -18.9138   19.9491 H   0  0  0  0  0  0
  -31.5377  -20.4073   20.8776 H   0  0  0  0  0  0
  -27.3918  -20.9961   18.7615 H   0  0  0  0  0  0
  -27.7197  -19.2010   18.7224 H   0  0  0  0  0  0
  -27.1105  -19.0657   21.1590 H   0  0  0  0  0  0
  -26.7967  -20.8704   21.1974 H   0  0  0  0  0  0
  -29.9502  -22.0525   19.5749 H   0  0  0  0  0  0
  -29.9944  -21.9594   21.2915 H   0  0  0  0  0  0
  -30.1068  -17.4751   19.1177 H   0  0  0  0  0  0
  -28.5100  -17.4598   19.7298 H   0  0  0  0  0  0
  -28.2818  -23.5017   21.6453 H   0  0  0  0  0  0
  -27.3019  -22.9593   20.3523 H   0  0  0  0  0  0
  -27.9596  -24.6900   18.8475 H   0  0  0  0  0  0
  -29.5335  -24.7599   19.4830 H   0  0  0  0  0  0
  -28.8706  -15.7759   21.1517 H   0  0  0  0  0  0
  1 25  1  0  0  0
  1 30  2  0  0  0
  1 82  1  0  0  0
  2  3  1  0  0  0
  2 25  1  0  0  0
  2 83  1  0  0  0
  2 84  1  0  0  0
  3  4  1  0  0  0
  3 85  1  0  0  0
  3 86  1  0  0  0
  4  5  1  0  0  0
  4 87  1  0  0  0
  4 88  1  0  0  0
  5  6  1  0  0  0
  5 26  1  0  0  0
  5 89  1  0  0  0
  6 25  1  0  0  0
  6 90  1  0  0  0
  6 91  1  0  0  0
  7  8  2  0  0  0
  7 26  1  0  0  0
  7 29  1  0  0  0
  8  9  1  0  0  0
  8 22  1  0  0  0
  9 10  1  0  0  0
  9 27  2  0  0  0
 10 11  2  0  0  0
 10 15  1  0  0  0
 11 12  1  0  0  0
 11 92  1  0  0  0
 12 13  2  0  0  0
 12 93  1  0  0  0
 13 14  1  0  0  0
 13 31  1  0  0  0
 14 15  2  0  0  0
 14 94  1  0  0  0
 15 95  1  0  0  0
 16 17  2  0  0  0
 16 21  1  0  0  0
 16 31  1  0  0  0
 17 18  1  0  0  0
 17 96  1  0  0  0
 18 19  2  0  0  0
 18 97  1  0  0  0
 19 20  1  0  0  0
 19 24  1  0  0  0
 20 21  2  0  0  0
 20 98  1  0  0  0
 21 23  1  0  0  0
 22 28  1  0  0  0
 22 32  2  0  0  0
 26 27  1  0  0  0
 28 99  1  0  0  0
 28100  1  0  0  0
 29101  1  0  0  0
 29102  1  0  0  0
 33 34  1  0  0  0
 33 66  1  0  0  0
 33 70  2  0  0  0
 34 36  1  0  0  0
 34 59  1  0  0  0
 34103  1  0  0  0
 35 44  2  0  0  0
 35 45  1  0  0  0
 35 68  1  0  0  0
 36 56  1  0  0  0
 36104  1  0  0  0
 37 39  1  0  0  0
 37 47  1  0  0  0
 37 66  1  0  0  0
 37105  1  0  0  0
 38 43  2  0  0  0
 38 46  1  0  0  0
 38 47  1  0  0  0
 39 64  1  0  0  0
 39 67  2  0  0  0
 40 52  1  0  0  0
 40 53  2  0  0  0
 40 58  1  0  0  0
 41106  1  0  0  0
 41107  1  0  0  0
 41108  1  0  0  0
 41 48  1  0  0  0
 42 43  1  0  0  0
 42 66  1  0  0  0
 42109  1  0  0  0
 42110  1  0  0  0
 43 44  1  0  0  0
 44111  1  0  0  0
 45 46  2  0  0  0
 45112  1  0  0  0
 46113  1  0  0  0
 47114  1  0  0  0
 47115  1  0  0  0
 48 56  1  0  0  0
 48 65  1  0  0  0
 48116  1  0  0  0
 49 50  1  0  0  0
 49 53  1  0  0  0
 49 64  1  0  0  0
 49117  1  0  0  0
 50 51  1  0  0  0
 50118  1  0  0  0
 50119  1  0  0  0
 51 52  1  0  0  0
 51120  1  0  0  0
 51121  1  0  0  0
 52122  1  0  0  0
 52123  1  0  0  0
 53 54  1  0  0  0
 54 55  2  0  0  0
 54124  1  0  0  0
 55 57  1  0  0  0
 55125  1  0  0  0
 56 69  2  0  0  0
 57 58  2  0  0  0
 57126  1  0  0  0
 58127  1  0  0  0
 59 60  1  0  0  0
 59 61  1  0  0  0
 59 62  1  0  0  0
 60128  1  0  0  0
 60129  1  0  0  0
 60130  1  0  0  0
 61131  1  0  0  0
 61132  1  0  0  0
 61133  1  0  0  0
 62134  1  0  0  0
 62135  1  0  0  0
 62136  1  0  0  0
 63 65  1  0  0  0
 63137  1  0  0  0
 63138  1  0  0  0
 63139  1  0  0  0
 64140  1  0  0  0
 65141  1  0  0  0
 68 81  1  0  0  0
 71 72  1  0  0  0
 71 73  1  0  0  0
 71142  1  0  0  0
 71143  1  0  0  0
 72 77  1  0  0  0
 72144  1  0  0  0
 72145  1  0  0  0
 73 77  1  0  0  0
 73146  1  0  0  0
 73147  1  0  0  0
 74 75  1  0  0  0
 74 76  1  0  0  0
 74148  1  0  0  0
 74149  1  0  0  0
 75 76  1  0  0  0
 75150  1  0  0  0
 75151  1  0  0  0
 76 77  1  0  0  0
 76 78  1  0  0  0
 77 79  1  0  0  0
 78 80  1  0  0  0
 78152  1  0  0  0
 78153  1  0  0  0
 79 82  1  0  0  0
 79154  1  0  0  0
 79155  1  0  0  0
 80 81  1  0  0  0
 80156  1  0  0  0
 80157  1  0  0  0
 81158  1  0  0  0
 81159  1  0  0  0
 82160  1  0  0  0
M  ISO  4   1 100  68 101  81 101  82 100
M  END
> <chiral flag>
0

> <version>
0

> <s_m_source_file>
/data/baiqing/PycharmProjects/Reinvent-master-3.2/result/LINK_invent/BTK/process_docking_weight1_custom_sum_contain_oxygen_bond_distance_aromatic_linkinvent_7_9_3/rearranged_h_0122.sdf

> <i_m_source_file_index>
64

> <r_mmod_Potential_Energy-OPLS-2005>
642.886657714844

> <r_mmod_Stretch_Energy-OPLS-2005>
287.921203613281

> <r_mmod_Bend_Energy-OPLS-2005>
337.422546386719

> <r_mmod_Torsional_Energy-OPLS-2005>
321.836364746094

> <r_mmod_Improper_Torsional_Energy-OPLS-2005>
5.97670221328735

> <r_mmod_Van_der_Waal_Energy-OPLS-2005>
108.536079406738

> <r_mmod_Electrostatic_Energy-OPLS-2005>
-396.031677246094

> <r_mmod_Solvation_Energy-OPLS-2005>
-202.200942993164

> <b_mmod_Minimization_Converged-OPLS-2005>
0

> <r_mmod_RMS_Derivative-OPLS-2005>
2.66148829460144

$$$$
64
                    3D
 Structure written by MMmdl.
168177  0  0  1  0            999 V2000
  -30.7170  -14.3492   20.6999 C   0  0  0  0  0  0
  -30.4260  -12.2822   19.3807 C   0  0  0  0  0  0
  -29.4842  -12.5486   18.1874 C   0  0  0  0  0  0
  -28.0051  -12.4059   18.5975 C   0  0  0  0  0  0
  -27.6722  -13.1906   19.8921 C   0  0  2  0  0  0
  -28.7060  -12.8664   20.9948 C   0  0  0  0  0  0
  -25.2624  -13.8133   20.5604 C   0  0  0  0  0  0
  -24.1872  -13.0439   20.9175 C   0  0  0  0  0  0
  -24.6386  -11.6887   20.8731 C   0  0  0  0  0  0
  -23.9027  -10.4302   21.0404 C   0  0  0  0  0  0
  -24.3582   -9.4220   21.9184 C   0  0  0  0  0  0
  -23.6277   -8.2246   22.0737 C   0  0  0  0  0  0
  -22.4274   -8.0277   21.3519 C   0  0  0  0  0  0
  -21.9887   -9.0261   20.4638 C   0  0  0  0  0  0
  -22.7195  -10.2151   20.3064 C   0  0  0  0  0  0
  -21.6861   -6.0728   22.5265 C   0  0  0  0  0  0
  -21.4032   -6.5641   23.8194 C   0  0  0  0  0  0
  -21.3661   -5.6797   24.9158 C   0  0  0  0  0  0
  -21.6027   -4.3053   24.7231 C   0  0  0  0  0  0
  -21.8817   -3.8142   23.4359 C   0  0  0  0  0  0
  -21.9196   -4.6950   22.3405 C   0  0  0  0  0  0
  -22.7916  -13.5265   21.1837 C   0  0  0  0  0  0
  -22.1656   -4.2129   21.0985 F   0  0  0  0  0  0
  -21.5613   -3.4545   25.7746 F   0  0  0  0  0  0
  -30.0548  -13.1841   20.4793 N   0  0  0  0  0  0
  -26.3063  -12.9270   20.3401 N   0  0  0  0  0  0
  -25.9310  -11.6438   20.5777 N   0  0  0  0  0  0
  -22.0535  -12.8279   22.0395 N   0  0  0  0  0  0
  -25.4322  -15.1836   20.3823 N   0  0  0  0  0  0
  -31.7098  -14.7195   20.0654 O   0  0  0  0  0  0
  -21.6635   -6.8873   21.4225 O   0  0  0  0  0  0
  -22.3637  -14.5588   20.6681 O   0  0  0  0  0  0
  -24.6112  -31.8709   23.2092 C   0  0  0  0  0  0
  -25.9033  -32.4819   23.8385 C   0  0  1  0  0  0
  -27.2391  -27.4543   20.0731 C   0  0  0  0  0  0
  -25.5902  -33.8612   24.2318 N   0  0  0  0  0  0
  -23.3986  -30.4933   21.5481 C   0  0  2  0  0  0
  -24.8452  -28.9627   20.1095 C   0  0  0  0  0  0
  -22.7368  -29.4703   22.4974 C   0  0  0  0  0  0
  -18.0259  -28.1442   22.8474 C   0  0  0  0  0  0
  -24.1494  -36.7299   23.2631 C   0  0  0  0  0  0
  -25.9258  -30.8326   21.3687 C   0  0  0  0  0  0
  -26.0000  -29.4685   20.7167 C   0  0  0  0  0  0
  -27.1919  -28.7138   20.7121 C   0  0  0  0  0  0
  -26.0689  -26.9724   19.4409 C   0  0  0  0  0  0
  -24.8731  -27.7107   19.4734 C   0  0  0  0  0  0
  -23.6041  -29.8213   20.1654 C   0  0  0  0  0  0
  -25.4118  -36.3090   24.0326 C   0  0  1  0  0  0
  -20.5827  -28.3758   23.1311 C   0  0  2  0  0  0
  -20.6759  -26.9466   22.5481 C   0  0  0  0  0  0
  -19.5756  -26.6349   21.5288 C   0  0  0  0  0  0
  -18.1928  -26.7954   22.1680 C   0  0  0  0  0  0
  -19.1495  -28.8920   23.2873 C   0  0  0  0  0  0
  -18.9392  -30.1524   23.8879 C   0  0  0  0  0  0
  -17.6390  -30.6618   24.0586 C   0  0  0  0  0  0
  -25.9058  -34.9461   23.5120 C   0  0  0  0  0  0
  -16.5285  -29.9091   23.6341 C   0  0  0  0  0  0
  -16.7236  -28.6543   23.0312 C   0  0  0  0  0  0
  -26.4497  -31.6570   25.0679 C   0  0  0  0  0  0
  -25.3768  -31.3662   26.1416 C   0  0  0  0  0  0
  -27.0338  -30.3009   24.6051 C   0  0  0  0  0  0
  -27.6079  -32.4290   25.7432 C   0  0  0  0  0  0
  -27.5590  -37.1794   24.8471 C   0  0  0  0  0  0
  -21.4096  -29.3114   22.3713 N   0  0  0  0  0  0
  -26.4310  -37.3771   23.9410 N   0  0  0  0  0  0
  -24.6620  -31.0800   22.1001 N   0  0  0  0  0  0
  -23.4138  -28.8238   23.3005 O   0  0  0  0  0  0
  -28.4298  -26.7546   20.1123 O   0  0  0  0  0  0
  -26.5606  -34.8919   22.4683 O   0  0  0  0  0  0
  -23.5302  -32.1484   23.7483 O   0  0  0  0  0  0
  -28.5210  -23.1028   19.1219 C   0  0  0  0  0  0
  -27.9442  -21.8616   19.4467 C   0  0  0  0  0  0
  -27.0170  -24.2033   20.6796 C   0  0  0  0  0  0
  -28.0544  -24.2887   19.7249 C   0  0  0  0  0  0
  -26.8633  -21.7873   20.3526 C   0  0  0  0  0  0
  -26.3831  -22.9753   20.9601 C   0  0  0  0  0  0
  -27.2174  -19.2935   23.7862 C   0  0  0  0  0  0
  -26.8347  -18.5846   22.4847 C   0  0  1  0  0  0
  -26.2715  -19.9568   22.0858 C   0  0  1  0  0  0
  -25.1798  -22.9727   21.8903 C   0  0  0  0  0  0
  -26.2357  -20.4249   20.6206 C   0  0  0  0  0  0
  -28.6377  -25.6225   19.2601 C   0  0  0  0  0  0
  -29.9583  -16.5455   21.5827 C   0  0  0  0  0  0
  -28.5164  -16.8311   22.0464 C   0  0  0  0  0  0
  -27.3434  -20.4730   22.9378 N   0  0  0  0  0  0
  -30.1467  -15.1015   21.6453 N   0  0  0  0  0  0
  -28.0533  -18.1914   21.7395 N   0  3  0  0  0  0
  -31.4670  -12.4094   19.0772 H   0  0  0  0  0  0
  -30.3346  -11.2440   19.7047 H   0  0  0  0  0  0
  -29.7111  -11.8658   17.3685 H   0  0  0  0  0  0
  -29.6574  -13.5552   17.8017 H   0  0  0  0  0  0
  -27.7896  -11.3473   18.7338 H   0  0  0  0  0  0
  -27.3563  -12.7413   17.7863 H   0  0  0  0  0  0
  -27.7458  -14.2533   19.6617 H   0  0  0  0  0  0
  -28.6654  -11.8040   21.2402 H   0  0  0  0  0  0
  -28.4422  -13.3688   21.9262 H   0  0  0  0  0  0
  -25.2728   -9.5705   22.4749 H   0  0  0  0  0  0
  -23.9994   -7.4641   22.7454 H   0  0  0  0  0  0
  -21.0815   -8.8789   19.8951 H   0  0  0  0  0  0
  -22.3648  -10.9701   19.6189 H   0  0  0  0  0  0
  -21.2039   -7.6152   23.9700 H   0  0  0  0  0  0
  -21.1472   -6.0522   25.9056 H   0  0  0  0  0  0
  -22.0591   -2.7605   23.2863 H   0  0  0  0  0  0
  -22.4161  -11.9961   22.4815 H   0  0  0  0  0  0
  -21.1150  -13.1304   22.2583 H   0  0  0  0  0  0
  -24.5918  -15.7482   20.3233 H   0  0  0  0  0  0
  -26.1558  -15.5136   19.7569 H   0  0  0  0  0  0
  -26.7093  -32.5552   23.1136 H   0  0  0  0  0  0
  -25.0050  -33.9793   25.0451 H   0  0  0  0  0  0
  -22.6908  -31.3110   21.4063 H   0  0  0  0  0  0
  -23.3743  -35.9652   23.3318 H   0  0  0  0  0  0
  -24.3589  -36.8881   22.2045 H   0  0  0  0  0  0
  -23.7263  -37.6515   23.6642 H   0  0  0  0  0  0
  -26.0417  -31.5988   20.6009 H   0  0  0  0  0  0
  -26.8134  -30.8829   21.9887 H   0  0  0  0  0  0
  -28.0822  -29.0987   21.1904 H   0  0  0  0  0  0
  -26.0548  -26.0224   18.9273 H   0  0  0  0  0  0
  -23.9866  -27.3171   18.9949 H   0  0  0  0  0  0
  -23.7008  -30.5895   19.3971 H   0  0  0  0  0  0
  -22.7322  -29.2277   19.8807 H   0  0  0  0  0  0
  -25.1290  -36.1957   25.0816 H   0  0  0  0  0  0
  -20.9902  -28.3373   24.1435 H   0  0  0  0  0  0
  -20.5687  -26.2430   23.3746 H   0  0  0  0  0  0
  -21.6657  -26.7506   22.1340 H   0  0  0  0  0  0
  -19.6929  -25.6185   21.1508 H   0  0  0  0  0  0
  -19.6719  -27.3043   20.6720 H   0  0  0  0  0  0
  -17.4188  -26.6612   21.4108 H   0  0  0  0  0  0
  -18.0306  -26.0202   22.9189 H   0  0  0  0  0  0
  -19.7848  -30.7367   24.2260 H   0  0  0  0  0  0
  -17.4908  -31.6285   24.5203 H   0  0  0  0  0  0
  -15.5271  -30.2972   23.7660 H   0  0  0  0  0  0
  -15.8655  -28.0842   22.7018 H   0  0  0  0  0  0
  -24.5941  -30.7020   25.7729 H   0  0  0  0  0  0
  -24.8967  -32.2816   26.4890 H   0  0  0  0  0  0
  -25.8123  -30.8793   27.0146 H   0  0  0  0  0  0
  -26.2873  -29.6718   24.1181 H   0  0  0  0  0  0
  -27.4187  -29.7287   25.4503 H   0  0  0  0  0  0
  -27.8680  -30.4307   23.9146 H   0  0  0  0  0  0
  -27.2707  -33.3566   26.2073 H   0  0  0  0  0  0
  -28.3865  -32.6885   25.0241 H   0  0  0  0  0  0
  -28.0798  -31.8371   26.5284 H   0  0  0  0  0  0
  -28.2604  -38.0085   24.7500 H   0  0  0  0  0  0
  -28.1076  -36.2613   24.6322 H   0  0  0  0  0  0
  -27.2306  -37.1469   25.8869 H   0  0  0  0  0  0
  -20.9257  -29.8816   21.6903 H   0  0  0  0  0  0
  -26.0186  -38.2850   24.1396 H   0  0  0  0  0  0
  -29.3161  -23.1426   18.3892 H   0  0  0  0  0  0
  -28.3182  -20.9682   18.9651 H   0  0  0  0  0  0
  -26.6576  -25.0936   21.1740 H   0  0  0  0  0  0
  -28.1425  -18.9503   24.2512 H   0  0  0  0  0  0
  -26.4041  -19.3676   24.5121 H   0  0  0  0  0  0
  -26.0750  -17.8060   22.5760 H   0  0  0  0  0  0
  -25.3130  -20.1479   22.5800 H   0  0  0  0  0  0
  -24.3648  -22.3737   21.4809 H   0  0  0  0  0  0
  -24.7897  -23.9796   22.0388 H   0  0  0  0  0  0
  -25.4462  -22.5750   22.8705 H   0  0  0  0  0  0
  -26.6941  -19.6814   19.9686 H   0  0  0  0  0  0
  -25.1992  -20.4665   20.2831 H   0  0  0  0  0  0
  -28.2881  -25.8313   18.2480 H   0  0  0  0  0  0
  -29.7171  -25.4921   19.1742 H   0  0  0  0  0  0
  -30.6810  -17.0452   22.2316 H   0  0  0  0  0  0
  -30.1200  -16.9139   20.5665 H   0  0  0  0  0  0
  -28.4492  -16.6716   23.1245 H   0  0  0  0  0  0
  -27.8154  -16.1363   21.5849 H   0  0  0  0  0  0
  -27.0696  -21.3331   23.4101 H   0  0  0  0  0  0
  -29.4502  -14.6102   22.1835 H   0  0  0  0  0  0
  -28.7373  -18.8860   21.9998 H   0  0  0  0  0  0
  -27.8944  -18.2724   20.7504 H   0  0  0  0  0  0
  1 25  1  0  0  0
  1 30  2  0  0  0
  1 86  1  0  0  0
  2  3  1  0  0  0
  2 25  1  0  0  0
  2 88  1  0  0  0
  2 89  1  0  0  0
  3  4  1  0  0  0
  3 90  1  0  0  0
  3 91  1  0  0  0
  4  5  1  0  0  0
  4 92  1  0  0  0
  4 93  1  0  0  0
  5  6  1  0  0  0
  5 26  1  0  0  0
  5 94  1  0  0  0
  6 25  1  0  0  0
  6 95  1  0  0  0
  6 96  1  0  0  0
  7  8  2  0  0  0
  7 26  1  0  0  0
  7 29  1  0  0  0
  8  9  1  0  0  0
  8 22  1  0  0  0
  9 10  1  0  0  0
  9 27  2  0  0  0
 10 11  2  0  0  0
 10 15  1  0  0  0
 11 12  1  0  0  0
 11 97  1  0  0  0
 12 13  2  0  0  0
 12 98  1  0  0  0
 13 14  1  0  0  0
 13 31  1  0  0  0
 14 15  2  0  0  0
 14 99  1  0  0  0
 15100  1  0  0  0
 16 17  2  0  0  0
 16 21  1  0  0  0
 16 31  1  0  0  0
 17 18  1  0  0  0
 17101  1  0  0  0
 18 19  2  0  0  0
 18102  1  0  0  0
 19 20  1  0  0  0
 19 24  1  0  0  0
 20 21  2  0  0  0
 20103  1  0  0  0
 21 23  1  0  0  0
 22 28  1  0  0  0
 22 32  2  0  0  0
 26 27  1  0  0  0
 28104  1  0  0  0
 28105  1  0  0  0
 29106  1  0  0  0
 29107  1  0  0  0
 33 34  1  0  0  0
 33 66  1  0  0  0
 33 70  2  0  0  0
 34 36  1  0  0  0
 34 59  1  0  0  0
 34108  1  0  0  0
 35 44  2  0  0  0
 35 45  1  0  0  0
 35 68  1  0  0  0
 36 56  1  0  0  0
 36109  1  0  0  0
 37 39  1  0  0  0
 37 47  1  0  0  0
 37 66  1  0  0  0
 37110  1  0  0  0
 38 43  2  0  0  0
 38 46  1  0  0  0
 38 47  1  0  0  0
 39 64  1  0  0  0
 39 67  2  0  0  0
 40 52  1  0  0  0
 40 53  2  0  0  0
 40 58  1  0  0  0
 41111  1  0  0  0
 41112  1  0  0  0
 41113  1  0  0  0
 41 48  1  0  0  0
 42 43  1  0  0  0
 42 66  1  0  0  0
 42114  1  0  0  0
 42115  1  0  0  0
 43 44  1  0  0  0
 44116  1  0  0  0
 45 46  2  0  0  0
 45117  1  0  0  0
 46118  1  0  0  0
 47119  1  0  0  0
 47120  1  0  0  0
 48 56  1  0  0  0
 48 65  1  0  0  0
 48121  1  0  0  0
 49 50  1  0  0  0
 49 53  1  0  0  0
 49 64  1  0  0  0
 49122  1  0  0  0
 50 51  1  0  0  0
 50123  1  0  0  0
 50124  1  0  0  0
 51 52  1  0  0  0
 51125  1  0  0  0
 51126  1  0  0  0
 52127  1  0  0  0
 52128  1  0  0  0
 53 54  1  0  0  0
 54 55  2  0  0  0
 54129  1  0  0  0
 55 57  1  0  0  0
 55130  1  0  0  0
 56 69  2  0  0  0
 57 58  2  0  0  0
 57131  1  0  0  0
 58132  1  0  0  0
 59 60  1  0  0  0
 59 61  1  0  0  0
 59 62  1  0  0  0
 60133  1  0  0  0
 60134  1  0  0  0
 60135  1  0  0  0
 61136  1  0  0  0
 61137  1  0  0  0
 61138  1  0  0  0
 62139  1  0  0  0
 62140  1  0  0  0
 62141  1  0  0  0
 63 65  1  0  0  0
 63142  1  0  0  0
 63143  1  0  0  0
 63144  1  0  0  0
 64145  1  0  0  0
 65146  1  0  0  0
 68 82  1  0  0  0
 71 72  2  0  0  0
 71 74  1  0  0  0
 71147  1  0  0  0
 72 75  1  0  0  0
 72148  1  0  0  0
 73 74  2  0  0  0
 73 76  1  0  0  0
 73149  1  0  0  0
 74 82  1  0  0  0
 75 76  2  0  0  0
 75 81  1  0  0  0
 76 80  1  0  0  0
 77 78  1  0  0  0
 77 85  1  0  0  0
 77150  1  0  0  0
 77151  1  0  0  0
 78 79  1  0  0  0
 78 87  1  0  0  0
 78152  1  0  0  0
 79 81  1  0  0  0
 79 85  1  0  0  0
 79153  1  0  0  0
 80154  1  0  0  0
 80155  1  0  0  0
 80156  1  0  0  0
 81157  1  0  0  0
 81158  1  0  0  0
 82159  1  0  0  0
 82160  1  0  0  0
 83 84  1  0  0  0
 83 86  1  0  0  0
 83161  1  0  0  0
 83162  1  0  0  0
 84 87  1  0  0  0
 84163  1  0  0  0
 84164  1  0  0  0
 85165  1  0  0  0
 86166  1  0  0  0
 87167  1  0  0  0
 87168  1  0  0  0
M  CHG  1  87   1
M  ISO  4   1 100  68 101  82 101  86 100
M  END
> <chiral flag>
0

> <version>
0

> <s_m_source_file>
/data/baiqing/PycharmProjects/Reinvent-master-3.2/result/LINK_invent/BTK/process_docking_weight1_custom_sum_contain_oxygen_bond_distance_aromatic_linkinvent_7_9_3/rearranged_h_0122.sdf

> <i_m_source_file_index>
65

> <r_mmod_Potential_Energy-OPLS-2005>
-239.106826782227

> <r_mmod_Stretch_Energy-OPLS-2005>
33.88916015625

> <r_mmod_Bend_Energy-OPLS-2005>
122.654945373535

> <r_mmod_Torsional_Energy-OPLS-2005>
242.735549926758

> <r_mmod_Improper_Torsional_Energy-OPLS-2005>
7.91137790679932

> <r_mmod_Van_der_Waal_Energy-OPLS-2005>
166.950698852539

> <r_mmod_Electrostatic_Energy-OPLS-2005>
-350.669006347656

> <r_mmod_Solvation_Energy-OPLS-2005>
-473.232055664062

> <b_mmod_Minimization_Converged-OPLS-2005>
0

> <r_mmod_RMS_Derivative-OPLS-2005>
3.56245899200439

$$$$
65
                    3D
 Structure written by MMmdl.
152160  0  0  1  0            999 V2000
  -30.5697  -14.8879   20.4179 C   0  0  0  0  0  0
  -30.4299  -12.5431   19.5012 C   0  0  0  0  0  0
  -29.5141  -12.5128   18.2561 C   0  0  0  0  0  0
  -28.0453  -12.3143   18.6722 C   0  0  0  0  0  0
  -27.6289  -13.2456   19.8414 C   0  0  2  0  0  0
  -28.6710  -13.2595   20.9815 C   0  0  0  0  0  0
  -25.2441  -13.8227   20.5705 C   0  0  0  0  0  0
  -24.1768  -13.0448   20.9237 C   0  0  0  0  0  0
  -24.6384  -11.6934   20.8769 C   0  0  0  0  0  0
  -23.9069  -10.4298   21.0401 C   0  0  0  0  0  0
  -24.3619   -9.4215   21.9178 C   0  0  0  0  0  0
  -23.6300   -8.2248   22.0751 C   0  0  0  0  0  0
  -22.4281   -8.0280   21.3545 C   0  0  0  0  0  0
  -21.9917   -9.0248   20.4638 C   0  0  0  0  0  0
  -22.7242  -10.2130   20.3047 C   0  0  0  0  0  0
  -21.6856   -6.0731   22.5274 C   0  0  0  0  0  0
  -21.4023   -6.5637   23.8209 C   0  0  0  0  0  0
  -21.3669   -5.6792   24.9172 C   0  0  0  0  0  0
  -21.6051   -4.3055   24.7219 C   0  0  0  0  0  0
  -21.8817   -3.8143   23.4340 C   0  0  0  0  0  0
  -21.9190   -4.6958   22.3396 C   0  0  0  0  0  0
  -22.7788  -13.5214   21.1878 C   0  0  0  0  0  0
  -22.1655   -4.2146   21.0972 F   0  0  0  0  0  0
  -21.5629   -3.4537   25.7731 F   0  0  0  0  0  0
  -29.9551  -13.6427   20.3867 N   0  0  0  0  0  0
  -26.2868  -12.9456   20.3260 N   0  0  0  0  0  0
  -25.9317  -11.6593   20.5772 N   0  0  0  0  0  0
  -22.0437  -12.8211   22.0436 N   0  0  0  0  0  0
  -25.4085  -15.1962   20.4097 N   0  0  0  0  0  0
  -31.7664  -14.9386   20.1185 O   0  0  0  0  0  0
  -21.6652   -6.8874   21.4237 O   0  0  0  0  0  0
  -22.3466  -14.5505   20.6701 O   0  0  0  0  0  0
  -24.6399  -31.8449   23.1887 C   0  0  0  0  0  0
  -25.9201  -32.4681   23.8259 C   0  0  1  0  0  0
  -27.2226  -27.1759   20.1468 C   0  0  0  0  0  0
  -25.5968  -33.8482   24.2199 N   0  0  0  0  0  0
  -23.4415  -30.4641   21.5314 C   0  0  2  0  0  0
  -24.8893  -28.8906   20.1070 C   0  0  0  0  0  0
  -22.7542  -29.4556   22.4853 C   0  0  0  0  0  0
  -18.0304  -28.1399   22.8485 C   0  0  0  0  0  0
  -24.1483  -36.7210   23.2653 C   0  0  0  0  0  0
  -25.9928  -30.7296   21.3830 C   0  0  0  0  0  0
  -26.0612  -29.3457   20.7214 C   0  0  0  0  0  0
  -27.2256  -28.5026   20.7245 C   0  0  0  0  0  0
  -26.0251  -26.7985   19.5042 C   0  0  0  0  0  0
  -24.8806  -27.6293   19.4865 C   0  0  0  0  0  0
  -23.6652  -29.7918   20.1494 C   0  0  0  0  0  0
  -25.4118  -36.3006   24.0330 C   0  0  1  0  0  0
  -20.5909  -28.3715   23.1237 C   0  0  2  0  0  0
  -20.6783  -26.9425   22.5402 C   0  0  0  0  0  0
  -19.5760  -26.6391   21.5204 C   0  0  0  0  0  0
  -18.1938  -26.7949   22.1614 C   0  0  0  0  0  0
  -19.1561  -28.8877   23.2860 C   0  0  0  0  0  0
  -18.9490  -30.1473   23.8886 C   0  0  0  0  0  0
  -17.6484  -30.6603   24.0560 C   0  0  0  0  0  0
  -25.9075  -34.9390   23.5070 C   0  0  0  0  0  0
  -16.5370  -29.9097   23.6345 C   0  0  0  0  0  0
  -16.7289  -28.6511   23.0381 C   0  0  0  0  0  0
  -26.4562  -31.6541   25.0685 C   0  0  0  0  0  0
  -25.3788  -31.3683   26.1409 C   0  0  0  0  0  0
  -27.0467  -30.2953   24.6257 C   0  0  0  0  0  0
  -27.6098  -32.4317   25.7457 C   0  0  0  0  0  0
  -27.5567  -37.1759   24.8487 C   0  0  0  0  0  0
  -21.4241  -29.3037   22.3599 N   0  0  0  0  0  0
  -26.4276  -37.3729   23.9432 N   0  0  0  0  0  0
  -24.7103  -31.0350   22.0885 N   0  0  0  0  0  0
  -23.4193  -28.8129   23.3021 O   0  0  0  0  0  0
  -28.3255  -26.2718   20.2443 O   0  0  0  0  0  0
  -26.5651  -34.8900   22.4641 O   0  0  0  0  0  0
  -23.5531  -32.1305   23.7137 O   0  0  0  0  0  0
  -30.3465  -19.9993   21.1471 C   0  0  0  0  0  0
  -29.9799  -21.3932   21.2100 C   0  0  0  0  0  0
  -28.5085  -19.6585   19.7379 C   0  0  0  0  0  0
  -29.6199  -19.0239   20.3957 C   0  0  0  0  0  0
  -28.8502  -21.9434   20.5284 C   0  0  0  0  0  0
  -28.6962  -23.9297   22.2137 C   0  0  0  0  0  0
  -30.2400  -17.5248   20.0857 C   0  0  0  0  0  0
  -28.3963  -24.7910   19.8082 C   0  0  0  0  0  0
  -28.2773  -23.4694   20.8066 C   0  0  1  0  0  0
  -28.1376  -21.0054   19.8145 N   0  0  0  0  0  0
  -29.8227  -16.0854   20.5440 N   0  0  0  0  0  0
  -31.4666  -12.6806   19.1899 H   0  0  0  0  0  0
  -30.4012  -11.5881   20.0285 H   0  0  0  0  0  0
  -29.8202  -11.7150   17.5781 H   0  0  0  0  0  0
  -29.6165  -13.4457   17.6997 H   0  0  0  0  0  0
  -27.9306  -11.2728   18.9749 H   0  0  0  0  0  0
  -27.3839  -12.4557   17.8160 H   0  0  0  0  0  0
  -27.5977  -14.2504   19.4205 H   0  0  0  0  0  0
  -28.7417  -12.2847   21.4666 H   0  0  0  0  0  0
  -28.3824  -13.9718   21.7557 H   0  0  0  0  0  0
  -25.2752   -9.5707   22.4765 H   0  0  0  0  0  0
  -24.0007   -7.4648   22.7484 H   0  0  0  0  0  0
  -21.0844   -8.8769   19.8946 H   0  0  0  0  0  0
  -22.3688  -10.9673   19.6168 H   0  0  0  0  0  0
  -21.2021   -7.6147   23.9711 H   0  0  0  0  0  0
  -21.1500   -6.0521   25.9077 H   0  0  0  0  0  0
  -22.0585   -2.7602   23.2838 H   0  0  0  0  0  0
  -22.4058  -11.9896   22.4867 H   0  0  0  0  0  0
  -21.1037  -13.1219   22.2600 H   0  0  0  0  0  0
  -24.6353  -15.8441   20.5159 H   0  0  0  0  0  0
  -26.2441  -15.6369   20.0476 H   0  0  0  0  0  0
  -26.7255  -32.5299   23.0974 H   0  0  0  0  0  0
  -25.0135  -33.9582   25.0360 H   0  0  0  0  0  0
  -22.7434  -31.2901   21.3774 H   0  0  0  0  0  0
  -23.3762  -35.9526   23.3315 H   0  0  0  0  0  0
  -24.3568  -36.8827   22.2067 H   0  0  0  0  0  0
  -23.7216  -37.6399   23.6681 H   0  0  0  0  0  0
  -26.1581  -31.4918   20.6201 H   0  0  0  0  0  0
  -26.8581  -30.7651   22.0336 H   0  0  0  0  0  0
  -28.1221  -28.8475   21.2204 H   0  0  0  0  0  0
  -25.9411  -25.8263   19.0413 H   0  0  0  0  0  0
  -23.9811  -27.2733   19.0037 H   0  0  0  0  0  0
  -23.8065  -30.5669   19.3948 H   0  0  0  0  0  0
  -22.7801  -29.2365   19.8342 H   0  0  0  0  0  0
  -25.1303  -36.1828   25.0820 H   0  0  0  0  0  0
  -21.0012  -28.3314   24.1354 H   0  0  0  0  0  0
  -20.5677  -26.2333   23.3618 H   0  0  0  0  0  0
  -21.6649  -26.7442   22.1200 H   0  0  0  0  0  0
  -19.6920  -25.6303   21.1237 H   0  0  0  0  0  0
  -19.6694  -27.3203   20.6732 H   0  0  0  0  0  0
  -17.4210  -26.6708   21.4010 H   0  0  0  0  0  0
  -18.0333  -26.0093   22.9008 H   0  0  0  0  0  0
  -19.7967  -30.7287   24.2252 H   0  0  0  0  0  0
  -17.5049  -31.6288   24.5154 H   0  0  0  0  0  0
  -15.5374  -30.2999   23.7694 H   0  0  0  0  0  0
  -15.8682  -28.0813   22.7130 H   0  0  0  0  0  0
  -24.5985  -30.7007   25.7739 H   0  0  0  0  0  0
  -24.8970  -32.2843   26.4833 H   0  0  0  0  0  0
  -25.8130  -30.8867   27.0185 H   0  0  0  0  0  0
  -26.3081  -29.6616   24.1339 H   0  0  0  0  0  0
  -27.4196  -29.7300   25.4813 H   0  0  0  0  0  0
  -27.8933  -30.4206   23.9503 H   0  0  0  0  0  0
  -27.2695  -33.3646   26.1961 H   0  0  0  0  0  0
  -28.3939  -32.6828   25.0298 H   0  0  0  0  0  0
  -28.0746  -31.8496   26.5429 H   0  0  0  0  0  0
  -28.2598  -38.0045   24.7534 H   0  0  0  0  0  0
  -28.1048  -36.2577   24.6316 H   0  0  0  0  0  0
  -27.2289  -37.1407   25.8894 H   0  0  0  0  0  0
  -20.9461  -29.8695   21.6721 H   0  0  0  0  0  0
  -26.0135  -38.2791   24.1460 H   0  0  0  0  0  0
  -31.2410  -19.6873   21.6675 H   0  0  0  0  0  0
  -30.5838  -22.0443   21.8278 H   0  0  0  0  0  0
  -27.9029  -19.0661   19.0687 H   0  0  0  0  0  0
  -28.4640  -23.1730   22.9629 H   0  0  0  0  0  0
  -28.1688  -24.8405   22.4980 H   0  0  0  0  0  0
  -29.7639  -24.1435   22.2626 H   0  0  0  0  0  0
  -31.3015  -17.6048   20.3254 H   0  0  0  0  0  0
  -30.2323  -17.4577   18.9973 H   0  0  0  0  0  0
  -29.4040  -24.7242   19.3973 H   0  0  0  0  0  0
  -27.7608  -24.6295   18.9386 H   0  0  0  0  0  0
  -27.2006  -23.3118   20.8851 H   0  0  0  0  0  0
  -28.8505  -15.9629   20.7829 H   0  0  0  0  0  0
  1 25  1  0  0  0
  1 30  2  0  0  0
  1 81  1  0  0  0
  2  3  1  0  0  0
  2 25  1  0  0  0
  2 82  1  0  0  0
  2 83  1  0  0  0
  3  4  1  0  0  0
  3 84  1  0  0  0
  3 85  1  0  0  0
  4  5  1  0  0  0
  4 86  1  0  0  0
  4 87  1  0  0  0
  5  6  1  0  0  0
  5 26  1  0  0  0
  5 88  1  0  0  0
  6 25  1  0  0  0
  6 89  1  0  0  0
  6 90  1  0  0  0
  7  8  2  0  0  0
  7 26  1  0  0  0
  7 29  1  0  0  0
  8  9  1  0  0  0
  8 22  1  0  0  0
  9 10  1  0  0  0
  9 27  2  0  0  0
 10 11  2  0  0  0
 10 15  1  0  0  0
 11 12  1  0  0  0
 11 91  1  0  0  0
 12 13  2  0  0  0
 12 92  1  0  0  0
 13 14  1  0  0  0
 13 31  1  0  0  0
 14 15  2  0  0  0
 14 93  1  0  0  0
 15 94  1  0  0  0
 16 17  2  0  0  0
 16 21  1  0  0  0
 16 31  1  0  0  0
 17 18  1  0  0  0
 17 95  1  0  0  0
 18 19  2  0  0  0
 18 96  1  0  0  0
 19 20  1  0  0  0
 19 24  1  0  0  0
 20 21  2  0  0  0
 20 97  1  0  0  0
 21 23  1  0  0  0
 22 28  1  0  0  0
 22 32  2  0  0  0
 26 27  1  0  0  0
 28 98  1  0  0  0
 28 99  1  0  0  0
 29100  1  0  0  0
 29101  1  0  0  0
 33 34  1  0  0  0
 33 66  1  0  0  0
 33 70  2  0  0  0
 34 36  1  0  0  0
 34 59  1  0  0  0
 34102  1  0  0  0
 35 44  2  0  0  0
 35 45  1  0  0  0
 35 68  1  0  0  0
 36 56  1  0  0  0
 36103  1  0  0  0
 37 39  1  0  0  0
 37 47  1  0  0  0
 37 66  1  0  0  0
 37104  1  0  0  0
 38 43  2  0  0  0
 38 46  1  0  0  0
 38 47  1  0  0  0
 39 64  1  0  0  0
 39 67  2  0  0  0
 40 52  1  0  0  0
 40 53  2  0  0  0
 40 58  1  0  0  0
 41105  1  0  0  0
 41106  1  0  0  0
 41107  1  0  0  0
 41 48  1  0  0  0
 42 43  1  0  0  0
 42 66  1  0  0  0
 42108  1  0  0  0
 42109  1  0  0  0
 43 44  1  0  0  0
 44110  1  0  0  0
 45 46  2  0  0  0
 45111  1  0  0  0
 46112  1  0  0  0
 47113  1  0  0  0
 47114  1  0  0  0
 48 56  1  0  0  0
 48 65  1  0  0  0
 48115  1  0  0  0
 49 50  1  0  0  0
 49 53  1  0  0  0
 49 64  1  0  0  0
 49116  1  0  0  0
 50 51  1  0  0  0
 50117  1  0  0  0
 50118  1  0  0  0
 51 52  1  0  0  0
 51119  1  0  0  0
 51120  1  0  0  0
 52121  1  0  0  0
 52122  1  0  0  0
 53 54  1  0  0  0
 54 55  2  0  0  0
 54123  1  0  0  0
 55 57  1  0  0  0
 55124  1  0  0  0
 56 69  2  0  0  0
 57 58  2  0  0  0
 57125  1  0  0  0
 58126  1  0  0  0
 59 60  1  0  0  0
 59 61  1  0  0  0
 59 62  1  0  0  0
 60127  1  0  0  0
 60128  1  0  0  0
 60129  1  0  0  0
 61130  1  0  0  0
 61131  1  0  0  0
 61132  1  0  0  0
 62133  1  0  0  0
 62134  1  0  0  0
 62135  1  0  0  0
 63 65  1  0  0  0
 63136  1  0  0  0
 63137  1  0  0  0
 63138  1  0  0  0
 64139  1  0  0  0
 65140  1  0  0  0
 68 78  1  0  0  0
 71 72  2  0  0  0
 71 74  1  0  0  0
 71141  1  0  0  0
 72 75  1  0  0  0
 72142  1  0  0  0
 73 74  2  0  0  0
 73 80  1  0  0  0
 73143  1  0  0  0
 74 77  1  0  0  0
 75 79  1  0  0  0
 75 80  2  0  0  0
 76144  1  0  0  0
 76145  1  0  0  0
 76146  1  0  0  0
 76 79  1  0  0  0
 77 81  1  0  0  0
 77147  1  0  0  0
 77148  1  0  0  0
 78 79  1  0  0  0
 78149  1  0  0  0
 78150  1  0  0  0
 79151  1  0  0  0
 81152  1  0  0  0
M  ISO  4   1 100  68 101  78 101  81 100
M  END
> <chiral flag>
0

> <version>
0

> <s_m_source_file>
/data/baiqing/PycharmProjects/Reinvent-master-3.2/result/LINK_invent/BTK/process_docking_weight1_custom_sum_contain_oxygen_bond_distance_aromatic_linkinvent_7_9_3/rearranged_h_0122.sdf

> <i_m_source_file_index>
66

> <r_mmod_Potential_Energy-OPLS-2005>
276.340118408203

> <r_mmod_Stretch_Energy-OPLS-2005>
205.018630981445

> <r_mmod_Bend_Energy-OPLS-2005>
268.704711914062

> <r_mmod_Torsional_Energy-OPLS-2005>
215.179336547852

> <r_mmod_Improper_Torsional_Energy-OPLS-2005>
9.72816944122314

> <r_mmod_Van_der_Waal_Energy-OPLS-2005>
134.593841552734

> <r_mmod_Electrostatic_Energy-OPLS-2005>
-486.41259765625

> <r_mmod_Solvation_Energy-OPLS-2005>
-222.21061706543

> <b_mmod_Minimization_Converged-OPLS-2005>
0

> <r_mmod_RMS_Derivative-OPLS-2005>
1.82885837554932

$$$$
66
                    3D
 Structure written by MMmdl.
160169  0  0  1  0            999 V2000
  -30.5731  -14.8604   20.4418 C   0  0  0  0  0  0
  -30.4387  -12.5297   19.4894 C   0  0  0  0  0  0
  -29.5181  -12.5266   18.2474 C   0  0  0  0  0  0
  -28.0460  -12.3323   18.6598 C   0  0  0  0  0  0
  -27.6369  -13.2436   19.8471 C   0  0  2  0  0  0
  -28.6815  -13.2249   20.9839 C   0  0  0  0  0  0
  -25.2488  -13.8215   20.5709 C   0  0  0  0  0  0
  -24.1795  -13.0441   20.9215 C   0  0  0  0  0  0
  -24.6403  -11.6925   20.8746 C   0  0  0  0  0  0
  -23.9083  -10.4291   21.0397 C   0  0  0  0  0  0
  -24.3625   -9.4207   21.9177 C   0  0  0  0  0  0
  -23.6297   -8.2245   22.0753 C   0  0  0  0  0  0
  -22.4281   -8.0279   21.3539 C   0  0  0  0  0  0
  -21.9915   -9.0253   20.4644 C   0  0  0  0  0  0
  -22.7251  -10.2128   20.3053 C   0  0  0  0  0  0
  -21.6855   -6.0734   22.5275 C   0  0  0  0  0  0
  -21.4018   -6.5638   23.8209 C   0  0  0  0  0  0
  -21.3662   -5.6790   24.9169 C   0  0  0  0  0  0
  -21.6043   -4.3053   24.7218 C   0  0  0  0  0  0
  -21.8824   -3.8146   23.4340 C   0  0  0  0  0  0
  -21.9196   -4.6962   22.3397 C   0  0  0  0  0  0
  -22.7815  -13.5211   21.1864 C   0  0  0  0  0  0
  -22.1665   -4.2152   21.0974 F   0  0  0  0  0  0
  -21.5627   -3.4536   25.7728 F   0  0  0  0  0  0
  -29.9697  -13.6120   20.3950 N   0  0  0  0  0  0
  -26.2924  -12.9444   20.3276 N   0  0  0  0  0  0
  -25.9338  -11.6573   20.5742 N   0  0  0  0  0  0
  -22.0467  -12.8197   22.0415 N   0  0  0  0  0  0
  -25.4149  -15.1946   20.4139 N   0  0  0  0  0  0
  -31.7669  -14.9466   20.1388 O   0  0  0  0  0  0
  -21.6646   -6.8876   21.4237 O   0  0  0  0  0  0
  -22.3495  -14.5511   20.6706 O   0  0  0  0  0  0
  -24.6397  -31.8484   23.1909 C   0  0  0  0  0  0
  -25.9194  -32.4707   23.8286 C   0  0  1  0  0  0
  -27.2171  -27.1753   20.1272 C   0  0  0  0  0  0
  -25.5957  -33.8512   24.2209 N   0  0  0  0  0  0
  -23.4404  -30.4713   21.5354 C   0  0  2  0  0  0
  -24.8874  -28.9064   20.1060 C   0  0  0  0  0  0
  -22.7541  -29.4595   22.4860 C   0  0  0  0  0  0
  -18.0298  -28.1395   22.8474 C   0  0  0  0  0  0
  -24.1490  -36.7264   23.2643 C   0  0  0  0  0  0
  -25.9946  -30.7322   21.3850 C   0  0  0  0  0  0
  -26.0637  -29.3487   20.7223 C   0  0  0  0  0  0
  -27.2253  -28.4956   20.7241 C   0  0  0  0  0  0
  -26.0060  -26.8211   19.4875 C   0  0  0  0  0  0
  -24.8689  -27.6534   19.4783 C   0  0  0  0  0  0
  -23.6631  -29.8038   20.1531 C   0  0  0  0  0  0
  -25.4120  -36.3043   24.0318 C   0  0  1  0  0  0
  -20.5908  -28.3737   23.1234 C   0  0  2  0  0  0
  -20.6787  -26.9441   22.5400 C   0  0  0  0  0  0
  -19.5766  -26.6389   21.5204 C   0  0  0  0  0  0
  -18.1945  -26.7932   22.1618 C   0  0  0  0  0  0
  -19.1554  -28.8876   23.2851 C   0  0  0  0  0  0
  -18.9474  -30.1473   23.8875 C   0  0  0  0  0  0
  -17.6474  -30.6593   24.0558 C   0  0  0  0  0  0
  -25.9070  -34.9414   23.5067 C   0  0  0  0  0  0
  -16.5362  -29.9083   23.6335 C   0  0  0  0  0  0
  -16.7285  -28.6502   23.0351 C   0  0  0  0  0  0
  -26.4522  -31.6557   25.0713 C   0  0  0  0  0  0
  -25.3717  -31.3749   26.1414 C   0  0  0  0  0  0
  -27.0390  -30.2952   24.6293 C   0  0  0  0  0  0
  -27.6049  -32.4321   25.7505 C   0  0  0  0  0  0
  -27.5573  -37.1794   24.8462 C   0  0  0  0  0  0
  -21.4233  -29.3085   22.3614 N   0  0  0  0  0  0
  -26.4284  -37.3751   23.9407 N   0  0  0  0  0  0
  -24.7110  -31.0380   22.0921 N   0  0  0  0  0  0
  -23.4201  -28.8133   23.2991 O   0  0  0  0  0  0
  -28.2821  -26.2188   20.2431 O   0  0  0  0  0  0
  -26.5651  -34.8904   22.4646 O   0  0  0  0  0  0
  -23.5530  -32.1342   23.7156 O   0  0  0  0  0  0
  -28.6869  -20.9200   19.1503 C   0  0  0  0  0  0
  -28.4870  -22.3298   18.9342 C   0  0  0  0  0  0
  -29.2166  -21.3636   21.4163 C   0  0  0  0  0  0
  -28.9993  -22.7994   21.1946 C   0  0  0  0  0  0
  -29.0453  -20.3398   20.4019 C   0  0  0  0  0  0
  -28.6060  -23.3557   19.9270 C   0  0  0  0  0  0
  -29.6180  -20.9600   22.8290 C   0  0  0  0  0  0
  -29.2229  -23.7562   22.3619 C   0  0  0  0  0  0
  -28.7426  -21.6766   23.8620 C   0  0  0  0  0  0
  -28.8174  -23.2104   23.7491 C   0  0  0  0  0  0
  -28.9555  -18.7112   20.6327 C   0  0  0  0  0  0
  -28.3742  -24.9122   19.4445 C   0  0  0  0  0  0
  -30.1199  -17.5433   20.4455 C   0  0  0  0  0  0
  -29.7933  -16.0188   20.6183 N   0  0  0  0  0  0
  -31.4758  -12.6734   19.1826 H   0  0  0  0  0  0
  -30.4079  -11.5646   19.9981 H   0  0  0  0  0  0
  -29.8196  -11.7420   17.5529 H   0  0  0  0  0  0
  -29.6271  -13.4703   17.7103 H   0  0  0  0  0  0
  -27.9174  -11.2853   18.9358 H   0  0  0  0  0  0
  -27.3886  -12.5050   17.8069 H   0  0  0  0  0  0
  -27.6143  -14.2574   19.4460 H   0  0  0  0  0  0
  -28.7463  -12.2374   21.4438 H   0  0  0  0  0  0
  -28.3980  -13.9160   21.7790 H   0  0  0  0  0  0
  -25.2767   -9.5690   22.4750 H   0  0  0  0  0  0
  -24.0009   -7.4643   22.7474 H   0  0  0  0  0  0
  -21.0847   -8.8767   19.8950 H   0  0  0  0  0  0
  -22.3704  -10.9662   19.6162 H   0  0  0  0  0  0
  -21.2016   -7.6149   23.9711 H   0  0  0  0  0  0
  -21.1479   -6.0519   25.9070 H   0  0  0  0  0  0
  -22.0603   -2.7610   23.2834 H   0  0  0  0  0  0
  -22.4097  -11.9869   22.4812 H   0  0  0  0  0  0
  -21.1082  -13.1209   22.2614 H   0  0  0  0  0  0
  -24.6411  -15.8419   20.5201 H   0  0  0  0  0  0
  -26.2539  -15.6365   20.0616 H   0  0  0  0  0  0
  -26.7258  -32.5325   23.1016 H   0  0  0  0  0  0
  -25.0088  -33.9636   25.0345 H   0  0  0  0  0  0
  -22.7416  -31.2972   21.3839 H   0  0  0  0  0  0
  -23.3753  -35.9598   23.3299 H   0  0  0  0  0  0
  -24.3577  -36.8902   22.2061 H   0  0  0  0  0  0
  -23.7240  -37.6457   23.6682 H   0  0  0  0  0  0
  -26.1490  -31.4919   20.6167 H   0  0  0  0  0  0
  -26.8652  -30.7775   22.0275 H   0  0  0  0  0  0
  -28.1189  -28.8275   21.2334 H   0  0  0  0  0  0
  -25.8696  -25.8548   19.0319 H   0  0  0  0  0  0
  -23.9639  -27.3031   19.0011 H   0  0  0  0  0  0
  -23.7967  -30.5800   19.3979 H   0  0  0  0  0  0
  -22.7780  -29.2452   19.8419 H   0  0  0  0  0  0
  -25.1308  -36.1877   25.0809 H   0  0  0  0  0  0
  -21.0003  -28.3327   24.1355 H   0  0  0  0  0  0
  -20.5669  -26.2353   23.3621 H   0  0  0  0  0  0
  -21.6655  -26.7447   22.1206 H   0  0  0  0  0  0
  -19.6938  -25.6291   21.1253 H   0  0  0  0  0  0
  -19.6695  -27.3180   20.6716 H   0  0  0  0  0  0
  -17.4211  -26.6662   21.4028 H   0  0  0  0  0  0
  -18.0362  -26.0075   22.9018 H   0  0  0  0  0  0
  -19.7953  -30.7296   24.2227 H   0  0  0  0  0  0
  -17.5027  -31.6268   24.5172 H   0  0  0  0  0  0
  -15.5360  -30.2983   23.7670 H   0  0  0  0  0  0
  -15.8683  -28.0816   22.7077 H   0  0  0  0  0  0
  -24.5892  -30.7097   25.7739 H   0  0  0  0  0  0
  -24.8914  -32.2940   26.4788 H   0  0  0  0  0  0
  -25.8008  -30.8953   27.0221 H   0  0  0  0  0  0
  -26.3011  -29.6674   24.1285 H   0  0  0  0  0  0
  -27.3984  -29.7249   25.4871 H   0  0  0  0  0  0
  -27.8925  -30.4181   23.9621 H   0  0  0  0  0  0
  -27.2633  -33.3630   26.2042 H   0  0  0  0  0  0
  -28.3889  -32.6877   25.0362 H   0  0  0  0  0  0
  -28.0687  -31.8475   26.5460 H   0  0  0  0  0  0
  -28.2585  -38.0095   24.7501 H   0  0  0  0  0  0
  -28.1073  -36.2623   24.6295 H   0  0  0  0  0  0
  -27.2296  -37.1446   25.8867 H   0  0  0  0  0  0
  -20.9426  -29.8817   21.6818 H   0  0  0  0  0  0
  -26.0153  -38.2822   24.1400 H   0  0  0  0  0  0
  -28.5106  -20.2565   18.3141 H   0  0  0  0  0  0
  -28.2138  -22.6342   17.9332 H   0  0  0  0  0  0
  -30.6652  -21.2261   22.9796 H   0  0  0  0  0  0
  -29.5614  -19.8844   22.9835 H   0  0  0  0  0  0
  -28.7023  -24.6981   22.1943 H   0  0  0  0  0  0
  -30.2864  -23.9977   22.3701 H   0  0  0  0  0  0
  -29.0126  -21.3644   24.8716 H   0  0  0  0  0  0
  -27.7092  -21.3598   23.7165 H   0  0  0  0  0  0
  -27.8398  -23.6124   24.0196 H   0  0  0  0  0  0
  -29.5071  -23.6085   24.4948 H   0  0  0  0  0  0
  -28.1520  -18.4057   19.9622 H   0  0  0  0  0  0
  -28.5143  -18.5606   21.6170 H   0  0  0  0  0  0
  -27.5974  -24.8682   18.6875 H   0  0  0  0  0  0
  -29.2611  -25.0930   18.8374 H   0  0  0  0  0  0
  -30.5415  -17.6531   19.4461 H   0  0  0  0  0  0
  -30.9376  -17.7727   21.1301 H   0  0  0  0  0  0
  -28.8288  -15.8203   20.8390 H   0  0  0  0  0  0
  1 25  1  0  0  0
  1 30  2  0  0  0
  1 84  1  0  0  0
  2  3  1  0  0  0
  2 25  1  0  0  0
  2 85  1  0  0  0
  2 86  1  0  0  0
  3  4  1  0  0  0
  3 87  1  0  0  0
  3 88  1  0  0  0
  4  5  1  0  0  0
  4 89  1  0  0  0
  4 90  1  0  0  0
  5  6  1  0  0  0
  5 26  1  0  0  0
  5 91  1  0  0  0
  6 25  1  0  0  0
  6 92  1  0  0  0
  6 93  1  0  0  0
  7  8  2  0  0  0
  7 26  1  0  0  0
  7 29  1  0  0  0
  8  9  1  0  0  0
  8 22  1  0  0  0
  9 10  1  0  0  0
  9 27  2  0  0  0
 10 11  2  0  0  0
 10 15  1  0  0  0
 11 12  1  0  0  0
 11 94  1  0  0  0
 12 13  2  0  0  0
 12 95  1  0  0  0
 13 14  1  0  0  0
 13 31  1  0  0  0
 14 15  2  0  0  0
 14 96  1  0  0  0
 15 97  1  0  0  0
 16 17  2  0  0  0
 16 21  1  0  0  0
 16 31  1  0  0  0
 17 18  1  0  0  0
 17 98  1  0  0  0
 18 19  2  0  0  0
 18 99  1  0  0  0
 19 20  1  0  0  0
 19 24  1  0  0  0
 20 21  2  0  0  0
 20100  1  0  0  0
 21 23  1  0  0  0
 22 28  1  0  0  0
 22 32  2  0  0  0
 26 27  1  0  0  0
 28101  1  0  0  0
 28102  1  0  0  0
 29103  1  0  0  0
 29104  1  0  0  0
 33 34  1  0  0  0
 33 66  1  0  0  0
 33 70  2  0  0  0
 34 36  1  0  0  0
 34 59  1  0  0  0
 34105  1  0  0  0
 35 44  2  0  0  0
 35 45  1  0  0  0
 35 68  1  0  0  0
 36 56  1  0  0  0
 36106  1  0  0  0
 37 39  1  0  0  0
 37 47  1  0  0  0
 37 66  1  0  0  0
 37107  1  0  0  0
 38 43  2  0  0  0
 38 46  1  0  0  0
 38 47  1  0  0  0
 39 64  1  0  0  0
 39 67  2  0  0  0
 40 52  1  0  0  0
 40 53  2  0  0  0
 40 58  1  0  0  0
 41108  1  0  0  0
 41109  1  0  0  0
 41110  1  0  0  0
 41 48  1  0  0  0
 42 43  1  0  0  0
 42 66  1  0  0  0
 42111  1  0  0  0
 42112  1  0  0  0
 43 44  1  0  0  0
 44113  1  0  0  0
 45 46  2  0  0  0
 45114  1  0  0  0
 46115  1  0  0  0
 47116  1  0  0  0
 47117  1  0  0  0
 48 56  1  0  0  0
 48 65  1  0  0  0
 48118  1  0  0  0
 49 50  1  0  0  0
 49 53  1  0  0  0
 49 64  1  0  0  0
 49119  1  0  0  0
 50 51  1  0  0  0
 50120  1  0  0  0
 50121  1  0  0  0
 51 52  1  0  0  0
 51122  1  0  0  0
 51123  1  0  0  0
 52124  1  0  0  0
 52125  1  0  0  0
 53 54  1  0  0  0
 54 55  2  0  0  0
 54126  1  0  0  0
 55 57  1  0  0  0
 55127  1  0  0  0
 56 69  2  0  0  0
 57 58  2  0  0  0
 57128  1  0  0  0
 58129  1  0  0  0
 59 60  1  0  0  0
 59 61  1  0  0  0
 59 62  1  0  0  0
 60130  1  0  0  0
 60131  1  0  0  0
 60132  1  0  0  0
 61133  1  0  0  0
 61134  1  0  0  0
 61135  1  0  0  0
 62136  1  0  0  0
 62137  1  0  0  0
 62138  1  0  0  0
 63 65  1  0  0  0
 63139  1  0  0  0
 63140  1  0  0  0
 63141  1  0  0  0
 64142  1  0  0  0
 65143  1  0  0  0
 68 82  1  0  0  0
 71 72  2  0  0  0
 71 75  1  0  0  0
 71144  1  0  0  0
 72 76  1  0  0  0
 72145  1  0  0  0
 73 74  1  0  0  0
 73 75  2  0  0  0
 73 77  1  0  0  0
 74 76  2  0  0  0
 74 78  1  0  0  0
 75 81  1  0  0  0
 76 82  1  0  0  0
 77 79  1  0  0  0
 77146  1  0  0  0
 77147  1  0  0  0
 78 80  1  0  0  0
 78148  1  0  0  0
 78149  1  0  0  0
 79 80  1  0  0  0
 79150  1  0  0  0
 79151  1  0  0  0
 80152  1  0  0  0
 80153  1  0  0  0
 81 83  1  0  0  0
 81154  1  0  0  0
 81155  1  0  0  0
 82156  1  0  0  0
 82157  1  0  0  0
 83 84  1  0  0  0
 83158  1  0  0  0
 83159  1  0  0  0
 84160  1  0  0  0
M  ISO  4   1 100  68 101  82 101  84 100
M  END
> <chiral flag>
0

> <version>
0

> <s_m_source_file>
/data/baiqing/PycharmProjects/Reinvent-master-3.2/result/LINK_invent/BTK/process_docking_weight1_custom_sum_contain_oxygen_bond_distance_aromatic_linkinvent_7_9_3/rearranged_h_0122.sdf

> <i_m_source_file_index>
67

> <r_mmod_Potential_Energy-OPLS-2005>
418.151000976562

> <r_mmod_Stretch_Energy-OPLS-2005>
200.514053344727

> <r_mmod_Bend_Energy-OPLS-2005>
264.733489990234

> <r_mmod_Torsional_Energy-OPLS-2005>
235.761810302734

> <r_mmod_Improper_Torsional_Energy-OPLS-2005>
6.83316373825073

> <r_mmod_Van_der_Waal_Energy-OPLS-2005>
142.005218505859

> <r_mmod_Electrostatic_Energy-OPLS-2005>
-365.895080566406

> <r_mmod_Solvation_Energy-OPLS-2005>
-212.732482910156

> <b_mmod_Minimization_Converged-OPLS-2005>
0

> <r_mmod_RMS_Derivative-OPLS-2005>
1.22036743164062

$$$$
67
                    3D
 Structure written by MMmdl.
172181  0  0  1  0            999 V2000
  -30.7482  -14.3285   20.7488 C   0  0  0  0  0  0
  -30.4281  -12.2928   19.3710 C   0  0  0  0  0  0
  -29.4846  -12.5494   18.1804 C   0  0  0  0  0  0
  -28.0073  -12.3971   18.5938 C   0  0  0  0  0  0
  -27.6706  -13.1947   19.8789 C   0  0  2  0  0  0
  -28.7034  -12.8841   20.9816 C   0  0  0  0  0  0
  -25.2641  -13.8154   20.5657 C   0  0  0  0  0  0
  -24.1867  -13.0447   20.9131 C   0  0  0  0  0  0
  -24.6387  -11.6905   20.8682 C   0  0  0  0  0  0
  -23.9039  -10.4300   21.0375 C   0  0  0  0  0  0
  -24.3597   -9.4220   21.9160 C   0  0  0  0  0  0
  -23.6273   -8.2259   22.0743 C   0  0  0  0  0  0
  -22.4255   -8.0284   21.3533 C   0  0  0  0  0  0
  -21.9885   -9.0253   20.4634 C   0  0  0  0  0  0
  -22.7211  -10.2140   20.3029 C   0  0  0  0  0  0
  -21.6851   -6.0726   22.5267 C   0  0  0  0  0  0
  -21.4015   -6.5633   23.8204 C   0  0  0  0  0  0
  -21.3661   -5.6785   24.9163 C   0  0  0  0  0  0
  -21.6042   -4.3045   24.7217 C   0  0  0  0  0  0
  -21.8821   -3.8134   23.4340 C   0  0  0  0  0  0
  -21.9197   -4.6948   22.3398 C   0  0  0  0  0  0
  -22.7904  -13.5253   21.1821 C   0  0  0  0  0  0
  -22.1664   -4.2131   21.0978 F   0  0  0  0  0  0
  -21.5621   -3.4537   25.7734 F   0  0  0  0  0  0
  -30.0572  -13.1925   20.4705 N   0  0  0  0  0  0
  -26.3062  -12.9291   20.3335 N   0  0  0  0  0  0
  -25.9304  -11.6463   20.5696 N   0  0  0  0  0  0
  -22.0533  -12.8242   22.0370 N   0  0  0  0  0  0
  -25.4426  -15.1869   20.4120 N   0  0  0  0  0  0
  -31.7033  -14.7340   20.0712 O   0  0  0  0  0  0
  -21.6636   -6.8868   21.4232 O   0  0  0  0  0  0
  -22.3588  -14.5569   20.6688 O   0  0  0  0  0  0
  -24.6102  -31.8710   23.2128 C   0  0  0  0  0  0
  -25.9007  -32.4840   23.8415 C   0  0  1  0  0  0
  -27.2386  -27.4668   20.0933 C   0  0  0  0  0  0
  -25.5886  -33.8638   24.2353 N   0  0  0  0  0  0
  -23.3970  -30.4916   21.5536 C   0  0  2  0  0  0
  -24.8437  -28.9520   20.1277 C   0  0  0  0  0  0
  -22.7386  -29.4659   22.5029 C   0  0  0  0  0  0
  -18.0267  -28.1366   22.8495 C   0  0  0  0  0  0
  -24.1479  -36.7319   23.2636 C   0  0  0  0  0  0
  -25.9211  -30.8424   21.3626 C   0  0  0  0  0  0
  -26.0000  -29.4733   20.7233 C   0  0  0  0  0  0
  -27.2019  -28.7344   20.7095 C   0  0  0  0  0  0
  -26.0711  -26.9480   19.4997 C   0  0  0  0  0  0
  -24.8707  -27.6836   19.5196 C   0  0  0  0  0  0
  -23.6045  -29.8171   20.1710 C   0  0  0  0  0  0
  -25.4097  -36.3124   24.0342 C   0  0  1  0  0  0
  -20.5852  -28.3645   23.1336 C   0  0  2  0  0  0
  -20.6756  -26.9389   22.5418 C   0  0  0  0  0  0
  -19.5739  -26.6386   21.5208 C   0  0  0  0  0  0
  -18.1915  -26.7917   22.1615 C   0  0  0  0  0  0
  -19.1514  -28.8822   23.2913 C   0  0  0  0  0  0
  -18.9445  -30.1429   23.8922 C   0  0  0  0  0  0
  -17.6448  -30.6572   24.0565 C   0  0  0  0  0  0
  -25.9024  -34.9485   23.5145 C   0  0  0  0  0  0
  -16.5341  -29.9073   23.6323 C   0  0  0  0  0  0
  -16.7258  -28.6489   23.0349 C   0  0  0  0  0  0
  -26.4456  -31.6604   25.0721 C   0  0  0  0  0  0
  -25.3737  -31.3698   26.1481 C   0  0  0  0  0  0
  -27.0273  -30.3052   24.6058 C   0  0  0  0  0  0
  -27.6055  -32.4300   25.7469 C   0  0  0  0  0  0
  -27.5579  -37.1814   24.8458 C   0  0  0  0  0  0
  -21.4122  -29.3018   22.3755 N   0  0  0  0  0  0
  -26.4286  -37.3803   23.9411 N   0  0  0  0  0  0
  -24.6606  -31.0821   22.1022 N   0  0  0  0  0  0
  -23.4166  -28.8211   23.3073 O   0  0  0  0  0  0
  -28.4282  -26.8027   19.9532 O   0  0  0  0  0  0
  -26.5581  -34.8929   22.4703 O   0  0  0  0  0  0
  -23.5300  -32.1449   23.7544 O   0  0  0  0  0  0
  -28.9698  -18.6174   22.9680 C   0  0  0  0  0  0
  -28.7303  -16.2284   22.8698 C   0  0  0  0  0  0
  -28.2038  -17.4760   23.2435 C   0  0  0  0  0  0
  -30.2084  -18.4686   22.3225 C   0  0  0  0  0  0
  -29.9724  -16.1514   22.2063 C   0  0  0  0  0  0
  -28.6910  -23.2899   21.3799 C   0  0  0  0  0  0
  -30.8445  -24.5506   21.6807 C   0  0  0  0  0  0
  -28.1066  -24.4579   20.5590 C   0  0  0  0  0  0
  -30.2899  -25.7199   20.8573 C   0  0  0  0  0  0
  -30.2259  -23.2103   21.2433 C   0  0  1  0  0  0
  -28.7548  -25.8121   20.9173 C   0  0  1  0  0  0
  -25.9161  -18.5680   23.2658 C   0  0  0  0  0  0
  -27.0525  -17.9162   25.4415 C   0  0  0  0  0  0
  -31.0811  -19.6924   22.1059 C   0  0  0  0  0  0
  -30.8481  -22.0465   22.0352 C   0  0  0  0  0  0
  -26.8622  -17.5738   23.9573 C   0  0  0  0  0  0
  -30.6983  -17.2641   21.9397 N   0  0  0  0  0  0
  -30.4149  -14.8398   21.9410 N   0  0  0  0  0  0
  -30.3389  -20.7977   21.5892 O   0  0  0  0  0  0
  -31.4686  -12.4228   19.0667 H   0  0  0  0  0  0
  -30.3444  -11.2563   19.7027 H   0  0  0  0  0  0
  -29.7143  -11.8638   17.3639 H   0  0  0  0  0  0
  -29.6536  -13.5548   17.7910 H   0  0  0  0  0  0
  -27.8080  -11.3361   18.7514 H   0  0  0  0  0  0
  -27.3565  -12.7106   17.7760 H   0  0  0  0  0  0
  -27.7435  -14.2554   19.6375 H   0  0  0  0  0  0
  -28.6590  -11.8263   21.2452 H   0  0  0  0  0  0
  -28.4272  -13.4088   21.8939 H   0  0  0  0  0  0
  -25.2743   -9.5708   22.4727 H   0  0  0  0  0  0
  -23.9975   -7.4662   22.7478 H   0  0  0  0  0  0
  -21.0803   -8.8775   19.8958 H   0  0  0  0  0  0
  -22.3654  -10.9672   19.6134 H   0  0  0  0  0  0
  -21.2018   -7.6145   23.9703 H   0  0  0  0  0  0
  -21.1473   -6.0514   25.9064 H   0  0  0  0  0  0
  -22.0602   -2.7589   23.2854 H   0  0  0  0  0  0
  -22.4122  -11.9872   22.4718 H   0  0  0  0  0  0
  -21.1162  -13.1288   22.2589 H   0  0  0  0  0  0
  -24.6881  -15.8525   20.5314 H   0  0  0  0  0  0
  -26.3111  -15.6213   20.1258 H   0  0  0  0  0  0
  -26.7086  -32.5573   23.1196 H   0  0  0  0  0  0
  -25.0044  -33.9807   25.0501 H   0  0  0  0  0  0
  -22.6837  -31.3063   21.4134 H   0  0  0  0  0  0
  -23.3741  -35.9655   23.3304 H   0  0  0  0  0  0
  -24.3580  -36.8916   22.2051 H   0  0  0  0  0  0
  -23.7228  -37.6526   23.6636 H   0  0  0  0  0  0
  -26.0228  -31.6026   20.5867 H   0  0  0  0  0  0
  -26.8132  -30.9062   21.9732 H   0  0  0  0  0  0
  -28.1032  -29.1442   21.1434 H   0  0  0  0  0  0
  -26.0995  -25.9911   18.9983 H   0  0  0  0  0  0
  -23.9828  -27.2777   19.0537 H   0  0  0  0  0  0
  -23.7102  -30.5879   19.4071 H   0  0  0  0  0  0
  -22.7299  -29.2325   19.8790 H   0  0  0  0  0  0
  -25.1268  -36.2004   25.0835 H   0  0  0  0  0  0
  -20.9936  -28.3201   24.1460 H   0  0  0  0  0  0
  -20.5654  -26.2252   23.3595 H   0  0  0  0  0  0
  -21.6631  -26.7431   22.1218 H   0  0  0  0  0  0
  -19.6902  -25.6306   21.1214 H   0  0  0  0  0  0
  -19.6679  -27.3220   20.6758 H   0  0  0  0  0  0
  -17.4188  -26.6676   21.4013 H   0  0  0  0  0  0
  -18.0309  -26.0046   22.8995 H   0  0  0  0  0  0
  -19.7919  -30.7242   24.2304 H   0  0  0  0  0  0
  -17.4998  -31.6251   24.5166 H   0  0  0  0  0  0
  -15.5344  -30.2986   23.7623 H   0  0  0  0  0  0
  -15.8657  -28.0815   22.7056 H   0  0  0  0  0  0
  -24.5901  -30.7056   25.7813 H   0  0  0  0  0  0
  -24.8943  -32.2852   26.4959 H   0  0  0  0  0  0
  -25.8100  -30.8840   27.0219 H   0  0  0  0  0  0
  -26.2799  -29.6830   24.1119 H   0  0  0  0  0  0
  -27.4070  -29.7268   25.4493 H   0  0  0  0  0  0
  -27.8623  -30.4388   23.9175 H   0  0  0  0  0  0
  -27.2705  -33.3600   26.2076 H   0  0  0  0  0  0
  -28.3846  -32.6852   25.0271 H   0  0  0  0  0  0
  -28.0738  -31.8396   26.5355 H   0  0  0  0  0  0
  -28.2603  -38.0106   24.7506 H   0  0  0  0  0  0
  -28.1067  -36.2642   24.6272 H   0  0  0  0  0  0
  -27.2303  -37.1445   25.8861 H   0  0  0  0  0  0
  -20.9283  -29.8728   21.6966 H   0  0  0  0  0  0
  -26.0182  -38.2884   24.1409 H   0  0  0  0  0  0
  -28.6296  -19.6015   23.2621 H   0  0  0  0  0  0
  -28.1658  -15.3355   23.0999 H   0  0  0  0  0  0
  -28.2390  -22.3540   21.0490 H   0  0  0  0  0  0
  -28.4180  -23.4071   22.4293 H   0  0  0  0  0  0
  -30.6476  -24.7253   22.7396 H   0  0  0  0  0  0
  -31.9292  -24.5161   21.5703 H   0  0  0  0  0  0
  -27.0286  -24.5080   20.7151 H   0  0  0  0  0  0
  -28.2541  -24.2567   19.4971 H   0  0  0  0  0  0
  -30.6060  -25.6005   19.8196 H   0  0  0  0  0  0
  -30.7284  -26.6573   21.2025 H   0  0  0  0  0  0
  -30.4655  -23.0524   20.1901 H   0  0  0  0  0  0
  -28.4459  -26.1250   21.9165 H   0  0  0  0  0  0
  -25.7644  -18.2990   22.2199 H   0  0  0  0  0  0
  -26.3047  -19.5861   23.2962 H   0  0  0  0  0  0
  -24.9390  -18.5771   23.7494 H   0  0  0  0  0  0
  -27.6719  -17.1689   25.9386 H   0  0  0  0  0  0
  -26.0956  -17.9501   25.9631 H   0  0  0  0  0  0
  -27.5352  -18.8856   25.5678 H   0  0  0  0  0  0
  -31.9079  -19.4665   21.4312 H   0  0  0  0  0  0
  -31.5206  -19.9321   23.0762 H   0  0  0  0  0  0
  -30.6460  -22.1637   23.1012 H   0  0  0  0  0  0
  -31.9326  -22.0675   21.9084 H   0  0  0  0  0  0
  -26.3858  -16.5931   23.9067 H   0  0  0  0  0  0
  -29.8961  -14.1555   22.4672 H   0  0  0  0  0  0
  1 25  1  0  0  0
  1 30  2  0  0  0
  1 88  1  0  0  0
  2  3  1  0  0  0
  2 25  1  0  0  0
  2 90  1  0  0  0
  2 91  1  0  0  0
  3  4  1  0  0  0
  3 92  1  0  0  0
  3 93  1  0  0  0
  4  5  1  0  0  0
  4 94  1  0  0  0
  4 95  1  0  0  0
  5  6  1  0  0  0
  5 26  1  0  0  0
  5 96  1  0  0  0
  6 25  1  0  0  0
  6 97  1  0  0  0
  6 98  1  0  0  0
  7  8  2  0  0  0
  7 26  1  0  0  0
  7 29  1  0  0  0
  8  9  1  0  0  0
  8 22  1  0  0  0
  9 10  1  0  0  0
  9 27  2  0  0  0
 10 11  2  0  0  0
 10 15  1  0  0  0
 11 12  1  0  0  0
 11 99  1  0  0  0
 12 13  2  0  0  0
 12100  1  0  0  0
 13 14  1  0  0  0
 13 31  1  0  0  0
 14 15  2  0  0  0
 14101  1  0  0  0
 15102  1  0  0  0
 16 17  2  0  0  0
 16 21  1  0  0  0
 16 31  1  0  0  0
 17 18  1  0  0  0
 17103  1  0  0  0
 18 19  2  0  0  0
 18104  1  0  0  0
 19 20  1  0  0  0
 19 24  1  0  0  0
 20 21  2  0  0  0
 20105  1  0  0  0
 21 23  1  0  0  0
 22 28  1  0  0  0
 22 32  2  0  0  0
 26 27  1  0  0  0
 28106  1  0  0  0
 28107  1  0  0  0
 29108  1  0  0  0
 29109  1  0  0  0
 33 34  1  0  0  0
 33 66  1  0  0  0
 33 70  2  0  0  0
 34 36  1  0  0  0
 34 59  1  0  0  0
 34110  1  0  0  0
 35 44  2  0  0  0
 35 45  1  0  0  0
 35 68  1  0  0  0
 36 56  1  0  0  0
 36111  1  0  0  0
 37 39  1  0  0  0
 37 47  1  0  0  0
 37 66  1  0  0  0
 37112  1  0  0  0
 38 43  2  0  0  0
 38 46  1  0  0  0
 38 47  1  0  0  0
 39 64  1  0  0  0
 39 67  2  0  0  0
 40 52  1  0  0  0
 40 53  2  0  0  0
 40 58  1  0  0  0
 41113  1  0  0  0
 41114  1  0  0  0
 41115  1  0  0  0
 41 48  1  0  0  0
 42 43  1  0  0  0
 42 66  1  0  0  0
 42116  1  0  0  0
 42117  1  0  0  0
 43 44  1  0  0  0
 44118  1  0  0  0
 45 46  2  0  0  0
 45119  1  0  0  0
 46120  1  0  0  0
 47121  1  0  0  0
 47122  1  0  0  0
 48 56  1  0  0  0
 48 65  1  0  0  0
 48123  1  0  0  0
 49 50  1  0  0  0
 49 53  1  0  0  0
 49 64  1  0  0  0
 49124  1  0  0  0
 50 51  1  0  0  0
 50125  1  0  0  0
 50126  1  0  0  0
 51 52  1  0  0  0
 51127  1  0  0  0
 51128  1  0  0  0
 52129  1  0  0  0
 52130  1  0  0  0
 53 54  1  0  0  0
 54 55  2  0  0  0
 54131  1  0  0  0
 55 57  1  0  0  0
 55132  1  0  0  0
 56 69  2  0  0  0
 57 58  2  0  0  0
 57133  1  0  0  0
 58134  1  0  0  0
 59 60  1  0  0  0
 59 61  1  0  0  0
 59 62  1  0  0  0
 60135  1  0  0  0
 60136  1  0  0  0
 60137  1  0  0  0
 61138  1  0  0  0
 61139  1  0  0  0
 61140  1  0  0  0
 62141  1  0  0  0
 62142  1  0  0  0
 62143  1  0  0  0
 63 65  1  0  0  0
 63144  1  0  0  0
 63145  1  0  0  0
 63146  1  0  0  0
 64147  1  0  0  0
 65148  1  0  0  0
 68 81  1  0  0  0
 71 73  2  0  0  0
 71 74  1  0  0  0
 71149  1  0  0  0
 72 73  1  0  0  0
 72 75  2  0  0  0
 72150  1  0  0  0
 73 86  1  0  0  0
 74 84  1  0  0  0
 74 87  2  0  0  0
 75 87  1  0  0  0
 75 88  1  0  0  0
 76 78  1  0  0  0
 76 80  1  0  0  0
 76151  1  0  0  0
 76152  1  0  0  0
 77 79  1  0  0  0
 77 80  1  0  0  0
 77153  1  0  0  0
 77154  1  0  0  0
 78 81  1  0  0  0
 78155  1  0  0  0
 78156  1  0  0  0
 79 81  1  0  0  0
 79157  1  0  0  0
 79158  1  0  0  0
 80 85  1  0  0  0
 80159  1  0  0  0
 81160  1  0  0  0
 82161  1  0  0  0
 82162  1  0  0  0
 82163  1  0  0  0
 82 86  1  0  0  0
 83 86  1  0  0  0
 83164  1  0  0  0
 83165  1  0  0  0
 83166  1  0  0  0
 84 89  1  0  0  0
 84167  1  0  0  0
 84168  1  0  0  0
 85 89  1  0  0  0
 85169  1  0  0  0
 85170  1  0  0  0
 86171  1  0  0  0
 88172  1  0  0  0
M  ISO  4   1 100  68 101  81 101  88 100
M  END
> <chiral flag>
0

> <version>
0

> <s_m_source_file>
/data/baiqing/PycharmProjects/Reinvent-master-3.2/result/LINK_invent/BTK/process_docking_weight1_custom_sum_contain_oxygen_bond_distance_aromatic_linkinvent_7_9_3/rearranged_h_0122.sdf

> <i_m_source_file_index>
68

> <r_mmod_Potential_Energy-OPLS-2005>
-169.335632324219

> <r_mmod_Stretch_Energy-OPLS-2005>
32.1332397460938

> <r_mmod_Bend_Energy-OPLS-2005>
101.524169921875

> <r_mmod_Torsional_Energy-OPLS-2005>
280.443634033203

> <r_mmod_Improper_Torsional_Energy-OPLS-2005>
8.43485260009766

> <r_mmod_Van_der_Waal_Energy-OPLS-2005>
146.128356933594

> <r_mmod_Electrostatic_Energy-OPLS-2005>
-527.8271484375

> <r_mmod_Solvation_Energy-OPLS-2005>
-219.685562133789

> <b_mmod_Minimization_Converged-OPLS-2005>
0

> <r_mmod_RMS_Derivative-OPLS-2005>
1.42263007164001

$$$$
68
                    3D
 Structure written by MMmdl.
180188  0  0  1  0            999 V2000
  -30.5637  -15.4515   20.4377 C   0  0  0  0  0  0
  -30.4588  -12.9664   19.5357 C   0  0  0  0  0  0
  -29.5592  -12.6301   18.3138 C   0  0  0  0  0  0
  -28.1304  -12.2960   18.7674 C   0  0  0  0  0  0
  -27.6286  -13.3045   19.8264 C   0  0  2  0  0  0
  -28.6724  -13.6054   20.9400 C   0  0  0  0  0  0
  -25.2480  -13.8286   20.5819 C   0  0  0  0  0  0
  -24.1819  -13.0448   20.9255 C   0  0  0  0  0  0
  -24.6502  -11.6950   20.8747 C   0  0  0  0  0  0
  -23.9164  -10.4295   21.0382 C   0  0  0  0  0  0
  -24.3672   -9.4206   21.9180 C   0  0  0  0  0  0
  -23.6321   -8.2255   22.0757 C   0  0  0  0  0  0
  -22.4302   -8.0300   21.3549 C   0  0  0  0  0  0
  -21.9960   -9.0280   20.4648 C   0  0  0  0  0  0
  -22.7315  -10.2144   20.3049 C   0  0  0  0  0  0
  -21.6862   -6.0745   22.5273 C   0  0  0  0  0  0
  -21.4022   -6.5646   23.8207 C   0  0  0  0  0  0
  -21.3661   -5.6800   24.9172 C   0  0  0  0  0  0
  -21.6045   -4.3061   24.7225 C   0  0  0  0  0  0
  -21.8815   -3.8151   23.4345 C   0  0  0  0  0  0
  -21.9194   -4.6969   22.3401 C   0  0  0  0  0  0
  -22.7813  -13.5182   21.1866 C   0  0  0  0  0  0
  -22.1659   -4.2155   21.0978 F   0  0  0  0  0  0
  -21.5629   -3.4543   25.7736 F   0  0  0  0  0  0
  -29.8978  -14.1635   20.2990 N   0  0  0  0  0  0
  -26.2990  -12.9632   20.3347 N   0  0  0  0  0  0
  -25.9479  -11.6696   20.5755 N   0  0  0  0  0  0
  -22.0464  -12.8172   22.0420 N   0  0  0  0  0  0
  -25.4052  -15.2023   20.4240 N   0  0  0  0  0  0
  -31.7845  -15.3179   20.3011 O   0  0  0  0  0  0
  -21.6650   -6.8902   21.4242 O   0  0  0  0  0  0
  -22.3485  -14.5478   20.6699 O   0  0  0  0  0  0
  -24.9037  -31.6716   23.3101 C   0  0  0  0  0  0
  -26.0755  -32.4179   23.9311 C   0  0  1  0  0  0
  -26.4809  -26.6475   20.2772 C   0  0  0  0  0  0
  -25.6709  -33.8120   24.2342 N   0  0  0  0  0  0
  -23.7617  -30.4452   21.5638 C   0  0  2  0  0  0
  -25.2182  -28.8036   19.3453 C   0  0  0  0  0  0
  -22.7050  -29.6284   22.4983 C   0  0  0  0  0  0
  -18.0216  -28.1502   22.8304 C   0  0  0  0  0  0
  -24.1579  -36.6967   23.2522 C   0  0  0  0  0  0
  -26.7096  -29.5945   22.1843 C   0  0  0  0  0  0
  -26.6083  -28.6323   20.1489 C   0  0  0  0  0  0
  -27.2170  -27.6010   19.7263 C   0  0  0  0  0  0
  -25.4514  -26.4143   19.3624 C   0  0  0  0  0  0
  -24.7583  -27.5567   18.8807 C   0  0  0  0  0  0
  -23.9259  -29.8161   19.9270 C   0  0  0  0  0  0
  -25.4163  -36.2608   24.0193 C   0  0  1  0  0  0
  -20.5782  -28.4492   23.0308 C   0  0  2  0  0  0
  -20.6891  -26.9985   22.5046 C   0  0  0  0  0  0
  -19.5800  -26.6402   21.5127 C   0  0  0  0  0  0
  -18.1990  -26.7950   22.1600 C   0  0  0  0  0  0
  -19.1415  -28.9259   23.2334 C   0  0  0  0  0  0
  -18.9295  -30.1748   23.8542 C   0  0  0  0  0  0
  -17.6274  -30.6663   24.0511 C   0  0  0  0  0  0
  -25.9254  -34.8998   23.4944 C   0  0  0  0  0  0
  -16.5202  -29.9019   23.6448 C   0  0  0  0  0  0
  -16.7166  -28.6439   23.0433 C   0  0  0  0  0  0
  -26.4774  -31.6919   25.2539 C   0  0  0  0  0  0
  -25.3117  -31.5223   26.2551 C   0  0  0  0  0  0
  -27.0345  -30.2846   25.0455 C   0  0  0  0  0  0
  -27.6089  -32.4938   25.9181 C   0  0  0  0  0  0
  -27.5508  -37.1701   24.8438 C   0  0  0  0  0  0
  -21.4096  -29.3869   22.2238 N   0  0  0  0  0  0
  -26.4198  -37.3432   23.9339 N   0  0  0  0  0  0
  -25.1452  -30.5761   22.5055 N   0  0  0  0  0  0
  -23.1425  -29.1082   23.5303 O   0  0  0  0  0  0
  -26.0423  -27.0317   21.5259 O   0  0  0  0  0  0
  -26.5687  -34.8535   22.4446 O   0  0  0  0  0  0
  -23.7627  -32.1061   23.6016 O   0  0  0  0  0  0
  -30.7778  -25.7715   21.9503 C   0  0  0  0  0  0
  -29.6782  -26.8435   20.0377 C   0  0  0  0  0  0
  -31.3766  -27.2800   21.8880 C   0  0  0  0  0  0
  -29.7991  -25.2329   20.8374 C   0  0  1  0  0  0
  -29.3182  -28.5248   20.8201 C   0  0  2  0  0  0
  -31.4603  -29.6188   23.9049 C   0  0  0  0  0  0
  -29.4822  -28.0812   24.1310 C   0  0  0  0  0  0
  -28.4454  -20.1157   19.7749 C   0  0  0  0  0  0
  -29.9778  -23.4325   20.2314 C   0  0  0  0  0  0
  -28.3355  -30.2583   20.3267 C   0  0  0  0  0  0
  -26.2564  -30.7735   20.3822 C   0  0  0  0  0  0
  -30.3753  -18.5139   20.8809 C   0  0  0  0  0  0
  -24.9792  -28.3057   21.6292 C   0  0  0  0  0  0
  -30.1963  -29.0865   23.1910 C   0  0  0  0  0  0
  -29.8861  -20.2410   20.2868 C   0  0  2  0  0  0
  -29.9705  -16.8560   20.5246 N   0  0  0  0  0  0
  -30.4843  -28.5451   21.8199 N   0  3  1  0  0  0
  -30.0758  -21.8464   20.9221 N   0  3  0  0  0  0
  -31.4715  -13.1643   19.1825 H   0  0  0  0  0  0
  -30.5503  -12.0974   20.1886 H   0  0  0  0  0  0
  -29.9782  -11.7954   17.7495 H   0  0  0  0  0  0
  -29.5354  -13.4830   17.6331 H   0  0  0  0  0  0
  -28.1502  -11.2944   19.2011 H   0  0  0  0  0  0
  -27.4508  -12.2486   17.9154 H   0  0  0  0  0  0
  -27.5053  -14.2348   19.2714 H   0  0  0  0  0  0
  -28.8886  -12.7130   21.5281 H   0  0  0  0  0  0
  -28.2727  -14.3401   21.6400 H   0  0  0  0  0  0
  -25.2816   -9.5663   22.4764 H   0  0  0  0  0  0
  -24.0008   -7.4649   22.7492 H   0  0  0  0  0  0
  -21.0887   -8.8821   19.8960 H   0  0  0  0  0  0
  -22.3788  -10.9685   19.6155 H   0  0  0  0  0  0
  -21.2015   -7.6154   23.9715 H   0  0  0  0  0  0
  -21.1488   -6.0529   25.9076 H   0  0  0  0  0  0
  -22.0591   -2.7613   23.2845 H   0  0  0  0  0  0
  -22.4096  -11.9866   22.4853 H   0  0  0  0  0  0
  -21.1062  -13.1166   22.2571 H   0  0  0  0  0  0
  -24.6309  -15.8480   20.5345 H   0  0  0  0  0  0
  -26.2555  -15.6514   20.1107 H   0  0  0  0  0  0
  -26.9104  -32.4098   23.2267 H   0  0  0  0  0  0
  -25.0971  -33.9372   25.0541 H   0  0  0  0  0  0
  -23.2829  -31.4132   21.3984 H   0  0  0  0  0  0
  -23.3774  -35.9354   23.3023 H   0  0  0  0  0  0
  -24.3805  -36.8737   22.1983 H   0  0  0  0  0  0
  -23.7425  -37.6149   23.6680 H   0  0  0  0  0  0
  -27.5072  -30.2864   22.4223 H   0  0  0  0  0  0
  -26.9162  -28.8167   22.9217 H   0  0  0  0  0  0
  -27.3216  -27.5288   18.6473 H   0  0  0  0  0  0
  -24.9601  -25.4520   19.3108 H   0  0  0  0  0  0
  -23.7889  -27.4422   18.4126 H   0  0  0  0  0  0
  -23.8528  -30.6533   19.2333 H   0  0  0  0  0  0
  -23.0069  -29.2720   19.7207 H   0  0  0  0  0  0
  -25.1322  -36.1341   25.0654 H   0  0  0  0  0  0
  -20.9497  -28.4179   24.0581 H   0  0  0  0  0  0
  -20.6165  -26.3137   23.3508 H   0  0  0  0  0  0
  -21.6731  -26.8172   22.0729 H   0  0  0  0  0  0
  -19.7136  -25.6226   21.1451 H   0  0  0  0  0  0
  -19.6561  -27.2955   20.6450 H   0  0  0  0  0  0
  -17.4240  -26.6479   21.4042 H   0  0  0  0  0  0
  -18.0531  -26.0174   22.9128 H   0  0  0  0  0  0
  -19.7771  -30.7669   24.1705 H   0  0  0  0  0  0
  -17.4783  -31.6298   24.5195 H   0  0  0  0  0  0
  -15.5180  -30.2766   23.8047 H   0  0  0  0  0  0
  -15.8547  -28.0612   22.7421 H   0  0  0  0  0  0
  -24.5504  -30.8236   25.9056 H   0  0  0  0  0  0
  -24.8029  -32.4703   26.4439 H   0  0  0  0  0  0
  -25.6611  -31.1535   27.2217 H   0  0  0  0  0  0
  -26.2894  -29.5570   24.7211 H   0  0  0  0  0  0
  -27.3686  -29.8955   26.0074 H   0  0  0  0  0  0
  -27.9224  -30.3166   24.4365 H   0  0  0  0  0  0
  -27.2580  -33.4423   26.3239 H   0  0  0  0  0  0
  -28.4206  -32.7170   25.2289 H   0  0  0  0  0  0
  -28.0450  -31.9544   26.7576 H   0  0  0  0  0  0
  -28.2322  -38.0142   24.7395 H   0  0  0  0  0  0
  -28.1220  -36.2661   24.6331 H   0  0  0  0  0  0
  -27.2262  -37.1351   25.8844 H   0  0  0  0  0  0
  -20.9939  -29.7958   21.3994 H   0  0  0  0  0  0
  -25.9929  -38.2414   24.1330 H   0  0  0  0  0  0
  -30.3388  -25.5898   22.9323 H   0  0  0  0  0  0
  -31.6458  -25.1156   21.9173 H   0  0  0  0  0  0
  -29.1647  -26.6081   19.1092 H   0  0  0  0  0  0
  -30.6305  -26.9985   19.5290 H   0  0  0  0  0  0
  -32.0561  -27.3583   21.0381 H   0  0  0  0  0  0
  -32.0703  -27.3512   22.7222 H   0  0  0  0  0  0
  -28.8259  -25.1667   21.3286 H   0  0  0  0  0  0
  -28.6329  -28.1530   21.5720 H   0  0  0  0  0  0
  -31.1802  -30.1331   24.8253 H   0  0  0  0  0  0
  -32.0159  -30.3224   23.2857 H   0  0  0  0  0  0
  -32.1560  -28.8338   24.2053 H   0  0  0  0  0  0
  -28.6179  -27.5849   23.6887 H   0  0  0  0  0  0
  -29.1445  -28.5803   25.0372 H   0  0  0  0  0  0
  -30.1660  -27.3113   24.4819 H   0  0  0  0  0  0
  -28.3232  -19.1995   19.1949 H   0  0  0  0  0  0
  -28.1931  -20.9533   19.1243 H   0  0  0  0  0  0
  -27.7275  -20.0941   20.5954 H   0  0  0  0  0  0
  -30.8506  -23.4465   19.5758 H   0  0  0  0  0  0
  -29.1378  -23.3138   19.5448 H   0  0  0  0  0  0
  -28.6239  -30.4548   19.2944 H   0  0  0  0  0  0
  -28.8572  -31.0588   20.8591 H   0  0  0  0  0  0
  -26.0178  -31.0165   19.3422 H   0  0  0  0  0  0
  -26.1378  -31.7727   20.8115 H   0  0  0  0  0  0
  -30.1761  -18.5534   21.9539 H   0  0  0  0  0  0
  -31.4654  -18.5138   20.8321 H   0  0  0  0  0  0
  -24.0305  -27.8802   21.2821 H   0  0  0  0  0  0
  -24.9374  -28.1740   22.7106 H   0  0  0  0  0  0
  -29.5689  -29.9625   23.0511 H   0  0  0  0  0  0
  -30.4965  -20.3225   19.3881 H   0  0  0  0  0  0
  -28.9654  -16.7677   20.4596 H   0  0  0  0  0  0
  -31.1072  -29.2386   21.4272 H   0  0  0  0  0  0
  -29.4459  -21.8766   21.7091 H   0  0  0  0  0  0
  -30.9953  -21.8296   21.3343 H   0  0  0  0  0  0
  1 25  1  0  0  0
  1 30  2  0  0  0
  1 86  1  0  0  0
  2  3  1  0  0  0
  2 25  1  0  0  0
  2 89  1  0  0  0
  2 90  1  0  0  0
  3  4  1  0  0  0
  3 91  1  0  0  0
  3 92  1  0  0  0
  4  5  1  0  0  0
  4 93  1  0  0  0
  4 94  1  0  0  0
  5  6  1  0  0  0
  5 26  1  0  0  0
  5 95  1  0  0  0
  6 25  1  0  0  0
  6 96  1  0  0  0
  6 97  1  0  0  0
  7  8  2  0  0  0
  7 26  1  0  0  0
  7 29  1  0  0  0
  8  9  1  0  0  0
  8 22  1  0  0  0
  9 10  1  0  0  0
  9 27  2  0  0  0
 10 11  2  0  0  0
 10 15  1  0  0  0
 11 12  1  0  0  0
 11 98  1  0  0  0
 12 13  2  0  0  0
 12 99  1  0  0  0
 13 14  1  0  0  0
 13 31  1  0  0  0
 14 15  2  0  0  0
 14100  1  0  0  0
 15101  1  0  0  0
 16 17  2  0  0  0
 16 21  1  0  0  0
 16 31  1  0  0  0
 17 18  1  0  0  0
 17102  1  0  0  0
 18 19  2  0  0  0
 18103  1  0  0  0
 19 20  1  0  0  0
 19 24  1  0  0  0
 20 21  2  0  0  0
 20104  1  0  0  0
 21 23  1  0  0  0
 22 28  1  0  0  0
 22 32  2  0  0  0
 26 27  1  0  0  0
 28105  1  0  0  0
 28106  1  0  0  0
 29107  1  0  0  0
 29108  1  0  0  0
 33 34  1  0  0  0
 33 66  1  0  0  0
 33 70  2  0  0  0
 34 36  1  0  0  0
 34 59  1  0  0  0
 34109  1  0  0  0
 35 44  2  0  0  0
 35 45  1  0  0  0
 35 68  1  0  0  0
 36 56  1  0  0  0
 36110  1  0  0  0
 37 39  1  0  0  0
 37 47  1  0  0  0
 37 66  1  0  0  0
 37111  1  0  0  0
 38 43  2  0  0  0
 38 46  1  0  0  0
 38 47  1  0  0  0
 39 64  1  0  0  0
 39 67  2  0  0  0
 40 52  1  0  0  0
 40 53  2  0  0  0
 40 58  1  0  0  0
 41112  1  0  0  0
 41113  1  0  0  0
 41114  1  0  0  0
 41 48  1  0  0  0
 42 43  1  0  0  0
 42 66  1  0  0  0
 42115  1  0  0  0
 42116  1  0  0  0
 43 44  1  0  0  0
 44117  1  0  0  0
 45 46  2  0  0  0
 45118  1  0  0  0
 46119  1  0  0  0
 47120  1  0  0  0
 47121  1  0  0  0
 48 56  1  0  0  0
 48 65  1  0  0  0
 48122  1  0  0  0
 49 50  1  0  0  0
 49 53  1  0  0  0
 49 64  1  0  0  0
 49123  1  0  0  0
 50 51  1  0  0  0
 50124  1  0  0  0
 50125  1  0  0  0
 51 52  1  0  0  0
 51126  1  0  0  0
 51127  1  0  0  0
 52128  1  0  0  0
 52129  1  0  0  0
 53 54  1  0  0  0
 54 55  2  0  0  0
 54130  1  0  0  0
 55 57  1  0  0  0
 55131  1  0  0  0
 56 69  2  0  0  0
 57 58  2  0  0  0
 57132  1  0  0  0
 58133  1  0  0  0
 59 60  1  0  0  0
 59 61  1  0  0  0
 59 62  1  0  0  0
 60134  1  0  0  0
 60135  1  0  0  0
 60136  1  0  0  0
 61137  1  0  0  0
 61138  1  0  0  0
 61139  1  0  0  0
 62140  1  0  0  0
 62141  1  0  0  0
 62142  1  0  0  0
 63 65  1  0  0  0
 63143  1  0  0  0
 63144  1  0  0  0
 63145  1  0  0  0
 64146  1  0  0  0
 65147  1  0  0  0
 68 83  1  0  0  0
 71 73  1  0  0  0
 71 74  1  0  0  0
 71148  1  0  0  0
 71149  1  0  0  0
 72 74  1  0  0  0
 72 75  1  0  0  0
 72150  1  0  0  0
 72151  1  0  0  0
 73152  1  0  0  0
 73153  1  0  0  0
 73 87  1  0  0  0
 74 79  1  0  0  0
 74154  1  0  0  0
 75 80  1  0  0  0
 75 87  1  0  0  0
 75155  1  0  0  0
 76156  1  0  0  0
 76157  1  0  0  0
 76158  1  0  0  0
 76 84  1  0  0  0
 77 84  1  0  0  0
 77159  1  0  0  0
 77160  1  0  0  0
 77161  1  0  0  0
 78162  1  0  0  0
 78163  1  0  0  0
 78164  1  0  0  0
 78 85  1  0  0  0
 79 88  1  0  0  0
 79165  1  0  0  0
 79166  1  0  0  0
 80 81  1  0  0  0
 80167  1  0  0  0
 80168  1  0  0  0
 81 83  1  0  0  0
 81169  1  0  0  0
 81170  1  0  0  0
 82 85  1  0  0  0
 82 86  1  0  0  0
 82171  1  0  0  0
 82172  1  0  0  0
 83173  1  0  0  0
 83174  1  0  0  0
 84 87  1  0  0  0
 84175  1  0  0  0
 85 88  1  0  0  0
 85176  1  0  0  0
 86177  1  0  0  0
 87178  1  0  0  0
 88179  1  0  0  0
 88180  1  0  0  0
M  CHG  2  87   1  88   1
M  ISO  4   1 100  68 101  83 101  86 100
M  END
> <chiral flag>
0

> <version>
0

> <s_m_source_file>
/data/baiqing/PycharmProjects/Reinvent-master-3.2/result/LINK_invent/BTK/process_docking_weight1_custom_sum_contain_oxygen_bond_distance_aromatic_linkinvent_7_9_3/rearranged_h_0122.sdf

> <i_m_source_file_index>
69

> <r_mmod_Potential_Energy-OPLS-2005>
11390.318359375

> <r_mmod_Stretch_Energy-OPLS-2005>
5786.40185546875

> <r_mmod_Bend_Energy-OPLS-2005>
1007.55102539062

> <r_mmod_Torsional_Energy-OPLS-2005>
654.923645019531

> <r_mmod_Improper_Torsional_Energy-OPLS-2005>
64.6020812988281

> <r_mmod_Van_der_Waal_Energy-OPLS-2005>
2391.947265625

> <r_mmod_Electrostatic_Energy-OPLS-2005>
-19.5434455871582

> <r_mmod_Solvation_Energy-OPLS-2005>
-877.48583984375

> <b_mmod_Minimization_Converged-OPLS-2005>
0

> <r_mmod_RMS_Derivative-OPLS-2005>
9.39154720306396

$$$$
69
                    3D
 Structure written by MMmdl.
163172  0  0  1  0            999 V2000
  -30.7853  -14.6215   20.4815 C   0  0  0  0  0  0
  -30.4016  -12.3846   19.4627 C   0  0  0  0  0  0
  -29.4953  -12.4954   18.2213 C   0  0  0  0  0  0
  -28.0170  -12.3744   18.6281 C   0  0  0  0  0  0
  -27.6483  -13.2524   19.8543 C   0  0  2  0  0  0
  -28.7049  -13.1704   20.9807 C   0  0  0  0  0  0
  -25.2514  -13.8286   20.5736 C   0  0  0  0  0  0
  -24.1801  -13.0451   20.9249 C   0  0  0  0  0  0
  -24.6431  -11.6980   20.8775 C   0  0  0  0  0  0
  -23.9116  -10.4310   21.0427 C   0  0  0  0  0  0
  -24.3643   -9.4220   21.9198 C   0  0  0  0  0  0
  -23.6311   -8.2253   22.0763 C   0  0  0  0  0  0
  -22.4292   -8.0294   21.3553 C   0  0  0  0  0  0
  -21.9938   -9.0274   20.4646 C   0  0  0  0  0  0
  -22.7289  -10.2154   20.3064 C   0  0  0  0  0  0
  -21.6849   -6.0755   22.5283 C   0  0  0  0  0  0
  -21.4009   -6.5642   23.8210 C   0  0  0  0  0  0
  -21.3651   -5.6787   24.9168 C   0  0  0  0  0  0
  -21.6042   -4.3054   24.7216 C   0  0  0  0  0  0
  -21.8815   -3.8156   23.4316 C   0  0  0  0  0  0
  -21.9190   -4.6981   22.3391 C   0  0  0  0  0  0
  -22.7795  -13.5217   21.1883 C   0  0  0  0  0  0
  -22.1656   -4.2178   21.0967 F   0  0  0  0  0  0
  -21.5636   -3.4530   25.7711 F   0  0  0  0  0  0
  -30.0233  -13.4720   20.3980 N   0  0  0  0  0  0
  -26.2991  -12.9524   20.3371 N   0  0  0  0  0  0
  -25.9383  -11.6651   20.5810 N   0  0  0  0  0  0
  -22.0399  -12.8208   22.0396 N   0  0  0  0  0  0
  -25.4142  -15.1991   20.4182 N   0  0  0  0  0  0
  -31.9150  -14.6083   19.9878 O   0  0  0  0  0  0
  -21.6654   -6.8901   21.4238 O   0  0  0  0  0  0
  -22.3483  -14.5517   20.6721 O   0  0  0  0  0  0
  -24.6207  -31.8623   23.2028 C   0  0  0  0  0  0
  -25.9070  -32.4799   23.8356 C   0  0  1  0  0  0
  -27.2303  -27.3279   20.1541 C   0  0  0  0  0  0
  -25.5919  -33.8599   24.2287 N   0  0  0  0  0  0
  -23.4124  -30.4782   21.5452 C   0  0  2  0  0  0
  -24.8669  -28.9364   20.1130 C   0  0  0  0  0  0
  -22.7457  -29.4574   22.4991 C   0  0  0  0  0  0
  -18.0267  -28.1310   22.8459 C   0  0  0  0  0  0
  -24.1486  -36.7260   23.2642 C   0  0  0  0  0  0
  -25.9485  -30.7998   21.3736 C   0  0  0  0  0  0
  -26.0305  -29.4273   20.7187 C   0  0  0  0  0  0
  -27.2168  -28.6360   20.7226 C   0  0  0  0  0  0
  -26.0484  -26.8799   19.5259 C   0  0  0  0  0  0
  -24.8816  -27.6699   19.5043 C   0  0  0  0  0  0
  -23.6262  -29.8079   20.1611 C   0  0  0  0  0  0
  -25.4108  -36.3079   24.0336 C   0  0  1  0  0  0
  -20.5864  -28.3590   23.1334 C   0  0  2  0  0  0
  -20.6753  -26.9331   22.5429 C   0  0  0  0  0  0
  -19.5750  -26.6325   21.5201 C   0  0  0  0  0  0
  -18.1903  -26.7859   22.1569 C   0  0  0  0  0  0
  -19.1520  -28.8769   23.2868 C   0  0  0  0  0  0
  -18.9461  -30.1375   23.8890 C   0  0  0  0  0  0
  -17.6465  -30.6539   24.0515 C   0  0  0  0  0  0
  -25.9059  -34.9464   23.5089 C   0  0  0  0  0  0
  -16.5355  -29.9024   23.6337 C   0  0  0  0  0  0
  -16.7257  -28.6436   23.0367 C   0  0  0  0  0  0
  -26.4475  -31.6612   25.0737 C   0  0  0  0  0  0
  -25.3694  -31.3769   26.1475 C   0  0  0  0  0  0
  -27.0281  -30.3020   24.6140 C   0  0  0  0  0  0
  -27.6050  -32.4367   25.7467 C   0  0  0  0  0  0
  -27.5582  -37.1766   24.8458 C   0  0  0  0  0  0
  -21.4178  -29.2982   22.3768 N   0  0  0  0  0  0
  -26.4279  -37.3788   23.9440 N   0  0  0  0  0  0
  -24.6767  -31.0648   22.0969 N   0  0  0  0  0  0
  -23.4214  -28.8145   23.3044 O   0  0  0  0  0  0
  -28.3439  -26.4827   20.1783 O   0  0  0  0  0  0
  -26.5606  -34.8928   22.4646 O   0  0  0  0  0  0
  -23.5361  -32.1426   23.7374 O   0  0  0  0  0  0
  -29.2355  -19.0269   21.0591 C   0  0  0  0  0  0
  -28.9649  -20.4189   21.2030 C   0  0  0  0  0  0
  -30.4805  -18.5948   20.5360 C   0  0  0  0  0  0
  -29.9017  -21.3945   20.7893 C   0  0  0  0  0  0
  -31.3350  -19.6417   20.0822 C   0  0  0  0  0  0
  -30.9140  -16.9587   23.0044 C   0  0  0  0  0  0
  -31.9570  -17.1772   21.9162 C   0  0  0  0  0  0
  -30.0058  -15.8735   22.3968 C   0  0  0  0  0  0
  -31.0744  -17.1198   20.6641 C   0  0  1  0  0  0
  -33.6290  -20.2159   19.5242 C   0  0  0  0  0  0
  -29.7220  -22.9235   21.1558 C   0  0  0  0  0  0
  -28.6426  -23.8132   20.3677 C   0  0  0  0  0  0
  -28.2454  -25.2431   20.9809 C   0  0  0  0  0  0
  -31.0566  -20.9829   20.1941 N   0  0  0  0  0  0
  -30.2839  -15.8351   20.9473 N   0  0  0  0  0  0
  -32.5590  -19.2760   19.5595 O   0  0  0  0  0  0
  -31.4486  -12.4122   19.1578 H   0  0  0  0  0  0
  -30.2770  -11.4125   19.9395 H   0  0  0  0  0  0
  -29.7450  -11.7138   17.5031 H   0  0  0  0  0  0
  -29.6711  -13.4430   17.7142 H   0  0  0  0  0  0
  -27.8243  -11.3240   18.8532 H   0  0  0  0  0  0
  -27.3749  -12.6246   17.7837 H   0  0  0  0  0  0
  -27.6476  -14.2838   19.5001 H   0  0  0  0  0  0
  -28.7113  -12.1764   21.4289 H   0  0  0  0  0  0
  -28.4467  -13.8592   21.7813 H   0  0  0  0  0  0
  -25.2769   -9.5703   22.4804 H   0  0  0  0  0  0
  -24.0016   -7.4646   22.7477 H   0  0  0  0  0  0
  -21.0884   -8.8794   19.8945 H   0  0  0  0  0  0
  -22.3739  -10.9702   19.6184 H   0  0  0  0  0  0
  -21.1989   -7.6147   23.9731 H   0  0  0  0  0  0
  -21.1475   -6.0507   25.9076 H   0  0  0  0  0  0
  -22.0599   -2.7619   23.2807 H   0  0  0  0  0  0
  -22.3975  -11.9871   22.4848 H   0  0  0  0  0  0
  -21.0983  -13.1219   22.2528 H   0  0  0  0  0  0
  -24.6499  -15.8545   20.5482 H   0  0  0  0  0  0
  -26.2632  -15.6437   20.0921 H   0  0  0  0  0  0
  -26.7138  -32.5491   23.1115 H   0  0  0  0  0  0
  -25.0161  -33.9779   25.0489 H   0  0  0  0  0  0
  -22.6971  -31.2915   21.4048 H   0  0  0  0  0  0
  -23.3821  -35.9522   23.3241 H   0  0  0  0  0  0
  -24.3579  -36.8923   22.2071 H   0  0  0  0  0  0
  -23.7169  -37.6396   23.6715 H   0  0  0  0  0  0
  -26.0759  -31.5676   20.6098 H   0  0  0  0  0  0
  -26.8275  -30.8438   22.0037 H   0  0  0  0  0  0
  -28.1124  -29.0106   21.1984 H   0  0  0  0  0  0
  -26.0263  -25.9000   19.0690 H   0  0  0  0  0  0
  -23.9868  -27.2918   19.0316 H   0  0  0  0  0  0
  -23.7264  -30.5855   19.4030 H   0  0  0  0  0  0
  -22.7484  -29.2280   19.8658 H   0  0  0  0  0  0
  -25.1279  -36.1907   25.0819 H   0  0  0  0  0  0
  -20.9894  -28.3147   24.1484 H   0  0  0  0  0  0
  -20.5608  -26.2209   23.3617 H   0  0  0  0  0  0
  -21.6632  -26.7337   22.1246 H   0  0  0  0  0  0
  -19.6931  -25.6237   21.1215 H   0  0  0  0  0  0
  -19.6729  -27.3152   20.6747 H   0  0  0  0  0  0
  -17.4201  -26.6642   21.3938 H   0  0  0  0  0  0
  -18.0253  -25.9944   22.8906 H   0  0  0  0  0  0
  -19.7946  -30.7125   24.2303 H   0  0  0  0  0  0
  -17.5043  -31.6243   24.5051 H   0  0  0  0  0  0
  -15.5356  -30.2916   23.7678 H   0  0  0  0  0  0
  -15.8650  -28.0726   22.7176 H   0  0  0  0  0  0
  -24.5998  -30.6923   25.7877 H   0  0  0  0  0  0
  -24.8750  -32.2923   26.4731 H   0  0  0  0  0  0
  -25.8050  -30.9174   27.0350 H   0  0  0  0  0  0
  -26.2794  -29.6813   24.1190 H   0  0  0  0  0  0
  -27.4007  -29.7234   25.4592 H   0  0  0  0  0  0
  -27.8657  -30.4292   23.9277 H   0  0  0  0  0  0
  -27.2726  -33.3818   26.1753 H   0  0  0  0  0  0
  -28.3989  -32.6630   25.0350 H   0  0  0  0  0  0
  -28.0509  -31.8647   26.5604 H   0  0  0  0  0  0
  -28.2556  -38.0097   24.7577 H   0  0  0  0  0  0
  -28.1123  -36.2652   24.6201 H   0  0  0  0  0  0
  -27.2320  -37.1271   25.8852 H   0  0  0  0  0  0
  -20.9392  -29.8756   21.7017 H   0  0  0  0  0  0
  -26.0160  -38.2842   24.1531 H   0  0  0  0  0  0
  -28.5376  -18.3052   21.4544 H   0  0  0  0  0  0
  -28.0614  -20.7400   21.7031 H   0  0  0  0  0  0
  -30.3389  -17.8716   23.1662 H   0  0  0  0  0  0
  -31.3448  -16.6861   23.9667 H   0  0  0  0  0  0
  -32.6753  -16.3537   21.9208 H   0  0  0  0  0  0
  -32.5337  -18.0964   22.0242 H   0  0  0  0  0  0
  -28.9488  -16.0586   22.5856 H   0  0  0  0  0  0
  -30.2621  -14.9264   22.8774 H   0  0  0  0  0  0
  -31.6904  -16.9859   19.7719 H   0  0  0  0  0  0
  -34.5207  -19.7124   19.1419 H   0  0  0  0  0  0
  -33.8695  -20.5783   20.5250 H   0  0  0  0  0  0
  -33.4265  -21.0612   18.8652 H   0  0  0  0  0  0
  -30.6985  -23.4214   21.1128 H   0  0  0  0  0  0
  -29.4832  -22.9350   22.2279 H   0  0  0  0  0  0
  -27.7140  -23.2322   20.3518 H   0  0  0  0  0  0
  -28.9269  -23.9066   19.3154 H   0  0  0  0  0  0
  -28.8522  -25.4090   21.8713 H   0  0  0  0  0  0
  -27.2353  -25.1572   21.3902 H   0  0  0  0  0  0
  1 25  1  0  0  0
  1 30  2  0  0  0
  1 85  1  0  0  0
  2  3  1  0  0  0
  2 25  1  0  0  0
  2 87  1  0  0  0
  2 88  1  0  0  0
  3  4  1  0  0  0
  3 89  1  0  0  0
  3 90  1  0  0  0
  4  5  1  0  0  0
  4 91  1  0  0  0
  4 92  1  0  0  0
  5  6  1  0  0  0
  5 26  1  0  0  0
  5 93  1  0  0  0
  6 25  1  0  0  0
  6 94  1  0  0  0
  6 95  1  0  0  0
  7  8  2  0  0  0
  7 26  1  0  0  0
  7 29  1  0  0  0
  8  9  1  0  0  0
  8 22  1  0  0  0
  9 10  1  0  0  0
  9 27  2  0  0  0
 10 11  2  0  0  0
 10 15  1  0  0  0
 11 12  1  0  0  0
 11 96  1  0  0  0
 12 13  2  0  0  0
 12 97  1  0  0  0
 13 14  1  0  0  0
 13 31  1  0  0  0
 14 15  2  0  0  0
 14 98  1  0  0  0
 15 99  1  0  0  0
 16 17  2  0  0  0
 16 21  1  0  0  0
 16 31  1  0  0  0
 17 18  1  0  0  0
 17100  1  0  0  0
 18 19  2  0  0  0
 18101  1  0  0  0
 19 20  1  0  0  0
 19 24  1  0  0  0
 20 21  2  0  0  0
 20102  1  0  0  0
 21 23  1  0  0  0
 22 28  1  0  0  0
 22 32  2  0  0  0
 26 27  1  0  0  0
 28103  1  0  0  0
 28104  1  0  0  0
 29105  1  0  0  0
 29106  1  0  0  0
 33 34  1  0  0  0
 33 66  1  0  0  0
 33 70  2  0  0  0
 34 36  1  0  0  0
 34 59  1  0  0  0
 34107  1  0  0  0
 35 44  2  0  0  0
 35 45  1  0  0  0
 35 68  1  0  0  0
 36 56  1  0  0  0
 36108  1  0  0  0
 37 39  1  0  0  0
 37 47  1  0  0  0
 37 66  1  0  0  0
 37109  1  0  0  0
 38 43  2  0  0  0
 38 46  1  0  0  0
 38 47  1  0  0  0
 39 64  1  0  0  0
 39 67  2  0  0  0
 40 52  1  0  0  0
 40 53  2  0  0  0
 40 58  1  0  0  0
 41110  1  0  0  0
 41111  1  0  0  0
 41112  1  0  0  0
 41 48  1  0  0  0
 42 43  1  0  0  0
 42 66  1  0  0  0
 42113  1  0  0  0
 42114  1  0  0  0
 43 44  1  0  0  0
 44115  1  0  0  0
 45 46  2  0  0  0
 45116  1  0  0  0
 46117  1  0  0  0
 47118  1  0  0  0
 47119  1  0  0  0
 48 56  1  0  0  0
 48 65  1  0  0  0
 48120  1  0  0  0
 49 50  1  0  0  0
 49 53  1  0  0  0
 49 64  1  0  0  0
 49121  1  0  0  0
 50 51  1  0  0  0
 50122  1  0  0  0
 50123  1  0  0  0
 51 52  1  0  0  0
 51124  1  0  0  0
 51125  1  0  0  0
 52126  1  0  0  0
 52127  1  0  0  0
 53 54  1  0  0  0
 54 55  2  0  0  0
 54128  1  0  0  0
 55 57  1  0  0  0
 55129  1  0  0  0
 56 69  2  0  0  0
 57 58  2  0  0  0
 57130  1  0  0  0
 58131  1  0  0  0
 59 60  1  0  0  0
 59 61  1  0  0  0
 59 62  1  0  0  0
 60132  1  0  0  0
 60133  1  0  0  0
 60134  1  0  0  0
 61135  1  0  0  0
 61136  1  0  0  0
 61137  1  0  0  0
 62138  1  0  0  0
 62139  1  0  0  0
 62140  1  0  0  0
 63 65  1  0  0  0
 63141  1  0  0  0
 63142  1  0  0  0
 63143  1  0  0  0
 64144  1  0  0  0
 65145  1  0  0  0
 68 83  1  0  0  0
 71 72  2  0  0  0
 71 73  1  0  0  0
 71146  1  0  0  0
 72 74  1  0  0  0
 72147  1  0  0  0
 73 75  2  0  0  0
 73 79  1  0  0  0
 74 81  1  0  0  0
 74 84  2  0  0  0
 75 84  1  0  0  0
 75 86  1  0  0  0
 76 77  1  0  0  0
 76 78  1  0  0  0
 76148  1  0  0  0
 76149  1  0  0  0
 77 79  1  0  0  0
 77150  1  0  0  0
 77151  1  0  0  0
 78 85  1  0  0  0
 78152  1  0  0  0
 78153  1  0  0  0
 79 85  1  0  0  0
 79154  1  0  0  0
 80 86  1  0  0  0
 80155  1  0  0  0
 80156  1  0  0  0
 80157  1  0  0  0
 81 82  1  0  0  0
 81158  1  0  0  0
 81159  1  0  0  0
 82 83  1  0  0  0
 82160  1  0  0  0
 82161  1  0  0  0
 83162  1  0  0  0
 83163  1  0  0  0
M  ISO  4   1 100  68 101  83 101  85 100
M  END
> <chiral flag>
0

> <version>
0

> <s_m_source_file>
/data/baiqing/PycharmProjects/Reinvent-master-3.2/result/LINK_invent/BTK/process_docking_weight1_custom_sum_contain_oxygen_bond_distance_aromatic_linkinvent_7_9_3/rearranged_h_0122.sdf

> <i_m_source_file_index>
70

> <r_mmod_Potential_Energy-OPLS-2005>
225.077743530273

> <r_mmod_Stretch_Energy-OPLS-2005>
102.531982421875

> <r_mmod_Bend_Energy-OPLS-2005>
224.396301269531

> <r_mmod_Torsional_Energy-OPLS-2005>
338.306274414062

> <r_mmod_Improper_Torsional_Energy-OPLS-2005>
11.058424949646

> <r_mmod_Van_der_Waal_Energy-OPLS-2005>
159.388626098633

> <r_mmod_Electrostatic_Energy-OPLS-2005>
-459.070983886719

> <r_mmod_Solvation_Energy-OPLS-2005>
-203.0595703125

> <b_mmod_Minimization_Converged-OPLS-2005>
0

> <r_mmod_RMS_Derivative-OPLS-2005>
7.45419359207153

$$$$
70
                    3D
 Structure written by MMmdl.
168176  0  0  1  0            999 V2000
  -30.5743  -14.7056   20.4884 C   0  0  0  0  0  0
  -30.4436  -12.4399   19.4565 C   0  0  0  0  0  0
  -29.5178  -12.5310   18.2257 C   0  0  0  0  0  0
  -28.0366  -12.3526   18.6258 C   0  0  0  0  0  0
  -27.6463  -13.2203   19.8547 C   0  0  2  0  0  0
  -28.6853  -13.0966   20.9859 C   0  0  0  0  0  0
  -25.2538  -13.8188   20.5652 C   0  0  0  0  0  0
  -24.1811  -13.0449   20.9208 C   0  0  0  0  0  0
  -24.6383  -11.6940   20.8738 C   0  0  0  0  0  0
  -23.9030  -10.4314   21.0383 C   0  0  0  0  0  0
  -24.3589   -9.4224   21.9152 C   0  0  0  0  0  0
  -23.6270   -8.2248   22.0732 C   0  0  0  0  0  0
  -22.4240   -8.0272   21.3537 C   0  0  0  0  0  0
  -21.9862   -9.0246   20.4639 C   0  0  0  0  0  0
  -22.7193  -10.2133   20.3032 C   0  0  0  0  0  0
  -21.6873   -6.0697   22.5290 C   0  0  0  0  0  0
  -21.4034   -6.5614   23.8215 C   0  0  0  0  0  0
  -21.3664   -5.6769   24.9188 C   0  0  0  0  0  0
  -21.6038   -4.3022   24.7227 C   0  0  0  0  0  0
  -21.8832   -3.8108   23.4351 C   0  0  0  0  0  0
  -21.9195   -4.6927   22.3408 C   0  0  0  0  0  0
  -22.7832  -13.5242   21.1835 C   0  0  0  0  0  0
  -22.1650   -4.2117   21.0972 F   0  0  0  0  0  0
  -21.5647   -3.4509   25.7733 F   0  0  0  0  0  0
  -29.9858  -13.4669   20.4149 N   0  0  0  0  0  0
  -26.2955  -12.9368   20.3259 N   0  0  0  0  0  0
  -25.9312  -11.6542   20.5734 N   0  0  0  0  0  0
  -22.0423  -12.8282   22.0411 N   0  0  0  0  0  0
  -25.4224  -15.1896   20.4008 N   0  0  0  0  0  0
  -31.7624  -14.8538   20.1842 O   0  0  0  0  0  0
  -21.6646   -6.8840   21.4235 O   0  0  0  0  0  0
  -22.3534  -14.5517   20.6625 O   0  0  0  0  0  0
  -24.6313  -31.8574   23.2046 C   0  0  0  0  0  0
  -25.9162  -32.4770   23.8370 C   0  0  1  0  0  0
  -27.2078  -27.2965   20.1177 C   0  0  0  0  0  0
  -25.5991  -33.8579   24.2293 N   0  0  0  0  0  0
  -23.4245  -30.4837   21.5483 C   0  0  2  0  0  0
  -24.8639  -28.9385   20.1086 C   0  0  0  0  0  0
  -22.7501  -29.4615   22.4943 C   0  0  0  0  0  0
  -18.0288  -28.1383   22.8479 C   0  0  0  0  0  0
  -24.1458  -36.7279   23.2636 C   0  0  0  0  0  0
  -25.9658  -30.7827   21.3750 C   0  0  0  0  0  0
  -26.0362  -29.4087   20.7160 C   0  0  0  0  0  0
  -27.2135  -28.6020   20.7041 C   0  0  0  0  0  0
  -26.0165  -26.8835   19.4860 C   0  0  0  0  0  0
  -24.8581  -27.6831   19.4825 C   0  0  0  0  0  0
  -23.6355  -29.8238   20.1593 C   0  0  0  0  0  0
  -25.4099  -36.3099   24.0318 C   0  0  1  0  0  0
  -20.5895  -28.3693   23.1280 C   0  0  2  0  0  0
  -20.6775  -26.9406   22.5417 C   0  0  0  0  0  0
  -19.5752  -26.6369   21.5210 C   0  0  0  0  0  0
  -18.1937  -26.7931   22.1621 C   0  0  0  0  0  0
  -19.1546  -28.8854   23.2872 C   0  0  0  0  0  0
  -18.9471  -30.1458   23.8875 C   0  0  0  0  0  0
  -17.6471  -30.6592   24.0558 C   0  0  0  0  0  0
  -25.9042  -34.9469   23.5103 C   0  0  0  0  0  0
  -16.5354  -29.9091   23.6320 C   0  0  0  0  0  0
  -16.7276  -28.6510   23.0337 C   0  0  0  0  0  0
  -26.4524  -31.6611   25.0754 C   0  0  0  0  0  0
  -25.3770  -31.3750   26.1520 C   0  0  0  0  0  0
  -27.0389  -30.3039   24.6238 C   0  0  0  0  0  0
  -27.6046  -32.4383   25.7530 C   0  0  0  0  0  0
  -27.5560  -37.1814   24.8461 C   0  0  0  0  0  0
  -21.4218  -29.3039   22.3671 N   0  0  0  0  0  0
  -26.4260  -37.3806   23.9423 N   0  0  0  0  0  0
  -24.6940  -31.0578   22.0999 N   0  0  0  0  0  0
  -23.4212  -28.8146   23.3044 O   0  0  0  0  0  0
  -28.3178  -26.4372   20.1479 O   0  0  0  0  0  0
  -26.5586  -34.8951   22.4651 O   0  0  0  0  0  0
  -23.5485  -32.1371   23.7369 O   0  0  0  0  0  0
  -32.7096  -24.5787   21.4450 C   0  0  0  0  0  0
  -32.5686  -25.9235   20.8048 C   0  0  0  0  0  0
  -31.1046  -25.9087   20.4086 C   0  0  0  0  0  0
  -30.4963  -24.7362   21.2145 C   0  0  1  0  0  0
  -34.0859  -24.1402   21.8854 C   0  0  0  0  0  0
  -27.3782  -20.9846   19.8854 C   0  0  0  0  0  0
  -29.0298  -22.5023   21.1233 C   0  0  0  0  0  0
  -30.0835  -17.2596   20.9692 C   0  0  0  0  0  0
  -29.2091  -18.4541   20.3150 C   0  0  0  0  0  0
  -28.0966  -24.9772   20.3633 C   0  0  0  0  0  0
  -29.3435  -23.9658   20.4752 C   0  0  1  0  0  0
  -28.8714  -21.1425   20.2522 C   0  0  1  0  0  0
  -31.6407  -23.9077   21.5802 N   0  0  0  0  0  0
  -29.7513  -15.7881   20.7238 N   0  0  0  0  0  0
  -29.4312  -19.8613   20.9020 N   0  3  0  0  0  0
  -31.4835  -12.5947   19.1567 H   0  0  0  0  0  0
  -30.4059  -11.4456   19.9028 H   0  0  0  0  0  0
  -29.8098  -11.7923   17.4780 H   0  0  0  0  0  0
  -29.6508  -13.5088   17.7574 H   0  0  0  0  0  0
  -27.8676  -11.2961   18.8428 H   0  0  0  0  0  0
  -27.3970  -12.5991   17.7800 H   0  0  0  0  0  0
  -27.6505  -14.2544   19.5115 H   0  0  0  0  0  0
  -28.7115  -12.0755   21.3705 H   0  0  0  0  0  0
  -28.4147  -13.7347   21.8289 H   0  0  0  0  0  0
  -25.2732   -9.5751   22.4711 H   0  0  0  0  0  0
  -24.0017   -7.4650   22.7442 H   0  0  0  0  0  0
  -21.0803   -8.8755   19.8925 H   0  0  0  0  0  0
  -22.3633  -10.9660   19.6128 H   0  0  0  0  0  0
  -21.2025   -7.6122   23.9727 H   0  0  0  0  0  0
  -21.1486   -6.0481   25.9098 H   0  0  0  0  0  0
  -22.0596   -2.7557   23.2878 H   0  0  0  0  0  0
  -22.3968  -12.0002   22.4964 H   0  0  0  0  0  0
  -21.1011  -13.1356   22.2471 H   0  0  0  0  0  0
  -24.6548  -15.8396   20.5199 H   0  0  0  0  0  0
  -26.2666  -15.6309   20.0594 H   0  0  0  0  0  0
  -26.7233  -32.5434   23.1125 H   0  0  0  0  0  0
  -25.0298  -33.9738   25.0549 H   0  0  0  0  0  0
  -22.7218  -31.3076   21.4133 H   0  0  0  0  0  0
  -23.3746  -35.9584   23.3286 H   0  0  0  0  0  0
  -24.3513  -36.8899   22.2045 H   0  0  0  0  0  0
  -23.7165  -37.6455   23.6657 H   0  0  0  0  0  0
  -26.0958  -31.5439   20.6050 H   0  0  0  0  0  0
  -26.8488  -30.8328   22.0017 H   0  0  0  0  0  0
  -28.1163  -28.9590   21.1783 H   0  0  0  0  0  0
  -25.9553  -25.9302   18.9830 H   0  0  0  0  0  0
  -23.9635  -27.3271   18.9907 H   0  0  0  0  0  0
  -23.7587  -30.6043   19.4079 H   0  0  0  0  0  0
  -22.7513  -29.2611   19.8555 H   0  0  0  0  0  0
  -25.1276  -36.1946   25.0800 H   0  0  0  0  0  0
  -20.9972  -28.3237   24.1406 H   0  0  0  0  0  0
  -20.5663  -26.2299   23.3615 H   0  0  0  0  0  0
  -21.6648  -26.7422   22.1215 H   0  0  0  0  0  0
  -19.6915  -25.6272   21.1261 H   0  0  0  0  0  0
  -19.6699  -27.3156   20.6718 H   0  0  0  0  0  0
  -17.4200  -26.6664   21.4014 H   0  0  0  0  0  0
  -18.0348  -26.0064   22.9017 H   0  0  0  0  0  0
  -19.7947  -30.7287   24.2213 H   0  0  0  0  0  0
  -17.5022  -31.6271   24.5177 H   0  0  0  0  0  0
  -15.5364  -30.3007   23.7649 H   0  0  0  0  0  0
  -15.8666  -28.0845   22.7051 H   0  0  0  0  0  0
  -24.5971  -30.7052   25.7895 H   0  0  0  0  0  0
  -24.8951  -32.2936   26.4918 H   0  0  0  0  0  0
  -25.8109  -30.8961   27.0307 H   0  0  0  0  0  0
  -26.2964  -29.6790   24.1283 H   0  0  0  0  0  0
  -27.4082  -29.7342   25.4773 H   0  0  0  0  0  0
  -27.8826  -30.4310   23.9453 H   0  0  0  0  0  0
  -27.2609  -33.3638   26.2166 H   0  0  0  0  0  0
  -28.3823  -32.7044   25.0345 H   0  0  0  0  0  0
  -28.0771  -31.8506   26.5422 H   0  0  0  0  0  0
  -28.2602  -38.0093   24.7529 H   0  0  0  0  0  0
  -28.1026  -36.2637   24.6256 H   0  0  0  0  0  0
  -27.2286  -37.1433   25.8862 H   0  0  0  0  0  0
  -20.9388  -29.8752   21.6876 H   0  0  0  0  0  0
  -26.0123  -38.2869   24.1456 H   0  0  0  0  0  0
  -33.2301  -26.0224   19.9430 H   0  0  0  0  0  0
  -32.7829  -26.7186   21.5203 H   0  0  0  0  0  0
  -31.0111  -25.7337   19.3364 H   0  0  0  0  0  0
  -30.6396  -26.8703   20.6260 H   0  0  0  0  0  0
  -30.0772  -25.1427   22.1388 H   0  0  0  0  0  0
  -34.7656  -24.0867   21.0369 H   0  0  0  0  0  0
  -34.0493  -23.1625   22.3682 H   0  0  0  0  0  0
  -34.4860  -24.8572   22.6037 H   0  0  0  0  0  0
  -26.9773  -21.8987   19.4450 H   0  0  0  0  0  0
  -26.7665  -20.7643   20.7625 H   0  0  0  0  0  0
  -27.2127  -20.1910   19.1598 H   0  0  0  0  0  0
  -28.1397  -22.6084   21.7469 H   0  0  0  0  0  0
  -29.7923  -22.2870   21.8701 H   0  0  0  0  0  0
  -30.0303  -17.3941   22.0490 H   0  0  0  0  0  0
  -31.1334  -17.4228   20.7168 H   0  0  0  0  0  0
  -28.1482  -18.2050   20.3919 H   0  0  0  0  0  0
  -29.4170  -18.4943   19.2438 H   0  0  0  0  0  0
  -27.5271  -24.8971   21.2890 H   0  0  0  0  0  0
  -27.4603  -24.5752   19.5781 H   0  0  0  0  0  0
  -29.7058  -23.7766   19.4647 H   0  0  0  0  0  0
  -29.4335  -21.2732   19.3225 H   0  0  0  0  0  0
  -28.7883  -15.5354   20.8835 H   0  0  0  0  0  0
  -30.4293  -19.9888   20.9615 H   0  0  0  0  0  0
  -29.0861  -19.8295   21.8486 H   0  0  0  0  0  0
  1 25  1  0  0  0
  1 30  2  0  0  0
  1 84  1  0  0  0
  2  3  1  0  0  0
  2 25  1  0  0  0
  2 86  1  0  0  0
  2 87  1  0  0  0
  3  4  1  0  0  0
  3 88  1  0  0  0
  3 89  1  0  0  0
  4  5  1  0  0  0
  4 90  1  0  0  0
  4 91  1  0  0  0
  5  6  1  0  0  0
  5 26  1  0  0  0
  5 92  1  0  0  0
  6 25  1  0  0  0
  6 93  1  0  0  0
  6 94  1  0  0  0
  7  8  2  0  0  0
  7 26  1  0  0  0
  7 29  1  0  0  0
  8  9  1  0  0  0
  8 22  1  0  0  0
  9 10  1  0  0  0
  9 27  2  0  0  0
 10 11  2  0  0  0
 10 15  1  0  0  0
 11 12  1  0  0  0
 11 95  1  0  0  0
 12 13  2  0  0  0
 12 96  1  0  0  0
 13 14  1  0  0  0
 13 31  1  0  0  0
 14 15  2  0  0  0
 14 97  1  0  0  0
 15 98  1  0  0  0
 16 17  2  0  0  0
 16 21  1  0  0  0
 16 31  1  0  0  0
 17 18  1  0  0  0
 17 99  1  0  0  0
 18 19  2  0  0  0
 18100  1  0  0  0
 19 20  1  0  0  0
 19 24  1  0  0  0
 20 21  2  0  0  0
 20101  1  0  0  0
 21 23  1  0  0  0
 22 28  1  0  0  0
 22 32  2  0  0  0
 26 27  1  0  0  0
 28102  1  0  0  0
 28103  1  0  0  0
 29104  1  0  0  0
 29105  1  0  0  0
 33 34  1  0  0  0
 33 66  1  0  0  0
 33 70  2  0  0  0
 34 36  1  0  0  0
 34 59  1  0  0  0
 34106  1  0  0  0
 35 44  2  0  0  0
 35 45  1  0  0  0
 35 68  1  0  0  0
 36 56  1  0  0  0
 36107  1  0  0  0
 37 39  1  0  0  0
 37 47  1  0  0  0
 37 66  1  0  0  0
 37108  1  0  0  0
 38 43  2  0  0  0
 38 46  1  0  0  0
 38 47  1  0  0  0
 39 64  1  0  0  0
 39 67  2  0  0  0
 40 52  1  0  0  0
 40 53  2  0  0  0
 40 58  1  0  0  0
 41109  1  0  0  0
 41110  1  0  0  0
 41111  1  0  0  0
 41 48  1  0  0  0
 42 43  1  0  0  0
 42 66  1  0  0  0
 42112  1  0  0  0
 42113  1  0  0  0
 43 44  1  0  0  0
 44114  1  0  0  0
 45 46  2  0  0  0
 45115  1  0  0  0
 46116  1  0  0  0
 47117  1  0  0  0
 47118  1  0  0  0
 48 56  1  0  0  0
 48 65  1  0  0  0
 48119  1  0  0  0
 49 50  1  0  0  0
 49 53  1  0  0  0
 49 64  1  0  0  0
 49120  1  0  0  0
 50 51  1  0  0  0
 50121  1  0  0  0
 50122  1  0  0  0
 51 52  1  0  0  0
 51123  1  0  0  0
 51124  1  0  0  0
 52125  1  0  0  0
 52126  1  0  0  0
 53 54  1  0  0  0
 54 55  2  0  0  0
 54127  1  0  0  0
 55 57  1  0  0  0
 55128  1  0  0  0
 56 69  2  0  0  0
 57 58  2  0  0  0
 57129  1  0  0  0
 58130  1  0  0  0
 59 60  1  0  0  0
 59 61  1  0  0  0
 59 62  1  0  0  0
 60131  1  0  0  0
 60132  1  0  0  0
 60133  1  0  0  0
 61134  1  0  0  0
 61135  1  0  0  0
 61136  1  0  0  0
 62137  1  0  0  0
 62138  1  0  0  0
 62139  1  0  0  0
 63 65  1  0  0  0
 63140  1  0  0  0
 63141  1  0  0  0
 63142  1  0  0  0
 64143  1  0  0  0
 65144  1  0  0  0
 68 80  1  0  0  0
 71 72  1  0  0  0
 71 75  1  0  0  0
 71 83  2  0  0  0
 72 73  1  0  0  0
 72145  1  0  0  0
 72146  1  0  0  0
 73147  1  0  0  0
 73148  1  0  0  0
 73 74  1  0  0  0
 74 81  1  0  0  0
 74 83  1  0  0  0
 74149  1  0  0  0
 75150  1  0  0  0
 75151  1  0  0  0
 75152  1  0  0  0
 76153  1  0  0  0
 76154  1  0  0  0
 76155  1  0  0  0
 76 82  1  0  0  0
 77 82  1  0  0  0
 77156  1  0  0  0
 77157  1  0  0  0
 77 81  1  0  0  0
 78 79  1  0  0  0
 78 84  1  0  0  0
 78158  1  0  0  0
 78159  1  0  0  0
 79 85  1  0  0  0
 79160  1  0  0  0
 79161  1  0  0  0
 80 81  1  0  0  0
 80162  1  0  0  0
 80163  1  0  0  0
 81164  1  0  0  0
 82 85  1  0  0  0
 82165  1  0  0  0
 84166  1  0  0  0
 85167  1  0  0  0
 85168  1  0  0  0
M  CHG  1  85   1
M  ISO  4   1 100  68 101  80 101  84 100
M  END
> <chiral flag>
0

> <version>
0

> <s_m_source_file>
/data/baiqing/PycharmProjects/Reinvent-master-3.2/result/LINK_invent/BTK/process_docking_weight1_custom_sum_contain_oxygen_bond_distance_aromatic_linkinvent_7_9_3/rearranged_h_0122.sdf

> <i_m_source_file_index>
71

> <r_mmod_Potential_Energy-OPLS-2005>
-50.49853515625

> <r_mmod_Stretch_Energy-OPLS-2005>
117.035667419434

> <r_mmod_Bend_Energy-OPLS-2005>
189.096939086914

> <r_mmod_Torsional_Energy-OPLS-2005>
278.110382080078

> <r_mmod_Improper_Torsional_Energy-OPLS-2005>
4.33132171630859

> <r_mmod_Van_der_Waal_Energy-OPLS-2005>
122.337287902832

> <r_mmod_Electrostatic_Energy-OPLS-2005>
-361.6328125

> <r_mmod_Solvation_Energy-OPLS-2005>
-467.233093261719

> <b_mmod_Minimization_Converged-OPLS-2005>
0

> <r_mmod_RMS_Derivative-OPLS-2005>
4.70324277877808

$$$$
71
                    3D
 Structure written by MMmdl.
153161  0  0  1  0            999 V2000
  -30.4777  -15.0955   20.3977 C   0  0  0  0  0  0
  -30.4413  -12.6905   19.5108 C   0  0  0  0  0  0
  -29.5302  -12.5603   18.2671 C   0  0  0  0  0  0
  -28.0693  -12.3127   18.6878 C   0  0  0  0  0  0
  -27.6194  -13.2611   19.8289 C   0  0  2  0  0  0
  -28.6579  -13.3515   20.9661 C   0  0  0  0  0  0
  -25.2415  -13.8231   20.5730 C   0  0  0  0  0  0
  -24.1753  -13.0434   20.9250 C   0  0  0  0  0  0
  -24.6385  -11.6924   20.8751 C   0  0  0  0  0  0
  -23.9077  -10.4289   21.0404 C   0  0  0  0  0  0
  -24.3623   -9.4206   21.9182 C   0  0  0  0  0  0
  -23.6297   -8.2241   22.0749 C   0  0  0  0  0  0
  -22.4280   -8.0283   21.3537 C   0  0  0  0  0  0
  -21.9918   -9.0258   20.4646 C   0  0  0  0  0  0
  -22.7244  -10.2136   20.3055 C   0  0  0  0  0  0
  -21.6854   -6.0735   22.5273 C   0  0  0  0  0  0
  -21.4020   -6.5636   23.8209 C   0  0  0  0  0  0
  -21.3662   -5.6783   24.9173 C   0  0  0  0  0  0
  -21.6047   -4.3049   24.7217 C   0  0  0  0  0  0
  -21.8818   -3.8139   23.4338 C   0  0  0  0  0  0
  -21.9189   -4.6963   22.3394 C   0  0  0  0  0  0
  -22.7770  -13.5201   21.1899 C   0  0  0  0  0  0
  -22.1659   -4.2142   21.0977 F   0  0  0  0  0  0
  -21.5625   -3.4535   25.7733 F   0  0  0  0  0  0
  -29.9121  -13.8094   20.3527 N   0  0  0  0  0  0
  -26.2833  -12.9475   20.3206 N   0  0  0  0  0  0
  -25.9323  -11.6596   20.5712 N   0  0  0  0  0  0
  -22.0420  -12.8198   22.0460 N   0  0  0  0  0  0
  -25.4053  -15.1968   20.4154 N   0  0  0  0  0  0
  -31.6948  -15.1453   20.1840 O   0  0  0  0  0  0
  -21.6641   -6.8882   21.4239 O   0  0  0  0  0  0
  -22.3450  -14.5501   20.6734 O   0  0  0  0  0  0
  -24.6528  -31.8349   23.1804 C   0  0  0  0  0  0
  -25.9264  -32.4645   23.8231 C   0  0  1  0  0  0
  -27.2159  -27.0443   20.1740 C   0  0  0  0  0  0
  -25.5986  -33.8453   24.2145 N   0  0  0  0  0  0
  -23.4611  -30.4506   21.5271 C   0  0  2  0  0  0
  -24.9118  -28.8551   20.1166 C   0  0  0  0  0  0
  -22.7613  -29.4491   22.4824 C   0  0  0  0  0  0
  -18.0313  -28.1393   22.8468 C   0  0  0  0  0  0
  -24.1506  -36.7228   23.2642 C   0  0  0  0  0  0
  -26.0230  -30.6801   21.3918 C   0  0  0  0  0  0
  -26.0931  -29.2806   20.7369 C   0  0  0  0  0  0
  -27.2472  -28.3953   20.7380 C   0  0  0  0  0  0
  -26.0072  -26.7374   19.5151 C   0  0  0  0  0  0
  -24.8871  -27.6016   19.4852 C   0  0  0  0  0  0
  -23.6952  -29.7730   20.1502 C   0  0  0  0  0  0
  -25.4137  -36.2994   24.0309 C   0  0  1  0  0  0
  -20.5931  -28.3728   23.1215 C   0  0  2  0  0  0
  -20.6795  -26.9426   22.5396 C   0  0  0  0  0  0
  -19.5770  -26.6376   21.5205 C   0  0  0  0  0  0
  -18.1953  -26.7930   22.1619 C   0  0  0  0  0  0
  -19.1573  -28.8883   23.2833 C   0  0  0  0  0  0
  -18.9481  -30.1471   23.8861 C   0  0  0  0  0  0
  -17.6476  -30.6585   24.0552 C   0  0  0  0  0  0
  -25.9089  -34.9375   23.5035 C   0  0  0  0  0  0
  -16.5367  -29.9072   23.6333 C   0  0  0  0  0  0
  -16.7297  -28.6496   23.0352 C   0  0  0  0  0  0
  -26.4563  -31.6537   25.0700 C   0  0  0  0  0  0
  -25.3735  -31.3735   26.1387 C   0  0  0  0  0  0
  -27.0433  -30.2921   24.6333 C   0  0  0  0  0  0
  -27.6080  -32.4322   25.7486 C   0  0  0  0  0  0
  -27.5576  -37.1771   24.8461 C   0  0  0  0  0  0
  -21.4295  -29.3043   22.3583 N   0  0  0  0  0  0
  -26.4284  -37.3720   23.9406 N   0  0  0  0  0  0
  -24.7327  -31.0125   22.0874 N   0  0  0  0  0  0
  -23.4216  -28.8050   23.3010 O   0  0  0  0  0  0
  -28.2639  -26.0251   20.1762 O   0  0  0  0  0  0
  -26.5665  -34.8886   22.4606 O   0  0  0  0  0  0
  -23.5624  -32.1262   23.6976 O   0  0  0  0  0  0
  -30.1618  -20.5155   19.5453 C   0  0  0  0  0  0
  -28.1442  -20.2399   20.8157 C   0  0  0  0  0  0
  -30.0154  -18.8810   19.3350 C   0  0  0  0  0  0
  -28.7457  -18.8056   21.3839 C   0  0  0  0  0  0
  -29.1465  -21.4278   20.4248 C   0  0  2  0  0  0
  -29.8516  -17.9132   20.5963 C   0  0  1  0  0  0
  -28.7540  -23.0354   19.8385 C   0  0  0  0  0  0
  -28.0745  -24.4765   20.5330 C   0  0  0  0  0  0
  -29.6685  -16.2974   20.4860 N   0  0  0  0  0  0
  -31.4709  -12.8739   19.1999 H   0  0  0  0  0  0
  -30.4643  -11.7581   20.0766 H   0  0  0  0  0  0
  -29.8826  -11.7559   17.6203 H   0  0  0  0  0  0
  -29.5898  -13.4756   17.6751 H   0  0  0  0  0  0
  -27.9959  -11.2779   19.0236 H   0  0  0  0  0  0
  -27.4037  -12.4034   17.8285 H   0  0  0  0  0  0
  -27.5605  -14.2494   19.3715 H   0  0  0  0  0  0
  -28.7821  -12.3930   21.4723 H   0  0  0  0  0  0
  -28.3301  -14.0630   21.7264 H   0  0  0  0  0  0
  -25.2769   -9.5682   22.4756 H   0  0  0  0  0  0
  -24.0002   -7.4632   22.7470 H   0  0  0  0  0  0
  -21.0843   -8.8784   19.8958 H   0  0  0  0  0  0
  -22.3705  -10.9674   19.6166 H   0  0  0  0  0  0
  -21.2026   -7.6143   23.9715 H   0  0  0  0  0  0
  -21.1487   -6.0515   25.9075 H   0  0  0  0  0  0
  -22.0597   -2.7603   23.2836 H   0  0  0  0  0  0
  -22.4044  -11.9872   22.4869 H   0  0  0  0  0  0
  -21.1039  -13.1224   22.2661 H   0  0  0  0  0  0
  -24.6327  -15.8449   20.5286 H   0  0  0  0  0  0
  -26.2382  -15.6371   20.0487 H   0  0  0  0  0  0
  -26.7322  -32.5221   23.0942 H   0  0  0  0  0  0
  -25.0151  -33.9552   25.0313 H   0  0  0  0  0  0
  -22.7683  -31.2783   21.3641 H   0  0  0  0  0  0
  -23.3777  -35.9547   23.3268 H   0  0  0  0  0  0
  -24.3592  -36.8902   22.2061 H   0  0  0  0  0  0
  -23.7257  -37.6410   23.6709 H   0  0  0  0  0  0
  -26.1899  -31.4305   20.6184 H   0  0  0  0  0  0
  -26.8878  -30.7316   22.0413 H   0  0  0  0  0  0
  -28.1524  -28.7235   21.2298 H   0  0  0  0  0  0
  -25.9133  -25.7789   19.0242 H   0  0  0  0  0  0
  -23.9888  -27.2751   18.9791 H   0  0  0  0  0  0
  -23.8481  -30.5441   19.3938 H   0  0  0  0  0  0
  -22.8076  -29.2241   19.8318 H   0  0  0  0  0  0
  -25.1336  -36.1797   25.0801 H   0  0  0  0  0  0
  -21.0016  -28.3315   24.1338 H   0  0  0  0  0  0
  -20.5685  -26.2338   23.3618 H   0  0  0  0  0  0
  -21.6659  -26.7420   22.1195 H   0  0  0  0  0  0
  -19.6930  -25.6277   21.1257 H   0  0  0  0  0  0
  -19.6710  -27.3162   20.6715 H   0  0  0  0  0  0
  -17.4223  -26.6666   21.4023 H   0  0  0  0  0  0
  -18.0358  -26.0080   22.9025 H   0  0  0  0  0  0
  -19.7954  -30.7300   24.2219 H   0  0  0  0  0  0
  -17.5022  -31.6260   24.5163 H   0  0  0  0  0  0
  -15.5362  -30.2958   23.7680 H   0  0  0  0  0  0
  -15.8697  -28.0799   22.7081 H   0  0  0  0  0  0
  -24.5884  -30.7136   25.7680 H   0  0  0  0  0  0
  -24.8974  -32.2921   26.4817 H   0  0  0  0  0  0
  -25.8005  -30.8867   27.0163 H   0  0  0  0  0  0
  -26.3049  -29.6617   24.1362 H   0  0  0  0  0  0
  -27.4036  -29.7259   25.4931 H   0  0  0  0  0  0
  -27.8973  -30.4132   23.9666 H   0  0  0  0  0  0
  -27.2660  -33.3638   26.2003 H   0  0  0  0  0  0
  -28.3916  -32.6857   25.0335 H   0  0  0  0  0  0
  -28.0722  -31.8493   26.5451 H   0  0  0  0  0  0
  -28.2570  -38.0092   24.7519 H   0  0  0  0  0  0
  -28.1102  -36.2617   24.6279 H   0  0  0  0  0  0
  -27.2289  -37.1397   25.8862 H   0  0  0  0  0  0
  -20.9527  -29.8760   21.6753 H   0  0  0  0  0  0
  -26.0141  -38.2782   24.1414 H   0  0  0  0  0  0
  -30.1817  -20.9478   18.5444 H   0  0  0  0  0  0
  -31.1653  -20.6996   19.9308 H   0  0  0  0  0  0
  -27.4346  -20.6234   21.5499 H   0  0  0  0  0  0
  -27.5309  -20.0181   19.9408 H   0  0  0  0  0  0
  -30.8752  -18.5392   18.7576 H   0  0  0  0  0  0
  -29.1618  -18.7106   18.6764 H   0  0  0  0  0  0
  -27.8897  -18.1643   21.5907 H   0  0  0  0  0  0
  -29.1625  -19.0148   22.3705 H   0  0  0  0  0  0
  -29.6736  -21.6356   21.3574 H   0  0  0  0  0  0
  -30.7843  -18.0165   21.1533 H   0  0  0  0  0  0
  -28.2056  -22.8802   18.9089 H   0  0  0  0  0  0
  -29.7245  -23.3954   19.4965 H   0  0  0  0  0  0
  -28.3777  -24.4385   21.5801 H   0  0  0  0  0  0
  -26.9985  -24.3062   20.5799 H   0  0  0  0  0  0
  -28.6970  -16.0398   20.5707 H   0  0  0  0  0  0
  1 25  1  0  0  0
  1 30  2  0  0  0
  1 79  1  0  0  0
  2  3  1  0  0  0
  2 25  1  0  0  0
  2 80  1  0  0  0
  2 81  1  0  0  0
  3  4  1  0  0  0
  3 82  1  0  0  0
  3 83  1  0  0  0
  4  5  1  0  0  0
  4 84  1  0  0  0
  4 85  1  0  0  0
  5  6  1  0  0  0
  5 26  1  0  0  0
  5 86  1  0  0  0
  6 25  1  0  0  0
  6 87  1  0  0  0
  6 88  1  0  0  0
  7  8  2  0  0  0
  7 26  1  0  0  0
  7 29  1  0  0  0
  8  9  1  0  0  0
  8 22  1  0  0  0
  9 10  1  0  0  0
  9 27  2  0  0  0
 10 11  2  0  0  0
 10 15  1  0  0  0
 11 12  1  0  0  0
 11 89  1  0  0  0
 12 13  2  0  0  0
 12 90  1  0  0  0
 13 14  1  0  0  0
 13 31  1  0  0  0
 14 15  2  0  0  0
 14 91  1  0  0  0
 15 92  1  0  0  0
 16 17  2  0  0  0
 16 21  1  0  0  0
 16 31  1  0  0  0
 17 18  1  0  0  0
 17 93  1  0  0  0
 18 19  2  0  0  0
 18 94  1  0  0  0
 19 20  1  0  0  0
 19 24  1  0  0  0
 20 21  2  0  0  0
 20 95  1  0  0  0
 21 23  1  0  0  0
 22 28  1  0  0  0
 22 32  2  0  0  0
 26 27  1  0  0  0
 28 96  1  0  0  0
 28 97  1  0  0  0
 29 98  1  0  0  0
 29 99  1  0  0  0
 33 34  1  0  0  0
 33 66  1  0  0  0
 33 70  2  0  0  0
 34 36  1  0  0  0
 34 59  1  0  0  0
 34100  1  0  0  0
 35 44  2  0  0  0
 35 45  1  0  0  0
 35 68  1  0  0  0
 36 56  1  0  0  0
 36101  1  0  0  0
 37 39  1  0  0  0
 37 47  1  0  0  0
 37 66  1  0  0  0
 37102  1  0  0  0
 38 43  2  0  0  0
 38 46  1  0  0  0
 38 47  1  0  0  0
 39 64  1  0  0  0
 39 67  2  0  0  0
 40 52  1  0  0  0
 40 53  2  0  0  0
 40 58  1  0  0  0
 41103  1  0  0  0
 41104  1  0  0  0
 41105  1  0  0  0
 41 48  1  0  0  0
 42 43  1  0  0  0
 42 66  1  0  0  0
 42106  1  0  0  0
 42107  1  0  0  0
 43 44  1  0  0  0
 44108  1  0  0  0
 45 46  2  0  0  0
 45109  1  0  0  0
 46110  1  0  0  0
 47111  1  0  0  0
 47112  1  0  0  0
 48 56  1  0  0  0
 48 65  1  0  0  0
 48113  1  0  0  0
 49 50  1  0  0  0
 49 53  1  0  0  0
 49 64  1  0  0  0
 49114  1  0  0  0
 50 51  1  0  0  0
 50115  1  0  0  0
 50116  1  0  0  0
 51 52  1  0  0  0
 51117  1  0  0  0
 51118  1  0  0  0
 52119  1  0  0  0
 52120  1  0  0  0
 53 54  1  0  0  0
 54 55  2  0  0  0
 54121  1  0  0  0
 55 57  1  0  0  0
 55122  1  0  0  0
 56 69  2  0  0  0
 57 58  2  0  0  0
 57123  1  0  0  0
 58124  1  0  0  0
 59 60  1  0  0  0
 59 61  1  0  0  0
 59 62  1  0  0  0
 60125  1  0  0  0
 60126  1  0  0  0
 60127  1  0  0  0
 61128  1  0  0  0
 61129  1  0  0  0
 61130  1  0  0  0
 62131  1  0  0  0
 62132  1  0  0  0
 62133  1  0  0  0
 63 65  1  0  0  0
 63134  1  0  0  0
 63135  1  0  0  0
 63136  1  0  0  0
 64137  1  0  0  0
 65138  1  0  0  0
 68 78  1  0  0  0
 71 73  1  0  0  0
 71 75  1  0  0  0
 71139  1  0  0  0
 71140  1  0  0  0
 72 74  1  0  0  0
 72 75  1  0  0  0
 72141  1  0  0  0
 72142  1  0  0  0
 73 76  1  0  0  0
 73143  1  0  0  0
 73144  1  0  0  0
 74 76  1  0  0  0
 74145  1  0  0  0
 74146  1  0  0  0
 75 77  1  0  0  0
 75147  1  0  0  0
 76 79  1  0  0  0
 76148  1  0  0  0
 77 78  1  0  0  0
 77149  1  0  0  0
 77150  1  0  0  0
 78151  1  0  0  0
 78152  1  0  0  0
 79153  1  0  0  0
M  ISO  4   1 100  68 101  78 101  79 100
M  END
> <chiral flag>
0

> <version>
0

> <s_m_source_file>
/data/baiqing/PycharmProjects/Reinvent-master-3.2/result/LINK_invent/BTK/process_docking_weight1_custom_sum_contain_oxygen_bond_distance_aromatic_linkinvent_7_9_3/rearranged_h_0122.sdf

> <i_m_source_file_index>
72

> <r_mmod_Potential_Energy-OPLS-2005>
880.064208984375

> <r_mmod_Stretch_Energy-OPLS-2005>
374.8720703125

> <r_mmod_Bend_Energy-OPLS-2005>
388.808746337891

> <r_mmod_Torsional_Energy-OPLS-2005>
261.328430175781

> <r_mmod_Improper_Torsional_Energy-OPLS-2005>
4.037184715271

> <r_mmod_Van_der_Waal_Energy-OPLS-2005>
116.097610473633

> <r_mmod_Electrostatic_Energy-OPLS-2005>
-357.652648925781

> <r_mmod_Solvation_Energy-OPLS-2005>
-203.18684387207

> <b_mmod_Minimization_Converged-OPLS-2005>
0

> <r_mmod_RMS_Derivative-OPLS-2005>
1.56538271903992

$$$$
72
                    3D
 Structure written by MMmdl.
167175  0  0  1  0            999 V2000
  -30.6124  -14.7012   20.4652 C   0  0  0  0  0  0
  -30.4348  -12.4263   19.4667 C   0  0  0  0  0  0
  -29.5098  -12.4911   18.2320 C   0  0  0  0  0  0
  -28.0349  -12.3205   18.6491 C   0  0  0  0  0  0
  -27.6449  -13.2216   19.8514 C   0  0  2  0  0  0
  -28.6889  -13.1366   20.9871 C   0  0  0  0  0  0
  -25.2527  -13.8183   20.5682 C   0  0  0  0  0  0
  -24.1810  -13.0447   20.9217 C   0  0  0  0  0  0
  -24.6377  -11.6925   20.8757 C   0  0  0  0  0  0
  -23.9056  -10.4302   21.0412 C   0  0  0  0  0  0
  -24.3604   -9.4216   21.9185 C   0  0  0  0  0  0
  -23.6289   -8.2245   22.0747 C   0  0  0  0  0  0
  -22.4272   -8.0278   21.3532 C   0  0  0  0  0  0
  -21.9910   -9.0256   20.4645 C   0  0  0  0  0  0
  -22.7227  -10.2139   20.3055 C   0  0  0  0  0  0
  -21.6850   -6.0737   22.5273 C   0  0  0  0  0  0
  -21.4018   -6.5631   23.8203 C   0  0  0  0  0  0
  -21.3670   -5.6773   24.9165 C   0  0  0  0  0  0
  -21.6048   -4.3041   24.7218 C   0  0  0  0  0  0
  -21.8825   -3.8139   23.4331 C   0  0  0  0  0  0
  -21.9194   -4.6963   22.3394 C   0  0  0  0  0  0
  -22.7820  -13.5244   21.1862 C   0  0  0  0  0  0
  -22.1653   -4.2146   21.0976 F   0  0  0  0  0  0
  -21.5638   -3.4532   25.7734 F   0  0  0  0  0  0
  -29.9931  -13.4787   20.4072 N   0  0  0  0  0  0
  -26.2941  -12.9361   20.3264 N   0  0  0  0  0  0
  -25.9301  -11.6520   20.5757 N   0  0  0  0  0  0
  -22.0457  -12.8241   22.0431 N   0  0  0  0  0  0
  -25.4263  -15.1915   20.4082 N   0  0  0  0  0  0
  -31.8000  -14.8165   20.1496 O   0  0  0  0  0  0
  -21.6626   -6.8883   21.4238 O   0  0  0  0  0  0
  -22.3517  -14.5550   20.6716 O   0  0  0  0  0  0
  -24.6293  -31.8560   23.1995 C   0  0  0  0  0  0
  -25.9125  -32.4754   23.8330 C   0  0  1  0  0  0
  -27.2206  -27.2835   20.1074 C   0  0  0  0  0  0
  -25.5931  -33.8558   24.2253 N   0  0  0  0  0  0
  -23.4236  -30.4805   21.5427 C   0  0  2  0  0  0
  -24.8676  -28.9301   20.1094 C   0  0  0  0  0  0
  -22.7490  -29.4608   22.4917 C   0  0  0  0  0  0
  -18.0284  -28.1380   22.8480 C   0  0  0  0  0  0
  -24.1491  -36.7288   23.2631 C   0  0  0  0  0  0
  -25.9674  -30.7763   21.3738 C   0  0  0  0  0  0
  -26.0385  -29.4014   20.7132 C   0  0  0  0  0  0
  -27.2151  -28.5887   20.7022 C   0  0  0  0  0  0
  -26.0140  -26.8655   19.4983 C   0  0  0  0  0  0
  -24.8593  -27.6692   19.4960 C   0  0  0  0  0  0
  -23.6387  -29.8153   20.1584 C   0  0  0  0  0  0
  -25.4113  -36.3065   24.0319 C   0  0  1  0  0  0
  -20.5889  -28.3688   23.1270 C   0  0  2  0  0  0
  -20.6771  -26.9407   22.5405 C   0  0  0  0  0  0
  -19.5745  -26.6376   21.5206 C   0  0  0  0  0  0
  -18.1931  -26.7920   22.1623 C   0  0  0  0  0  0
  -19.1541  -28.8851   23.2869 C   0  0  0  0  0  0
  -18.9463  -30.1450   23.8890 C   0  0  0  0  0  0
  -17.6465  -30.6582   24.0559 C   0  0  0  0  0  0
  -25.9057  -34.9437   23.5089 C   0  0  0  0  0  0
  -16.5352  -29.9080   23.6327 C   0  0  0  0  0  0
  -16.7274  -28.6495   23.0349 C   0  0  0  0  0  0
  -26.4506  -31.6578   25.0719 C   0  0  0  0  0  0
  -25.3738  -31.3743   26.1454 C   0  0  0  0  0  0
  -27.0335  -30.2987   24.6195 C   0  0  0  0  0  0
  -27.6055  -32.4329   25.7491 C   0  0  0  0  0  0
  -27.5585  -37.1780   24.8450 C   0  0  0  0  0  0
  -21.4199  -29.3046   22.3667 N   0  0  0  0  0  0
  -26.4278  -37.3775   23.9424 N   0  0  0  0  0  0
  -24.6925  -31.0552   22.0951 N   0  0  0  0  0  0
  -23.4206  -28.8135   23.2995 O   0  0  0  0  0  0
  -28.3481  -26.4370   20.1828 O   0  0  0  0  0  0
  -26.5632  -34.8911   22.4661 O   0  0  0  0  0  0
  -23.5451  -32.1373   23.7308 O   0  0  0  0  0  0
  -27.5053  -21.0306   17.1270 C   0  0  0  0  0  0
  -27.9314  -20.2407   18.3892 C   0  0  0  0  0  0
  -30.0744  -22.4885   18.3257 C   0  0  0  0  0  0
  -28.8173  -22.4164   19.2358 C   0  0  2  0  0  0
  -28.6496  -21.7649   16.3633 C   0  0  2  0  0  0
  -28.7861  -21.2435   14.9212 C   0  0  0  0  0  0
  -28.6782  -23.6902   20.2204 C   0  0  0  0  0  0
  -29.0662  -18.4069   20.3971 C   0  0  0  0  0  0
  -29.4629  -19.9819   20.2078 C   0  0  0  0  0  0
  -30.2165  -17.2869   20.5666 C   0  0  0  0  0  0
  -28.4528  -25.1218   19.4818 C   0  0  0  0  0  0
  -28.4742  -20.9569   19.5766 N   0  0  0  0  0  0
  -29.8241  -15.8182   20.6654 N   0  0  0  0  0  0
  -29.9558  -21.7031   17.0719 N   0  3  0  0  0  0
  -31.4744  -12.5566   19.1588 H   0  0  0  0  0  0
  -30.3825  -11.4478   19.9453 H   0  0  0  0  0  0
  -29.7896  -11.7134   17.5192 H   0  0  0  0  0  0
  -29.6385  -13.4436   17.7155 H   0  0  0  0  0  0
  -27.8982  -11.2736   18.9185 H   0  0  0  0  0  0
  -27.3709  -12.5016   17.8019 H   0  0  0  0  0  0
  -27.6470  -14.2455   19.4756 H   0  0  0  0  0  0
  -28.7174  -12.1357   21.4196 H   0  0  0  0  0  0
  -28.4292  -13.8127   21.8036 H   0  0  0  0  0  0
  -25.2749   -9.5685   22.4761 H   0  0  0  0  0  0
  -24.0007   -7.4634   22.7447 H   0  0  0  0  0  0
  -21.0844   -8.8773   19.8945 H   0  0  0  0  0  0
  -22.3686  -10.9682   19.6169 H   0  0  0  0  0  0
  -21.1999   -7.6132   23.9720 H   0  0  0  0  0  0
  -21.1491   -6.0491   25.9071 H   0  0  0  0  0  0
  -22.0601   -2.7603   23.2817 H   0  0  0  0  0  0
  -22.4041  -11.9901   22.4838 H   0  0  0  0  0  0
  -21.1087  -13.1281   22.2647 H   0  0  0  0  0  0
  -24.6634  -15.8490   20.5272 H   0  0  0  0  0  0
  -26.2718  -15.6254   20.0638 H   0  0  0  0  0  0
  -26.7186  -32.5410   23.1066 H   0  0  0  0  0  0
  -25.0068  -33.9700   25.0391 H   0  0  0  0  0  0
  -22.7177  -31.3017   21.3994 H   0  0  0  0  0  0
  -23.3761  -35.9611   23.3248 H   0  0  0  0  0  0
  -24.3592  -36.8960   22.2055 H   0  0  0  0  0  0
  -23.7231  -37.6465   23.6694 H   0  0  0  0  0  0
  -26.1047  -31.5397   20.6073 H   0  0  0  0  0  0
  -26.8451  -30.8232   22.0064 H   0  0  0  0  0  0
  -28.1145  -28.9472   21.1828 H   0  0  0  0  0  0
  -25.9005  -25.8936   19.0469 H   0  0  0  0  0  0
  -23.9548  -27.2990   19.0333 H   0  0  0  0  0  0
  -23.7603  -30.5920   19.4009 H   0  0  0  0  0  0
  -22.7568  -29.2484   19.8557 H   0  0  0  0  0  0
  -25.1290  -36.1893   25.0808 H   0  0  0  0  0  0
  -20.9982  -28.3260   24.1388 H   0  0  0  0  0  0
  -20.5656  -26.2303   23.3608 H   0  0  0  0  0  0
  -21.6641  -26.7422   22.1208 H   0  0  0  0  0  0
  -19.6907  -25.6287   21.1235 H   0  0  0  0  0  0
  -19.6674  -27.3183   20.6733 H   0  0  0  0  0  0
  -17.4197  -26.6655   21.4031 H   0  0  0  0  0  0
  -18.0338  -26.0065   22.9022 H   0  0  0  0  0  0
  -19.7944  -30.7264   24.2259 H   0  0  0  0  0  0
  -17.5021  -31.6259   24.5160 H   0  0  0  0  0  0
  -15.5356  -30.2980   23.7651 H   0  0  0  0  0  0
  -15.8672  -28.0808   22.7074 H   0  0  0  0  0  0
  -24.5905  -30.7096   25.7801 H   0  0  0  0  0  0
  -24.8951  -32.2925   26.4871 H   0  0  0  0  0  0
  -25.8069  -30.8933   27.0233 H   0  0  0  0  0  0
  -26.2902  -29.6743   24.1227 H   0  0  0  0  0  0
  -27.4012  -29.7251   25.4709 H   0  0  0  0  0  0
  -27.8790  -30.4245   23.9429 H   0  0  0  0  0  0
  -27.2650  -33.3635   26.2052 H   0  0  0  0  0  0
  -28.3880  -32.6884   25.0332 H   0  0  0  0  0  0
  -28.0713  -31.8471   26.5428 H   0  0  0  0  0  0
  -28.2554  -38.0123   24.7568 H   0  0  0  0  0  0
  -28.1128  -36.2660   24.6183 H   0  0  0  0  0  0
  -27.2319  -37.1314   25.8852 H   0  0  0  0  0  0
  -20.9375  -29.8789   21.6894 H   0  0  0  0  0  0
  -26.0144  -38.2830   24.1483 H   0  0  0  0  0  0
  -26.6942  -21.7239   17.3534 H   0  0  0  0  0  0
  -27.0347  -20.3138   16.4522 H   0  0  0  0  0  0
  -28.6574  -19.5126   18.0246 H   0  0  0  0  0  0
  -27.0740  -19.6558   18.7241 H   0  0  0  0  0  0
  -30.9659  -22.1737   18.8691 H   0  0  0  0  0  0
  -30.2666  -23.5160   18.0241 H   0  0  0  0  0  0
  -27.9787  -22.7366   18.6319 H   0  0  0  0  0  0
  -28.3786  -22.8191   16.2838 H   0  0  0  0  0  0
  -29.1510  -20.2160   14.8964 H   0  0  0  0  0  0
  -29.4719  -21.8572   14.3356 H   0  0  0  0  0  0
  -27.8247  -21.2643   14.4056 H   0  0  0  0  0  0
  -29.5585  -23.7502   20.8605 H   0  0  0  0  0  0
  -27.8373  -23.5233   20.8945 H   0  0  0  0  0  0
  -28.4638  -18.0587   19.5624 H   0  0  0  0  0  0
  -28.3926  -18.3378   21.2510 H   0  0  0  0  0  0
  -30.3741  -20.0057   19.6107 H   0  0  0  0  0  0
  -29.7536  -20.3782   21.1821 H   0  0  0  0  0  0
  -30.8009  -17.5256   21.4550 H   0  0  0  0  0  0
  -30.9075  -17.3852   19.7278 H   0  0  0  0  0  0
  -27.6699  -24.9945   18.7410 H   0  0  0  0  0  0
  -29.3321  -25.2826   18.8601 H   0  0  0  0  0  0
  -28.8558  -15.6264   20.8724 H   0  0  0  0  0  0
  -30.1633  -20.7421   17.2862 H   0  0  0  0  0  0
  -30.6782  -22.0329   16.4503 H   0  0  0  0  0  0
  1 25  1  0  0  0
  1 30  2  0  0  0
  1 83  1  0  0  0
  2  3  1  0  0  0
  2 25  1  0  0  0
  2 85  1  0  0  0
  2 86  1  0  0  0
  3  4  1  0  0  0
  3 87  1  0  0  0
  3 88  1  0  0  0
  4  5  1  0  0  0
  4 89  1  0  0  0
  4 90  1  0  0  0
  5  6  1  0  0  0
  5 26  1  0  0  0
  5 91  1  0  0  0
  6 25  1  0  0  0
  6 92  1  0  0  0
  6 93  1  0  0  0
  7  8  2  0  0  0
  7 26  1  0  0  0
  7 29  1  0  0  0
  8  9  1  0  0  0
  8 22  1  0  0  0
  9 10  1  0  0  0
  9 27  2  0  0  0
 10 11  2  0  0  0
 10 15  1  0  0  0
 11 12  1  0  0  0
 11 94  1  0  0  0
 12 13  2  0  0  0
 12 95  1  0  0  0
 13 14  1  0  0  0
 13 31  1  0  0  0
 14 15  2  0  0  0
 14 96  1  0  0  0
 15 97  1  0  0  0
 16 17  2  0  0  0
 16 21  1  0  0  0
 16 31  1  0  0  0
 17 18  1  0  0  0
 17 98  1  0  0  0
 18 19  2  0  0  0
 18 99  1  0  0  0
 19 20  1  0  0  0
 19 24  1  0  0  0
 20 21  2  0  0  0
 20100  1  0  0  0
 21 23  1  0  0  0
 22 28  1  0  0  0
 22 32  2  0  0  0
 26 27  1  0  0  0
 28101  1  0  0  0
 28102  1  0  0  0
 29103  1  0  0  0
 29104  1  0  0  0
 33 34  1  0  0  0
 33 66  1  0  0  0
 33 70  2  0  0  0
 34 36  1  0  0  0
 34 59  1  0  0  0
 34105  1  0  0  0
 35 44  2  0  0  0
 35 45  1  0  0  0
 35 68  1  0  0  0
 36 56  1  0  0  0
 36106  1  0  0  0
 37 39  1  0  0  0
 37 47  1  0  0  0
 37 66  1  0  0  0
 37107  1  0  0  0
 38 43  2  0  0  0
 38 46  1  0  0  0
 38 47  1  0  0  0
 39 64  1  0  0  0
 39 67  2  0  0  0
 40 52  1  0  0  0
 40 53  2  0  0  0
 40 58  1  0  0  0
 41108  1  0  0  0
 41109  1  0  0  0
 41110  1  0  0  0
 41 48  1  0  0  0
 42 43  1  0  0  0
 42 66  1  0  0  0
 42111  1  0  0  0
 42112  1  0  0  0
 43 44  1  0  0  0
 44113  1  0  0  0
 45 46  2  0  0  0
 45114  1  0  0  0
 46115  1  0  0  0
 47116  1  0  0  0
 47117  1  0  0  0
 48 56  1  0  0  0
 48 65  1  0  0  0
 48118  1  0  0  0
 49 50  1  0  0  0
 49 53  1  0  0  0
 49 64  1  0  0  0
 49119  1  0  0  0
 50 51  1  0  0  0
 50120  1  0  0  0
 50121  1  0  0  0
 51 52  1  0  0  0
 51122  1  0  0  0
 51123  1  0  0  0
 52124  1  0  0  0
 52125  1  0  0  0
 53 54  1  0  0  0
 54 55  2  0  0  0
 54126  1  0  0  0
 55 57  1  0  0  0
 55127  1  0  0  0
 56 69  2  0  0  0
 57 58  2  0  0  0
 57128  1  0  0  0
 58129  1  0  0  0
 59 60  1  0  0  0
 59 61  1  0  0  0
 59 62  1  0  0  0
 60130  1  0  0  0
 60131  1  0  0  0
 60132  1  0  0  0
 61133  1  0  0  0
 61134  1  0  0  0
 61135  1  0  0  0
 62136  1  0  0  0
 62137  1  0  0  0
 62138  1  0  0  0
 63 65  1  0  0  0
 63139  1  0  0  0
 63140  1  0  0  0
 63141  1  0  0  0
 64142  1  0  0  0
 65143  1  0  0  0
 68 81  1  0  0  0
 71 72  1  0  0  0
 71 75  1  0  0  0
 71144  1  0  0  0
 71145  1  0  0  0
 72 82  1  0  0  0
 72146  1  0  0  0
 72147  1  0  0  0
 73 74  1  0  0  0
 73 84  1  0  0  0
 73148  1  0  0  0
 73149  1  0  0  0
 74 77  1  0  0  0
 74 82  1  0  0  0
 74150  1  0  0  0
 75 76  1  0  0  0
 75 84  1  0  0  0
 75151  1  0  0  0
 76152  1  0  0  0
 76153  1  0  0  0
 76154  1  0  0  0
 77 81  1  0  0  0
 77155  1  0  0  0
 77156  1  0  0  0
 78 79  1  0  0  0
 78 80  1  0  0  0
 78157  1  0  0  0
 78158  1  0  0  0
 79 82  1  0  0  0
 79159  1  0  0  0
 79160  1  0  0  0
 80 83  1  0  0  0
 80161  1  0  0  0
 80162  1  0  0  0
 81163  1  0  0  0
 81164  1  0  0  0
 83165  1  0  0  0
 84166  1  0  0  0
 84167  1  0  0  0
M  CHG  1  84   1
M  ISO  4   1 100  68 101  81 101  83 100
M  END
> <chiral flag>
0

> <version>
0

> <s_m_source_file>
/data/baiqing/PycharmProjects/Reinvent-master-3.2/result/LINK_invent/BTK/process_docking_weight1_custom_sum_contain_oxygen_bond_distance_aromatic_linkinvent_7_9_3/rearranged_h_0122.sdf

> <i_m_source_file_index>
73

> <r_mmod_Potential_Energy-OPLS-2005>
132.010131835938

> <r_mmod_Stretch_Energy-OPLS-2005>
130.210113525391

> <r_mmod_Bend_Energy-OPLS-2005>
231.15625

> <r_mmod_Torsional_Energy-OPLS-2005>
265.143432617188

> <r_mmod_Improper_Torsional_Energy-OPLS-2005>
4.97190618515015

> <r_mmod_Van_der_Waal_Energy-OPLS-2005>
155.593719482422

> <r_mmod_Electrostatic_Energy-OPLS-2005>
-252.332962036133

> <r_mmod_Solvation_Energy-OPLS-2005>
-471.944580078125

> <b_mmod_Minimization_Converged-OPLS-2005>
0

> <r_mmod_RMS_Derivative-OPLS-2005>
2.61309695243835

$$$$
73
                    3D
 Structure written by MMmdl.
165174  0  0  1  0            999 V2000
  -30.6697  -14.6124   20.4685 C   0  0  0  0  0  0
  -30.4191  -12.3689   19.4580 C   0  0  0  0  0  0
  -29.5012  -12.4898   18.2236 C   0  0  0  0  0  0
  -28.0241  -12.3406   18.6355 C   0  0  0  0  0  0
  -27.6474  -13.2237   19.8561 C   0  0  2  0  0  0
  -28.6922  -13.1131   20.9889 C   0  0  0  0  0  0
  -25.2535  -13.8188   20.5685 C   0  0  0  0  0  0
  -24.1818  -13.0441   20.9201 C   0  0  0  0  0  0
  -24.6399  -11.6917   20.8751 C   0  0  0  0  0  0
  -23.9070  -10.4295   21.0414 C   0  0  0  0  0  0
  -24.3624   -9.4206   21.9184 C   0  0  0  0  0  0
  -23.6302   -8.2239   22.0751 C   0  0  0  0  0  0
  -22.4280   -8.0281   21.3548 C   0  0  0  0  0  0
  -21.9918   -9.0252   20.4644 C   0  0  0  0  0  0
  -22.7247  -10.2134   20.3058 C   0  0  0  0  0  0
  -21.6850   -6.0737   22.5280 C   0  0  0  0  0  0
  -21.4015   -6.5645   23.8213 C   0  0  0  0  0  0
  -21.3660   -5.6799   24.9176 C   0  0  0  0  0  0
  -21.6038   -4.3061   24.7227 C   0  0  0  0  0  0
  -21.8819   -3.8152   23.4350 C   0  0  0  0  0  0
  -21.9195   -4.6965   22.3406 C   0  0  0  0  0  0
  -22.7838  -13.5224   21.1859 C   0  0  0  0  0  0
  -22.1663   -4.2153   21.0981 F   0  0  0  0  0  0
  -21.5629   -3.4541   25.7739 F   0  0  0  0  0  0
  -30.0061  -13.4176   20.4110 N   0  0  0  0  0  0
  -26.2967  -12.9384   20.3304 N   0  0  0  0  0  0
  -25.9330  -11.6531   20.5766 N   0  0  0  0  0  0
  -22.0487  -12.8215   22.0421 N   0  0  0  0  0  0
  -25.4223  -15.1909   20.4078 N   0  0  0  0  0  0
  -31.8645  -14.6863   20.1731 O   0  0  0  0  0  0
  -21.6644   -6.8880   21.4244 O   0  0  0  0  0  0
  -22.3519  -14.5532   20.6710 O   0  0  0  0  0  0
  -24.6234  -31.8595   23.2039 C   0  0  0  0  0  0
  -25.9090  -32.4780   23.8353 C   0  0  1  0  0  0
  -27.2130  -27.3366   20.1232 C   0  0  0  0  0  0
  -25.5910  -33.8580   24.2281 N   0  0  0  0  0  0
  -23.4180  -30.4833   21.5454 C   0  0  2  0  0  0
  -24.8675  -28.9473   20.1045 C   0  0  0  0  0  0
  -22.7462  -29.4608   22.4923 C   0  0  0  0  0  0
  -18.0277  -28.1388   22.8451 C   0  0  0  0  0  0
  -24.1499  -36.7284   23.2635 C   0  0  0  0  0  0
  -25.9586  -30.7959   21.3763 C   0  0  0  0  0  0
  -26.0344  -29.4267   20.7173 C   0  0  0  0  0  0
  -27.2155  -28.6294   20.7241 C   0  0  0  0  0  0
  -26.0423  -26.9170   19.4610 C   0  0  0  0  0  0
  -24.8721  -27.6964   19.4671 C   0  0  0  0  0  0
  -23.6338  -29.8235   20.1582 C   0  0  0  0  0  0
  -25.4123  -36.3084   24.0327 C   0  0  1  0  0  0
  -20.5875  -28.3673   23.1288 C   0  0  2  0  0  0
  -20.6775  -26.9396   22.5415 C   0  0  0  0  0  0
  -19.5758  -26.6373   21.5213 C   0  0  0  0  0  0
  -18.1929  -26.7928   22.1602 C   0  0  0  0  0  0
  -19.1532  -28.8841   23.2865 C   0  0  0  0  0  0
  -18.9465  -30.1439   23.8880 C   0  0  0  0  0  0
  -17.6465  -30.6579   24.0547 C   0  0  0  0  0  0
  -25.9051  -34.9450   23.5114 C   0  0  0  0  0  0
  -16.5350  -29.9076   23.6331 C   0  0  0  0  0  0
  -16.7266  -28.6510   23.0329 C   0  0  0  0  0  0
  -26.4487  -31.6586   25.0718 C   0  0  0  0  0  0
  -25.3728  -31.3735   26.1447 C   0  0  0  0  0  0
  -27.0324  -30.3006   24.6168 C   0  0  0  0  0  0
  -27.6043  -32.4322   25.7495 C   0  0  0  0  0  0
  -27.5589  -37.1789   24.8461 C   0  0  0  0  0  0
  -21.4175  -29.3023   22.3678 N   0  0  0  0  0  0
  -26.4297  -37.3776   23.9416 N   0  0  0  0  0  0
  -24.6848  -31.0619   22.0990 N   0  0  0  0  0  0
  -23.4190  -28.8139   23.2996 O   0  0  0  0  0  0
  -28.2723  -26.4287   20.1785 O   0  0  0  0  0  0
  -26.5628  -34.8908   22.4684 O   0  0  0  0  0  0
  -23.5400  -32.1382   23.7377 O   0  0  0  0  0  0
  -29.7287  -23.3334   21.7037 C   0  0  0  0  0  0
  -28.2501  -23.0384   19.8603 C   0  0  0  0  0  0
  -28.7681  -23.9166   20.8460 C   0  0  0  0  0  0
  -30.1490  -21.9853   21.5389 C   0  0  0  0  0  0
  -29.6111  -21.1954   20.4879 C   0  0  0  0  0  0
  -31.3192  -18.4688   18.2076 C   0  0  0  0  0  0
  -30.5197  -19.7218   18.5956 C   0  0  0  0  0  0
  -30.5947  -17.1854   18.6323 C   0  0  0  0  0  0
  -29.5305  -18.4174   20.5824 C   0  0  0  0  0  0
  -30.2050  -19.7806   20.1063 C   0  0  2  0  0  0
  -30.3856  -17.1355   20.1646 C   0  0  1  0  0  0
  -31.1753  -21.4227   22.5090 C   0  0  0  0  0  0
  -26.7963  -25.1380   21.8458 C   0  0  0  0  0  0
  -28.1788  -25.3367   21.1793 C   0  0  1  0  0  0
  -28.6463  -21.7360   19.6929 N   0  0  0  0  0  0
  -29.9224  -15.7583   20.5765 N   0  0  0  0  0  0
  -31.4659  -12.4594   19.1623 H   0  0  0  0  0  0
  -30.3224  -11.3821   19.9149 H   0  0  0  0  0  0
  -29.7608  -11.7312   17.4842 H   0  0  0  0  0  0
  -29.6547  -13.4554   17.7394 H   0  0  0  0  0  0
  -27.8568  -11.2899   18.8746 H   0  0  0  0  0  0
  -27.3714  -12.5656   17.7910 H   0  0  0  0  0  0
  -27.6571  -14.2536   19.4989 H   0  0  0  0  0  0
  -28.6942  -12.1096   21.4169 H   0  0  0  0  0  0
  -28.4540  -13.7940   21.8079 H   0  0  0  0  0  0
  -25.2768   -9.5679   22.4759 H   0  0  0  0  0  0
  -24.0011   -7.4627   22.7467 H   0  0  0  0  0  0
  -21.0848   -8.8769   19.8948 H   0  0  0  0  0  0
  -22.3704  -10.9672   19.6167 H   0  0  0  0  0  0
  -21.2005   -7.6149   23.9719 H   0  0  0  0  0  0
  -21.1481   -6.0526   25.9077 H   0  0  0  0  0  0
  -22.0598   -2.7613   23.2848 H   0  0  0  0  0  0
  -22.4119  -11.9883   22.4809 H   0  0  0  0  0  0
  -21.1097  -13.1222   22.2619 H   0  0  0  0  0  0
  -24.6507  -15.8410   20.5099 H   0  0  0  0  0  0
  -26.2635  -15.6293   20.0560 H   0  0  0  0  0  0
  -26.7135  -32.5458   23.1080 H   0  0  0  0  0  0
  -25.0079  -33.9730   25.0440 H   0  0  0  0  0  0
  -22.7111  -31.3041   21.4043 H   0  0  0  0  0  0
  -23.3775  -35.9604   23.3301 H   0  0  0  0  0  0
  -24.3593  -36.8909   22.2052 H   0  0  0  0  0  0
  -23.7245  -37.6480   23.6657 H   0  0  0  0  0  0
  -26.0923  -31.5616   20.6112 H   0  0  0  0  0  0
  -26.8392  -30.8430   22.0060 H   0  0  0  0  0  0
  -28.1075  -28.9822   21.2234 H   0  0  0  0  0  0
  -26.0228  -25.9495   18.9805 H   0  0  0  0  0  0
  -23.9791  -27.3246   18.9818 H   0  0  0  0  0  0
  -23.7521  -30.6048   19.4066 H   0  0  0  0  0  0
  -22.7558  -29.2528   19.8488 H   0  0  0  0  0  0
  -25.1304  -36.1938   25.0821 H   0  0  0  0  0  0
  -20.9944  -28.3238   24.1415 H   0  0  0  0  0  0
  -20.5687  -26.2256   23.3592 H   0  0  0  0  0  0
  -21.6648  -26.7424   22.1206 H   0  0  0  0  0  0
  -19.6928  -25.6292   21.1228 H   0  0  0  0  0  0
  -19.6738  -27.3181   20.6751 H   0  0  0  0  0  0
  -17.4207  -26.6643   21.4003 H   0  0  0  0  0  0
  -18.0331  -26.0095   22.9027 H   0  0  0  0  0  0
  -19.7945  -30.7253   24.2238 H   0  0  0  0  0  0
  -17.5031  -31.6256   24.5154 H   0  0  0  0  0  0
  -15.5355  -30.2977   23.7682 H   0  0  0  0  0  0
  -15.8663  -28.0834   22.7043 H   0  0  0  0  0  0
  -24.5901  -30.7083   25.7776 H   0  0  0  0  0  0
  -24.8917  -32.2909   26.4838 H   0  0  0  0  0  0
  -25.8040  -30.8928   27.0237 H   0  0  0  0  0  0
  -26.2887  -29.6767   24.1186 H   0  0  0  0  0  0
  -27.4032  -29.7243   25.4657 H   0  0  0  0  0  0
  -27.8753  -30.4297   23.9380 H   0  0  0  0  0  0
  -27.2649  -33.3637   26.2031 H   0  0  0  0  0  0
  -28.3868  -32.6852   25.0337 H   0  0  0  0  0  0
  -28.0682  -31.8477   26.5448 H   0  0  0  0  0  0
  -28.2580  -38.0110   24.7548 H   0  0  0  0  0  0
  -28.1118  -36.2642   24.6250 H   0  0  0  0  0  0
  -27.2303  -37.1395   25.8859 H   0  0  0  0  0  0
  -20.9332  -29.8751   21.6904 H   0  0  0  0  0  0
  -26.0183  -38.2846   24.1453 H   0  0  0  0  0  0
  -30.1274  -23.9165   22.5214 H   0  0  0  0  0  0
  -27.4606  -23.3755   19.2048 H   0  0  0  0  0  0
  -32.3096  -18.5018   18.6653 H   0  0  0  0  0  0
  -31.4820  -18.4576   17.1300 H   0  0  0  0  0  0
  -29.5914  -19.7570   18.0249 H   0  0  0  0  0  0
  -31.0904  -20.6050   18.3048 H   0  0  0  0  0  0
  -31.1854  -16.3384   18.2831 H   0  0  0  0  0  0
  -29.6344  -17.1130   18.1187 H   0  0  0  0  0  0
  -28.5245  -18.3473   20.1686 H   0  0  0  0  0  0
  -29.4132  -18.4370   21.6662 H   0  0  0  0  0  0
  -31.1908  -19.7623   20.5667 H   0  0  0  0  0  0
  -31.3640  -17.2572   20.6335 H   0  0  0  0  0  0
  -31.2625  -22.0437   23.4024 H   0  0  0  0  0  0
  -32.1593  -21.3676   22.0415 H   0  0  0  0  0  0
  -30.8885  -20.4224   22.8365 H   0  0  0  0  0  0
  -26.0649  -24.7340   21.1461 H   0  0  0  0  0  0
  -26.3962  -26.0613   22.2639 H   0  0  0  0  0  0
  -26.8652  -24.4351   22.6758 H   0  0  0  0  0  0
  -28.8108  -25.7181   21.9816 H   0  0  0  0  0  0
  -28.9440  -15.6402   20.7921 H   0  0  0  0  0  0
  1 25  1  0  0  0
  1 30  2  0  0  0
  1 86  1  0  0  0
  2  3  1  0  0  0
  2 25  1  0  0  0
  2 87  1  0  0  0
  2 88  1  0  0  0
  3  4  1  0  0  0
  3 89  1  0  0  0
  3 90  1  0  0  0
  4  5  1  0  0  0
  4 91  1  0  0  0
  4 92  1  0  0  0
  5  6  1  0  0  0
  5 26  1  0  0  0
  5 93  1  0  0  0
  6 25  1  0  0  0
  6 94  1  0  0  0
  6 95  1  0  0  0
  7  8  2  0  0  0
  7 26  1  0  0  0
  7 29  1  0  0  0
  8  9  1  0  0  0
  8 22  1  0  0  0
  9 10  1  0  0  0
  9 27  2  0  0  0
 10 11  2  0  0  0
 10 15  1  0  0  0
 11 12  1  0  0  0
 11 96  1  0  0  0
 12 13  2  0  0  0
 12 97  1  0  0  0
 13 14  1  0  0  0
 13 31  1  0  0  0
 14 15  2  0  0  0
 14 98  1  0  0  0
 15 99  1  0  0  0
 16 17  2  0  0  0
 16 21  1  0  0  0
 16 31  1  0  0  0
 17 18  1  0  0  0
 17100  1  0  0  0
 18 19  2  0  0  0
 18101  1  0  0  0
 19 20  1  0  0  0
 19 24  1  0  0  0
 20 21  2  0  0  0
 20102  1  0  0  0
 21 23  1  0  0  0
 22 28  1  0  0  0
 22 32  2  0  0  0
 26 27  1  0  0  0
 28103  1  0  0  0
 28104  1  0  0  0
 29105  1  0  0  0
 29106  1  0  0  0
 33 34  1  0  0  0
 33 66  1  0  0  0
 33 70  2  0  0  0
 34 36  1  0  0  0
 34 59  1  0  0  0
 34107  1  0  0  0
 35 44  2  0  0  0
 35 45  1  0  0  0
 35 68  1  0  0  0
 36 56  1  0  0  0
 36108  1  0  0  0
 37 39  1  0  0  0
 37 47  1  0  0  0
 37 66  1  0  0  0
 37109  1  0  0  0
 38 43  2  0  0  0
 38 46  1  0  0  0
 38 47  1  0  0  0
 39 64  1  0  0  0
 39 67  2  0  0  0
 40 52  1  0  0  0
 40 53  2  0  0  0
 40 58  1  0  0  0
 41110  1  0  0  0
 41111  1  0  0  0
 41112  1  0  0  0
 41 48  1  0  0  0
 42 43  1  0  0  0
 42 66  1  0  0  0
 42113  1  0  0  0
 42114  1  0  0  0
 43 44  1  0  0  0
 44115  1  0  0  0
 45 46  2  0  0  0
 45116  1  0  0  0
 46117  1  0  0  0
 47118  1  0  0  0
 47119  1  0  0  0
 48 56  1  0  0  0
 48 65  1  0  0  0
 48120  1  0  0  0
 49 50  1  0  0  0
 49 53  1  0  0  0
 49 64  1  0  0  0
 49121  1  0  0  0
 50 51  1  0  0  0
 50122  1  0  0  0
 50123  1  0  0  0
 51 52  1  0  0  0
 51124  1  0  0  0
 51125  1  0  0  0
 52126  1  0  0  0
 52127  1  0  0  0
 53 54  1  0  0  0
 54 55  2  0  0  0
 54128  1  0  0  0
 55 57  1  0  0  0
 55129  1  0  0  0
 56 69  2  0  0  0
 57 58  2  0  0  0
 57130  1  0  0  0
 58131  1  0  0  0
 59 60  1  0  0  0
 59 61  1  0  0  0
 59 62  1  0  0  0
 60132  1  0  0  0
 60133  1  0  0  0
 60134  1  0  0  0
 61135  1  0  0  0
 61136  1  0  0  0
 61137  1  0  0  0
 62138  1  0  0  0
 62139  1  0  0  0
 62140  1  0  0  0
 63 65  1  0  0  0
 63141  1  0  0  0
 63142  1  0  0  0
 63143  1  0  0  0
 64144  1  0  0  0
 65145  1  0  0  0
 68 84  1  0  0  0
 71 73  2  0  0  0
 71 74  1  0  0  0
 71146  1  0  0  0
 72 73  1  0  0  0
 72 85  2  0  0  0
 72147  1  0  0  0
 73 84  1  0  0  0
 74 75  2  0  0  0
 74 82  1  0  0  0
 75 85  1  0  0  0
 75 80  1  0  0  0
 76 77  1  0  0  0
 76 78  1  0  0  0
 76148  1  0  0  0
 76149  1  0  0  0
 77 80  1  0  0  0
 77150  1  0  0  0
 77151  1  0  0  0
 78 81  1  0  0  0
 78152  1  0  0  0
 78153  1  0  0  0
 79 80  1  0  0  0
 79 81  1  0  0  0
 79154  1  0  0  0
 79155  1  0  0  0
 80156  1  0  0  0
 81 86  1  0  0  0
 81157  1  0  0  0
 82158  1  0  0  0
 82159  1  0  0  0
 82160  1  0  0  0
 83161  1  0  0  0
 83162  1  0  0  0
 83163  1  0  0  0
 83 84  1  0  0  0
 84164  1  0  0  0
 86165  1  0  0  0
M  ISO  4   1 100  68 101  84 101  86 100
M  END
> <chiral flag>
0

> <version>
0

> <s_m_source_file>
/data/baiqing/PycharmProjects/Reinvent-master-3.2/result/LINK_invent/BTK/process_docking_weight1_custom_sum_contain_oxygen_bond_distance_aromatic_linkinvent_7_9_3/rearranged_h_0122.sdf

> <i_m_source_file_index>
74

> <r_mmod_Potential_Energy-OPLS-2005>
-26.7469501495361

> <r_mmod_Stretch_Energy-OPLS-2005>
78.8460998535156

> <r_mmod_Bend_Energy-OPLS-2005>
145.906875610352

> <r_mmod_Torsional_Energy-OPLS-2005>
256.602874755859

> <r_mmod_Improper_Torsional_Energy-OPLS-2005>
9.13186645507812

> <r_mmod_Van_der_Waal_Energy-OPLS-2005>
151.21354675293

> <r_mmod_Electrostatic_Energy-OPLS-2005>
-506.191650390625

> <r_mmod_Solvation_Energy-OPLS-2005>
-213.261810302734

> <b_mmod_Minimization_Converged-OPLS-2005>
0

> <r_mmod_RMS_Derivative-OPLS-2005>
1.88801002502441

$$$$
74
                    3D
 Structure written by MMmdl.
160168  0  0  1  0            999 V2000
  -30.5368  -14.9839   20.4253 C   0  0  0  0  0  0
  -30.4440  -12.6190   19.4906 C   0  0  0  0  0  0
  -29.5227  -12.5328   18.2520 C   0  0  0  0  0  0
  -28.0577  -12.3111   18.6744 C   0  0  0  0  0  0
  -27.6264  -13.2500   19.8318 C   0  0  2  0  0  0
  -28.6717  -13.3018   20.9653 C   0  0  0  0  0  0
  -25.2458  -13.8213   20.5712 C   0  0  0  0  0  0
  -24.1778  -13.0436   20.9240 C   0  0  0  0  0  0
  -24.6401  -11.6923   20.8775 C   0  0  0  0  0  0
  -23.9091  -10.4293   21.0415 C   0  0  0  0  0  0
  -24.3640   -9.4204   21.9188 C   0  0  0  0  0  0
  -23.6307   -8.2246   22.0754 C   0  0  0  0  0  0
  -22.4286   -8.0294   21.3551 C   0  0  0  0  0  0
  -21.9932   -9.0265   20.4651 C   0  0  0  0  0  0
  -22.7268  -10.2139   20.3055 C   0  0  0  0  0  0
  -21.6855   -6.0747   22.5280 C   0  0  0  0  0  0
  -21.4019   -6.5643   23.8217 C   0  0  0  0  0  0
  -21.3659   -5.6791   24.9175 C   0  0  0  0  0  0
  -21.6043   -4.3054   24.7220 C   0  0  0  0  0  0
  -21.8820   -3.8154   23.4340 C   0  0  0  0  0  0
  -21.9197   -4.6976   22.3400 C   0  0  0  0  0  0
  -22.7796  -13.5211   21.1877 C   0  0  0  0  0  0
  -22.1660   -4.2164   21.0976 F   0  0  0  0  0  0
  -21.5630   -3.4531   25.7728 F   0  0  0  0  0  0
  -29.9373  -13.7245   20.3530 N   0  0  0  0  0  0
  -26.2877  -12.9448   20.3229 N   0  0  0  0  0  0
  -25.9335  -11.6576   20.5741 N   0  0  0  0  0  0
  -22.0434  -12.8212   22.0435 N   0  0  0  0  0  0
  -25.4105  -15.1943   20.4121 N   0  0  0  0  0  0
  -31.7549  -15.0244   20.2159 O   0  0  0  0  0  0
  -21.6651   -6.8892   21.4242 O   0  0  0  0  0  0
  -22.3484  -14.5513   20.6706 O   0  0  0  0  0  0
  -24.6458  -31.8416   23.1863 C   0  0  0  0  0  0
  -25.9217  -32.4682   23.8263 C   0  0  1  0  0  0
  -27.2172  -27.1072   20.1696 C   0  0  0  0  0  0
  -25.5958  -33.8488   24.2180 N   0  0  0  0  0  0
  -23.4515  -30.4588   21.5325 C   0  0  2  0  0  0
  -24.9013  -28.8768   20.1155 C   0  0  0  0  0  0
  -22.7580  -29.4535   22.4863 C   0  0  0  0  0  0
  -18.0305  -28.1393   22.8479 C   0  0  0  0  0  0
  -24.1495  -36.7247   23.2646 C   0  0  0  0  0  0
  -26.0083  -30.7069   21.3887 C   0  0  0  0  0  0
  -26.0795  -29.3135   20.7351 C   0  0  0  0  0  0
  -27.2393  -28.4469   20.7396 C   0  0  0  0  0  0
  -26.0148  -26.7785   19.5070 C   0  0  0  0  0  0
  -24.8831  -27.6235   19.4850 C   0  0  0  0  0  0
  -23.6795  -29.7828   20.1542 C   0  0  0  0  0  0
  -25.4129  -36.3026   24.0314 C   0  0  1  0  0  0
  -20.5921  -28.3719   23.1232 C   0  0  2  0  0  0
  -20.6788  -26.9420   22.5403 C   0  0  0  0  0  0
  -19.5762  -26.6377   21.5211 C   0  0  0  0  0  0
  -18.1945  -26.7933   22.1621 C   0  0  0  0  0  0
  -19.1565  -28.8875   23.2846 C   0  0  0  0  0  0
  -18.9474  -30.1473   23.8869 C   0  0  0  0  0  0
  -17.6470  -30.6590   24.0553 C   0  0  0  0  0  0
  -25.9078  -34.9398   23.5057 C   0  0  0  0  0  0
  -16.5361  -29.9078   23.6337 C   0  0  0  0  0  0
  -16.7290  -28.6495   23.0362 C   0  0  0  0  0  0
  -26.4535  -31.6555   25.0714 C   0  0  0  0  0  0
  -25.3715  -31.3739   26.1405 C   0  0  0  0  0  0
  -27.0404  -30.2950   24.6311 C   0  0  0  0  0  0
  -27.6063  -32.4327   25.7499 C   0  0  0  0  0  0
  -27.5575  -37.1788   24.8471 C   0  0  0  0  0  0
  -21.4270  -29.3044   22.3607 N   0  0  0  0  0  0
  -26.4299  -37.3736   23.9399 N   0  0  0  0  0  0
  -24.7219  -31.0245   22.0909 N   0  0  0  0  0  0
  -23.4209  -28.8089   23.3030 O   0  0  0  0  0  0
  -28.2747  -26.1190   20.2014 O   0  0  0  0  0  0
  -26.5664  -34.8899   22.4639 O   0  0  0  0  0  0
  -23.5568  -32.1303   23.7062 O   0  0  0  0  0  0
  -31.1941  -17.8951   21.4996 C   0  0  0  0  0  0
  -29.6645  -20.1858   20.8172 C   0  0  0  0  0  0
  -30.7921  -20.2078   21.7093 C   0  0  0  0  0  0
  -30.0511  -17.6653   20.7071 C   0  0  0  0  0  0
  -32.7049  -21.8006   22.2639 C   0  0  0  0  0  0
  -30.9962  -21.1844   24.0424 C   0  0  0  0  0  0
  -30.4718  -23.7828   20.2431 C   0  0  0  0  0  0
  -28.7955  -21.5886   20.4592 C   0  0  0  0  0  0
  -28.0283  -24.5892   20.4759 C   0  0  0  0  0  0
  -31.2391  -21.4154   22.5400 C   0  0  0  0  0  0
  -29.0256  -23.2716   20.0690 C   0  0  1  0  0  0
  -31.5353  -19.1052   21.9905 N   0  0  0  0  0  0
  -29.3144  -18.8604   20.3688 N   0  0  0  0  0  0
  -29.7483  -16.1791   20.4476 N   0  0  0  0  0  0
  -31.4733  -12.7905   19.1711 H   0  0  0  0  0  0
  -30.4538  -11.6743   20.0358 H   0  0  0  0  0  0
  -29.8499  -11.7292   17.5906 H   0  0  0  0  0  0
  -29.6024  -13.4549   17.6745 H   0  0  0  0  0  0
  -27.9624  -11.2710   18.9883 H   0  0  0  0  0  0
  -27.3943  -12.4321   17.8171 H   0  0  0  0  0  0
  -27.5801  -14.2471   19.3932 H   0  0  0  0  0  0
  -28.7726  -12.3323   21.4544 H   0  0  0  0  0  0
  -28.3653  -14.0112   21.7366 H   0  0  0  0  0  0
  -25.2773   -9.5687   22.4779 H   0  0  0  0  0  0
  -24.0020   -7.4633   22.7461 H   0  0  0  0  0  0
  -21.0872   -8.8789   19.8945 H   0  0  0  0  0  0
  -22.3725  -10.9691   19.6176 H   0  0  0  0  0  0
  -21.2007   -7.6148   23.9730 H   0  0  0  0  0  0
  -21.1479   -6.0512   25.9082 H   0  0  0  0  0  0
  -22.0600   -2.7616   23.2832 H   0  0  0  0  0  0
  -22.4035  -11.9894   22.4875 H   0  0  0  0  0  0
  -21.1038  -13.1239   22.2583 H   0  0  0  0  0  0
  -24.6364  -15.8408   20.5206 H   0  0  0  0  0  0
  -26.2442  -15.6413   20.0553 H   0  0  0  0  0  0
  -26.7287  -32.5281   23.0992 H   0  0  0  0  0  0
  -25.0081  -33.9603   25.0316 H   0  0  0  0  0  0
  -22.7551  -31.2851   21.3746 H   0  0  0  0  0  0
  -23.3756  -35.9582   23.3320 H   0  0  0  0  0  0
  -24.3570  -36.8864   22.2056 H   0  0  0  0  0  0
  -23.7252  -37.6450   23.6673 H   0  0  0  0  0  0
  -26.1660  -31.4571   20.6128 H   0  0  0  0  0  0
  -26.8782  -30.7607   22.0318 H   0  0  0  0  0  0
  -28.1393  -28.7797   21.2370 H   0  0  0  0  0  0
  -25.9262  -25.8270   19.0043 H   0  0  0  0  0  0
  -23.9862  -27.2858   18.9842 H   0  0  0  0  0  0
  -23.8178  -30.5539   19.3957 H   0  0  0  0  0  0
  -22.7938  -29.2246   19.8454 H   0  0  0  0  0  0
  -25.1322  -36.1860   25.0809 H   0  0  0  0  0  0
  -21.0008  -28.3304   24.1355 H   0  0  0  0  0  0
  -20.5677  -26.2331   23.3624 H   0  0  0  0  0  0
  -21.6652  -26.7421   22.1199 H   0  0  0  0  0  0
  -19.6917  -25.6281   21.1260 H   0  0  0  0  0  0
  -19.6698  -27.3172   20.6731 H   0  0  0  0  0  0
  -17.4213  -26.6682   21.4025 H   0  0  0  0  0  0
  -18.0335  -26.0079   22.9020 H   0  0  0  0  0  0
  -19.7949  -30.7301   24.2223 H   0  0  0  0  0  0
  -17.5018  -31.6269   24.5153 H   0  0  0  0  0  0
  -15.5360  -30.2962   23.7679 H   0  0  0  0  0  0
  -15.8691  -28.0797   22.7095 H   0  0  0  0  0  0
  -24.5910  -30.7074   25.7715 H   0  0  0  0  0  0
  -24.8886  -32.2912   26.4778 H   0  0  0  0  0  0
  -25.7993  -30.8942   27.0216 H   0  0  0  0  0  0
  -26.3023  -29.6666   24.1314 H   0  0  0  0  0  0
  -27.4004  -29.7258   25.4891 H   0  0  0  0  0  0
  -27.8937  -30.4180   23.9639 H   0  0  0  0  0  0
  -27.2663  -33.3655   26.2011 H   0  0  0  0  0  0
  -28.3906  -32.6843   25.0348 H   0  0  0  0  0  0
  -28.0699  -31.8497   26.5467 H   0  0  0  0  0  0
  -28.2607  -38.0071   24.7488 H   0  0  0  0  0  0
  -28.1060  -36.2596   24.6347 H   0  0  0  0  0  0
  -27.2284  -37.1488   25.8876 H   0  0  0  0  0  0
  -20.9490  -29.8744   21.6769 H   0  0  0  0  0  0
  -26.0165  -38.2814   24.1375 H   0  0  0  0  0  0
  -31.8212  -17.0811   21.8300 H   0  0  0  0  0  0
  -32.8802  -21.9841   21.2043 H   0  0  0  0  0  0
  -33.3904  -21.0115   22.5758 H   0  0  0  0  0  0
  -32.9834  -22.7043   22.8064 H   0  0  0  0  0  0
  -29.9454  -20.9701   24.2415 H   0  0  0  0  0  0
  -31.2678  -22.0658   24.6241 H   0  0  0  0  0  0
  -31.5833  -20.3476   24.4223 H   0  0  0  0  0  0
  -31.2208  -23.0427   19.9665 H   0  0  0  0  0  0
  -30.6658  -24.1226   21.2595 H   0  0  0  0  0  0
  -30.6414  -24.6486   19.6025 H   0  0  0  0  0  0
  -29.6690  -21.5111   19.8151 H   0  0  0  0  0  0
  -28.7535  -21.7951   21.5252 H   0  0  0  0  0  0
  -27.9084  -24.5402   21.5583 H   0  0  0  0  0  0
  -27.0397  -24.3333   20.0996 H   0  0  0  0  0  0
  -30.6309  -22.2724   22.2977 H   0  0  0  0  0  0
  -28.9155  -23.2548   18.9826 H   0  0  0  0  0  0
  -28.7664  -15.9913   20.3328 H   0  0  0  0  0  0
  1 25  1  0  0  0
  1 30  2  0  0  0
  1 84  1  0  0  0
  2  3  1  0  0  0
  2 25  1  0  0  0
  2 85  1  0  0  0
  2 86  1  0  0  0
  3  4  1  0  0  0
  3 87  1  0  0  0
  3 88  1  0  0  0
  4  5  1  0  0  0
  4 89  1  0  0  0
  4 90  1  0  0  0
  5  6  1  0  0  0
  5 26  1  0  0  0
  5 91  1  0  0  0
  6 25  1  0  0  0
  6 92  1  0  0  0
  6 93  1  0  0  0
  7  8  2  0  0  0
  7 26  1  0  0  0
  7 29  1  0  0  0
  8  9  1  0  0  0
  8 22  1  0  0  0
  9 10  1  0  0  0
  9 27  2  0  0  0
 10 11  2  0  0  0
 10 15  1  0  0  0
 11 12  1  0  0  0
 11 94  1  0  0  0
 12 13  2  0  0  0
 12 95  1  0  0  0
 13 14  1  0  0  0
 13 31  1  0  0  0
 14 15  2  0  0  0
 14 96  1  0  0  0
 15 97  1  0  0  0
 16 17  2  0  0  0
 16 21  1  0  0  0
 16 31  1  0  0  0
 17 18  1  0  0  0
 17 98  1  0  0  0
 18 19  2  0  0  0
 18 99  1  0  0  0
 19 20  1  0  0  0
 19 24  1  0  0  0
 20 21  2  0  0  0
 20100  1  0  0  0
 21 23  1  0  0  0
 22 28  1  0  0  0
 22 32  2  0  0  0
 26 27  1  0  0  0
 28101  1  0  0  0
 28102  1  0  0  0
 29103  1  0  0  0
 29104  1  0  0  0
 33 34  1  0  0  0
 33 66  1  0  0  0
 33 70  2  0  0  0
 34 36  1  0  0  0
 34 59  1  0  0  0
 34105  1  0  0  0
 35 44  2  0  0  0
 35 45  1  0  0  0
 35 68  1  0  0  0
 36 56  1  0  0  0
 36106  1  0  0  0
 37 39  1  0  0  0
 37 47  1  0  0  0
 37 66  1  0  0  0
 37107  1  0  0  0
 38 43  2  0  0  0
 38 46  1  0  0  0
 38 47  1  0  0  0
 39 64  1  0  0  0
 39 67  2  0  0  0
 40 52  1  0  0  0
 40 53  2  0  0  0
 40 58  1  0  0  0
 41108  1  0  0  0
 41109  1  0  0  0
 41110  1  0  0  0
 41 48  1  0  0  0
 42 43  1  0  0  0
 42 66  1  0  0  0
 42111  1  0  0  0
 42112  1  0  0  0
 43 44  1  0  0  0
 44113  1  0  0  0
 45 46  2  0  0  0
 45114  1  0  0  0
 46115  1  0  0  0
 47116  1  0  0  0
 47117  1  0  0  0
 48 56  1  0  0  0
 48 65  1  0  0  0
 48118  1  0  0  0
 49 50  1  0  0  0
 49 53  1  0  0  0
 49 64  1  0  0  0
 49119  1  0  0  0
 50 51  1  0  0  0
 50120  1  0  0  0
 50121  1  0  0  0
 51 52  1  0  0  0
 51122  1  0  0  0
 51123  1  0  0  0
 52124  1  0  0  0
 52125  1  0  0  0
 53 54  1  0  0  0
 54 55  2  0  0  0
 54126  1  0  0  0
 55 57  1  0  0  0
 55127  1  0  0  0
 56 69  2  0  0  0
 57 58  2  0  0  0
 57128  1  0  0  0
 58129  1  0  0  0
 59 60  1  0  0  0
 59 61  1  0  0  0
 59 62  1  0  0  0
 60130  1  0  0  0
 60131  1  0  0  0
 60132  1  0  0  0
 61133  1  0  0  0
 61134  1  0  0  0
 61135  1  0  0  0
 62136  1  0  0  0
 62137  1  0  0  0
 62138  1  0  0  0
 63 65  1  0  0  0
 63139  1  0  0  0
 63140  1  0  0  0
 63141  1  0  0  0
 64142  1  0  0  0
 65143  1  0  0  0
 68 79  1  0  0  0
 71 74  2  0  0  0
 71 82  1  0  0  0
 71144  1  0  0  0
 72 73  1  0  0  0
 72 78  1  0  0  0
 72 83  2  0  0  0
 73 80  1  0  0  0
 73 82  2  0  0  0
 74 83  1  0  0  0
 74 84  1  0  0  0
 75145  1  0  0  0
 75146  1  0  0  0
 75147  1  0  0  0
 75 80  1  0  0  0
 76 80  1  0  0  0
 76148  1  0  0  0
 76149  1  0  0  0
 76150  1  0  0  0
 77151  1  0  0  0
 77152  1  0  0  0
 77153  1  0  0  0
 77 81  1  0  0  0
 78 81  1  0  0  0
 78154  1  0  0  0
 78155  1  0  0  0
 79 81  1  0  0  0
 79156  1  0  0  0
 79157  1  0  0  0
 80158  1  0  0  0
 81159  1  0  0  0
 84160  1  0  0  0
M  ISO  4   1 100  68 101  79 101  84 100
M  END
> <chiral flag>
0

> <version>
0

> <s_m_source_file>
/data/baiqing/PycharmProjects/Reinvent-master-3.2/result/LINK_invent/BTK/process_docking_weight1_custom_sum_contain_oxygen_bond_distance_aromatic_linkinvent_7_9_3/rearranged_h_0122.sdf

> <i_m_source_file_index>
75

> <r_mmod_Potential_Energy-OPLS-2005>
836.569946289062

> <r_mmod_Stretch_Energy-OPLS-2005>
324.007385253906

> <r_mmod_Bend_Energy-OPLS-2005>
494.776885986328

> <r_mmod_Torsional_Energy-OPLS-2005>
225.782531738281

> <r_mmod_Improper_Torsional_Energy-OPLS-2005>
7.3897852897644

> <r_mmod_Van_der_Waal_Energy-OPLS-2005>
144.83317565918

> <r_mmod_Electrostatic_Energy-OPLS-2005>
-363.835968017578

> <r_mmod_Solvation_Energy-OPLS-2005>
-213.38232421875

> <b_mmod_Minimization_Converged-OPLS-2005>
0

> <r_mmod_RMS_Derivative-OPLS-2005>
1.08182513713837

$$$$
75
                    3D
 Structure written by MMmdl.
171180  0  0  1  0            999 V2000
  -30.7673  -14.4243   20.3632 C   0  0  0  0  0  0
  -30.4003  -12.2398   19.4137 C   0  0  0  0  0  0
  -29.4666  -12.4002   18.1973 C   0  0  0  0  0  0
  -27.9956  -12.3028   18.6327 C   0  0  0  0  0  0
  -27.6502  -13.2069   19.8473 C   0  0  2  0  0  0
  -28.7117  -13.0957   20.9660 C   0  0  0  0  0  0
  -25.2592  -13.8172   20.5720 C   0  0  0  0  0  0
  -24.1839  -13.0458   20.9211 C   0  0  0  0  0  0
  -24.6387  -11.6918   20.8785 C   0  0  0  0  0  0
  -23.9053  -10.4302   21.0434 C   0  0  0  0  0  0
  -24.3603   -9.4209   21.9206 C   0  0  0  0  0  0
  -23.6282   -8.2245   22.0760 C   0  0  0  0  0  0
  -22.4268   -8.0282   21.3544 C   0  0  0  0  0  0
  -21.9908   -9.0257   20.4645 C   0  0  0  0  0  0
  -22.7236  -10.2144   20.3071 C   0  0  0  0  0  0
  -21.6853   -6.0738   22.5274 C   0  0  0  0  0  0
  -21.4008   -6.5637   23.8205 C   0  0  0  0  0  0
  -21.3656   -5.6790   24.9169 C   0  0  0  0  0  0
  -21.6047   -4.3061   24.7222 C   0  0  0  0  0  0
  -21.8820   -3.8150   23.4343 C   0  0  0  0  0  0
  -21.9195   -4.6963   22.3397 C   0  0  0  0  0  0
  -22.7864  -13.5270   21.1856 C   0  0  0  0  0  0
  -22.1669   -4.2156   21.0977 F   0  0  0  0  0  0
  -21.5624   -3.4537   25.7730 F   0  0  0  0  0  0
  -30.0364  -13.2897   20.3657 N   0  0  0  0  0  0
  -26.3005  -12.9338   20.3369 N   0  0  0  0  0  0
  -25.9319  -11.6508   20.5848 N   0  0  0  0  0  0
  -22.0489  -12.8247   22.0383 N   0  0  0  0  0  0
  -25.4359  -15.1881   20.4120 N   0  0  0  0  0  0
  -31.9907  -14.4389   20.4610 O   0  0  0  0  0  0
  -21.6641   -6.8873   21.4235 O   0  0  0  0  0  0
  -22.3557  -14.5577   20.6705 O   0  0  0  0  0  0
  -24.6087  -31.8726   23.2133 C   0  0  0  0  0  0
  -25.8998  -32.4845   23.8414 C   0  0  1  0  0  0
  -27.2297  -27.4735   20.0842 C   0  0  0  0  0  0
  -25.5861  -33.8646   24.2341 N   0  0  0  0  0  0
  -23.3930  -30.4972   21.5541 C   0  0  2  0  0  0
  -24.8357  -28.9691   20.1192 C   0  0  0  0  0  0
  -22.7379  -29.4678   22.5017 C   0  0  0  0  0  0
  -18.0264  -28.1373   22.8505 C   0  0  0  0  0  0
  -24.1472  -36.7321   23.2636 C   0  0  0  0  0  0
  -25.9185  -30.8483   21.3620 C   0  0  0  0  0  0
  -25.9939  -29.4850   20.7121 C   0  0  0  0  0  0
  -27.1905  -28.7425   20.6950 C   0  0  0  0  0  0
  -26.0480  -26.9595   19.4955 C   0  0  0  0  0  0
  -24.8558  -27.7029   19.5124 C   0  0  0  0  0  0
  -23.5970  -29.8299   20.1686 C   0  0  0  0  0  0
  -25.4097  -36.3127   24.0334 C   0  0  1  0  0  0
  -20.5854  -28.3643   23.1338 C   0  0  2  0  0  0
  -20.6746  -26.9381   22.5424 C   0  0  0  0  0  0
  -19.5720  -26.6387   21.5220 C   0  0  0  0  0  0
  -18.1901  -26.7924   22.1630 C   0  0  0  0  0  0
  -19.1514  -28.8828   23.2920 C   0  0  0  0  0  0
  -18.9445  -30.1438   23.8922 C   0  0  0  0  0  0
  -17.6445  -30.6578   24.0572 C   0  0  0  0  0  0
  -25.9027  -34.9493   23.5144 C   0  0  0  0  0  0
  -16.5334  -29.9083   23.6329 C   0  0  0  0  0  0
  -16.7257  -28.6499   23.0357 C   0  0  0  0  0  0
  -26.4447  -31.6611   25.0726 C   0  0  0  0  0  0
  -25.3728  -31.3693   26.1483 C   0  0  0  0  0  0
  -27.0276  -30.3057   24.6080 C   0  0  0  0  0  0
  -27.6024  -32.4326   25.7491 C   0  0  0  0  0  0
  -27.5580  -37.1813   24.8459 C   0  0  0  0  0  0
  -21.4113  -29.3024   22.3754 N   0  0  0  0  0  0
  -26.4287  -37.3815   23.9412 N   0  0  0  0  0  0
  -24.6581  -31.0867   22.1014 N   0  0  0  0  0  0
  -23.4179  -28.8217   23.3032 O   0  0  0  0  0  0
  -28.4319  -26.8049   20.0917 O   0  0  0  0  0  0
  -26.5609  -34.8935   22.4721 O   0  0  0  0  0  0
  -23.5290  -32.1468   23.7547 O   0  0  0  0  0  0
  -29.6860  -19.8470   16.2805 C   0  0  0  0  0  0
  -29.2204  -21.1356   15.9770 C   0  0  0  0  0  0
  -30.8881  -19.7079   17.0058 C   0  0  0  0  0  0
  -29.9805  -22.2366   16.4015 C   0  0  0  0  0  0
  -31.6094  -20.8769   17.3436 C   0  0  0  0  0  0
  -32.4316  -16.1857   16.5959 C   0  0  0  0  0  0
  -31.8015  -17.5113   16.1623 C   0  0  0  0  0  0
  -31.4580  -15.4079   17.4878 C   0  0  0  0  0  0
  -30.3681  -17.5406   18.2792 C   0  0  0  0  0  0
  -31.3758  -18.3219   17.3976 C   0  0  2  0  0  0
  -31.0256  -16.2275   18.7326 C   0  0  1  0  0  0
  -32.9276  -20.8469   18.0985 C   0  0  0  0  0  0
  -29.4164  -23.6399   16.3660 C   0  0  0  0  0  0
  -28.6939  -23.9050   17.6964 C   0  0  0  0  0  0
  -28.6569  -25.3704   18.1359 C   0  0  0  0  0  0
  -28.4693  -25.4551   19.6582 C   0  0  0  0  0  0
  -31.1598  -22.1092   17.0431 N   0  0  0  0  0  0
  -30.2019  -15.4112   19.6483 N   0  0  0  0  0  0
  -31.4444  -12.3045   19.0991 H   0  0  0  0  0  0
  -30.2780  -11.2585   19.8718 H   0  0  0  0  0  0
  -29.6857  -11.6317   17.4547 H   0  0  0  0  0  0
  -29.6285  -13.3525   17.7014 H   0  0  0  0  0  0
  -27.8104  -11.2583   18.8870 H   0  0  0  0  0  0
  -27.3362  -12.5290   17.7946 H   0  0  0  0  0  0
  -27.6622  -14.2323   19.4798 H   0  0  0  0  0  0
  -28.6705  -12.1186   21.4474 H   0  0  0  0  0  0
  -28.5275  -13.8382   21.7447 H   0  0  0  0  0  0
  -25.2742   -9.5679   22.4792 H   0  0  0  0  0  0
  -23.9992   -7.4630   22.7473 H   0  0  0  0  0  0
  -21.0852   -8.8767   19.8940 H   0  0  0  0  0  0
  -22.3699  -10.9679   19.6177 H   0  0  0  0  0  0
  -21.1995   -7.6143   23.9708 H   0  0  0  0  0  0
  -21.1476   -6.0526   25.9072 H   0  0  0  0  0  0
  -22.0605   -2.7614   23.2841 H   0  0  0  0  0  0
  -22.4093  -11.9879   22.4730 H   0  0  0  0  0  0
  -21.1104  -13.1257   22.2575 H   0  0  0  0  0  0
  -24.6763  -15.8513   20.5174 H   0  0  0  0  0  0
  -26.3021  -15.6229   20.1203 H   0  0  0  0  0  0
  -26.7067  -32.5571   23.1180 H   0  0  0  0  0  0
  -24.9962  -33.9825   25.0447 H   0  0  0  0  0  0
  -22.6782  -31.3112   21.4172 H   0  0  0  0  0  0
  -23.3742  -35.9644   23.3305 H   0  0  0  0  0  0
  -24.3557  -36.8941   22.2048 H   0  0  0  0  0  0
  -23.7208  -37.6515   23.6658 H   0  0  0  0  0  0
  -26.0279  -31.6115   20.5905 H   0  0  0  0  0  0
  -26.8084  -30.9027   21.9772 H   0  0  0  0  0  0
  -28.0882  -29.1406   21.1496 H   0  0  0  0  0  0
  -26.0203  -25.9964   19.0084 H   0  0  0  0  0  0
  -23.9631  -27.3002   19.0548 H   0  0  0  0  0  0
  -23.6972  -30.6023   19.4052 H   0  0  0  0  0  0
  -22.7238  -29.2427   19.8781 H   0  0  0  0  0  0
  -25.1274  -36.2003   25.0824 H   0  0  0  0  0  0
  -20.9955  -28.3203   24.1453 H   0  0  0  0  0  0
  -20.5657  -26.2244   23.3609 H   0  0  0  0  0  0
  -21.6614  -26.7427   22.1198 H   0  0  0  0  0  0
  -19.6861  -25.6308   21.1219 H   0  0  0  0  0  0
  -19.6661  -27.3230   20.6777 H   0  0  0  0  0  0
  -17.4174  -26.6714   21.4022 H   0  0  0  0  0  0
  -18.0273  -26.0051   22.9007 H   0  0  0  0  0  0
  -19.7921  -30.7257   24.2294 H   0  0  0  0  0  0
  -17.4997  -31.6266   24.5157 H   0  0  0  0  0  0
  -15.5336  -30.2991   23.7638 H   0  0  0  0  0  0
  -15.8660  -28.0824   22.7069 H   0  0  0  0  0  0
  -24.5854  -30.7112   25.7797 H   0  0  0  0  0  0
  -24.8987  -32.2852   26.5022 H   0  0  0  0  0  0
  -25.8080  -30.8764   27.0190 H   0  0  0  0  0  0
  -26.2819  -29.6822   24.1136 H   0  0  0  0  0  0
  -27.4056  -29.7280   25.4529 H   0  0  0  0  0  0
  -27.8648  -30.4374   23.9219 H   0  0  0  0  0  0
  -27.2632  -33.3603   26.2114 H   0  0  0  0  0  0
  -28.3814  -32.6932   25.0312 H   0  0  0  0  0  0
  -28.0718  -31.8430   26.5376 H   0  0  0  0  0  0
  -28.2587  -38.0123   24.7537 H   0  0  0  0  0  0
  -28.1092  -36.2662   24.6251 H   0  0  0  0  0  0
  -27.2305  -37.1415   25.8863 H   0  0  0  0  0  0
  -20.9255  -29.8752   21.6994 H   0  0  0  0  0  0
  -26.0179  -38.2886   24.1449 H   0  0  0  0  0  0
  -29.1089  -18.9801   15.9919 H   0  0  0  0  0  0
  -28.2675  -21.2725   15.4824 H   0  0  0  0  0  0
  -33.3605  -16.3741   17.1367 H   0  0  0  0  0  0
  -32.6987  -15.5925   15.7204 H   0  0  0  0  0  0
  -30.9458  -17.3242   15.5113 H   0  0  0  0  0  0
  -32.5241  -18.0763   15.5724 H   0  0  0  0  0  0
  -31.9336  -14.4703   17.7773 H   0  0  0  0  0  0
  -30.5818  -15.1474   16.8954 H   0  0  0  0  0  0
  -29.4435  -17.3391   17.7375 H   0  0  0  0  0  0
  -30.1040  -18.1376   19.1535 H   0  0  0  0  0  0
  -32.2732  -18.4314   18.0037 H   0  0  0  0  0  0
  -31.9266  -16.5280   19.2726 H   0  0  0  0  0  0
  -32.8054  -20.3615   19.0676 H   0  0  0  0  0  0
  -33.3089  -21.8513   18.2858 H   0  0  0  0  0  0
  -33.6838  -20.3043   17.5309 H   0  0  0  0  0  0
  -28.7425  -23.7718   15.5192 H   0  0  0  0  0  0
  -30.2399  -24.3414   16.2256 H   0  0  0  0  0  0
  -29.2242  -23.3562   18.4767 H   0  0  0  0  0  0
  -27.6923  -23.4746   17.6744 H   0  0  0  0  0  0
  -27.8705  -25.8998   17.5989 H   0  0  0  0  0  0
  -29.5925  -25.8684   17.8787 H   0  0  0  0  0  0
  -29.3284  -24.9931   20.1454 H   0  0  0  0  0  0
  -27.6067  -24.8834   20.0027 H   0  0  0  0  0  0
  -29.2144  -15.3367   19.4599 H   0  0  0  0  0  0
  1 25  1  0  0  0
  1 30  2  0  0  0
  1 88  1  0  0  0
  2  3  1  0  0  0
  2 25  1  0  0  0
  2 89  1  0  0  0
  2 90  1  0  0  0
  3  4  1  0  0  0
  3 91  1  0  0  0
  3 92  1  0  0  0
  4  5  1  0  0  0
  4 93  1  0  0  0
  4 94  1  0  0  0
  5  6  1  0  0  0
  5 26  1  0  0  0
  5 95  1  0  0  0
  6 25  1  0  0  0
  6 96  1  0  0  0
  6 97  1  0  0  0
  7  8  2  0  0  0
  7 26  1  0  0  0
  7 29  1  0  0  0
  8  9  1  0  0  0
  8 22  1  0  0  0
  9 10  1  0  0  0
  9 27  2  0  0  0
 10 11  2  0  0  0
 10 15  1  0  0  0
 11 12  1  0  0  0
 11 98  1  0  0  0
 12 13  2  0  0  0
 12 99  1  0  0  0
 13 14  1  0  0  0
 13 31  1  0  0  0
 14 15  2  0  0  0
 14100  1  0  0  0
 15101  1  0  0  0
 16 17  2  0  0  0
 16 21  1  0  0  0
 16 31  1  0  0  0
 17 18  1  0  0  0
 17102  1  0  0  0
 18 19  2  0  0  0
 18103  1  0  0  0
 19 20  1  0  0  0
 19 24  1  0  0  0
 20 21  2  0  0  0
 20104  1  0  0  0
 21 23  1  0  0  0
 22 28  1  0  0  0
 22 32  2  0  0  0
 26 27  1  0  0  0
 28105  1  0  0  0
 28106  1  0  0  0
 29107  1  0  0  0
 29108  1  0  0  0
 33 34  1  0  0  0
 33 66  1  0  0  0
 33 70  2  0  0  0
 34 36  1  0  0  0
 34 59  1  0  0  0
 34109  1  0  0  0
 35 44  2  0  0  0
 35 45  1  0  0  0
 35 68  1  0  0  0
 36 56  1  0  0  0
 36110  1  0  0  0
 37 39  1  0  0  0
 37 47  1  0  0  0
 37 66  1  0  0  0
 37111  1  0  0  0
 38 43  2  0  0  0
 38 46  1  0  0  0
 38 47  1  0  0  0
 39 64  1  0  0  0
 39 67  2  0  0  0
 40 52  1  0  0  0
 40 53  2  0  0  0
 40 58  1  0  0  0
 41112  1  0  0  0
 41113  1  0  0  0
 41114  1  0  0  0
 41 48  1  0  0  0
 42 43  1  0  0  0
 42 66  1  0  0  0
 42115  1  0  0  0
 42116  1  0  0  0
 43 44  1  0  0  0
 44117  1  0  0  0
 45 46  2  0  0  0
 45118  1  0  0  0
 46119  1  0  0  0
 47120  1  0  0  0
 47121  1  0  0  0
 48 56  1  0  0  0
 48 65  1  0  0  0
 48122  1  0  0  0
 49 50  1  0  0  0
 49 53  1  0  0  0
 49 64  1  0  0  0
 49123  1  0  0  0
 50 51  1  0  0  0
 50124  1  0  0  0
 50125  1  0  0  0
 51 52  1  0  0  0
 51126  1  0  0  0
 51127  1  0  0  0
 52128  1  0  0  0
 52129  1  0  0  0
 53 54  1  0  0  0
 54 55  2  0  0  0
 54130  1  0  0  0
 55 57  1  0  0  0
 55131  1  0  0  0
 56 69  2  0  0  0
 57 58  2  0  0  0
 57132  1  0  0  0
 58133  1  0  0  0
 59 60  1  0  0  0
 59 61  1  0  0  0
 59 62  1  0  0  0
 60134  1  0  0  0
 60135  1  0  0  0
 60136  1  0  0  0
 61137  1  0  0  0
 61138  1  0  0  0
 61139  1  0  0  0
 62140  1  0  0  0
 62141  1  0  0  0
 62142  1  0  0  0
 63 65  1  0  0  0
 63143  1  0  0  0
 63144  1  0  0  0
 63145  1  0  0  0
 64146  1  0  0  0
 65147  1  0  0  0
 68 86  1  0  0  0
 71 72  2  0  0  0
 71 73  1  0  0  0
 71148  1  0  0  0
 72 74  1  0  0  0
 72149  1  0  0  0
 73 75  2  0  0  0
 73 80  1  0  0  0
 74 83  1  0  0  0
 74 87  2  0  0  0
 75 82  1  0  0  0
 75 87  1  0  0  0
 76 77  1  0  0  0
 76 78  1  0  0  0
 76150  1  0  0  0
 76151  1  0  0  0
 77 80  1  0  0  0
 77152  1  0  0  0
 77153  1  0  0  0
 78 81  1  0  0  0
 78154  1  0  0  0
 78155  1  0  0  0
 79 80  1  0  0  0
 79 81  1  0  0  0
 79156  1  0  0  0
 79157  1  0  0  0
 80158  1  0  0  0
 81 88  1  0  0  0
 81159  1  0  0  0
 82160  1  0  0  0
 82161  1  0  0  0
 82162  1  0  0  0
 83 84  1  0  0  0
 83163  1  0  0  0
 83164  1  0  0  0
 84 85  1  0  0  0
 84165  1  0  0  0
 84166  1  0  0  0
 85 86  1  0  0  0
 85167  1  0  0  0
 85168  1  0  0  0
 86169  1  0  0  0
 86170  1  0  0  0
 88171  1  0  0  0
M  ISO  4   1 100  68 101  86 101  88 100
M  END
> <chiral flag>
0

> <version>
0

> <s_m_source_file>
/data/baiqing/PycharmProjects/Reinvent-master-3.2/result/LINK_invent/BTK/process_docking_weight1_custom_sum_contain_oxygen_bond_distance_aromatic_linkinvent_7_9_3/rearranged_h_0122.sdf

> <i_m_source_file_index>
76

> <r_mmod_Potential_Energy-OPLS-2005>
-97.84765625

> <r_mmod_Stretch_Energy-OPLS-2005>
30.8574333190918

> <r_mmod_Bend_Energy-OPLS-2005>
106.290702819824

> <r_mmod_Torsional_Energy-OPLS-2005>
248.555770874023

> <r_mmod_Improper_Torsional_Energy-OPLS-2005>
23.2485103607178

> <r_mmod_Van_der_Waal_Energy-OPLS-2005>
174.569488525391

> <r_mmod_Electrostatic_Energy-OPLS-2005>
-514.35888671875

> <r_mmod_Solvation_Energy-OPLS-2005>
-216.776580810547

> <b_mmod_Minimization_Converged-OPLS-2005>
0

> <r_mmod_RMS_Derivative-OPLS-2005>
1.65769934654236

$$$$
76
                    3D
 Structure written by MMmdl.
171180  0  0  1  0            999 V2000
  -30.6573  -14.5970   20.4192 C   0  0  0  0  0  0
  -30.4386  -12.3544   19.4228 C   0  0  0  0  0  0
  -29.4939  -12.4793   18.2071 C   0  0  0  0  0  0
  -28.0201  -12.3127   18.6315 C   0  0  0  0  0  0
  -27.6526  -13.2009   19.8483 C   0  0  2  0  0  0
  -28.7107  -13.0833   20.9735 C   0  0  0  0  0  0
  -25.2591  -13.8091   20.5719 C   0  0  0  0  0  0
  -24.1877  -13.0383   20.9271 C   0  0  0  0  0  0
  -24.6459  -11.6832   20.8838 C   0  0  0  0  0  0
  -23.9108  -10.4217   21.0501 C   0  0  0  0  0  0
  -24.3626   -9.4089   21.9258 C   0  0  0  0  0  0
  -23.6249   -8.2152   22.0777 C   0  0  0  0  0  0
  -22.4233   -8.0233   21.3535 C   0  0  0  0  0  0
  -21.9919   -9.0256   20.4676 C   0  0  0  0  0  0
  -22.7295  -10.2110   20.3122 C   0  0  0  0  0  0
  -21.6802   -6.0705   22.5288 C   0  0  0  0  0  0
  -21.3985   -6.5621   23.8236 C   0  0  0  0  0  0
  -21.3690   -5.6781   24.9209 C   0  0  0  0  0  0
  -21.6037   -4.3047   24.7245 C   0  0  0  0  0  0
  -21.8811   -3.8116   23.4390 C   0  0  0  0  0  0
  -21.9153   -4.6918   22.3430 C   0  0  0  0  0  0
  -22.7899  -13.5194   21.1913 C   0  0  0  0  0  0
  -22.1618   -4.2100   21.1000 F   0  0  0  0  0  0
  -21.5674   -3.4566   25.7802 F   0  0  0  0  0  0
  -30.0306  -13.3846   20.3857 N   0  0  0  0  0  0
  -26.3025  -12.9279   20.3304 N   0  0  0  0  0  0
  -25.9359  -11.6447   20.5835 N   0  0  0  0  0  0
  -22.0447  -12.8227   22.0465 N   0  0  0  0  0  0
  -25.4260  -15.1815   20.4058 N   0  0  0  0  0  0
  -31.8400  -14.7438   20.0942 O   0  0  0  0  0  0
  -21.6545   -6.8856   21.4255 O   0  0  0  0  0  0
  -22.3607  -14.5517   20.6752 O   0  0  0  0  0  0
  -24.6168  -31.8658   23.2090 C   0  0  0  0  0  0
  -25.9033  -32.4819   23.8421 C   0  0  1  0  0  0
  -27.2477  -27.4311   20.1237 C   0  0  0  0  0  0
  -25.5896  -33.8617   24.2348 N   0  0  0  0  0  0
  -23.4007  -30.4867   21.5513 C   0  0  2  0  0  0
  -24.8462  -28.9447   20.1202 C   0  0  0  0  0  0
  -22.7420  -29.4635   22.5042 C   0  0  0  0  0  0
  -18.0270  -28.1321   22.8494 C   0  0  0  0  0  0
  -24.1491  -36.7322   23.2632 C   0  0  0  0  0  0
  -25.9244  -30.8391   21.3482 C   0  0  0  0  0  0
  -26.0025  -29.4637   20.7120 C   0  0  0  0  0  0
  -27.1997  -28.7169   20.7055 C   0  0  0  0  0  0
  -26.0705  -26.9175   19.5288 C   0  0  0  0  0  0
  -24.8794  -27.6730   19.5193 C   0  0  0  0  0  0
  -23.6050  -29.8063   20.1687 C   0  0  0  0  0  0
  -25.4091  -36.3117   24.0346 C   0  0  1  0  0  0
  -20.5866  -28.3607   23.1245 C   0  0  2  0  0  0
  -20.6762  -26.9377   22.5312 C   0  0  0  0  0  0
  -19.5694  -26.6407   21.5145 C   0  0  0  0  0  0
  -18.1934  -26.7808   22.1729 C   0  0  0  0  0  0
  -19.1521  -28.8792   23.2848 C   0  0  0  0  0  0
  -18.9475  -30.1427   23.8844 C   0  0  0  0  0  0
  -17.6482  -30.6566   24.0582 C   0  0  0  0  0  0
  -25.9012  -34.9478   23.5136 C   0  0  0  0  0  0
  -16.5365  -29.9063   23.6352 C   0  0  0  0  0  0
  -16.7263  -28.6462   23.0365 C   0  0  0  0  0  0
  -26.4497  -31.6572   25.0717 C   0  0  0  0  0  0
  -25.3812  -31.3641   26.1515 C   0  0  0  0  0  0
  -27.0288  -30.3047   24.5948 C   0  0  0  0  0  0
  -27.6085  -32.4280   25.7464 C   0  0  0  0  0  0
  -27.5585  -37.1801   24.8456 C   0  0  0  0  0  0
  -21.4158  -29.3013   22.3720 N   0  0  0  0  0  0
  -26.4289  -37.3778   23.9402 N   0  0  0  0  0  0
  -24.6667  -31.0767   22.0984 N   0  0  0  0  0  0
  -23.4134  -28.8188   23.3124 O   0  0  0  0  0  0
  -28.4624  -26.7706   20.1530 O   0  0  0  0  0  0
  -26.5557  -34.8916   22.4693 O   0  0  0  0  0  0
  -23.5364  -32.1401   23.7500 O   0  0  0  0  0  0
  -29.7422  -19.4034   20.3320 C   0  0  0  0  0  0
  -29.5326  -18.5523   22.5590 C   0  0  0  0  0  0
  -30.0684  -18.0871   19.9042 C   0  0  0  0  0  0
  -29.4396  -19.6451   21.6843 C   0  0  0  0  0  0
  -29.9733  -17.0100   20.8473 C   0  0  0  0  0  0
  -29.5567  -18.1878   17.3407 C   0  0  0  0  0  0
  -31.7896  -18.8826   18.2030 C   0  0  0  0  0  0
  -30.1686  -18.1039   15.9119 C   0  0  0  0  0  0
  -32.3967  -18.6327   16.8173 C   0  0  0  0  0  0
  -30.5971  -17.9255   18.4617 C   0  0  0  0  0  0
  -28.9637  -20.9912   22.2633 C   0  0  0  0  0  0
  -29.6475  -22.3159   21.8246 C   0  0  0  0  0  0
  -28.4983  -24.4429   21.0451 C   0  0  0  0  0  0
  -28.6083  -25.3843   19.8175 C   0  0  0  0  0  0
  -29.7503  -17.2862   22.1519 N   0  0  0  0  0  0
  -29.8004  -15.6416   20.4553 N   0  0  0  0  0  0
  -31.3974  -18.9248   15.7693 N   0  3  0  0  0  0
  -28.9460  -23.0457   20.7315 N   0  3  0  0  0  0
  -31.4756  -12.4773   19.1008 H   0  0  0  0  0  0
  -30.3665  -11.3645   19.8781 H   0  0  0  0  0  0
  -29.7481  -11.7264   17.4581 H   0  0  0  0  0  0
  -29.6298  -13.4467   17.7185 H   0  0  0  0  0  0
  -27.8717  -11.2599   18.8812 H   0  0  0  0  0  0
  -27.3551  -12.5212   17.7898 H   0  0  0  0  0  0
  -27.6657  -14.2250   19.4767 H   0  0  0  0  0  0
  -28.7068  -12.0853   21.4071 H   0  0  0  0  0  0
  -28.4709  -13.7658   21.7887 H   0  0  0  0  0  0
  -25.2782   -9.5482   22.4847 H   0  0  0  0  0  0
  -23.9910   -7.4501   22.7502 H   0  0  0  0  0  0
  -21.0855   -8.8816   19.8968 H   0  0  0  0  0  0
  -22.3821  -10.9660   19.6212 H   0  0  0  0  0  0
  -21.1942   -7.6108   23.9761 H   0  0  0  0  0  0
  -21.1543   -6.0494   25.9132 H   0  0  0  0  0  0
  -22.0554   -2.7568   23.2900 H   0  0  0  0  0  0
  -22.3966  -11.9859   22.4869 H   0  0  0  0  0  0
  -21.1101  -13.1369   22.2654 H   0  0  0  0  0  0
  -24.6474  -15.8258   20.5023 H   0  0  0  0  0  0
  -26.2579  -15.6229   20.0415 H   0  0  0  0  0  0
  -26.7081  -32.5547   23.1189 H   0  0  0  0  0  0
  -25.0142  -33.9769   25.0555 H   0  0  0  0  0  0
  -22.6893  -31.3020   21.4100 H   0  0  0  0  0  0
  -23.3738  -35.9687   23.3308 H   0  0  0  0  0  0
  -24.3574  -36.8923   22.2047 H   0  0  0  0  0  0
  -23.7267  -37.6539   23.6632 H   0  0  0  0  0  0
  -26.0077  -31.5934   20.5610 H   0  0  0  0  0  0
  -26.8181  -30.9150   21.9524 H   0  0  0  0  0  0
  -28.0920  -29.1288   21.1564 H   0  0  0  0  0  0
  -26.0500  -25.9476   19.0591 H   0  0  0  0  0  0
  -23.9988  -27.2645   19.0449 H   0  0  0  0  0  0
  -23.6956  -30.5673   19.3905 H   0  0  0  0  0  0
  -22.7390  -29.2050   19.8889 H   0  0  0  0  0  0
  -25.1276  -36.2021   25.0841 H   0  0  0  0  0  0
  -20.9922  -28.3081   24.1396 H   0  0  0  0  0  0
  -20.5744  -26.2213   23.3502 H   0  0  0  0  0  0
  -21.6595  -26.7505   22.0998 H   0  0  0  0  0  0
  -19.6903  -25.6391   21.1034 H   0  0  0  0  0  0
  -19.6512  -27.3361   20.6729 H   0  0  0  0  0  0
  -17.4065  -26.6283   21.4359 H   0  0  0  0  0  0
  -18.0682  -26.0034   22.9257 H   0  0  0  0  0  0
  -19.7968  -30.7260   24.2159 H   0  0  0  0  0  0
  -17.5088  -31.6220   24.5240 H   0  0  0  0  0  0
  -15.5366  -30.3009   23.7710 H   0  0  0  0  0  0
  -15.8682  -28.0765   22.7129 H   0  0  0  0  0  0
  -24.5975  -30.6975   25.7877 H   0  0  0  0  0  0
  -24.9021  -32.2790   26.5049 H   0  0  0  0  0  0
  -25.8247  -30.8797   27.0225 H   0  0  0  0  0  0
  -26.2751  -29.6817   24.1113 H   0  0  0  0  0  0
  -27.4253  -29.7277   25.4306 H   0  0  0  0  0  0
  -27.8520  -30.4436   23.8922 H   0  0  0  0  0  0
  -27.2706  -33.3560   26.2115 H   0  0  0  0  0  0
  -28.3862  -32.6860   25.0242 H   0  0  0  0  0  0
  -28.0789  -31.8354   26.5338 H   0  0  0  0  0  0
  -28.2600  -38.0094   24.7475 H   0  0  0  0  0  0
  -28.1079  -36.2624   24.6320 H   0  0  0  0  0  0
  -27.2295  -37.1494   25.8851 H   0  0  0  0  0  0
  -20.9373  -29.8691   21.6907 H   0  0  0  0  0  0
  -26.0224  -38.2872   24.1383 H   0  0  0  0  0  0
  -29.7186  -20.2195   19.6258 H   0  0  0  0  0  0
  -29.3449  -18.6900   23.6162 H   0  0  0  0  0  0
  -28.7387  -17.4707   17.4185 H   0  0  0  0  0  0
  -29.1056  -19.1748   17.4519 H   0  0  0  0  0  0
  -31.4829  -19.9275   18.2599 H   0  0  0  0  0  0
  -32.5555  -18.7601   18.9677 H   0  0  0  0  0  0
  -29.4384  -18.4433   15.1756 H   0  0  0  0  0  0
  -30.4060  -17.0692   15.6470 H   0  0  0  0  0  0
  -32.7071  -17.5903   16.7451 H   0  0  0  0  0  0
  -33.2870  -19.2415   16.6644 H   0  0  0  0  0  0
  -30.9653  -16.9042   18.3519 H   0  0  0  0  0  0
  -29.1269  -20.9239   23.3398 H   0  0  0  0  0  0
  -27.8830  -21.0566   22.1535 H   0  0  0  0  0  0
  -30.6878  -22.1416   21.5503 H   0  0  0  0  0  0
  -29.6888  -22.9595   22.7044 H   0  0  0  0  0  0
  -27.4802  -24.4239   21.4344 H   0  0  0  0  0  0
  -29.1094  -24.8774   21.8392 H   0  0  0  0  0  0
  -27.9816  -25.0684   18.9868 H   0  0  0  0  0  0
  -29.6284  -25.2977   19.4457 H   0  0  0  0  0  0
  -28.8659  -15.3094   20.6242 H   0  0  0  0  0  0
  -31.1509  -19.9047   15.7963 H   0  0  0  0  0  0
  -31.8129  -18.7668   14.8615 H   0  0  0  0  0  0
  -29.5958  -23.0980   19.9598 H   0  0  0  0  0  0
  -28.1543  -22.4972   20.4291 H   0  0  0  0  0  0
  1 25  1  0  0  0
  1 30  2  0  0  0
  1 86  1  0  0  0
  2  3  1  0  0  0
  2 25  1  0  0  0
  2 89  1  0  0  0
  2 90  1  0  0  0
  3  4  1  0  0  0
  3 91  1  0  0  0
  3 92  1  0  0  0
  4  5  1  0  0  0
  4 93  1  0  0  0
  4 94  1  0  0  0
  5  6  1  0  0  0
  5 26  1  0  0  0
  5 95  1  0  0  0
  6 25  1  0  0  0
  6 96  1  0  0  0
  6 97  1  0  0  0
  7  8  2  0  0  0
  7 26  1  0  0  0
  7 29  1  0  0  0
  8  9  1  0  0  0
  8 22  1  0  0  0
  9 10  1  0  0  0
  9 27  2  0  0  0
 10 11  2  0  0  0
 10 15  1  0  0  0
 11 12  1  0  0  0
 11 98  1  0  0  0
 12 13  2  0  0  0
 12 99  1  0  0  0
 13 14  1  0  0  0
 13 31  1  0  0  0
 14 15  2  0  0  0
 14100  1  0  0  0
 15101  1  0  0  0
 16 17  2  0  0  0
 16 21  1  0  0  0
 16 31  1  0  0  0
 17 18  1  0  0  0
 17102  1  0  0  0
 18 19  2  0  0  0
 18103  1  0  0  0
 19 20  1  0  0  0
 19 24  1  0  0  0
 20 21  2  0  0  0
 20104  1  0  0  0
 21 23  1  0  0  0
 22 28  1  0  0  0
 22 32  2  0  0  0
 26 27  1  0  0  0
 28105  1  0  0  0
 28106  1  0  0  0
 29107  1  0  0  0
 29108  1  0  0  0
 33 34  1  0  0  0
 33 66  1  0  0  0
 33 70  2  0  0  0
 34 36  1  0  0  0
 34 59  1  0  0  0
 34109  1  0  0  0
 35 44  2  0  0  0
 35 45  1  0  0  0
 35 68  1  0  0  0
 36 56  1  0  0  0
 36110  1  0  0  0
 37 39  1  0  0  0
 37 47  1  0  0  0
 37 66  1  0  0  0
 37111  1  0  0  0
 38 43  2  0  0  0
 38 46  1  0  0  0
 38 47  1  0  0  0
 39 64  1  0  0  0
 39 67  2  0  0  0
 40 52  1  0  0  0
 40 53  2  0  0  0
 40 58  1  0  0  0
 41112  1  0  0  0
 41113  1  0  0  0
 41114  1  0  0  0
 41 48  1  0  0  0
 42 43  1  0  0  0
 42 66  1  0  0  0
 42115  1  0  0  0
 42116  1  0  0  0
 43 44  1  0  0  0
 44117  1  0  0  0
 45 46  2  0  0  0
 45118  1  0  0  0
 46119  1  0  0  0
 47120  1  0  0  0
 47121  1  0  0  0
 48 56  1  0  0  0
 48 65  1  0  0  0
 48122  1  0  0  0
 49 50  1  0  0  0
 49 53  1  0  0  0
 49 64  1  0  0  0
 49123  1  0  0  0
 50 51  1  0  0  0
 50124  1  0  0  0
 50125  1  0  0  0
 51 52  1  0  0  0
 51126  1  0  0  0
 51127  1  0  0  0
 52128  1  0  0  0
 52129  1  0  0  0
 53 54  1  0  0  0
 54 55  2  0  0  0
 54130  1  0  0  0
 55 57  1  0  0  0
 55131  1  0  0  0
 56 69  2  0  0  0
 57 58  2  0  0  0
 57132  1  0  0  0
 58133  1  0  0  0
 59 60  1  0  0  0
 59 61  1  0  0  0
 59 62  1  0  0  0
 60134  1  0  0  0
 60135  1  0  0  0
 60136  1  0  0  0
 61137  1  0  0  0
 61138  1  0  0  0
 61139  1  0  0  0
 62140  1  0  0  0
 62141  1  0  0  0
 62142  1  0  0  0
 63 65  1  0  0  0
 63143  1  0  0  0
 63144  1  0  0  0
 63145  1  0  0  0
 64146  1  0  0  0
 65147  1  0  0  0
 68 84  1  0  0  0
 71 73  2  0  0  0
 71 74  1  0  0  0
 71148  1  0  0  0
 72 74  2  0  0  0
 72 85  1  0  0  0
 72149  1  0  0  0
 73 75  1  0  0  0
 73 80  1  0  0  0
 74 81  1  0  0  0
 75 85  2  0  0  0
 75 86  1  0  0  0
 76 78  1  0  0  0
 76 80  1  0  0  0
 76150  1  0  0  0
 76151  1  0  0  0
 77 79  1  0  0  0
 77 80  1  0  0  0
 77152  1  0  0  0
 77153  1  0  0  0
 78 87  1  0  0  0
 78154  1  0  0  0
 78155  1  0  0  0
 79 87  1  0  0  0
 79156  1  0  0  0
 79157  1  0  0  0
 80158  1  0  0  0
 81 82  1  0  0  0
 81159  1  0  0  0
 81160  1  0  0  0
 82 88  1  0  0  0
 82161  1  0  0  0
 82162  1  0  0  0
 83 84  1  0  0  0
 83 88  1  0  0  0
 83163  1  0  0  0
 83164  1  0  0  0
 84165  1  0  0  0
 84166  1  0  0  0
 86167  1  0  0  0
 87168  1  0  0  0
 87169  1  0  0  0
 88170  1  0  0  0
 88171  1  0  0  0
M  CHG  2  87   1  88   1
M  ISO  4   1 100  68 101  84 101  86 100
M  END
> <chiral flag>
0

> <version>
0

> <s_m_source_file>
/data/baiqing/PycharmProjects/Reinvent-master-3.2/result/LINK_invent/BTK/process_docking_weight1_custom_sum_contain_oxygen_bond_distance_aromatic_linkinvent_7_9_3/rearranged_h_0122.sdf

> <i_m_source_file_index>
77

> <r_mmod_Potential_Energy-OPLS-2005>
-351.614807128906

> <r_mmod_Stretch_Energy-OPLS-2005>
46.3650856018066

> <r_mmod_Bend_Energy-OPLS-2005>
146.507583618164

> <r_mmod_Torsional_Energy-OPLS-2005>
320.116607666016

> <r_mmod_Improper_Torsional_Energy-OPLS-2005>
14.8500804901123

> <r_mmod_Van_der_Waal_Energy-OPLS-2005>
146.434768676758

> <r_mmod_Electrostatic_Energy-OPLS-2005>
-112.564872741699

> <r_mmod_Solvation_Energy-OPLS-2005>
-944.531494140625

> <b_mmod_Minimization_Converged-OPLS-2005>
0

> <r_mmod_RMS_Derivative-OPLS-2005>
7.84866809844971

$$$$
77
                    3D
 Structure written by MMmdl.
172181  0  0  1  0            999 V2000
  -30.5176  -15.1174   20.3887 C   0  0  0  0  0  0
  -30.4301  -12.7074   19.5101 C   0  0  0  0  0  0
  -29.5240  -12.5449   18.2685 C   0  0  0  0  0  0
  -28.0662  -12.3016   18.6957 C   0  0  0  0  0  0
  -27.6145  -13.2660   19.8224 C   0  0  2  0  0  0
  -28.6533  -13.3969   20.9542 C   0  0  0  0  0  0
  -25.2401  -13.8240   20.5720 C   0  0  0  0  0  0
  -24.1739  -13.0437   20.9234 C   0  0  0  0  0  0
  -24.6387  -11.6939   20.8760 C   0  0  0  0  0  0
  -23.9083  -10.4299   21.0416 C   0  0  0  0  0  0
  -24.3623   -9.4211   21.9191 C   0  0  0  0  0  0
  -23.6296   -8.2245   22.0754 C   0  0  0  0  0  0
  -22.4277   -8.0281   21.3551 C   0  0  0  0  0  0
  -21.9924   -9.0254   20.4658 C   0  0  0  0  0  0
  -22.7254  -10.2133   20.3069 C   0  0  0  0  0  0
  -21.6866   -6.0732   22.5278 C   0  0  0  0  0  0
  -21.4024   -6.5634   23.8209 C   0  0  0  0  0  0
  -21.3659   -5.6786   24.9166 C   0  0  0  0  0  0
  -21.6040   -4.3046   24.7223 C   0  0  0  0  0  0
  -21.8817   -3.8143   23.4343 C   0  0  0  0  0  0
  -21.9191   -4.6959   22.3400 C   0  0  0  0  0  0
  -22.7762  -13.5211   21.1869 C   0  0  0  0  0  0
  -22.1654   -4.2145   21.0978 F   0  0  0  0  0  0
  -21.5630   -3.4531   25.7736 F   0  0  0  0  0  0
  -29.9001  -13.8514   20.3263 N   0  0  0  0  0  0
  -26.2823  -12.9500   20.3213 N   0  0  0  0  0  0
  -25.9323  -11.6622   20.5732 N   0  0  0  0  0  0
  -22.0410  -12.8214   22.0441 N   0  0  0  0  0  0
  -25.4064  -15.1968   20.4141 N   0  0  0  0  0  0
  -31.7424  -15.0863   20.2082 O   0  0  0  0  0  0
  -21.6643   -6.8874   21.4243 O   0  0  0  0  0  0
  -22.3444  -14.5503   20.6695 O   0  0  0  0  0  0
  -24.6552  -31.8332   23.1772 C   0  0  0  0  0  0
  -25.9267  -32.4638   23.8218 C   0  0  1  0  0  0
  -27.2085  -27.0084   20.1706 C   0  0  0  0  0  0
  -25.5958  -33.8446   24.2133 N   0  0  0  0  0  0
  -23.4644  -30.4505   21.5242 C   0  0  2  0  0  0
  -24.9140  -28.8534   20.1130 C   0  0  0  0  0  0
  -22.7610  -29.4511   22.4789 C   0  0  0  0  0  0
  -18.0330  -28.1401   22.8481 C   0  0  0  0  0  0
  -24.1493  -36.7226   23.2643 C   0  0  0  0  0  0
  -26.0292  -30.6660   21.3947 C   0  0  0  0  0  0
  -26.0980  -29.2647   20.7382 C   0  0  0  0  0  0
  -27.2443  -28.3619   20.7439 C   0  0  0  0  0  0
  -25.9971  -26.7330   19.4980 C   0  0  0  0  0  0
  -24.8846  -27.6048   19.4745 C   0  0  0  0  0  0
  -23.6984  -29.7722   20.1475 C   0  0  0  0  0  0
  -25.4129  -36.2996   24.0311 C   0  0  1  0  0  0
  -20.5946  -28.3747   23.1187 C   0  0  2  0  0  0
  -20.6804  -26.9433   22.5393 C   0  0  0  0  0  0
  -19.5772  -26.6380   21.5213 C   0  0  0  0  0  0
  -18.1962  -26.7943   22.1632 C   0  0  0  0  0  0
  -19.1588  -28.8893   23.2834 C   0  0  0  0  0  0
  -18.9498  -30.1485   23.8867 C   0  0  0  0  0  0
  -17.6489  -30.6592   24.0560 C   0  0  0  0  0  0
  -25.9087  -34.9377   23.5038 C   0  0  0  0  0  0
  -16.5382  -29.9077   23.6334 C   0  0  0  0  0  0
  -16.7314  -28.6495   23.0360 C   0  0  0  0  0  0
  -26.4556  -31.6541   25.0704 C   0  0  0  0  0  0
  -25.3697  -31.3749   26.1364 C   0  0  0  0  0  0
  -27.0450  -30.2921   24.6379 C   0  0  0  0  0  0
  -27.6062  -32.4333   25.7499 C   0  0  0  0  0  0
  -27.5578  -37.1774   24.8467 C   0  0  0  0  0  0
  -21.4291  -29.3065   22.3537 N   0  0  0  0  0  0
  -26.4286  -37.3718   23.9410 N   0  0  0  0  0  0
  -24.7373  -31.0079   22.0858 N   0  0  0  0  0  0
  -23.4203  -28.8049   23.2975 O   0  0  0  0  0  0
  -28.2228  -25.9427   20.2331 O   0  0  0  0  0  0
  -26.5681  -34.8899   22.4624 O   0  0  0  0  0  0
  -23.5643  -32.1253   23.6923 O   0  0  0  0  0  0
  -32.8907  -21.1168   23.8191 C   0  0  0  0  0  0
  -31.6602  -20.6109   24.5884 C   0  0  0  0  0  0
  -32.5075  -21.6119   22.4152 C   0  0  0  0  0  0
  -30.9190  -19.5276   23.7873 C   0  0  0  0  0  0
  -31.7680  -20.5186   21.6268 C   0  0  0  0  0  0
  -29.1353  -17.1883   19.4085 C   0  0  0  0  0  0
  -30.3860  -17.5667   21.3667 C   0  0  0  0  0  0
  -29.2525  -18.8339   19.2020 C   0  0  0  0  0  0
  -30.5114  -20.0428   22.3892 C   0  0  0  0  0  0
  -29.6341  -19.0419   21.5875 C   0  0  1  0  0  0
  -29.7740  -22.9595   18.9752 C   0  0  0  0  0  0
  -28.3091  -21.2520   20.3509 C   0  0  0  0  0  0
  -27.9085  -24.3572   20.2066 C   0  0  0  0  0  0
  -28.8946  -22.8964   20.2294 C   0  0  2  0  0  0
  -29.8394  -16.4135   20.5228 N   0  0  0  0  0  0
  -28.9892  -19.7447   20.3935 N   0  3  1  0  0  0
  -31.4570  -12.8758   19.1856 H   0  0  0  0  0  0
  -30.4549  -11.7864   20.0960 H   0  0  0  0  0  0
  -29.8752  -11.7224   17.6436 H   0  0  0  0  0  0
  -29.5810  -13.4446   17.6543 H   0  0  0  0  0  0
  -27.9929  -11.2724   19.0464 H   0  0  0  0  0  0
  -27.4004  -12.3778   17.8356 H   0  0  0  0  0  0
  -27.5453  -14.2442   19.3467 H   0  0  0  0  0  0
  -28.7870  -12.4543   21.4870 H   0  0  0  0  0  0
  -28.3216  -14.1294   21.6904 H   0  0  0  0  0  0
  -25.2757   -9.5681   22.4766 H   0  0  0  0  0  0
  -24.0001   -7.4638   22.7473 H   0  0  0  0  0  0
  -21.0858   -8.8787   19.8964 H   0  0  0  0  0  0
  -22.3722  -10.9669   19.6177 H   0  0  0  0  0  0
  -21.2030   -7.6145   23.9715 H   0  0  0  0  0  0
  -21.1479   -6.0513   25.9069 H   0  0  0  0  0  0
  -22.0600   -2.7610   23.2845 H   0  0  0  0  0  0
  -22.4024  -11.9893   22.4858 H   0  0  0  0  0  0
  -21.1024  -13.1248   22.2619 H   0  0  0  0  0  0
  -24.6358  -15.8481   20.5152 H   0  0  0  0  0  0
  -26.2558  -15.6342   20.0835 H   0  0  0  0  0  0
  -26.7328  -32.5227   23.0937 H   0  0  0  0  0  0
  -25.0072  -33.9543   25.0262 H   0  0  0  0  0  0
  -22.7760  -31.2823   21.3599 H   0  0  0  0  0  0
  -23.3765  -35.9545   23.3277 H   0  0  0  0  0  0
  -24.3564  -36.8889   22.2060 H   0  0  0  0  0  0
  -23.7249  -37.6411   23.6706 H   0  0  0  0  0  0
  -26.2029  -31.4120   20.6177 H   0  0  0  0  0  0
  -26.8920  -30.7192   22.0466 H   0  0  0  0  0  0
  -28.1433  -28.6741   21.2585 H   0  0  0  0  0  0
  -25.8688  -25.7860   18.9978 H   0  0  0  0  0  0
  -23.9850  -27.2828   18.9672 H   0  0  0  0  0  0
  -23.8489  -30.5424   19.3908 H   0  0  0  0  0  0
  -22.8093  -29.2238   19.8316 H   0  0  0  0  0  0
  -25.1327  -36.1801   25.0802 H   0  0  0  0  0  0
  -21.0078  -28.3363   24.1292 H   0  0  0  0  0  0
  -20.5685  -26.2373   23.3635 H   0  0  0  0  0  0
  -21.6665  -26.7413   22.1194 H   0  0  0  0  0  0
  -19.6916  -25.6280   21.1265 H   0  0  0  0  0  0
  -19.6690  -27.3169   20.6722 H   0  0  0  0  0  0
  -17.4223  -26.6702   21.4043 H   0  0  0  0  0  0
  -18.0350  -26.0096   22.9035 H   0  0  0  0  0  0
  -19.7968  -30.7319   24.2218 H   0  0  0  0  0  0
  -17.5030  -31.6267   24.5172 H   0  0  0  0  0  0
  -15.5375  -30.2959   23.7667 H   0  0  0  0  0  0
  -15.8726  -28.0794   22.7081 H   0  0  0  0  0  0
  -24.5897  -30.7092   25.7657 H   0  0  0  0  0  0
  -24.8858  -32.2927   26.4709 H   0  0  0  0  0  0
  -25.7931  -30.8962   27.0201 H   0  0  0  0  0  0
  -26.3095  -29.6611   24.1376 H   0  0  0  0  0  0
  -27.4002  -29.7279   25.5016 H   0  0  0  0  0  0
  -27.9033  -30.4135   23.9765 H   0  0  0  0  0  0
  -27.2648  -33.3670   26.1983 H   0  0  0  0  0  0
  -28.3917  -32.6835   25.0352 H   0  0  0  0  0  0
  -28.0681  -31.8520   26.5489 H   0  0  0  0  0  0
  -28.2580  -38.0085   24.7511 H   0  0  0  0  0  0
  -28.1095  -36.2614   24.6302 H   0  0  0  0  0  0
  -27.2290  -37.1422   25.8867 H   0  0  0  0  0  0
  -20.9510  -29.8774   21.6705 H   0  0  0  0  0  0
  -26.0145  -38.2782   24.1403 H   0  0  0  0  0  0
  -33.6240  -20.3126   23.7330 H   0  0  0  0  0  0
  -33.3766  -21.9167   24.3785 H   0  0  0  0  0  0
  -30.9843  -21.4418   24.8009 H   0  0  0  0  0  0
  -31.9651  -20.2130   25.5574 H   0  0  0  0  0  0
  -33.4016  -21.9210   21.8724 H   0  0  0  0  0  0
  -31.8759  -22.4985   22.4943 H   0  0  0  0  0  0
  -30.0392  -19.2007   24.3430 H   0  0  0  0  0  0
  -31.5694  -18.6566   23.7016 H   0  0  0  0  0  0
  -32.4474  -19.6850   21.4522 H   0  0  0  0  0  0
  -31.5020  -20.9023   20.6428 H   0  0  0  0  0  0
  -28.0768  -16.9480   19.5063 H   0  0  0  0  0  0
  -29.4310  -16.7275   18.4645 H   0  0  0  0  0  0
  -30.5592  -17.1348   22.3524 H   0  0  0  0  0  0
  -31.3838  -17.7569   20.9715 H   0  0  0  0  0  0
  -28.5785  -19.1286   18.3975 H   0  0  0  0  0  0
  -30.2521  -19.0705   18.8367 H   0  0  0  0  0  0
  -29.8933  -20.9233   22.5699 H   0  0  0  0  0  0
  -28.7742  -18.8243   22.2227 H   0  0  0  0  0  0
  -29.1775  -22.8187   18.0729 H   0  0  0  0  0  0
  -30.5466  -22.1918   18.9828 H   0  0  0  0  0  0
  -30.2708  -23.9268   18.8976 H   0  0  0  0  0  0
  -27.5732  -21.1690   19.5508 H   0  0  0  0  0  0
  -27.7001  -21.2622   21.2557 H   0  0  0  0  0  0
  -27.2153  -24.2283   21.0386 H   0  0  0  0  0  0
  -27.2895  -24.2211   19.3221 H   0  0  0  0  0  0
  -29.5577  -23.0214   21.0857 H   0  0  0  0  0  0
  -28.0814  -19.3392   20.5675 H   0  0  0  0  0  0
  1 25  1  0  0  0
  1 30  2  0  0  0
  1 85  1  0  0  0
  2  3  1  0  0  0
  2 25  1  0  0  0
  2 87  1  0  0  0
  2 88  1  0  0  0
  3  4  1  0  0  0
  3 89  1  0  0  0
  3 90  1  0  0  0
  4  5  1  0  0  0
  4 91  1  0  0  0
  4 92  1  0  0  0
  5  6  1  0  0  0
  5 26  1  0  0  0
  5 93  1  0  0  0
  6 25  1  0  0  0
  6 94  1  0  0  0
  6 95  1  0  0  0
  7  8  2  0  0  0
  7 26  1  0  0  0
  7 29  1  0  0  0
  8  9  1  0  0  0
  8 22  1  0  0  0
  9 10  1  0  0  0
  9 27  2  0  0  0
 10 11  2  0  0  0
 10 15  1  0  0  0
 11 12  1  0  0  0
 11 96  1  0  0  0
 12 13  2  0  0  0
 12 97  1  0  0  0
 13 14  1  0  0  0
 13 31  1  0  0  0
 14 15  2  0  0  0
 14 98  1  0  0  0
 15 99  1  0  0  0
 16 17  2  0  0  0
 16 21  1  0  0  0
 16 31  1  0  0  0
 17 18  1  0  0  0
 17100  1  0  0  0
 18 19  2  0  0  0
 18101  1  0  0  0
 19 20  1  0  0  0
 19 24  1  0  0  0
 20 21  2  0  0  0
 20102  1  0  0  0
 21 23  1  0  0  0
 22 28  1  0  0  0
 22 32  2  0  0  0
 26 27  1  0  0  0
 28103  1  0  0  0
 28104  1  0  0  0
 29105  1  0  0  0
 29106  1  0  0  0
 33 34  1  0  0  0
 33 66  1  0  0  0
 33 70  2  0  0  0
 34 36  1  0  0  0
 34 59  1  0  0  0
 34107  1  0  0  0
 35 44  2  0  0  0
 35 45  1  0  0  0
 35 68  1  0  0  0
 36 56  1  0  0  0
 36108  1  0  0  0
 37 39  1  0  0  0
 37 47  1  0  0  0
 37 66  1  0  0  0
 37109  1  0  0  0
 38 43  2  0  0  0
 38 46  1  0  0  0
 38 47  1  0  0  0
 39 64  1  0  0  0
 39 67  2  0  0  0
 40 52  1  0  0  0
 40 53  2  0  0  0
 40 58  1  0  0  0
 41110  1  0  0  0
 41111  1  0  0  0
 41112  1  0  0  0
 41 48  1  0  0  0
 42 43  1  0  0  0
 42 66  1  0  0  0
 42113  1  0  0  0
 42114  1  0  0  0
 43 44  1  0  0  0
 44115  1  0  0  0
 45 46  2  0  0  0
 45116  1  0  0  0
 46117  1  0  0  0
 47118  1  0  0  0
 47119  1  0  0  0
 48 56  1  0  0  0
 48 65  1  0  0  0
 48120  1  0  0  0
 49 50  1  0  0  0
 49 53  1  0  0  0
 49 64  1  0  0  0
 49121  1  0  0  0
 50 51  1  0  0  0
 50122  1  0  0  0
 50123  1  0  0  0
 51 52  1  0  0  0
 51124  1  0  0  0
 51125  1  0  0  0
 52126  1  0  0  0
 52127  1  0  0  0
 53 54  1  0  0  0
 54 55  2  0  0  0
 54128  1  0  0  0
 55 57  1  0  0  0
 55129  1  0  0  0
 56 69  2  0  0  0
 57 58  2  0  0  0
 57130  1  0  0  0
 58131  1  0  0  0
 59 60  1  0  0  0
 59 61  1  0  0  0
 59 62  1  0  0  0
 60132  1  0  0  0
 60133  1  0  0  0
 60134  1  0  0  0
 61135  1  0  0  0
 61136  1  0  0  0
 61137  1  0  0  0
 62138  1  0  0  0
 62139  1  0  0  0
 62140  1  0  0  0
 63 65  1  0  0  0
 63141  1  0  0  0
 63142  1  0  0  0
 63143  1  0  0  0
 64144  1  0  0  0
 65145  1  0  0  0
 68 83  1  0  0  0
 71 72  1  0  0  0
 71 73  1  0  0  0
 71146  1  0  0  0
 71147  1  0  0  0
 72 74  1  0  0  0
 72148  1  0  0  0
 72149  1  0  0  0
 73 75  1  0  0  0
 73150  1  0  0  0
 73151  1  0  0  0
 74152  1  0  0  0
 74153  1  0  0  0
 74 79  1  0  0  0
 75 79  1  0  0  0
 75154  1  0  0  0
 75155  1  0  0  0
 76 78  1  0  0  0
 76 85  1  0  0  0
 76156  1  0  0  0
 76157  1  0  0  0
 77 85  1  0  0  0
 77158  1  0  0  0
 77159  1  0  0  0
 77 80  1  0  0  0
 78 86  1  0  0  0
 78160  1  0  0  0
 78161  1  0  0  0
 79 80  1  0  0  0
 79162  1  0  0  0
 80 86  1  0  0  0
 80163  1  0  0  0
 81164  1  0  0  0
 81165  1  0  0  0
 81166  1  0  0  0
 81 84  1  0  0  0
 82 84  1  0  0  0
 82167  1  0  0  0
 82168  1  0  0  0
 82 86  1  0  0  0
 83 84  1  0  0  0
 83169  1  0  0  0
 83170  1  0  0  0
 84171  1  0  0  0
 86172  1  0  0  0
M  CHG  1  86   1
M  ISO  4   1 100  68 101  83 101  85 100
M  END
> <chiral flag>
0

> <version>
0

> <s_m_source_file>
/data/baiqing/PycharmProjects/Reinvent-master-3.2/result/LINK_invent/BTK/process_docking_weight1_custom_sum_contain_oxygen_bond_distance_aromatic_linkinvent_7_9_3/rearranged_h_0122.sdf

> <i_m_source_file_index>
78

> <r_mmod_Potential_Energy-OPLS-2005>
1152.04504394531

> <r_mmod_Stretch_Energy-OPLS-2005>
419.960144042969

> <r_mmod_Bend_Energy-OPLS-2005>
472.833709716797

> <r_mmod_Torsional_Energy-OPLS-2005>
442.957672119141

> <r_mmod_Improper_Torsional_Energy-OPLS-2005>
5.87124872207642

> <r_mmod_Van_der_Waal_Energy-OPLS-2005>
109.287651062012

> <r_mmod_Electrostatic_Energy-OPLS-2005>
-185.376617431641

> <r_mmod_Solvation_Energy-OPLS-2005>
-442.278991699219

> <b_mmod_Minimization_Converged-OPLS-2005>
0

> <r_mmod_RMS_Derivative-OPLS-2005>
1.73859202861786

$$$$
78
                    3D
 Structure written by MMmdl.
156164  0  0  1  0            999 V2000
  -30.5592  -14.9782   20.4945 C   0  0  0  0  0  0
  -30.4455  -12.6306   19.5136 C   0  0  0  0  0  0
  -29.5275  -12.5500   18.2742 C   0  0  0  0  0  0
  -28.0610  -12.3282   18.6877 C   0  0  0  0  0  0
  -27.6339  -13.2565   19.8517 C   0  0  2  0  0  0
  -28.6725  -13.2938   20.9899 C   0  0  0  0  0  0
  -25.2488  -13.8263   20.5731 C   0  0  0  0  0  0
  -24.1786  -13.0455   20.9230 C   0  0  0  0  0  0
  -24.6413  -11.6936   20.8758 C   0  0  0  0  0  0
  -23.9122  -10.4281   21.0405 C   0  0  0  0  0  0
  -24.3664   -9.4187   21.9196 C   0  0  0  0  0  0
  -23.6307   -8.2240   22.0764 C   0  0  0  0  0  0
  -22.4303   -8.0280   21.3530 C   0  0  0  0  0  0
  -21.9941   -9.0278   20.4669 C   0  0  0  0  0  0
  -22.7288  -10.2144   20.3056 C   0  0  0  0  0  0
  -21.6841   -6.0748   22.5281 C   0  0  0  0  0  0
  -21.4019   -6.5661   23.8211 C   0  0  0  0  0  0
  -21.3648   -5.6822   24.9170 C   0  0  0  0  0  0
  -21.6026   -4.3074   24.7229 C   0  0  0  0  0  0
  -21.8829   -3.8164   23.4344 C   0  0  0  0  0  0
  -21.9207   -4.6985   22.3399 C   0  0  0  0  0  0
  -22.7803  -13.5187   21.1869 C   0  0  0  0  0  0
  -22.1664   -4.2167   21.0974 F   0  0  0  0  0  0
  -21.5626   -3.4552   25.7734 F   0  0  0  0  0  0
  -29.9473  -13.7254   20.4008 N   0  0  0  0  0  0
  -26.2913  -12.9492   20.3312 N   0  0  0  0  0  0
  -25.9358  -11.6603   20.5779 N   0  0  0  0  0  0
  -22.0486  -12.8141   22.0442 N   0  0  0  0  0  0
  -25.4171  -15.1995   20.4149 N   0  0  0  0  0  0
  -31.7559  -15.0326   20.1873 O   0  0  0  0  0  0
  -21.6628   -6.8883   21.4226 O   0  0  0  0  0  0
  -22.3473  -14.5477   20.6720 O   0  0  0  0  0  0
  -24.6358  -31.8493   23.1945 C   0  0  0  0  0  0
  -25.9143  -32.4754   23.8303 C   0  0  1  0  0  0
  -27.2260  -27.1492   20.2042 C   0  0  0  0  0  0
  -25.5919  -33.8557   24.2240 N   0  0  0  0  0  0
  -23.4431  -30.4641   21.5331 C   0  0  2  0  0  0
  -24.9007  -28.8942   20.1160 C   0  0  0  0  0  0
  -22.7556  -29.4563   22.4862 C   0  0  0  0  0  0
  -18.0275  -28.1366   22.8473 C   0  0  0  0  0  0
  -24.1485  -36.7292   23.2633 C   0  0  0  0  0  0
  -25.9933  -30.7329   21.3865 C   0  0  0  0  0  0
  -26.0738  -29.3400   20.7412 C   0  0  0  0  0  0
  -27.2388  -28.4864   20.7676 C   0  0  0  0  0  0
  -26.0306  -26.8054   19.5305 C   0  0  0  0  0  0
  -24.8934  -27.6416   19.4869 C   0  0  0  0  0  0
  -23.6739  -29.7896   20.1542 C   0  0  0  0  0  0
  -25.4124  -36.3122   24.0329 C   0  0  1  0  0  0
  -20.5903  -28.3710   23.1241 C   0  0  2  0  0  0
  -20.6833  -26.9435   22.5412 C   0  0  0  0  0  0
  -19.5827  -26.6372   21.5255 C   0  0  0  0  0  0
  -18.1968  -26.7901   22.1610 C   0  0  0  0  0  0
  -19.1499  -28.8861   23.2852 C   0  0  0  0  0  0
  -18.9437  -30.1384   23.8943 C   0  0  0  0  0  0
  -17.6438  -30.6551   24.0612 C   0  0  0  0  0  0
  -25.9053  -34.9465   23.5099 C   0  0  0  0  0  0
  -16.5313  -29.9068   23.6338 C   0  0  0  0  0  0
  -16.7234  -28.6485   23.0345 C   0  0  0  0  0  0
  -26.4510  -31.6596   25.0714 C   0  0  0  0  0  0
  -25.3707  -31.3740   26.1397 C   0  0  0  0  0  0
  -27.0345  -30.3012   24.6227 C   0  0  0  0  0  0
  -27.6082  -32.4322   25.7508 C   0  0  0  0  0  0
  -27.5585  -37.1826   24.8456 C   0  0  0  0  0  0
  -21.4240  -29.3054   22.3590 N   0  0  0  0  0  0
  -26.4310  -37.3825   23.9391 N   0  0  0  0  0  0
  -24.7089  -31.0358   22.0960 N   0  0  0  0  0  0
  -23.4191  -28.8070   23.2970 O   0  0  0  0  0  0
  -28.2832  -26.1725   20.3157 O   0  0  0  0  0  0
  -26.5668  -34.8921   22.4703 O   0  0  0  0  0  0
  -23.5479  -32.1359   23.7210 O   0  0  0  0  0  0
  -28.5224  -21.8138   20.1046 C   0  0  0  0  0  0
  -29.8590  -21.5503   21.9467 C   0  0  0  0  0  0
  -29.5484  -20.6874   20.6719 C   0  0  1  0  0  0
  -29.0440  -23.3299   20.4011 C   0  0  1  0  0  0
  -27.1441  -24.5000   21.7967 C   0  0  0  0  0  0
  -29.1689  -19.0314   20.7803 C   0  0  0  0  0  0
  -30.2294  -17.7096   20.8254 C   0  0  0  0  0  0
  -27.9920  -24.6504   20.5176 C   0  0  1  0  0  0
  -29.8215  -16.1740   20.7492 N   0  0  0  0  0  0
  -29.9223  -23.0188   21.5744 N   0  3  0  0  0  0
  -31.4735  -12.8060   19.1885 H   0  0  0  0  0  0
  -30.4596  -11.6846   20.0585 H   0  0  0  0  0  0
  -29.8550  -11.7458   17.6119 H   0  0  0  0  0  0
  -29.6081  -13.4758   17.7014 H   0  0  0  0  0  0
  -27.9583  -11.2853   18.9910 H   0  0  0  0  0  0
  -27.4011  -12.4637   17.8329 H   0  0  0  0  0  0
  -27.5971  -14.2591   19.4267 H   0  0  0  0  0  0
  -28.7814  -12.3202   21.4700 H   0  0  0  0  0  0
  -28.3592  -13.9909   21.7711 H   0  0  0  0  0  0
  -25.2807   -9.5666   22.4763 H   0  0  0  0  0  0
  -24.0025   -7.4630   22.7475 H   0  0  0  0  0  0
  -21.0876   -8.8813   19.8955 H   0  0  0  0  0  0
  -22.3757  -10.9702   19.6174 H   0  0  0  0  0  0
  -21.1990   -7.6166   23.9718 H   0  0  0  0  0  0
  -21.1459   -6.0536   25.9075 H   0  0  0  0  0  0
  -22.0614   -2.7621   23.2846 H   0  0  0  0  0  0
  -22.4142  -11.9790   22.4766 H   0  0  0  0  0  0
  -21.1130  -13.1151   22.2714 H   0  0  0  0  0  0
  -24.6518  -15.8559   20.5234 H   0  0  0  0  0  0
  -26.2623  -15.6310   20.0611 H   0  0  0  0  0  0
  -26.7191  -32.5393   23.0997 H   0  0  0  0  0  0
  -24.9969  -33.9698   25.0316 H   0  0  0  0  0  0
  -22.7442  -31.2875   21.3788 H   0  0  0  0  0  0
  -23.3785  -35.9594   23.3324 H   0  0  0  0  0  0
  -24.3505  -36.8896   22.2033 H   0  0  0  0  0  0
  -23.7168  -37.6470   23.6632 H   0  0  0  0  0  0
  -26.1200  -31.4764   20.5979 H   0  0  0  0  0  0
  -26.8768  -30.8101   22.0122 H   0  0  0  0  0  0
  -28.1200  -28.8226   21.2956 H   0  0  0  0  0  0
  -25.9311  -25.8448   19.0521 H   0  0  0  0  0  0
  -24.0033  -27.2946   18.9761 H   0  0  0  0  0  0
  -23.7965  -30.5565   19.3865 H   0  0  0  0  0  0
  -22.7939  -29.2169   19.8564 H   0  0  0  0  0  0
  -25.1315  -36.2007   25.0842 H   0  0  0  0  0  0
  -21.0033  -28.3338   24.1401 H   0  0  0  0  0  0
  -20.5763  -26.2294   23.3586 H   0  0  0  0  0  0
  -21.6725  -26.7548   22.1169 H   0  0  0  0  0  0
  -19.7082  -25.6301   21.1288 H   0  0  0  0  0  0
  -19.6755  -27.3182   20.6823 H   0  0  0  0  0  0
  -17.4251  -26.6613   21.4020 H   0  0  0  0  0  0
  -18.0317  -26.0102   22.9050 H   0  0  0  0  0  0
  -19.7886  -30.7215   24.2362 H   0  0  0  0  0  0
  -17.4961  -31.6211   24.5246 H   0  0  0  0  0  0
  -15.5328  -30.3000   23.7675 H   0  0  0  0  0  0
  -15.8677  -28.0762   22.7154 H   0  0  0  0  0  0
  -24.5938  -30.7044   25.7674 H   0  0  0  0  0  0
  -24.8799  -32.2896   26.4738 H   0  0  0  0  0  0
  -25.7961  -30.8951   27.0226 H   0  0  0  0  0  0
  -26.2935  -29.6776   24.1206 H   0  0  0  0  0  0
  -27.3951  -29.7266   25.4761 H   0  0  0  0  0  0
  -27.8864  -30.4251   23.9537 H   0  0  0  0  0  0
  -27.2736  -33.3659   26.2053 H   0  0  0  0  0  0
  -28.3950  -32.6807   25.0371 H   0  0  0  0  0  0
  -28.0714  -31.8442   26.5448 H   0  0  0  0  0  0
  -28.2667  -38.0083   24.7538 H   0  0  0  0  0  0
  -28.1046  -36.2613   24.6317 H   0  0  0  0  0  0
  -27.2263  -37.1524   25.8855 H   0  0  0  0  0  0
  -20.9492  -29.8837   21.6788 H   0  0  0  0  0  0
  -26.0212  -38.2907   24.1418 H   0  0  0  0  0  0
  -27.5723  -21.6759   20.6205 H   0  0  0  0  0  0
  -28.3169  -21.6689   19.0450 H   0  0  0  0  0  0
  -30.7560  -21.2326   22.4764 H   0  0  0  0  0  0
  -29.0368  -21.4488   22.6576 H   0  0  0  0  0  0
  -30.4355  -20.7343   20.0398 H   0  0  0  0  0  0
  -29.7192  -23.5726   19.5768 H   0  0  0  0  0  0
  -27.5252  -25.1060   22.6210 H   0  0  0  0  0  0
  -27.1092  -23.4671   22.1453 H   0  0  0  0  0  0
  -26.1142  -24.8093   21.6197 H   0  0  0  0  0  0
  -28.5394  -18.8391   19.9107 H   0  0  0  0  0  0
  -28.4892  -18.9211   21.6298 H   0  0  0  0  0  0
  -30.7803  -17.8011   21.7658 H   0  0  0  0  0  0
  -30.9874  -17.8694   20.0553 H   0  0  0  0  0  0
  -27.3180  -24.4154   19.6973 H   0  0  0  0  0  0
  -28.8485  -15.9941   20.9484 H   0  0  0  0  0  0
  -29.7264  -23.6070   22.3708 H   0  0  0  0  0  0
  -30.8767  -23.2196   21.3128 H   0  0  0  0  0  0
  1 25  1  0  0  0
  1 30  2  0  0  0
  1 79  1  0  0  0
  2  3  1  0  0  0
  2 25  1  0  0  0
  2 81  1  0  0  0
  2 82  1  0  0  0
  3  4  1  0  0  0
  3 83  1  0  0  0
  3 84  1  0  0  0
  4  5  1  0  0  0
  4 85  1  0  0  0
  4 86  1  0  0  0
  5  6  1  0  0  0
  5 26  1  0  0  0
  5 87  1  0  0  0
  6 25  1  0  0  0
  6 88  1  0  0  0
  6 89  1  0  0  0
  7  8  2  0  0  0
  7 26  1  0  0  0
  7 29  1  0  0  0
  8  9  1  0  0  0
  8 22  1  0  0  0
  9 10  1  0  0  0
  9 27  2  0  0  0
 10 11  2  0  0  0
 10 15  1  0  0  0
 11 12  1  0  0  0
 11 90  1  0  0  0
 12 13  2  0  0  0
 12 91  1  0  0  0
 13 14  1  0  0  0
 13 31  1  0  0  0
 14 15  2  0  0  0
 14 92  1  0  0  0
 15 93  1  0  0  0
 16 17  2  0  0  0
 16 21  1  0  0  0
 16 31  1  0  0  0
 17 18  1  0  0  0
 17 94  1  0  0  0
 18 19  2  0  0  0
 18 95  1  0  0  0
 19 20  1  0  0  0
 19 24  1  0  0  0
 20 21  2  0  0  0
 20 96  1  0  0  0
 21 23  1  0  0  0
 22 28  1  0  0  0
 22 32  2  0  0  0
 26 27  1  0  0  0
 28 97  1  0  0  0
 28 98  1  0  0  0
 29 99  1  0  0  0
 29100  1  0  0  0
 33 34  1  0  0  0
 33 66  1  0  0  0
 33 70  2  0  0  0
 34 36  1  0  0  0
 34 59  1  0  0  0
 34101  1  0  0  0
 35 44  2  0  0  0
 35 45  1  0  0  0
 35 68  1  0  0  0
 36 56  1  0  0  0
 36102  1  0  0  0
 37 39  1  0  0  0
 37 47  1  0  0  0
 37 66  1  0  0  0
 37103  1  0  0  0
 38 43  2  0  0  0
 38 46  1  0  0  0
 38 47  1  0  0  0
 39 64  1  0  0  0
 39 67  2  0  0  0
 40 52  1  0  0  0
 40 53  2  0  0  0
 40 58  1  0  0  0
 41104  1  0  0  0
 41105  1  0  0  0
 41106  1  0  0  0
 41 48  1  0  0  0
 42 43  1  0  0  0
 42 66  1  0  0  0
 42107  1  0  0  0
 42108  1  0  0  0
 43 44  1  0  0  0
 44109  1  0  0  0
 45 46  2  0  0  0
 45110  1  0  0  0
 46111  1  0  0  0
 47112  1  0  0  0
 47113  1  0  0  0
 48 56  1  0  0  0
 48 65  1  0  0  0
 48114  1  0  0  0
 49 50  1  0  0  0
 49 53  1  0  0  0
 49 64  1  0  0  0
 49115  1  0  0  0
 50 51  1  0  0  0
 50116  1  0  0  0
 50117  1  0  0  0
 51 52  1  0  0  0
 51118  1  0  0  0
 51119  1  0  0  0
 52120  1  0  0  0
 52121  1  0  0  0
 53 54  1  0  0  0
 54 55  2  0  0  0
 54122  1  0  0  0
 55 57  1  0  0  0
 55123  1  0  0  0
 56 69  2  0  0  0
 57 58  2  0  0  0
 57124  1  0  0  0
 58125  1  0  0  0
 59 60  1  0  0  0
 59 61  1  0  0  0
 59 62  1  0  0  0
 60126  1  0  0  0
 60127  1  0  0  0
 60128  1  0  0  0
 61129  1  0  0  0
 61130  1  0  0  0
 61131  1  0  0  0
 62132  1  0  0  0
 62133  1  0  0  0
 62134  1  0  0  0
 63 65  1  0  0  0
 63135  1  0  0  0
 63136  1  0  0  0
 63137  1  0  0  0
 64138  1  0  0  0
 65139  1  0  0  0
 68 78  1  0  0  0
 71 73  1  0  0  0
 71140  1  0  0  0
 71141  1  0  0  0
 71 74  1  0  0  0
 72 73  1  0  0  0
 72 80  1  0  0  0
 72142  1  0  0  0
 72143  1  0  0  0
 73 76  1  0  0  0
 73144  1  0  0  0
 74 78  1  0  0  0
 74 80  1  0  0  0
 74145  1  0  0  0
 75146  1  0  0  0
 75147  1  0  0  0
 75148  1  0  0  0
 75 78  1  0  0  0
 76 77  1  0  0  0
 76149  1  0  0  0
 76150  1  0  0  0
 77 79  1  0  0  0
 77151  1  0  0  0
 77152  1  0  0  0
 78153  1  0  0  0
 79154  1  0  0  0
 80155  1  0  0  0
 80156  1  0  0  0
M  CHG  1  80   1
M  ISO  4   1 100  68 101  78 101  79 100
M  END
> <chiral flag>
0

> <version>
0

> <s_m_source_file>
/data/baiqing/PycharmProjects/Reinvent-master-3.2/result/LINK_invent/BTK/process_docking_weight1_custom_sum_contain_oxygen_bond_distance_aromatic_linkinvent_7_9_3/rearranged_h_0122.sdf

> <i_m_source_file_index>
79

> <r_mmod_Potential_Energy-OPLS-2005>
450.937683105469

> <r_mmod_Stretch_Energy-OPLS-2005>
263.502593994141

> <r_mmod_Bend_Energy-OPLS-2005>
303.532623291016

> <r_mmod_Torsional_Energy-OPLS-2005>
283.649993896484

> <r_mmod_Improper_Torsional_Energy-OPLS-2005>
3.68410110473633

> <r_mmod_Van_der_Waal_Energy-OPLS-2005>
111.475257873535

> <r_mmod_Electrostatic_Energy-OPLS-2005>
-264.393310546875

> <r_mmod_Solvation_Energy-OPLS-2005>
-451.906372070312

> <b_mmod_Minimization_Converged-OPLS-2005>
0

> <r_mmod_RMS_Derivative-OPLS-2005>
7.42095899581909

$$$$
79
                    3D
 Structure written by MMmdl.
166175  0  0  1  0            999 V2000
  -30.7644  -14.3746   20.6722 C   0  0  0  0  0  0
  -30.4182  -12.2834   19.3996 C   0  0  0  0  0  0
  -29.4875  -12.5121   18.1936 C   0  0  0  0  0  0
  -28.0122  -12.3677   18.6109 C   0  0  0  0  0  0
  -27.6687  -13.1982   19.8749 C   0  0  2  0  0  0
  -28.7053  -12.9487   20.9937 C   0  0  0  0  0  0
  -25.2636  -13.8149   20.5653 C   0  0  0  0  0  0
  -24.1873  -13.0446   20.9152 C   0  0  0  0  0  0
  -24.6397  -11.6896   20.8709 C   0  0  0  0  0  0
  -23.9044  -10.4292   21.0385 C   0  0  0  0  0  0
  -24.3597   -9.4219   21.9169 C   0  0  0  0  0  0
  -23.6285   -8.2251   22.0747 C   0  0  0  0  0  0
  -22.4269   -8.0279   21.3534 C   0  0  0  0  0  0
  -21.9899   -9.0247   20.4630 C   0  0  0  0  0  0
  -22.7221  -10.2131   20.3031 C   0  0  0  0  0  0
  -21.6852   -6.0731   22.5275 C   0  0  0  0  0  0
  -21.4013   -6.5633   23.8208 C   0  0  0  0  0  0
  -21.3657   -5.6785   24.9172 C   0  0  0  0  0  0
  -21.6042   -4.3047   24.7224 C   0  0  0  0  0  0
  -21.8821   -3.8140   23.4346 C   0  0  0  0  0  0
  -21.9194   -4.6959   22.3402 C   0  0  0  0  0  0
  -22.7897  -13.5254   21.1830 C   0  0  0  0  0  0
  -22.1669   -4.2142   21.0979 F   0  0  0  0  0  0
  -21.5626   -3.4534   25.7739 F   0  0  0  0  0  0
  -30.0506  -13.2359   20.4595 N   0  0  0  0  0  0
  -26.3058  -12.9298   20.3343 N   0  0  0  0  0  0
  -25.9322  -11.6461   20.5738 N   0  0  0  0  0  0
  -22.0530  -12.8234   22.0370 N   0  0  0  0  0  0
  -25.4389  -15.1869   20.4081 N   0  0  0  0  0  0
  -31.7711  -14.6729   20.0180 O   0  0  0  0  0  0
  -21.6636   -6.8876   21.4239 O   0  0  0  0  0  0
  -22.3590  -14.5574   20.6699 O   0  0  0  0  0  0
  -24.6145  -31.8684   23.2097 C   0  0  0  0  0  0
  -25.9040  -32.4827   23.8399 C   0  0  1  0  0  0
  -27.2361  -27.4462   20.0657 C   0  0  0  0  0  0
  -25.5892  -33.8627   24.2334 N   0  0  0  0  0  0
  -23.4000  -30.4909   21.5548 C   0  0  2  0  0  0
  -24.8419  -28.9607   20.1167 C   0  0  0  0  0  0
  -22.7420  -29.4638   22.5033 C   0  0  0  0  0  0
  -18.0261  -28.1360   22.8491 C   0  0  0  0  0  0
  -24.1476  -36.7310   23.2635 C   0  0  0  0  0  0
  -25.9269  -30.8382   21.3550 C   0  0  0  0  0  0
  -26.0026  -29.4706   20.7084 C   0  0  0  0  0  0
  -27.1983  -28.7176   20.6845 C   0  0  0  0  0  0
  -26.0403  -26.9350   19.5056 C   0  0  0  0  0  0
  -24.8545  -27.6908   19.5193 C   0  0  0  0  0  0
  -23.6032  -29.8251   20.1688 C   0  0  0  0  0  0
  -25.4096  -36.3108   24.0334 C   0  0  1  0  0  0
  -20.5859  -28.3634   23.1342 C   0  0  2  0  0  0
  -20.6751  -26.9376   22.5420 C   0  0  0  0  0  0
  -19.5722  -26.6370   21.5214 C   0  0  0  0  0  0
  -18.1899  -26.7900   22.1625 C   0  0  0  0  0  0
  -19.1517  -28.8814   23.2902 C   0  0  0  0  0  0
  -18.9449  -30.1426   23.8900 C   0  0  0  0  0  0
  -17.6455  -30.6567   24.0559 C   0  0  0  0  0  0
  -25.9028  -34.9473   23.5131 C   0  0  0  0  0  0
  -16.5345  -29.9073   23.6322 C   0  0  0  0  0  0
  -16.7259  -28.6495   23.0338 C   0  0  0  0  0  0
  -26.4467  -31.6594   25.0714 C   0  0  0  0  0  0
  -25.3715  -31.3688   26.1448 C   0  0  0  0  0  0
  -27.0295  -30.3054   24.6026 C   0  0  0  0  0  0
  -27.6041  -32.4306   25.7490 C   0  0  0  0  0  0
  -27.5573  -37.1811   24.8471 C   0  0  0  0  0  0
  -21.4148  -29.3008   22.3779 N   0  0  0  0  0  0
  -26.4285  -37.3796   23.9413 N   0  0  0  0  0  0
  -24.6666  -31.0786   22.0998 N   0  0  0  0  0  0
  -23.4203  -28.8164   23.3050 O   0  0  0  0  0  0
  -28.4446  -26.7760   20.0494 O   0  0  0  0  0  0
  -26.5600  -34.8924   22.4697 O   0  0  0  0  0  0
  -23.5340  -32.1457   23.7486 O   0  0  0  0  0  0
  -28.3091  -23.2203   19.9428 C   0  0  0  0  0  0
  -30.2047  -24.4405   20.8108 C   0  0  0  0  0  0
  -29.0563  -24.4116   20.0038 C   0  0  0  0  0  0
  -28.7010  -22.1137   20.7388 C   0  0  0  0  0  0
  -29.8466  -22.2711   21.5548 C   0  0  0  0  0  0
  -30.6407  -16.3794   23.6869 C   0  0  0  0  0  0
  -30.7569  -15.0162   23.0049 C   0  0  0  0  0  0
  -30.0651  -16.6347   21.3873 C   0  0  0  0  0  0
  -30.7341  -17.3908   22.5467 C   0  0  1  0  0  0
  -26.8496  -20.7728   19.9886 C   0  0  0  0  0  0
  -28.6575  -25.6388   19.2023 C   0  0  0  0  0  0
  -30.2452  -21.1967   22.5601 C   0  0  0  0  0  0
  -30.1275  -18.7623   22.9331 C   0  0  0  0  0  0
  -30.5944  -23.3969   21.5721 N   0  0  0  0  0  0
  -30.2869  -15.1987   21.6290 N   0  0  0  0  0  0
  -30.3596  -19.8528   21.9563 N   0  3  0  0  0  0
  -28.0258  -20.9103   20.7799 O   0  0  0  0  0  0
  -31.4630  -12.3754   19.0965 H   0  0  0  0  0  0
  -30.3095  -11.2627   19.7705 H   0  0  0  0  0  0
  -29.7204  -11.8010   17.3995 H   0  0  0  0  0  0
  -29.6584  -13.5050   17.7756 H   0  0  0  0  0  0
  -27.8241  -11.3100   18.8026 H   0  0  0  0  0  0
  -27.3562  -12.6432   17.7839 H   0  0  0  0  0  0
  -27.7269  -14.2496   19.5940 H   0  0  0  0  0  0
  -28.6663  -11.9082   21.3219 H   0  0  0  0  0  0
  -28.4510  -13.5380   21.8742 H   0  0  0  0  0  0
  -25.2745   -9.5706   22.4742 H   0  0  0  0  0  0
  -23.9994   -7.4650   22.7471 H   0  0  0  0  0  0
  -21.0827   -8.8754   19.8941 H   0  0  0  0  0  0
  -22.3675  -10.9656   19.6129 H   0  0  0  0  0  0
  -21.2004   -7.6141   23.9713 H   0  0  0  0  0  0
  -21.1476   -6.0512   25.9072 H   0  0  0  0  0  0
  -22.0602   -2.7604   23.2847 H   0  0  0  0  0  0
  -22.4142  -11.9887   22.4744 H   0  0  0  0  0  0
  -21.1145  -13.1248   22.2564 H   0  0  0  0  0  0
  -24.6779  -15.8473   20.5185 H   0  0  0  0  0  0
  -26.3008  -15.6220   20.1027 H   0  0  0  0  0  0
  -26.7112  -32.5562   23.1172 H   0  0  0  0  0  0
  -25.0018  -33.9784   25.0466 H   0  0  0  0  0  0
  -22.6866  -31.3056   21.4188 H   0  0  0  0  0  0
  -23.3729  -35.9655   23.3321 H   0  0  0  0  0  0
  -24.3557  -36.8917   22.2048 H   0  0  0  0  0  0
  -23.7255  -37.6525   23.6652 H   0  0  0  0  0  0
  -26.0189  -31.5987   20.5780 H   0  0  0  0  0  0
  -26.8229  -30.9067   21.9611 H   0  0  0  0  0  0
  -28.0991  -29.1138   21.1327 H   0  0  0  0  0  0
  -25.9754  -25.9545   19.0629 H   0  0  0  0  0  0
  -23.9579  -27.2852   19.0717 H   0  0  0  0  0  0
  -23.7047  -30.5991   19.4072 H   0  0  0  0  0  0
  -22.7284  -29.2406   19.8775 H   0  0  0  0  0  0
  -25.1272  -36.1967   25.0829 H   0  0  0  0  0  0
  -20.9937  -28.3179   24.1471 H   0  0  0  0  0  0
  -20.5652  -26.2234   23.3594 H   0  0  0  0  0  0
  -21.6619  -26.7403   22.1220 H   0  0  0  0  0  0
  -19.6869  -25.6289   21.1218 H   0  0  0  0  0  0
  -19.6655  -27.3198   20.6759 H   0  0  0  0  0  0
  -17.4175  -26.6660   21.4024 H   0  0  0  0  0  0
  -18.0276  -26.0031   22.9013 H   0  0  0  0  0  0
  -19.7935  -30.7228   24.2279 H   0  0  0  0  0  0
  -17.5012  -31.6253   24.5152 H   0  0  0  0  0  0
  -15.5343  -30.2973   23.7629 H   0  0  0  0  0  0
  -15.8665  -28.0819   22.7039 H   0  0  0  0  0  0
  -24.5912  -30.7003   25.7789 H   0  0  0  0  0  0
  -24.8851  -32.2830   26.4863 H   0  0  0  0  0  0
  -25.8033  -30.8897   27.0242 H   0  0  0  0  0  0
  -26.2838  -29.6828   24.1063 H   0  0  0  0  0  0
  -27.4117  -29.7255   25.4439 H   0  0  0  0  0  0
  -27.8632  -30.4431   23.9130 H   0  0  0  0  0  0
  -27.2681  -33.3626   26.2047 H   0  0  0  0  0  0
  -28.3854  -32.6832   25.0312 H   0  0  0  0  0  0
  -28.0682  -31.8430   26.5421 H   0  0  0  0  0  0
  -28.2594  -38.0106   24.7512 H   0  0  0  0  0  0
  -28.1066  -36.2635   24.6304 H   0  0  0  0  0  0
  -27.2281  -37.1480   25.8872 H   0  0  0  0  0  0
  -20.9305  -29.8804   21.7075 H   0  0  0  0  0  0
  -26.0164  -38.2872   24.1417 H   0  0  0  0  0  0
  -27.4366  -23.1794   19.3080 H   0  0  0  0  0  0
  -30.8197  -25.3277   20.8638 H   0  0  0  0  0  0
  -31.4028  -16.5329   24.4529 H   0  0  0  0  0  0
  -29.6687  -16.4532   24.1784 H   0  0  0  0  0  0
  -30.1749  -14.2541   23.5267 H   0  0  0  0  0  0
  -31.7984  -14.6858   23.0090 H   0  0  0  0  0  0
  -30.4489  -16.9680   20.4212 H   0  0  0  0  0  0
  -28.9867  -16.8026   21.3814 H   0  0  0  0  0  0
  -31.7913  -17.5227   22.3072 H   0  0  0  0  0  0
  -26.4338  -19.7749   20.1294 H   0  0  0  0  0  0
  -27.0644  -20.8893   18.9254 H   0  0  0  0  0  0
  -26.0843  -21.4940   20.2804 H   0  0  0  0  0  0
  -27.8473  -25.3972   18.5193 H   0  0  0  0  0  0
  -29.4905  -25.8811   18.5416 H   0  0  0  0  0  0
  -29.4781  -21.1953   23.3351 H   0  0  0  0  0  0
  -31.1849  -21.4541   23.0519 H   0  0  0  0  0  0
  -30.5743  -19.0589   23.8832 H   0  0  0  0  0  0
  -29.0553  -18.6732   23.1158 H   0  0  0  0  0  0
  -31.2681  -19.7815   21.5311 H   0  0  0  0  0  0
  -29.6575  -19.8208   21.2315 H   0  0  0  0  0  0
  1 25  1  0  0  0
  1 30  2  0  0  0
  1 85  1  0  0  0
  2  3  1  0  0  0
  2 25  1  0  0  0
  2 88  1  0  0  0
  2 89  1  0  0  0
  3  4  1  0  0  0
  3 90  1  0  0  0
  3 91  1  0  0  0
  4  5  1  0  0  0
  4 92  1  0  0  0
  4 93  1  0  0  0
  5  6  1  0  0  0
  5 26  1  0  0  0
  5 94  1  0  0  0
  6 25  1  0  0  0
  6 95  1  0  0  0
  6 96  1  0  0  0
  7  8  2  0  0  0
  7 26  1  0  0  0
  7 29  1  0  0  0
  8  9  1  0  0  0
  8 22  1  0  0  0
  9 10  1  0  0  0
  9 27  2  0  0  0
 10 11  2  0  0  0
 10 15  1  0  0  0
 11 12  1  0  0  0
 11 97  1  0  0  0
 12 13  2  0  0  0
 12 98  1  0  0  0
 13 14  1  0  0  0
 13 31  1  0  0  0
 14 15  2  0  0  0
 14 99  1  0  0  0
 15100  1  0  0  0
 16 17  2  0  0  0
 16 21  1  0  0  0
 16 31  1  0  0  0
 17 18  1  0  0  0
 17101  1  0  0  0
 18 19  2  0  0  0
 18102  1  0  0  0
 19 20  1  0  0  0
 19 24  1  0  0  0
 20 21  2  0  0  0
 20103  1  0  0  0
 21 23  1  0  0  0
 22 28  1  0  0  0
 22 32  2  0  0  0
 26 27  1  0  0  0
 28104  1  0  0  0
 28105  1  0  0  0
 29106  1  0  0  0
 29107  1  0  0  0
 33 34  1  0  0  0
 33 66  1  0  0  0
 33 70  2  0  0  0
 34 36  1  0  0  0
 34 59  1  0  0  0
 34108  1  0  0  0
 35 44  2  0  0  0
 35 45  1  0  0  0
 35 68  1  0  0  0
 36 56  1  0  0  0
 36109  1  0  0  0
 37 39  1  0  0  0
 37 47  1  0  0  0
 37 66  1  0  0  0
 37110  1  0  0  0
 38 43  2  0  0  0
 38 46  1  0  0  0
 38 47  1  0  0  0
 39 64  1  0  0  0
 39 67  2  0  0  0
 40 52  1  0  0  0
 40 53  2  0  0  0
 40 58  1  0  0  0
 41111  1  0  0  0
 41112  1  0  0  0
 41113  1  0  0  0
 41 48  1  0  0  0
 42 43  1  0  0  0
 42 66  1  0  0  0
 42114  1  0  0  0
 42115  1  0  0  0
 43 44  1  0  0  0
 44116  1  0  0  0
 45 46  2  0  0  0
 45117  1  0  0  0
 46118  1  0  0  0
 47119  1  0  0  0
 47120  1  0  0  0
 48 56  1  0  0  0
 48 65  1  0  0  0
 48121  1  0  0  0
 49 50  1  0  0  0
 49 53  1  0  0  0
 49 64  1  0  0  0
 49122  1  0  0  0
 50 51  1  0  0  0
 50123  1  0  0  0
 50124  1  0  0  0
 51 52  1  0  0  0
 51125  1  0  0  0
 51126  1  0  0  0
 52127  1  0  0  0
 52128  1  0  0  0
 53 54  1  0  0  0
 54 55  2  0  0  0
 54129  1  0  0  0
 55 57  1  0  0  0
 55130  1  0  0  0
 56 69  2  0  0  0
 57 58  2  0  0  0
 57131  1  0  0  0
 58132  1  0  0  0
 59 60  1  0  0  0
 59 61  1  0  0  0
 59 62  1  0  0  0
 60133  1  0  0  0
 60134  1  0  0  0
 60135  1  0  0  0
 61136  1  0  0  0
 61137  1  0  0  0
 61138  1  0  0  0
 62139  1  0  0  0
 62140  1  0  0  0
 62141  1  0  0  0
 63 65  1  0  0  0
 63142  1  0  0  0
 63143  1  0  0  0
 63144  1  0  0  0
 64145  1  0  0  0
 65146  1  0  0  0
 68 81  1  0  0  0
 71 73  2  0  0  0
 71 74  1  0  0  0
 71147  1  0  0  0
 72 73  1  0  0  0
 72 84  2  0  0  0
 72148  1  0  0  0
 73 81  1  0  0  0
 74 75  2  0  0  0
 74 87  1  0  0  0
 75 82  1  0  0  0
 75 84  1  0  0  0
 76 77  1  0  0  0
 76 79  1  0  0  0
 76149  1  0  0  0
 76150  1  0  0  0
 77 85  1  0  0  0
 77151  1  0  0  0
 77152  1  0  0  0
 78 79  1  0  0  0
 78 85  1  0  0  0
 78153  1  0  0  0
 78154  1  0  0  0
 79 83  1  0  0  0
 79155  1  0  0  0
 80 87  1  0  0  0
 80156  1  0  0  0
 80157  1  0  0  0
 80158  1  0  0  0
 81159  1  0  0  0
 81160  1  0  0  0
 82 86  1  0  0  0
 82161  1  0  0  0
 82162  1  0  0  0
 83 86  1  0  0  0
 83163  1  0  0  0
 83164  1  0  0  0
 86165  1  0  0  0
 86166  1  0  0  0
M  CHG  1  86   1
M  ISO  4   1 100  68 101  81 101  85 100
M  END
> <chiral flag>
0

> <version>
0

> <s_m_source_file>
/data/baiqing/PycharmProjects/Reinvent-master-3.2/result/LINK_invent/BTK/process_docking_weight1_custom_sum_contain_oxygen_bond_distance_aromatic_linkinvent_7_9_3/rearranged_h_0122.sdf

> <i_m_source_file_index>
80

> <r_mmod_Potential_Energy-OPLS-2005>
-171.714492797852

> <r_mmod_Stretch_Energy-OPLS-2005>
36.3706130981445

> <r_mmod_Bend_Energy-OPLS-2005>
131.238830566406

> <r_mmod_Torsional_Energy-OPLS-2005>
344.219757080078

> <r_mmod_Improper_Torsional_Energy-OPLS-2005>
5.38561534881592

> <r_mmod_Van_der_Waal_Energy-OPLS-2005>
159.696685791016

> <r_mmod_Electrostatic_Energy-OPLS-2005>
-412.314849853516

> <r_mmod_Solvation_Energy-OPLS-2005>
-444.518951416016

> <b_mmod_Minimization_Converged-OPLS-2005>
0

> <r_mmod_RMS_Derivative-OPLS-2005>
2.2490668296814

$$$$
80
                    3D
 Structure written by MMmdl.
160168  0  0  1  0            999 V2000
  -30.6328  -14.7182   20.4259 C   0  0  0  0  0  0
  -30.4286  -12.4191   19.4776 C   0  0  0  0  0  0
  -29.5187  -12.4884   18.2316 C   0  0  0  0  0  0
  -28.0347  -12.3417   18.6300 C   0  0  0  0  0  0
  -27.6440  -13.2309   19.8438 C   0  0  2  0  0  0
  -28.6892  -13.1560   20.9807 C   0  0  0  0  0  0
  -25.2506  -13.8184   20.5650 C   0  0  0  0  0  0
  -24.1798  -13.0435   20.9168 C   0  0  0  0  0  0
  -24.6383  -11.6912   20.8702 C   0  0  0  0  0  0
  -23.9036  -10.4290   21.0382 C   0  0  0  0  0  0
  -24.3587   -9.4210   21.9163 C   0  0  0  0  0  0
  -23.6274   -8.2242   22.0730 C   0  0  0  0  0  0
  -22.4278   -8.0263   21.3525 C   0  0  0  0  0  0
  -21.9896   -9.0237   20.4641 C   0  0  0  0  0  0
  -22.7201  -10.2127   20.3045 C   0  0  0  0  0  0
  -21.6858   -6.0728   22.5278 C   0  0  0  0  0  0
  -21.4011   -6.5623   23.8207 C   0  0  0  0  0  0
  -21.3667   -5.6772   24.9162 C   0  0  0  0  0  0
  -21.6061   -4.3037   24.7218 C   0  0  0  0  0  0
  -21.8817   -3.8127   23.4334 C   0  0  0  0  0  0
  -21.9193   -4.6949   22.3392 C   0  0  0  0  0  0
  -22.7815  -13.5245   21.1844 C   0  0  0  0  0  0
  -22.1666   -4.2125   21.0970 F   0  0  0  0  0  0
  -21.5623   -3.4532   25.7734 F   0  0  0  0  0  0
  -29.9943  -13.4949   20.4019 N   0  0  0  0  0  0
  -26.2949  -12.9403   20.3212 N   0  0  0  0  0  0
  -25.9317  -11.6557   20.5682 N   0  0  0  0  0  0
  -22.0456  -12.8251   22.0416 N   0  0  0  0  0  0
  -25.4168  -15.1915   20.4086 N   0  0  0  0  0  0
  -31.8191  -14.7925   20.0982 O   0  0  0  0  0  0
  -21.6622   -6.8881   21.4250 O   0  0  0  0  0  0
  -22.3517  -14.5566   20.6710 O   0  0  0  0  0  0
  -24.6288  -31.8559   23.1949 C   0  0  0  0  0  0
  -25.9119  -32.4754   23.8303 C   0  0  1  0  0  0
  -27.2354  -27.2721   20.1561 C   0  0  0  0  0  0
  -25.5902  -33.8541   24.2223 N   0  0  0  0  0  0
  -23.4269  -30.4753   21.5370 C   0  0  2  0  0  0
  -24.8835  -28.9225   20.1086 C   0  0  0  0  0  0
  -22.7489  -29.4610   22.4902 C   0  0  0  0  0  0
  -18.0304  -28.1393   22.8499 C   0  0  0  0  0  0
  -24.1480  -36.7264   23.2646 C   0  0  0  0  0  0
  -25.9714  -30.7778   21.3728 C   0  0  0  0  0  0
  -26.0519  -29.4011   20.7158 C   0  0  0  0  0  0
  -27.2325  -28.5927   20.7203 C   0  0  0  0  0  0
  -26.0522  -26.8677   19.4990 C   0  0  0  0  0  0
  -24.8916  -27.6657   19.4824 C   0  0  0  0  0  0
  -23.6449  -29.7973   20.1572 C   0  0  0  0  0  0
  -25.4108  -36.3053   24.0330 C   0  0  1  0  0  0
  -20.5900  -28.3694   23.1280 C   0  0  2  0  0  0
  -20.6779  -26.9414   22.5416 C   0  0  0  0  0  0
  -19.5746  -26.6404   21.5216 C   0  0  0  0  0  0
  -18.1939  -26.7946   22.1636 C   0  0  0  0  0  0
  -19.1560  -28.8867   23.2885 C   0  0  0  0  0  0
  -18.9470  -30.1471   23.8892 C   0  0  0  0  0  0
  -17.6468  -30.6591   24.0574 C   0  0  0  0  0  0
  -25.9061  -34.9429   23.5080 C   0  0  0  0  0  0
  -16.5359  -29.9075   23.6352 C   0  0  0  0  0  0
  -16.7299  -28.6500   23.0374 C   0  0  0  0  0  0
  -26.4512  -31.6576   25.0682 C   0  0  0  0  0  0
  -25.3733  -31.3749   26.1399 C   0  0  0  0  0  0
  -27.0349  -30.2979   24.6175 C   0  0  0  0  0  0
  -27.6053  -32.4341   25.7444 C   0  0  0  0  0  0
  -27.5579  -37.1773   24.8458 C   0  0  0  0  0  0
  -21.4197  -29.3034   22.3654 N   0  0  0  0  0  0
  -26.4274  -37.3758   23.9427 N   0  0  0  0  0  0
  -24.6938  -31.0529   22.0921 N   0  0  0  0  0  0
  -23.4199  -28.8175   23.3026 O   0  0  0  0  0  0
  -28.3183  -26.3638   20.2517 O   0  0  0  0  0  0
  -26.5651  -34.8918   22.4673 O   0  0  0  0  0  0
  -23.5439  -32.1381   23.7260 O   0  0  0  0  0  0
  -29.9123  -20.3725   21.7829 C   0  0  0  0  0  0
  -30.3043  -19.0559   21.6381 C   0  0  0  0  0  0
  -29.1545  -19.6612   19.8497 C   0  0  0  0  0  0
  -29.1368  -20.8067   20.6595 C   0  0  0  0  0  0
  -27.1515  -26.0303   23.0394 C   0  0  0  0  0  0
  -27.2121  -21.9789   19.4691 C   0  0  0  0  0  0
  -28.1049  -25.0477   22.3396 C   0  0  0  0  0  0
  -28.9505  -23.6745   20.3473 C   0  0  0  0  0  0
  -30.1523  -17.1903   19.8256 C   0  0  0  0  0  0
  -28.3093  -22.1802   20.5239 C   0  0  2  0  0  0
  -28.0554  -24.9733   20.7876 C   0  0  2  0  0  0
  -29.8329  -18.5563   20.4389 N   0  0  0  0  0  0
  -29.8762  -15.8730   20.5480 N   0  0  0  0  0  0
  -31.4742  -12.5169   19.1817 H   0  0  0  0  0  0
  -30.3465  -11.4428   19.9592 H   0  0  0  0  0  0
  -29.7935  -11.7057   17.5246 H   0  0  0  0  0  0
  -29.6778  -13.4349   17.7127 H   0  0  0  0  0  0
  -27.8613  -11.2923   18.8706 H   0  0  0  0  0  0
  -27.3928  -12.5621   17.7748 H   0  0  0  0  0  0
  -27.6466  -14.2554   19.4753 H   0  0  0  0  0  0
  -28.7123  -12.1556   21.4178 H   0  0  0  0  0  0
  -28.4310  -13.8360   21.7929 H   0  0  0  0  0  0
  -25.2741   -9.5708   22.4704 H   0  0  0  0  0  0
  -23.9995   -7.4658   22.7467 H   0  0  0  0  0  0
  -21.0815   -8.8756   19.8978 H   0  0  0  0  0  0
  -22.3647  -10.9649   19.6126 H   0  0  0  0  0  0
  -21.2006   -7.6133   23.9713 H   0  0  0  0  0  0
  -21.1496   -6.0487   25.9069 H   0  0  0  0  0  0
  -22.0601   -2.7591   23.2826 H   0  0  0  0  0  0
  -22.4042  -11.9933   22.4870 H   0  0  0  0  0  0
  -21.1075  -13.1297   22.2558 H   0  0  0  0  0  0
  -24.6488  -15.8392   20.5464 H   0  0  0  0  0  0
  -26.2491  -15.6440   20.0516 H   0  0  0  0  0  0
  -26.7180  -32.5434   23.1040 H   0  0  0  0  0  0
  -24.9986  -33.9660   25.0324 H   0  0  0  0  0  0
  -22.7225  -31.2961   21.3856 H   0  0  0  0  0  0
  -23.3742  -35.9593   23.3310 H   0  0  0  0  0  0
  -24.3566  -36.8896   22.2058 H   0  0  0  0  0  0
  -23.7241  -37.6466   23.6683 H   0  0  0  0  0  0
  -26.1093  -31.5393   20.6028 H   0  0  0  0  0  0
  -26.8484  -30.8278   22.0077 H   0  0  0  0  0  0
  -28.1216  -28.9509   21.2199 H   0  0  0  0  0  0
  -26.0134  -25.9047   19.0131 H   0  0  0  0  0  0
  -23.9991  -27.2979   18.9944 H   0  0  0  0  0  0
  -23.7496  -30.5649   19.3902 H   0  0  0  0  0  0
  -22.7702  -29.2110   19.8683 H   0  0  0  0  0  0
  -25.1297  -36.1872   25.0817 H   0  0  0  0  0  0
  -21.0028  -28.3280   24.1383 H   0  0  0  0  0  0
  -20.5670  -26.2302   23.3613 H   0  0  0  0  0  0
  -21.6645  -26.7428   22.1210 H   0  0  0  0  0  0
  -19.6892  -25.6320   21.1228 H   0  0  0  0  0  0
  -19.6679  -27.3230   20.6758 H   0  0  0  0  0  0
  -17.4203  -26.6731   21.4037 H   0  0  0  0  0  0
  -18.0325  -26.0079   22.9019 H   0  0  0  0  0  0
  -19.7941  -30.7313   24.2237 H   0  0  0  0  0  0
  -17.5014  -31.6266   24.5184 H   0  0  0  0  0  0
  -15.5358  -30.2968   23.7678 H   0  0  0  0  0  0
  -15.8708  -28.0813   22.7081 H   0  0  0  0  0  0
  -24.5832  -30.7200   25.7712 H   0  0  0  0  0  0
  -24.9011  -32.2933   26.4881 H   0  0  0  0  0  0
  -25.8011  -30.8841   27.0138 H   0  0  0  0  0  0
  -26.2921  -29.6705   24.1217 H   0  0  0  0  0  0
  -27.4046  -29.7263   25.4702 H   0  0  0  0  0  0
  -27.8798  -30.4241   23.9398 H   0  0  0  0  0  0
  -27.2641  -33.3645   26.1990 H   0  0  0  0  0  0
  -28.3848  -32.6910   25.0260 H   0  0  0  0  0  0
  -28.0729  -31.8496   26.5371 H   0  0  0  0  0  0
  -28.2576  -38.0095   24.7544 H   0  0  0  0  0  0
  -28.1096  -36.2627   24.6217 H   0  0  0  0  0  0
  -27.2305  -37.1335   25.8862 H   0  0  0  0  0  0
  -20.9387  -29.8693   21.6798 H   0  0  0  0  0  0
  -26.0142  -38.2823   24.1450 H   0  0  0  0  0  0
  -30.1340  -20.9697   22.6570 H   0  0  0  0  0  0
  -30.8951  -18.4188   22.2841 H   0  0  0  0  0  0
  -28.7028  -19.5190   18.8764 H   0  0  0  0  0  0
  -27.1183  -25.8275   24.1106 H   0  0  0  0  0  0
  -26.1322  -25.9530   22.6594 H   0  0  0  0  0  0
  -27.4873  -27.0615   22.9340 H   0  0  0  0  0  0
  -26.6614  -21.0586   19.6620 H   0  0  0  0  0  0
  -27.6362  -21.9121   18.4678 H   0  0  0  0  0  0
  -26.4849  -22.7874   19.4699 H   0  0  0  0  0  0
  -27.8722  -24.0609   22.7372 H   0  0  0  0  0  0
  -29.1249  -25.2570   22.6631 H   0  0  0  0  0  0
  -29.2516  -23.7950   19.3083 H   0  0  0  0  0  0
  -29.8819  -23.7151   20.9125 H   0  0  0  0  0  0
  -31.2079  -17.2173   19.5484 H   0  0  0  0  0  0
  -29.6159  -17.1318   18.8771 H   0  0  0  0  0  0
  -27.7961  -22.2160   21.4850 H   0  0  0  0  0  0
  -27.0361  -24.7118   20.5236 H   0  0  0  0  0  0
  -28.9198  -15.7313   20.8266 H   0  0  0  0  0  0
  1 25  1  0  0  0
  1 30  2  0  0  0
  1 83  1  0  0  0
  2  3  1  0  0  0
  2 25  1  0  0  0
  2 84  1  0  0  0
  2 85  1  0  0  0
  3  4  1  0  0  0
  3 86  1  0  0  0
  3 87  1  0  0  0
  4  5  1  0  0  0
  4 88  1  0  0  0
  4 89  1  0  0  0
  5  6  1  0  0  0
  5 26  1  0  0  0
  5 90  1  0  0  0
  6 25  1  0  0  0
  6 91  1  0  0  0
  6 92  1  0  0  0
  7  8  2  0  0  0
  7 26  1  0  0  0
  7 29  1  0  0  0
  8  9  1  0  0  0
  8 22  1  0  0  0
  9 10  1  0  0  0
  9 27  2  0  0  0
 10 11  2  0  0  0
 10 15  1  0  0  0
 11 12  1  0  0  0
 11 93  1  0  0  0
 12 13  2  0  0  0
 12 94  1  0  0  0
 13 14  1  0  0  0
 13 31  1  0  0  0
 14 15  2  0  0  0
 14 95  1  0  0  0
 15 96  1  0  0  0
 16 17  2  0  0  0
 16 21  1  0  0  0
 16 31  1  0  0  0
 17 18  1  0  0  0
 17 97  1  0  0  0
 18 19  2  0  0  0
 18 98  1  0  0  0
 19 20  1  0  0  0
 19 24  1  0  0  0
 20 21  2  0  0  0
 20 99  1  0  0  0
 21 23  1  0  0  0
 22 28  1  0  0  0
 22 32  2  0  0  0
 26 27  1  0  0  0
 28100  1  0  0  0
 28101  1  0  0  0
 29102  1  0  0  0
 29103  1  0  0  0
 33 34  1  0  0  0
 33 66  1  0  0  0
 33 70  2  0  0  0
 34 36  1  0  0  0
 34 59  1  0  0  0
 34104  1  0  0  0
 35 44  2  0  0  0
 35 45  1  0  0  0
 35 68  1  0  0  0
 36 56  1  0  0  0
 36105  1  0  0  0
 37 39  1  0  0  0
 37 47  1  0  0  0
 37 66  1  0  0  0
 37106  1  0  0  0
 38 43  2  0  0  0
 38 46  1  0  0  0
 38 47  1  0  0  0
 39 64  1  0  0  0
 39 67  2  0  0  0
 40 52  1  0  0  0
 40 53  2  0  0  0
 40 58  1  0  0  0
 41107  1  0  0  0
 41108  1  0  0  0
 41109  1  0  0  0
 41 48  1  0  0  0
 42 43  1  0  0  0
 42 66  1  0  0  0
 42110  1  0  0  0
 42111  1  0  0  0
 43 44  1  0  0  0
 44112  1  0  0  0
 45 46  2  0  0  0
 45113  1  0  0  0
 46114  1  0  0  0
 47115  1  0  0  0
 47116  1  0  0  0
 48 56  1  0  0  0
 48 65  1  0  0  0
 48117  1  0  0  0
 49 50  1  0  0  0
 49 53  1  0  0  0
 49 64  1  0  0  0
 49118  1  0  0  0
 50 51  1  0  0  0
 50119  1  0  0  0
 50120  1  0  0  0
 51 52  1  0  0  0
 51121  1  0  0  0
 51122  1  0  0  0
 52123  1  0  0  0
 52124  1  0  0  0
 53 54  1  0  0  0
 54 55  2  0  0  0
 54125  1  0  0  0
 55 57  1  0  0  0
 55126  1  0  0  0
 56 69  2  0  0  0
 57 58  2  0  0  0
 57127  1  0  0  0
 58128  1  0  0  0
 59 60  1  0  0  0
 59 61  1  0  0  0
 59 62  1  0  0  0
 60129  1  0  0  0
 60130  1  0  0  0
 60131  1  0  0  0
 61132  1  0  0  0
 61133  1  0  0  0
 61134  1  0  0  0
 62135  1  0  0  0
 62136  1  0  0  0
 62137  1  0  0  0
 63 65  1  0  0  0
 63138  1  0  0  0
 63139  1  0  0  0
 63140  1  0  0  0
 64141  1  0  0  0
 65142  1  0  0  0
 68 81  1  0  0  0
 71 72  2  0  0  0
 71 74  1  0  0  0
 71143  1  0  0  0
 72 82  1  0  0  0
 72144  1  0  0  0
 73 74  2  0  0  0
 73 82  1  0  0  0
 73145  1  0  0  0
 74 80  1  0  0  0
 75 77  1  0  0  0
 75146  1  0  0  0
 75147  1  0  0  0
 75148  1  0  0  0
 76149  1  0  0  0
 76150  1  0  0  0
 76151  1  0  0  0
 76 80  1  0  0  0
 77152  1  0  0  0
 77153  1  0  0  0
 77 81  1  0  0  0
 78 80  1  0  0  0
 78 81  1  0  0  0
 78154  1  0  0  0
 78155  1  0  0  0
 79 82  1  0  0  0
 79 83  1  0  0  0
 79156  1  0  0  0
 79157  1  0  0  0
 80158  1  0  0  0
 81159  1  0  0  0
 83160  1  0  0  0
M  ISO  4   1 100  68 101  81 101  83 100
M  END
> <chiral flag>
0

> <version>
0

> <s_m_source_file>
/data/baiqing/PycharmProjects/Reinvent-master-3.2/result/LINK_invent/BTK/process_docking_weight1_custom_sum_contain_oxygen_bond_distance_aromatic_linkinvent_7_9_3/rearranged_h_0122.sdf

> <i_m_source_file_index>
81

> <r_mmod_Potential_Energy-OPLS-2005>
126.055419921875

> <r_mmod_Stretch_Energy-OPLS-2005>
129.885406494141

> <r_mmod_Bend_Energy-OPLS-2005>
183.098510742188

> <r_mmod_Torsional_Energy-OPLS-2005>
251.838287353516

> <r_mmod_Improper_Torsional_Energy-OPLS-2005>
9.98434543609619

> <r_mmod_Van_der_Waal_Energy-OPLS-2005>
113.657699584961

> <r_mmod_Electrostatic_Energy-OPLS-2005>
-434.966033935547

> <r_mmod_Solvation_Energy-OPLS-2005>
-207.77604675293

> <b_mmod_Minimization_Converged-OPLS-2005>
0

> <r_mmod_RMS_Derivative-OPLS-2005>
4.30957174301147

$$$$
81
                    3D
 Structure written by MMmdl.
160168  0  0  1  0            999 V2000
  -30.5119  -15.0201   20.3989 C   0  0  0  0  0  0
  -30.4314  -12.6247   19.5289 C   0  0  0  0  0  0
  -29.5244  -12.5541   18.2768 C   0  0  0  0  0  0
  -28.0613  -12.3220   18.6893 C   0  0  0  0  0  0
  -27.6268  -13.2584   19.8459 C   0  0  2  0  0  0
  -28.6623  -13.3128   20.9911 C   0  0  0  0  0  0
  -25.2441  -13.8246   20.5748 C   0  0  0  0  0  0
  -24.1768  -13.0442   20.9220 C   0  0  0  0  0  0
  -24.6399  -11.6928   20.8742 C   0  0  0  0  0  0
  -23.9097  -10.4285   21.0388 C   0  0  0  0  0  0
  -24.3635   -9.4197   21.9176 C   0  0  0  0  0  0
  -23.6297   -8.2237   22.0752 C   0  0  0  0  0  0
  -22.4276   -8.0275   21.3544 C   0  0  0  0  0  0
  -21.9908   -9.0255   20.4646 C   0  0  0  0  0  0
  -22.7249  -10.2136   20.3050 C   0  0  0  0  0  0
  -21.6854   -6.0729   22.5281 C   0  0  0  0  0  0
  -21.4023   -6.5649   23.8220 C   0  0  0  0  0  0
  -21.3663   -5.6804   24.9186 C   0  0  0  0  0  0
  -21.6040   -4.3067   24.7230 C   0  0  0  0  0  0
  -21.8818   -3.8149   23.4360 C   0  0  0  0  0  0
  -21.9201   -4.6957   22.3411 C   0  0  0  0  0  0
  -22.7794  -13.5201   21.1870 C   0  0  0  0  0  0
  -22.1662   -4.2141   21.0987 F   0  0  0  0  0  0
  -21.5615   -3.4549   25.7746 F   0  0  0  0  0  0
  -29.9406  -13.7372   20.4052 N   0  0  0  0  0  0
  -26.2876  -12.9495   20.3285 N   0  0  0  0  0  0
  -25.9340  -11.6610   20.5749 N   0  0  0  0  0  0
  -22.0463  -12.8182   22.0436 N   0  0  0  0  0  0
  -25.4084  -15.1974   20.4229 N   0  0  0  0  0  0
  -31.6901  -15.0804   20.0282 O   0  0  0  0  0  0
  -21.6643   -6.8866   21.4240 O   0  0  0  0  0  0
  -22.3459  -14.5501   20.6725 O   0  0  0  0  0  0
  -24.6492  -31.8382   23.1814 C   0  0  0  0  0  0
  -25.9235  -32.4668   23.8232 C   0  0  1  0  0  0
  -27.2162  -27.0685   20.1570 C   0  0  0  0  0  0
  -25.5954  -33.8477   24.2147 N   0  0  0  0  0  0
  -23.4557  -30.4545   21.5280 C   0  0  2  0  0  0
  -24.9061  -28.8709   20.1054 C   0  0  0  0  0  0
  -22.7597  -29.4509   22.4828 C   0  0  0  0  0  0
  -18.0307  -28.1402   22.8467 C   0  0  0  0  0  0
  -24.1491  -36.7249   23.2638 C   0  0  0  0  0  0
  -26.0154  -30.6884   21.3915 C   0  0  0  0  0  0
  -26.0832  -29.2932   20.7349 C   0  0  0  0  0  0
  -27.2315  -28.4062   20.7479 C   0  0  0  0  0  0
  -26.0144  -26.7693   19.4763 C   0  0  0  0  0  0
  -24.8886  -27.6245   19.4617 C   0  0  0  0  0  0
  -23.6867  -29.7821   20.1480 C   0  0  0  0  0  0
  -25.4127  -36.3018   24.0304 C   0  0  1  0  0  0
  -20.5920  -28.3736   23.1218 C   0  0  2  0  0  0
  -20.6789  -26.9434   22.5399 C   0  0  0  0  0  0
  -19.5767  -26.6384   21.5206 C   0  0  0  0  0  0
  -18.1950  -26.7933   22.1625 C   0  0  0  0  0  0
  -19.1562  -28.8889   23.2831 C   0  0  0  0  0  0
  -18.9480  -30.1481   23.8866 C   0  0  0  0  0  0
  -17.6476  -30.6599   24.0561 C   0  0  0  0  0  0
  -25.9082  -34.9396   23.5039 C   0  0  0  0  0  0
  -16.5367  -29.9096   23.6331 C   0  0  0  0  0  0
  -16.7293  -28.6514   23.0353 C   0  0  0  0  0  0
  -26.4524  -31.6559   25.0705 C   0  0  0  0  0  0
  -25.3688  -31.3788   26.1391 C   0  0  0  0  0  0
  -27.0388  -30.2938   24.6341 C   0  0  0  0  0  0
  -27.6048  -32.4330   25.7499 C   0  0  0  0  0  0
  -27.5572  -37.1784   24.8465 C   0  0  0  0  0  0
  -21.4279  -29.3054   22.3588 N   0  0  0  0  0  0
  -26.4289  -37.3735   23.9398 N   0  0  0  0  0  0
  -24.7270  -31.0168   22.0884 N   0  0  0  0  0  0
  -23.4215  -28.8072   23.3011 O   0  0  0  0  0  0
  -28.2592  -26.0559   20.2841 O   0  0  0  0  0  0
  -26.5684  -34.8901   22.4626 O   0  0  0  0  0  0
  -23.5595  -32.1297   23.6988 O   0  0  0  0  0  0
  -29.5642  -18.8726   20.7556 C   0  0  0  0  0  0
  -29.2476  -19.9756   19.7799 C   0  0  0  0  0  0
  -29.0595  -19.1844   18.6415 C   0  0  0  0  0  0
  -29.6402  -17.5616   20.1780 C   0  0  0  0  0  0
  -28.6647  -19.6114   17.2499 C   0  0  0  0  0  0
  -30.6701  -22.0717   19.2062 C   0  0  0  0  0  0
  -29.4835  -23.2909   21.7583 C   0  0  0  0  0  0
  -29.2916  -16.7513   17.8345 C   0  0  0  0  0  0
  -28.2489  -24.5508   19.7735 C   0  0  0  0  0  0
  -29.2513  -21.6894   19.6571 C   0  0  2  0  0  0
  -28.6129  -23.0306   20.5198 C   0  0  1  0  0  0
  -29.3392  -17.8046   18.8480 N   0  0  0  0  0  0
  -29.7707  -16.2110   20.7230 N   0  0  0  0  0  0
  -31.4676  -12.7717   19.2244 H   0  0  0  0  0  0
  -30.4188  -11.6738   20.0658 H   0  0  0  0  0  0
  -29.8548  -11.7583   17.6072 H   0  0  0  0  0  0
  -29.6068  -13.4859   17.7157 H   0  0  0  0  0  0
  -27.9730  -11.2817   19.0041 H   0  0  0  0  0  0
  -27.3982  -12.4397   17.8314 H   0  0  0  0  0  0
  -27.5795  -14.2556   19.4103 H   0  0  0  0  0  0
  -28.7542  -12.3465   21.4898 H   0  0  0  0  0  0
  -28.3426  -14.0236   21.7537 H   0  0  0  0  0  0
  -25.2769   -9.5683   22.4764 H   0  0  0  0  0  0
  -23.9999   -7.4641   22.7495 H   0  0  0  0  0  0
  -21.0829   -8.8795   19.8971 H   0  0  0  0  0  0
  -22.3699  -10.9684   19.6174 H   0  0  0  0  0  0
  -21.2026   -7.6160   23.9724 H   0  0  0  0  0  0
  -21.1479   -6.0535   25.9091 H   0  0  0  0  0  0
  -22.0588   -2.7601   23.2877 H   0  0  0  0  0  0
  -22.4088  -11.9852   22.4828 H   0  0  0  0  0  0
  -21.1089  -13.1212   22.2661 H   0  0  0  0  0  0
  -24.6371  -15.8431   20.5494 H   0  0  0  0  0  0
  -26.2627  -15.6558   20.1323 H   0  0  0  0  0  0
  -26.7305  -32.5249   23.0959 H   0  0  0  0  0  0
  -25.0054  -33.9578   25.0266 H   0  0  0  0  0  0
  -22.7611  -31.2821   21.3694 H   0  0  0  0  0  0
  -23.3751  -35.9581   23.3295 H   0  0  0  0  0  0
  -24.3569  -36.8896   22.2052 H   0  0  0  0  0  0
  -23.7254  -37.6443   23.6689 H   0  0  0  0  0  0
  -26.1776  -31.4375   20.6151 H   0  0  0  0  0  0
  -26.8830  -30.7408   22.0378 H   0  0  0  0  0  0
  -28.1209  -28.7194   21.2758 H   0  0  0  0  0  0
  -25.8892  -25.8250   18.9731 H   0  0  0  0  0  0
  -23.9927  -27.2945   18.9537 H   0  0  0  0  0  0
  -23.8311  -30.5572   19.3946 H   0  0  0  0  0  0
  -22.7993  -29.2311   19.8321 H   0  0  0  0  0  0
  -25.1319  -36.1826   25.0798 H   0  0  0  0  0  0
  -21.0003  -28.3322   24.1342 H   0  0  0  0  0  0
  -20.5667  -26.2353   23.3624 H   0  0  0  0  0  0
  -21.6658  -26.7424   22.1206 H   0  0  0  0  0  0
  -19.6927  -25.6285   21.1263 H   0  0  0  0  0  0
  -19.6704  -27.3170   20.6714 H   0  0  0  0  0  0
  -17.4208  -26.6651   21.4042 H   0  0  0  0  0  0
  -18.0371  -26.0094   22.9049 H   0  0  0  0  0  0
  -19.7962  -30.7295   24.2227 H   0  0  0  0  0  0
  -17.5038  -31.6272   24.5182 H   0  0  0  0  0  0
  -15.5368  -30.2993   23.7678 H   0  0  0  0  0  0
  -15.8694  -28.0830   22.7082 H   0  0  0  0  0  0
  -24.5866  -30.7135   25.7715 H   0  0  0  0  0  0
  -24.8878  -32.2988   26.4726 H   0  0  0  0  0  0
  -25.7946  -30.9019   27.0230 H   0  0  0  0  0  0
  -26.3016  -29.6651   24.1333 H   0  0  0  0  0  0
  -27.3948  -29.7254   25.4944 H   0  0  0  0  0  0
  -27.8950  -30.4147   23.9702 H   0  0  0  0  0  0
  -27.2645  -33.3672   26.1980 H   0  0  0  0  0  0
  -28.3915  -32.6819   25.0365 H   0  0  0  0  0  0
  -28.0648  -31.8511   26.5497 H   0  0  0  0  0  0
  -28.2583  -38.0085   24.7494 H   0  0  0  0  0  0
  -28.1072  -36.2608   24.6312 H   0  0  0  0  0  0
  -27.2288  -37.1459   25.8870 H   0  0  0  0  0  0
  -20.9496  -29.8771   21.6766 H   0  0  0  0  0  0
  -26.0144  -38.2798   24.1398 H   0  0  0  0  0  0
  -29.7617  -19.0446   21.8049 H   0  0  0  0  0  0
  -28.1966  -20.5902   17.2045 H   0  0  0  0  0  0
  -27.9254  -18.9326   16.8231 H   0  0  0  0  0  0
  -29.5312  -19.6276   16.5881 H   0  0  0  0  0  0
  -30.9772  -21.4944   18.3331 H   0  0  0  0  0  0
  -31.3932  -21.8835   19.9995 H   0  0  0  0  0  0
  -30.7389  -23.1248   18.9339 H   0  0  0  0  0  0
  -28.9664  -23.9346   22.4706 H   0  0  0  0  0  0
  -30.4192  -23.7827   21.4907 H   0  0  0  0  0  0
  -29.7281  -22.3590   22.2703 H   0  0  0  0  0  0
  -29.1403  -17.1314   16.8266 H   0  0  0  0  0  0
  -28.4864  -16.0539   18.0648 H   0  0  0  0  0  0
  -30.2384  -16.2121   17.8268 H   0  0  0  0  0  0
  -27.3030  -24.3726   19.2722 H   0  0  0  0  0  0
  -28.9479  -24.6108   18.9402 H   0  0  0  0  0  0
  -28.6415  -21.8287   18.7727 H   0  0  0  0  0  0
  -27.6529  -22.6837   20.9042 H   0  0  0  0  0  0
  -28.9986  -15.9815   21.3314 H   0  0  0  0  0  0
  1 25  1  0  0  0
  1 30  2  0  0  0
  1 83  1  0  0  0
  2  3  1  0  0  0
  2 25  1  0  0  0
  2 84  1  0  0  0
  2 85  1  0  0  0
  3  4  1  0  0  0
  3 86  1  0  0  0
  3 87  1  0  0  0
  4  5  1  0  0  0
  4 88  1  0  0  0
  4 89  1  0  0  0
  5  6  1  0  0  0
  5 26  1  0  0  0
  5 90  1  0  0  0
  6 25  1  0  0  0
  6 91  1  0  0  0
  6 92  1  0  0  0
  7  8  2  0  0  0
  7 26  1  0  0  0
  7 29  1  0  0  0
  8  9  1  0  0  0
  8 22  1  0  0  0
  9 10  1  0  0  0
  9 27  2  0  0  0
 10 11  2  0  0  0
 10 15  1  0  0  0
 11 12  1  0  0  0
 11 93  1  0  0  0
 12 13  2  0  0  0
 12 94  1  0  0  0
 13 14  1  0  0  0
 13 31  1  0  0  0
 14 15  2  0  0  0
 14 95  1  0  0  0
 15 96  1  0  0  0
 16 17  2  0  0  0
 16 21  1  0  0  0
 16 31  1  0  0  0
 17 18  1  0  0  0
 17 97  1  0  0  0
 18 19  2  0  0  0
 18 98  1  0  0  0
 19 20  1  0  0  0
 19 24  1  0  0  0
 20 21  2  0  0  0
 20 99  1  0  0  0
 21 23  1  0  0  0
 22 28  1  0  0  0
 22 32  2  0  0  0
 26 27  1  0  0  0
 28100  1  0  0  0
 28101  1  0  0  0
 29102  1  0  0  0
 29103  1  0  0  0
 33 34  1  0  0  0
 33 66  1  0  0  0
 33 70  2  0  0  0
 34 36  1  0  0  0
 34 59  1  0  0  0
 34104  1  0  0  0
 35 44  2  0  0  0
 35 45  1  0  0  0
 35 68  1  0  0  0
 36 56  1  0  0  0
 36105  1  0  0  0
 37 39  1  0  0  0
 37 47  1  0  0  0
 37 66  1  0  0  0
 37106  1  0  0  0
 38 43  2  0  0  0
 38 46  1  0  0  0
 38 47  1  0  0  0
 39 64  1  0  0  0
 39 67  2  0  0  0
 40 52  1  0  0  0
 40 53  2  0  0  0
 40 58  1  0  0  0
 41107  1  0  0  0
 41108  1  0  0  0
 41109  1  0  0  0
 41 48  1  0  0  0
 42 43  1  0  0  0
 42 66  1  0  0  0
 42110  1  0  0  0
 42111  1  0  0  0
 43 44  1  0  0  0
 44112  1  0  0  0
 45 46  2  0  0  0
 45113  1  0  0  0
 46114  1  0  0  0
 47115  1  0  0  0
 47116  1  0  0  0
 48 56  1  0  0  0
 48 65  1  0  0  0
 48117  1  0  0  0
 49 50  1  0  0  0
 49 53  1  0  0  0
 49 64  1  0  0  0
 49118  1  0  0  0
 50 51  1  0  0  0
 50119  1  0  0  0
 50120  1  0  0  0
 51 52  1  0  0  0
 51121  1  0  0  0
 51122  1  0  0  0
 52123  1  0  0  0
 52124  1  0  0  0
 53 54  1  0  0  0
 54 55  2  0  0  0
 54125  1  0  0  0
 55 57  1  0  0  0
 55126  1  0  0  0
 56 69  2  0  0  0
 57 58  2  0  0  0
 57127  1  0  0  0
 58128  1  0  0  0
 59 60  1  0  0  0
 59 61  1  0  0  0
 59 62  1  0  0  0
 60129  1  0  0  0
 60130  1  0  0  0
 60131  1  0  0  0
 61132  1  0  0  0
 61133  1  0  0  0
 61134  1  0  0  0
 62135  1  0  0  0
 62136  1  0  0  0
 62137  1  0  0  0
 63 65  1  0  0  0
 63138  1  0  0  0
 63139  1  0  0  0
 63140  1  0  0  0
 64141  1  0  0  0
 65142  1  0  0  0
 68 79  1  0  0  0
 71 72  1  0  0  0
 71 74  2  0  0  0
 71143  1  0  0  0
 72 73  2  0  0  0
 72 80  1  0  0  0
 73 75  1  0  0  0
 73 82  1  0  0  0
 74 82  1  0  0  0
 74 83  1  0  0  0
 75144  1  0  0  0
 75145  1  0  0  0
 75146  1  0  0  0
 76147  1  0  0  0
 76148  1  0  0  0
 76149  1  0  0  0
 76 80  1  0  0  0
 77150  1  0  0  0
 77151  1  0  0  0
 77152  1  0  0  0
 77 81  1  0  0  0
 78 82  1  0  0  0
 78153  1  0  0  0
 78154  1  0  0  0
 78155  1  0  0  0
 79 81  1  0  0  0
 79156  1  0  0  0
 79157  1  0  0  0
 80 81  1  0  0  0
 80158  1  0  0  0
 81159  1  0  0  0
 83160  1  0  0  0
M  ISO  4   1 100  68 101  79 101  83 100
M  END
> <chiral flag>
0

> <version>
0

> <s_m_source_file>
/data/baiqing/PycharmProjects/Reinvent-master-3.2/result/LINK_invent/BTK/process_docking_weight1_custom_sum_contain_oxygen_bond_distance_aromatic_linkinvent_7_9_3/rearranged_h_0122.sdf

> <i_m_source_file_index>
82

> <r_mmod_Potential_Energy-OPLS-2005>
744.715515136719

> <r_mmod_Stretch_Energy-OPLS-2005>
340.909362792969

> <r_mmod_Bend_Energy-OPLS-2005>
378.333282470703

> <r_mmod_Torsional_Energy-OPLS-2005>
263.384796142578

> <r_mmod_Improper_Torsional_Energy-OPLS-2005>
5.47433567047119

> <r_mmod_Van_der_Waal_Energy-OPLS-2005>
114.667579650879

> <r_mmod_Electrostatic_Energy-OPLS-2005>
-399.543823242188

> <r_mmod_Solvation_Energy-OPLS-2005>
-210.010635375977

> <b_mmod_Minimization_Converged-OPLS-2005>
0

> <r_mmod_RMS_Derivative-OPLS-2005>
2.45035481452942

$$$$
82
                    3D
 Structure written by MMmdl.
159168  0  0  1  0            999 V2000
  -30.5731  -15.0212   20.4354 C   0  0  0  0  0  0
  -30.4213  -12.6479   19.5093 C   0  0  0  0  0  0
  -29.5135  -12.5354   18.2648 C   0  0  0  0  0  0
  -28.0551  -12.3018   18.6922 C   0  0  0  0  0  0
  -27.6174  -13.2605   19.8300 C   0  0  2  0  0  0
  -28.6569  -13.3608   20.9675 C   0  0  0  0  0  0
  -25.2407  -13.8241   20.5739 C   0  0  0  0  0  0
  -24.1743  -13.0444   20.9256 C   0  0  0  0  0  0
  -24.6376  -11.6937   20.8771 C   0  0  0  0  0  0
  -23.9077  -10.4297   21.0416 C   0  0  0  0  0  0
  -24.3629   -9.4210   21.9192 C   0  0  0  0  0  0
  -23.6303   -8.2245   22.0752 C   0  0  0  0  0  0
  -22.4286   -8.0285   21.3541 C   0  0  0  0  0  0
  -21.9933   -9.0256   20.4643 C   0  0  0  0  0  0
  -22.7258  -10.2134   20.3061 C   0  0  0  0  0  0
  -21.6853   -6.0743   22.5276 C   0  0  0  0  0  0
  -21.4014   -6.5645   23.8211 C   0  0  0  0  0  0
  -21.3658   -5.6799   24.9173 C   0  0  0  0  0  0
  -21.6043   -4.3059   24.7223 C   0  0  0  0  0  0
  -21.8819   -3.8154   23.4343 C   0  0  0  0  0  0
  -21.9194   -4.6975   22.3400 C   0  0  0  0  0  0
  -22.7765  -13.5200   21.1911 C   0  0  0  0  0  0
  -22.1663   -4.2160   21.0977 F   0  0  0  0  0  0
  -21.5630   -3.4543   25.7732 F   0  0  0  0  0  0
  -29.9204  -13.7827   20.3514 N   0  0  0  0  0  0
  -26.2826  -12.9492   20.3247 N   0  0  0  0  0  0
  -25.9310  -11.6610   20.5760 N   0  0  0  0  0  0
  -22.0426  -12.8165   22.0453 N   0  0  0  0  0  0
  -25.4058  -15.1973   20.4139 N   0  0  0  0  0  0
  -31.7770  -14.9752   20.1471 O   0  0  0  0  0  0
  -21.6644   -6.8885   21.4237 O   0  0  0  0  0  0
  -22.3447  -14.5506   20.6758 O   0  0  0  0  0  0
  -24.6467  -31.8395   23.1799 C   0  0  0  0  0  0
  -25.9219  -32.4669   23.8202 C   0  0  1  0  0  0
  -27.2159  -27.0841   20.1622 C   0  0  0  0  0  0
  -25.5957  -33.8487   24.2122 N   0  0  0  0  0  0
  -23.4529  -30.4556   21.5264 C   0  0  2  0  0  0
  -24.9043  -28.8743   20.1029 C   0  0  0  0  0  0
  -22.7590  -29.4511   22.4803 C   0  0  0  0  0  0
  -18.0298  -28.1403   22.8457 C   0  0  0  0  0  0
  -24.1489  -36.7263   23.2640 C   0  0  0  0  0  0
  -26.0113  -30.6966   21.3870 C   0  0  0  0  0  0
  -26.0794  -29.3024   20.7314 C   0  0  0  0  0  0
  -27.2293  -28.4202   20.7490 C   0  0  0  0  0  0
  -26.0163  -26.7719   19.4828 C   0  0  0  0  0  0
  -24.8891  -27.6251   19.4637 C   0  0  0  0  0  0
  -23.6826  -29.7818   20.1459 C   0  0  0  0  0  0
  -25.4124  -36.3030   24.0299 C   0  0  1  0  0  0
  -20.5922  -28.3732   23.1213 C   0  0  2  0  0  0
  -20.6789  -26.9425   22.5405 C   0  0  0  0  0  0
  -19.5764  -26.6376   21.5217 C   0  0  0  0  0  0
  -18.1934  -26.7931   22.1613 C   0  0  0  0  0  0
  -19.1565  -28.8885   23.2821 C   0  0  0  0  0  0
  -18.9487  -30.1477   23.8845 C   0  0  0  0  0  0
  -17.6490  -30.6592   24.0553 C   0  0  0  0  0  0
  -25.9081  -34.9408   23.5024 C   0  0  0  0  0  0
  -16.5374  -29.9088   23.6346 C   0  0  0  0  0  0
  -16.7288  -28.6515   23.0337 C   0  0  0  0  0  0
  -26.4520  -31.6560   25.0669 C   0  0  0  0  0  0
  -25.3674  -31.3787   26.1342 C   0  0  0  0  0  0
  -27.0398  -30.2943   24.6310 C   0  0  0  0  0  0
  -27.6057  -32.4334   25.7448 C   0  0  0  0  0  0
  -27.5567  -37.1777   24.8458 C   0  0  0  0  0  0
  -21.4275  -29.3050   22.3584 N   0  0  0  0  0  0
  -26.4282  -37.3749   23.9399 N   0  0  0  0  0  0
  -24.7231  -31.0211   22.0857 N   0  0  0  0  0  0
  -23.4219  -28.8048   23.2957 O   0  0  0  0  0  0
  -28.2631  -26.0872   20.3128 O   0  0  0  0  0  0
  -26.5683  -34.8919   22.4614 O   0  0  0  0  0  0
  -23.5575  -32.1297   23.6999 O   0  0  0  0  0  0
  -31.6416  -17.3490   21.8967 C   0  0  0  0  0  0
  -32.5944  -18.2614   22.3202 C   0  0  0  0  0  0
  -30.3446  -19.2047   20.8751 C   0  0  0  0  0  0
  -30.5497  -17.6726   21.0457 C   0  0  0  0  0  0
  -31.4950  -19.9731   21.2613 C   0  0  0  0  0  0
  -29.1219  -20.2726   20.4330 C   0  0  0  0  0  0
  -31.6625  -21.4488   20.9470 C   0  0  0  0  0  0
  -30.4268  -22.2454   21.2875 C   0  0  0  0  0  0
  -29.6030  -24.6984   18.8444 C   0  0  0  0  0  0
  -28.2458  -23.0538   20.4555 C   0  0  0  0  0  0
  -28.3543  -24.6193   19.7322 C   0  0  1  0  0  0
  -32.5618  -19.5310   21.9436 N   0  0  0  0  0  0
  -29.9260  -16.3108   20.6220 N   0  0  0  0  0  0
  -29.3452  -21.8827   20.3621 N   0  3  2  0  0  0
  -31.4548  -12.7874   19.1902 H   0  0  0  0  0  0
  -30.4170  -11.7167   20.0788 H   0  0  0  0  0  0
  -29.8510  -11.7237   17.6179 H   0  0  0  0  0  0
  -29.5816  -13.4504   17.6738 H   0  0  0  0  0  0
  -27.9768  -11.2686   19.0335 H   0  0  0  0  0  0
  -27.3854  -12.3920   17.8359 H   0  0  0  0  0  0
  -27.5585  -14.2456   19.3646 H   0  0  0  0  0  0
  -28.7654  -12.4132   21.4959 H   0  0  0  0  0  0
  -28.3394  -14.0979   21.7073 H   0  0  0  0  0  0
  -25.2770   -9.5693   22.4777 H   0  0  0  0  0  0
  -24.0014   -7.4638   22.7473 H   0  0  0  0  0  0
  -21.0869   -8.8777   19.8942 H   0  0  0  0  0  0
  -22.3718  -10.9678   19.6175 H   0  0  0  0  0  0
  -21.2004   -7.6152   23.9717 H   0  0  0  0  0  0
  -21.1479   -6.0526   25.9074 H   0  0  0  0  0  0
  -22.0598   -2.7614   23.2836 H   0  0  0  0  0  0
  -22.4059  -11.9814   22.4809 H   0  0  0  0  0  0
  -21.1042  -13.1168   22.2684 H   0  0  0  0  0  0
  -24.6322  -15.8456   20.5208 H   0  0  0  0  0  0
  -26.2435  -15.6367   20.0565 H   0  0  0  0  0  0
  -26.7291  -32.5257   23.0926 H   0  0  0  0  0  0
  -25.0094  -33.9581   25.0264 H   0  0  0  0  0  0
  -22.7591  -31.2837   21.3665 H   0  0  0  0  0  0
  -23.3768  -35.9580   23.3272 H   0  0  0  0  0  0
  -24.3572  -36.8952   22.2063 H   0  0  0  0  0  0
  -23.7244  -37.6437   23.6726 H   0  0  0  0  0  0
  -26.1732  -31.4490   20.6128 H   0  0  0  0  0  0
  -26.8795  -30.7494   22.0321 H   0  0  0  0  0  0
  -28.1172  -28.7357   21.2797 H   0  0  0  0  0  0
  -25.8905  -25.8159   19.0014 H   0  0  0  0  0  0
  -23.9908  -27.2907   18.9612 H   0  0  0  0  0  0
  -23.8208  -30.5554   19.3907 H   0  0  0  0  0  0
  -22.7967  -29.2267   19.8304 H   0  0  0  0  0  0
  -25.1321  -36.1836   25.0795 H   0  0  0  0  0  0
  -21.0000  -28.3331   24.1339 H   0  0  0  0  0  0
  -20.5692  -26.2334   23.3628 H   0  0  0  0  0  0
  -21.6648  -26.7428   22.1193 H   0  0  0  0  0  0
  -19.6928  -25.6280   21.1265 H   0  0  0  0  0  0
  -19.6707  -27.3165   20.6740 H   0  0  0  0  0  0
  -17.4202  -26.6679   21.4004 H   0  0  0  0  0  0
  -18.0311  -26.0077   22.9023 H   0  0  0  0  0  0
  -19.7974  -30.7302   24.2165 H   0  0  0  0  0  0
  -17.5049  -31.6257   24.5188 H   0  0  0  0  0  0
  -15.5367  -30.2974   23.7709 H   0  0  0  0  0  0
  -15.8688  -28.0848   22.7046 H   0  0  0  0  0  0
  -24.5889  -30.7095   25.7654 H   0  0  0  0  0  0
  -24.8801  -32.2976   26.4615 H   0  0  0  0  0  0
  -25.7901  -30.9068   27.0221 H   0  0  0  0  0  0
  -26.3025  -29.6618   24.1351 H   0  0  0  0  0  0
  -27.4013  -29.7295   25.4912 H   0  0  0  0  0  0
  -27.8932  -30.4142   23.9633 H   0  0  0  0  0  0
  -27.2716  -33.3772   26.1775 H   0  0  0  0  0  0
  -28.3984  -32.6656   25.0323 H   0  0  0  0  0  0
  -28.0567  -31.8589   26.5546 H   0  0  0  0  0  0
  -28.2566  -38.0085   24.7520 H   0  0  0  0  0  0
  -28.1077  -36.2614   24.6283 H   0  0  0  0  0  0
  -27.2276  -37.1431   25.8855 H   0  0  0  0  0  0
  -20.9473  -29.8832   21.6836 H   0  0  0  0  0  0
  -26.0141  -38.2815   24.1418 H   0  0  0  0  0  0
  -31.8291  -16.3448   22.2454 H   0  0  0  0  0  0
  -33.4317  -17.9511   22.9276 H   0  0  0  0  0  0
  -28.3232  -20.1124   21.1581 H   0  0  0  0  0  0
  -28.7161  -19.9461   19.4768 H   0  0  0  0  0  0
  -31.9236  -21.5614   19.8939 H   0  0  0  0  0  0
  -32.5021  -21.8711   21.5017 H   0  0  0  0  0  0
  -30.6562  -23.3074   21.2195 H   0  0  0  0  0  0
  -30.1219  -22.0589   22.3186 H   0  0  0  0  0  0
  -29.6560  -23.8568   18.1560 H   0  0  0  0  0  0
  -30.5189  -24.7213   19.4317 H   0  0  0  0  0  0
  -29.5886  -25.6046   18.2372 H   0  0  0  0  0  0
  -27.3482  -22.6025   20.0323 H   0  0  0  0  0  0
  -27.9866  -23.1887   21.5071 H   0  0  0  0  0  0
  -27.5470  -24.5802   19.0056 H   0  0  0  0  0  0
  -28.9188  -16.2964   20.5681 H   0  0  0  0  0  0
  -29.7294  -22.0041   19.4366 H   0  0  0  0  0  0
  1 25  1  0  0  0
  1 30  2  0  0  0
  1 83  1  0  0  0
  2  3  1  0  0  0
  2 25  1  0  0  0
  2 85  1  0  0  0
  2 86  1  0  0  0
  3  4  1  0  0  0
  3 87  1  0  0  0
  3 88  1  0  0  0
  4  5  1  0  0  0
  4 89  1  0  0  0
  4 90  1  0  0  0
  5  6  1  0  0  0
  5 26  1  0  0  0
  5 91  1  0  0  0
  6 25  1  0  0  0
  6 92  1  0  0  0
  6 93  1  0  0  0
  7  8  2  0  0  0
  7 26  1  0  0  0
  7 29  1  0  0  0
  8  9  1  0  0  0
  8 22  1  0  0  0
  9 10  1  0  0  0
  9 27  2  0  0  0
 10 11  2  0  0  0
 10 15  1  0  0  0
 11 12  1  0  0  0
 11 94  1  0  0  0
 12 13  2  0  0  0
 12 95  1  0  0  0
 13 14  1  0  0  0
 13 31  1  0  0  0
 14 15  2  0  0  0
 14 96  1  0  0  0
 15 97  1  0  0  0
 16 17  2  0  0  0
 16 21  1  0  0  0
 16 31  1  0  0  0
 17 18  1  0  0  0
 17 98  1  0  0  0
 18 19  2  0  0  0
 18 99  1  0  0  0
 19 20  1  0  0  0
 19 24  1  0  0  0
 20 21  2  0  0  0
 20100  1  0  0  0
 21 23  1  0  0  0
 22 28  1  0  0  0
 22 32  2  0  0  0
 26 27  1  0  0  0
 28101  1  0  0  0
 28102  1  0  0  0
 29103  1  0  0  0
 29104  1  0  0  0
 33 34  1  0  0  0
 33 66  1  0  0  0
 33 70  2  0  0  0
 34 36  1  0  0  0
 34 59  1  0  0  0
 34105  1  0  0  0
 35 44  2  0  0  0
 35 45  1  0  0  0
 35 68  1  0  0  0
 36 56  1  0  0  0
 36106  1  0  0  0
 37 39  1  0  0  0
 37 47  1  0  0  0
 37 66  1  0  0  0
 37107  1  0  0  0
 38 43  2  0  0  0
 38 46  1  0  0  0
 38 47  1  0  0  0
 39 64  1  0  0  0
 39 67  2  0  0  0
 40 52  1  0  0  0
 40 53  2  0  0  0
 40 58  1  0  0  0
 41108  1  0  0  0
 41109  1  0  0  0
 41110  1  0  0  0
 41 48  1  0  0  0
 42 43  1  0  0  0
 42 66  1  0  0  0
 42111  1  0  0  0
 42112  1  0  0  0
 43 44  1  0  0  0
 44113  1  0  0  0
 45 46  2  0  0  0
 45114  1  0  0  0
 46115  1  0  0  0
 47116  1  0  0  0
 47117  1  0  0  0
 48 56  1  0  0  0
 48 65  1  0  0  0
 48118  1  0  0  0
 49 50  1  0  0  0
 49 53  1  0  0  0
 49 64  1  0  0  0
 49119  1  0  0  0
 50 51  1  0  0  0
 50120  1  0  0  0
 50121  1  0  0  0
 51 52  1  0  0  0
 51122  1  0  0  0
 51123  1  0  0  0
 52124  1  0  0  0
 52125  1  0  0  0
 53 54  1  0  0  0
 54 55  2  0  0  0
 54126  1  0  0  0
 55 57  1  0  0  0
 55127  1  0  0  0
 56 69  2  0  0  0
 57 58  2  0  0  0
 57128  1  0  0  0
 58129  1  0  0  0
 59 60  1  0  0  0
 59 61  1  0  0  0
 59 62  1  0  0  0
 60130  1  0  0  0
 60131  1  0  0  0
 60132  1  0  0  0
 61133  1  0  0  0
 61134  1  0  0  0
 61135  1  0  0  0
 62136  1  0  0  0
 62137  1  0  0  0
 62138  1  0  0  0
 63 65  1  0  0  0
 63139  1  0  0  0
 63140  1  0  0  0
 63141  1  0  0  0
 64142  1  0  0  0
 65143  1  0  0  0
 68 81  1  0  0  0
 71 72  2  0  0  0
 71 74  1  0  0  0
 71144  1  0  0  0
 72 82  1  0  0  0
 72145  1  0  0  0
 73 74  2  0  0  0
 73 75  1  0  0  0
 73 76  1  0  0  0
 74 83  1  0  0  0
 75 77  1  0  0  0
 75 82  2  0  0  0
 76 84  1  0  0  0
 76146  1  0  0  0
 76147  1  0  0  0
 77 78  1  0  0  0
 77148  1  0  0  0
 77149  1  0  0  0
 78 84  1  0  0  0
 78150  1  0  0  0
 78151  1  0  0  0
 79152  1  0  0  0
 79153  1  0  0  0
 79154  1  0  0  0
 79 81  1  0  0  0
 80 81  1  0  0  0
 80155  1  0  0  0
 80156  1  0  0  0
 80 84  1  0  0  0
 81157  1  0  0  0
 83158  1  0  0  0
 84159  1  0  0  0
M  CHG  1  84   1
M  ISO  4   1 100  68 101  81 101  83 100
M  END
> <chiral flag>
0

> <version>
0

> <s_m_source_file>
/data/baiqing/PycharmProjects/Reinvent-master-3.2/result/LINK_invent/BTK/process_docking_weight1_custom_sum_contain_oxygen_bond_distance_aromatic_linkinvent_7_9_3/rearranged_h_0122.sdf

> <i_m_source_file_index>
83

> <r_mmod_Potential_Energy-OPLS-2005>
644.476867675781

> <r_mmod_Stretch_Energy-OPLS-2005>
377.676513671875

> <r_mmod_Bend_Energy-OPLS-2005>
409.891906738281

> <r_mmod_Torsional_Energy-OPLS-2005>
286.475463867188

> <r_mmod_Improper_Torsional_Energy-OPLS-2005>
4.86320924758911

> <r_mmod_Van_der_Waal_Energy-OPLS-2005>
156.08332824707

> <r_mmod_Electrostatic_Energy-OPLS-2005>
-372.138824462891

> <r_mmod_Solvation_Energy-OPLS-2005>
-463.363555908203

> <b_mmod_Minimization_Converged-OPLS-2005>
0

> <r_mmod_RMS_Derivative-OPLS-2005>
2.30195021629333

$$$$
83
                    3D
 Structure written by MMmdl.
174183  0  0  1  0            999 V2000
  -30.6531  -14.6499   20.5432 C   0  0  0  0  0  0
  -30.4230  -12.4116   19.4616 C   0  0  0  0  0  0
  -29.5003  -12.5246   18.2281 C   0  0  0  0  0  0
  -28.0273  -12.3582   18.6398 C   0  0  0  0  0  0
  -27.6510  -13.2302   19.8651 C   0  0  2  0  0  0
  -28.6931  -13.1065   21.0002 C   0  0  0  0  0  0
  -25.2565  -13.8199   20.5730 C   0  0  0  0  0  0
  -24.1826  -13.0440   20.9189 C   0  0  0  0  0  0
  -24.6417  -11.6931   20.8756 C   0  0  0  0  0  0
  -23.9083  -10.4315   21.0440 C   0  0  0  0  0  0
  -24.3612   -9.4214   21.9191 C   0  0  0  0  0  0
  -23.6279   -8.2254   22.0756 C   0  0  0  0  0  0
  -22.4264   -8.0291   21.3552 C   0  0  0  0  0  0
  -21.9915   -9.0267   20.4640 C   0  0  0  0  0  0
  -22.7266  -10.2151   20.3067 C   0  0  0  0  0  0
  -21.6866   -6.0723   22.5279 C   0  0  0  0  0  0
  -21.4028   -6.5635   23.8207 C   0  0  0  0  0  0
  -21.3660   -5.6795   24.9171 C   0  0  0  0  0  0
  -21.6047   -4.3049   24.7229 C   0  0  0  0  0  0
  -21.8818   -3.8132   23.4361 C   0  0  0  0  0  0
  -21.9200   -4.6951   22.3413 C   0  0  0  0  0  0
  -22.7842  -13.5235   21.1828 C   0  0  0  0  0  0
  -22.1668   -4.2129   21.0993 F   0  0  0  0  0  0
  -21.5607   -3.4554   25.7750 F   0  0  0  0  0  0
  -30.0054  -13.4439   20.4368 N   0  0  0  0  0  0
  -26.2991  -12.9414   20.3339 N   0  0  0  0  0  0
  -25.9340  -11.6561   20.5784 N   0  0  0  0  0  0
  -22.0479  -12.8214   22.0377 N   0  0  0  0  0  0
  -25.4267  -15.1914   20.4187 N   0  0  0  0  0  0
  -31.7809  -14.8023   20.0608 O   0  0  0  0  0  0
  -21.6641   -6.8871   21.4242 O   0  0  0  0  0  0
  -22.3505  -14.5526   20.6674 O   0  0  0  0  0  0
  -24.6270  -31.8591   23.2021 C   0  0  0  0  0  0
  -25.9118  -32.4782   23.8342 C   0  0  1  0  0  0
  -27.2230  -27.3132   20.1197 C   0  0  0  0  0  0
  -25.5925  -33.8581   24.2271 N   0  0  0  0  0  0
  -23.4198  -30.4862   21.5438 C   0  0  2  0  0  0
  -24.8661  -28.9403   20.1093 C   0  0  0  0  0  0
  -22.7459  -29.4640   22.4901 C   0  0  0  0  0  0
  -18.0297  -28.1386   22.8491 C   0  0  0  0  0  0
  -24.1496  -36.7301   23.2638 C   0  0  0  0  0  0
  -25.9607  -30.7921   21.3704 C   0  0  0  0  0  0
  -26.0363  -29.4182   20.7138 C   0  0  0  0  0  0
  -27.2187  -28.6182   20.7065 C   0  0  0  0  0  0
  -26.0291  -26.8892   19.4942 C   0  0  0  0  0  0
  -24.8645  -27.6805   19.4907 C   0  0  0  0  0  0
  -23.6351  -29.8222   20.1585 C   0  0  0  0  0  0
  -25.4121  -36.3078   24.0327 C   0  0  1  0  0  0
  -20.5897  -28.3703   23.1276 C   0  0  2  0  0  0
  -20.6789  -26.9420   22.5415 C   0  0  0  0  0  0
  -19.5762  -26.6385   21.5214 C   0  0  0  0  0  0
  -18.1935  -26.7931   22.1610 C   0  0  0  0  0  0
  -19.1550  -28.8853   23.2890 C   0  0  0  0  0  0
  -18.9462  -30.1455   23.8909 C   0  0  0  0  0  0
  -17.6464  -30.6583   24.0560 C   0  0  0  0  0  0
  -25.9049  -34.9452   23.5097 C   0  0  0  0  0  0
  -16.5359  -29.9080   23.6328 C   0  0  0  0  0  0
  -16.7282  -28.6498   23.0352 C   0  0  0  0  0  0
  -26.4492  -31.6595   25.0716 C   0  0  0  0  0  0
  -25.3721  -31.3713   26.1442 C   0  0  0  0  0  0
  -27.0350  -30.3026   24.6163 C   0  0  0  0  0  0
  -27.6026  -32.4340   25.7509 C   0  0  0  0  0  0
  -27.5585  -37.1809   24.8450 C   0  0  0  0  0  0
  -21.4171  -29.3062   22.3638 N   0  0  0  0  0  0
  -26.4288  -37.3784   23.9409 N   0  0  0  0  0  0
  -24.6883  -31.0619   22.0955 N   0  0  0  0  0  0
  -23.4182  -28.8160   23.2975 O   0  0  0  0  0  0
  -28.3387  -26.4594   20.1710 O   0  0  0  0  0  0
  -26.5603  -34.8922   22.4651 O   0  0  0  0  0  0
  -23.5443  -32.1358   23.7371 O   0  0  0  0  0  0
  -29.9536  -17.5601   22.7103 C   0  0  0  0  0  0
  -30.4265  -16.1178   22.4645 C   0  0  0  0  0  0
  -30.0312  -21.9635   21.6855 C   0  0  0  0  0  0
  -29.5393  -16.9983   20.4541 C   0  0  0  0  0  0
  -28.8809  -21.5757   19.7366 C   0  0  0  0  0  0
  -29.5648  -20.6228   22.3322 C   0  0  0  0  0  0
  -29.9380  -18.2533   21.3407 C   0  0  1  0  0  0
  -28.3641  -20.1406   20.2049 C   0  0  2  0  0  0
  -25.9306  -20.6121   19.4334 C   0  0  0  0  0  0
  -26.3184  -18.9068   21.2283 C   0  0  0  0  0  0
  -30.4229  -24.1152   19.4095 C   0  0  0  0  0  0
  -28.1106  -24.9925   20.0980 C   0  0  0  0  0  0
  -26.8527  -20.2135   20.6029 C   0  0  0  0  0  0
  -29.3187  -24.0221   20.4776 C   0  0  1  0  0  0
  -29.9887  -15.7150   21.1238 N   0  0  0  0  0  0
  -28.9974  -22.5785   20.8272 N   0  0  0  0  0  0
  -29.1196  -19.5610   21.3710 N   0  3  2  0  0  0
  -31.4679  -12.5102   19.1632 H   0  0  0  0  0  0
  -30.3368  -11.4231   19.9135 H   0  0  0  0  0  0
  -29.7634  -11.7770   17.4793 H   0  0  0  0  0  0
  -29.6414  -13.4959   17.7515 H   0  0  0  0  0  0
  -27.8633  -11.3061   18.8700 H   0  0  0  0  0  0
  -27.3754  -12.5931   17.7991 H   0  0  0  0  0  0
  -27.6652  -14.2641   19.5189 H   0  0  0  0  0  0
  -28.7076  -12.0972   21.4120 H   0  0  0  0  0  0
  -28.4351  -13.7653   21.8308 H   0  0  0  0  0  0
  -25.2774   -9.5663   22.4732 H   0  0  0  0  0  0
  -23.9983   -7.4656   22.7496 H   0  0  0  0  0  0
  -21.0835   -8.8796   19.8956 H   0  0  0  0  0  0
  -22.3734  -10.9666   19.6142 H   0  0  0  0  0  0
  -21.2042   -7.6149   23.9692 H   0  0  0  0  0  0
  -21.1467   -6.0541   25.9066 H   0  0  0  0  0  0
  -22.0600   -2.7597   23.2891 H   0  0  0  0  0  0
  -22.4138  -11.9888   22.4778 H   0  0  0  0  0  0
  -21.1080  -13.1196   22.2575 H   0  0  0  0  0  0
  -24.6619  -15.8492   20.5214 H   0  0  0  0  0  0
  -26.2803  -15.6237   20.0933 H   0  0  0  0  0  0
  -26.7192  -32.5468   23.1099 H   0  0  0  0  0  0
  -25.0086  -33.9710   25.0428 H   0  0  0  0  0  0
  -22.7139  -31.3085   21.4026 H   0  0  0  0  0  0
  -23.3766  -35.9624   23.3260 H   0  0  0  0  0  0
  -24.3589  -36.8969   22.2063 H   0  0  0  0  0  0
  -23.7247  -37.6490   23.6691 H   0  0  0  0  0  0
  -26.0927  -31.5527   20.6002 H   0  0  0  0  0  0
  -26.8416  -30.8416   21.9995 H   0  0  0  0  0  0
  -28.1158  -28.9797   21.1894 H   0  0  0  0  0  0
  -25.9644  -25.9267   19.0094 H   0  0  0  0  0  0
  -23.9676  -27.3094   19.0143 H   0  0  0  0  0  0
  -23.7556  -30.6014   19.4050 H   0  0  0  0  0  0
  -22.7525  -29.2567   19.8535 H   0  0  0  0  0  0
  -25.1306  -36.1912   25.0824 H   0  0  0  0  0  0
  -21.0017  -28.3308   24.1386 H   0  0  0  0  0  0
  -20.5705  -26.2308   23.3615 H   0  0  0  0  0  0
  -21.6654  -26.7447   22.1206 H   0  0  0  0  0  0
  -19.6917  -25.6292   21.1251 H   0  0  0  0  0  0
  -19.6703  -27.3192   20.6742 H   0  0  0  0  0  0
  -17.4212  -26.6715   21.4002 H   0  0  0  0  0  0
  -18.0303  -26.0073   22.8995 H   0  0  0  0  0  0
  -19.7940  -30.7266   24.2292 H   0  0  0  0  0  0
  -17.5018  -31.6272   24.5151 H   0  0  0  0  0  0
  -15.5358  -30.2977   23.7644 H   0  0  0  0  0  0
  -15.8690  -28.0810   22.7061 H   0  0  0  0  0  0
  -24.5914  -30.7048   25.7761 H   0  0  0  0  0  0
  -24.8910  -32.2882   26.4857 H   0  0  0  0  0  0
  -25.8074  -30.8898   27.0211 H   0  0  0  0  0  0
  -26.2924  -29.6781   24.1187 H   0  0  0  0  0  0
  -27.4054  -29.7287   25.4667 H   0  0  0  0  0  0
  -27.8787  -30.4339   23.9382 H   0  0  0  0  0  0
  -27.2591  -33.3613   26.2113 H   0  0  0  0  0  0
  -28.3826  -32.6955   25.0340 H   0  0  0  0  0  0
  -28.0704  -31.8456   26.5415 H   0  0  0  0  0  0
  -28.2571  -38.0139   24.7537 H   0  0  0  0  0  0
  -28.1112  -36.2667   24.6220 H   0  0  0  0  0  0
  -27.2297  -37.1394   25.8850 H   0  0  0  0  0  0
  -20.9298  -29.8797   21.6886 H   0  0  0  0  0  0
  -26.0155  -38.2854   24.1432 H   0  0  0  0  0  0
  -30.5808  -18.0629   23.4454 H   0  0  0  0  0  0
  -28.9408  -17.5318   23.1163 H   0  0  0  0  0  0
  -30.0406  -15.4381   23.2263 H   0  0  0  0  0  0
  -31.5185  -16.0809   22.5248 H   0  0  0  0  0  0
  -30.9579  -21.7936   21.1323 H   0  0  0  0  0  0
  -30.2935  -22.6499   22.4927 H   0  0  0  0  0  0
  -29.9667  -17.0818   19.4543 H   0  0  0  0  0  0
  -28.4589  -16.9396   20.3314 H   0  0  0  0  0  0
  -28.2248  -21.9805   18.9658 H   0  0  0  0  0  0
  -29.8445  -21.4515   19.2363 H   0  0  0  0  0  0
  -28.7272  -20.8333   22.9990 H   0  0  0  0  0  0
  -30.3596  -20.2514   22.9776 H   0  0  0  0  0  0
  -30.9603  -18.5284   21.0801 H   0  0  0  0  0  0
  -28.4642  -19.4508   19.3643 H   0  0  0  0  0  0
  -26.1366  -21.6141   19.0608 H   0  0  0  0  0  0
  -24.8860  -20.6179   19.7472 H   0  0  0  0  0  0
  -26.0229  -19.9146   18.5995 H   0  0  0  0  0  0
  -26.8290  -18.6358   22.1532 H   0  0  0  0  0  0
  -26.3992  -18.0705   20.5351 H   0  0  0  0  0  0
  -25.2638  -19.0088   21.4901 H   0  0  0  0  0  0
  -30.7785  -25.1423   19.3219 H   0  0  0  0  0  0
  -30.0547  -23.8217   18.4264 H   0  0  0  0  0  0
  -31.2880  -23.4961   19.6439 H   0  0  0  0  0  0
  -27.2686  -24.7516   20.7487 H   0  0  0  0  0  0
  -27.7974  -24.7414   19.0839 H   0  0  0  0  0  0
  -26.7400  -20.9912   21.3623 H   0  0  0  0  0  0
  -29.7212  -24.4582   21.3954 H   0  0  0  0  0  0
  -28.3120  -19.2080   21.8630 H   0  0  0  0  0  0
  1 25  1  0  0  0
  1 30  2  0  0  0
  1 85  1  0  0  0
  2  3  1  0  0  0
  2 25  1  0  0  0
  2 88  1  0  0  0
  2 89  1  0  0  0
  3  4  1  0  0  0
  3 90  1  0  0  0
  3 91  1  0  0  0
  4  5  1  0  0  0
  4 92  1  0  0  0
  4 93  1  0  0  0
  5  6  1  0  0  0
  5 26  1  0  0  0
  5 94  1  0  0  0
  6 25  1  0  0  0
  6 95  1  0  0  0
  6 96  1  0  0  0
  7  8  2  0  0  0
  7 26  1  0  0  0
  7 29  1  0  0  0
  8  9  1  0  0  0
  8 22  1  0  0  0
  9 10  1  0  0  0
  9 27  2  0  0  0
 10 11  2  0  0  0
 10 15  1  0  0  0
 11 12  1  0  0  0
 11 97  1  0  0  0
 12 13  2  0  0  0
 12 98  1  0  0  0
 13 14  1  0  0  0
 13 31  1  0  0  0
 14 15  2  0  0  0
 14 99  1  0  0  0
 15100  1  0  0  0
 16 17  2  0  0  0
 16 21  1  0  0  0
 16 31  1  0  0  0
 17 18  1  0  0  0
 17101  1  0  0  0
 18 19  2  0  0  0
 18102  1  0  0  0
 19 20  1  0  0  0
 19 24  1  0  0  0
 20 21  2  0  0  0
 20103  1  0  0  0
 21 23  1  0  0  0
 22 28  1  0  0  0
 22 32  2  0  0  0
 26 27  1  0  0  0
 28104  1  0  0  0
 28105  1  0  0  0
 29106  1  0  0  0
 29107  1  0  0  0
 33 34  1  0  0  0
 33 66  1  0  0  0
 33 70  2  0  0  0
 34 36  1  0  0  0
 34 59  1  0  0  0
 34108  1  0  0  0
 35 44  2  0  0  0
 35 45  1  0  0  0
 35 68  1  0  0  0
 36 56  1  0  0  0
 36109  1  0  0  0
 37 39  1  0  0  0
 37 47  1  0  0  0
 37 66  1  0  0  0
 37110  1  0  0  0
 38 43  2  0  0  0
 38 46  1  0  0  0
 38 47  1  0  0  0
 39 64  1  0  0  0
 39 67  2  0  0  0
 40 52  1  0  0  0
 40 53  2  0  0  0
 40 58  1  0  0  0
 41111  1  0  0  0
 41112  1  0  0  0
 41113  1  0  0  0
 41 48  1  0  0  0
 42 43  1  0  0  0
 42 66  1  0  0  0
 42114  1  0  0  0
 42115  1  0  0  0
 43 44  1  0  0  0
 44116  1  0  0  0
 45 46  2  0  0  0
 45117  1  0  0  0
 46118  1  0  0  0
 47119  1  0  0  0
 47120  1  0  0  0
 48 56  1  0  0  0
 48 65  1  0  0  0
 48121  1  0  0  0
 49 50  1  0  0  0
 49 53  1  0  0  0
 49 64  1  0  0  0
 49122  1  0  0  0
 50 51  1  0  0  0
 50123  1  0  0  0
 50124  1  0  0  0
 51 52  1  0  0  0
 51125  1  0  0  0
 51126  1  0  0  0
 52127  1  0  0  0
 52128  1  0  0  0
 53 54  1  0  0  0
 54 55  2  0  0  0
 54129  1  0  0  0
 55 57  1  0  0  0
 55130  1  0  0  0
 56 69  2  0  0  0
 57 58  2  0  0  0
 57131  1  0  0  0
 58132  1  0  0  0
 59 60  1  0  0  0
 59 61  1  0  0  0
 59 62  1  0  0  0
 60133  1  0  0  0
 60134  1  0  0  0
 60135  1  0  0  0
 61136  1  0  0  0
 61137  1  0  0  0
 61138  1  0  0  0
 62139  1  0  0  0
 62140  1  0  0  0
 62141  1  0  0  0
 63 65  1  0  0  0
 63142  1  0  0  0
 63143  1  0  0  0
 63144  1  0  0  0
 64145  1  0  0  0
 65146  1  0  0  0
 68 82  1  0  0  0
 71 72  1  0  0  0
 71147  1  0  0  0
 71148  1  0  0  0
 71 77  1  0  0  0
 72 85  1  0  0  0
 72149  1  0  0  0
 72150  1  0  0  0
 73 76  1  0  0  0
 73 86  1  0  0  0
 73151  1  0  0  0
 73152  1  0  0  0
 74 77  1  0  0  0
 74 85  1  0  0  0
 74153  1  0  0  0
 74154  1  0  0  0
 75 86  1  0  0  0
 75155  1  0  0  0
 75156  1  0  0  0
 75 78  1  0  0  0
 76157  1  0  0  0
 76158  1  0  0  0
 76 87  1  0  0  0
 77 87  1  0  0  0
 77159  1  0  0  0
 78 83  1  0  0  0
 78 87  1  0  0  0
 78160  1  0  0  0
 79161  1  0  0  0
 79162  1  0  0  0
 79163  1  0  0  0
 79 83  1  0  0  0
 80 83  1  0  0  0
 80164  1  0  0  0
 80165  1  0  0  0
 80166  1  0  0  0
 81167  1  0  0  0
 81168  1  0  0  0
 81169  1  0  0  0
 81 84  1  0  0  0
 82 84  1  0  0  0
 82170  1  0  0  0
 82171  1  0  0  0
 83172  1  0  0  0
 84 86  1  0  0  0
 84173  1  0  0  0
 87174  1  0  0  0
M  CHG  1  87   1
M  ISO  4   1 100  68 101  82 101  85 100
M  END
> <chiral flag>
0

> <version>
0

> <s_m_source_file>
/data/baiqing/PycharmProjects/Reinvent-master-3.2/result/LINK_invent/BTK/process_docking_weight1_custom_sum_contain_oxygen_bond_distance_aromatic_linkinvent_7_9_3/rearranged_h_0122.sdf

> <i_m_source_file_index>
84

> <r_mmod_Potential_Energy-OPLS-2005>
339.186737060547

> <r_mmod_Stretch_Energy-OPLS-2005>
97.3151245117188

> <r_mmod_Bend_Energy-OPLS-2005>
218.25276184082

> <r_mmod_Torsional_Energy-OPLS-2005>
396.003753662109

> <r_mmod_Improper_Torsional_Energy-OPLS-2005>
5.77075481414795

> <r_mmod_Van_der_Waal_Energy-OPLS-2005>
127.059288024902

> <r_mmod_Electrostatic_Energy-OPLS-2005>
-142.006607055664

> <r_mmod_Solvation_Energy-OPLS-2005>
-414.029815673828

> <b_mmod_Minimization_Converged-OPLS-2005>
0

> <r_mmod_RMS_Derivative-OPLS-2005>
3.35325407981873

$$$$
84
                    3D
 Structure written by MMmdl.
172181  0  0  1  0            999 V2000
  -30.7367  -14.5068   20.5648 C   0  0  0  0  0  0
  -30.4145  -12.3330   19.4292 C   0  0  0  0  0  0
  -29.4900  -12.5019   18.2079 C   0  0  0  0  0  0
  -28.0145  -12.3599   18.6250 C   0  0  0  0  0  0
  -27.6562  -13.2201   19.8676 C   0  0  2  0  0  0
  -28.7031  -13.0531   20.9922 C   0  0  0  0  0  0
  -25.2565  -13.8190   20.5699 C   0  0  0  0  0  0
  -24.1832  -13.0448   20.9182 C   0  0  0  0  0  0
  -24.6408  -11.6923   20.8746 C   0  0  0  0  0  0
  -23.9081  -10.4297   21.0407 C   0  0  0  0  0  0
  -24.3626   -9.4204   21.9187 C   0  0  0  0  0  0
  -23.6295   -8.2244   22.0759 C   0  0  0  0  0  0
  -22.4277   -8.0283   21.3543 C   0  0  0  0  0  0
  -21.9915   -9.0263   20.4651 C   0  0  0  0  0  0
  -22.7255  -10.2139   20.3059 C   0  0  0  0  0  0
  -21.6859   -6.0735   22.5282 C   0  0  0  0  0  0
  -21.4014   -6.5640   23.8216 C   0  0  0  0  0  0
  -21.3656   -5.6791   24.9178 C   0  0  0  0  0  0
  -21.6045   -4.3055   24.7226 C   0  0  0  0  0  0
  -21.8820   -3.8147   23.4350 C   0  0  0  0  0  0
  -21.9192   -4.6963   22.3407 C   0  0  0  0  0  0
  -22.7851  -13.5231   21.1841 C   0  0  0  0  0  0
  -22.1662   -4.2146   21.0984 F   0  0  0  0  0  0
  -21.5624   -3.4539   25.7740 F   0  0  0  0  0  0
  -30.0260  -13.3510   20.4223 N   0  0  0  0  0  0
  -26.3012  -12.9386   20.3370 N   0  0  0  0  0  0
  -25.9337  -11.6531   20.5788 N   0  0  0  0  0  0
  -22.0496  -12.8224   22.0398 N   0  0  0  0  0  0
  -25.4272  -15.1910   20.4112 N   0  0  0  0  0  0
  -31.8737  -14.6189   20.1047 O   0  0  0  0  0  0
  -21.6644   -6.8878   21.4244 O   0  0  0  0  0  0
  -22.3533  -14.5539   20.6694 O   0  0  0  0  0  0
  -24.6232  -31.8662   23.2127 C   0  0  0  0  0  0
  -25.9108  -32.4804   23.8415 C   0  0  1  0  0  0
  -27.2033  -27.3597   20.0759 C   0  0  0  0  0  0
  -25.5963  -33.8609   24.2342 N   0  0  0  0  0  0
  -23.4118  -30.5020   21.5546 C   0  0  2  0  0  0
  -24.8508  -28.9793   20.1095 C   0  0  0  0  0  0
  -22.7455  -29.4689   22.4940 C   0  0  0  0  0  0
  -18.0298  -28.1377   22.8491 C   0  0  0  0  0  0
  -24.1487  -36.7296   23.2633 C   0  0  0  0  0  0
  -25.9569  -30.8036   21.3868 C   0  0  0  0  0  0
  -26.0241  -29.4397   20.7206 C   0  0  0  0  0  0
  -27.2012  -28.6362   20.7114 C   0  0  0  0  0  0
  -26.0050  -26.9745   19.4159 C   0  0  0  0  0  0
  -24.8408  -27.7463   19.4561 C   0  0  0  0  0  0
  -23.6211  -29.8552   20.1648 C   0  0  0  0  0  0
  -25.4107  -36.3102   24.0335 C   0  0  1  0  0  0
  -20.5893  -28.3689   23.1278 C   0  0  2  0  0  0
  -20.6789  -26.9416   22.5401 C   0  0  0  0  0  0
  -19.5757  -26.6381   21.5210 C   0  0  0  0  0  0
  -18.1938  -26.7927   22.1624 C   0  0  0  0  0  0
  -19.1544  -28.8850   23.2886 C   0  0  0  0  0  0
  -18.9459  -30.1456   23.8896 C   0  0  0  0  0  0
  -17.6461  -30.6586   24.0558 C   0  0  0  0  0  0
  -25.9047  -34.9467   23.5129 C   0  0  0  0  0  0
  -16.5353  -29.9084   23.6329 C   0  0  0  0  0  0
  -16.7277  -28.6494   23.0356 C   0  0  0  0  0  0
  -26.4502  -31.6593   25.0764 C   0  0  0  0  0  0
  -25.3746  -31.3716   26.1497 C   0  0  0  0  0  0
  -27.0336  -30.3017   24.6212 C   0  0  0  0  0  0
  -27.6088  -32.4308   25.7505 C   0  0  0  0  0  0
  -27.5574  -37.1809   24.8465 C   0  0  0  0  0  0
  -21.4177  -29.3066   22.3677 N   0  0  0  0  0  0
  -26.4289  -37.3793   23.9409 N   0  0  0  0  0  0
  -24.6830  -31.0717   22.1070 N   0  0  0  0  0  0
  -23.4198  -28.8184   23.2970 O   0  0  0  0  0  0
  -28.3031  -26.4900   20.1285 O   0  0  0  0  0  0
  -26.5572  -34.8916   22.4669 O   0  0  0  0  0  0
  -23.5410  -32.1426   23.7494 O   0  0  0  0  0  0
  -29.4197  -21.5622   19.3936 C   0  0  0  0  0  0
  -28.9810  -22.8665   19.0640 C   0  0  0  0  0  0
  -29.6833  -22.2623   21.6920 C   0  0  0  0  0  0
  -29.7595  -21.2292   20.7238 C   0  0  0  0  0  0
  -28.8542  -23.8884   20.0392 C   0  0  0  0  0  0
  -29.2291  -23.5714   21.3700 C   0  0  0  0  0  0
  -29.0813  -18.9301   21.7365 C   0  0  0  0  0  0
  -30.8373  -18.9263   20.0509 C   0  0  0  0  0  0
  -29.6466  -17.6771   22.4562 C   0  0  0  0  0  0
  -31.5159  -17.6639   20.6444 C   0  0  0  0  0  0
  -30.2020  -19.8025   21.1446 C   0  0  1  0  0  0
  -30.7292  -16.8073   21.7151 C   0  0  1  0  0  0
  -29.0810  -24.5971   22.4777 C   0  0  0  0  0  0
  -32.3615  -15.0106   24.8816 C   0  0  0  0  0  0
  -28.0262  -25.1339   19.6463 C   0  0  0  0  0  0
  -31.7681  -16.3631   22.7980 C   0  0  0  0  0  0
  -31.2422  -15.4477   23.9274 C   0  0  0  0  0  0
  -30.1164  -15.5560   21.1653 N   0  0  0  0  0  0
  -31.4588  -12.4154   19.1223 H   0  0  0  0  0  0
  -30.3110  -11.3341   19.8545 H   0  0  0  0  0  0
  -29.7335  -11.7609   17.4447 H   0  0  0  0  0  0
  -29.6527  -13.4790   17.7501 H   0  0  0  0  0  0
  -27.8340  -11.3063   18.8397 H   0  0  0  0  0  0
  -27.3600  -12.6134   17.7903 H   0  0  0  0  0  0
  -27.6840  -14.2615   19.5452 H   0  0  0  0  0  0
  -28.6901  -12.0322   21.3770 H   0  0  0  0  0  0
  -28.4660  -13.6930   21.8429 H   0  0  0  0  0  0
  -25.2771   -9.5678   22.4762 H   0  0  0  0  0  0
  -24.0004   -7.4633   22.7476 H   0  0  0  0  0  0
  -21.0845   -8.8783   19.8960 H   0  0  0  0  0  0
  -22.3713  -10.9675   19.6166 H   0  0  0  0  0  0
  -21.2008   -7.6148   23.9718 H   0  0  0  0  0  0
  -21.1475   -6.0524   25.9078 H   0  0  0  0  0  0
  -22.0600   -2.7609   23.2856 H   0  0  0  0  0  0
  -22.4110  -11.9885   22.4788 H   0  0  0  0  0  0
  -21.1115  -13.1253   22.2607 H   0  0  0  0  0  0
  -24.6624  -15.8475   20.5229 H   0  0  0  0  0  0
  -26.2830  -15.6315   20.0978 H   0  0  0  0  0  0
  -26.7185  -32.5470   23.1166 H   0  0  0  0  0  0
  -25.0219  -33.9775   25.0560 H   0  0  0  0  0  0
  -22.7067  -31.3249   21.4212 H   0  0  0  0  0  0
  -23.3757  -35.9627   23.3309 H   0  0  0  0  0  0
  -24.3584  -36.8880   22.2045 H   0  0  0  0  0  0
  -23.7221  -37.6502   23.6631 H   0  0  0  0  0  0
  -26.0969  -31.5727   20.6258 H   0  0  0  0  0  0
  -26.8369  -30.8379   22.0175 H   0  0  0  0  0  0
  -28.0953  -28.9791   21.2123 H   0  0  0  0  0  0
  -25.9036  -26.0627   18.8491 H   0  0  0  0  0  0
  -23.9474  -27.3923   18.9616 H   0  0  0  0  0  0
  -23.7397  -30.6394   19.4166 H   0  0  0  0  0  0
  -22.7401  -29.2894   19.8546 H   0  0  0  0  0  0
  -25.1277  -36.1986   25.0829 H   0  0  0  0  0  0
  -20.9986  -28.3261   24.1390 H   0  0  0  0  0  0
  -20.5719  -26.2288   23.3598 H   0  0  0  0  0  0
  -21.6651  -26.7457   22.1162 H   0  0  0  0  0  0
  -19.6923  -25.6294   21.1235 H   0  0  0  0  0  0
  -19.6691  -27.3196   20.6751 H   0  0  0  0  0  0
  -17.4202  -26.6697   21.4034 H   0  0  0  0  0  0
  -18.0338  -26.0063   22.9017 H   0  0  0  0  0  0
  -19.7942  -30.7284   24.2252 H   0  0  0  0  0  0
  -17.5014  -31.6263   24.5175 H   0  0  0  0  0  0
  -15.5360  -30.2983   23.7655 H   0  0  0  0  0  0
  -15.8681  -28.0809   22.7070 H   0  0  0  0  0  0
  -24.5958  -30.7003   25.7842 H   0  0  0  0  0  0
  -24.8877  -32.2863   26.4902 H   0  0  0  0  0  0
  -25.8090  -30.8933   27.0286 H   0  0  0  0  0  0
  -26.2900  -29.6783   24.1233 H   0  0  0  0  0  0
  -27.4014  -29.7267   25.4720 H   0  0  0  0  0  0
  -27.8796  -30.4276   23.9447 H   0  0  0  0  0  0
  -27.2741  -33.3647   26.2035 H   0  0  0  0  0  0
  -28.3924  -32.6795   25.0331 H   0  0  0  0  0  0
  -28.0731  -31.8443   26.5442 H   0  0  0  0  0  0
  -28.2605  -38.0099   24.7517 H   0  0  0  0  0  0
  -28.1061  -36.2630   24.6299 H   0  0  0  0  0  0
  -27.2289  -37.1448   25.8868 H   0  0  0  0  0  0
  -20.9335  -29.8814   21.6921 H   0  0  0  0  0  0
  -26.0185  -38.2876   24.1421 H   0  0  0  0  0  0
  -29.4572  -20.8102   18.6170 H   0  0  0  0  0  0
  -28.6595  -23.0529   18.0487 H   0  0  0  0  0  0
  -29.9421  -22.0294   22.7158 H   0  0  0  0  0  0
  -28.5054  -19.5137   22.4551 H   0  0  0  0  0  0
  -28.3771  -18.6366   20.9577 H   0  0  0  0  0  0
  -30.0893  -18.6325   19.3137 H   0  0  0  0  0  0
  -31.5884  -19.5016   19.5079 H   0  0  0  0  0  0
  -28.8204  -17.0506   22.7945 H   0  0  0  0  0  0
  -30.0827  -18.0636   23.3781 H   0  0  0  0  0  0
  -32.4350  -18.0282   21.1065 H   0  0  0  0  0  0
  -31.8701  -17.0540   19.8164 H   0  0  0  0  0  0
  -30.9561  -19.9617   21.9174 H   0  0  0  0  0  0
  -29.4857  -24.2264   23.4200 H   0  0  0  0  0  0
  -28.0295  -24.8380   22.6324 H   0  0  0  0  0  0
  -29.6129  -25.5143   22.2241 H   0  0  0  0  0  0
  -31.9758  -14.3645   25.6708 H   0  0  0  0  0  0
  -32.8345  -15.8698   25.3589 H   0  0  0  0  0  0
  -33.1384  -14.4553   24.3529 H   0  0  0  0  0  0
  -27.0581  -24.8091   20.0298 H   0  0  0  0  0  0
  -27.9539  -25.1747   18.5573 H   0  0  0  0  0  0
  -32.2095  -17.2489   23.2601 H   0  0  0  0  0  0
  -32.6074  -15.8612   22.3144 H   0  0  0  0  0  0
  -30.4720  -15.9633   24.5010 H   0  0  0  0  0  0
  -30.7686  -14.5548   23.5188 H   0  0  0  0  0  0
  -29.1537  -15.3919   21.4157 H   0  0  0  0  0  0
  1 25  1  0  0  0
  1 30  2  0  0  0
  1 88  1  0  0  0
  2  3  1  0  0  0
  2 25  1  0  0  0
  2 89  1  0  0  0
  2 90  1  0  0  0
  3  4  1  0  0  0
  3 91  1  0  0  0
  3 92  1  0  0  0
  4  5  1  0  0  0
  4 93  1  0  0  0
  4 94  1  0  0  0
  5  6  1  0  0  0
  5 26  1  0  0  0
  5 95  1  0  0  0
  6 25  1  0  0  0
  6 96  1  0  0  0
  6 97  1  0  0  0
  7  8  2  0  0  0
  7 26  1  0  0  0
  7 29  1  0  0  0
  8  9  1  0  0  0
  8 22  1  0  0  0
  9 10  1  0  0  0
  9 27  2  0  0  0
 10 11  2  0  0  0
 10 15  1  0  0  0
 11 12  1  0  0  0
 11 98  1  0  0  0
 12 13  2  0  0  0
 12 99  1  0  0  0
 13 14  1  0  0  0
 13 31  1  0  0  0
 14 15  2  0  0  0
 14100  1  0  0  0
 15101  1  0  0  0
 16 17  2  0  0  0
 16 21  1  0  0  0
 16 31  1  0  0  0
 17 18  1  0  0  0
 17102  1  0  0  0
 18 19  2  0  0  0
 18103  1  0  0  0
 19 20  1  0  0  0
 19 24  1  0  0  0
 20 21  2  0  0  0
 20104  1  0  0  0
 21 23  1  0  0  0
 22 28  1  0  0  0
 22 32  2  0  0  0
 26 27  1  0  0  0
 28105  1  0  0  0
 28106  1  0  0  0
 29107  1  0  0  0
 29108  1  0  0  0
 33 34  1  0  0  0
 33 66  1  0  0  0
 33 70  2  0  0  0
 34 36  1  0  0  0
 34 59  1  0  0  0
 34109  1  0  0  0
 35 44  2  0  0  0
 35 45  1  0  0  0
 35 68  1  0  0  0
 36 56  1  0  0  0
 36110  1  0  0  0
 37 39  1  0  0  0
 37 47  1  0  0  0
 37 66  1  0  0  0
 37111  1  0  0  0
 38 43  2  0  0  0
 38 46  1  0  0  0
 38 47  1  0  0  0
 39 64  1  0  0  0
 39 67  2  0  0  0
 40 52  1  0  0  0
 40 53  2  0  0  0
 40 58  1  0  0  0
 41112  1  0  0  0
 41113  1  0  0  0
 41114  1  0  0  0
 41 48  1  0  0  0
 42 43  1  0  0  0
 42 66  1  0  0  0
 42115  1  0  0  0
 42116  1  0  0  0
 43 44  1  0  0  0
 44117  1  0  0  0
 45 46  2  0  0  0
 45118  1  0  0  0
 46119  1  0  0  0
 47120  1  0  0  0
 47121  1  0  0  0
 48 56  1  0  0  0
 48 65  1  0  0  0
 48122  1  0  0  0
 49 50  1  0  0  0
 49 53  1  0  0  0
 49 64  1  0  0  0
 49123  1  0  0  0
 50 51  1  0  0  0
 50124  1  0  0  0
 50125  1  0  0  0
 51 52  1  0  0  0
 51126  1  0  0  0
 51127  1  0  0  0
 52128  1  0  0  0
 52129  1  0  0  0
 53 54  1  0  0  0
 54 55  2  0  0  0
 54130  1  0  0  0
 55 57  1  0  0  0
 55131  1  0  0  0
 56 69  2  0  0  0
 57 58  2  0  0  0
 57132  1  0  0  0
 58133  1  0  0  0
 59 60  1  0  0  0
 59 61  1  0  0  0
 59 62  1  0  0  0
 60134  1  0  0  0
 60135  1  0  0  0
 60136  1  0  0  0
 61137  1  0  0  0
 61138  1  0  0  0
 61139  1  0  0  0
 62140  1  0  0  0
 62141  1  0  0  0
 62142  1  0  0  0
 63 65  1  0  0  0
 63143  1  0  0  0
 63144  1  0  0  0
 63145  1  0  0  0
 64146  1  0  0  0
 65147  1  0  0  0
 68 85  1  0  0  0
 71 72  2  0  0  0
 71 74  1  0  0  0
 71148  1  0  0  0
 72 75  1  0  0  0
 72149  1  0  0  0
 73 74  2  0  0  0
 73 76  1  0  0  0
 73150  1  0  0  0
 74 81  1  0  0  0
 75 76  2  0  0  0
 75 85  1  0  0  0
 76 83  1  0  0  0
 77 79  1  0  0  0
 77 81  1  0  0  0
 77151  1  0  0  0
 77152  1  0  0  0
 78 80  1  0  0  0
 78 81  1  0  0  0
 78153  1  0  0  0
 78154  1  0  0  0
 79 82  1  0  0  0
 79155  1  0  0  0
 79156  1  0  0  0
 80 82  1  0  0  0
 80157  1  0  0  0
 80158  1  0  0  0
 81159  1  0  0  0
 82 86  1  0  0  0
 82 88  1  0  0  0
 83160  1  0  0  0
 83161  1  0  0  0
 83162  1  0  0  0
 84 87  1  0  0  0
 84163  1  0  0  0
 84164  1  0  0  0
 84165  1  0  0  0
 85166  1  0  0  0
 85167  1  0  0  0
 86 87  1  0  0  0
 86168  1  0  0  0
 86169  1  0  0  0
 87170  1  0  0  0
 87171  1  0  0  0
 88172  1  0  0  0
M  ISO  4   1 100  68 101  85 101  88 100
M  END
> <chiral flag>
0

> <version>
0

> <s_m_source_file>
/data/baiqing/PycharmProjects/Reinvent-master-3.2/result/LINK_invent/BTK/process_docking_weight1_custom_sum_contain_oxygen_bond_distance_aromatic_linkinvent_7_9_3/rearranged_h_0122.sdf

> <i_m_source_file_index>
85

> <r_mmod_Potential_Energy-OPLS-2005>
92.2011184692383

> <r_mmod_Stretch_Energy-OPLS-2005>
60.049503326416

> <r_mmod_Bend_Energy-OPLS-2005>
147.919860839844

> <r_mmod_Torsional_Energy-OPLS-2005>
241.36653137207

> <r_mmod_Improper_Torsional_Energy-OPLS-2005>
4.65189695358276

> <r_mmod_Van_der_Waal_Energy-OPLS-2005>
173.061721801758

> <r_mmod_Electrostatic_Energy-OPLS-2005>
-379.974853515625

> <r_mmod_Solvation_Energy-OPLS-2005>
-186.573806762695

> <b_mmod_Minimization_Converged-OPLS-2005>
0

> <r_mmod_RMS_Derivative-OPLS-2005>
2.05843806266785

$$$$
85
                    3D
 Structure written by MMmdl.
176185  0  0  1  0            999 V2000
  -30.7132  -14.4641   20.4315 C   0  0  0  0  0  0
  -30.4212  -12.2671   19.4194 C   0  0  0  0  0  0
  -29.4922  -12.4456   18.2011 C   0  0  0  0  0  0
  -28.0133  -12.3225   18.6240 C   0  0  0  0  0  0
  -27.6561  -13.1907   19.8605 C   0  0  2  0  0  0
  -28.7120  -13.0268   20.9800 C   0  0  0  0  0  0
  -25.2598  -13.8114   20.5696 C   0  0  0  0  0  0
  -24.1837  -13.0396   20.9201 C   0  0  0  0  0  0
  -24.6392  -11.6871   20.8789 C   0  0  0  0  0  0
  -23.9056  -10.4265   21.0445 C   0  0  0  0  0  0
  -24.3605   -9.4180   21.9222 C   0  0  0  0  0  0
  -23.6269   -8.2219   22.0780 C   0  0  0  0  0  0
  -22.4254   -8.0273   21.3557 C   0  0  0  0  0  0
  -21.9896   -9.0252   20.4665 C   0  0  0  0  0  0
  -22.7235  -10.2124   20.3086 C   0  0  0  0  0  0
  -21.6840   -6.0730   22.5285 C   0  0  0  0  0  0
  -21.4011   -6.5637   23.8220 C   0  0  0  0  0  0
  -21.3657   -5.6793   24.9183 C   0  0  0  0  0  0
  -21.6041   -4.3054   24.7238 C   0  0  0  0  0  0
  -21.8816   -3.8145   23.4360 C   0  0  0  0  0  0
  -21.9186   -4.6960   22.3412 C   0  0  0  0  0  0
  -22.7864  -13.5226   21.1833 C   0  0  0  0  0  0
  -22.1653   -4.2145   21.0990 F   0  0  0  0  0  0
  -21.5627   -3.4539   25.7749 F   0  0  0  0  0  0
  -30.0330  -13.2906   20.3951 N   0  0  0  0  0  0
  -26.3017  -12.9253   20.3361 N   0  0  0  0  0  0
  -25.9315  -11.6434   20.5831 N   0  0  0  0  0  0
  -22.0478  -12.8245   22.0395 N   0  0  0  0  0  0
  -25.4259  -15.1824   20.4095 N   0  0  0  0  0  0
  -31.9379  -14.5128   20.3021 O   0  0  0  0  0  0
  -21.6617   -6.8873   21.4247 O   0  0  0  0  0  0
  -22.3578  -14.5532   20.6665 O   0  0  0  0  0  0
  -24.6149  -31.8745   23.2181 C   0  0  0  0  0  0
  -25.9054  -32.4868   23.8474 C   0  0  1  0  0  0
  -27.2232  -27.4623   20.0713 C   0  0  0  0  0  0
  -25.5925  -33.8667   24.2407 N   0  0  0  0  0  0
  -23.3994  -30.5018   21.5601 C   0  0  2  0  0  0
  -24.8377  -28.9756   20.1181 C   0  0  0  0  0  0
  -22.7431  -29.4690   22.5039 C   0  0  0  0  0  0
  -18.0267  -28.1379   22.8501 C   0  0  0  0  0  0
  -24.1480  -36.7309   23.2641 C   0  0  0  0  0  0
  -25.9295  -30.8442   21.3702 C   0  0  0  0  0  0
  -26.0003  -29.4845   20.7084 C   0  0  0  0  0  0
  -27.1958  -28.7345   20.6817 C   0  0  0  0  0  0
  -26.0393  -26.9651   19.4768 C   0  0  0  0  0  0
  -24.8501  -27.7136   19.5039 C   0  0  0  0  0  0
  -23.6015  -29.8424   20.1717 C   0  0  0  0  0  0
  -25.4111  -36.3159   24.0364 C   0  0  1  0  0  0
  -20.5872  -28.3673   23.1316 C   0  0  2  0  0  0
  -20.6761  -26.9414   22.5414 C   0  0  0  0  0  0
  -19.5731  -26.6388   21.5214 C   0  0  0  0  0  0
  -18.1903  -26.7935   22.1621 C   0  0  0  0  0  0
  -19.1520  -28.8846   23.2900 C   0  0  0  0  0  0
  -18.9443  -30.1435   23.8943 C   0  0  0  0  0  0
  -17.6437  -30.6584   24.0574 C   0  0  0  0  0  0
  -25.9036  -34.9510   23.5182 C   0  0  0  0  0  0
  -16.5331  -29.9088   23.6324 C   0  0  0  0  0  0
  -16.7259  -28.6495   23.0367 C   0  0  0  0  0  0
  -26.4488  -31.6652   25.0810 C   0  0  0  0  0  0
  -25.3731  -31.3725   26.1541 C   0  0  0  0  0  0
  -27.0358  -30.3123   24.6183 C   0  0  0  0  0  0
  -27.6106  -32.4374   25.7518 C   0  0  0  0  0  0
  -27.5592  -37.1804   24.8471 C   0  0  0  0  0  0
  -21.4170  -29.3039   22.3751 N   0  0  0  0  0  0
  -26.4309  -37.3836   23.9420 N   0  0  0  0  0  0
  -24.6666  -31.0873   22.1072 N   0  0  0  0  0  0
  -23.4219  -28.8181   23.3021 O   0  0  0  0  0  0
  -28.4076  -26.7613   20.0742 O   0  0  0  0  0  0
  -26.5570  -34.8943   22.4723 O   0  0  0  0  0  0
  -23.5349  -32.1493   23.7576 O   0  0  0  0  0  0
  -28.4914  -18.6897   21.3129 C   0  0  0  0  0  0
  -31.2486  -17.3811   18.9212 C   0  0  0  0  0  0
  -30.3186  -18.3535   19.6502 C   0  0  0  0  0  0
  -26.5543  -20.6673   22.9690 C   0  0  0  0  0  0
  -28.7318  -21.2073   24.0564 C   0  0  0  0  0  0
  -26.1623  -22.1437   22.8352 C   0  0  0  0  0  0
  -28.3950  -22.7055   24.1148 C   0  0  0  0  0  0
  -30.4901  -16.0851   18.6149 C   0  0  0  0  0  0
  -29.0247  -16.3209   20.5557 C   0  0  0  0  0  0
  -29.6028  -17.7242   20.8765 C   0  0  2  0  0  0
  -28.0814  -20.5873   22.8155 C   0  0  1  0  0  0
  -26.8917  -23.0456   23.8730 C   0  0  1  0  0  0
  -28.1874  -24.7839   21.5402 C   0  0  0  0  0  0
  -26.8126  -25.0171   22.2185 C   0  0  0  0  0  0
  -28.3591  -25.3322   20.1077 C   0  0  0  0  0  0
  -30.0096  -15.4758   19.8662 N   0  0  0  0  0  0
  -28.6107  -19.2638   22.5168 N   0  0  0  0  0  0
  -26.7006  -24.5004   23.6157 N   0  3  0  0  0  0
  -27.5941  -18.9874   20.5208 O   0  0  0  0  0  0
  -31.4666  -12.3516   19.1163 H   0  0  0  0  0  0
  -30.3138  -11.2704   19.8504 H   0  0  0  0  0  0
  -29.7242  -11.6990   17.4399 H   0  0  0  0  0  0
  -29.6628  -13.4158   17.7348 H   0  0  0  0  0  0
  -27.8271  -11.2707   18.8484 H   0  0  0  0  0  0
  -27.3608  -12.5747   17.7874 H   0  0  0  0  0  0
  -27.6701  -14.2188   19.5111 H   0  0  0  0  0  0
  -28.6880  -12.0124   21.3805 H   0  0  0  0  0  0
  -28.5103  -13.6860   21.8241 H   0  0  0  0  0  0
  -25.2753   -9.5636   22.4804 H   0  0  0  0  0  0
  -23.9964   -7.4607   22.7506 H   0  0  0  0  0  0
  -21.0828   -8.8797   19.8971 H   0  0  0  0  0  0
  -22.3723  -10.9680   19.6198 H   0  0  0  0  0  0
  -21.2006   -7.6147   23.9724 H   0  0  0  0  0  0
  -21.1478   -6.0524   25.9083 H   0  0  0  0  0  0
  -22.0595   -2.7610   23.2866 H   0  0  0  0  0  0
  -22.4047  -11.9897   22.4796 H   0  0  0  0  0  0
  -21.1115  -13.1330   22.2591 H   0  0  0  0  0  0
  -24.6513  -15.8278   20.5232 H   0  0  0  0  0  0
  -26.2698  -15.6352   20.0864 H   0  0  0  0  0  0
  -26.7123  -32.5615   23.1238 H   0  0  0  0  0  0
  -25.0165  -33.9835   25.0608 H   0  0  0  0  0  0
  -22.6873  -31.3201   21.4300 H   0  0  0  0  0  0
  -23.3790  -35.9591   23.3329 H   0  0  0  0  0  0
  -24.3564  -36.8891   22.2046 H   0  0  0  0  0  0
  -23.7163  -37.6493   23.6627 H   0  0  0  0  0  0
  -26.0468  -31.6167   20.6086 H   0  0  0  0  0  0
  -26.8171  -30.8902   21.9916 H   0  0  0  0  0  0
  -28.0989  -29.1237   21.1330 H   0  0  0  0  0  0
  -26.0039  -26.0161   18.9657 H   0  0  0  0  0  0
  -23.9565  -27.3223   19.0359 H   0  0  0  0  0  0
  -23.7040  -30.6240   19.4179 H   0  0  0  0  0  0
  -22.7245  -29.2614   19.8799 H   0  0  0  0  0  0
  -25.1265  -36.2071   25.0861 H   0  0  0  0  0  0
  -20.9944  -28.3238   24.1441 H   0  0  0  0  0  0
  -20.5669  -26.2304   23.3617 H   0  0  0  0  0  0
  -21.6628  -26.7458   22.1192 H   0  0  0  0  0  0
  -19.6910  -25.6303   21.1228 H   0  0  0  0  0  0
  -19.6663  -27.3219   20.6756 H   0  0  0  0  0  0
  -17.4185  -26.6707   21.4004 H   0  0  0  0  0  0
  -18.0275  -26.0065   22.9005 H   0  0  0  0  0  0
  -19.7907  -30.7216   24.2381 H   0  0  0  0  0  0
  -17.4995  -31.6280   24.5153 H   0  0  0  0  0  0
  -15.5335  -30.2998   23.7641 H   0  0  0  0  0  0
  -15.8659  -28.0813   22.7105 H   0  0  0  0  0  0
  -24.5877  -30.7144   25.7803 H   0  0  0  0  0  0
  -24.8945  -32.2867   26.5073 H   0  0  0  0  0  0
  -25.8032  -30.8785   27.0261 H   0  0  0  0  0  0
  -26.2922  -29.6845   24.1283 H   0  0  0  0  0  0
  -27.4192  -29.7421   25.4648 H   0  0  0  0  0  0
  -27.8719  -30.4494   23.9329 H   0  0  0  0  0  0
  -27.2786  -33.3665   26.2164 H   0  0  0  0  0  0
  -28.3836  -32.6961   25.0268 H   0  0  0  0  0  0
  -28.0892  -31.8486   26.5347 H   0  0  0  0  0  0
  -28.2625  -38.0085   24.7575 H   0  0  0  0  0  0
  -28.1072  -36.2638   24.6254 H   0  0  0  0  0  0
  -27.2319  -37.1411   25.8870 H   0  0  0  0  0  0
  -20.9356  -29.8816   21.7012 H   0  0  0  0  0  0
  -26.0241  -38.2934   24.1408 H   0  0  0  0  0  0
  -32.1339  -17.1728   19.5246 H   0  0  0  0  0  0
  -31.6067  -17.8333   17.9955 H   0  0  0  0  0  0
  -29.5831  -18.6980   18.9211 H   0  0  0  0  0  0
  -30.8746  -19.2414   19.9565 H   0  0  0  0  0  0
  -26.0352  -20.0932   22.2016 H   0  0  0  0  0  0
  -26.2298  -20.2606   23.9275 H   0  0  0  0  0  0
  -28.4003  -20.7031   24.9641 H   0  0  0  0  0  0
  -29.8165  -21.0909   24.0157 H   0  0  0  0  0  0
  -25.0825  -22.2476   22.9441 H   0  0  0  0  0  0
  -26.3900  -22.4397   21.8115 H   0  0  0  0  0  0
  -29.0422  -23.1941   23.3956 H   0  0  0  0  0  0
  -28.7084  -23.1049   25.0801 H   0  0  0  0  0  0
  -31.1307  -15.3994   18.0548 H   0  0  0  0  0  0
  -29.6376  -16.2859   17.9648 H   0  0  0  0  0  0
  -28.1561  -16.4205   19.9040 H   0  0  0  0  0  0
  -28.6675  -15.8552   21.4732 H   0  0  0  0  0  0
  -30.3282  -17.6213   21.6853 H   0  0  0  0  0  0
  -28.3699  -21.2030   21.9580 H   0  0  0  0  0  0
  -26.3978  -22.8494   24.8275 H   0  0  0  0  0  0
  -28.3609  -23.7134   21.4600 H   0  0  0  0  0  0
  -28.9831  -25.1871   22.1672 H   0  0  0  0  0  0
  -26.0112  -24.6115   21.6004 H   0  0  0  0  0  0
  -26.6179  -26.0873   22.2717 H   0  0  0  0  0  0
  -27.6405  -24.8819   19.4267 H   0  0  0  0  0  0
  -29.3240  -24.9903   19.7281 H   0  0  0  0  0  0
  -29.3382  -18.9158   23.1265 H   0  0  0  0  0  0
  -27.3261  -25.0127   24.2174 H   0  0  0  0  0  0
  -25.7712  -24.7304   23.9327 H   0  0  0  0  0  0
  1 25  1  0  0  0
  1 30  2  0  0  0
  1 86  1  0  0  0
  2  3  1  0  0  0
  2 25  1  0  0  0
  2 90  1  0  0  0
  2 91  1  0  0  0
  3  4  1  0  0  0
  3 92  1  0  0  0
  3 93  1  0  0  0
  4  5  1  0  0  0
  4 94  1  0  0  0
  4 95  1  0  0  0
  5  6  1  0  0  0
  5 26  1  0  0  0
  5 96  1  0  0  0
  6 25  1  0  0  0
  6 97  1  0  0  0
  6 98  1  0  0  0
  7  8  2  0  0  0
  7 26  1  0  0  0
  7 29  1  0  0  0
  8  9  1  0  0  0
  8 22  1  0  0  0
  9 10  1  0  0  0
  9 27  2  0  0  0
 10 11  2  0  0  0
 10 15  1  0  0  0
 11 12  1  0  0  0
 11 99  1  0  0  0
 12 13  2  0  0  0
 12100  1  0  0  0
 13 14  1  0  0  0
 13 31  1  0  0  0
 14 15  2  0  0  0
 14101  1  0  0  0
 15102  1  0  0  0
 16 17  2  0  0  0
 16 21  1  0  0  0
 16 31  1  0  0  0
 17 18  1  0  0  0
 17103  1  0  0  0
 18 19  2  0  0  0
 18104  1  0  0  0
 19 20  1  0  0  0
 19 24  1  0  0  0
 20 21  2  0  0  0
 20105  1  0  0  0
 21 23  1  0  0  0
 22 28  1  0  0  0
 22 32  2  0  0  0
 26 27  1  0  0  0
 28106  1  0  0  0
 28107  1  0  0  0
 29108  1  0  0  0
 29109  1  0  0  0
 33 34  1  0  0  0
 33 66  1  0  0  0
 33 70  2  0  0  0
 34 36  1  0  0  0
 34 59  1  0  0  0
 34110  1  0  0  0
 35 44  2  0  0  0
 35 45  1  0  0  0
 35 68  1  0  0  0
 36 56  1  0  0  0
 36111  1  0  0  0
 37 39  1  0  0  0
 37 47  1  0  0  0
 37 66  1  0  0  0
 37112  1  0  0  0
 38 43  2  0  0  0
 38 46  1  0  0  0
 38 47  1  0  0  0
 39 64  1  0  0  0
 39 67  2  0  0  0
 40 52  1  0  0  0
 40 53  2  0  0  0
 40 58  1  0  0  0
 41113  1  0  0  0
 41114  1  0  0  0
 41115  1  0  0  0
 41 48  1  0  0  0
 42 43  1  0  0  0
 42 66  1  0  0  0
 42116  1  0  0  0
 42117  1  0  0  0
 43 44  1  0  0  0
 44118  1  0  0  0
 45 46  2  0  0  0
 45119  1  0  0  0
 46120  1  0  0  0
 47121  1  0  0  0
 47122  1  0  0  0
 48 56  1  0  0  0
 48 65  1  0  0  0
 48123  1  0  0  0
 49 50  1  0  0  0
 49 53  1  0  0  0
 49 64  1  0  0  0
 49124  1  0  0  0
 50 51  1  0  0  0
 50125  1  0  0  0
 50126  1  0  0  0
 51 52  1  0  0  0
 51127  1  0  0  0
 51128  1  0  0  0
 52129  1  0  0  0
 52130  1  0  0  0
 53 54  1  0  0  0
 54 55  2  0  0  0
 54131  1  0  0  0
 55 57  1  0  0  0
 55132  1  0  0  0
 56 69  2  0  0  0
 57 58  2  0  0  0
 57133  1  0  0  0
 58134  1  0  0  0
 59 60  1  0  0  0
 59 61  1  0  0  0
 59 62  1  0  0  0
 60135  1  0  0  0
 60136  1  0  0  0
 60137  1  0  0  0
 61138  1  0  0  0
 61139  1  0  0  0
 61140  1  0  0  0
 62141  1  0  0  0
 62142  1  0  0  0
 62143  1  0  0  0
 63 65  1  0  0  0
 63144  1  0  0  0
 63145  1  0  0  0
 63146  1  0  0  0
 64147  1  0  0  0
 65148  1  0  0  0
 68 85  1  0  0  0
 71 87  1  0  0  0
 71 89  2  0  0  0
 71 80  1  0  0  0
 72 73  1  0  0  0
 72 78  1  0  0  0
 72149  1  0  0  0
 72150  1  0  0  0
 73 80  1  0  0  0
 73151  1  0  0  0
 73152  1  0  0  0
 74 76  1  0  0  0
 74 81  1  0  0  0
 74153  1  0  0  0
 74154  1  0  0  0
 75 77  1  0  0  0
 75 81  1  0  0  0
 75155  1  0  0  0
 75156  1  0  0  0
 76 82  1  0  0  0
 76157  1  0  0  0
 76158  1  0  0  0
 77 82  1  0  0  0
 77159  1  0  0  0
 77160  1  0  0  0
 78 86  1  0  0  0
 78161  1  0  0  0
 78162  1  0  0  0
 79 80  1  0  0  0
 79 86  1  0  0  0
 79163  1  0  0  0
 79164  1  0  0  0
 80165  1  0  0  0
 81 87  1  0  0  0
 81166  1  0  0  0
 82 88  1  0  0  0
 82167  1  0  0  0
 83 84  1  0  0  0
 83 85  1  0  0  0
 83168  1  0  0  0
 83169  1  0  0  0
 84 88  1  0  0  0
 84170  1  0  0  0
 84171  1  0  0  0
 85172  1  0  0  0
 85173  1  0  0  0
 87174  1  0  0  0
 88175  1  0  0  0
 88176  1  0  0  0
M  CHG  1  88   1
M  ISO  4   1 100  68 101  85 101  86 100
M  END
> <chiral flag>
0

> <version>
0

> <s_m_source_file>
/data/baiqing/PycharmProjects/Reinvent-master-3.2/result/LINK_invent/BTK/process_docking_weight1_custom_sum_contain_oxygen_bond_distance_aromatic_linkinvent_7_9_3/rearranged_h_0122.sdf

> <i_m_source_file_index>
86

> <r_mmod_Potential_Energy-OPLS-2005>
40.6744232177734

> <r_mmod_Stretch_Energy-OPLS-2005>
36.9333305358887

> <r_mmod_Bend_Energy-OPLS-2005>
125.629173278809

> <r_mmod_Torsional_Energy-OPLS-2005>
369.017059326172

> <r_mmod_Improper_Torsional_Energy-OPLS-2005>
31.3181781768799

> <r_mmod_Van_der_Waal_Energy-OPLS-2005>
149.712188720703

> <r_mmod_Electrostatic_Energy-OPLS-2005>
-248.22541809082

> <r_mmod_Solvation_Energy-OPLS-2005>
-452.555511474609

> <b_mmod_Minimization_Converged-OPLS-2005>
0

> <r_mmod_RMS_Derivative-OPLS-2005>
2.81508684158325

$$$$
86
                    3D
 Structure written by MMmdl.
174183  0  0  1  0            999 V2000
  -30.8271  -14.2566   20.6413 C   0  0  0  0  0  0
  -30.4101  -12.2379   19.3049 C   0  0  0  0  0  0
  -29.4540  -12.5446   18.1420 C   0  0  0  0  0  0
  -27.9821  -12.4048   18.5808 C   0  0  0  0  0  0
  -27.6774  -13.1825   19.8861 C   0  0  2  0  0  0
  -28.7401  -12.8327   20.9545 C   0  0  0  0  0  0
  -25.2740  -13.8133   20.5843 C   0  0  0  0  0  0
  -24.1905  -13.0416   20.9257 C   0  0  0  0  0  0
  -24.6434  -11.6872   20.8728 C   0  0  0  0  0  0
  -23.9084  -10.4273   21.0396 C   0  0  0  0  0  0
  -24.3614   -9.4200   21.9189 C   0  0  0  0  0  0
  -23.6299   -8.2237   22.0763 C   0  0  0  0  0  0
  -22.4257   -8.0289   21.3577 C   0  0  0  0  0  0
  -21.9910   -9.0265   20.4663 C   0  0  0  0  0  0
  -22.7246  -10.2133   20.3070 C   0  0  0  0  0  0
  -21.6853   -6.0724   22.5275 C   0  0  0  0  0  0
  -21.4017   -6.5654   23.8212 C   0  0  0  0  0  0
  -21.3660   -5.6805   24.9176 C   0  0  0  0  0  0
  -21.6045   -4.3073   24.7239 C   0  0  0  0  0  0
  -21.8816   -3.8141   23.4352 C   0  0  0  0  0  0
  -21.9203   -4.6966   22.3411 C   0  0  0  0  0  0
  -22.7929  -13.5229   21.1912 C   0  0  0  0  0  0
  -22.1669   -4.2135   21.0981 F   0  0  0  0  0  0
  -21.5636   -3.4559   25.7748 F   0  0  0  0  0  0
  -30.0744  -13.1492   20.4064 N   0  0  0  0  0  0
  -26.3136  -12.9241   20.3489 N   0  0  0  0  0  0
  -25.9362  -11.6421   20.5794 N   0  0  0  0  0  0
  -22.0518  -12.8216   22.0417 N   0  0  0  0  0  0
  -25.4562  -15.1842   20.4417 N   0  0  0  0  0  0
  -31.8552  -14.5357   20.0261 O   0  0  0  0  0  0
  -21.6651   -6.8868   21.4242 O   0  0  0  0  0  0
  -22.3628  -14.5532   20.6758 O   0  0  0  0  0  0
  -24.6064  -31.8764   23.2236 C   0  0  0  0  0  0
  -25.8965  -32.4895   23.8510 C   0  0  1  0  0  0
  -27.2375  -27.5262   20.0187 C   0  0  0  0  0  0
  -25.5836  -33.8711   24.2409 N   0  0  0  0  0  0
  -23.3978  -30.5087   21.5596 C   0  0  2  0  0  0
  -24.8433  -29.0049   20.0992 C   0  0  0  0  0  0
  -22.7335  -29.4740   22.4974 C   0  0  0  0  0  0
  -18.0271  -28.1483   22.8271 C   0  0  0  0  0  0
  -24.1497  -36.7355   23.2635 C   0  0  0  0  0  0
  -25.9260  -30.8470   21.3876 C   0  0  0  0  0  0
  -25.9973  -29.4918   20.7262 C   0  0  0  0  0  0
  -27.1913  -28.7420   20.7312 C   0  0  0  0  0  0
  -26.1037  -27.1218   19.2834 C   0  0  0  0  0  0
  -24.8840  -27.8021   19.3833 C   0  0  0  0  0  0
  -23.6041  -29.8528   20.1717 C   0  0  0  0  0  0
  -25.4109  -36.3183   24.0363 C   0  0  1  0  0  0
  -20.5781  -28.3808   23.1430 C   0  0  2  0  0  0
  -20.6723  -26.9475   22.5747 C   0  0  0  0  0  0
  -19.6046  -26.6527   21.5172 C   0  0  0  0  0  0
  -18.2021  -26.8150   22.1171 C   0  0  0  0  0  0
  -19.1440  -28.8899   23.2913 C   0  0  0  0  0  0
  -18.9312  -30.1449   23.9027 C   0  0  0  0  0  0
  -17.6275  -30.6499   24.0779 C   0  0  0  0  0  0
  -25.9010  -34.9529   23.5210 C   0  0  0  0  0  0
  -16.5235  -29.9020   23.6330 C   0  0  0  0  0  0
  -16.7238  -28.6571   23.0116 C   0  0  0  0  0  0
  -26.4422  -31.6663   25.0868 C   0  0  0  0  0  0
  -25.3704  -31.3726   26.1614 C   0  0  0  0  0  0
  -27.0223  -30.3106   24.6217 C   0  0  0  0  0  0
  -27.6031  -32.4386   25.7569 C   0  0  0  0  0  0
  -27.5586  -37.1860   24.8468 C   0  0  0  0  0  0
  -21.4058  -29.3097   22.3733 N   0  0  0  0  0  0
  -26.4293  -37.3840   23.9402 N   0  0  0  0  0  0
  -24.6615  -31.0921   22.1095 N   0  0  0  0  0  0
  -23.4135  -28.8234   23.2963 O   0  0  0  0  0  0
  -28.3680  -26.7490   20.0241 O   0  0  0  0  0  0
  -26.5585  -34.8924   22.4775 O   0  0  0  0  0  0
  -23.5259  -32.1468   23.7600 O   0  0  0  0  0  0
  -26.2440  -22.3311   20.6172 C   0  0  0  0  0  0
  -26.3428  -21.2074   22.7718 C   0  0  0  0  0  0
  -25.9399  -21.2061   21.3941 C   0  0  0  0  0  0
  -26.8405  -23.4367   21.2179 C   0  0  0  0  0  0
  -26.7671  -22.4681   23.3011 C   0  0  0  0  0  0
  -26.0924  -18.5364   23.2840 C   0  0  0  0  0  0
  -28.1208  -19.8768   23.8983 C   0  0  0  0  0  0
  -27.2216  -17.4847   23.1421 C   0  0  0  0  0  0
  -28.7433  -19.3908   22.5883 C   0  0  0  0  0  0
  -26.5884  -19.9680   23.6788 C   0  0  1  0  0  0
  -25.2312  -20.1074   20.6338 C   0  0  0  0  0  0
  -27.1543  -22.7340   24.7480 C   0  0  0  0  0  0
  -27.0970  -24.6564   20.4051 C   0  0  0  0  0  0
  -29.2624  -15.7197   21.8016 C   0  0  0  0  0  0
  -29.5555  -17.1536   22.2043 C   0  0  0  0  0  0
  -28.2477  -25.5835   20.8532 C   0  0  0  0  0  0
  -26.9941  -23.5473   22.5388 N   0  0  0  0  0  0
  -30.5109  -14.9791   21.7094 N   0  0  0  0  0  0
  -28.3415  -17.9961   22.2789 N   0  3  1  0  0  0
  -31.4472  -12.3177   18.9702 H   0  0  0  0  0  0
  -30.2870  -11.2010   19.6147 H   0  0  0  0  0  0
  -29.6522  -11.8912   17.2918 H   0  0  0  0  0  0
  -29.6361  -13.5629   17.7954 H   0  0  0  0  0  0
  -27.7659  -11.3440   18.7160 H   0  0  0  0  0  0
  -27.3168  -12.7394   17.7821 H   0  0  0  0  0  0
  -27.7499  -14.2409   19.6460 H   0  0  0  0  0  0
  -28.6993  -11.7613   21.1541 H   0  0  0  0  0  0
  -28.5282  -13.2720   21.9246 H   0  0  0  0  0  0
  -25.2741   -9.5692   22.4800 H   0  0  0  0  0  0
  -24.0017   -7.4618   22.7476 H   0  0  0  0  0  0
  -21.0841   -8.8788   19.8960 H   0  0  0  0  0  0
  -22.3702  -10.9700   19.6203 H   0  0  0  0  0  0
  -21.1996   -7.6150   23.9706 H   0  0  0  0  0  0
  -21.1500   -6.0543   25.9085 H   0  0  0  0  0  0
  -22.0588   -2.7612   23.2865 H   0  0  0  0  0  0
  -22.4089  -11.9846   22.4784 H   0  0  0  0  0  0
  -21.1174  -13.1297   22.2639 H   0  0  0  0  0  0
  -24.6867  -15.8393   20.5414 H   0  0  0  0  0  0
  -26.2979  -15.6031   20.0752 H   0  0  0  0  0  0
  -26.7014  -32.5608   23.1236 H   0  0  0  0  0  0
  -25.0036  -33.9942   25.0571 H   0  0  0  0  0  0
  -22.6894  -31.3266   21.4274 H   0  0  0  0  0  0
  -23.3766  -35.9691   23.3316 H   0  0  0  0  0  0
  -24.3551  -36.8890   22.2027 H   0  0  0  0  0  0
  -23.7223  -37.6585   23.6597 H   0  0  0  0  0  0
  -26.0609  -31.6178   20.6282 H   0  0  0  0  0  0
  -26.8063  -30.8791   22.0202 H   0  0  0  0  0  0
  -28.0614  -29.0955   21.2653 H   0  0  0  0  0  0
  -26.1423  -26.2515   18.6445 H   0  0  0  0  0  0
  -24.0154  -27.4331   18.8555 H   0  0  0  0  0  0
  -23.7011  -30.6319   19.4134 H   0  0  0  0  0  0
  -22.7331  -29.2660   19.8798 H   0  0  0  0  0  0
  -25.1273  -36.2082   25.0864 H   0  0  0  0  0  0
  -20.9784  -28.3488   24.1577 H   0  0  0  0  0  0
  -21.6797  -26.7453   22.2123 H   0  0  0  0  0  0
  -20.5145  -26.2461   23.3948 H   0  0  0  0  0  0
  -19.7280  -25.6470   21.1220 H   0  0  0  0  0  0
  -19.7257  -27.3415   20.6763 H   0  0  0  0  0  0
  -17.4573  -26.7253   21.3242 H   0  0  0  0  0  0
  -17.9980  -26.0067   22.8171 H   0  0  0  0  0  0
  -19.7722  -30.7230   24.2531 H   0  0  0  0  0  0
  -17.4769  -31.6141   24.5498 H   0  0  0  0  0  0
  -15.5264  -30.2878   23.7632 H   0  0  0  0  0  0
  -15.8631  -28.1009   22.6626 H   0  0  0  0  0  0
  -24.5958  -30.6962   25.7968 H   0  0  0  0  0  0
  -24.8835  -32.2865   26.5065 H   0  0  0  0  0  0
  -25.8088  -30.8955   27.0367 H   0  0  0  0  0  0
  -26.2761  -29.6919   24.1227 H   0  0  0  0  0  0
  -27.3914  -29.7313   25.4663 H   0  0  0  0  0  0
  -27.8635  -30.4443   23.9420 H   0  0  0  0  0  0
  -27.2705  -33.3678   26.2202 H   0  0  0  0  0  0
  -28.3802  -32.6895   25.0351 H   0  0  0  0  0  0
  -28.0765  -31.8478   26.5410 H   0  0  0  0  0  0
  -28.2681  -38.0107   24.7542 H   0  0  0  0  0  0
  -28.1026  -36.2646   24.6278 H   0  0  0  0  0  0
  -27.2341  -37.1504   25.8891 H   0  0  0  0  0  0
  -20.9194  -29.8729   21.6913 H   0  0  0  0  0  0
  -26.0204  -38.2961   24.1280 H   0  0  0  0  0  0
  -26.0166  -22.3652   19.5632 H   0  0  0  0  0  0
  -25.3874  -18.1978   24.0465 H   0  0  0  0  0  0
  -25.5129  -18.4650   22.3865 H   0  0  0  0  0  0
  -28.5966  -20.8081   24.1766 H   0  0  0  0  0  0
  -28.3625  -19.2077   24.7241 H   0  0  0  0  0  0
  -26.7956  -16.5654   22.7328 H   0  0  0  0  0  0
  -27.6042  -17.2014   24.1246 H   0  0  0  0  0  0
  -29.8271  -19.4931   22.6352 H   0  0  0  0  0  0
  -28.4510  -20.0126   21.7473 H   0  0  0  0  0  0
  -26.1082  -20.1749   24.6337 H   0  0  0  0  0  0
  -24.7848  -20.5020   19.7167 H   0  0  0  0  0  0
  -24.4040  -19.6888   21.2032 H   0  0  0  0  0  0
  -25.9387  -19.3379   20.3296 H   0  0  0  0  0  0
  -26.6577  -23.6256   25.1287 H   0  0  0  0  0  0
  -28.2301  -22.9189   24.7867 H   0  0  0  0  0  0
  -26.9390  -21.9242   25.4392 H   0  0  0  0  0  0
  -26.1163  -25.1172   20.5121 H   0  0  0  0  0  0
  -27.2559  -24.3716   19.3655 H   0  0  0  0  0  0
  -28.6449  -15.2565   22.5651 H   0  0  0  0  0  0
  -28.7146  -15.7172   20.8570 H   0  0  0  0  0  0
  -30.2347  -17.5898   21.4706 H   0  0  0  0  0  0
  -30.0791  -17.1647   23.1637 H   0  0  0  0  0  0
  -29.1913  -25.0413   20.8230 H   0  0  0  0  0  0
  -28.1008  -25.9120   21.8838 H   0  0  0  0  0  0
  -31.3080  -15.5320   22.0009 H   0  0  0  0  0  0
  -27.9567  -18.0186   21.3441 H   0  0  0  0  0  0
  1 25  1  0  0  0
  1 30  2  0  0  0
  1 88  1  0  0  0
  2  3  1  0  0  0
  2 25  1  0  0  0
  2 90  1  0  0  0
  2 91  1  0  0  0
  3  4  1  0  0  0
  3 92  1  0  0  0
  3 93  1  0  0  0
  4  5  1  0  0  0
  4 94  1  0  0  0
  4 95  1  0  0  0
  5  6  1  0  0  0
  5 26  1  0  0  0
  5 96  1  0  0  0
  6 25  1  0  0  0
  6 97  1  0  0  0
  6 98  1  0  0  0
  7  8  2  0  0  0
  7 26  1  0  0  0
  7 29  1  0  0  0
  8  9  1  0  0  0
  8 22  1  0  0  0
  9 10  1  0  0  0
  9 27  2  0  0  0
 10 11  2  0  0  0
 10 15  1  0  0  0
 11 12  1  0  0  0
 11 99  1  0  0  0
 12 13  2  0  0  0
 12100  1  0  0  0
 13 14  1  0  0  0
 13 31  1  0  0  0
 14 15  2  0  0  0
 14101  1  0  0  0
 15102  1  0  0  0
 16 17  2  0  0  0
 16 21  1  0  0  0
 16 31  1  0  0  0
 17 18  1  0  0  0
 17103  1  0  0  0
 18 19  2  0  0  0
 18104  1  0  0  0
 19 20  1  0  0  0
 19 24  1  0  0  0
 20 21  2  0  0  0
 20105  1  0  0  0
 21 23  1  0  0  0
 22 28  1  0  0  0
 22 32  2  0  0  0
 26 27  1  0  0  0
 28106  1  0  0  0
 28107  1  0  0  0
 29108  1  0  0  0
 29109  1  0  0  0
 33 34  1  0  0  0
 33 66  1  0  0  0
 33 70  2  0  0  0
 34 36  1  0  0  0
 34 59  1  0  0  0
 34110  1  0  0  0
 35 44  2  0  0  0
 35 45  1  0  0  0
 35 68  1  0  0  0
 36 56  1  0  0  0
 36111  1  0  0  0
 37 39  1  0  0  0
 37 47  1  0  0  0
 37 66  1  0  0  0
 37112  1  0  0  0
 38 43  2  0  0  0
 38 46  1  0  0  0
 38 47  1  0  0  0
 39 64  1  0  0  0
 39 67  2  0  0  0
 40 52  1  0  0  0
 40 53  2  0  0  0
 40 58  1  0  0  0
 41113  1  0  0  0
 41114  1  0  0  0
 41115  1  0  0  0
 41 48  1  0  0  0
 42 43  1  0  0  0
 42 66  1  0  0  0
 42116  1  0  0  0
 42117  1  0  0  0
 43 44  1  0  0  0
 44118  1  0  0  0
 45 46  2  0  0  0
 45119  1  0  0  0
 46120  1  0  0  0
 47121  1  0  0  0
 47122  1  0  0  0
 48 56  1  0  0  0
 48 65  1  0  0  0
 48123  1  0  0  0
 49 50  1  0  0  0
 49 53  1  0  0  0
 49 64  1  0  0  0
 49124  1  0  0  0
 50 51  1  0  0  0
 50125  1  0  0  0
 50126  1  0  0  0
 51 52  1  0  0  0
 51127  1  0  0  0
 51128  1  0  0  0
 52129  1  0  0  0
 52130  1  0  0  0
 53 54  1  0  0  0
 54 55  2  0  0  0
 54131  1  0  0  0
 55 57  1  0  0  0
 55132  1  0  0  0
 56 69  2  0  0  0
 57 58  2  0  0  0
 57133  1  0  0  0
 58134  1  0  0  0
 59 60  1  0  0  0
 59 61  1  0  0  0
 59 62  1  0  0  0
 60135  1  0  0  0
 60136  1  0  0  0
 60137  1  0  0  0
 61138  1  0  0  0
 61139  1  0  0  0
 61140  1  0  0  0
 62141  1  0  0  0
 62142  1  0  0  0
 62143  1  0  0  0
 63 65  1  0  0  0
 63144  1  0  0  0
 63145  1  0  0  0
 63146  1  0  0  0
 64147  1  0  0  0
 65148  1  0  0  0
 68 86  1  0  0  0
 71 73  2  0  0  0
 71 74  1  0  0  0
 71149  1  0  0  0
 72 73  1  0  0  0
 72 75  2  0  0  0
 72 80  1  0  0  0
 73 81  1  0  0  0
 74 83  1  0  0  0
 74 87  2  0  0  0
 75 82  1  0  0  0
 75 87  1  0  0  0
 76 78  1  0  0  0
 76 80  1  0  0  0
 76150  1  0  0  0
 76151  1  0  0  0
 77 79  1  0  0  0
 77 80  1  0  0  0
 77152  1  0  0  0
 77153  1  0  0  0
 78 89  1  0  0  0
 78154  1  0  0  0
 78155  1  0  0  0
 79 89  1  0  0  0
 79156  1  0  0  0
 79157  1  0  0  0
 80158  1  0  0  0
 81159  1  0  0  0
 81160  1  0  0  0
 81161  1  0  0  0
 82162  1  0  0  0
 82163  1  0  0  0
 82164  1  0  0  0
 83 86  1  0  0  0
 83165  1  0  0  0
 83166  1  0  0  0
 84 85  1  0  0  0
 84 88  1  0  0  0
 84167  1  0  0  0
 84168  1  0  0  0
 85169  1  0  0  0
 85170  1  0  0  0
 85 89  1  0  0  0
 86171  1  0  0  0
 86172  1  0  0  0
 88173  1  0  0  0
 89174  1  0  0  0
M  CHG  1  89   1
M  ISO  4   1 100  68 101  86 101  88 100
M  END
> <chiral flag>
0

> <version>
0

> <s_m_source_file>
/data/baiqing/PycharmProjects/Reinvent-master-3.2/result/LINK_invent/BTK/process_docking_weight1_custom_sum_contain_oxygen_bond_distance_aromatic_linkinvent_7_9_3/rearranged_h_0122.sdf

> <i_m_source_file_index>
87

> <r_mmod_Potential_Energy-OPLS-2005>
-64.8380126953125

> <r_mmod_Stretch_Energy-OPLS-2005>
42.4499473571777

> <r_mmod_Bend_Energy-OPLS-2005>
157.390625

> <r_mmod_Torsional_Energy-OPLS-2005>
349.099273681641

> <r_mmod_Improper_Torsional_Energy-OPLS-2005>
10.7219381332397

> <r_mmod_Van_der_Waal_Energy-OPLS-2005>
229.031814575195

> <r_mmod_Electrostatic_Energy-OPLS-2005>
-407.444122314453

> <r_mmod_Solvation_Energy-OPLS-2005>
-473.337097167969

> <b_mmod_Minimization_Converged-OPLS-2005>
0

> <r_mmod_RMS_Derivative-OPLS-2005>
9.59426593780518

$$$$
87
                    3D
 Structure written by MMmdl.
158166  0  0  1  0            999 V2000
  -30.7253  -14.4882   20.5843 C   0  0  0  0  0  0
  -30.4139  -12.3239   19.4299 C   0  0  0  0  0  0
  -29.4899  -12.5048   18.2083 C   0  0  0  0  0  0
  -28.0176  -12.3381   18.6261 C   0  0  0  0  0  0
  -27.6529  -13.1996   19.8638 C   0  0  2  0  0  0
  -28.6944  -13.0302   20.9935 C   0  0  0  0  0  0
  -25.2555  -13.8130   20.5669 C   0  0  0  0  0  0
  -24.1811  -13.0429   20.9175 C   0  0  0  0  0  0
  -24.6373  -11.6890   20.8729 C   0  0  0  0  0  0
  -23.9047  -10.4290   21.0406 C   0  0  0  0  0  0
  -24.3608   -9.4205   21.9182 C   0  0  0  0  0  0
  -23.6290   -8.2232   22.0754 C   0  0  0  0  0  0
  -22.4255   -8.0287   21.3545 C   0  0  0  0  0  0
  -21.9895   -9.0252   20.4631 C   0  0  0  0  0  0
  -22.7226  -10.2135   20.3052 C   0  0  0  0  0  0
  -21.6854   -6.0728   22.5275 C   0  0  0  0  0  0
  -21.4005   -6.5634   23.8213 C   0  0  0  0  0  0
  -21.3676   -5.6795   24.9180 C   0  0  0  0  0  0
  -21.6074   -4.3058   24.7232 C   0  0  0  0  0  0
  -21.8824   -3.8145   23.4351 C   0  0  0  0  0  0
  -21.9185   -4.6951   22.3404 C   0  0  0  0  0  0
  -22.7829  -13.5232   21.1850 C   0  0  0  0  0  0
  -22.1654   -4.2151   21.0978 F   0  0  0  0  0  0
  -21.5657   -3.4543   25.7742 F   0  0  0  0  0  0
  -30.0242  -13.3290   20.4339 N   0  0  0  0  0  0
  -26.2978  -12.9289   20.3327 N   0  0  0  0  0  0
  -25.9287  -11.6451   20.5742 N   0  0  0  0  0  0
  -22.0498  -12.8205   22.0410 N   0  0  0  0  0  0
  -25.4278  -15.1863   20.4071 N   0  0  0  0  0  0
  -31.8516  -14.6541   20.1135 O   0  0  0  0  0  0
  -21.6640   -6.8864   21.4235 O   0  0  0  0  0  0
  -22.3501  -14.5558   20.6751 O   0  0  0  0  0  0
  -24.6178  -31.8645   23.2061 C   0  0  0  0  0  0
  -25.9061  -32.4798   23.8359 C   0  0  1  0  0  0
  -27.2288  -27.3956   20.1071 C   0  0  0  0  0  0
  -25.5908  -33.8599   24.2303 N   0  0  0  0  0  0
  -23.4053  -30.4901   21.5461 C   0  0  2  0  0  0
  -24.8510  -28.9516   20.1104 C   0  0  0  0  0  0
  -22.7388  -29.4669   22.4940 C   0  0  0  0  0  0
  -18.0293  -28.1379   22.8482 C   0  0  0  0  0  0
  -24.1499  -36.7300   23.2644 C   0  0  0  0  0  0
  -25.9397  -30.8205   21.3649 C   0  0  0  0  0  0
  -26.0115  -29.4534   20.7095 C   0  0  0  0  0  0
  -27.2006  -28.6839   20.6999 C   0  0  0  0  0  0
  -26.0495  -26.9210   19.4882 C   0  0  0  0  0  0
  -24.8683  -27.6880   19.4969 C   0  0  0  0  0  0
  -23.6136  -29.8211   20.1613 C   0  0  0  0  0  0
  -25.4125  -36.3096   24.0336 C   0  0  1  0  0  0
  -20.5869  -28.3692   23.1277 C   0  0  2  0  0  0
  -20.6784  -26.9424   22.5371 C   0  0  0  0  0  0
  -19.5745  -26.6379   21.5189 C   0  0  0  0  0  0
  -18.1934  -26.7933   22.1610 C   0  0  0  0  0  0
  -19.1539  -28.8847   23.2874 C   0  0  0  0  0  0
  -18.9471  -30.1437   23.8894 C   0  0  0  0  0  0
  -17.6477  -30.6579   24.0543 C   0  0  0  0  0  0
  -25.9058  -34.9463   23.5128 C   0  0  0  0  0  0
  -16.5371  -29.9084   23.6302 C   0  0  0  0  0  0
  -16.7293  -28.6488   23.0346 C   0  0  0  0  0  0
  -26.4477  -31.6581   25.0706 C   0  0  0  0  0  0
  -25.3716  -31.3695   26.1434 C   0  0  0  0  0  0
  -27.0326  -30.3018   24.6118 C   0  0  0  0  0  0
  -27.6054  -32.4304   25.7457 C   0  0  0  0  0  0
  -27.5582  -37.1809   24.8472 C   0  0  0  0  0  0
  -21.4112  -29.3084   22.3684 N   0  0  0  0  0  0
  -26.4302  -37.3783   23.9410 N   0  0  0  0  0  0
  -24.6724  -31.0730   22.0970 N   0  0  0  0  0  0
  -23.4137  -28.8190   23.2987 O   0  0  0  0  0  0
  -28.4047  -26.6614   20.1594 O   0  0  0  0  0  0
  -26.5627  -34.8910   22.4696 O   0  0  0  0  0  0
  -23.5362  -32.1420   23.7451 O   0  0  0  0  0  0
  -29.6791  -17.8749   20.4679 C   0  0  0  0  0  0
  -28.8907  -18.9777   20.4566 C   0  0  0  0  0  0
  -28.8281  -22.0069   22.1858 C   0  0  0  0  0  0
  -28.4807  -21.5116   20.8073 C   0  0  1  0  0  0
  -28.9662  -22.9644   21.0160 C   0  0  1  0  0  0
  -26.5864  -23.9769   21.0952 C   0  0  0  0  0  0
  -29.1795  -16.4285   20.6386 C   0  0  0  0  0  0
  -28.4495  -25.2462   19.8395 C   0  0  0  0  0  0
  -29.3498  -20.4137   20.1695 C   0  0  1  0  0  0
  -28.1012  -24.2609   21.0066 C   0  0  2  0  0  0
  -30.1414  -15.4968   21.2594 N   0  0  0  0  0  0
  -29.3174  -20.6275   18.7732 O   0  0  0  0  0  0
  -31.4604  -12.4158   19.1328 H   0  0  0  0  0  0
  -30.3129  -11.3179   19.8441 H   0  0  0  0  0  0
  -29.7414  -11.7868   17.4274 H   0  0  0  0  0  0
  -29.6393  -13.4939   17.7718 H   0  0  0  0  0  0
  -27.8611  -11.2809   18.8485 H   0  0  0  0  0  0
  -27.3557  -12.5789   17.7939 H   0  0  0  0  0  0
  -27.6742  -14.2351   19.5345 H   0  0  0  0  0  0
  -28.6714  -12.0097   21.3769 H   0  0  0  0  0  0
  -28.4488  -13.6654   21.8459 H   0  0  0  0  0  0
  -25.2769   -9.5701   22.4733 H   0  0  0  0  0  0
  -24.0045   -7.4628   22.7460 H   0  0  0  0  0  0
  -21.0845   -8.8763   19.8912 H   0  0  0  0  0  0
  -22.3703  -10.9672   19.6162 H   0  0  0  0  0  0
  -21.1983   -7.6143   23.9721 H   0  0  0  0  0  0
  -21.1492   -6.0514   25.9092 H   0  0  0  0  0  0
  -22.0577   -2.7603   23.2845 H   0  0  0  0  0  0
  -22.4148  -11.9866   22.4758 H   0  0  0  0  0  0
  -21.1115  -13.1181   22.2658 H   0  0  0  0  0  0
  -24.6661  -15.8461   20.5267 H   0  0  0  0  0  0
  -26.2879  -15.6198   20.0991 H   0  0  0  0  0  0
  -26.7134  -32.5489   23.1107 H   0  0  0  0  0  0
  -25.0017  -33.9760   25.0414 H   0  0  0  0  0  0
  -22.6953  -31.3084   21.4053 H   0  0  0  0  0  0
  -23.3742  -35.9648   23.3323 H   0  0  0  0  0  0
  -24.3585  -36.8899   22.2053 H   0  0  0  0  0  0
  -23.7258  -37.6515   23.6650 H   0  0  0  0  0  0
  -26.0722  -31.5901   20.6029 H   0  0  0  0  0  0
  -26.8220  -30.8622   21.9914 H   0  0  0  0  0  0
  -28.0986  -29.0682   21.1646 H   0  0  0  0  0  0
  -26.0092  -25.9574   19.0035 H   0  0  0  0  0  0
  -23.9757  -27.2989   19.0296 H   0  0  0  0  0  0
  -23.7241  -30.5963   19.4017 H   0  0  0  0  0  0
  -22.7351  -29.2426   19.8697 H   0  0  0  0  0  0
  -25.1298  -36.1957   25.0823 H   0  0  0  0  0  0
  -20.9961  -28.3317   24.1412 H   0  0  0  0  0  0
  -20.5735  -26.2306   23.3569 H   0  0  0  0  0  0
  -21.6647  -26.7485   22.1139 H   0  0  0  0  0  0
  -19.6869  -25.6285   21.1234 H   0  0  0  0  0  0
  -19.6673  -27.3165   20.6691 H   0  0  0  0  0  0
  -17.4218  -26.6718   21.3999 H   0  0  0  0  0  0
  -18.0307  -26.0089   22.9013 H   0  0  0  0  0  0
  -19.7962  -30.7240   24.2277 H   0  0  0  0  0  0
  -17.5061  -31.6269   24.5157 H   0  0  0  0  0  0
  -15.5377  -30.2984   23.7610 H   0  0  0  0  0  0
  -15.8711  -28.0776   22.7066 H   0  0  0  0  0  0
  -24.5890  -30.7059   25.7733 H   0  0  0  0  0  0
  -24.8900  -32.2859   26.4859 H   0  0  0  0  0  0
  -25.8028  -30.8847   27.0202 H   0  0  0  0  0  0
  -26.2905  -29.6742   24.1178 H   0  0  0  0  0  0
  -27.4098  -29.7282   25.4590 H   0  0  0  0  0  0
  -27.8723  -30.4313   23.9288 H   0  0  0  0  0  0
  -27.2689  -33.3598   26.2051 H   0  0  0  0  0  0
  -28.3838  -32.6874   25.0264 H   0  0  0  0  0  0
  -28.0757  -31.8424   26.5343 H   0  0  0  0  0  0
  -28.2624  -38.0083   24.7498 H   0  0  0  0  0  0
  -28.1058  -36.2616   24.6333 H   0  0  0  0  0  0
  -27.2305  -37.1506   25.8878 H   0  0  0  0  0  0
  -20.9265  -29.8836   21.6925 H   0  0  0  0  0  0
  -26.0185  -38.2867   24.1363 H   0  0  0  0  0  0
  -30.7373  -18.0027   20.2853 H   0  0  0  0  0  0
  -27.8330  -18.8578   20.6326 H   0  0  0  0  0  0
  -29.7438  -21.6340   22.6416 H   0  0  0  0  0  0
  -28.0049  -22.1466   22.8835 H   0  0  0  0  0  0
  -27.4193  -21.3902   20.6019 H   0  0  0  0  0  0
  -29.9992  -23.1582   20.7280 H   0  0  0  0  0  0
  -26.2195  -23.4896   20.1916 H   0  0  0  0  0  0
  -26.0104  -24.8893   21.2345 H   0  0  0  0  0  0
  -26.3377  -23.3415   21.9425 H   0  0  0  0  0  0
  -28.2577  -16.4191   21.2210 H   0  0  0  0  0  0
  -28.9236  -16.0749   19.6379 H   0  0  0  0  0  0
  -27.9108  -25.0025   18.9257 H   0  0  0  0  0  0
  -29.4946  -25.0726   19.5831 H   0  0  0  0  0  0
  -30.3818  -20.5384   20.4958 H   0  0  0  0  0  0
  -28.3783  -24.7840   21.9235 H   0  0  0  0  0  0
  -30.8221  -16.0052   21.8042 H   0  0  0  0  0  0
  -28.4061  -20.6332   18.4967 H   0  0  0  0  0  0
  1 25  1  0  0  0
  1 30  2  0  0  0
  1 81  1  0  0  0
  2  3  1  0  0  0
  2 25  1  0  0  0
  2 83  1  0  0  0
  2 84  1  0  0  0
  3  4  1  0  0  0
  3 85  1  0  0  0
  3 86  1  0  0  0
  4  5  1  0  0  0
  4 87  1  0  0  0
  4 88  1  0  0  0
  5  6  1  0  0  0
  5 26  1  0  0  0
  5 89  1  0  0  0
  6 25  1  0  0  0
  6 90  1  0  0  0
  6 91  1  0  0  0
  7  8  2  0  0  0
  7 26  1  0  0  0
  7 29  1  0  0  0
  8  9  1  0  0  0
  8 22  1  0  0  0
  9 10  1  0  0  0
  9 27  2  0  0  0
 10 11  2  0  0  0
 10 15  1  0  0  0
 11 12  1  0  0  0
 11 92  1  0  0  0
 12 13  2  0  0  0
 12 93  1  0  0  0
 13 14  1  0  0  0
 13 31  1  0  0  0
 14 15  2  0  0  0
 14 94  1  0  0  0
 15 95  1  0  0  0
 16 17  2  0  0  0
 16 21  1  0  0  0
 16 31  1  0  0  0
 17 18  1  0  0  0
 17 96  1  0  0  0
 18 19  2  0  0  0
 18 97  1  0  0  0
 19 20  1  0  0  0
 19 24  1  0  0  0
 20 21  2  0  0  0
 20 98  1  0  0  0
 21 23  1  0  0  0
 22 28  1  0  0  0
 22 32  2  0  0  0
 26 27  1  0  0  0
 28 99  1  0  0  0
 28100  1  0  0  0
 29101  1  0  0  0
 29102  1  0  0  0
 33 34  1  0  0  0
 33 66  1  0  0  0
 33 70  2  0  0  0
 34 36  1  0  0  0
 34 59  1  0  0  0
 34103  1  0  0  0
 35 44  2  0  0  0
 35 45  1  0  0  0
 35 68  1  0  0  0
 36 56  1  0  0  0
 36104  1  0  0  0
 37 39  1  0  0  0
 37 47  1  0  0  0
 37 66  1  0  0  0
 37105  1  0  0  0
 38 43  2  0  0  0
 38 46  1  0  0  0
 38 47  1  0  0  0
 39 64  1  0  0  0
 39 67  2  0  0  0
 40 52  1  0  0  0
 40 53  2  0  0  0
 40 58  1  0  0  0
 41106  1  0  0  0
 41107  1  0  0  0
 41108  1  0  0  0
 41 48  1  0  0  0
 42 43  1  0  0  0
 42 66  1  0  0  0
 42109  1  0  0  0
 42110  1  0  0  0
 43 44  1  0  0  0
 44111  1  0  0  0
 45 46  2  0  0  0
 45112  1  0  0  0
 46113  1  0  0  0
 47114  1  0  0  0
 47115  1  0  0  0
 48 56  1  0  0  0
 48 65  1  0  0  0
 48116  1  0  0  0
 49 50  1  0  0  0
 49 53  1  0  0  0
 49 64  1  0  0  0
 49117  1  0  0  0
 50 51  1  0  0  0
 50118  1  0  0  0
 50119  1  0  0  0
 51 52  1  0  0  0
 51120  1  0  0  0
 51121  1  0  0  0
 52122  1  0  0  0
 52123  1  0  0  0
 53 54  1  0  0  0
 54 55  2  0  0  0
 54124  1  0  0  0
 55 57  1  0  0  0
 55125  1  0  0  0
 56 69  2  0  0  0
 57 58  2  0  0  0
 57126  1  0  0  0
 58127  1  0  0  0
 59 60  1  0  0  0
 59 61  1  0  0  0
 59 62  1  0  0  0
 60128  1  0  0  0
 60129  1  0  0  0
 60130  1  0  0  0
 61131  1  0  0  0
 61132  1  0  0  0
 61133  1  0  0  0
 62134  1  0  0  0
 62135  1  0  0  0
 62136  1  0  0  0
 63 65  1  0  0  0
 63137  1  0  0  0
 63138  1  0  0  0
 63139  1  0  0  0
 64140  1  0  0  0
 65141  1  0  0  0
 68 78  1  0  0  0
 71 72  2  0  0  0
 71 77  1  0  0  0
 71142  1  0  0  0
 72 79  1  0  0  0
 72143  1  0  0  0
 73144  1  0  0  0
 73145  1  0  0  0
 73 74  1  0  0  0
 73 75  1  0  0  0
 74 75  1  0  0  0
 74 79  1  0  0  0
 74146  1  0  0  0
 75 80  1  0  0  0
 75147  1  0  0  0
 76148  1  0  0  0
 76149  1  0  0  0
 76150  1  0  0  0
 76 80  1  0  0  0
 77 81  1  0  0  0
 77151  1  0  0  0
 77152  1  0  0  0
 78 80  1  0  0  0
 78153  1  0  0  0
 78154  1  0  0  0
 79 82  1  0  0  0
 79155  1  0  0  0
 80156  1  0  0  0
 81157  1  0  0  0
 82158  1  0  0  0
M  ISO  4   1 100  68 101  78 101  81 100
M  END
> <chiral flag>
0

> <version>
0

> <s_m_source_file>
/data/baiqing/PycharmProjects/Reinvent-master-3.2/result/LINK_invent/BTK/process_docking_weight1_custom_sum_contain_oxygen_bond_distance_aromatic_linkinvent_7_9_3/rearranged_h_0122.sdf

> <i_m_source_file_index>
88

> <r_mmod_Potential_Energy-OPLS-2005>
23.7304954528809

> <r_mmod_Stretch_Energy-OPLS-2005>
44.7499504089355

> <r_mmod_Bend_Energy-OPLS-2005>
122.23405456543

> <r_mmod_Torsional_Energy-OPLS-2005>
317.582397460938

> <r_mmod_Improper_Torsional_Energy-OPLS-2005>
6.64992380142212

> <r_mmod_Van_der_Waal_Energy-OPLS-2005>
122.677085876465

> <r_mmod_Electrostatic_Energy-OPLS-2005>
-390.095306396484

> <r_mmod_Solvation_Energy-OPLS-2005>
-218.444610595703

> <b_mmod_Minimization_Converged-OPLS-2005>
0

> <r_mmod_RMS_Derivative-OPLS-2005>
3.86844182014465

$$$$
88
                    3D
 Structure written by MMmdl.
175184  0  0  1  0            999 V2000
  -30.7937  -14.3758   20.6778 C   0  0  0  0  0  0
  -30.4114  -12.2967   19.4087 C   0  0  0  0  0  0
  -29.4866  -12.5229   18.1998 C   0  0  0  0  0  0
  -28.0121  -12.3756   18.6167 C   0  0  0  0  0  0
  -27.6658  -13.2096   19.8781 C   0  0  2  0  0  0
  -28.7048  -12.9887   21.0017 C   0  0  0  0  0  0
  -25.2599  -13.8171   20.5674 C   0  0  0  0  0  0
  -24.1847  -13.0442   20.9167 C   0  0  0  0  0  0
  -24.6399  -11.6912   20.8720 C   0  0  0  0  0  0
  -23.9059  -10.4299   21.0381 C   0  0  0  0  0  0
  -24.3618   -9.4217   21.9158 C   0  0  0  0  0  0
  -23.6291   -8.2255   22.0753 C   0  0  0  0  0  0
  -22.4270   -8.0287   21.3554 C   0  0  0  0  0  0
  -21.9903   -9.0253   20.4643 C   0  0  0  0  0  0
  -22.7232  -10.2127   20.3034 C   0  0  0  0  0  0
  -21.6854   -6.0735   22.5291 C   0  0  0  0  0  0
  -21.4018   -6.5639   23.8224 C   0  0  0  0  0  0
  -21.3655   -5.6791   24.9182 C   0  0  0  0  0  0
  -21.6037   -4.3054   24.7233 C   0  0  0  0  0  0
  -21.8821   -3.8147   23.4356 C   0  0  0  0  0  0
  -21.9199   -4.6962   22.3412 C   0  0  0  0  0  0
  -22.7868  -13.5244   21.1822 C   0  0  0  0  0  0
  -22.1665   -4.2147   21.0986 F   0  0  0  0  0  0
  -21.5622   -3.4535   25.7743 F   0  0  0  0  0  0
  -30.0499  -13.2591   20.4611 N   0  0  0  0  0  0
  -26.3045  -12.9348   20.3372 N   0  0  0  0  0  0
  -25.9330  -11.6505   20.5751 N   0  0  0  0  0  0
  -22.0509  -12.8242   22.0371 N   0  0  0  0  0  0
  -25.4321  -15.1879   20.4083 N   0  0  0  0  0  0
  -31.7873  -14.6613   20.0034 O   0  0  0  0  0  0
  -21.6645   -6.8878   21.4248 O   0  0  0  0  0  0
  -22.3559  -14.5550   20.6664 O   0  0  0  0  0  0
  -24.6148  -31.8689   23.2107 C   0  0  0  0  0  0
  -25.9039  -32.4836   23.8404 C   0  0  1  0  0  0
  -27.2246  -27.4268   20.0881 C   0  0  0  0  0  0
  -25.5904  -33.8638   24.2329 N   0  0  0  0  0  0
  -23.4015  -30.4970   21.5493 C   0  0  2  0  0  0
  -24.8433  -28.9629   20.1118 C   0  0  0  0  0  0
  -22.7408  -29.4685   22.4953 C   0  0  0  0  0  0
  -18.0270  -28.1375   22.8504 C   0  0  0  0  0  0
  -24.1488  -36.7300   23.2636 C   0  0  0  0  0  0
  -25.9329  -30.8319   21.3650 C   0  0  0  0  0  0
  -26.0040  -29.4652   20.7110 C   0  0  0  0  0  0
  -27.1940  -28.7018   20.7026 C   0  0  0  0  0  0
  -26.0420  -26.9498   19.4730 C   0  0  0  0  0  0
  -24.8559  -27.7038   19.4921 C   0  0  0  0  0  0
  -23.6083  -29.8321   20.1620 C   0  0  0  0  0  0
  -25.4114  -36.3119   24.0340 C   0  0  1  0  0  0
  -20.5874  -28.3669   23.1306 C   0  0  2  0  0  0
  -20.6773  -26.9405   22.5408 C   0  0  0  0  0  0
  -19.5741  -26.6380   21.5219 C   0  0  0  0  0  0
  -18.1919  -26.7928   22.1628 C   0  0  0  0  0  0
  -19.1530  -28.8832   23.2907 C   0  0  0  0  0  0
  -18.9460  -30.1442   23.8915 C   0  0  0  0  0  0
  -17.6471  -30.6587   24.0574 C   0  0  0  0  0  0
  -25.9044  -34.9495   23.5127 C   0  0  0  0  0  0
  -16.5348  -29.9104   23.6329 C   0  0  0  0  0  0
  -16.7266  -28.6507   23.0359 C   0  0  0  0  0  0
  -26.4469  -31.6616   25.0727 C   0  0  0  0  0  0
  -25.3739  -31.3767   26.1483 C   0  0  0  0  0  0
  -27.0289  -30.3070   24.6083 C   0  0  0  0  0  0
  -27.6037  -32.4335   25.7483 C   0  0  0  0  0  0
  -27.5589  -37.1815   24.8471 C   0  0  0  0  0  0
  -21.4132  -29.3057   22.3721 N   0  0  0  0  0  0
  -26.4298  -37.3804   23.9417 N   0  0  0  0  0  0
  -24.6679  -31.0804   22.0998 N   0  0  0  0  0  0
  -23.4194  -28.8200   23.2967 O   0  0  0  0  0  0
  -28.4043  -26.7036   20.1215 O   0  0  0  0  0  0
  -26.5594  -34.8936   22.4680 O   0  0  0  0  0  0
  -23.5340  -32.1408   23.7536 O   0  0  0  0  0  0
  -27.4223  -22.9955   19.6401 C   0  0  0  0  0  0
  -29.1492  -19.0527   24.8566 C   0  0  0  0  0  0
  -25.6062  -21.9853   17.9615 C   0  0  0  0  0  0
  -24.9303  -23.0775   18.7542 C   0  0  0  0  0  0
  -28.6916  -19.9937   23.7573 C   0  0  0  0  0  0
  -29.5392  -17.7701   24.1195 C   0  0  0  0  0  0
  -26.4216  -23.1445   18.5004 C   0  0  0  0  0  0
  -29.5445  -19.5876   22.5492 C   0  0  2  0  0  0
  -29.9621  -25.0586   19.4151 C   0  0  0  0  0  0
  -27.7230  -24.3100   20.3883 C   0  0  0  0  0  0
  -28.8941  -20.0211   21.2123 C   0  0  0  0  0  0
  -28.7065  -21.5541   21.0617 C   0  0  0  0  0  0
  -31.3577  -16.1082   22.3602 C   0  0  0  0  0  0
  -31.0162  -17.6032   22.0908 C   0  0  0  0  0  0
  -28.4671  -25.3888   19.5390 C   0  0  1  0  0  0
  -27.8743  -21.8262   19.9046 N   0  0  0  0  0  0
  -30.4600  -15.1163   21.7461 N   0  0  0  0  0  0
  -29.7431  -18.1107   22.6843 N   0  3  1  0  0  0
  -31.4566  -12.3814   19.1068 H   0  0  0  0  0  0
  -30.3018  -11.2804   19.7899 H   0  0  0  0  0  0
  -29.7258  -11.8155   17.4044 H   0  0  0  0  0  0
  -29.6578  -13.5177   17.7859 H   0  0  0  0  0  0
  -27.8237  -11.3180   18.8047 H   0  0  0  0  0  0
  -27.3576  -12.6579   17.7910 H   0  0  0  0  0  0
  -27.7151  -14.2592   19.5868 H   0  0  0  0  0  0
  -28.6643  -11.9595   21.3615 H   0  0  0  0  0  0
  -28.4537  -13.6100   21.8613 H   0  0  0  0  0  0
  -25.2771   -9.5699   22.4714 H   0  0  0  0  0  0
  -24.0009   -7.4657   22.7480 H   0  0  0  0  0  0
  -21.0839   -8.8760   19.8954 H   0  0  0  0  0  0
  -22.3691  -10.9651   19.6132 H   0  0  0  0  0  0
  -21.2015   -7.6146   23.9726 H   0  0  0  0  0  0
  -21.1461   -6.0517   25.9082 H   0  0  0  0  0  0
  -22.0599   -2.7604   23.2858 H   0  0  0  0  0  0
  -22.4129  -11.9900   22.4751 H   0  0  0  0  0  0
  -21.1112  -13.1252   22.2560 H   0  0  0  0  0  0
  -24.6644  -15.8424   20.5126 H   0  0  0  0  0  0
  -26.2803  -15.6223   20.0670 H   0  0  0  0  0  0
  -26.7106  -32.5526   23.1161 H   0  0  0  0  0  0
  -25.0152  -33.9815   25.0546 H   0  0  0  0  0  0
  -22.6895  -31.3143   21.4134 H   0  0  0  0  0  0
  -23.3767  -35.9613   23.3289 H   0  0  0  0  0  0
  -24.3598  -36.8914   22.2052 H   0  0  0  0  0  0
  -23.7221  -37.6496   23.6649 H   0  0  0  0  0  0
  -26.0516  -31.5966   20.5958 H   0  0  0  0  0  0
  -26.8220  -30.8826   21.9822 H   0  0  0  0  0  0
  -28.0877  -29.0869   21.1749 H   0  0  0  0  0  0
  -25.9977  -25.9934   18.9768 H   0  0  0  0  0  0
  -23.9642  -27.3091   19.0239 H   0  0  0  0  0  0
  -23.7204  -30.6069   19.4019 H   0  0  0  0  0  0
  -22.7311  -29.2541   19.8653 H   0  0  0  0  0  0
  -25.1306  -36.1977   25.0837 H   0  0  0  0  0  0
  -20.9993  -28.3216   24.1413 H   0  0  0  0  0  0
  -20.5681  -26.2282   23.3595 H   0  0  0  0  0  0
  -21.6646  -26.7449   22.1202 H   0  0  0  0  0  0
  -19.6906  -25.6291   21.1243 H   0  0  0  0  0  0
  -19.6678  -27.3199   20.6751 H   0  0  0  0  0  0
  -17.4209  -26.6692   21.4003 H   0  0  0  0  0  0
  -18.0292  -26.0062   22.9010 H   0  0  0  0  0  0
  -19.7940  -30.7258   24.2283 H   0  0  0  0  0  0
  -17.5032  -31.6276   24.5176 H   0  0  0  0  0  0
  -15.5363  -30.3031   23.7637 H   0  0  0  0  0  0
  -15.8654  -28.0849   22.7062 H   0  0  0  0  0  0
  -24.5864  -30.7162   25.7844 H   0  0  0  0  0  0
  -24.8994  -32.2957   26.4928 H   0  0  0  0  0  0
  -25.8083  -30.8932   27.0236 H   0  0  0  0  0  0
  -26.2832  -29.6849   24.1119 H   0  0  0  0  0  0
  -27.4069  -29.7288   25.4520 H   0  0  0  0  0  0
  -27.8660  -30.4420   23.9232 H   0  0  0  0  0  0
  -27.2648  -33.3631   26.2065 H   0  0  0  0  0  0
  -28.3836  -32.6897   25.0302 H   0  0  0  0  0  0
  -28.0704  -31.8461   26.5394 H   0  0  0  0  0  0
  -28.2617  -38.0107   24.7538 H   0  0  0  0  0  0
  -28.1073  -36.2647   24.6265 H   0  0  0  0  0  0
  -27.2317  -37.1421   25.8876 H   0  0  0  0  0  0
  -20.9254  -29.8819   21.6996 H   0  0  0  0  0  0
  -26.0178  -38.2877   24.1413 H   0  0  0  0  0  0
  -28.3836  -18.8842   25.6149 H   0  0  0  0  0  0
  -30.0252  -19.4684   25.3562 H   0  0  0  0  0  0
  -25.4166  -21.9540   16.8898 H   0  0  0  0  0  0
  -25.7164  -21.0119   18.4374 H   0  0  0  0  0  0
  -24.5900  -22.8206   19.7565 H   0  0  0  0  0  0
  -24.2937  -23.7748   18.2120 H   0  0  0  0  0  0
  -28.8175  -21.0412   24.0360 H   0  0  0  0  0  0
  -27.6338  -19.8292   23.5457 H   0  0  0  0  0  0
  -28.7474  -17.0230   24.1893 H   0  0  0  0  0  0
  -30.4224  -17.3567   24.6028 H   0  0  0  0  0  0
  -26.7885  -23.8422   17.7512 H   0  0  0  0  0  0
  -30.5147  -20.0790   22.6492 H   0  0  0  0  0  0
  -30.1154  -24.0920   18.9324 H   0  0  0  0  0  0
  -30.4432  -25.0165   20.3925 H   0  0  0  0  0  0
  -30.4828  -25.8080   18.8190 H   0  0  0  0  0  0
  -28.2846  -24.1280   21.3027 H   0  0  0  0  0  0
  -26.7655  -24.6968   20.7360 H   0  0  0  0  0  0
  -27.9229  -19.5315   21.1231 H   0  0  0  0  0  0
  -29.4942  -19.6560   20.3790 H   0  0  0  0  0  0
  -29.6775  -22.0448   20.9677 H   0  0  0  0  0  0
  -28.2331  -21.9541   21.9596 H   0  0  0  0  0  0
  -31.4179  -15.8896   23.4240 H   0  0  0  0  0  0
  -32.3829  -15.9473   22.0203 H   0  0  0  0  0  0
  -30.9989  -17.7845   21.0158 H   0  0  0  0  0  0
  -31.8388  -18.2052   22.4790 H   0  0  0  0  0  0
  -28.0725  -25.4482   18.5251 H   0  0  0  0  0  0
  -29.6659  -14.7950   22.2811 H   0  0  0  0  0  0
  -28.9893  -17.6581   22.1900 H   0  0  0  0  0  0
  1 25  1  0  0  0
  1 30  2  0  0  0
  1 87  1  0  0  0
  2  3  1  0  0  0
  2 25  1  0  0  0
  2 89  1  0  0  0
  2 90  1  0  0  0
  3  4  1  0  0  0
  3 91  1  0  0  0
  3 92  1  0  0  0
  4  5  1  0  0  0
  4 93  1  0  0  0
  4 94  1  0  0  0
  5  6  1  0  0  0
  5 26  1  0  0  0
  5 95  1  0  0  0
  6 25  1  0  0  0
  6 96  1  0  0  0
  6 97  1  0  0  0
  7  8  2  0  0  0
  7 26  1  0  0  0
  7 29  1  0  0  0
  8  9  1  0  0  0
  8 22  1  0  0  0
  9 10  1  0  0  0
  9 27  2  0  0  0
 10 11  2  0  0  0
 10 15  1  0  0  0
 11 12  1  0  0  0
 11 98  1  0  0  0
 12 13  2  0  0  0
 12 99  1  0  0  0
 13 14  1  0  0  0
 13 31  1  0  0  0
 14 15  2  0  0  0
 14100  1  0  0  0
 15101  1  0  0  0
 16 17  2  0  0  0
 16 21  1  0  0  0
 16 31  1  0  0  0
 17 18  1  0  0  0
 17102  1  0  0  0
 18 19  2  0  0  0
 18103  1  0  0  0
 19 20  1  0  0  0
 19 24  1  0  0  0
 20 21  2  0  0  0
 20104  1  0  0  0
 21 23  1  0  0  0
 22 28  1  0  0  0
 22 32  2  0  0  0
 26 27  1  0  0  0
 28105  1  0  0  0
 28106  1  0  0  0
 29107  1  0  0  0
 29108  1  0  0  0
 33 34  1  0  0  0
 33 66  1  0  0  0
 33 70  2  0  0  0
 34 36  1  0  0  0
 34 59  1  0  0  0
 34109  1  0  0  0
 35 44  2  0  0  0
 35 45  1  0  0  0
 35 68  1  0  0  0
 36 56  1  0  0  0
 36110  1  0  0  0
 37 39  1  0  0  0
 37 47  1  0  0  0
 37 66  1  0  0  0
 37111  1  0  0  0
 38 43  2  0  0  0
 38 46  1  0  0  0
 38 47  1  0  0  0
 39 64  1  0  0  0
 39 67  2  0  0  0
 40 52  1  0  0  0
 40 53  2  0  0  0
 40 58  1  0  0  0
 41112  1  0  0  0
 41113  1  0  0  0
 41114  1  0  0  0
 41 48  1  0  0  0
 42 43  1  0  0  0
 42 66  1  0  0  0
 42115  1  0  0  0
 42116  1  0  0  0
 43 44  1  0  0  0
 44117  1  0  0  0
 45 46  2  0  0  0
 45118  1  0  0  0
 46119  1  0  0  0
 47120  1  0  0  0
 47121  1  0  0  0
 48 56  1  0  0  0
 48 65  1  0  0  0
 48122  1  0  0  0
 49 50  1  0  0  0
 49 53  1  0  0  0
 49 64  1  0  0  0
 49123  1  0  0  0
 50 51  1  0  0  0
 50124  1  0  0  0
 50125  1  0  0  0
 51 52  1  0  0  0
 51126  1  0  0  0
 51127  1  0  0  0
 52128  1  0  0  0
 52129  1  0  0  0
 53 54  1  0  0  0
 54 55  2  0  0  0
 54130  1  0  0  0
 55 57  1  0  0  0
 55131  1  0  0  0
 56 69  2  0  0  0
 57 58  2  0  0  0
 57132  1  0  0  0
 58133  1  0  0  0
 59 60  1  0  0  0
 59 61  1  0  0  0
 59 62  1  0  0  0
 60134  1  0  0  0
 60135  1  0  0  0
 60136  1  0  0  0
 61137  1  0  0  0
 61138  1  0  0  0
 61139  1  0  0  0
 62140  1  0  0  0
 62141  1  0  0  0
 62142  1  0  0  0
 63 65  1  0  0  0
 63143  1  0  0  0
 63144  1  0  0  0
 63145  1  0  0  0
 64146  1  0  0  0
 65147  1  0  0  0
 68 85  1  0  0  0
 71 80  1  0  0  0
 71 86  2  0  0  0
 71 77  1  0  0  0
 72 75  1  0  0  0
 72 76  1  0  0  0
 72148  1  0  0  0
 72149  1  0  0  0
 73 74  1  0  0  0
 73 77  1  0  0  0
 73150  1  0  0  0
 73151  1  0  0  0
 74 77  1  0  0  0
 74152  1  0  0  0
 74153  1  0  0  0
 75 78  1  0  0  0
 75154  1  0  0  0
 75155  1  0  0  0
 76 88  1  0  0  0
 76156  1  0  0  0
 76157  1  0  0  0
 77158  1  0  0  0
 78 81  1  0  0  0
 78 88  1  0  0  0
 78159  1  0  0  0
 79160  1  0  0  0
 79161  1  0  0  0
 79162  1  0  0  0
 79 85  1  0  0  0
 80 85  1  0  0  0
 80163  1  0  0  0
 80164  1  0  0  0
 81 82  1  0  0  0
 81165  1  0  0  0
 81166  1  0  0  0
 82 86  1  0  0  0
 82167  1  0  0  0
 82168  1  0  0  0
 83 84  1  0  0  0
 83 87  1  0  0  0
 83169  1  0  0  0
 83170  1  0  0  0
 84171  1  0  0  0
 84172  1  0  0  0
 84 88  1  0  0  0
 85173  1  0  0  0
 87174  1  0  0  0
 88175  1  0  0  0
M  CHG  1  88   1
M  ISO  4   1 100  68 101  85 101  87 100
M  END
> <chiral flag>
0

> <version>
0

> <s_m_source_file>
/data/baiqing/PycharmProjects/Reinvent-master-3.2/result/LINK_invent/BTK/process_docking_weight1_custom_sum_contain_oxygen_bond_distance_aromatic_linkinvent_7_9_3/rearranged_h_0122.sdf

> <i_m_source_file_index>
89

> <r_mmod_Potential_Energy-OPLS-2005>
-64.3991851806641

> <r_mmod_Stretch_Energy-OPLS-2005>
40.5392417907715

> <r_mmod_Bend_Energy-OPLS-2005>
137.483459472656

> <r_mmod_Torsional_Energy-OPLS-2005>
328.426239013672

> <r_mmod_Improper_Torsional_Energy-OPLS-2005>
3.20348405838013

> <r_mmod_Van_der_Waal_Energy-OPLS-2005>
136.417877197266

> <r_mmod_Electrostatic_Energy-OPLS-2005>
-276.053680419922

> <r_mmod_Solvation_Energy-OPLS-2005>
-444.594116210938

> <b_mmod_Minimization_Converged-OPLS-2005>
0

> <r_mmod_RMS_Derivative-OPLS-2005>
2.24810099601746

$$$$
89
                    3D
 Structure written by MMmdl.
178186  0  0  1  0            999 V2000
  -30.6977  -14.4916   20.6565 C   0  0  0  0  0  0
  -30.4264  -12.3461   19.4314 C   0  0  0  0  0  0
  -29.4972  -12.5286   18.2128 C   0  0  0  0  0  0
  -28.0188  -12.3765   18.6205 C   0  0  0  0  0  0
  -27.6629  -13.2069   19.8826 C   0  0  2  0  0  0
  -28.6991  -12.9657   21.0024 C   0  0  0  0  0  0
  -25.2591  -13.8161   20.5678 C   0  0  0  0  0  0
  -24.1833  -13.0432   20.9164 C   0  0  0  0  0  0
  -24.6387  -11.6909   20.8727 C   0  0  0  0  0  0
  -23.9060  -10.4294   21.0396 C   0  0  0  0  0  0
  -24.3618   -9.4210   21.9180 C   0  0  0  0  0  0
  -23.6290   -8.2256   22.0760 C   0  0  0  0  0  0
  -22.4270   -8.0283   21.3562 C   0  0  0  0  0  0
  -21.9912   -9.0246   20.4644 C   0  0  0  0  0  0
  -22.7246  -10.2123   20.3045 C   0  0  0  0  0  0
  -21.6850   -6.0742   22.5281 C   0  0  0  0  0  0
  -21.4012   -6.5644   23.8214 C   0  0  0  0  0  0
  -21.3655   -5.6795   24.9168 C   0  0  0  0  0  0
  -21.6038   -4.3058   24.7226 C   0  0  0  0  0  0
  -21.8821   -3.8154   23.4345 C   0  0  0  0  0  0
  -21.9190   -4.6970   22.3406 C   0  0  0  0  0  0
  -22.7860  -13.5246   21.1821 C   0  0  0  0  0  0
  -22.1656   -4.2161   21.0982 F   0  0  0  0  0  0
  -21.5627   -3.4545   25.7740 F   0  0  0  0  0  0
  -30.0253  -13.3155   20.4701 N   0  0  0  0  0  0
  -26.3023  -12.9330   20.3381 N   0  0  0  0  0  0
  -25.9312  -11.6486   20.5764 N   0  0  0  0  0  0
  -22.0501  -12.8211   22.0360 N   0  0  0  0  0  0
  -25.4344  -15.1875   20.4087 N   0  0  0  0  0  0
  -31.7560  -14.7076   20.0558 O   0  0  0  0  0  0
  -21.6641   -6.8886   21.4247 O   0  0  0  0  0  0
  -22.3553  -14.5557   20.6689 O   0  0  0  0  0  0
  -24.6175  -31.8666   23.2100 C   0  0  0  0  0  0
  -25.9071  -32.4794   23.8390 C   0  0  1  0  0  0
  -27.2361  -27.4142   20.1046 C   0  0  0  0  0  0
  -25.5933  -33.8592   24.2335 N   0  0  0  0  0  0
  -23.4055  -30.4924   21.5457 C   0  0  2  0  0  0
  -24.8526  -28.9522   20.1145 C   0  0  0  0  0  0
  -22.7396  -29.4677   22.4935 C   0  0  0  0  0  0
  -18.0271  -28.1368   22.8491 C   0  0  0  0  0  0
  -24.1493  -36.7289   23.2636 C   0  0  0  0  0  0
  -25.9337  -30.8289   21.3611 C   0  0  0  0  0  0
  -26.0115  -29.4591   20.7137 C   0  0  0  0  0  0
  -27.2008  -28.6959   20.7097 C   0  0  0  0  0  0
  -26.0580  -26.9254   19.4990 C   0  0  0  0  0  0
  -24.8720  -27.6839   19.5077 C   0  0  0  0  0  0
  -23.6171  -29.8239   20.1603 C   0  0  0  0  0  0
  -25.4119  -36.3090   24.0344 C   0  0  1  0  0  0
  -20.5862  -28.3674   23.1285 C   0  0  2  0  0  0
  -20.6762  -26.9392   22.5429 C   0  0  0  0  0  0
  -19.5749  -26.6379   21.5202 C   0  0  0  0  0  0
  -18.1914  -26.7927   22.1592 C   0  0  0  0  0  0
  -19.1525  -28.8824   23.2895 C   0  0  0  0  0  0
  -18.9465  -30.1425   23.8922 C   0  0  0  0  0  0
  -17.6476  -30.6572   24.0570 C   0  0  0  0  0  0
  -25.9043  -34.9459   23.5131 C   0  0  0  0  0  0
  -16.5367  -29.9095   23.6327 C   0  0  0  0  0  0
  -16.7271  -28.6509   23.0350 C   0  0  0  0  0  0
  -26.4517  -31.6556   25.0707 C   0  0  0  0  0  0
  -25.3770  -31.3599   26.1427 C   0  0  0  0  0  0
  -27.0368  -30.3016   24.6054 C   0  0  0  0  0  0
  -27.6128  -32.4223   25.7470 C   0  0  0  0  0  0
  -27.5570  -37.1808   24.8477 C   0  0  0  0  0  0
  -21.4125  -29.3064   22.3687 N   0  0  0  0  0  0
  -26.4282  -37.3784   23.9417 N   0  0  0  0  0  0
  -24.6708  -31.0760   22.0994 N   0  0  0  0  0  0
  -23.4161  -28.8215   23.2983 O   0  0  0  0  0  0
  -28.4163  -26.6952   20.1512 O   0  0  0  0  0  0
  -26.5586  -34.8917   22.4682 O   0  0  0  0  0  0
  -23.5363  -32.1441   23.7490 O   0  0  0  0  0  0
  -29.6400  -17.4935   23.9260 C   0  0  0  0  0  0
  -31.0938  -17.1466   23.5616 C   0  0  0  0  0  0
  -29.8461  -16.9608   20.8971 C   0  0  0  0  0  0
  -30.2017  -15.6140   21.6406 C   0  0  2  0  0  0
  -28.9715  -18.4720   22.9291 C   0  0  1  0  0  0
  -28.6971  -17.8470   21.5152 C   0  0  1  0  0  0
  -31.2717  -15.8359   22.7645 C   0  0  2  0  0  0
  -26.6370  -18.1598   24.0529 C   0  0  0  0  0  0
  -28.0624  -20.1503   24.6844 C   0  0  0  0  0  0
  -28.1290  -18.9010   20.4959 C   0  0  0  0  0  0
  -28.8903  -20.2464   20.2617 C   0  0  0  0  0  0
  -28.0371  -21.5381   20.4660 C   0  0  0  0  0  0
  -28.6981  -22.8399   19.9305 C   0  0  0  0  0  0
  -27.9765  -24.1797   20.2779 C   0  0  0  0  0  0
  -28.5521  -25.4108   19.5128 C   0  0  0  0  0  0
  -27.7113  -19.1501   23.5669 C   0  0  0  0  0  0
  -31.3886  -14.6899   23.6990 N   0  3  0  0  0  0
  -31.4690  -12.4604   19.1292 H   0  0  0  0  0  0
  -30.3498  -11.3274   19.8184 H   0  0  0  0  0  0
  -29.7459  -11.8008   17.4390 H   0  0  0  0  0  0
  -29.6572  -13.5156   17.7738 H   0  0  0  0  0  0
  -27.8356  -11.3182   18.8129 H   0  0  0  0  0  0
  -27.3660  -12.6518   17.7909 H   0  0  0  0  0  0
  -27.7157  -14.2606   19.6046 H   0  0  0  0  0  0
  -28.6920  -11.9131   21.2911 H   0  0  0  0  0  0
  -28.4174  -13.4886   21.9119 H   0  0  0  0  0  0
  -25.2760   -9.5686   22.4757 H   0  0  0  0  0  0
  -23.9992   -7.4655   22.7493 H   0  0  0  0  0  0
  -21.0855   -8.8759   19.8956 H   0  0  0  0  0  0
  -22.3708  -10.9652   19.6152 H   0  0  0  0  0  0
  -21.2011   -7.6151   23.9721 H   0  0  0  0  0  0
  -21.1469   -6.0525   25.9070 H   0  0  0  0  0  0
  -22.0607   -2.7622   23.2846 H   0  0  0  0  0  0
  -22.4098  -11.9828   22.4675 H   0  0  0  0  0  0
  -21.1122  -13.1247   22.2587 H   0  0  0  0  0  0
  -24.6741  -15.8474   20.5251 H   0  0  0  0  0  0
  -26.2922  -15.6231   20.0971 H   0  0  0  0  0  0
  -26.7142  -32.5532   23.1154 H   0  0  0  0  0  0
  -25.0178  -33.9767   25.0543 H   0  0  0  0  0  0
  -22.6980  -31.3114   21.4004 H   0  0  0  0  0  0
  -23.3756  -35.9606   23.3294 H   0  0  0  0  0  0
  -24.3578  -36.8913   22.2040 H   0  0  0  0  0  0
  -23.7243  -37.6494   23.6666 H   0  0  0  0  0  0
  -26.0337  -31.5890   20.5850 H   0  0  0  0  0  0
  -26.8270  -30.8954   21.9708 H   0  0  0  0  0  0
  -28.0944  -29.0815   21.1805 H   0  0  0  0  0  0
  -26.0323  -25.9549   19.0273 H   0  0  0  0  0  0
  -23.9795  -27.2850   19.0461 H   0  0  0  0  0  0
  -23.7325  -30.6010   19.4034 H   0  0  0  0  0  0
  -22.7418  -29.2471   19.8569 H   0  0  0  0  0  0
  -25.1278  -36.1949   25.0827 H   0  0  0  0  0  0
  -20.9972  -28.3267   24.1390 H   0  0  0  0  0  0
  -20.5620  -26.2284   23.3642 H   0  0  0  0  0  0
  -21.6637  -26.7393   22.1239 H   0  0  0  0  0  0
  -19.6921  -25.6294   21.1219 H   0  0  0  0  0  0
  -19.6698  -27.3187   20.6735 H   0  0  0  0  0  0
  -17.4201  -26.6711   21.3978 H   0  0  0  0  0  0
  -18.0290  -26.0029   22.8939 H   0  0  0  0  0  0
  -19.7945  -30.7228   24.2298 H   0  0  0  0  0  0
  -17.5044  -31.6263   24.5154 H   0  0  0  0  0  0
  -15.5377  -30.3015   23.7635 H   0  0  0  0  0  0
  -15.8670  -28.0854   22.7043 H   0  0  0  0  0  0
  -24.6172  -30.6667   25.7809 H   0  0  0  0  0  0
  -24.8673  -32.2664   26.4688 H   0  0  0  0  0  0
  -25.8161  -30.9023   27.0295 H   0  0  0  0  0  0
  -26.2922  -29.6734   24.1165 H   0  0  0  0  0  0
  -27.4237  -29.7285   25.4489 H   0  0  0  0  0  0
  -27.8688  -30.4359   23.9140 H   0  0  0  0  0  0
  -27.2873  -33.3608   26.1963 H   0  0  0  0  0  0
  -28.4014  -32.6594   25.0313 H   0  0  0  0  0  0
  -28.0696  -31.8342   26.5443 H   0  0  0  0  0  0
  -28.2598  -38.0093   24.7501 H   0  0  0  0  0  0
  -28.1053  -36.2624   24.6326 H   0  0  0  0  0  0
  -27.2277  -37.1492   25.8877 H   0  0  0  0  0  0
  -20.9280  -29.8806   21.6927 H   0  0  0  0  0  0
  -26.0166  -38.2853   24.1428 H   0  0  0  0  0  0
  -29.6691  -17.9561   24.9119 H   0  0  0  0  0  0
  -29.0379  -16.5955   24.0572 H   0  0  0  0  0  0
  -31.6922  -17.1011   24.4715 H   0  0  0  0  0  0
  -31.5317  -17.9720   22.9995 H   0  0  0  0  0  0
  -29.5266  -16.6960   19.8885 H   0  0  0  0  0  0
  -30.7430  -17.5631   20.7470 H   0  0  0  0  0  0
  -29.2835  -15.3035   22.1241 H   0  0  0  0  0  0
  -29.6873  -19.2780   22.7774 H   0  0  0  0  0  0
  -27.8756  -17.1455   21.6563 H   0  0  0  0  0  0
  -32.2533  -15.9160   22.2911 H   0  0  0  0  0  0
  -26.3072  -17.4925   23.2572 H   0  0  0  0  0  0
  -25.7523  -18.6930   24.4062 H   0  0  0  0  0  0
  -26.9965  -17.5469   24.8801 H   0  0  0  0  0  0
  -28.8413  -20.8458   24.3690 H   0  0  0  0  0  0
  -28.4005  -19.6553   25.5944 H   0  0  0  0  0  0
  -27.1903  -20.7498   24.9524 H   0  0  0  0  0  0
  -27.1025  -19.1344   20.7774 H   0  0  0  0  0  0
  -27.9993  -18.4161   19.5282 H   0  0  0  0  0  0
  -29.2630  -20.2382   19.2363 H   0  0  0  0  0  0
  -29.7842  -20.3073   20.8795 H   0  0  0  0  0  0
  -27.8232  -21.6578   21.5279 H   0  0  0  0  0  0
  -27.0702  -21.4139   19.9746 H   0  0  0  0  0  0
  -28.7834  -22.7521   18.8468 H   0  0  0  0  0  0
  -29.7210  -22.8963   20.3066 H   0  0  0  0  0  0
  -28.0512  -24.3540   21.3511 H   0  0  0  0  0  0
  -26.9113  -24.0885   20.0685 H   0  0  0  0  0  0
  -28.1853  -25.4453   18.4865 H   0  0  0  0  0  0
  -29.6294  -25.2700   19.4209 H   0  0  0  0  0  0
  -27.2371  -19.7691   22.8103 H   0  0  0  0  0  0
  -30.5365  -14.5221   24.2039 H   0  0  0  0  0  0
  -32.1088  -14.8794   24.3760 H   0  0  0  0  0  0
  -31.6563  -13.8464   23.2244 H   0  0  0  0  0  0
  1 25  1  0  0  0
  1 30  2  0  0  0
  1 74  1  0  0  0
  2  3  1  0  0  0
  2 25  1  0  0  0
  2 88  1  0  0  0
  2 89  1  0  0  0
  3  4  1  0  0  0
  3 90  1  0  0  0
  3 91  1  0  0  0
  4  5  1  0  0  0
  4 92  1  0  0  0
  4 93  1  0  0  0
  5  6  1  0  0  0
  5 26  1  0  0  0
  5 94  1  0  0  0
  6 25  1  0  0  0
  6 95  1  0  0  0
  6 96  1  0  0  0
  7  8  2  0  0  0
  7 26  1  0  0  0
  7 29  1  0  0  0
  8  9  1  0  0  0
  8 22  1  0  0  0
  9 10  1  0  0  0
  9 27  2  0  0  0
 10 11  2  0  0  0
 10 15  1  0  0  0
 11 12  1  0  0  0
 11 97  1  0  0  0
 12 13  2  0  0  0
 12 98  1  0  0  0
 13 14  1  0  0  0
 13 31  1  0  0  0
 14 15  2  0  0  0
 14 99  1  0  0  0
 15100  1  0  0  0
 16 17  2  0  0  0
 16 21  1  0  0  0
 16 31  1  0  0  0
 17 18  1  0  0  0
 17101  1  0  0  0
 18 19  2  0  0  0
 18102  1  0  0  0
 19 20  1  0  0  0
 19 24  1  0  0  0
 20 21  2  0  0  0
 20103  1  0  0  0
 21 23  1  0  0  0
 22 28  1  0  0  0
 22 32  2  0  0  0
 26 27  1  0  0  0
 28104  1  0  0  0
 28105  1  0  0  0
 29106  1  0  0  0
 29107  1  0  0  0
 33 34  1  0  0  0
 33 66  1  0  0  0
 33 70  2  0  0  0
 34 36  1  0  0  0
 34 59  1  0  0  0
 34108  1  0  0  0
 35 44  2  0  0  0
 35 45  1  0  0  0
 35 68  1  0  0  0
 36 56  1  0  0  0
 36109  1  0  0  0
 37 39  1  0  0  0
 37 47  1  0  0  0
 37 66  1  0  0  0
 37110  1  0  0  0
 38 43  2  0  0  0
 38 46  1  0  0  0
 38 47  1  0  0  0
 39 64  1  0  0  0
 39 67  2  0  0  0
 40 52  1  0  0  0
 40 53  2  0  0  0
 40 58  1  0  0  0
 41111  1  0  0  0
 41112  1  0  0  0
 41113  1  0  0  0
 41 48  1  0  0  0
 42 43  1  0  0  0
 42 66  1  0  0  0
 42114  1  0  0  0
 42115  1  0  0  0
 43 44  1  0  0  0
 44116  1  0  0  0
 45 46  2  0  0  0
 45117  1  0  0  0
 46118  1  0  0  0
 47119  1  0  0  0
 47120  1  0  0  0
 48 56  1  0  0  0
 48 65  1  0  0  0
 48121  1  0  0  0
 49 50  1  0  0  0
 49 53  1  0  0  0
 49 64  1  0  0  0
 49122  1  0  0  0
 50 51  1  0  0  0
 50123  1  0  0  0
 50124  1  0  0  0
 51 52  1  0  0  0
 51125  1  0  0  0
 51126  1  0  0  0
 52127  1  0  0  0
 52128  1  0  0  0
 53 54  1  0  0  0
 54 55  2  0  0  0
 54129  1  0  0  0
 55 57  1  0  0  0
 55130  1  0  0  0
 56 69  2  0  0  0
 57 58  2  0  0  0
 57131  1  0  0  0
 58132  1  0  0  0
 59 60  1  0  0  0
 59 61  1  0  0  0
 59 62  1  0  0  0
 60133  1  0  0  0
 60134  1  0  0  0
 60135  1  0  0  0
 61136  1  0  0  0
 61137  1  0  0  0
 61138  1  0  0  0
 62139  1  0  0  0
 62140  1  0  0  0
 62141  1  0  0  0
 63 65  1  0  0  0
 63142  1  0  0  0
 63143  1  0  0  0
 63144  1  0  0  0
 64145  1  0  0  0
 65146  1  0  0  0
 68 85  1  0  0  0
 71 72  1  0  0  0
 71147  1  0  0  0
 71148  1  0  0  0
 71 75  1  0  0  0
 72 77  1  0  0  0
 72149  1  0  0  0
 72150  1  0  0  0
 73 74  1  0  0  0
 73 76  1  0  0  0
 73151  1  0  0  0
 73152  1  0  0  0
 74 77  1  0  0  0
 74153  1  0  0  0
 75 76  1  0  0  0
 75 86  1  0  0  0
 75154  1  0  0  0
 76 80  1  0  0  0
 76155  1  0  0  0
 77 87  1  0  0  0
 77156  1  0  0  0
 78157  1  0  0  0
 78158  1  0  0  0
 78159  1  0  0  0
 78 86  1  0  0  0
 79 86  1  0  0  0
 79160  1  0  0  0
 79161  1  0  0  0
 79162  1  0  0  0
 80 81  1  0  0  0
 80163  1  0  0  0
 80164  1  0  0  0
 81 82  1  0  0  0
 81165  1  0  0  0
 81166  1  0  0  0
 82 83  1  0  0  0
 82167  1  0  0  0
 82168  1  0  0  0
 83 84  1  0  0  0
 83169  1  0  0  0
 83170  1  0  0  0
 84 85  1  0  0  0
 84171  1  0  0  0
 84172  1  0  0  0
 85173  1  0  0  0
 85174  1  0  0  0
 86175  1  0  0  0
 87176  1  0  0  0
 87177  1  0  0  0
 87178  1  0  0  0
M  CHG  1  87   1
M  ISO  4   1 100  68 101  74 100  85 101
M  END
> <chiral flag>
0

> <version>
0

> <s_m_source_file>
/data/baiqing/PycharmProjects/Reinvent-master-3.2/result/LINK_invent/BTK/process_docking_weight1_custom_sum_contain_oxygen_bond_distance_aromatic_linkinvent_7_9_3/rearranged_h_0122.sdf

> <i_m_source_file_index>
90

> <r_mmod_Potential_Energy-OPLS-2005>
-126.766334533691

> <r_mmod_Stretch_Energy-OPLS-2005>
55.5866661071777

> <r_mmod_Bend_Energy-OPLS-2005>
141.357360839844

> <r_mmod_Torsional_Energy-OPLS-2005>
231.161437988281

> <r_mmod_Improper_Torsional_Energy-OPLS-2005>
1.68726539611816

> <r_mmod_Van_der_Waal_Energy-OPLS-2005>
133.110260009766

> <r_mmod_Electrostatic_Energy-OPLS-2005>
-253.400421142578

> <r_mmod_Solvation_Energy-OPLS-2005>
-450.858581542969

> <b_mmod_Minimization_Converged-OPLS-2005>
0

> <r_mmod_RMS_Derivative-OPLS-2005>
2.77452182769775

$$$$
90
                    3D
 Structure written by MMmdl.
157165  0  0  1  0            999 V2000
  -30.6255  -14.6866   20.4992 C   0  0  0  0  0  0
  -30.4293  -12.4247   19.4583 C   0  0  0  0  0  0
  -29.5036  -12.5058   18.2254 C   0  0  0  0  0  0
  -28.0287  -12.3354   18.6405 C   0  0  0  0  0  0
  -27.6447  -13.2230   19.8561 C   0  0  2  0  0  0
  -28.6896  -13.1206   20.9879 C   0  0  0  0  0  0
  -25.2515  -13.8187   20.5659 C   0  0  0  0  0  0
  -24.1816  -13.0433   20.9196 C   0  0  0  0  0  0
  -24.6392  -11.6906   20.8757 C   0  0  0  0  0  0
  -23.9071  -10.4290   21.0424 C   0  0  0  0  0  0
  -24.3619   -9.4203   21.9203 C   0  0  0  0  0  0
  -23.6300   -8.2237   22.0761 C   0  0  0  0  0  0
  -22.4285   -8.0277   21.3547 C   0  0  0  0  0  0
  -21.9920   -9.0256   20.4653 C   0  0  0  0  0  0
  -22.7249  -10.2140   20.3073 C   0  0  0  0  0  0
  -21.6859   -6.0741   22.5278 C   0  0  0  0  0  0
  -21.4011   -6.5639   23.8209 C   0  0  0  0  0  0
  -21.3661   -5.6789   24.9176 C   0  0  0  0  0  0
  -21.6043   -4.3059   24.7227 C   0  0  0  0  0  0
  -21.8820   -3.8151   23.4347 C   0  0  0  0  0  0
  -21.9190   -4.6965   22.3406 C   0  0  0  0  0  0
  -22.7836  -13.5213   21.1865 C   0  0  0  0  0  0
  -22.1664   -4.2149   21.0991 F   0  0  0  0  0  0
  -21.5632   -3.4548   25.7745 F   0  0  0  0  0  0
  -29.9917  -13.4710   20.4082 N   0  0  0  0  0  0
  -26.2944  -12.9366   20.3312 N   0  0  0  0  0  0
  -25.9326  -11.6510   20.5781 N   0  0  0  0  0  0
  -22.0493  -12.8201   22.0429 N   0  0  0  0  0  0
  -25.4180  -15.1898   20.3982 N   0  0  0  0  0  0
  -31.8073  -14.8002   20.1642 O   0  0  0  0  0  0
  -21.6641   -6.8884   21.4240 O   0  0  0  0  0  0
  -22.3518  -14.5534   20.6733 O   0  0  0  0  0  0
  -24.6325  -31.8564   23.1962 C   0  0  0  0  0  0
  -25.9157  -32.4751   23.8331 C   0  0  1  0  0  0
  -27.2110  -27.2514   20.1266 C   0  0  0  0  0  0
  -25.5956  -33.8559   24.2247 N   0  0  0  0  0  0
  -23.4271  -30.4832   21.5404 C   0  0  2  0  0  0
  -24.8736  -28.9379   20.1024 C   0  0  0  0  0  0
  -22.7509  -29.4600   22.4858 C   0  0  0  0  0  0
  -18.0304  -28.1380   22.8465 C   0  0  0  0  0  0
  -24.1486  -36.7283   23.2640 C   0  0  0  0  0  0
  -25.9762  -30.7643   21.3813 C   0  0  0  0  0  0
  -26.0466  -29.3889   20.7198 C   0  0  0  0  0  0
  -27.2163  -28.5598   20.7226 C   0  0  0  0  0  0
  -26.0081  -26.8821   19.4734 C   0  0  0  0  0  0
  -24.8615  -27.6926   19.4664 C   0  0  0  0  0  0
  -23.6466  -29.8252   20.1528 C   0  0  0  0  0  0
  -25.4110  -36.3062   24.0325 C   0  0  1  0  0  0
  -20.5917  -28.3696   23.1233 C   0  0  2  0  0  0
  -20.6804  -26.9404   22.5377 C   0  0  0  0  0  0
  -19.5777  -26.6361   21.5207 C   0  0  0  0  0  0
  -18.1949  -26.7902   22.1617 C   0  0  0  0  0  0
  -19.1559  -28.8851   23.2848 C   0  0  0  0  0  0
  -18.9498  -30.1454   23.8851 C   0  0  0  0  0  0
  -17.6511  -30.6588   24.0553 C   0  0  0  0  0  0
  -25.9066  -34.9434   23.5078 C   0  0  0  0  0  0
  -16.5395  -29.9080   23.6341 C   0  0  0  0  0  0
  -16.7300  -28.6510   23.0330 C   0  0  0  0  0  0
  -26.4512  -31.6585   25.0739 C   0  0  0  0  0  0
  -25.3720  -31.3733   26.1433 C   0  0  0  0  0  0
  -27.0376  -30.3005   24.6231 C   0  0  0  0  0  0
  -27.6064  -32.4350   25.7480 C   0  0  0  0  0  0
  -27.5560  -37.1798   24.8465 C   0  0  0  0  0  0
  -21.4223  -29.3058   22.3624 N   0  0  0  0  0  0
  -26.4278  -37.3768   23.9415 N   0  0  0  0  0  0
  -24.6976  -31.0522   22.0957 N   0  0  0  0  0  0
  -23.4215  -28.8137   23.2942 O   0  0  0  0  0  0
  -28.2963  -26.3375   20.1998 O   0  0  0  0  0  0
  -26.5623  -34.8914   22.4639 O   0  0  0  0  0  0
  -23.5495  -32.1395   23.7264 O   0  0  0  0  0  0
  -29.9035  -21.7439   22.7787 C   0  0  0  0  0  0
  -30.2335  -20.7402   23.6419 C   0  0  0  0  0  0
  -29.7039  -19.7939   21.6774 C   0  0  0  0  0  0
  -28.1582  -24.6196   18.4202 C   0  0  0  0  0  0
  -29.4625  -18.5353   20.7773 C   0  0  0  0  0  0
  -28.9035  -23.6950   20.7514 C   0  0  0  0  0  0
  -29.0638  -22.0678   20.4275 C   0  0  0  0  0  0
  -30.3547  -17.2126   21.0905 C   0  0  0  0  0  0
  -28.0742  -24.8620   19.9466 C   0  0  1  0  0  0
  -29.5382  -21.1771   21.5759 N   0  0  0  0  0  0
  -30.0872  -19.5797   22.9468 N   0  3  0  0  0  0
  -29.8684  -15.8015   20.7988 N   0  0  0  0  0  0
  -31.4711  -12.5513   19.1572 H   0  0  0  0  0  0
  -30.3648  -11.4409   19.9227 H   0  0  0  0  0  0
  -29.7752  -11.7394   17.4965 H   0  0  0  0  0  0
  -29.6360  -13.4666   17.7234 H   0  0  0  0  0  0
  -27.8762  -11.2837   18.8894 H   0  0  0  0  0  0
  -27.3697  -12.5482   17.7967 H   0  0  0  0  0  0
  -27.6507  -14.2516   19.4961 H   0  0  0  0  0  0
  -28.7155  -12.1109   21.3985 H   0  0  0  0  0  0
  -28.4308  -13.7797   21.8190 H   0  0  0  0  0  0
  -25.2772   -9.5679   22.4776 H   0  0  0  0  0  0
  -24.0014   -7.4626   22.7479 H   0  0  0  0  0  0
  -21.0851   -8.8787   19.8952 H   0  0  0  0  0  0
  -22.3725  -10.9681   19.6183 H   0  0  0  0  0  0
  -21.1999   -7.6149   23.9712 H   0  0  0  0  0  0
  -21.1482   -6.0533   25.9079 H   0  0  0  0  0  0
  -22.0594   -2.7611   23.2857 H   0  0  0  0  0  0
  -22.4123  -11.9837   22.4769 H   0  0  0  0  0  0
  -21.1116  -13.1219   22.2665 H   0  0  0  0  0  0
  -24.6335  -15.8302   20.4631 H   0  0  0  0  0  0
  -26.2468  -15.6179   20.0072 H   0  0  0  0  0  0
  -26.7207  -32.5386   23.1064 H   0  0  0  0  0  0
  -25.0166  -33.9718   25.0436 H   0  0  0  0  0  0
  -22.7233  -31.3067   21.3945 H   0  0  0  0  0  0
  -23.3743  -35.9615   23.3314 H   0  0  0  0  0  0
  -24.3560  -36.8893   22.2048 H   0  0  0  0  0  0
  -23.7260  -37.6494   23.6666 H   0  0  0  0  0  0
  -26.1219  -31.5225   20.6093 H   0  0  0  0  0  0
  -26.8550  -30.8092   22.0134 H   0  0  0  0  0  0
  -28.1111  -28.8981   21.2299 H   0  0  0  0  0  0
  -25.8952  -25.9362   18.9710 H   0  0  0  0  0  0
  -23.9671  -27.3394   18.9697 H   0  0  0  0  0  0
  -23.7677  -30.6036   19.4016 H   0  0  0  0  0  0
  -22.7648  -29.2587   19.8461 H   0  0  0  0  0  0
  -25.1294  -36.1899   25.0819 H   0  0  0  0  0  0
  -21.0030  -28.3278   24.1349 H   0  0  0  0  0  0
  -20.5711  -26.2309   23.3592 H   0  0  0  0  0  0
  -21.6675  -26.7416   22.1167 H   0  0  0  0  0  0
  -19.6943  -25.6266   21.1238 H   0  0  0  0  0  0
  -19.6712  -27.3167   20.6726 H   0  0  0  0  0  0
  -17.4221  -26.6644   21.4017 H   0  0  0  0  0  0
  -18.0359  -26.0037   22.8997 H   0  0  0  0  0  0
  -19.7987  -30.7284   24.2161 H   0  0  0  0  0  0
  -17.5078  -31.6248   24.5179 H   0  0  0  0  0  0
  -15.5400  -30.2995   23.7681 H   0  0  0  0  0  0
  -15.8686  -28.0858   22.7025 H   0  0  0  0  0  0
  -24.5910  -30.7068   25.7788 H   0  0  0  0  0  0
  -24.8900  -32.2901   26.4838 H   0  0  0  0  0  0
  -25.8031  -30.8941   27.0232 H   0  0  0  0  0  0
  -26.2991  -29.6727   24.1240 H   0  0  0  0  0  0
  -27.4055  -29.7292   25.4763 H   0  0  0  0  0  0
  -27.8843  -30.4284   23.9483 H   0  0  0  0  0  0
  -27.2681  -33.3691   26.1954 H   0  0  0  0  0  0
  -28.3888  -32.6834   25.0316 H   0  0  0  0  0  0
  -28.0667  -31.8527   26.5463 H   0  0  0  0  0  0
  -28.2583  -38.0083   24.7499 H   0  0  0  0  0  0
  -28.1046  -36.2631   24.6310 H   0  0  0  0  0  0
  -27.2277  -37.1454   25.8860 H   0  0  0  0  0  0
  -20.9398  -29.8829   21.6883 H   0  0  0  0  0  0
  -26.0142  -38.2830   24.1441 H   0  0  0  0  0  0
  -29.8930  -22.8075   22.9637 H   0  0  0  0  0  0
  -30.5437  -20.7642   24.6767 H   0  0  0  0  0  0
  -27.7383  -23.6447   18.1692 H   0  0  0  0  0  0
  -29.1851  -24.6384   18.0568 H   0  0  0  0  0  0
  -27.6214  -25.3654   17.8371 H   0  0  0  0  0  0
  -29.6069  -18.8612   19.7472 H   0  0  0  0  0  0
  -28.4018  -18.3149   20.8874 H   0  0  0  0  0  0
  -27.9549  -23.2382   21.0311 H   0  0  0  0  0  0
  -29.6825  -23.7239   19.9961 H   0  0  0  0  0  0
  -29.7714  -21.8614   19.6169 H   0  0  0  0  0  0
  -28.1402  -21.6109   20.0523 H   0  0  0  0  0  0
  -30.5363  -17.1748   22.1631 H   0  0  0  0  0  0
  -31.3416  -17.3577   20.6508 H   0  0  0  0  0  0
  -27.0323  -24.6986   20.2271 H   0  0  0  0  0  0
  -30.2374  -18.6654   23.3584 H   0  0  0  0  0  0
  -28.8935  -15.6196   20.9855 H   0  0  0  0  0  0
  1 25  1  0  0  0
  1 30  2  0  0  0
  1 82  1  0  0  0
  2  3  1  0  0  0
  2 25  1  0  0  0
  2 83  1  0  0  0
  2 84  1  0  0  0
  3  4  1  0  0  0
  3 85  1  0  0  0
  3 86  1  0  0  0
  4  5  1  0  0  0
  4 87  1  0  0  0
  4 88  1  0  0  0
  5  6  1  0  0  0
  5 26  1  0  0  0
  5 89  1  0  0  0
  6 25  1  0  0  0
  6 90  1  0  0  0
  6 91  1  0  0  0
  7  8  2  0  0  0
  7 26  1  0  0  0
  7 29  1  0  0  0
  8  9  1  0  0  0
  8 22  1  0  0  0
  9 10  1  0  0  0
  9 27  2  0  0  0
 10 11  2  0  0  0
 10 15  1  0  0  0
 11 12  1  0  0  0
 11 92  1  0  0  0
 12 13  2  0  0  0
 12 93  1  0  0  0
 13 14  1  0  0  0
 13 31  1  0  0  0
 14 15  2  0  0  0
 14 94  1  0  0  0
 15 95  1  0  0  0
 16 17  2  0  0  0
 16 21  1  0  0  0
 16 31  1  0  0  0
 17 18  1  0  0  0
 17 96  1  0  0  0
 18 19  2  0  0  0
 18 97  1  0  0  0
 19 20  1  0  0  0
 19 24  1  0  0  0
 20 21  2  0  0  0
 20 98  1  0  0  0
 21 23  1  0  0  0
 22 28  1  0  0  0
 22 32  2  0  0  0
 26 27  1  0  0  0
 28 99  1  0  0  0
 28100  1  0  0  0
 29101  1  0  0  0
 29102  1  0  0  0
 33 34  1  0  0  0
 33 66  1  0  0  0
 33 70  2  0  0  0
 34 36  1  0  0  0
 34 59  1  0  0  0
 34103  1  0  0  0
 35 44  2  0  0  0
 35 45  1  0  0  0
 35 68  1  0  0  0
 36 56  1  0  0  0
 36104  1  0  0  0
 37 39  1  0  0  0
 37 47  1  0  0  0
 37 66  1  0  0  0
 37105  1  0  0  0
 38 43  2  0  0  0
 38 46  1  0  0  0
 38 47  1  0  0  0
 39 64  1  0  0  0
 39 67  2  0  0  0
 40 52  1  0  0  0
 40 53  2  0  0  0
 40 58  1  0  0  0
 41106  1  0  0  0
 41107  1  0  0  0
 41108  1  0  0  0
 41 48  1  0  0  0
 42 43  1  0  0  0
 42 66  1  0  0  0
 42109  1  0  0  0
 42110  1  0  0  0
 43 44  1  0  0  0
 44111  1  0  0  0
 45 46  2  0  0  0
 45112  1  0  0  0
 46113  1  0  0  0
 47114  1  0  0  0
 47115  1  0  0  0
 48 56  1  0  0  0
 48 65  1  0  0  0
 48116  1  0  0  0
 49 50  1  0  0  0
 49 53  1  0  0  0
 49 64  1  0  0  0
 49117  1  0  0  0
 50 51  1  0  0  0
 50118  1  0  0  0
 50119  1  0  0  0
 51 52  1  0  0  0
 51120  1  0  0  0
 51121  1  0  0  0
 52122  1  0  0  0
 52123  1  0  0  0
 53 54  1  0  0  0
 54 55  2  0  0  0
 54124  1  0  0  0
 55 57  1  0  0  0
 55125  1  0  0  0
 56 69  2  0  0  0
 57 58  2  0  0  0
 57126  1  0  0  0
 58127  1  0  0  0
 59 60  1  0  0  0
 59 61  1  0  0  0
 59 62  1  0  0  0
 60128  1  0  0  0
 60129  1  0  0  0
 60130  1  0  0  0
 61131  1  0  0  0
 61132  1  0  0  0
 61133  1  0  0  0
 62134  1  0  0  0
 62135  1  0  0  0
 62136  1  0  0  0
 63 65  1  0  0  0
 63137  1  0  0  0
 63138  1  0  0  0
 63139  1  0  0  0
 64140  1  0  0  0
 65141  1  0  0  0
 68 79  1  0  0  0
 71 72  2  0  0  0
 71 80  1  0  0  0
 71142  1  0  0  0
 72 81  1  0  0  0
 72143  1  0  0  0
 73 75  1  0  0  0
 73 80  1  0  0  0
 73 81  2  0  0  0
 74144  1  0  0  0
 74145  1  0  0  0
 74146  1  0  0  0
 74 79  1  0  0  0
 75 78  1  0  0  0
 75147  1  0  0  0
 75148  1  0  0  0
 76 77  1  0  0  0
 76 79  1  0  0  0
 76149  1  0  0  0
 76150  1  0  0  0
 77 80  1  0  0  0
 77151  1  0  0  0
 77152  1  0  0  0
 78 82  1  0  0  0
 78153  1  0  0  0
 78154  1  0  0  0
 79155  1  0  0  0
 81156  1  0  0  0
 82157  1  0  0  0
M  CHG  1  81   1
M  ISO  4   1 100  68 101  79 101  82 100
M  END
> <chiral flag>
0

> <version>
0

> <s_m_source_file>
/data/baiqing/PycharmProjects/Reinvent-master-3.2/result/LINK_invent/BTK/process_docking_weight1_custom_sum_contain_oxygen_bond_distance_aromatic_linkinvent_7_9_3/rearranged_h_0122.sdf

> <i_m_source_file_index>
91

> <r_mmod_Potential_Energy-OPLS-2005>
340.265197753906

> <r_mmod_Stretch_Energy-OPLS-2005>
138.404922485352

> <r_mmod_Bend_Energy-OPLS-2005>
403.386077880859

> <r_mmod_Torsional_Energy-OPLS-2005>
236.544845581055

> <r_mmod_Improper_Torsional_Energy-OPLS-2005>
4.52257061004639

> <r_mmod_Van_der_Waal_Energy-OPLS-2005>
150.050430297852

> <r_mmod_Electrostatic_Energy-OPLS-2005>
-221.945404052734

> <r_mmod_Solvation_Energy-OPLS-2005>
-447.669555664062

> <b_mmod_Minimization_Converged-OPLS-2005>
0

> <r_mmod_RMS_Derivative-OPLS-2005>
3.8284125328064

$$$$
91
                    3D
 Structure written by MMmdl.
144152  0  0  1  0            999 V2000
  -30.1439  -16.1087   20.3316 C   0  0  0  0  0  0
  -30.3736  -13.4349   19.5757 C   0  0  0  0  0  0
  -29.5694  -12.7950   18.3935 C   0  0  0  0  0  0
  -28.1815  -12.3380   18.8446 C   0  0  0  0  0  0
  -27.5819  -13.3674   19.8203 C   0  0  2  0  0  0
  -28.5512  -13.8995   20.9206 C   0  0  0  0  0  0
  -25.2251  -13.8397   20.5869 C   0  0  0  0  0  0
  -24.1700  -13.0464   20.9293 C   0  0  0  0  0  0
  -24.6479  -11.6992   20.8738 C   0  0  0  0  0  0
  -23.9177  -10.4305   21.0362 C   0  0  0  0  0  0
  -24.3692   -9.4220   21.9151 C   0  0  0  0  0  0
  -23.6337   -8.2267   22.0738 C   0  0  0  0  0  0
  -22.4315   -8.0307   21.3536 C   0  0  0  0  0  0
  -21.9969   -9.0278   20.4620 C   0  0  0  0  0  0
  -22.7332  -10.2135   20.3020 C   0  0  0  0  0  0
  -21.6873   -6.0745   22.5271 C   0  0  0  0  0  0
  -21.4009   -6.5650   23.8215 C   0  0  0  0  0  0
  -21.3659   -5.6793   24.9169 C   0  0  0  0  0  0
  -21.6050   -4.3052   24.7220 C   0  0  0  0  0  0
  -21.8820   -3.8146   23.4341 C   0  0  0  0  0  0
  -21.9192   -4.6970   22.3403 C   0  0  0  0  0  0
  -22.7699  -13.5135   21.1935 C   0  0  0  0  0  0
  -22.1674   -4.2145   21.0976 F   0  0  0  0  0  0
  -21.5627   -3.4535   25.7738 F   0  0  0  0  0  0
  -29.6609  -14.6623   20.2544 N   0  0  0  0  0  0
  -26.2753  -12.9834   20.3322 N   0  0  0  0  0  0
  -25.9437  -11.6824   20.5640 N   0  0  0  0  0  0
  -22.0378  -12.8070   22.0472 N   0  0  0  0  0  0
  -25.3798  -15.2148   20.4368 N   0  0  0  0  0  0
  -31.3747  -15.9425   20.1348 O   0  0  0  0  0  0
  -21.6676   -6.8907   21.4249 O   0  0  0  0  0  0
  -22.3344  -14.5442   20.6801 O   0  0  0  0  0  0
  -24.7145  -31.7605   23.1234 C   0  0  0  0  0  0
  -25.9583  -32.4269   23.7898 C   0  0  1  0  0  0
  -27.2426  -26.3627   20.2606 C   0  0  0  0  0  0
  -25.6014  -33.8119   24.1764 N   0  0  0  0  0  0
  -23.5572  -30.3445   21.4855 C   0  0  2  0  0  0
  -25.0191  -28.6117   20.1270 C   0  0  0  0  0  0
  -22.7918  -29.4104   22.4605 C   0  0  0  0  0  0
  -18.0370  -28.1449   22.8442 C   0  0  0  0  0  0
  -24.1485  -36.7051   23.2663 C   0  0  0  0  0  0
  -26.1506  -30.3801   21.4379 C   0  0  0  0  0  0
  -26.2103  -28.9065   20.8008 C   0  0  0  0  0  0
  -27.2856  -27.8205   20.8270 C   0  0  0  0  0  0
  -26.0201  -26.3660   19.5087 C   0  0  0  0  0  0
  -24.9851  -27.3714   19.4561 C   0  0  0  0  0  0
  -23.8281  -29.6066   20.1343 C   0  0  0  0  0  0
  -25.4145  -36.2786   24.0260 C   0  0  1  0  0  0
  -20.6025  -28.3841   23.1060 C   0  0  2  0  0  0
  -20.6811  -26.9456   22.5415 C   0  0  0  0  0  0
  -19.5792  -26.6345   21.5238 C   0  0  0  0  0  0
  -18.1975  -26.7967   22.1610 C   0  0  0  0  0  0
  -19.1643  -28.8986   23.2734 C   0  0  0  0  0  0
  -18.9545  -30.1543   23.8799 C   0  0  0  0  0  0
  -17.6523  -30.6640   24.0555 C   0  0  0  0  0  0
  -25.9133  -34.9188   23.4881 C   0  0  0  0  0  0
  -16.5418  -29.9110   23.6369 C   0  0  0  0  0  0
  -16.7350  -28.6534   23.0394 C   0  0  0  0  0  0
  -26.4652  -31.6455   25.0665 C   0  0  0  0  0  0
  -25.3620  -31.3866   26.1203 C   0  0  0  0  0  0
  -27.0652  -30.2762   24.6789 C   0  0  0  0  0  0
  -27.6015  -32.4404   25.7526 C   0  0  0  0  0  0
  -27.5537  -37.1681   24.8487 C   0  0  0  0  0  0
  -21.4530  -29.3013   22.3352 N   0  0  0  0  0  0
  -26.4242  -37.3577   23.9422 N   0  0  0  0  0  0
  -24.8361  -30.8675   22.0675 N   0  0  0  0  0  0
  -23.4211  -28.7762   23.3114 O   0  0  0  0  0  0
  -28.1621  -24.9962   20.3856 O   0  0  0  0  0  0
  -26.5835  -34.8853   22.4533 O   0  0  0  0  0  0
  -23.6077  -32.0863   23.5922 O   0  0  0  0  0  0
  -28.0527  -19.9304   21.3451 C   0  0  0  0  0  0
  -28.6291  -18.3267   21.4954 C   0  0  0  0  0  0
  -29.5549  -19.3595   19.8345 C   0  0  0  0  0  0
  -28.8944  -21.0737   20.5473 C   0  0  1  0  0  0
  -28.1906  -23.0756   20.1043 C   0  0  0  0  0  0
  -29.4535  -17.6467   20.3832 N   0  0  0  0  0  0
  -31.3356  -13.7405   19.1699 H   0  0  0  0  0  0
  -30.6320  -12.6752   20.3134 H   0  0  0  0  0  0
  -30.1207  -11.9590   17.9618 H   0  0  0  0  0  0
  -29.4666  -13.5304   17.5974 H   0  0  0  0  0  0
  -28.2895  -11.3805   19.3538 H   0  0  0  0  0  0
  -27.5253  -12.1696   17.9905 H   0  0  0  0  0  0
  -27.3890  -14.2271   19.1785 H   0  0  0  0  0  0
  -28.8997  -13.1057   21.5841 H   0  0  0  0  0  0
  -28.0156  -14.6031   21.5625 H   0  0  0  0  0  0
  -25.2816   -9.5698   22.4749 H   0  0  0  0  0  0
  -24.0015   -7.4675   22.7485 H   0  0  0  0  0  0
  -21.0877   -8.8814   19.8939 H   0  0  0  0  0  0
  -22.3781  -10.9679   19.6135 H   0  0  0  0  0  0
  -21.2005   -7.6158   23.9710 H   0  0  0  0  0  0
  -21.1480   -6.0526   25.9073 H   0  0  0  0  0  0
  -22.0595   -2.7600   23.2848 H   0  0  0  0  0  0
  -22.4035  -11.9755   22.4869 H   0  0  0  0  0  0
  -21.0984  -13.1036   22.2713 H   0  0  0  0  0  0
  -24.6099  -15.8636   20.5629 H   0  0  0  0  0  0
  -26.2360  -15.6648   20.1398 H   0  0  0  0  0  0
  -26.7703  -32.4643   23.0626 H   0  0  0  0  0  0
  -25.0096  -33.9122   24.9880 H   0  0  0  0  0  0
  -22.9047  -31.1927   21.2608 H   0  0  0  0  0  0
  -23.3786  -35.9338   23.3222 H   0  0  0  0  0  0
  -24.3558  -36.8832   22.2106 H   0  0  0  0  0  0
  -23.7182  -37.6153   23.6825 H   0  0  0  0  0  0
  -26.3851  -31.0751   20.6294 H   0  0  0  0  0  0
  -26.9931  -30.4673   22.1141 H   0  0  0  0  0  0
  -28.1715  -28.0614   21.3996 H   0  0  0  0  0  0
  -25.8014  -25.4500   18.9776 H   0  0  0  0  0  0
  -24.0975  -27.1336   18.8852 H   0  0  0  0  0  0
  -24.0261  -30.3524   19.3611 H   0  0  0  0  0  0
  -22.9277  -29.0859   19.8006 H   0  0  0  0  0  0
  -25.1353  -36.1502   25.0733 H   0  0  0  0  0  0
  -21.0112  -28.3492   24.1182 H   0  0  0  0  0  0
  -20.5643  -26.2468   23.3714 H   0  0  0  0  0  0
  -21.6663  -26.7351   22.1242 H   0  0  0  0  0  0
  -19.6951  -25.6237   21.1325 H   0  0  0  0  0  0
  -19.6707  -27.3136   20.6772 H   0  0  0  0  0  0
  -17.4208  -26.6733   21.4033 H   0  0  0  0  0  0
  -18.0355  -26.0144   22.9041 H   0  0  0  0  0  0
  -19.8036  -30.7379   24.2108 H   0  0  0  0  0  0
  -17.5095  -31.6313   24.5174 H   0  0  0  0  0  0
  -15.5421  -30.2990   23.7749 H   0  0  0  0  0  0
  -15.8751  -28.0819   22.7181 H   0  0  0  0  0  0
  -24.5893  -30.7138   25.7474 H   0  0  0  0  0  0
  -24.8693  -32.3088   26.4293 H   0  0  0  0  0  0
  -25.7679  -30.9245   27.0213 H   0  0  0  0  0  0
  -26.3455  -29.6259   24.1789 H   0  0  0  0  0  0
  -27.4004  -29.7353   25.5661 H   0  0  0  0  0  0
  -27.9433  -30.3869   24.0421 H   0  0  0  0  0  0
  -27.2505  -33.3801   26.1826 H   0  0  0  0  0  0
  -28.3941  -32.6822   25.0433 H   0  0  0  0  0  0
  -28.0559  -31.8727   26.5666 H   0  0  0  0  0  0
  -28.2511  -38.0022   24.7493 H   0  0  0  0  0  0
  -28.1043  -36.2506   24.6317 H   0  0  0  0  0  0
  -27.2239  -37.1329   25.8893 H   0  0  0  0  0  0
  -20.9909  -29.8582   21.6293 H   0  0  0  0  0  0
  -26.0023  -38.2588   24.1453 H   0  0  0  0  0  0
  -27.8527  -20.3100   22.3500 H   0  0  0  0  0  0
  -27.0685  -19.8751   20.8652 H   0  0  0  0  0  0
  -27.7805  -17.6713   21.7279 H   0  0  0  0  0  0
  -29.2625  -18.2959   22.3880 H   0  0  0  0  0  0
  -30.6281  -19.5147   19.6713 H   0  0  0  0  0  0
  -29.1327  -19.3033   18.8234 H   0  0  0  0  0  0
  -29.7224  -21.3445   21.2090 H   0  0  0  0  0  0
  -27.1163  -22.8935   20.0066 H   0  0  0  0  0  0
  -28.5247  -23.1217   19.0646 H   0  0  0  0  0  0
  1 25  1  0  0  0
  1 30  2  0  0  0
  1 76  1  0  0  0
  2  3  1  0  0  0
  2 25  1  0  0  0
  2 77  1  0  0  0
  2 78  1  0  0  0
  3  4  1  0  0  0
  3 79  1  0  0  0
  3 80  1  0  0  0
  4  5  1  0  0  0
  4 81  1  0  0  0
  4 82  1  0  0  0
  5  6  1  0  0  0
  5 26  1  0  0  0
  5 83  1  0  0  0
  6 25  1  0  0  0
  6 84  1  0  0  0
  6 85  1  0  0  0
  7  8  2  0  0  0
  7 26  1  0  0  0
  7 29  1  0  0  0
  8  9  1  0  0  0
  8 22  1  0  0  0
  9 10  1  0  0  0
  9 27  2  0  0  0
 10 11  2  0  0  0
 10 15  1  0  0  0
 11 12  1  0  0  0
 11 86  1  0  0  0
 12 13  2  0  0  0
 12 87  1  0  0  0
 13 14  1  0  0  0
 13 31  1  0  0  0
 14 15  2  0  0  0
 14 88  1  0  0  0
 15 89  1  0  0  0
 16 17  2  0  0  0
 16 21  1  0  0  0
 16 31  1  0  0  0
 17 18  1  0  0  0
 17 90  1  0  0  0
 18 19  2  0  0  0
 18 91  1  0  0  0
 19 20  1  0  0  0
 19 24  1  0  0  0
 20 21  2  0  0  0
 20 92  1  0  0  0
 21 23  1  0  0  0
 22 28  1  0  0  0
 22 32  2  0  0  0
 26 27  1  0  0  0
 28 93  1  0  0  0
 28 94  1  0  0  0
 29 95  1  0  0  0
 29 96  1  0  0  0
 33 34  1  0  0  0
 33 66  1  0  0  0
 33 70  2  0  0  0
 34 36  1  0  0  0
 34 59  1  0  0  0
 34 97  1  0  0  0
 35 44  2  0  0  0
 35 45  1  0  0  0
 35 68  1  0  0  0
 36 56  1  0  0  0
 36 98  1  0  0  0
 37 39  1  0  0  0
 37 47  1  0  0  0
 37 66  1  0  0  0
 37 99  1  0  0  0
 38 43  2  0  0  0
 38 46  1  0  0  0
 38 47  1  0  0  0
 39 64  1  0  0  0
 39 67  2  0  0  0
 40 52  1  0  0  0
 40 53  2  0  0  0
 40 58  1  0  0  0
 41100  1  0  0  0
 41101  1  0  0  0
 41102  1  0  0  0
 41 48  1  0  0  0
 42 43  1  0  0  0
 42 66  1  0  0  0
 42103  1  0  0  0
 42104  1  0  0  0
 43 44  1  0  0  0
 44105  1  0  0  0
 45 46  2  0  0  0
 45106  1  0  0  0
 46107  1  0  0  0
 47108  1  0  0  0
 47109  1  0  0  0
 48 56  1  0  0  0
 48 65  1  0  0  0
 48110  1  0  0  0
 49 50  1  0  0  0
 49 53  1  0  0  0
 49 64  1  0  0  0
 49111  1  0  0  0
 50 51  1  0  0  0
 50112  1  0  0  0
 50113  1  0  0  0
 51 52  1  0  0  0
 51114  1  0  0  0
 51115  1  0  0  0
 52116  1  0  0  0
 52117  1  0  0  0
 53 54  1  0  0  0
 54 55  2  0  0  0
 54118  1  0  0  0
 55 57  1  0  0  0
 55119  1  0  0  0
 56 69  2  0  0  0
 57 58  2  0  0  0
 57120  1  0  0  0
 58121  1  0  0  0
 59 60  1  0  0  0
 59 61  1  0  0  0
 59 62  1  0  0  0
 60122  1  0  0  0
 60123  1  0  0  0
 60124  1  0  0  0
 61125  1  0  0  0
 61126  1  0  0  0
 61127  1  0  0  0
 62128  1  0  0  0
 62129  1  0  0  0
 62130  1  0  0  0
 63 65  1  0  0  0
 63131  1  0  0  0
 63132  1  0  0  0
 63133  1  0  0  0
 64134  1  0  0  0
 65135  1  0  0  0
 68 75  1  0  0  0
 71 72  1  0  0  0
 71 74  1  0  0  0
 71136  1  0  0  0
 71137  1  0  0  0
 72 76  1  0  0  0
 72138  1  0  0  0
 72139  1  0  0  0
 73 74  1  0  0  0
 73 76  1  0  0  0
 73140  1  0  0  0
 73141  1  0  0  0
 74 75  1  0  0  0
 74142  1  0  0  0
 75143  1  0  0  0
 75144  1  0  0  0
M  ISO  4   1 100  68 101  75 101  76 100
M  END
> <chiral flag>
0

> <version>
0

> <s_m_source_file>
/data/baiqing/PycharmProjects/Reinvent-master-3.2/result/LINK_invent/BTK/process_docking_weight1_custom_sum_contain_oxygen_bond_distance_aromatic_linkinvent_7_9_3/rearranged_h_0122.sdf

> <i_m_source_file_index>
92

> <r_mmod_Potential_Energy-OPLS-2005>
4711.18212890625

> <r_mmod_Stretch_Energy-OPLS-2005>
1953.69860839844

> <r_mmod_Bend_Energy-OPLS-2005>
1032.90893554688

> <r_mmod_Torsional_Energy-OPLS-2005>
335.596893310547

> <r_mmod_Improper_Torsional_Energy-OPLS-2005>
7.49442338943481

> <r_mmod_Van_der_Waal_Energy-OPLS-2005>
110.785461425781

> <r_mmod_Electrostatic_Energy-OPLS-2005>
-264.831115722656

> <r_mmod_Solvation_Energy-OPLS-2005>
-215.226318359375

> <b_mmod_Minimization_Converged-OPLS-2005>
0

> <r_mmod_RMS_Derivative-OPLS-2005>
8.33432483673096

$$$$
92
                    3D
 Structure written by MMmdl.
185194  0  0  1  0            999 V2000
  -30.6792  -14.4298   20.5573 C   0  0  0  0  0  0
  -30.4157  -12.2676   19.4319 C   0  0  0  0  0  0
  -29.4875  -12.4785   18.2171 C   0  0  0  0  0  0
  -28.0096  -12.3387   18.6303 C   0  0  0  0  0  0
  -27.6616  -13.1863   19.8821 C   0  0  2  0  0  0
  -28.6976  -12.9382   21.0047 C   0  0  0  0  0  0
  -25.2607  -13.8127   20.5701 C   0  0  0  0  0  0
  -24.1818  -13.0409   20.9203 C   0  0  0  0  0  0
  -24.6329  -11.6877   20.8741 C   0  0  0  0  0  0
  -23.8981  -10.4274   21.0400 C   0  0  0  0  0  0
  -24.3564   -9.4195   21.9163 C   0  0  0  0  0  0
  -23.6269   -8.2213   22.0732 C   0  0  0  0  0  0
  -22.4239   -8.0258   21.3538 C   0  0  0  0  0  0
  -21.9866   -9.0206   20.4620 C   0  0  0  0  0  0
  -22.7166  -10.2100   20.3033 C   0  0  0  0  0  0
  -21.6854   -6.0713   22.5269 C   0  0  0  0  0  0
  -21.4013   -6.5623   23.8202 C   0  0  0  0  0  0
  -21.3661   -5.6782   24.9168 C   0  0  0  0  0  0
  -21.6049   -4.3047   24.7224 C   0  0  0  0  0  0
  -21.8815   -3.8131   23.4349 C   0  0  0  0  0  0
  -21.9194   -4.6942   22.3405 C   0  0  0  0  0  0
  -22.7859  -13.5242   21.1855 C   0  0  0  0  0  0
  -22.1662   -4.2130   21.0985 F   0  0  0  0  0  0
  -21.5635   -3.4530   25.7738 F   0  0  0  0  0  0
  -30.0335  -13.2407   20.4612 N   0  0  0  0  0  0
  -26.2992  -12.9223   20.3392 N   0  0  0  0  0  0
  -25.9247  -11.6405   20.5798 N   0  0  0  0  0  0
  -22.0504  -12.8218   22.0420 N   0  0  0  0  0  0
  -25.4416  -15.1819   20.4089 N   0  0  0  0  0  0
  -31.8053  -14.6275   20.0893 O   0  0  0  0  0  0
  -21.6634   -6.8839   21.4218 O   0  0  0  0  0  0
  -22.3558  -14.5553   20.6724 O   0  0  0  0  0  0
  -24.6100  -31.8736   23.2150 C   0  0  0  0  0  0
  -25.8998  -32.4881   23.8457 C   0  0  1  0  0  0
  -27.2249  -27.4664   20.0810 C   0  0  0  0  0  0
  -25.5883  -33.8688   24.2397 N   0  0  0  0  0  0
  -23.3949  -30.4955   21.5569 C   0  0  2  0  0  0
  -24.8367  -28.9642   20.1178 C   0  0  0  0  0  0
  -22.7394  -29.4673   22.5055 C   0  0  0  0  0  0
  -18.0255  -28.1389   22.8490 C   0  0  0  0  0  0
  -24.1445  -36.7301   23.2653 C   0  0  0  0  0  0
  -25.9187  -30.8467   21.3606 C   0  0  0  0  0  0
  -25.9953  -29.4825   20.7072 C   0  0  0  0  0  0
  -27.1952  -28.7417   20.6821 C   0  0  0  0  0  0
  -26.0513  -26.9566   19.4822 C   0  0  0  0  0  0
  -24.8535  -27.6980   19.5097 C   0  0  0  0  0  0
  -23.6018  -29.8323   20.1682 C   0  0  0  0  0  0
  -25.4073  -36.3163   24.0367 C   0  0  1  0  0  0
  -20.5842  -28.3655   23.1345 C   0  0  2  0  0  0
  -20.6732  -26.9414   22.5418 C   0  0  0  0  0  0
  -19.5719  -26.6393   21.5206 C   0  0  0  0  0  0
  -18.1897  -26.7933   22.1618 C   0  0  0  0  0  0
  -19.1512  -28.8842   23.2898 C   0  0  0  0  0  0
  -18.9462  -30.1443   23.8918 C   0  0  0  0  0  0
  -17.6477  -30.6607   24.0577 C   0  0  0  0  0  0
  -25.9012  -34.9523   23.5183 C   0  0  0  0  0  0
  -16.5351  -29.9124   23.6344 C   0  0  0  0  0  0
  -16.7251  -28.6525   23.0374 C   0  0  0  0  0  0
  -26.4435  -31.6673   25.0784 C   0  0  0  0  0  0
  -25.3720  -31.3785   26.1562 C   0  0  0  0  0  0
  -27.0254  -30.3132   24.6113 C   0  0  0  0  0  0
  -27.6035  -32.4386   25.7522 C   0  0  0  0  0  0
  -27.5562  -37.1807   24.8497 C   0  0  0  0  0  0
  -21.4137  -29.3038   22.3798 N   0  0  0  0  0  0
  -26.4262  -37.3840   23.9465 N   0  0  0  0  0  0
  -24.6597  -31.0844   22.1056 N   0  0  0  0  0  0
  -23.4189  -28.8230   23.3082 O   0  0  0  0  0  0
  -28.4125  -26.7744   20.0562 O   0  0  0  0  0  0
  -26.5583  -34.8958   22.4749 O   0  0  0  0  0  0
  -23.5295  -32.1499   23.7549 O   0  0  0  0  0  0
  -31.9593  -16.7576   23.4569 C   0  0  0  0  0  0
  -31.5595  -17.6142   22.4894 C   0  0  0  0  0  0
  -33.4081  -16.6442   23.8808 C   0  0  0  0  0  0
  -31.1606  -15.6953   24.2008 C   0  0  0  0  0  0
  -33.5205  -15.2576   24.5191 C   0  0  0  0  0  0
  -32.1523  -15.0267   25.1607 C   0  0  0  0  0  0
  -28.9850  -17.5712   22.7981 C   0  0  0  0  0  0
  -28.9851  -18.4889   24.0353 C   0  0  0  0  0  0
  -29.9727  -20.2737   22.6459 C   0  0  0  0  0  0
  -29.9690  -19.3590   21.3831 C   0  0  2  0  0  0
  -30.1832  -17.8415   21.8299 C   0  0  1  0  0  0
  -31.9309  -19.3474   19.5114 C   0  0  0  0  0  0
  -30.0704  -16.8557   20.6334 C   0  0  0  0  0  0
  -29.2800  -24.5755   19.5826 C   0  0  0  0  0  0
  -29.2879  -23.0837   19.9627 C   0  0  0  0  0  0
  -29.8942  -20.7962   19.1554 C   0  0  0  0  0  0
  -28.3684  -25.4148   20.4850 C   0  0  0  0  0  0
  -30.7984  -20.1018   20.2419 C   0  0  1  0  0  0
  -29.9102  -15.4393   20.9969 N   0  0  0  0  0  0
  -28.9537  -19.9073   23.6498 N   0  3  0  0  0  0
  -30.0862  -22.2609   19.0257 N   0  3  0  0  0  0
  -31.4613  -12.3645   19.1408 H   0  0  0  0  0  0
  -30.3148  -11.2530   19.8203 H   0  0  0  0  0  0
  -29.7207  -11.7556   17.4339 H   0  0  0  0  0  0
  -29.6576  -13.4677   17.7936 H   0  0  0  0  0  0
  -27.8323  -11.2841   18.8444 H   0  0  0  0  0  0
  -27.3501  -12.5880   17.7986 H   0  0  0  0  0  0
  -27.7155  -14.2336   19.5859 H   0  0  0  0  0  0
  -28.6648  -11.8912   21.3140 H   0  0  0  0  0  0
  -28.4663  -13.5120   21.9035 H   0  0  0  0  0  0
  -25.2690   -9.5710   22.4749 H   0  0  0  0  0  0
  -23.9988   -7.4621   22.7462 H   0  0  0  0  0  0
  -21.0796   -8.8678   19.8958 H   0  0  0  0  0  0
  -22.3566  -10.9618   19.6167 H   0  0  0  0  0  0
  -21.1996   -7.6127   23.9695 H   0  0  0  0  0  0
  -21.1501   -6.0519   25.9074 H   0  0  0  0  0  0
  -22.0603   -2.7590   23.2848 H   0  0  0  0  0  0
  -22.4108  -11.9854   22.4747 H   0  0  0  0  0  0
  -21.1132  -13.1245   22.2646 H   0  0  0  0  0  0
  -24.6864  -15.8489   20.5302 H   0  0  0  0  0  0
  -26.2831  -15.5999   20.0323 H   0  0  0  0  0  0
  -26.7086  -32.5586   23.1245 H   0  0  0  0  0  0
  -25.0093  -33.9892   25.0587 H   0  0  0  0  0  0
  -22.6790  -31.3088   21.4210 H   0  0  0  0  0  0
  -23.3735  -35.9606   23.3351 H   0  0  0  0  0  0
  -24.3535  -36.8855   22.2058 H   0  0  0  0  0  0
  -23.7106  -37.6490   23.6610 H   0  0  0  0  0  0
  -26.0176  -31.6149   20.5925 H   0  0  0  0  0  0
  -26.8129  -30.9065   21.9705 H   0  0  0  0  0  0
  -28.0964  -29.1436   21.1218 H   0  0  0  0  0  0
  -26.0557  -26.0047   18.9677 H   0  0  0  0  0  0
  -23.9579  -27.3018   19.0501 H   0  0  0  0  0  0
  -23.7244  -30.6105   19.4126 H   0  0  0  0  0  0
  -22.7220  -29.2597   19.8679 H   0  0  0  0  0  0
  -25.1211  -36.2071   25.0846 H   0  0  0  0  0  0
  -20.9883  -28.3188   24.1485 H   0  0  0  0  0  0
  -20.5622  -26.2293   23.3607 H   0  0  0  0  0  0
  -21.6609  -26.7457   22.1245 H   0  0  0  0  0  0
  -19.6891  -25.6308   21.1250 H   0  0  0  0  0  0
  -19.6649  -27.3184   20.6722 H   0  0  0  0  0  0
  -17.4173  -26.6680   21.4019 H   0  0  0  0  0  0
  -18.0308  -26.0077   22.9018 H   0  0  0  0  0  0
  -19.7947  -30.7228   24.2312 H   0  0  0  0  0  0
  -17.5054  -31.6300   24.5161 H   0  0  0  0  0  0
  -15.5370  -30.3059   23.7631 H   0  0  0  0  0  0
  -15.8635  -28.0839   22.7120 H   0  0  0  0  0  0
  -24.5876  -30.7141   25.7936 H   0  0  0  0  0  0
  -24.8945  -32.2947   26.5045 H   0  0  0  0  0  0
  -25.8103  -30.8965   27.0311 H   0  0  0  0  0  0
  -26.2803  -29.6942   24.1107 H   0  0  0  0  0  0
  -27.3995  -29.7313   25.4546 H   0  0  0  0  0  0
  -27.8641  -30.4514   23.9288 H   0  0  0  0  0  0
  -27.2686  -33.3682   26.2141 H   0  0  0  0  0  0
  -28.3812  -32.6952   25.0320 H   0  0  0  0  0  0
  -28.0746  -31.8503   26.5409 H   0  0  0  0  0  0
  -28.2621  -38.0066   24.7542 H   0  0  0  0  0  0
  -28.0989  -36.2602   24.6293 H   0  0  0  0  0  0
  -27.2328  -37.1457   25.8915 H   0  0  0  0  0  0
  -20.9322  -29.8796   21.7039 H   0  0  0  0  0  0
  -26.0163  -38.2926   24.1476 H   0  0  0  0  0  0
  -32.3456  -18.2359   22.0975 H   0  0  0  0  0  0
  -33.6292  -17.4250   24.6108 H   0  0  0  0  0  0
  -34.0958  -16.7608   23.0394 H   0  0  0  0  0  0
  -30.7981  -14.9550   23.4886 H   0  0  0  0  0  0
  -30.3066  -16.0856   24.7522 H   0  0  0  0  0  0
  -34.3452  -15.1769   25.2274 H   0  0  0  0  0  0
  -33.6841  -14.5081   23.7425 H   0  0  0  0  0  0
  -31.9362  -13.9687   25.3209 H   0  0  0  0  0  0
  -32.1171  -15.5210   26.1339 H   0  0  0  0  0  0
  -28.0462  -17.7288   22.2629 H   0  0  0  0  0  0
  -28.9171  -16.5323   23.1147 H   0  0  0  0  0  0
  -29.8644  -18.3202   24.6554 H   0  0  0  0  0  0
  -28.1169  -18.2797   24.6595 H   0  0  0  0  0  0
  -29.7637  -21.3042   22.3755 H   0  0  0  0  0  0
  -30.9647  -20.2862   23.1024 H   0  0  0  0  0  0
  -28.9421  -19.3573   21.0128 H   0  0  0  0  0  0
  -32.6582  -18.8958   20.1786 H   0  0  0  0  0  0
  -32.4982  -20.0444   18.8933 H   0  0  0  0  0  0
  -31.5584  -18.5834   18.8323 H   0  0  0  0  0  0
  -29.2172  -17.1245   20.0106 H   0  0  0  0  0  0
  -30.9438  -16.9465   19.9975 H   0  0  0  0  0  0
  -28.9391  -24.6888   18.5536 H   0  0  0  0  0  0
  -30.2926  -24.9745   19.6135 H   0  0  0  0  0  0
  -28.2610  -22.7141   19.9780 H   0  0  0  0  0  0
  -29.6892  -22.9666   20.9672 H   0  0  0  0  0  0
  -28.8290  -20.5973   19.2686 H   0  0  0  0  0  0
  -30.1297  -20.3803   18.1751 H   0  0  0  0  0  0
  -28.7087  -25.3690   21.5196 H   0  0  0  0  0  0
  -27.3681  -24.9866   20.4787 H   0  0  0  0  0  0
  -31.3503  -20.8959   20.7500 H   0  0  0  0  0  0
  -29.0278  -15.1702   21.4054 H   0  0  0  0  0  0
  -29.1078  -20.4592   24.4797 H   0  0  0  0  0  0
  -28.0353  -20.1422   23.3078 H   0  0  0  0  0  0
  -31.0658  -22.4828   19.0955 H   0  0  0  0  0  0
  -29.7946  -22.5130   18.0931 H   0  0  0  0  0  0
  1 25  1  0  0  0
  1 30  2  0  0  0
  1 89  1  0  0  0
  2  3  1  0  0  0
  2 25  1  0  0  0
  2 92  1  0  0  0
  2 93  1  0  0  0
  3  4  1  0  0  0
  3 94  1  0  0  0
  3 95  1  0  0  0
  4  5  1  0  0  0
  4 96  1  0  0  0
  4 97  1  0  0  0
  5  6  1  0  0  0
  5 26  1  0  0  0
  5 98  1  0  0  0
  6 25  1  0  0  0
  6 99  1  0  0  0
  6100  1  0  0  0
  7  8  2  0  0  0
  7 26  1  0  0  0
  7 29  1  0  0  0
  8  9  1  0  0  0
  8 22  1  0  0  0
  9 10  1  0  0  0
  9 27  2  0  0  0
 10 11  2  0  0  0
 10 15  1  0  0  0
 11 12  1  0  0  0
 11101  1  0  0  0
 12 13  2  0  0  0
 12102  1  0  0  0
 13 14  1  0  0  0
 13 31  1  0  0  0
 14 15  2  0  0  0
 14103  1  0  0  0
 15104  1  0  0  0
 16 17  2  0  0  0
 16 21  1  0  0  0
 16 31  1  0  0  0
 17 18  1  0  0  0
 17105  1  0  0  0
 18 19  2  0  0  0
 18106  1  0  0  0
 19 20  1  0  0  0
 19 24  1  0  0  0
 20 21  2  0  0  0
 20107  1  0  0  0
 21 23  1  0  0  0
 22 28  1  0  0  0
 22 32  2  0  0  0
 26 27  1  0  0  0
 28108  1  0  0  0
 28109  1  0  0  0
 29110  1  0  0  0
 29111  1  0  0  0
 33 34  1  0  0  0
 33 66  1  0  0  0
 33 70  2  0  0  0
 34 36  1  0  0  0
 34 59  1  0  0  0
 34112  1  0  0  0
 35 44  2  0  0  0
 35 45  1  0  0  0
 35 68  1  0  0  0
 36 56  1  0  0  0
 36113  1  0  0  0
 37 39  1  0  0  0
 37 47  1  0  0  0
 37 66  1  0  0  0
 37114  1  0  0  0
 38 43  2  0  0  0
 38 46  1  0  0  0
 38 47  1  0  0  0
 39 64  1  0  0  0
 39 67  2  0  0  0
 40 52  1  0  0  0
 40 53  2  0  0  0
 40 58  1  0  0  0
 41115  1  0  0  0
 41116  1  0  0  0
 41117  1  0  0  0
 41 48  1  0  0  0
 42 43  1  0  0  0
 42 66  1  0  0  0
 42118  1  0  0  0
 42119  1  0  0  0
 43 44  1  0  0  0
 44120  1  0  0  0
 45 46  2  0  0  0
 45121  1  0  0  0
 46122  1  0  0  0
 47123  1  0  0  0
 47124  1  0  0  0
 48 56  1  0  0  0
 48 65  1  0  0  0
 48125  1  0  0  0
 49 50  1  0  0  0
 49 53  1  0  0  0
 49 64  1  0  0  0
 49126  1  0  0  0
 50 51  1  0  0  0
 50127  1  0  0  0
 50128  1  0  0  0
 51 52  1  0  0  0
 51129  1  0  0  0
 51130  1  0  0  0
 52131  1  0  0  0
 52132  1  0  0  0
 53 54  1  0  0  0
 54 55  2  0  0  0
 54133  1  0  0  0
 55 57  1  0  0  0
 55134  1  0  0  0
 56 69  2  0  0  0
 57 58  2  0  0  0
 57135  1  0  0  0
 58136  1  0  0  0
 59 60  1  0  0  0
 59 61  1  0  0  0
 59 62  1  0  0  0
 60137  1  0  0  0
 60138  1  0  0  0
 60139  1  0  0  0
 61140  1  0  0  0
 61141  1  0  0  0
 61142  1  0  0  0
 62143  1  0  0  0
 62144  1  0  0  0
 62145  1  0  0  0
 63 65  1  0  0  0
 63146  1  0  0  0
 63147  1  0  0  0
 63148  1  0  0  0
 64149  1  0  0  0
 65150  1  0  0  0
 68 87  1  0  0  0
 71 72  2  0  0  0
 71 73  1  0  0  0
 71 74  1  0  0  0
 72151  1  0  0  0
 72 81  1  0  0  0
 73 75  1  0  0  0
 73152  1  0  0  0
 73153  1  0  0  0
 74 76  1  0  0  0
 74154  1  0  0  0
 74155  1  0  0  0
 75 76  1  0  0  0
 75156  1  0  0  0
 75157  1  0  0  0
 76158  1  0  0  0
 76159  1  0  0  0
 77 78  1  0  0  0
 77 81  1  0  0  0
 77160  1  0  0  0
 77161  1  0  0  0
 78 90  1  0  0  0
 78162  1  0  0  0
 78163  1  0  0  0
 79 90  1  0  0  0
 79164  1  0  0  0
 79165  1  0  0  0
 79 80  1  0  0  0
 80 81  1  0  0  0
 80 88  1  0  0  0
 80166  1  0  0  0
 81 83  1  0  0  0
 82167  1  0  0  0
 82168  1  0  0  0
 82169  1  0  0  0
 82 88  1  0  0  0
 83 89  1  0  0  0
 83170  1  0  0  0
 83171  1  0  0  0
 84 85  1  0  0  0
 84 87  1  0  0  0
 84172  1  0  0  0
 84173  1  0  0  0
 85 91  1  0  0  0
 85174  1  0  0  0
 85175  1  0  0  0
 86 88  1  0  0  0
 86 91  1  0  0  0
 86176  1  0  0  0
 86177  1  0  0  0
 87178  1  0  0  0
 87179  1  0  0  0
 88180  1  0  0  0
 89181  1  0  0  0
 90182  1  0  0  0
 90183  1  0  0  0
 91184  1  0  0  0
 91185  1  0  0  0
M  CHG  2  90   1  91   1
M  ISO  4   1 100  68 101  87 101  89 100
M  END
> <chiral flag>
0

> <version>
0

> <s_m_source_file>
/data/baiqing/PycharmProjects/Reinvent-master-3.2/result/LINK_invent/BTK/process_docking_weight1_custom_sum_contain_oxygen_bond_distance_aromatic_linkinvent_7_9_3/rearranged_h_0122.sdf

> <i_m_source_file_index>
93

> <r_mmod_Potential_Energy-OPLS-2005>
-189.845031738281

> <r_mmod_Stretch_Energy-OPLS-2005>
47.9027862548828

> <r_mmod_Bend_Energy-OPLS-2005>
174.597595214844

> <r_mmod_Torsional_Energy-OPLS-2005>
351.475952148438

> <r_mmod_Improper_Torsional_Energy-OPLS-2005>
6.1933856010437

> <r_mmod_Van_der_Waal_Energy-OPLS-2005>
146.277847290039

> <r_mmod_Electrostatic_Energy-OPLS-2005>
58.705638885498

> <r_mmod_Solvation_Energy-OPLS-2005>
-986.205322265625

> <b_mmod_Minimization_Converged-OPLS-2005>
0

> <r_mmod_RMS_Derivative-OPLS-2005>
5.07132768630981

$$$$
93
                    3D
 Structure written by MMmdl.
168177  0  0  1  0            999 V2000
  -30.7406  -14.3880   20.6915 C   0  0  0  0  0  0
  -30.4236  -12.3114   19.3820 C   0  0  0  0  0  0
  -29.4807  -12.5393   18.1848 C   0  0  0  0  0  0
  -28.0038  -12.3941   18.6039 C   0  0  0  0  0  0
  -27.6662  -13.1983   19.8865 C   0  0  2  0  0  0
  -28.7120  -12.9047   20.9858 C   0  0  0  0  0  0
  -25.2587  -13.8142   20.5640 C   0  0  0  0  0  0
  -24.1849  -13.0439   20.9201 C   0  0  0  0  0  0
  -24.6393  -11.6903   20.8759 C   0  0  0  0  0  0
  -23.9058  -10.4293   21.0419 C   0  0  0  0  0  0
  -24.3615   -9.4204   21.9188 C   0  0  0  0  0  0
  -23.6297   -8.2237   22.0752 C   0  0  0  0  0  0
  -22.4276   -8.0280   21.3545 C   0  0  0  0  0  0
  -21.9911   -9.0255   20.4652 C   0  0  0  0  0  0
  -22.7238  -10.2134   20.3062 C   0  0  0  0  0  0
  -21.6847   -6.0740   22.5281 C   0  0  0  0  0  0
  -21.4011   -6.5646   23.8216 C   0  0  0  0  0  0
  -21.3658   -5.6794   24.9176 C   0  0  0  0  0  0
  -21.6040   -4.3056   24.7228 C   0  0  0  0  0  0
  -21.8818   -3.8153   23.4348 C   0  0  0  0  0  0
  -21.9188   -4.6969   22.3405 C   0  0  0  0  0  0
  -22.7870  -13.5243   21.1856 C   0  0  0  0  0  0
  -22.1656   -4.2158   21.0982 F   0  0  0  0  0  0
  -21.5632   -3.4540   25.7740 F   0  0  0  0  0  0
  -30.0421  -13.2435   20.4550 N   0  0  0  0  0  0
  -26.3043  -12.9300   20.3415 N   0  0  0  0  0  0
  -25.9319  -11.6473   20.5806 N   0  0  0  0  0  0
  -22.0501  -12.8245   22.0409 N   0  0  0  0  0  0
  -25.4251  -15.1854   20.3891 N   0  0  0  0  0  0
  -31.7784  -14.6717   20.0818 O   0  0  0  0  0  0
  -21.6639   -6.8880   21.4238 O   0  0  0  0  0  0
  -22.3569  -14.5550   20.6691 O   0  0  0  0  0  0
  -24.6106  -31.8702   23.2123 C   0  0  0  0  0  0
  -25.9015  -32.4837   23.8408 C   0  0  1  0  0  0
  -27.2403  -27.4666   20.0971 C   0  0  0  0  0  0
  -25.5887  -33.8633   24.2345 N   0  0  0  0  0  0
  -23.3976  -30.4919   21.5517 C   0  0  2  0  0  0
  -24.8468  -28.9572   20.1195 C   0  0  0  0  0  0
  -22.7389  -29.4666   22.5013 C   0  0  0  0  0  0
  -18.0267  -28.1370   22.8496 C   0  0  0  0  0  0
  -24.1486  -36.7324   23.2638 C   0  0  0  0  0  0
  -25.9215  -30.8443   21.3613 C   0  0  0  0  0  0
  -26.0015  -29.4766   20.7196 C   0  0  0  0  0  0
  -27.2016  -28.7352   20.7151 C   0  0  0  0  0  0
  -26.0773  -26.9552   19.4895 C   0  0  0  0  0  0
  -24.8766  -27.6916   19.5055 C   0  0  0  0  0  0
  -23.6059  -29.8196   20.1674 C   0  0  0  0  0  0
  -25.4105  -36.3121   24.0343 C   0  0  1  0  0  0
  -20.5853  -28.3651   23.1333 C   0  0  2  0  0  0
  -20.6757  -26.9395   22.5420 C   0  0  0  0  0  0
  -19.5739  -26.6388   21.5211 C   0  0  0  0  0  0
  -18.1916  -26.7921   22.1620 C   0  0  0  0  0  0
  -19.1514  -28.8827   23.2913 C   0  0  0  0  0  0
  -18.9444  -30.1436   23.8921 C   0  0  0  0  0  0
  -17.6446  -30.6579   24.0568 C   0  0  0  0  0  0
  -25.9027  -34.9483   23.5142 C   0  0  0  0  0  0
  -16.5339  -29.9082   23.6324 C   0  0  0  0  0  0
  -16.7256  -28.6497   23.0347 C   0  0  0  0  0  0
  -26.4465  -31.6599   25.0715 C   0  0  0  0  0  0
  -25.3749  -31.3685   26.1476 C   0  0  0  0  0  0
  -27.0290  -30.3049   24.6052 C   0  0  0  0  0  0
  -27.6056  -32.4306   25.7467 C   0  0  0  0  0  0
  -27.5583  -37.1813   24.8466 C   0  0  0  0  0  0
  -21.4121  -29.3024   22.3745 N   0  0  0  0  0  0
  -26.4297  -37.3799   23.9409 N   0  0  0  0  0  0
  -24.6611  -31.0828   22.1010 N   0  0  0  0  0  0
  -23.4172  -28.8215   23.3049 O   0  0  0  0  0  0
  -28.3958  -26.7324   20.0246 O   0  0  0  0  0  0
  -26.5586  -34.8928   22.4701 O   0  0  0  0  0  0
  -23.5309  -32.1444   23.7538 O   0  0  0  0  0  0
  -30.4472  -21.0981   22.0753 C   0  0  0  0  0  0
  -30.8640  -22.2722   21.4219 C   0  0  0  0  0  0
  -28.1828  -21.6815   21.4664 C   0  0  0  0  0  0
  -29.0730  -20.7906   22.0997 C   0  0  0  0  0  0
  -29.8992  -23.1010   20.8201 C   0  0  0  0  0  0
  -28.1312  -15.9800   22.6627 C   0  0  0  0  0  0
  -27.4736  -17.3655   22.7181 C   0  0  0  0  0  0
  -29.6650  -17.6131   21.7954 C   0  0  0  0  0  0
  -29.2572  -16.1293   21.6359 C   0  0  1  0  0  0
  -31.3446  -15.3777   22.8001 C   0  0  0  0  0  0
  -28.5432  -19.5911   22.8804 C   0  0  0  0  0  0
  -30.3087  -24.3952   20.1356 C   0  0  0  0  0  0
  -30.2652  -25.6242   21.0665 C   0  0  0  0  0  0
  -28.8683  -26.2329   21.2705 C   0  0  0  0  0  0
  -28.5815  -22.8091   20.8389 N   0  0  0  0  0  0
  -30.3416  -15.1207   21.7609 N   0  0  0  0  0  0
  -28.4038  -18.3382   22.0894 N   0  3  2  0  0  0
  -31.4624  -12.4352   19.0718 H   0  0  0  0  0  0
  -30.3461  -11.2831   19.7388 H   0  0  0  0  0  0
  -29.7129  -11.8371   17.3829 H   0  0  0  0  0  0
  -29.6474  -13.5362   17.7747 H   0  0  0  0  0  0
  -27.8039  -11.3341   18.7673 H   0  0  0  0  0  0
  -27.3504  -12.7034   17.7870 H   0  0  0  0  0  0
  -27.7261  -14.2551   19.6296 H   0  0  0  0  0  0
  -28.6899  -11.8437   21.2395 H   0  0  0  0  0  0
  -28.4810  -13.4059   21.9205 H   0  0  0  0  0  0
  -25.2760   -9.5686   22.4761 H   0  0  0  0  0  0
  -24.0013   -7.4621   22.7464 H   0  0  0  0  0  0
  -21.0839   -8.8778   19.8956 H   0  0  0  0  0  0
  -22.3701  -10.9675   19.6171 H   0  0  0  0  0  0
  -21.2002   -7.6151   23.9731 H   0  0  0  0  0  0
  -21.1477   -6.0517   25.9083 H   0  0  0  0  0  0
  -22.0600   -2.7615   23.2844 H   0  0  0  0  0  0
  -22.4109  -11.9903   22.4799 H   0  0  0  0  0  0
  -21.1118  -13.1266   22.2624 H   0  0  0  0  0  0
  -24.6223  -15.8048   20.4132 H   0  0  0  0  0  0
  -26.2144  -15.5828   19.8979 H   0  0  0  0  0  0
  -26.7088  -32.5572   23.1182 H   0  0  0  0  0  0
  -25.0049  -33.9800   25.0497 H   0  0  0  0  0  0
  -22.6847  -31.3071   21.4117 H   0  0  0  0  0  0
  -23.3741  -35.9666   23.3316 H   0  0  0  0  0  0
  -24.3583  -36.8918   22.2050 H   0  0  0  0  0  0
  -23.7245  -37.6539   23.6636 H   0  0  0  0  0  0
  -26.0230  -31.6054   20.5863 H   0  0  0  0  0  0
  -26.8136  -30.9074   21.9723 H   0  0  0  0  0  0
  -28.0961  -29.1412   21.1665 H   0  0  0  0  0  0
  -26.1045  -25.9882   19.0067 H   0  0  0  0  0  0
  -23.9900  -27.2858   19.0382 H   0  0  0  0  0  0
  -23.7084  -30.5913   19.4037 H   0  0  0  0  0  0
  -22.7323  -29.2336   19.8767 H   0  0  0  0  0  0
  -25.1278  -36.1997   25.0836 H   0  0  0  0  0  0
  -20.9944  -28.3210   24.1453 H   0  0  0  0  0  0
  -20.5659  -26.2258   23.3598 H   0  0  0  0  0  0
  -21.6630  -26.7444   22.1213 H   0  0  0  0  0  0
  -19.6901  -25.6306   21.1220 H   0  0  0  0  0  0
  -19.6678  -27.3218   20.6756 H   0  0  0  0  0  0
  -17.4189  -26.6677   21.4018 H   0  0  0  0  0  0
  -18.0314  -26.0053   22.9005 H   0  0  0  0  0  0
  -19.7920  -30.7245   24.2302 H   0  0  0  0  0  0
  -17.5002  -31.6262   24.5162 H   0  0  0  0  0  0
  -15.5340  -30.2991   23.7631 H   0  0  0  0  0  0
  -15.8657  -28.0824   22.7048 H   0  0  0  0  0  0
  -24.5923  -30.7028   25.7816 H   0  0  0  0  0  0
  -24.8937  -32.2832   26.4946 H   0  0  0  0  0  0
  -25.8121  -30.8843   27.0216 H   0  0  0  0  0  0
  -26.2813  -29.6809   24.1139 H   0  0  0  0  0  0
  -27.4118  -29.7280   25.4481 H   0  0  0  0  0  0
  -27.8623  -30.4386   23.9148 H   0  0  0  0  0  0
  -27.2688  -33.3587   26.2093 H   0  0  0  0  0  0
  -28.3833  -32.6891   25.0268 H   0  0  0  0  0  0
  -28.0759  -31.8398   26.5336 H   0  0  0  0  0  0
  -28.2613  -38.0098   24.7506 H   0  0  0  0  0  0
  -28.1064  -36.2632   24.6299 H   0  0  0  0  0  0
  -27.2302  -37.1478   25.8869 H   0  0  0  0  0  0
  -20.9276  -29.8742   21.6969 H   0  0  0  0  0  0
  -26.0194  -38.2883   24.1397 H   0  0  0  0  0  0
  -31.1703  -20.4613   22.5648 H   0  0  0  0  0  0
  -31.9126  -22.5386   21.3982 H   0  0  0  0  0  0
  -27.1188  -21.4967   21.4784 H   0  0  0  0  0  0
  -27.3983  -15.2169   22.4050 H   0  0  0  0  0  0
  -28.5326  -15.7279   23.6449 H   0  0  0  0  0  0
  -27.2326  -17.6210   23.7507 H   0  0  0  0  0  0
  -26.5350  -17.3725   22.1624 H   0  0  0  0  0  0
  -30.1526  -18.0093   20.9032 H   0  0  0  0  0  0
  -30.3491  -17.7586   22.6310 H   0  0  0  0  0  0
  -28.8053  -16.0376   20.6458 H   0  0  0  0  0  0
  -30.8878  -15.7356   23.7231 H   0  0  0  0  0  0
  -32.0809  -16.1112   22.4682 H   0  0  0  0  0  0
  -31.8854  -14.4630   23.0505 H   0  0  0  0  0  0
  -27.5614  -19.8734   23.2670 H   0  0  0  0  0  0
  -29.1630  -19.4167   23.7609 H   0  0  0  0  0  0
  -29.6898  -24.5617   19.2530 H   0  0  0  0  0  0
  -31.3255  -24.2697   19.7615 H   0  0  0  0  0  0
  -30.9045  -26.4003   20.6456 H   0  0  0  0  0  0
  -30.7061  -25.3667   22.0301 H   0  0  0  0  0  0
  -28.9318  -27.0332   22.0099 H   0  0  0  0  0  0
  -28.1728  -25.4903   21.6641 H   0  0  0  0  0  0
  -27.9806  -18.5798   21.2061 H   0  0  0  0  0  0
  1 25  1  0  0  0
  1 30  2  0  0  0
  1 86  1  0  0  0
  2  3  1  0  0  0
  2 25  1  0  0  0
  2 88  1  0  0  0
  2 89  1  0  0  0
  3  4  1  0  0  0
  3 90  1  0  0  0
  3 91  1  0  0  0
  4  5  1  0  0  0
  4 92  1  0  0  0
  4 93  1  0  0  0
  5  6  1  0  0  0
  5 26  1  0  0  0
  5 94  1  0  0  0
  6 25  1  0  0  0
  6 95  1  0  0  0
  6 96  1  0  0  0
  7  8  2  0  0  0
  7 26  1  0  0  0
  7 29  1  0  0  0
  8  9  1  0  0  0
  8 22  1  0  0  0
  9 10  1  0  0  0
  9 27  2  0  0  0
 10 11  2  0  0  0
 10 15  1  0  0  0
 11 12  1  0  0  0
 11 97  1  0  0  0
 12 13  2  0  0  0
 12 98  1  0  0  0
 13 14  1  0  0  0
 13 31  1  0  0  0
 14 15  2  0  0  0
 14 99  1  0  0  0
 15100  1  0  0  0
 16 17  2  0  0  0
 16 21  1  0  0  0
 16 31  1  0  0  0
 17 18  1  0  0  0
 17101  1  0  0  0
 18 19  2  0  0  0
 18102  1  0  0  0
 19 20  1  0  0  0
 19 24  1  0  0  0
 20 21  2  0  0  0
 20103  1  0  0  0
 21 23  1  0  0  0
 22 28  1  0  0  0
 22 32  2  0  0  0
 26 27  1  0  0  0
 28104  1  0  0  0
 28105  1  0  0  0
 29106  1  0  0  0
 29107  1  0  0  0
 33 34  1  0  0  0
 33 66  1  0  0  0
 33 70  2  0  0  0
 34 36  1  0  0  0
 34 59  1  0  0  0
 34108  1  0  0  0
 35 44  2  0  0  0
 35 45  1  0  0  0
 35 68  1  0  0  0
 36 56  1  0  0  0
 36109  1  0  0  0
 37 39  1  0  0  0
 37 47  1  0  0  0
 37 66  1  0  0  0
 37110  1  0  0  0
 38 43  2  0  0  0
 38 46  1  0  0  0
 38 47  1  0  0  0
 39 64  1  0  0  0
 39 67  2  0  0  0
 40 52  1  0  0  0
 40 53  2  0  0  0
 40 58  1  0  0  0
 41111  1  0  0  0
 41112  1  0  0  0
 41113  1  0  0  0
 41 48  1  0  0  0
 42 43  1  0  0  0
 42 66  1  0  0  0
 42114  1  0  0  0
 42115  1  0  0  0
 43 44  1  0  0  0
 44116  1  0  0  0
 45 46  2  0  0  0
 45117  1  0  0  0
 46118  1  0  0  0
 47119  1  0  0  0
 47120  1  0  0  0
 48 56  1  0  0  0
 48 65  1  0  0  0
 48121  1  0  0  0
 49 50  1  0  0  0
 49 53  1  0  0  0
 49 64  1  0  0  0
 49122  1  0  0  0
 50 51  1  0  0  0
 50123  1  0  0  0
 50124  1  0  0  0
 51 52  1  0  0  0
 51125  1  0  0  0
 51126  1  0  0  0
 52127  1  0  0  0
 52128  1  0  0  0
 53 54  1  0  0  0
 54 55  2  0  0  0
 54129  1  0  0  0
 55 57  1  0  0  0
 55130  1  0  0  0
 56 69  2  0  0  0
 57 58  2  0  0  0
 57131  1  0  0  0
 58132  1  0  0  0
 59 60  1  0  0  0
 59 61  1  0  0  0
 59 62  1  0  0  0
 60133  1  0  0  0
 60134  1  0  0  0
 60135  1  0  0  0
 61136  1  0  0  0
 61137  1  0  0  0
 61138  1  0  0  0
 62139  1  0  0  0
 62140  1  0  0  0
 62141  1  0  0  0
 63 65  1  0  0  0
 63142  1  0  0  0
 63143  1  0  0  0
 63144  1  0  0  0
 64145  1  0  0  0
 65146  1  0  0  0
 68 84  1  0  0  0
 71 72  2  0  0  0
 71 74  1  0  0  0
 71147  1  0  0  0
 72 75  1  0  0  0
 72148  1  0  0  0
 73 74  2  0  0  0
 73 85  1  0  0  0
 73149  1  0  0  0
 74 81  1  0  0  0
 75 82  1  0  0  0
 75 85  2  0  0  0
 76 77  1  0  0  0
 76 79  1  0  0  0
 76150  1  0  0  0
 76151  1  0  0  0
 77 87  1  0  0  0
 77152  1  0  0  0
 77153  1  0  0  0
 78 79  1  0  0  0
 78 87  1  0  0  0
 78154  1  0  0  0
 78155  1  0  0  0
 79 86  1  0  0  0
 79156  1  0  0  0
 80 86  1  0  0  0
 80157  1  0  0  0
 80158  1  0  0  0
 80159  1  0  0  0
 81160  1  0  0  0
 81161  1  0  0  0
 81 87  1  0  0  0
 82 83  1  0  0  0
 82162  1  0  0  0
 82163  1  0  0  0
 83 84  1  0  0  0
 83164  1  0  0  0
 83165  1  0  0  0
 84166  1  0  0  0
 84167  1  0  0  0
 87168  1  0  0  0
M  CHG  1  87   1
M  ISO  4   1 100  68 101  84 101  86 100
M  END
> <chiral flag>
0

> <version>
0

> <s_m_source_file>
/data/baiqing/PycharmProjects/Reinvent-master-3.2/result/LINK_invent/BTK/process_docking_weight1_custom_sum_contain_oxygen_bond_distance_aromatic_linkinvent_7_9_3/rearranged_h_0122.sdf

> <i_m_source_file_index>
94

> <r_mmod_Potential_Energy-OPLS-2005>
-110.798690795898

> <r_mmod_Stretch_Energy-OPLS-2005>
35.3495635986328

> <r_mmod_Bend_Energy-OPLS-2005>
115.922431945801

> <r_mmod_Torsional_Energy-OPLS-2005>
370.27734375

> <r_mmod_Improper_Torsional_Energy-OPLS-2005>
7.17765665054321

> <r_mmod_Van_der_Waal_Energy-OPLS-2005>
143.713226318359

> <r_mmod_Electrostatic_Energy-OPLS-2005>
-343.937347412109

> <r_mmod_Solvation_Energy-OPLS-2005>
-446.087646484375

> <b_mmod_Minimization_Converged-OPLS-2005>
0

> <r_mmod_RMS_Derivative-OPLS-2005>
1.02461683750153

$$$$
94
                    3D
 Structure written by MMmdl.
178186  0  0  1  0            999 V2000
  -30.7060  -14.4670   20.5481 C   0  0  0  0  0  0
  -30.4215  -12.3043   19.4020 C   0  0  0  0  0  0
  -29.4933  -12.5131   18.1891 C   0  0  0  0  0  0
  -28.0113  -12.3775   18.5997 C   0  0  0  0  0  0
  -27.6618  -13.1997   19.8694 C   0  0  2  0  0  0
  -28.7106  -12.9800   20.9827 C   0  0  0  0  0  0
  -25.2550  -13.7972   20.5658 C   0  0  0  0  0  0
  -24.1803  -13.0303   20.9192 C   0  0  0  0  0  0
  -24.6389  -11.6797   20.8732 C   0  0  0  0  0  0
  -23.9039  -10.4214   21.0395 C   0  0  0  0  0  0
  -24.3589   -9.4151   21.9188 C   0  0  0  0  0  0
  -23.6282   -8.2183   22.0771 C   0  0  0  0  0  0
  -22.4270   -8.0220   21.3553 C   0  0  0  0  0  0
  -21.9888   -9.0175   20.4638 C   0  0  0  0  0  0
  -22.7206  -10.2057   20.3053 C   0  0  0  0  0  0
  -21.6821   -6.0687   22.5276 C   0  0  0  0  0  0
  -21.3989   -6.5622   23.8202 C   0  0  0  0  0  0
  -21.3682   -5.6787   24.9173 C   0  0  0  0  0  0
  -21.6079   -4.3045   24.7228 C   0  0  0  0  0  0
  -21.8828   -3.8116   23.4345 C   0  0  0  0  0  0
  -21.9160   -4.6913   22.3392 C   0  0  0  0  0  0
  -22.7838  -13.5156   21.1852 C   0  0  0  0  0  0
  -22.1635   -4.2087   21.0973 F   0  0  0  0  0  0
  -21.5672   -3.4560   25.7753 F   0  0  0  0  0  0
  -30.0355  -13.2927   20.4183 N   0  0  0  0  0  0
  -26.3029  -12.9200   20.3350 N   0  0  0  0  0  0
  -25.9324  -11.6367   20.5747 N   0  0  0  0  0  0
  -22.0413  -12.8204   22.0393 N   0  0  0  0  0  0
  -25.4174  -15.1617   20.4025 N   0  0  0  0  0  0
  -31.8453  -14.6429   20.1090 O   0  0  0  0  0  0
  -21.6618   -6.8829   21.4253 O   0  0  0  0  0  0
  -22.3576  -14.5483   20.6683 O   0  0  0  0  0  0
  -24.6152  -31.8675   23.2105 C   0  0  0  0  0  0
  -25.9058  -32.4809   23.8399 C   0  0  1  0  0  0
  -27.2354  -27.4365   20.0712 C   0  0  0  0  0  0
  -25.5933  -33.8608   24.2339 N   0  0  0  0  0  0
  -23.4003  -30.4917   21.5533 C   0  0  2  0  0  0
  -24.8434  -28.9556   20.1165 C   0  0  0  0  0  0
  -22.7393  -29.4662   22.5027 C   0  0  0  0  0  0
  -18.0243  -28.1378   22.8503 C   0  0  0  0  0  0
  -24.1490  -36.7304   23.2640 C   0  0  0  0  0  0
  -25.9297  -30.8328   21.3596 C   0  0  0  0  0  0
  -26.0054  -29.4662   20.7077 C   0  0  0  0  0  0
  -27.2007  -28.7111   20.6860 C   0  0  0  0  0  0
  -26.0517  -26.9442   19.4733 C   0  0  0  0  0  0
  -24.8606  -27.6949   19.4992 C   0  0  0  0  0  0
  -23.6053  -29.8206   20.1691 C   0  0  0  0  0  0
  -25.4103  -36.3097   24.0350 C   0  0  1  0  0  0
  -20.5841  -28.3648   23.1352 C   0  0  2  0  0  0
  -20.6742  -26.9391   22.5420 C   0  0  0  0  0  0
  -19.5723  -26.6383   21.5222 C   0  0  0  0  0  0
  -18.1897  -26.7932   22.1621 C   0  0  0  0  0  0
  -19.1501  -28.8826   23.2922 C   0  0  0  0  0  0
  -18.9431  -30.1434   23.8923 C   0  0  0  0  0  0
  -17.6438  -30.6594   24.0544 C   0  0  0  0  0  0
  -25.9037  -34.9466   23.5138 C   0  0  0  0  0  0
  -16.5321  -29.9089   23.6333 C   0  0  0  0  0  0
  -16.7237  -28.6499   23.0377 C   0  0  0  0  0  0
  -26.4484  -31.6595   25.0723 C   0  0  0  0  0  0
  -25.3771  -31.3688   26.1486 C   0  0  0  0  0  0
  -27.0307  -30.3049   24.6072 C   0  0  0  0  0  0
  -27.6066  -32.4299   25.7487 C   0  0  0  0  0  0
  -27.5589  -37.1792   24.8451 C   0  0  0  0  0  0
  -21.4118  -29.3027   22.3772 N   0  0  0  0  0  0
  -26.4269  -37.3798   23.9443 N   0  0  0  0  0  0
  -24.6673  -31.0794   22.0986 N   0  0  0  0  0  0
  -23.4182  -28.8199   23.3040 O   0  0  0  0  0  0
  -28.4250  -26.7301   20.0762 O   0  0  0  0  0  0
  -26.5588  -34.8921   22.4682 O   0  0  0  0  0  0
  -23.5342  -32.1413   23.7516 O   0  0  0  0  0  0
  -31.1567  -18.5925   19.6357 C   0  0  0  0  0  0
  -29.1756  -19.5327   19.2791 C   0  0  0  0  0  0
  -30.4850  -19.6195   18.9026 C   0  0  0  0  0  0
  -30.2583  -17.9100   20.4143 C   0  0  0  0  0  0
  -31.7427  -19.7590   16.7521 C   0  0  0  0  0  0
  -26.0815  -18.7150   22.6748 C   0  0  0  0  0  0
  -28.4392  -19.5843   22.8173 C   0  0  0  0  0  0
  -26.6585  -18.0006   19.6699 C   0  0  0  0  0  0
  -30.5189  -16.8083   21.4219 C   0  0  0  0  0  0
  -28.7438  -25.0694   18.2796 C   0  0  0  0  0  0
  -28.6572  -23.5959   17.8010 C   0  0  0  0  0  0
  -30.1311  -21.6430   17.3148 C   0  0  0  0  0  0
  -28.4308  -25.3249   19.7676 C   0  0  0  0  0  0
  -31.1046  -20.5741   17.8888 C   0  0  1  0  0  0
  -27.2964  -19.1941   21.8589 C   0  0  0  0  0  0
  -27.7194  -18.1555   20.7806 C   0  0  2  0  0  0
  -29.0112  -18.4909   20.1792 N   0  0  0  0  0  0
  -30.0018  -15.4773   21.0844 N   0  0  0  0  0  0
  -29.7570  -22.7129   18.2773 N   0  3  0  0  0  0
  -31.4673  -12.3969   19.1024 H   0  0  0  0  0  0
  -30.3139  -11.2938   19.8002 H   0  0  0  0  0  0
  -29.7374  -11.7974   17.4027 H   0  0  0  0  0  0
  -29.6600  -13.5041   17.7643 H   0  0  0  0  0  0
  -27.8143  -11.3194   18.7729 H   0  0  0  0  0  0
  -27.3642  -12.6765   17.7725 H   0  0  0  0  0  0
  -27.7045  -14.2506   19.5817 H   0  0  0  0  0  0
  -28.6963  -11.9432   21.3210 H   0  0  0  0  0  0
  -28.4814  -13.5762   21.8645 H   0  0  0  0  0  0
  -25.2728   -9.5631   22.4757 H   0  0  0  0  0  0
  -23.9963   -7.4590   22.7523 H   0  0  0  0  0  0
  -21.0802   -8.8674   19.8985 H   0  0  0  0  0  0
  -22.3639  -10.9583   19.6165 H   0  0  0  0  0  0
  -21.1978   -7.6131   23.9680 H   0  0  0  0  0  0
  -21.1536   -6.0528   25.9085 H   0  0  0  0  0  0
  -22.0585   -2.7566   23.2851 H   0  0  0  0  0  0
  -22.3918  -11.9867   22.4856 H   0  0  0  0  0  0
  -21.1033  -13.1313   22.2520 H   0  0  0  0  0  0
  -24.6215  -15.7883   20.4604 H   0  0  0  0  0  0
  -26.2365  -15.5894   19.9966 H   0  0  0  0  0  0
  -26.7132  -32.5519   23.1167 H   0  0  0  0  0  0
  -25.0133  -33.9768   25.0527 H   0  0  0  0  0  0
  -22.6869  -31.3077   21.4129 H   0  0  0  0  0  0
  -23.3770  -35.9618   23.3227 H   0  0  0  0  0  0
  -24.3585  -36.8970   22.2063 H   0  0  0  0  0  0
  -23.7204  -37.6478   23.6672 H   0  0  0  0  0  0
  -26.0367  -31.5985   20.5906 H   0  0  0  0  0  0
  -26.8208  -30.8886   21.9731 H   0  0  0  0  0  0
  -28.0978  -29.1009   21.1458 H   0  0  0  0  0  0
  -26.0261  -25.9886   18.9697 H   0  0  0  0  0  0
  -23.9685  -27.2988   19.0327 H   0  0  0  0  0  0
  -23.7077  -30.5910   19.4038 H   0  0  0  0  0  0
  -22.7304  -29.2347   19.8788 H   0  0  0  0  0  0
  -25.1270  -36.1936   25.0842 H   0  0  0  0  0  0
  -20.9925  -28.3187   24.1480 H   0  0  0  0  0  0
  -20.5636  -26.2255   23.3598 H   0  0  0  0  0  0
  -21.6610  -26.7438   22.1209 H   0  0  0  0  0  0
  -19.6872  -25.6292   21.1248 H   0  0  0  0  0  0
  -19.6686  -27.3194   20.6751 H   0  0  0  0  0  0
  -17.4179  -26.6698   21.4005 H   0  0  0  0  0  0
  -18.0275  -26.0057   22.8996 H   0  0  0  0  0  0
  -19.7904  -30.7228   24.2330 H   0  0  0  0  0  0
  -17.4994  -31.6288   24.5113 H   0  0  0  0  0  0
  -15.5315  -30.2997   23.7658 H   0  0  0  0  0  0
  -15.8631  -28.0807   22.7122 H   0  0  0  0  0  0
  -24.5962  -30.7002   25.7840 H   0  0  0  0  0  0
  -24.8954  -32.2833   26.4953 H   0  0  0  0  0  0
  -25.8170  -30.8864   27.0226 H   0  0  0  0  0  0
  -26.2831  -29.6801   24.1170 H   0  0  0  0  0  0
  -27.4135  -29.7282   25.4501 H   0  0  0  0  0  0
  -27.8639  -30.4368   23.9167 H   0  0  0  0  0  0
  -27.2714  -33.3628   26.2027 H   0  0  0  0  0  0
  -28.3915  -32.6790   25.0339 H   0  0  0  0  0  0
  -28.0683  -31.8435   26.5435 H   0  0  0  0  0  0
  -28.2539  -38.0159   24.7588 H   0  0  0  0  0  0
  -28.1147  -36.2691   24.6139 H   0  0  0  0  0  0
  -27.2320  -37.1259   25.8851 H   0  0  0  0  0  0
  -20.9275  -29.8786   21.7035 H   0  0  0  0  0  0
  -26.0146  -38.2859   24.1491 H   0  0  0  0  0  0
  -32.2171  -18.3797   19.6002 H   0  0  0  0  0  0
  -28.3197  -20.1201   18.9771 H   0  0  0  0  0  0
  -32.5163  -19.0874   17.1292 H   0  0  0  0  0  0
  -32.2112  -20.4026   16.0075 H   0  0  0  0  0  0
  -30.9980  -19.1477   16.2428 H   0  0  0  0  0  0
  -25.8129  -19.4376   23.4460 H   0  0  0  0  0  0
  -26.2904  -17.7651   23.1692 H   0  0  0  0  0  0
  -25.1988  -18.5829   22.0501 H   0  0  0  0  0  0
  -28.1030  -20.3080   23.5589 H   0  0  0  0  0  0
  -29.2771  -20.0408   22.2894 H   0  0  0  0  0  0
  -28.8161  -18.7170   23.3577 H   0  0  0  0  0  0
  -25.6914  -17.6974   20.0641 H   0  0  0  0  0  0
  -26.9679  -17.2519   18.9398 H   0  0  0  0  0  0
  -26.4787  -18.9292   19.1321 H   0  0  0  0  0  0
  -30.0948  -17.0868   22.3847 H   0  0  0  0  0  0
  -31.5937  -16.7427   21.6052 H   0  0  0  0  0  0
  -28.0380  -25.6488   17.6835 H   0  0  0  0  0  0
  -29.7227  -25.4838   18.0341 H   0  0  0  0  0  0
  -28.6789  -23.6153   16.7104 H   0  0  0  0  0  0
  -27.6951  -23.1564   18.0670 H   0  0  0  0  0  0
  -29.2367  -21.1599   16.9205 H   0  0  0  0  0  0
  -30.6025  -22.1388   16.4637 H   0  0  0  0  0  0
  -29.2144  -24.8653   20.3696 H   0  0  0  0  0  0
  -27.5100  -24.8276   20.0767 H   0  0  0  0  0  0
  -31.9152  -21.0977   18.3977 H   0  0  0  0  0  0
  -26.9969  -20.1069   21.3419 H   0  0  0  0  0  0
  -27.8207  -17.1880   21.2728 H   0  0  0  0  0  0
  -29.0602  -15.2646   21.3705 H   0  0  0  0  0  0
  -29.4942  -22.2900   19.1539 H   0  0  0  0  0  0
  -30.5804  -23.2714   18.4370 H   0  0  0  0  0  0
  1 25  1  0  0  0
  1 30  2  0  0  0
  1 88  1  0  0  0
  2  3  1  0  0  0
  2 25  1  0  0  0
  2 90  1  0  0  0
  2 91  1  0  0  0
  3  4  1  0  0  0
  3 92  1  0  0  0
  3 93  1  0  0  0
  4  5  1  0  0  0
  4 94  1  0  0  0
  4 95  1  0  0  0
  5  6  1  0  0  0
  5 26  1  0  0  0
  5 96  1  0  0  0
  6 25  1  0  0  0
  6 97  1  0  0  0
  6 98  1  0  0  0
  7  8  2  0  0  0
  7 26  1  0  0  0
  7 29  1  0  0  0
  8  9  1  0  0  0
  8 22  1  0  0  0
  9 10  1  0  0  0
  9 27  2  0  0  0
 10 11  2  0  0  0
 10 15  1  0  0  0
 11 12  1  0  0  0
 11 99  1  0  0  0
 12 13  2  0  0  0
 12100  1  0  0  0
 13 14  1  0  0  0
 13 31  1  0  0  0
 14 15  2  0  0  0
 14101  1  0  0  0
 15102  1  0  0  0
 16 17  2  0  0  0
 16 21  1  0  0  0
 16 31  1  0  0  0
 17 18  1  0  0  0
 17103  1  0  0  0
 18 19  2  0  0  0
 18104  1  0  0  0
 19 20  1  0  0  0
 19 24  1  0  0  0
 20 21  2  0  0  0
 20105  1  0  0  0
 21 23  1  0  0  0
 22 28  1  0  0  0
 22 32  2  0  0  0
 26 27  1  0  0  0
 28106  1  0  0  0
 28107  1  0  0  0
 29108  1  0  0  0
 29109  1  0  0  0
 33 34  1  0  0  0
 33 66  1  0  0  0
 33 70  2  0  0  0
 34 36  1  0  0  0
 34 59  1  0  0  0
 34110  1  0  0  0
 35 44  2  0  0  0
 35 45  1  0  0  0
 35 68  1  0  0  0
 36 56  1  0  0  0
 36111  1  0  0  0
 37 39  1  0  0  0
 37 47  1  0  0  0
 37 66  1  0  0  0
 37112  1  0  0  0
 38 43  2  0  0  0
 38 46  1  0  0  0
 38 47  1  0  0  0
 39 64  1  0  0  0
 39 67  2  0  0  0
 40 52  1  0  0  0
 40 53  2  0  0  0
 40 58  1  0  0  0
 41113  1  0  0  0
 41114  1  0  0  0
 41115  1  0  0  0
 41 48  1  0  0  0
 42 43  1  0  0  0
 42 66  1  0  0  0
 42116  1  0  0  0
 42117  1  0  0  0
 43 44  1  0  0  0
 44118  1  0  0  0
 45 46  2  0  0  0
 45119  1  0  0  0
 46120  1  0  0  0
 47121  1  0  0  0
 47122  1  0  0  0
 48 56  1  0  0  0
 48 65  1  0  0  0
 48123  1  0  0  0
 49 50  1  0  0  0
 49 53  1  0  0  0
 49 64  1  0  0  0
 49124  1  0  0  0
 50 51  1  0  0  0
 50125  1  0  0  0
 50126  1  0  0  0
 51 52  1  0  0  0
 51127  1  0  0  0
 51128  1  0  0  0
 52129  1  0  0  0
 52130  1  0  0  0
 53 54  1  0  0  0
 54 55  2  0  0  0
 54131  1  0  0  0
 55 57  1  0  0  0
 55132  1  0  0  0
 56 69  2  0  0  0
 57 58  2  0  0  0
 57133  1  0  0  0
 58134  1  0  0  0
 59 60  1  0  0  0
 59 61  1  0  0  0
 59 62  1  0  0  0
 60135  1  0  0  0
 60136  1  0  0  0
 60137  1  0  0  0
 61138  1  0  0  0
 61139  1  0  0  0
 61140  1  0  0  0
 62141  1  0  0  0
 62142  1  0  0  0
 62143  1  0  0  0
 63 65  1  0  0  0
 63144  1  0  0  0
 63145  1  0  0  0
 63146  1  0  0  0
 64147  1  0  0  0
 65148  1  0  0  0
 68 83  1  0  0  0
 71 73  1  0  0  0
 71 74  2  0  0  0
 71149  1  0  0  0
 72 73  2  0  0  0
 72 87  1  0  0  0
 72150  1  0  0  0
 73 84  1  0  0  0
 74 79  1  0  0  0
 74 87  1  0  0  0
 75151  1  0  0  0
 75152  1  0  0  0
 75153  1  0  0  0
 75 84  1  0  0  0
 76154  1  0  0  0
 76155  1  0  0  0
 76156  1  0  0  0
 76 85  1  0  0  0
 77 85  1  0  0  0
 77157  1  0  0  0
 77158  1  0  0  0
 77159  1  0  0  0
 78160  1  0  0  0
 78161  1  0  0  0
 78162  1  0  0  0
 78 86  1  0  0  0
 79 88  1  0  0  0
 79163  1  0  0  0
 79164  1  0  0  0
 80 81  1  0  0  0
 80 83  1  0  0  0
 80165  1  0  0  0
 80166  1  0  0  0
 81 89  1  0  0  0
 81167  1  0  0  0
 81168  1  0  0  0
 82 84  1  0  0  0
 82 89  1  0  0  0
 82169  1  0  0  0
 82170  1  0  0  0
 83171  1  0  0  0
 83172  1  0  0  0
 84173  1  0  0  0
 85 86  1  0  0  0
 85174  1  0  0  0
 86 87  1  0  0  0
 86175  1  0  0  0
 88176  1  0  0  0
 89177  1  0  0  0
 89178  1  0  0  0
M  CHG  1  89   1
M  ISO  4   1 100  68 101  83 101  88 100
M  END
> <chiral flag>
0

> <version>
0

> <s_m_source_file>
/data/baiqing/PycharmProjects/Reinvent-master-3.2/result/LINK_invent/BTK/process_docking_weight1_custom_sum_contain_oxygen_bond_distance_aromatic_linkinvent_7_9_3/rearranged_h_0122.sdf

> <i_m_source_file_index>
95

> <r_mmod_Potential_Energy-OPLS-2005>
-277.435791015625

> <r_mmod_Stretch_Energy-OPLS-2005>
38.1121482849121

> <r_mmod_Bend_Energy-OPLS-2005>
113.980278015137

> <r_mmod_Torsional_Energy-OPLS-2005>
242.013076782227

> <r_mmod_Improper_Torsional_Energy-OPLS-2005>
3.62807178497314

> <r_mmod_Van_der_Waal_Energy-OPLS-2005>
123.911979675293

> <r_mmod_Electrostatic_Energy-OPLS-2005>
-361.369903564453

> <r_mmod_Solvation_Energy-OPLS-2005>
-451.003540039062

> <b_mmod_Minimization_Converged-OPLS-2005>
0

> <r_mmod_RMS_Derivative-OPLS-2005>
3.27821016311646

$$$$
95
                    3D
 Structure written by MMmdl.
175183  0  0  1  0            999 V2000
  -30.7041  -14.4657   20.5840 C   0  0  0  0  0  0
  -30.4218  -12.3089   19.4201 C   0  0  0  0  0  0
  -29.4946  -12.5103   18.2044 C   0  0  0  0  0  0
  -28.0142  -12.3771   18.6147 C   0  0  0  0  0  0
  -27.6619  -13.2080   19.8772 C   0  0  2  0  0  0
  -28.7025  -12.9840   20.9971 C   0  0  0  0  0  0
  -25.2587  -13.8168   20.5686 C   0  0  0  0  0  0
  -24.1838  -13.0445   20.9175 C   0  0  0  0  0  0
  -24.6386  -11.6906   20.8731 C   0  0  0  0  0  0
  -23.9050  -10.4293   21.0394 C   0  0  0  0  0  0
  -24.3608   -9.4203   21.9163 C   0  0  0  0  0  0
  -23.6289   -8.2237   22.0741 C   0  0  0  0  0  0
  -22.4272   -8.0273   21.3532 C   0  0  0  0  0  0
  -21.9898   -9.0250   20.4637 C   0  0  0  0  0  0
  -22.7224  -10.2129   20.3045 C   0  0  0  0  0  0
  -21.6862   -6.0727   22.5276 C   0  0  0  0  0  0
  -21.4013   -6.5627   23.8207 C   0  0  0  0  0  0
  -21.3665   -5.6778   24.9170 C   0  0  0  0  0  0
  -21.6051   -4.3044   24.7215 C   0  0  0  0  0  0
  -21.8823   -3.8135   23.4338 C   0  0  0  0  0  0
  -21.9195   -4.6955   22.3396 C   0  0  0  0  0  0
  -22.7862  -13.5228   21.1852 C   0  0  0  0  0  0
  -22.1665   -4.2139   21.0978 F   0  0  0  0  0  0
  -21.5637   -3.4530   25.7729 F   0  0  0  0  0  0
  -30.0338  -13.2909   20.4450 N   0  0  0  0  0  0
  -26.3024  -12.9333   20.3377 N   0  0  0  0  0  0
  -25.9307  -11.6490   20.5752 N   0  0  0  0  0  0
  -22.0508  -12.8216   22.0412 N   0  0  0  0  0  0
  -25.4327  -15.1886   20.4092 N   0  0  0  0  0  0
  -31.8197  -14.6624   20.0939 O   0  0  0  0  0  0
  -21.6646   -6.8866   21.4230 O   0  0  0  0  0  0
  -22.3546  -14.5540   20.6714 O   0  0  0  0  0  0
  -24.6131  -31.8682   23.2083 C   0  0  0  0  0  0
  -25.9032  -32.4826   23.8386 C   0  0  1  0  0  0
  -27.2394  -27.4412   20.0994 C   0  0  0  0  0  0
  -25.5885  -33.8622   24.2324 N   0  0  0  0  0  0
  -23.4018  -30.4887   21.5492 C   0  0  2  0  0  0
  -24.8530  -28.9510   20.1186 C   0  0  0  0  0  0
  -22.7403  -29.4657   22.5003 C   0  0  0  0  0  0
  -18.0264  -28.1375   22.8497 C   0  0  0  0  0  0
  -24.1489  -36.7317   23.2634 C   0  0  0  0  0  0
  -25.9290  -30.8353   21.3604 C   0  0  0  0  0  0
  -26.0104  -29.4650   20.7186 C   0  0  0  0  0  0
  -27.2089  -28.7140   20.7132 C   0  0  0  0  0  0
  -26.0724  -26.9396   19.4918 C   0  0  0  0  0  0
  -24.8770  -27.6854   19.5039 C   0  0  0  0  0  0
  -23.6121  -29.8152   20.1661 C   0  0  0  0  0  0
  -25.4105  -36.3115   24.0341 C   0  0  1  0  0  0
  -20.5855  -28.3660   23.1331 C   0  0  2  0  0  0
  -20.6758  -26.9398   22.5425 C   0  0  0  0  0  0
  -19.5738  -26.6388   21.5214 C   0  0  0  0  0  0
  -18.1916  -26.7923   22.1626 C   0  0  0  0  0  0
  -19.1513  -28.8833   23.2911 C   0  0  0  0  0  0
  -18.9443  -30.1440   23.8921 C   0  0  0  0  0  0
  -17.6449  -30.6581   24.0565 C   0  0  0  0  0  0
  -25.9032  -34.9479   23.5133 C   0  0  0  0  0  0
  -16.5338  -29.9088   23.6323 C   0  0  0  0  0  0
  -16.7258  -28.6501   23.0350 C   0  0  0  0  0  0
  -26.4458  -31.6594   25.0704 C   0  0  0  0  0  0
  -25.3726  -31.3687   26.1451 C   0  0  0  0  0  0
  -27.0285  -30.3050   24.6047 C   0  0  0  0  0  0
  -27.6046  -32.4297   25.7461 C   0  0  0  0  0  0
  -27.5583  -37.1804   24.8460 C   0  0  0  0  0  0
  -21.4131  -29.3028   22.3740 N   0  0  0  0  0  0
  -26.4294  -37.3797   23.9409 N   0  0  0  0  0  0
  -24.6667  -31.0790   22.0988 N   0  0  0  0  0  0
  -23.4181  -28.8202   23.3041 O   0  0  0  0  0  0
  -28.3865  -26.6841   20.0459 O   0  0  0  0  0  0
  -26.5602  -34.8929   22.4695 O   0  0  0  0  0  0
  -23.5330  -32.1427   23.7485 O   0  0  0  0  0  0
  -28.9577  -20.7735   16.7135 C   0  0  0  0  0  0
  -29.9396  -20.3090   17.8094 C   0  0  0  0  0  0
  -27.2886  -21.4034   18.5222 C   0  0  0  0  0  0
  -27.9871  -21.8590   17.2211 C   0  0  2  0  0  0
  -29.1808  -19.8719   19.0802 C   0  0  2  0  0  0
  -28.3157  -21.0588   19.6299 C   0  0  1  0  0  0
  -26.9594  -22.2575   16.1518 C   0  0  0  0  0  0
  -30.4502  -17.1688   22.8348 C   0  0  0  0  0  0
  -30.7078  -19.9881   21.0751 C   0  0  0  0  0  0
  -29.3319  -24.5304   20.8228 C   0  0  0  0  0  0
  -29.4921  -17.8257   20.5168 C   0  0  0  0  0  0
  -28.6091  -25.8539   21.1906 C   0  0  0  0  0  0
  -28.3978  -23.4139   20.3124 C   0  0  0  0  0  0
  -30.4422  -16.8729   21.3210 C   0  0  2  0  0  0
  -30.0193  -15.4619   21.1798 N   0  0  0  0  0  0
  -30.0694  -19.1334   20.0448 N   0  3  1  0  0  0
  -29.1165  -22.2198   19.9517 O   0  0  0  0  0  0
  -31.4661  -12.4074   19.1187 H   0  0  0  0  0  0
  -30.3212  -11.2963   19.8135 H   0  0  0  0  0  0
  -29.7330  -11.7843   17.4258 H   0  0  0  0  0  0
  -29.6684  -13.4943   17.7654 H   0  0  0  0  0  0
  -27.8145  -11.3219   18.8012 H   0  0  0  0  0  0
  -27.3688  -12.6659   17.7844 H   0  0  0  0  0  0
  -27.7061  -14.2578   19.5868 H   0  0  0  0  0  0
  -28.6762  -11.9475   21.3366 H   0  0  0  0  0  0
  -28.4613  -13.5829   21.8753 H   0  0  0  0  0  0
  -25.2757   -9.5692   22.4725 H   0  0  0  0  0  0
  -24.0022   -7.4626   22.7446 H   0  0  0  0  0  0
  -21.0838   -8.8756   19.8934 H   0  0  0  0  0  0
  -22.3682  -10.9660   19.6156 H   0  0  0  0  0  0
  -21.2003   -7.6133   23.9704 H   0  0  0  0  0  0
  -21.1494   -6.0510   25.9073 H   0  0  0  0  0  0
  -22.0604   -2.7594   23.2841 H   0  0  0  0  0  0
  -22.4140  -11.9890   22.4826 H   0  0  0  0  0  0
  -21.1109  -13.1226   22.2597 H   0  0  0  0  0  0
  -24.6663  -15.8455   20.5102 H   0  0  0  0  0  0
  -26.2837  -15.6207   20.0743 H   0  0  0  0  0  0
  -26.7106  -32.5558   23.1157 H   0  0  0  0  0  0
  -25.0024  -33.9788   25.0464 H   0  0  0  0  0  0
  -22.6904  -31.3046   21.4074 H   0  0  0  0  0  0
  -23.3752  -35.9649   23.3296 H   0  0  0  0  0  0
  -24.3584  -36.8930   22.2048 H   0  0  0  0  0  0
  -23.7247  -37.6523   23.6649 H   0  0  0  0  0  0
  -26.0300  -31.5955   20.5838 H   0  0  0  0  0  0
  -26.8209  -30.9005   21.9718 H   0  0  0  0  0  0
  -28.1051  -29.1080   21.1725 H   0  0  0  0  0  0
  -26.0915  -25.9719   19.0104 H   0  0  0  0  0  0
  -23.9885  -27.2856   19.0358 H   0  0  0  0  0  0
  -23.7137  -30.5858   19.4010 H   0  0  0  0  0  0
  -22.7386  -29.2283   19.8765 H   0  0  0  0  0  0
  -25.1281  -36.1968   25.0838 H   0  0  0  0  0  0
  -20.9945  -28.3217   24.1450 H   0  0  0  0  0  0
  -20.5656  -26.2263   23.3606 H   0  0  0  0  0  0
  -21.6633  -26.7442   22.1213 H   0  0  0  0  0  0
  -19.6899  -25.6303   21.1229 H   0  0  0  0  0  0
  -19.6679  -27.3213   20.6756 H   0  0  0  0  0  0
  -17.4185  -26.6673   21.4027 H   0  0  0  0  0  0
  -18.0314  -26.0060   22.9019 H   0  0  0  0  0  0
  -19.7923  -30.7247   24.2307 H   0  0  0  0  0  0
  -17.5005  -31.6268   24.5159 H   0  0  0  0  0  0
  -15.5340  -30.2998   23.7639 H   0  0  0  0  0  0
  -15.8658  -28.0833   22.7058 H   0  0  0  0  0  0
  -24.5906  -30.7030   25.7774 H   0  0  0  0  0  0
  -24.8905  -32.2841   26.4899 H   0  0  0  0  0  0
  -25.8078  -30.8850   27.0205 H   0  0  0  0  0  0
  -26.2825  -29.6811   24.1114 H   0  0  0  0  0  0
  -27.4096  -29.7269   25.4472 H   0  0  0  0  0  0
  -27.8631  -30.4383   23.9158 H   0  0  0  0  0  0
  -27.2684  -33.3586   26.2069 H   0  0  0  0  0  0
  -28.3835  -32.6864   25.0272 H   0  0  0  0  0  0
  -28.0732  -31.8397   26.5342 H   0  0  0  0  0  0
  -28.2591  -38.0110   24.7531 H   0  0  0  0  0  0
  -28.1093  -36.2649   24.6257 H   0  0  0  0  0  0
  -27.2308  -37.1416   25.8863 H   0  0  0  0  0  0
  -20.9289  -29.8760   21.6973 H   0  0  0  0  0  0
  -26.0182  -38.2873   24.1422 H   0  0  0  0  0  0
  -29.5173  -21.1447   15.8542 H   0  0  0  0  0  0
  -28.3899  -19.9151   16.3498 H   0  0  0  0  0  0
  -30.6423  -21.1098   18.0452 H   0  0  0  0  0  0
  -30.5332  -19.4831   17.4160 H   0  0  0  0  0  0
  -26.6744  -20.5251   18.3161 H   0  0  0  0  0  0
  -26.5741  -22.1512   18.8637 H   0  0  0  0  0  0
  -28.5787  -22.7480   17.4427 H   0  0  0  0  0  0
  -28.4616  -19.1303   18.7278 H   0  0  0  0  0  0
  -27.7799  -20.7373   20.5235 H   0  0  0  0  0  0
  -26.3206  -21.4174   15.8764 H   0  0  0  0  0  0
  -27.4488  -22.6179   15.2470 H   0  0  0  0  0  0
  -26.3129  -23.0588   16.5135 H   0  0  0  0  0  0
  -30.7185  -18.1933   23.0769 H   0  0  0  0  0  0
  -31.1713  -16.5349   23.3516 H   0  0  0  0  0  0
  -29.4733  -16.9864   23.2848 H   0  0  0  0  0  0
  -31.1307  -20.8846   20.6224 H   0  0  0  0  0  0
  -31.5524  -19.4823   21.5418 H   0  0  0  0  0  0
  -30.0039  -20.2934   21.8498 H   0  0  0  0  0  0
  -29.8470  -24.1593   21.7092 H   0  0  0  0  0  0
  -30.1110  -24.7334   20.0882 H   0  0  0  0  0  0
  -29.1738  -17.2805   19.6262 H   0  0  0  0  0  0
  -28.5796  -18.0201   21.0823 H   0  0  0  0  0  0
  -29.2306  -26.4234   21.8833 H   0  0  0  0  0  0
  -27.6812  -25.6323   21.7224 H   0  0  0  0  0  0
  -27.8650  -23.8159   19.4516 H   0  0  0  0  0  0
  -27.6546  -23.1801   21.0760 H   0  0  0  0  0  0
  -31.4570  -16.9920   20.9381 H   0  0  0  0  0  0
  -29.1057  -15.2145   21.5327 H   0  0  0  0  0  0
  -30.8421  -18.8381   19.4669 H   0  0  0  0  0  0
  1 25  1  0  0  0
  1 30  2  0  0  0
  1 85  1  0  0  0
  2  3  1  0  0  0
  2 25  1  0  0  0
  2 88  1  0  0  0
  2 89  1  0  0  0
  3  4  1  0  0  0
  3 90  1  0  0  0
  3 91  1  0  0  0
  4  5  1  0  0  0
  4 92  1  0  0  0
  4 93  1  0  0  0
  5  6  1  0  0  0
  5 26  1  0  0  0
  5 94  1  0  0  0
  6 25  1  0  0  0
  6 95  1  0  0  0
  6 96  1  0  0  0
  7  8  2  0  0  0
  7 26  1  0  0  0
  7 29  1  0  0  0
  8  9  1  0  0  0
  8 22  1  0  0  0
  9 10  1  0  0  0
  9 27  2  0  0  0
 10 11  2  0  0  0
 10 15  1  0  0  0
 11 12  1  0  0  0
 11 97  1  0  0  0
 12 13  2  0  0  0
 12 98  1  0  0  0
 13 14  1  0  0  0
 13 31  1  0  0  0
 14 15  2  0  0  0
 14 99  1  0  0  0
 15100  1  0  0  0
 16 17  2  0  0  0
 16 21  1  0  0  0
 16 31  1  0  0  0
 17 18  1  0  0  0
 17101  1  0  0  0
 18 19  2  0  0  0
 18102  1  0  0  0
 19 20  1  0  0  0
 19 24  1  0  0  0
 20 21  2  0  0  0
 20103  1  0  0  0
 21 23  1  0  0  0
 22 28  1  0  0  0
 22 32  2  0  0  0
 26 27  1  0  0  0
 28104  1  0  0  0
 28105  1  0  0  0
 29106  1  0  0  0
 29107  1  0  0  0
 33 34  1  0  0  0
 33 66  1  0  0  0
 33 70  2  0  0  0
 34 36  1  0  0  0
 34 59  1  0  0  0
 34108  1  0  0  0
 35 44  2  0  0  0
 35 45  1  0  0  0
 35 68  1  0  0  0
 36 56  1  0  0  0
 36109  1  0  0  0
 37 39  1  0  0  0
 37 47  1  0  0  0
 37 66  1  0  0  0
 37110  1  0  0  0
 38 43  2  0  0  0
 38 46  1  0  0  0
 38 47  1  0  0  0
 39 64  1  0  0  0
 39 67  2  0  0  0
 40 52  1  0  0  0
 40 53  2  0  0  0
 40 58  1  0  0  0
 41111  1  0  0  0
 41112  1  0  0  0
 41113  1  0  0  0
 41 48  1  0  0  0
 42 43  1  0  0  0
 42 66  1  0  0  0
 42114  1  0  0  0
 42115  1  0  0  0
 43 44  1  0  0  0
 44116  1  0  0  0
 45 46  2  0  0  0
 45117  1  0  0  0
 46118  1  0  0  0
 47119  1  0  0  0
 47120  1  0  0  0
 48 56  1  0  0  0
 48 65  1  0  0  0
 48121  1  0  0  0
 49 50  1  0  0  0
 49 53  1  0  0  0
 49 64  1  0  0  0
 49122  1  0  0  0
 50 51  1  0  0  0
 50123  1  0  0  0
 50124  1  0  0  0
 51 52  1  0  0  0
 51125  1  0  0  0
 51126  1  0  0  0
 52127  1  0  0  0
 52128  1  0  0  0
 53 54  1  0  0  0
 54 55  2  0  0  0
 54129  1  0  0  0
 55 57  1  0  0  0
 55130  1  0  0  0
 56 69  2  0  0  0
 57 58  2  0  0  0
 57131  1  0  0  0
 58132  1  0  0  0
 59 60  1  0  0  0
 59 61  1  0  0  0
 59 62  1  0  0  0
 60133  1  0  0  0
 60134  1  0  0  0
 60135  1  0  0  0
 61136  1  0  0  0
 61137  1  0  0  0
 61138  1  0  0  0
 62139  1  0  0  0
 62140  1  0  0  0
 62141  1  0  0  0
 63 65  1  0  0  0
 63142  1  0  0  0
 63143  1  0  0  0
 63144  1  0  0  0
 64145  1  0  0  0
 65146  1  0  0  0
 68 82  1  0  0  0
 71 72  1  0  0  0
 71 74  1  0  0  0
 71147  1  0  0  0
 71148  1  0  0  0
 72149  1  0  0  0
 72150  1  0  0  0
 72 75  1  0  0  0
 73 74  1  0  0  0
 73 76  1  0  0  0
 73151  1  0  0  0
 73152  1  0  0  0
 74 77  1  0  0  0
 74153  1  0  0  0
 75 76  1  0  0  0
 75 86  1  0  0  0
 75154  1  0  0  0
 76 87  1  0  0  0
 76155  1  0  0  0
 77156  1  0  0  0
 77157  1  0  0  0
 77158  1  0  0  0
 78159  1  0  0  0
 78160  1  0  0  0
 78161  1  0  0  0
 78 84  1  0  0  0
 79162  1  0  0  0
 79163  1  0  0  0
 79164  1  0  0  0
 79 86  1  0  0  0
 80 82  1  0  0  0
 80 83  1  0  0  0
 80165  1  0  0  0
 80166  1  0  0  0
 81 84  1  0  0  0
 81 86  1  0  0  0
 81167  1  0  0  0
 81168  1  0  0  0
 82169  1  0  0  0
 82170  1  0  0  0
 83 87  1  0  0  0
 83171  1  0  0  0
 83172  1  0  0  0
 84 85  1  0  0  0
 84173  1  0  0  0
 85174  1  0  0  0
 86175  1  0  0  0
M  CHG  1  86   1
M  ISO  4   1 100  68 101  82 101  85 100
M  END
> <chiral flag>
0

> <version>
0

> <s_m_source_file>
/data/baiqing/PycharmProjects/Reinvent-master-3.2/result/LINK_invent/BTK/process_docking_weight1_custom_sum_contain_oxygen_bond_distance_aromatic_linkinvent_7_9_3/rearranged_h_0122.sdf

> <i_m_source_file_index>
96

> <r_mmod_Potential_Energy-OPLS-2005>
-60.0161781311035

> <r_mmod_Stretch_Energy-OPLS-2005>
44.2743682861328

> <r_mmod_Bend_Energy-OPLS-2005>
120.237365722656

> <r_mmod_Torsional_Energy-OPLS-2005>
284.101165771484

> <r_mmod_Improper_Torsional_Energy-OPLS-2005>
3.03535175323486

> <r_mmod_Van_der_Waal_Energy-OPLS-2005>
136.309661865234

> <r_mmod_Electrostatic_Energy-OPLS-2005>
-249.982025146484

> <r_mmod_Solvation_Energy-OPLS-2005>
-408.720855712891

> <b_mmod_Minimization_Converged-OPLS-2005>
0

> <r_mmod_RMS_Derivative-OPLS-2005>
1.80380499362946

$$$$
96
                    3D
 Structure written by MMmdl.
160168  0  0  1  0            999 V2000
  -30.6363  -14.7243   20.4534 C   0  0  0  0  0  0
  -30.4240  -12.4433   19.4713 C   0  0  0  0  0  0
  -29.5050  -12.5042   18.2320 C   0  0  0  0  0  0
  -28.0295  -12.3397   18.6411 C   0  0  0  0  0  0
  -27.6399  -13.2327   19.8498 C   0  0  2  0  0  0
  -28.6856  -13.1724   20.9830 C   0  0  0  0  0  0
  -25.2505  -13.8186   20.5719 C   0  0  0  0  0  0
  -24.1791  -13.0432   20.9208 C   0  0  0  0  0  0
  -24.6379  -11.6906   20.8725 C   0  0  0  0  0  0
  -23.9055  -10.4278   21.0385 C   0  0  0  0  0  0
  -24.3607   -9.4201   21.9177 C   0  0  0  0  0  0
  -23.6285   -8.2234   22.0757 C   0  0  0  0  0  0
  -22.4272   -8.0266   21.3540 C   0  0  0  0  0  0
  -21.9896   -9.0235   20.4646 C   0  0  0  0  0  0
  -22.7217  -10.2119   20.3043 C   0  0  0  0  0  0
  -21.6858   -6.0718   22.5275 C   0  0  0  0  0  0
  -21.4020   -6.5626   23.8207 C   0  0  0  0  0  0
  -21.3660   -5.6782   24.9169 C   0  0  0  0  0  0
  -21.6044   -4.3044   24.7221 C   0  0  0  0  0  0
  -21.8818   -3.8131   23.4344 C   0  0  0  0  0  0
  -21.9195   -4.6944   22.3398 C   0  0  0  0  0  0
  -22.7809  -13.5221   21.1846 C   0  0  0  0  0  0
  -22.1670   -4.2126   21.0975 F   0  0  0  0  0  0
  -21.5620   -3.4533   25.7734 F   0  0  0  0  0  0
  -29.9866  -13.5130   20.3972 N   0  0  0  0  0  0
  -26.2927  -12.9399   20.3289 N   0  0  0  0  0  0
  -25.9308  -11.6536   20.5732 N   0  0  0  0  0  0
  -22.0459  -12.8230   22.0413 N   0  0  0  0  0  0
  -25.4211  -15.1908   20.4163 N   0  0  0  0  0  0
  -31.8309  -14.7876   20.1497 O   0  0  0  0  0  0
  -21.6637   -6.8862   21.4239 O   0  0  0  0  0  0
  -22.3501  -14.5521   20.6678 O   0  0  0  0  0  0
  -24.6302  -31.8531   23.1986 C   0  0  0  0  0  0
  -25.9128  -32.4748   23.8320 C   0  0  1  0  0  0
  -27.2172  -27.2627   20.1185 C   0  0  0  0  0  0
  -25.5926  -33.8550   24.2250 N   0  0  0  0  0  0
  -23.4268  -30.4772   21.5403 C   0  0  2  0  0  0
  -24.8716  -28.9224   20.1063 C   0  0  0  0  0  0
  -22.7492  -29.4588   22.4884 C   0  0  0  0  0  0
  -18.0288  -28.1381   22.8473 C   0  0  0  0  0  0
  -24.1488  -36.7283   23.2642 C   0  0  0  0  0  0
  -25.9711  -30.7655   21.3769 C   0  0  0  0  0  0
  -26.0414  -29.3889   20.7168 C   0  0  0  0  0  0
  -27.2127  -28.5694   20.7154 C   0  0  0  0  0  0
  -26.0198  -26.8531   19.4923 C   0  0  0  0  0  0
  -24.8661  -27.6631   19.4846 C   0  0  0  0  0  0
  -23.6445  -29.8129   20.1547 C   0  0  0  0  0  0
  -25.4116  -36.3075   24.0327 C   0  0  1  0  0  0
  -20.5890  -28.3692   23.1267 C   0  0  2  0  0  0
  -20.6791  -26.9402   22.5415 C   0  0  0  0  0  0
  -19.5778  -26.6366   21.5212 C   0  0  0  0  0  0
  -18.1946  -26.7921   22.1616 C   0  0  0  0  0  0
  -19.1544  -28.8854   23.2875 C   0  0  0  0  0  0
  -18.9464  -30.1460   23.8883 C   0  0  0  0  0  0
  -17.6465  -30.6597   24.0553 C   0  0  0  0  0  0
  -25.9056  -34.9441   23.5094 C   0  0  0  0  0  0
  -16.5355  -29.9089   23.6326 C   0  0  0  0  0  0
  -16.7279  -28.6513   23.0337 C   0  0  0  0  0  0
  -26.4500  -31.6577   25.0708 C   0  0  0  0  0  0
  -25.3732  -31.3697   26.1433 C   0  0  0  0  0  0
  -27.0343  -30.2997   24.6190 C   0  0  0  0  0  0
  -27.6064  -32.4303   25.7481 C   0  0  0  0  0  0
  -27.5578  -37.1800   24.8462 C   0  0  0  0  0  0
  -21.4191  -29.3045   22.3651 N   0  0  0  0  0  0
  -26.4292  -37.3773   23.9411 N   0  0  0  0  0  0
  -24.6951  -31.0497   22.0954 N   0  0  0  0  0  0
  -23.4192  -28.8100   23.2961 O   0  0  0  0  0  0
  -28.3372  -26.4058   20.2013 O   0  0  0  0  0  0
  -26.5621  -34.8914   22.4661 O   0  0  0  0  0  0
  -23.5459  -32.1348   23.7290 O   0  0  0  0  0  0
  -28.4857  -18.7930   21.1424 C   0  0  0  0  0  0
  -28.0748  -20.1069   20.9969 C   0  0  0  0  0  0
  -29.0078  -20.8119   20.1556 C   0  0  0  0  0  0
  -29.9708  -19.8320   19.8719 C   0  0  0  0  0  0
  -26.8243  -20.6714   21.6176 C   0  0  0  0  0  0
  -31.2212  -19.9665   19.0506 C   0  0  0  0  0  0
  -28.3742  -23.6205   20.3289 C   0  0  0  0  0  0
  -28.4406  -25.0541   19.5558 C   0  0  0  0  0  0
  -30.4918  -17.2836   20.3732 C   0  0  0  0  0  0
  -28.9220  -22.2996   19.5444 C   0  0  2  0  0  0
  -29.6539  -18.5652   20.4398 N   0  0  0  0  0  0
  -29.9124  -15.8943   20.6113 N   0  0  0  0  0  0
  -28.2156  -22.1373   18.2654 N   0  3  0  0  0  0
  -31.4653  -12.5572   19.1676 H   0  0  0  0  0  0
  -30.3595  -11.4685   19.9583 H   0  0  0  0  0  0
  -29.7826  -11.7294   17.5163 H   0  0  0  0  0  0
  -29.6400  -13.4580   17.7206 H   0  0  0  0  0  0
  -27.8736  -11.2899   18.8905 H   0  0  0  0  0  0
  -27.3765  -12.5506   17.7922 H   0  0  0  0  0  0
  -27.6330  -14.2537   19.4705 H   0  0  0  0  0  0
  -28.7164  -12.1780   21.4310 H   0  0  0  0  0  0
  -28.4279  -13.8661   21.7851 H   0  0  0  0  0  0
  -25.2757   -9.5677   22.4749 H   0  0  0  0  0  0
  -23.9980   -7.4626   22.7485 H   0  0  0  0  0  0
  -21.0823   -8.8750   19.8959 H   0  0  0  0  0  0
  -22.3674  -10.9648   19.6144 H   0  0  0  0  0  0
  -21.2028   -7.6141   23.9705 H   0  0  0  0  0  0
  -21.1490   -6.0516   25.9072 H   0  0  0  0  0  0
  -22.0601   -2.7592   23.2850 H   0  0  0  0  0  0
  -22.4091  -11.9906   22.4820 H   0  0  0  0  0  0
  -21.1070  -13.1239   22.2596 H   0  0  0  0  0  0
  -24.6571  -15.8466   20.5373 H   0  0  0  0  0  0
  -26.2654  -15.6287   20.0717 H   0  0  0  0  0  0
  -26.7183  -32.5400   23.1052 H   0  0  0  0  0  0
  -25.0070  -33.9672   25.0393 H   0  0  0  0  0  0
  -22.7256  -31.3021   21.3960 H   0  0  0  0  0  0
  -23.3761  -35.9603   23.3296 H   0  0  0  0  0  0
  -24.3586  -36.8910   22.2060 H   0  0  0  0  0  0
  -23.7222  -37.6477   23.6664 H   0  0  0  0  0  0
  -26.1078  -31.5267   20.6082 H   0  0  0  0  0  0
  -26.8505  -30.8135   22.0085 H   0  0  0  0  0  0
  -28.1092  -28.9185   21.2089 H   0  0  0  0  0  0
  -25.9319  -25.8804   19.0337 H   0  0  0  0  0  0
  -23.9661  -27.2981   19.0090 H   0  0  0  0  0  0
  -23.7771  -30.5919   19.4031 H   0  0  0  0  0  0
  -22.7608  -29.2530   19.8431 H   0  0  0  0  0  0
  -25.1300  -36.1933   25.0820 H   0  0  0  0  0  0
  -20.9988  -28.3289   24.1381 H   0  0  0  0  0  0
  -20.5679  -26.2285   23.3618 H   0  0  0  0  0  0
  -21.6665  -26.7416   22.1209 H   0  0  0  0  0  0
  -19.6927  -25.6263   21.1267 H   0  0  0  0  0  0
  -19.6740  -27.3146   20.6726 H   0  0  0  0  0  0
  -17.4216  -26.6641   21.4033 H   0  0  0  0  0  0
  -18.0371  -26.0074   22.9026 H   0  0  0  0  0  0
  -19.7940  -30.7283   24.2241 H   0  0  0  0  0  0
  -17.5020  -31.6273   24.5156 H   0  0  0  0  0  0
  -15.5358  -30.2994   23.7675 H   0  0  0  0  0  0
  -15.8666  -28.0854   22.7035 H   0  0  0  0  0  0
  -24.5933  -30.7017   25.7759 H   0  0  0  0  0  0
  -24.8889  -32.2845   26.4866 H   0  0  0  0  0  0
  -25.8072  -30.8881   27.0206 H   0  0  0  0  0  0
  -26.2919  -29.6745   24.1215 H   0  0  0  0  0  0
  -27.4022  -29.7270   25.4716 H   0  0  0  0  0  0
  -27.8806  -30.4277   23.9434 H   0  0  0  0  0  0
  -27.2695  -33.3617   26.2049 H   0  0  0  0  0  0
  -28.3893  -32.6824   25.0313 H   0  0  0  0  0  0
  -28.0713  -31.8417   26.5405 H   0  0  0  0  0  0
  -28.2585  -38.0105   24.7523 H   0  0  0  0  0  0
  -28.1077  -36.2635   24.6280 H   0  0  0  0  0  0
  -27.2285  -37.1446   25.8857 H   0  0  0  0  0  0
  -20.9357  -29.8802   21.6904 H   0  0  0  0  0  0
  -26.0172  -38.2840   24.1438 H   0  0  0  0  0  0
  -28.0368  -17.9812   21.7004 H   0  0  0  0  0  0
  -26.4333  -19.9897   22.3740 H   0  0  0  0  0  0
  -26.0517  -20.8166   20.8626 H   0  0  0  0  0  0
  -27.0262  -21.6245   22.1042 H   0  0  0  0  0  0
  -31.0755  -19.5575   18.0497 H   0  0  0  0  0  0
  -32.0603  -19.4397   19.5063 H   0  0  0  0  0  0
  -31.5336  -21.0044   18.9465 H   0  0  0  0  0  0
  -27.3444  -23.4490   20.6404 H   0  0  0  0  0  0
  -28.9450  -23.7115   21.2527 H   0  0  0  0  0  0
  -27.8007  -25.0088   18.6759 H   0  0  0  0  0  0
  -29.4391  -25.0862   19.1191 H   0  0  0  0  0  0
  -31.3222  -17.4152   21.0691 H   0  0  0  0  0  0
  -30.9479  -17.2557   19.3826 H   0  0  0  0  0  0
  -29.9504  -22.5512   19.2856 H   0  0  0  0  0  0
  -28.9285  -15.8218   20.8111 H   0  0  0  0  0  0
  -27.2444  -21.9410   18.4212 H   0  0  0  0  0  0
  -28.6107  -21.3549   17.7759 H   0  0  0  0  0  0
  -28.3083  -22.9454   17.6787 H   0  0  0  0  0  0
  1 25  1  0  0  0
  1 30  2  0  0  0
  1 82  1  0  0  0
  2  3  1  0  0  0
  2 25  1  0  0  0
  2 84  1  0  0  0
  2 85  1  0  0  0
  3  4  1  0  0  0
  3 86  1  0  0  0
  3 87  1  0  0  0
  4  5  1  0  0  0
  4 88  1  0  0  0
  4 89  1  0  0  0
  5  6  1  0  0  0
  5 26  1  0  0  0
  5 90  1  0  0  0
  6 25  1  0  0  0
  6 91  1  0  0  0
  6 92  1  0  0  0
  7  8  2  0  0  0
  7 26  1  0  0  0
  7 29  1  0  0  0
  8  9  1  0  0  0
  8 22  1  0  0  0
  9 10  1  0  0  0
  9 27  2  0  0  0
 10 11  2  0  0  0
 10 15  1  0  0  0
 11 12  1  0  0  0
 11 93  1  0  0  0
 12 13  2  0  0  0
 12 94  1  0  0  0
 13 14  1  0  0  0
 13 31  1  0  0  0
 14 15  2  0  0  0
 14 95  1  0  0  0
 15 96  1  0  0  0
 16 17  2  0  0  0
 16 21  1  0  0  0
 16 31  1  0  0  0
 17 18  1  0  0  0
 17 97  1  0  0  0
 18 19  2  0  0  0
 18 98  1  0  0  0
 19 20  1  0  0  0
 19 24  1  0  0  0
 20 21  2  0  0  0
 20 99  1  0  0  0
 21 23  1  0  0  0
 22 28  1  0  0  0
 22 32  2  0  0  0
 26 27  1  0  0  0
 28100  1  0  0  0
 28101  1  0  0  0
 29102  1  0  0  0
 29103  1  0  0  0
 33 34  1  0  0  0
 33 66  1  0  0  0
 33 70  2  0  0  0
 34 36  1  0  0  0
 34 59  1  0  0  0
 34104  1  0  0  0
 35 44  2  0  0  0
 35 45  1  0  0  0
 35 68  1  0  0  0
 36 56  1  0  0  0
 36105  1  0  0  0
 37 39  1  0  0  0
 37 47  1  0  0  0
 37 66  1  0  0  0
 37106  1  0  0  0
 38 43  2  0  0  0
 38 46  1  0  0  0
 38 47  1  0  0  0
 39 64  1  0  0  0
 39 67  2  0  0  0
 40 52  1  0  0  0
 40 53  2  0  0  0
 40 58  1  0  0  0
 41107  1  0  0  0
 41108  1  0  0  0
 41109  1  0  0  0
 41 48  1  0  0  0
 42 43  1  0  0  0
 42 66  1  0  0  0
 42110  1  0  0  0
 42111  1  0  0  0
 43 44  1  0  0  0
 44112  1  0  0  0
 45 46  2  0  0  0
 45113  1  0  0  0
 46114  1  0  0  0
 47115  1  0  0  0
 47116  1  0  0  0
 48 56  1  0  0  0
 48 65  1  0  0  0
 48117  1  0  0  0
 49 50  1  0  0  0
 49 53  1  0  0  0
 49 64  1  0  0  0
 49118  1  0  0  0
 50 51  1  0  0  0
 50119  1  0  0  0
 50120  1  0  0  0
 51 52  1  0  0  0
 51121  1  0  0  0
 51122  1  0  0  0
 52123  1  0  0  0
 52124  1  0  0  0
 53 54  1  0  0  0
 54 55  2  0  0  0
 54125  1  0  0  0
 55 57  1  0  0  0
 55126  1  0  0  0
 56 69  2  0  0  0
 57 58  2  0  0  0
 57127  1  0  0  0
 58128  1  0  0  0
 59 60  1  0  0  0
 59 61  1  0  0  0
 59 62  1  0  0  0
 60129  1  0  0  0
 60130  1  0  0  0
 60131  1  0  0  0
 61132  1  0  0  0
 61133  1  0  0  0
 61134  1  0  0  0
 62135  1  0  0  0
 62136  1  0  0  0
 62137  1  0  0  0
 63 65  1  0  0  0
 63138  1  0  0  0
 63139  1  0  0  0
 63140  1  0  0  0
 64141  1  0  0  0
 65142  1  0  0  0
 68 78  1  0  0  0
 71 72  2  0  0  0
 71 81  1  0  0  0
 71143  1  0  0  0
 72 73  1  0  0  0
 72 75  1  0  0  0
 73 74  2  0  0  0
 73 80  1  0  0  0
 74 76  1  0  0  0
 74 81  1  0  0  0
 75144  1  0  0  0
 75145  1  0  0  0
 75146  1  0  0  0
 76147  1  0  0  0
 76148  1  0  0  0
 76149  1  0  0  0
 77 78  1  0  0  0
 77 80  1  0  0  0
 77150  1  0  0  0
 77151  1  0  0  0
 78152  1  0  0  0
 78153  1  0  0  0
 79 81  1  0  0  0
 79 82  1  0  0  0
 79154  1  0  0  0
 79155  1  0  0  0
 80 83  1  0  0  0
 80156  1  0  0  0
 82157  1  0  0  0
 83158  1  0  0  0
 83159  1  0  0  0
 83160  1  0  0  0
M  CHG  1  83   1
M  ISO  4   1 100  68 101  78 101  82 100
M  END
> <chiral flag>
0

> <version>
0

> <s_m_source_file>
/data/baiqing/PycharmProjects/Reinvent-master-3.2/result/LINK_invent/BTK/process_docking_weight1_custom_sum_contain_oxygen_bond_distance_aromatic_linkinvent_7_9_3/rearranged_h_0122.sdf

> <i_m_source_file_index>
97

> <r_mmod_Potential_Energy-OPLS-2005>
-185.827926635742

> <r_mmod_Stretch_Energy-OPLS-2005>
121.789176940918

> <r_mmod_Bend_Energy-OPLS-2005>
199.725692749023

> <r_mmod_Torsional_Energy-OPLS-2005>
206.4658203125

> <r_mmod_Improper_Torsional_Energy-OPLS-2005>
6.3093147277832

> <r_mmod_Van_der_Waal_Energy-OPLS-2005>
112.774322509766

> <r_mmod_Electrostatic_Energy-OPLS-2005>
-421.149444580078

> <r_mmod_Solvation_Energy-OPLS-2005>
-491.213806152344

> <b_mmod_Minimization_Converged-OPLS-2005>
0

> <r_mmod_RMS_Derivative-OPLS-2005>
1.94888293743134

$$$$
97
                    3D
 Structure written by MMmdl.
169179  0  0  1  0            999 V2000
  -30.6098  -14.7139   20.4796 C   0  0  0  0  0  0
  -30.4294  -12.4387   19.4708 C   0  0  0  0  0  0
  -29.5152  -12.5153   18.2293 C   0  0  0  0  0  0
  -28.0363  -12.3426   18.6332 C   0  0  0  0  0  0
  -27.6390  -13.2274   19.8452 C   0  0  2  0  0  0
  -28.6770  -13.1480   20.9810 C   0  0  0  0  0  0
  -25.2520  -13.8190   20.5722 C   0  0  0  0  0  0
  -24.1782  -13.0449   20.9193 C   0  0  0  0  0  0
  -24.6349  -11.6910   20.8685 C   0  0  0  0  0  0
  -23.9011  -10.4306   21.0378 C   0  0  0  0  0  0
  -24.3565   -9.4239   21.9166 C   0  0  0  0  0  0
  -23.6272   -8.2255   22.0739 C   0  0  0  0  0  0
  -22.4253   -8.0270   21.3543 C   0  0  0  0  0  0
  -21.9871   -9.0223   20.4638 C   0  0  0  0  0  0
  -22.7172  -10.2123   20.3028 C   0  0  0  0  0  0
  -21.6860   -6.0712   22.5276 C   0  0  0  0  0  0
  -21.4013   -6.5608   23.8207 C   0  0  0  0  0  0
  -21.3668   -5.6758   24.9177 C   0  0  0  0  0  0
  -21.6052   -4.3030   24.7229 C   0  0  0  0  0  0
  -21.8820   -3.8117   23.4351 C   0  0  0  0  0  0
  -21.9203   -4.6934   22.3403 C   0  0  0  0  0  0
  -22.7819  -13.5256   21.1877 C   0  0  0  0  0  0
  -22.1674   -4.2119   21.0985 F   0  0  0  0  0  0
  -21.5642   -3.4506   25.7748 F   0  0  0  0  0  0
  -29.9807  -13.4940   20.4048 N   0  0  0  0  0  0
  -26.2912  -12.9374   20.3217 N   0  0  0  0  0  0
  -25.9274  -11.6525   20.5652 N   0  0  0  0  0  0
  -22.0437  -12.8236   22.0420 N   0  0  0  0  0  0
  -25.4296  -15.1922   20.4261 N   0  0  0  0  0  0
  -31.8190  -14.7968   20.2368 O   0  0  0  0  0  0
  -21.6638   -6.8846   21.4241 O   0  0  0  0  0  0
  -22.3510  -14.5565   20.6735 O   0  0  0  0  0  0
  -24.6331  -31.8554   23.1998 C   0  0  0  0  0  0
  -25.9171  -32.4742   23.8331 C   0  0  1  0  0  0
  -27.2069  -27.2647   20.1368 C   0  0  0  0  0  0
  -25.5985  -33.8539   24.2264 N   0  0  0  0  0  0
  -23.4289  -30.4819   21.5407 C   0  0  2  0  0  0
  -24.8729  -28.9307   20.1085 C   0  0  0  0  0  0
  -22.7506  -29.4629   22.4885 C   0  0  0  0  0  0
  -18.0298  -28.1377   22.8491 C   0  0  0  0  0  0
  -24.1497  -36.7260   23.2642 C   0  0  0  0  0  0
  -25.9747  -30.7713   21.3795 C   0  0  0  0  0  0
  -26.0450  -29.3951   20.7210 C   0  0  0  0  0  0
  -27.2179  -28.5734   20.7267 C   0  0  0  0  0  0
  -26.0227  -26.8782   19.4734 C   0  0  0  0  0  0
  -24.8669  -27.6804   19.4729 C   0  0  0  0  0  0
  -23.6456  -29.8190   20.1551 C   0  0  0  0  0  0
  -25.4117  -36.3051   24.0334 C   0  0  1  0  0  0
  -20.5909  -28.3702   23.1257 C   0  0  2  0  0  0
  -20.6782  -26.9419   22.5395 C   0  0  0  0  0  0
  -19.5753  -26.6384   21.5201 C   0  0  0  0  0  0
  -18.1933  -26.7925   22.1617 C   0  0  0  0  0  0
  -19.1558  -28.8859   23.2867 C   0  0  0  0  0  0
  -18.9469  -30.1458   23.8876 C   0  0  0  0  0  0
  -17.6467  -30.6581   24.0559 C   0  0  0  0  0  0
  -25.9070  -34.9425   23.5091 C   0  0  0  0  0  0
  -16.5352  -29.9069   23.6332 C   0  0  0  0  0  0
  -16.7284  -28.6484   23.0357 C   0  0  0  0  0  0
  -26.4530  -31.6563   25.0727 C   0  0  0  0  0  0
  -25.3752  -31.3704   26.1448 C   0  0  0  0  0  0
  -27.0380  -30.2984   24.6233 C   0  0  0  0  0  0
  -27.6079  -32.4301   25.7501 C   0  0  0  0  0  0
  -27.5577  -37.1783   24.8457 C   0  0  0  0  0  0
  -21.4214  -29.3054   22.3634 N   0  0  0  0  0  0
  -26.4278  -37.3764   23.9423 N   0  0  0  0  0  0
  -24.6976  -31.0552   22.0959 N   0  0  0  0  0  0
  -23.4214  -28.8166   23.2979 O   0  0  0  0  0  0
  -28.2741  -26.3427   20.1759 O   0  0  0  0  0  0
  -26.5599  -34.8912   22.4637 O   0  0  0  0  0  0
  -23.5487  -32.1357   23.7306 O   0  0  0  0  0  0
  -29.5474  -23.7000   19.0613 C   0  0  0  0  0  0
  -28.6562  -22.3734   20.8621 C   0  0  0  0  0  0
  -28.7388  -23.6670   20.2113 C   0  0  0  0  0  0
  -30.2185  -22.5330   18.6377 C   0  0  0  0  0  0
  -29.3686  -21.2097   20.3770 C   0  0  0  0  0  0
  -30.1211  -16.2996   24.8767 C   0  0  0  0  0  0
  -28.7637  -15.6425   24.9475 C   0  0  0  0  0  0
  -29.8156  -18.0160   19.2015 C   0  0  0  0  0  0
  -29.6622  -16.4795   19.0854 C   0  0  0  0  0  0
  -29.4531  -15.8046   23.6127 C   0  0  0  0  0  0
  -29.2650  -18.3546   20.5744 C   0  0  1  0  0  0
  -29.7677  -17.0483   21.3573 C   0  0  1  0  0  0
  -31.1174  -22.5663   17.4187 C   0  0  0  0  0  0
  -27.9546  -24.9642   20.6904 C   0  0  0  0  0  0
  -29.5416  -19.8389   21.1736 C   0  0  0  0  0  0
  -28.8701  -16.7622   22.5851 C   0  0  0  0  0  0
  -30.1446  -21.3389   19.2786 N   0  0  0  0  0  0
  -29.8107  -15.8567   20.4176 N   0  0  0  0  0  0
  -31.4754  -12.5564   19.1809 H   0  0  0  0  0  0
  -30.3579  -11.4564   19.9399 H   0  0  0  0  0  0
  -29.7989  -11.7546   17.5013 H   0  0  0  0  0  0
  -29.6513  -13.4790   17.7325 H   0  0  0  0  0  0
  -27.8829  -11.2909   18.8793 H   0  0  0  0  0  0
  -27.3867  -12.5567   17.7843 H   0  0  0  0  0  0
  -27.6339  -14.2522   19.4764 H   0  0  0  0  0  0
  -28.7041  -12.1525   21.4251 H   0  0  0  0  0  0
  -28.4020  -13.8352   21.7811 H   0  0  0  0  0  0
  -25.2718   -9.5748   22.4728 H   0  0  0  0  0  0
  -24.0011   -7.4642   22.7423 H   0  0  0  0  0  0
  -21.0822   -8.8705   19.8934 H   0  0  0  0  0  0
  -22.3614  -10.9630   19.6115 H   0  0  0  0  0  0
  -21.1979   -7.6112   23.9692 H   0  0  0  0  0  0
  -21.1504   -6.0502   25.9081 H   0  0  0  0  0  0
  -22.0593   -2.7577   23.2849 H   0  0  0  0  0  0
  -22.4055  -11.9911   22.4828 H   0  0  0  0  0  0
  -21.1030  -13.1248   22.2556 H   0  0  0  0  0  0
  -24.6761  -15.8556   20.5617 H   0  0  0  0  0  0
  -26.3003  -15.6287   20.1524 H   0  0  0  0  0  0
  -26.7243  -32.5387   23.1064 H   0  0  0  0  0  0
  -25.0213  -33.9671   25.0468 H   0  0  0  0  0  0
  -22.7280  -31.3063   21.3963 H   0  0  0  0  0  0
  -23.3774  -35.9576   23.3262 H   0  0  0  0  0  0
  -24.3614  -36.8915   22.2069 H   0  0  0  0  0  0
  -23.7229  -37.6446   23.6676 H   0  0  0  0  0  0
  -26.1229  -31.5364   20.6157 H   0  0  0  0  0  0
  -26.8470  -30.8107   22.0197 H   0  0  0  0  0  0
  -28.1120  -28.9165   21.2277 H   0  0  0  0  0  0
  -25.9720  -25.9275   18.9605 H   0  0  0  0  0  0
  -23.9723  -27.3260   18.9795 H   0  0  0  0  0  0
  -23.7718  -30.5938   19.3972 H   0  0  0  0  0  0
  -22.7623  -29.2539   19.8525 H   0  0  0  0  0  0
  -25.1301  -36.1875   25.0825 H   0  0  0  0  0  0
  -21.0019  -28.3270   24.1372 H   0  0  0  0  0  0
  -20.5684  -26.2312   23.3600 H   0  0  0  0  0  0
  -21.6649  -26.7434   22.1198 H   0  0  0  0  0  0
  -19.6919  -25.6289   21.1251 H   0  0  0  0  0  0
  -19.6701  -27.3175   20.6718 H   0  0  0  0  0  0
  -17.4219  -26.6702   21.3995 H   0  0  0  0  0  0
  -18.0320  -26.0056   22.9006 H   0  0  0  0  0  0
  -19.7942  -30.7282   24.2237 H   0  0  0  0  0  0
  -17.5017  -31.6255   24.5157 H   0  0  0  0  0  0
  -15.5352  -30.2952   23.7674 H   0  0  0  0  0  0
  -15.8694  -28.0796   22.7073 H   0  0  0  0  0  0
  -24.5953  -30.7026   25.7772 H   0  0  0  0  0  0
  -24.8916  -32.2861   26.4856 H   0  0  0  0  0  0
  -25.8091  -30.8903   27.0234 H   0  0  0  0  0  0
  -26.2968  -29.6709   24.1282 H   0  0  0  0  0  0
  -27.4072  -29.7278   25.4767 H   0  0  0  0  0  0
  -27.8843  -30.4231   23.9472 H   0  0  0  0  0  0
  -27.2699  -33.3622   26.2030 H   0  0  0  0  0  0
  -28.3918  -32.6816   25.0345 H   0  0  0  0  0  0
  -28.0722  -31.8459   26.5459 H   0  0  0  0  0  0
  -28.2553  -38.0123   24.7558 H   0  0  0  0  0  0
  -28.1112  -36.2652   24.6197 H   0  0  0  0  0  0
  -27.2310  -37.1327   25.8866 H   0  0  0  0  0  0
  -20.9396  -29.8774   21.6842 H   0  0  0  0  0  0
  -26.0141  -38.2834   24.1435 H   0  0  0  0  0  0
  -29.6540  -24.6238   18.5086 H   0  0  0  0  0  0
  -28.0648  -22.2857   21.7639 H   0  0  0  0  0  0
  -30.9673  -15.7327   25.2608 H   0  0  0  0  0  0
  -30.1678  -17.3724   25.0509 H   0  0  0  0  0  0
  -27.9050  -16.2789   25.1553 H   0  0  0  0  0  0
  -28.7082  -14.6372   25.3631 H   0  0  0  0  0  0
  -29.2943  -18.5457   18.4028 H   0  0  0  0  0  0
  -30.8699  -18.2923   19.1483 H   0  0  0  0  0  0
  -30.3605  -16.0813   18.3471 H   0  0  0  0  0  0
  -28.6639  -16.2368   18.7216 H   0  0  0  0  0  0
  -29.8540  -14.8824   23.2002 H   0  0  0  0  0  0
  -28.1801  -18.2793   20.4846 H   0  0  0  0  0  0
  -30.7887  -17.2340   21.6983 H   0  0  0  0  0  0
  -30.8271  -23.3650   16.7351 H   0  0  0  0  0  0
  -31.0692  -21.6255   16.8718 H   0  0  0  0  0  0
  -32.1517  -22.7344   17.7194 H   0  0  0  0  0  0
  -28.0744  -25.0104   21.7725 H   0  0  0  0  0  0
  -26.9018  -24.7219   20.5505 H   0  0  0  0  0  0
  -28.9401  -19.9364   22.0770 H   0  0  0  0  0  0
  -30.5709  -19.8454   21.5332 H   0  0  0  0  0  0
  -28.6469  -17.6981   23.0986 H   0  0  0  0  0  0
  -27.9097  -16.3663   22.2500 H   0  0  0  0  0  0
  1 25  1  0  0  0
  1 30  2  0  0  0
  1 88  1  0  0  0
  2  3  1  0  0  0
  2 25  1  0  0  0
  2 89  1  0  0  0
  2 90  1  0  0  0
  3  4  1  0  0  0
  3 91  1  0  0  0
  3 92  1  0  0  0
  4  5  1  0  0  0
  4 93  1  0  0  0
  4 94  1  0  0  0
  5  6  1  0  0  0
  5 26  1  0  0  0
  5 95  1  0  0  0
  6 25  1  0  0  0
  6 96  1  0  0  0
  6 97  1  0  0  0
  7  8  2  0  0  0
  7 26  1  0  0  0
  7 29  1  0  0  0
  8  9  1  0  0  0
  8 22  1  0  0  0
  9 10  1  0  0  0
  9 27  2  0  0  0
 10 11  2  0  0  0
 10 15  1  0  0  0
 11 12  1  0  0  0
 11 98  1  0  0  0
 12 13  2  0  0  0
 12 99  1  0  0  0
 13 14  1  0  0  0
 13 31  1  0  0  0
 14 15  2  0  0  0
 14100  1  0  0  0
 15101  1  0  0  0
 16 17  2  0  0  0
 16 21  1  0  0  0
 16 31  1  0  0  0
 17 18  1  0  0  0
 17102  1  0  0  0
 18 19  2  0  0  0
 18103  1  0  0  0
 19 20  1  0  0  0
 19 24  1  0  0  0
 20 21  2  0  0  0
 20104  1  0  0  0
 21 23  1  0  0  0
 22 28  1  0  0  0
 22 32  2  0  0  0
 26 27  1  0  0  0
 28105  1  0  0  0
 28106  1  0  0  0
 29107  1  0  0  0
 29108  1  0  0  0
 33 34  1  0  0  0
 33 66  1  0  0  0
 33 70  2  0  0  0
 34 36  1  0  0  0
 34 59  1  0  0  0
 34109  1  0  0  0
 35 44  2  0  0  0
 35 45  1  0  0  0
 35 68  1  0  0  0
 36 56  1  0  0  0
 36110  1  0  0  0
 37 39  1  0  0  0
 37 47  1  0  0  0
 37 66  1  0  0  0
 37111  1  0  0  0
 38 43  2  0  0  0
 38 46  1  0  0  0
 38 47  1  0  0  0
 39 64  1  0  0  0
 39 67  2  0  0  0
 40 52  1  0  0  0
 40 53  2  0  0  0
 40 58  1  0  0  0
 41112  1  0  0  0
 41113  1  0  0  0
 41114  1  0  0  0
 41 48  1  0  0  0
 42 43  1  0  0  0
 42 66  1  0  0  0
 42115  1  0  0  0
 42116  1  0  0  0
 43 44  1  0  0  0
 44117  1  0  0  0
 45 46  2  0  0  0
 45118  1  0  0  0
 46119  1  0  0  0
 47120  1  0  0  0
 47121  1  0  0  0
 48 56  1  0  0  0
 48 65  1  0  0  0
 48122  1  0  0  0
 49 50  1  0  0  0
 49 53  1  0  0  0
 49 64  1  0  0  0
 49123  1  0  0  0
 50 51  1  0  0  0
 50124  1  0  0  0
 50125  1  0  0  0
 51 52  1  0  0  0
 51126  1  0  0  0
 51127  1  0  0  0
 52128  1  0  0  0
 52129  1  0  0  0
 53 54  1  0  0  0
 54 55  2  0  0  0
 54130  1  0  0  0
 55 57  1  0  0  0
 55131  1  0  0  0
 56 69  2  0  0  0
 57 58  2  0  0  0
 57132  1  0  0  0
 58133  1  0  0  0
 59 60  1  0  0  0
 59 61  1  0  0  0
 59 62  1  0  0  0
 60134  1  0  0  0
 60135  1  0  0  0
 60136  1  0  0  0
 61137  1  0  0  0
 61138  1  0  0  0
 61139  1  0  0  0
 62140  1  0  0  0
 62141  1  0  0  0
 62142  1  0  0  0
 63 65  1  0  0  0
 63143  1  0  0  0
 63144  1  0  0  0
 63145  1  0  0  0
 64146  1  0  0  0
 65147  1  0  0  0
 68 84  1  0  0  0
 71 73  2  0  0  0
 71 74  1  0  0  0
 71148  1  0  0  0
 72 73  1  0  0  0
 72 75  2  0  0  0
 72149  1  0  0  0
 73 84  1  0  0  0
 74 83  1  0  0  0
 74 87  2  0  0  0
 75 85  1  0  0  0
 75 87  1  0  0  0
 76 77  1  0  0  0
 76 80  1  0  0  0
 76150  1  0  0  0
 76151  1  0  0  0
 77 80  1  0  0  0
 77152  1  0  0  0
 77153  1  0  0  0
 78 79  1  0  0  0
 78 81  1  0  0  0
 78154  1  0  0  0
 78155  1  0  0  0
 79 88  1  0  0  0
 79156  1  0  0  0
 79157  1  0  0  0
 80 86  1  0  0  0
 80158  1  0  0  0
 81 82  1  0  0  0
 81 85  1  0  0  0
 81159  1  0  0  0
 82 86  1  0  0  0
 82 88  1  0  0  0
 82160  1  0  0  0
 83161  1  0  0  0
 83162  1  0  0  0
 83163  1  0  0  0
 84164  1  0  0  0
 84165  1  0  0  0
 85166  1  0  0  0
 85167  1  0  0  0
 86168  1  0  0  0
 86169  1  0  0  0
M  ISO  4   1 100  68 101  84 101  88 100
M  END
> <chiral flag>
0

> <version>
0

> <s_m_source_file>
/data/baiqing/PycharmProjects/Reinvent-master-3.2/result/LINK_invent/BTK/process_docking_weight1_custom_sum_contain_oxygen_bond_distance_aromatic_linkinvent_7_9_3/rearranged_h_0122.sdf

> <i_m_source_file_index>
98

> <r_mmod_Potential_Energy-OPLS-2005>
323.526092529297

> <r_mmod_Stretch_Energy-OPLS-2005>
114.981544494629

> <r_mmod_Bend_Energy-OPLS-2005>
189.679183959961

> <r_mmod_Torsional_Energy-OPLS-2005>
410.179962158203

> <r_mmod_Improper_Torsional_Energy-OPLS-2005>
16.518238067627

> <r_mmod_Van_der_Waal_Energy-OPLS-2005>
119.266571044922

> <r_mmod_Electrostatic_Energy-OPLS-2005>
-411.927093505859

> <r_mmod_Solvation_Energy-OPLS-2005>
-198.073974609375

> <b_mmod_Minimization_Converged-OPLS-2005>
0

> <r_mmod_RMS_Derivative-OPLS-2005>
2.71851754188538

$$$$
