0
                    3D
 Structure written by MMmdl.
148156  0  0  1  0            999 V2000
  -30.3072  -15.7296   20.2608 C   0  0  0  0  0  0
  -30.4646  -13.1364   19.5262 C   0  0  0  0  0  0
  -29.5820  -12.6918   18.3185 C   0  0  0  0  0  0
  -28.1600  -12.3120   18.7669 C   0  0  0  0  0  0
  -27.6204  -13.3202   19.8044 C   0  0  2  0  0  0
  -28.6488  -13.6720   20.9087 C   0  0  0  0  0  0
  -25.2417  -13.8225   20.5710 C   0  0  0  0  0  0
  -24.1786  -13.0389   20.9193 C   0  0  0  0  0  0
  -24.6544  -11.6930   20.8704 C   0  0  0  0  0  0
  -23.9209  -10.4289   21.0370 C   0  0  0  0  0  0
  -24.3707   -9.4209   21.9165 C   0  0  0  0  0  0
  -23.6324   -8.2278   22.0767 C   0  0  0  0  0  0
  -22.4313   -8.0331   21.3563 C   0  0  0  0  0  0
  -21.9984   -9.0312   20.4661 C   0  0  0  0  0  0
  -22.7358  -10.2150   20.3039 C   0  0  0  0  0  0
  -21.6882   -6.0756   22.5276 C   0  0  0  0  0  0
  -21.4022   -6.5647   23.8207 C   0  0  0  0  0  0
  -21.3648   -5.6791   24.9167 C   0  0  0  0  0  0
  -21.6044   -4.3064   24.7217 C   0  0  0  0  0  0
  -21.8825   -3.8156   23.4335 C   0  0  0  0  0  0
  -21.9208   -4.6974   22.3399 C   0  0  0  0  0  0
  -22.7806  -13.5141   21.1832 C   0  0  0  0  0  0
  -22.1680   -4.2171   21.0972 F   0  0  0  0  0  0
  -21.5623   -3.4540   25.7714 F   0  0  0  0  0  0
  -29.8289  -14.3250   20.2653 N   0  0  0  0  0  0
  -26.2974  -12.9644   20.3228 N   0  0  0  0  0  0
  -25.9527  -11.6699   20.5657 N   0  0  0  0  0  0
  -22.0469  -12.8126   22.0396 N   0  0  0  0  0  0
  -25.3854  -15.1916   20.4088 N   0  0  0  0  0  0
  -31.5478  -15.6599   20.1421 O   0  0  0  0  0  0
  -21.6673   -6.8926   21.4253 O   0  0  0  0  0  0
  -22.3472  -14.5443   20.6681 O   0  0  0  0  0  0
  -24.6943  -31.7930   23.1425 C   0  0  0  0  0  0
  -25.9485  -32.4442   23.8007 C   0  0  1  0  0  0
  -27.2875  -26.6664   20.1880 C   0  0  0  0  0  0
  -25.6038  -33.8269   24.1912 N   0  0  0  0  0  0
  -23.5265  -30.3853   21.4993 C   0  0  2  0  0  0
  -24.9962  -28.7106   20.1167 C   0  0  0  0  0  0
  -22.7825  -29.4294   22.4719 C   0  0  0  0  0  0
  -18.0352  -28.1456   22.8442 C   0  0  0  0  0  0
  -24.1467  -36.7139   23.2657 C   0  0  0  0  0  0
  -26.1099  -30.5146   21.4068 C   0  0  0  0  0  0
  -26.1862  -29.0707   20.7575 C   0  0  0  0  0  0
  -27.3135  -28.0816   20.7581 C   0  0  0  0  0  0
  -26.0543  -26.5285   19.4950 C   0  0  0  0  0  0
  -24.9718  -27.4665   19.4598 C   0  0  0  0  0  0
  -23.7832  -29.6613   20.1425 C   0  0  0  0  0  0
  -25.4116  -36.2881   24.0280 C   0  0  1  0  0  0
  -20.5984  -28.3811   23.1136 C   0  0  2  0  0  0
  -20.6818  -26.9470   22.5412 C   0  0  0  0  0  0
  -19.5808  -26.6381   21.5233 C   0  0  0  0  0  0
  -18.1974  -26.7981   22.1609 C   0  0  0  0  0  0
  -19.1614  -28.8965   23.2761 C   0  0  0  0  0  0
  -18.9540  -30.1546   23.8811 C   0  0  0  0  0  0
  -17.6529  -30.6636   24.0556 C   0  0  0  0  0  0
  -25.9124  -34.9286   23.4921 C   0  0  0  0  0  0
  -16.5416  -29.9117   23.6375 C   0  0  0  0  0  0
  -16.7330  -28.6548   23.0371 C   0  0  0  0  0  0
  -26.4604  -31.6517   25.0640 C   0  0  0  0  0  0
  -25.3659  -31.3845   26.1254 C   0  0  0  0  0  0
  -27.0531  -30.2855   24.6536 C   0  0  0  0  0  0
  -27.6054  -32.4370   25.7471 C   0  0  0  0  0  0
  -27.5519  -37.1730   24.8484 C   0  0  0  0  0  0
  -21.4473  -29.3037   22.3456 N   0  0  0  0  0  0
  -26.4223  -37.3658   23.9422 N   0  0  0  0  0  0
  -24.8013  -30.9305   22.0714 N   0  0  0  0  0  0
  -23.4222  -28.7901   23.3098 O   0  0  0  0  0  0
  -28.2615  -25.4302   20.2620 O   0  0  0  0  0  0
  -26.5751  -34.8893   22.4518 O   0  0  0  0  0  0
  -23.5945  -32.0998   23.6336 O   0  0  0  0  0  0
  -28.5465  -20.4759   20.2794 C   0  0  0  0  0  0
  -30.5402  -20.1824   19.9675 C   0  0  0  0  0  0
  -28.9157  -21.9558   20.1608 C   0  0  0  0  0  0
  -29.1754  -17.3148   18.5438 C   0  0  0  0  0  0
  -28.1244  -17.1952   20.8802 C   0  0  0  0  0  0
  -28.0707  -23.6731   19.9875 C   0  0  0  0  0  0
  -29.4136  -17.4216   20.0751 C   0  0  0  0  0  0
  -30.2845  -21.5685   19.9420 N   0  0  0  0  0  0
  -29.5409  -19.2526   20.1810 N   0  0  0  0  0  0
  -31.4487  -13.4108   19.1433 H   0  0  0  0  0  0
  -30.6472  -12.2939   20.1979 H   0  0  0  0  0  0
  -29.5278  -13.5172   17.6065 H   0  0  0  0  0  0
  -30.0509  -11.8583   17.7927 H   0  0  0  0  0  0
  -28.2083  -11.3172   19.2171 H   0  0  0  0  0  0
  -27.4928  -12.2333   17.9087 H   0  0  0  0  0  0
  -27.4731  -14.2391   19.2318 H   0  0  0  0  0  0
  -28.9273  -12.7924   21.4881 H   0  0  0  0  0  0
  -28.1992  -14.3468   21.6316 H   0  0  0  0  0  0
  -25.2871   -9.5670   22.4739 H   0  0  0  0  0  0
  -24.0026   -7.4680   22.7497 H   0  0  0  0  0  0
  -21.0925   -8.8864   19.8962 H   0  0  0  0  0  0
  -22.3854  -10.9694   19.6142 H   0  0  0  0  0  0
  -21.2011   -7.6159   23.9711 H   0  0  0  0  0  0
  -21.1452   -6.0526   25.9065 H   0  0  0  0  0  0
  -22.0604   -2.7628   23.2830 H   0  0  0  0  0  0
  -22.4072  -11.9809   22.4832 H   0  0  0  0  0  0
  -21.1085  -13.1175   22.2545 H   0  0  0  0  0  0
  -24.6118  -15.8395   20.5104 H   0  0  0  0  0  0
  -26.2435  -15.6473   20.1323 H   0  0  0  0  0  0
  -26.7569  -32.4901   23.0736 H   0  0  0  0  0  0
  -25.0197  -33.9304   25.0061 H   0  0  0  0  0  0
  -22.8567  -31.2239   21.2962 H   0  0  0  0  0  0
  -23.3741  -35.9474   23.3334 H   0  0  0  0  0  0
  -24.3536  -36.8767   22.2077 H   0  0  0  0  0  0
  -23.7230  -37.6318   23.6711 H   0  0  0  0  0  0
  -26.3060  -31.2320   20.6073 H   0  0  0  0  0  0
  -26.9666  -30.5993   22.0634 H   0  0  0  0  0  0
  -28.2093  -28.3859   21.2811 H   0  0  0  0  0  0
  -25.8902  -25.5853   18.9944 H   0  0  0  0  0  0
  -24.0773  -27.1825   18.9253 H   0  0  0  0  0  0
  -23.9515  -30.4131   19.3719 H   0  0  0  0  0  0
  -22.8907  -29.1162   19.8282 H   0  0  0  0  0  0
  -25.1335  -36.1628   25.0771 H   0  0  0  0  0  0
  -21.0059  -28.3436   24.1266 H   0  0  0  0  0  0
  -20.5713  -26.2438   23.3667 H   0  0  0  0  0  0
  -21.6668  -26.7424   22.1208 H   0  0  0  0  0  0
  -19.6970  -25.6278   21.1308 H   0  0  0  0  0  0
  -19.6749  -27.3153   20.6734 H   0  0  0  0  0  0
  -17.4239  -26.6738   21.4005 H   0  0  0  0  0  0
  -18.0353  -26.0142   22.9028 H   0  0  0  0  0  0
  -19.8025  -30.7380   24.2114 H   0  0  0  0  0  0
  -17.5102  -31.6311   24.5184 H   0  0  0  0  0  0
  -15.5424  -30.3006   23.7779 H   0  0  0  0  0  0
  -15.8719  -28.0865   22.7128 H   0  0  0  0  0  0
  -24.5895  -30.7138   25.7543 H   0  0  0  0  0  0
  -24.8793  -32.3076   26.4430 H   0  0  0  0  0  0
  -25.7832  -30.9173   27.0185 H   0  0  0  0  0  0
  -26.3257  -29.6493   24.1481 H   0  0  0  0  0  0
  -27.3932  -29.7275   25.5270 H   0  0  0  0  0  0
  -27.9233  -30.3995   24.0065 H   0  0  0  0  0  0
  -27.2604  -33.3759   26.1814 H   0  0  0  0  0  0
  -28.3974  -32.6795   25.0375 H   0  0  0  0  0  0
  -28.0594  -31.8652   26.5574 H   0  0  0  0  0  0
  -28.2561  -37.9995   24.7464 H   0  0  0  0  0  0
  -28.0971  -36.2526   24.6369 H   0  0  0  0  0  0
  -27.2248  -37.1445   25.8889 H   0  0  0  0  0  0
  -20.9837  -29.8642   21.6451 H   0  0  0  0  0  0
  -26.0051  -38.2698   24.1439 H   0  0  0  0  0  0
  -27.5196  -20.1649   20.4090 H   0  0  0  0  0  0
  -31.5441  -19.8336   19.7509 H   0  0  0  0  0  0
  -28.4528  -18.0402   18.1753 H   0  0  0  0  0  0
  -28.8407  -16.3299   18.2156 H   0  0  0  0  0  0
  -30.1033  -17.5106   17.9983 H   0  0  0  0  0  0
  -27.8017  -18.0896   21.4134 H   0  0  0  0  0  0
  -28.2585  -16.4602   21.6678 H   0  0  0  0  0  0
  -27.3036  -16.8910   20.2392 H   0  0  0  0  0  0
  -27.0689  -23.5176   20.3867 H   0  0  0  0  0  0
  -27.8954  -23.7025   18.9119 H   0  0  0  0  0  0
  1 25  1  0  0  0
  1 30  2  0  0  0
  1 77  1  0  0  0
  2  3  1  0  0  0
  2 25  1  0  0  0
  2 80  1  0  0  0
  2 81  1  0  0  0
  3  4  1  0  0  0
  3 82  1  0  0  0
  3 83  1  0  0  0
  4  5  1  0  0  0
  4 84  1  0  0  0
  4 85  1  0  0  0
  5  6  1  0  0  0
  5 26  1  0  0  0
  5 86  1  0  0  0
  6 25  1  0  0  0
  6 87  1  0  0  0
  6 88  1  0  0  0
  7  8  2  0  0  0
  7 26  1  0  0  0
  7 29  1  0  0  0
  8  9  1  0  0  0
  8 22  1  0  0  0
  9 10  1  0  0  0
  9 27  2  0  0  0
 10 11  2  0  0  0
 10 15  1  0  0  0
 11 12  1  0  0  0
 11 89  1  0  0  0
 12 13  2  0  0  0
 12 90  1  0  0  0
 13 14  1  0  0  0
 13 31  1  0  0  0
 14 15  2  0  0  0
 14 91  1  0  0  0
 15 92  1  0  0  0
 16 17  2  0  0  0
 16 21  1  0  0  0
 16 31  1  0  0  0
 17 18  1  0  0  0
 17 93  1  0  0  0
 18 19  2  0  0  0
 18 94  1  0  0  0
 19 20  1  0  0  0
 19 24  1  0  0  0
 20 21  2  0  0  0
 20 95  1  0  0  0
 21 23  1  0  0  0
 22 28  1  0  0  0
 22 32  2  0  0  0
 26 27  1  0  0  0
 28 96  1  0  0  0
 28 97  1  0  0  0
 29 98  1  0  0  0
 29 99  1  0  0  0
 33 34  1  0  0  0
 33 66  1  0  0  0
 33 70  2  0  0  0
 34 36  1  0  0  0
 34 59  1  0  0  0
 34100  1  0  0  0
 35 44  2  0  0  0
 35 45  1  0  0  0
 35 68  1  0  0  0
 36 56  1  0  0  0
 36101  1  0  0  0
 37 39  1  0  0  0
 37 47  1  0  0  0
 37 66  1  0  0  0
 37102  1  0  0  0
 38 43  2  0  0  0
 38 46  1  0  0  0
 38 47  1  0  0  0
 39 64  1  0  0  0
 39 67  2  0  0  0
 40 52  1  0  0  0
 40 53  2  0  0  0
 40 58  1  0  0  0
 41103  1  0  0  0
 41104  1  0  0  0
 41105  1  0  0  0
 41 48  1  0  0  0
 42 43  1  0  0  0
 42 66  1  0  0  0
 42106  1  0  0  0
 42107  1  0  0  0
 43 44  1  0  0  0
 44108  1  0  0  0
 45 46  2  0  0  0
 45109  1  0  0  0
 46110  1  0  0  0
 47111  1  0  0  0
 47112  1  0  0  0
 48 56  1  0  0  0
 48 65  1  0  0  0
 48113  1  0  0  0
 49 50  1  0  0  0
 49 53  1  0  0  0
 49 64  1  0  0  0
 49114  1  0  0  0
 50 51  1  0  0  0
 50115  1  0  0  0
 50116  1  0  0  0
 51 52  1  0  0  0
 51117  1  0  0  0
 51118  1  0  0  0
 52119  1  0  0  0
 52120  1  0  0  0
 53 54  1  0  0  0
 54 55  2  0  0  0
 54121  1  0  0  0
 55 57  1  0  0  0
 55122  1  0  0  0
 56 69  2  0  0  0
 57 58  2  0  0  0
 57123  1  0  0  0
 58124  1  0  0  0
 59 60  1  0  0  0
 59 61  1  0  0  0
 59 62  1  0  0  0
 60125  1  0  0  0
 60126  1  0  0  0
 60127  1  0  0  0
 61128  1  0  0  0
 61129  1  0  0  0
 61130  1  0  0  0
 62131  1  0  0  0
 62132  1  0  0  0
 62133  1  0  0  0
 63 65  1  0  0  0
 63134  1  0  0  0
 63135  1  0  0  0
 63136  1  0  0  0
 64137  1  0  0  0
 65138  1  0  0  0
 68 76  1  0  0  0
 71 73  2  0  0  0
 71 79  1  0  0  0
 71139  1  0  0  0
 72 78  2  0  0  0
 72 79  1  0  0  0
 72140  1  0  0  0
 73 76  1  0  0  0
 73 78  1  0  0  0
 74141  1  0  0  0
 74142  1  0  0  0
 74143  1  0  0  0
 74 77  1  0  0  0
 75 77  1  0  0  0
 75144  1  0  0  0
 75145  1  0  0  0
 75146  1  0  0  0
 76147  1  0  0  0
 76148  1  0  0  0
 77 79  1  0  0  0
M  ISO  4   1 100  68 101  76 101  77 100
M  END
> <chiral flag>
0

> <version>
0

> <s_m_source_file>
/data/baiqing/PycharmProjects/Reinvent-master-3.2/result/LINK_invent/BTK/process_docking_weight1_custom_sum_contain_oxygen_bond_distance_aromatic_linkinvent_7_9_3/rearranged_h_0055.sdf

> <i_m_source_file_index>
1

> <r_mmod_Potential_Energy-OPLS-2005>
2873.71118164062

> <r_mmod_Stretch_Energy-OPLS-2005>
1229.28918457031

> <r_mmod_Bend_Energy-OPLS-2005>
758.841918945312

> <r_mmod_Torsional_Energy-OPLS-2005>
252.245941162109

> <r_mmod_Improper_Torsional_Energy-OPLS-2005>
10.0575065612793

> <r_mmod_Van_der_Waal_Energy-OPLS-2005>
109.232414245605

> <r_mmod_Electrostatic_Energy-OPLS-2005>
-272.082489013672

> <r_mmod_Solvation_Energy-OPLS-2005>
-222.329559326172

> <b_mmod_Minimization_Converged-OPLS-2005>
0

> <r_mmod_RMS_Derivative-OPLS-2005>
6.40222358703613

$$$$
1
                    3D
 Structure written by MMmdl.
166174  0  0  1  0            999 V2000
  -30.5205  -15.0466   20.3988 C   0  0  0  0  0  0
  -30.4553  -12.6675   19.4835 C   0  0  0  0  0  0
  -29.5290  -12.5247   18.2516 C   0  0  0  0  0  0
  -28.0637  -12.3060   18.6772 C   0  0  0  0  0  0
  -27.6268  -13.2585   19.8191 C   0  0  2  0  0  0
  -28.6729  -13.3327   20.9507 C   0  0  0  0  0  0
  -25.2448  -13.8237   20.5716 C   0  0  0  0  0  0
  -24.1808  -13.0466   20.9257 C   0  0  0  0  0  0
  -24.6429  -11.6944   20.8764 C   0  0  0  0  0  0
  -23.9120  -10.4304   21.0381 C   0  0  0  0  0  0
  -24.3643   -9.4216   21.9175 C   0  0  0  0  0  0
  -23.6294   -8.2266   22.0749 C   0  0  0  0  0  0
  -22.4270   -8.0313   21.3534 C   0  0  0  0  0  0
  -21.9926   -9.0299   20.4645 C   0  0  0  0  0  0
  -22.7279  -10.2159   20.3045 C   0  0  0  0  0  0
  -21.6853   -6.0763   22.5276 C   0  0  0  0  0  0
  -21.4033   -6.5659   23.8220 C   0  0  0  0  0  0
  -21.3646   -5.6798   24.9162 C   0  0  0  0  0  0
  -21.6020   -4.3060   24.7197 C   0  0  0  0  0  0
  -21.8823   -3.8173   23.4317 C   0  0  0  0  0  0
  -21.9197   -4.6996   22.3387 C   0  0  0  0  0  0
  -22.7803  -13.5212   21.1884 C   0  0  0  0  0  0
  -22.1664   -4.2189   21.0958 F   0  0  0  0  0  0
  -21.5594   -3.4535   25.7706 F   0  0  0  0  0  0
  -29.9338  -13.7754   20.3415 N   0  0  0  0  0  0
  -26.2887  -12.9510   20.3164 N   0  0  0  0  0  0
  -25.9358  -11.6624   20.5711 N   0  0  0  0  0  0
  -22.0418  -12.8239   22.0428 N   0  0  0  0  0  0
  -25.4123  -15.1989   20.4141 N   0  0  0  0  0  0
  -31.7300  -15.0970   20.1607 O   0  0  0  0  0  0
  -21.6630   -6.8906   21.4236 O   0  0  0  0  0  0
  -22.3492  -14.5518   20.6701 O   0  0  0  0  0  0
  -24.6467  -31.8434   23.1791 C   0  0  0  0  0  0
  -25.9235  -32.4662   23.8214 C   0  0  1  0  0  0
  -27.2219  -27.0841   20.1827 C   0  0  0  0  0  0
  -25.5975  -33.8462   24.2143 N   0  0  0  0  0  0
  -23.4528  -30.4610   21.5224 C   0  0  2  0  0  0
  -24.9084  -28.8691   20.1147 C   0  0  0  0  0  0
  -22.7595  -29.4576   22.4801 C   0  0  0  0  0  0
  -18.0325  -28.1382   22.8499 C   0  0  0  0  0  0
  -24.1496  -36.7250   23.2639 C   0  0  0  0  0  0
  -26.0085  -30.7060   21.3835 C   0  0  0  0  0  0
  -26.0862  -29.3057   20.7354 C   0  0  0  0  0  0
  -27.2446  -28.4302   20.7508 C   0  0  0  0  0  0
  -26.0186  -26.7615   19.5248 C   0  0  0  0  0  0
  -24.8873  -27.6114   19.4948 C   0  0  0  0  0  0
  -23.6857  -29.7782   20.1486 C   0  0  0  0  0  0
  -25.4116  -36.2989   24.0303 C   0  0  1  0  0  0
  -20.5955  -28.3752   23.1199 C   0  0  2  0  0  0
  -20.6798  -26.9443   22.5400 C   0  0  0  0  0  0
  -19.5740  -26.6379   21.5233 C   0  0  0  0  0  0
  -18.1945  -26.7914   22.1663 C   0  0  0  0  0  0
  -19.1594  -28.8879   23.2840 C   0  0  0  0  0  0
  -18.9491  -30.1467   23.8866 C   0  0  0  0  0  0
  -17.6485  -30.6576   24.0559 C   0  0  0  0  0  0
  -25.9077  -34.9372   23.5025 C   0  0  0  0  0  0
  -16.5381  -29.9070   23.6321 C   0  0  0  0  0  0
  -16.7310  -28.6485   23.0362 C   0  0  0  0  0  0
  -26.4546  -31.6514   25.0664 C   0  0  0  0  0  0
  -25.3735  -31.3779   26.1372 C   0  0  0  0  0  0
  -27.0406  -30.2869   24.6314 C   0  0  0  0  0  0
  -27.6032  -32.4320   25.7487 C   0  0  0  0  0  0
  -27.5563  -37.1771   24.8452 C   0  0  0  0  0  0
  -21.4293  -29.3064   22.3559 N   0  0  0  0  0  0
  -26.4259  -37.3718   23.9404 N   0  0  0  0  0  0
  -24.7216  -31.0261   22.0842 N   0  0  0  0  0  0
  -23.4225  -28.8146   23.2990 O   0  0  0  0  0  0
  -28.2719  -26.0781   20.1456 O   0  0  0  0  0  0
  -26.5675  -34.8890   22.4613 O   0  0  0  0  0  0
  -23.5581  -32.1315   23.7001 O   0  0  0  0  0  0
  -27.3649  -22.5057   19.4906 C   0  0  0  0  0  0
  -28.3324  -23.0988   20.2607 C   0  0  0  0  0  0
  -28.6605  -20.6844   20.0611 C   0  0  0  0  0  0
  -28.0437  -18.3713   18.9945 C   0  0  0  0  0  0
  -27.8026  -18.7289   21.4544 C   0  0  0  0  0  0
  -31.5549  -21.2317   20.2824 C   0  0  0  0  0  0
  -30.4653  -21.1305   22.5691 C   0  0  0  0  0  0
  -31.0862  -23.3198   21.5021 C   0  0  0  0  0  0
  -28.1791  -24.6664   20.8430 C   0  0  0  0  0  0
  -30.0035  -17.8374   20.4046 C   0  0  0  0  0  0
  -28.7367  -18.9823   20.2488 C   0  0  0  0  0  0
  -30.5279  -21.9020   21.2291 C   0  0  0  0  0  0
  -29.1894  -21.9189   20.5431 N   0  0  0  0  0  0
  -27.5781  -21.1453   19.4060 N   0  3  0  0  0  0
  -29.7398  -16.2467   20.5083 N   0  0  0  0  0  0
  -31.4742  -12.8662   19.1466 H   0  0  0  0  0  0
  -30.5055  -11.7372   20.0531 H   0  0  0  0  0  0
  -29.8611  -11.6887   17.6336 H   0  0  0  0  0  0
  -29.6054  -13.4147   17.6220 H   0  0  0  0  0  0
  -27.9730  -11.2722   19.0151 H   0  0  0  0  0  0
  -27.3974  -12.4109   17.8175 H   0  0  0  0  0  0
  -27.5717  -14.2504   19.3672 H   0  0  0  0  0  0
  -28.7917  -12.3660   21.4377 H   0  0  0  0  0  0
  -28.3586  -14.0372   21.7226 H   0  0  0  0  0  0
  -25.2790   -9.5666   22.4753 H   0  0  0  0  0  0
  -24.0000   -7.4629   22.7457 H   0  0  0  0  0  0
  -21.0869   -8.8829   19.8941 H   0  0  0  0  0  0
  -22.3765  -10.9690   19.6155 H   0  0  0  0  0  0
  -21.2081   -7.6174   23.9734 H   0  0  0  0  0  0
  -21.1428   -6.0518   25.9060 H   0  0  0  0  0  0
  -22.0621   -2.7641   23.2795 H   0  0  0  0  0  0
  -22.4026  -11.9976   22.4956 H   0  0  0  0  0  0
  -21.0988  -13.1221   22.2456 H   0  0  0  0  0  0
  -24.6435  -15.8475   20.5302 H   0  0  0  0  0  0
  -26.2471  -15.6334   20.0473 H   0  0  0  0  0  0
  -26.7306  -32.5299   23.0942 H   0  0  0  0  0  0
  -25.0063  -33.9529   25.0256 H   0  0  0  0  0  0
  -22.7548  -31.2844   21.3585 H   0  0  0  0  0  0
  -23.3751  -35.9590   23.3232 H   0  0  0  0  0  0
  -24.3599  -36.8960   22.2071 H   0  0  0  0  0  0
  -23.7252  -37.6420   23.6738 H   0  0  0  0  0  0
  -26.1619  -31.4639   20.6136 H   0  0  0  0  0  0
  -26.8746  -30.7693   22.0315 H   0  0  0  0  0  0
  -28.1417  -28.7688   21.2492 H   0  0  0  0  0  0
  -25.9430  -25.8055   19.0322 H   0  0  0  0  0  0
  -23.9881  -27.2717   19.0001 H   0  0  0  0  0  0
  -23.8150  -30.5407   19.3803 H   0  0  0  0  0  0
  -22.8042  -29.2135   19.8438 H   0  0  0  0  0  0
  -25.1305  -36.1783   25.0794 H   0  0  0  0  0  0
  -21.0056  -28.3351   24.1316 H   0  0  0  0  0  0
  -20.5701  -26.2395   23.3656 H   0  0  0  0  0  0
  -21.6660  -26.7428   22.1195 H   0  0  0  0  0  0
  -19.6896  -25.6294   21.1255 H   0  0  0  0  0  0
  -19.6600  -27.3203   20.6770 H   0  0  0  0  0  0
  -17.4218  -26.6692   21.4064 H   0  0  0  0  0  0
  -18.0300  -26.0049   22.9049 H   0  0  0  0  0  0
  -19.7973  -30.7305   24.2205 H   0  0  0  0  0  0
  -17.5032  -31.6232   24.5197 H   0  0  0  0  0  0
  -15.5377  -30.2952   23.7606 H   0  0  0  0  0  0
  -15.8736  -28.0758   22.7077 H   0  0  0  0  0  0
  -24.5856  -30.7193   25.7705 H   0  0  0  0  0  0
  -24.9047  -32.3032   26.4731 H   0  0  0  0  0  0
  -25.8023  -30.8972   27.0177 H   0  0  0  0  0  0
  -26.3048  -29.6565   24.1329 H   0  0  0  0  0  0
  -27.3946  -29.7186   25.4923 H   0  0  0  0  0  0
  -27.8976  -30.3977   23.9671 H   0  0  0  0  0  0
  -27.2536  -33.3626   26.1949 H   0  0  0  0  0  0
  -28.3917  -32.6875   25.0407 H   0  0  0  0  0  0
  -28.0612  -31.8554   26.5518 H   0  0  0  0  0  0
  -28.2538  -38.0106   24.7522 H   0  0  0  0  0  0
  -28.1095  -36.2639   24.6232 H   0  0  0  0  0  0
  -27.2301  -37.1358   25.8857 H   0  0  0  0  0  0
  -20.9528  -29.8769   21.6723 H   0  0  0  0  0  0
  -26.0109  -38.2778   24.1426 H   0  0  0  0  0  0
  -26.4711  -22.9406   19.0662 H   0  0  0  0  0  0
  -27.0437  -18.7533   18.7957 H   0  0  0  0  0  0
  -27.8979  -17.2944   19.0743 H   0  0  0  0  0  0
  -28.6548  -18.5265   18.1035 H   0  0  0  0  0  0
  -26.7842  -19.0544   21.2455 H   0  0  0  0  0  0
  -28.1150  -19.2855   22.3356 H   0  0  0  0  0  0
  -27.7452  -17.6809   21.7427 H   0  0  0  0  0  0
  -31.4274  -20.1548   20.2211 H   0  0  0  0  0  0
  -32.5843  -21.3987   20.6019 H   0  0  0  0  0  0
  -31.4732  -21.6293   19.2685 H   0  0  0  0  0  0
  -31.4569  -21.0117   23.0070 H   0  0  0  0  0  0
  -30.0633  -20.1287   22.4599 H   0  0  0  0  0  0
  -29.8429  -21.6370   23.3086 H   0  0  0  0  0  0
  -32.1315  -23.2907   21.8190 H   0  0  0  0  0  0
  -30.5660  -23.8204   22.3153 H   0  0  0  0  0  0
  -31.0523  -23.9438   20.6073 H   0  0  0  0  0  0
  -28.8054  -24.7612   21.7211 H   0  0  0  0  0  0
  -27.1785  -24.6709   21.2753 H   0  0  0  0  0  0
  -30.6258  -18.1067   21.2596 H   0  0  0  0  0  0
  -30.6608  -17.9746   19.5445 H   0  0  0  0  0  0
  -26.9233  -20.5272   18.9438 H   0  0  0  0  0  0
  -28.7645  -16.0345   20.6500 H   0  0  0  0  0  0
  1 25  1  0  0  0
  1 30  2  0  0  0
  1 85  1  0  0  0
  2  3  1  0  0  0
  2 25  1  0  0  0
  2 86  1  0  0  0
  2 87  1  0  0  0
  3  4  1  0  0  0
  3 88  1  0  0  0
  3 89  1  0  0  0
  4  5  1  0  0  0
  4 90  1  0  0  0
  4 91  1  0  0  0
  5  6  1  0  0  0
  5 26  1  0  0  0
  5 92  1  0  0  0
  6 25  1  0  0  0
  6 93  1  0  0  0
  6 94  1  0  0  0
  7  8  2  0  0  0
  7 26  1  0  0  0
  7 29  1  0  0  0
  8  9  1  0  0  0
  8 22  1  0  0  0
  9 10  1  0  0  0
  9 27  2  0  0  0
 10 11  2  0  0  0
 10 15  1  0  0  0
 11 12  1  0  0  0
 11 95  1  0  0  0
 12 13  2  0  0  0
 12 96  1  0  0  0
 13 14  1  0  0  0
 13 31  1  0  0  0
 14 15  2  0  0  0
 14 97  1  0  0  0
 15 98  1  0  0  0
 16 17  2  0  0  0
 16 21  1  0  0  0
 16 31  1  0  0  0
 17 18  1  0  0  0
 17 99  1  0  0  0
 18 19  2  0  0  0
 18100  1  0  0  0
 19 20  1  0  0  0
 19 24  1  0  0  0
 20 21  2  0  0  0
 20101  1  0  0  0
 21 23  1  0  0  0
 22 28  1  0  0  0
 22 32  2  0  0  0
 26 27  1  0  0  0
 28102  1  0  0  0
 28103  1  0  0  0
 29104  1  0  0  0
 29105  1  0  0  0
 33 34  1  0  0  0
 33 66  1  0  0  0
 33 70  2  0  0  0
 34 36  1  0  0  0
 34 59  1  0  0  0
 34106  1  0  0  0
 35 44  2  0  0  0
 35 45  1  0  0  0
 35 68  1  0  0  0
 36 56  1  0  0  0
 36107  1  0  0  0
 37 39  1  0  0  0
 37 47  1  0  0  0
 37 66  1  0  0  0
 37108  1  0  0  0
 38 43  2  0  0  0
 38 46  1  0  0  0
 38 47  1  0  0  0
 39 64  1  0  0  0
 39 67  2  0  0  0
 40 52  1  0  0  0
 40 53  2  0  0  0
 40 58  1  0  0  0
 41109  1  0  0  0
 41110  1  0  0  0
 41111  1  0  0  0
 41 48  1  0  0  0
 42 43  1  0  0  0
 42 66  1  0  0  0
 42112  1  0  0  0
 42113  1  0  0  0
 43 44  1  0  0  0
 44114  1  0  0  0
 45 46  2  0  0  0
 45115  1  0  0  0
 46116  1  0  0  0
 47117  1  0  0  0
 47118  1  0  0  0
 48 56  1  0  0  0
 48 65  1  0  0  0
 48119  1  0  0  0
 49 50  1  0  0  0
 49 53  1  0  0  0
 49 64  1  0  0  0
 49120  1  0  0  0
 50 51  1  0  0  0
 50121  1  0  0  0
 50122  1  0  0  0
 51 52  1  0  0  0
 51123  1  0  0  0
 51124  1  0  0  0
 52125  1  0  0  0
 52126  1  0  0  0
 53 54  1  0  0  0
 54 55  2  0  0  0
 54127  1  0  0  0
 55 57  1  0  0  0
 55128  1  0  0  0
 56 69  2  0  0  0
 57 58  2  0  0  0
 57129  1  0  0  0
 58130  1  0  0  0
 59 60  1  0  0  0
 59 61  1  0  0  0
 59 62  1  0  0  0
 60131  1  0  0  0
 60132  1  0  0  0
 60133  1  0  0  0
 61134  1  0  0  0
 61135  1  0  0  0
 61136  1  0  0  0
 62137  1  0  0  0
 62138  1  0  0  0
 62139  1  0  0  0
 63 65  1  0  0  0
 63140  1  0  0  0
 63141  1  0  0  0
 63142  1  0  0  0
 64143  1  0  0  0
 65144  1  0  0  0
 68 79  1  0  0  0
 71 72  2  0  0  0
 71 84  1  0  0  0
 71145  1  0  0  0
 72 79  1  0  0  0
 72 83  1  0  0  0
 73 81  1  0  0  0
 73 83  1  0  0  0
 73 84  2  0  0  0
 74146  1  0  0  0
 74147  1  0  0  0
 74148  1  0  0  0
 74 81  1  0  0  0
 75 81  1  0  0  0
 75149  1  0  0  0
 75150  1  0  0  0
 75151  1  0  0  0
 76152  1  0  0  0
 76153  1  0  0  0
 76154  1  0  0  0
 76 82  1  0  0  0
 77 82  1  0  0  0
 77155  1  0  0  0
 77156  1  0  0  0
 77157  1  0  0  0
 78 82  1  0  0  0
 78158  1  0  0  0
 78159  1  0  0  0
 78160  1  0  0  0
 79161  1  0  0  0
 79162  1  0  0  0
 80 81  1  0  0  0
 80 85  1  0  0  0
 80163  1  0  0  0
 80164  1  0  0  0
 82 83  1  0  0  0
 84165  1  0  0  0
 85166  1  0  0  0
M  CHG  1  84   1
M  ISO  4   1 100  68 101  79 101  85 100
M  END
> <chiral flag>
0

> <version>
0

> <s_m_source_file>
/data/baiqing/PycharmProjects/Reinvent-master-3.2/result/LINK_invent/BTK/process_docking_weight1_custom_sum_contain_oxygen_bond_distance_aromatic_linkinvent_7_9_3/rearranged_h_0055.sdf

> <i_m_source_file_index>
2

> <r_mmod_Potential_Energy-OPLS-2005>
769.352233886719

> <r_mmod_Stretch_Energy-OPLS-2005>
364.2705078125

> <r_mmod_Bend_Energy-OPLS-2005>
385.503082275391

> <r_mmod_Torsional_Energy-OPLS-2005>
323.329620361328

> <r_mmod_Improper_Torsional_Energy-OPLS-2005>
7.54542016983032

> <r_mmod_Van_der_Waal_Energy-OPLS-2005>
116.4345703125

> <r_mmod_Electrostatic_Energy-OPLS-2005>
-260.280578613281

> <r_mmod_Solvation_Energy-OPLS-2005>
-420.393310546875

> <b_mmod_Minimization_Converged-OPLS-2005>
0

> <r_mmod_RMS_Derivative-OPLS-2005>
5.63808059692383

$$$$
2
                    3D
 Structure written by MMmdl.
156164  0  0  1  0            999 V2000
  -30.5161  -15.0765   20.3413 C   0  0  0  0  0  0
  -30.4443  -12.6688   19.4847 C   0  0  0  0  0  0
  -29.5213  -12.5015   18.2560 C   0  0  0  0  0  0
  -28.0604  -12.2715   18.6927 C   0  0  0  0  0  0
  -27.6139  -13.2312   19.8249 C   0  0  2  0  0  0
  -28.6693  -13.3657   20.9421 C   0  0  0  0  0  0
  -25.2460  -13.8142   20.5797 C   0  0  0  0  0  0
  -24.1752  -13.0396   20.9269 C   0  0  0  0  0  0
  -24.6353  -11.6878   20.8797 C   0  0  0  0  0  0
  -23.9040  -10.4265   21.0429 C   0  0  0  0  0  0
  -24.3604   -9.4184   21.9200 C   0  0  0  0  0  0
  -23.6285   -8.2219   22.0757 C   0  0  0  0  0  0
  -22.4270   -8.0264   21.3545 C   0  0  0  0  0  0
  -21.9899   -9.0237   20.4648 C   0  0  0  0  0  0
  -22.7221  -10.2118   20.3067 C   0  0  0  0  0  0
  -21.6849   -6.0730   22.5284 C   0  0  0  0  0  0
  -21.4008   -6.5634   23.8215 C   0  0  0  0  0  0
  -21.3659   -5.6790   24.9178 C   0  0  0  0  0  0
  -21.6048   -4.3053   24.7227 C   0  0  0  0  0  0
  -21.8820   -3.8146   23.4348 C   0  0  0  0  0  0
  -21.9189   -4.6961   22.3404 C   0  0  0  0  0  0
  -22.7778  -13.5198   21.1897 C   0  0  0  0  0  0
  -22.1658   -4.2149   21.0981 F   0  0  0  0  0  0
  -21.5632   -3.4534   25.7737 F   0  0  0  0  0  0
  -29.9176  -13.8046   20.2981 N   0  0  0  0  0  0
  -26.2840  -12.9316   20.3310 N   0  0  0  0  0  0
  -25.9278  -11.6473   20.5800 N   0  0  0  0  0  0
  -22.0413  -12.8205   22.0451 N   0  0  0  0  0  0
  -25.4167  -15.1876   20.4267 N   0  0  0  0  0  0
  -31.7523  -15.0834   20.2931 O   0  0  0  0  0  0
  -21.6633   -6.8866   21.4243 O   0  0  0  0  0  0
  -22.3486  -14.5506   20.6726 O   0  0  0  0  0  0
  -24.6510  -31.8384   23.1837 C   0  0  0  0  0  0
  -25.9249  -32.4667   23.8252 C   0  0  1  0  0  0
  -27.2200  -27.0691   20.1329 C   0  0  0  0  0  0
  -25.5965  -33.8475   24.2162 N   0  0  0  0  0  0
  -23.4567  -30.4587   21.5321 C   0  0  2  0  0  0
  -24.9040  -28.8811   20.1070 C   0  0  0  0  0  0
  -22.7607  -29.4521   22.4839 C   0  0  0  0  0  0
  -18.0314  -28.1400   22.8477 C   0  0  0  0  0  0
  -24.1490  -36.7243   23.2642 C   0  0  0  0  0  0
  -26.0198  -30.6909   21.3917 C   0  0  0  0  0  0
  -26.0876  -29.2991   20.7253 C   0  0  0  0  0  0
  -27.2385  -28.4111   20.7202 C   0  0  0  0  0  0
  -25.9872  -26.7658   19.5091 C   0  0  0  0  0  0
  -24.8709  -27.6279   19.4855 C   0  0  0  0  0  0
  -23.6851  -29.7913   20.1513 C   0  0  0  0  0  0
  -25.4124  -36.3015   24.0311 C   0  0  1  0  0  0
  -20.5931  -28.3731   23.1218 C   0  0  2  0  0  0
  -20.6795  -26.9427   22.5400 C   0  0  0  0  0  0
  -19.5766  -26.6377   21.5214 C   0  0  0  0  0  0
  -18.1949  -26.7935   22.1627 C   0  0  0  0  0  0
  -19.1572  -28.8886   23.2838 C   0  0  0  0  0  0
  -18.9485  -30.1479   23.8867 C   0  0  0  0  0  0
  -17.6480  -30.6592   24.0558 C   0  0  0  0  0  0
  -25.9083  -34.9393   23.5048 C   0  0  0  0  0  0
  -16.5372  -29.9083   23.6338 C   0  0  0  0  0  0
  -16.7297  -28.6503   23.0360 C   0  0  0  0  0  0
  -26.4537  -31.6560   25.0725 C   0  0  0  0  0  0
  -25.3699  -31.3770   26.1406 C   0  0  0  0  0  0
  -27.0411  -30.2947   24.6357 C   0  0  0  0  0  0
  -27.6051  -32.4343   25.7518 C   0  0  0  0  0  0
  -27.5576  -37.1772   24.8460 C   0  0  0  0  0  0
  -21.4291  -29.3048   22.3587 N   0  0  0  0  0  0
  -26.4278  -37.3739   23.9414 N   0  0  0  0  0  0
  -24.7299  -31.0181   22.0905 N   0  0  0  0  0  0
  -23.4220  -28.8067   23.3012 O   0  0  0  0  0  0
  -28.2756  -26.0610   20.2634 O   0  0  0  0  0  0
  -26.5678  -34.8901   22.4634 O   0  0  0  0  0  0
  -23.5611  -32.1289   23.7018 O   0  0  0  0  0  0
  -28.7420  -22.7064   21.6392 C   0  0  0  0  0  0
  -28.9712  -21.3281   21.6877 C   0  0  0  0  0  0
  -28.7219  -23.1311   20.2713 C   0  0  0  0  0  0
  -29.9412  -24.9938   19.0308 C   0  0  0  0  0  0
  -27.6557  -24.4355   18.3137 C   0  0  0  0  0  0
  -28.8898  -16.3474   19.0020 C   0  0  0  0  0  0
  -29.2213  -19.2369   19.9314 C   0  0  0  0  0  0
  -29.9804  -17.8508   20.6331 C   0  0  0  0  0  0
  -28.5370  -24.6512   19.5574 C   0  0  0  0  0  0
  -28.9789  -21.9250   19.5833 N   0  0  0  0  0  0
  -29.1469  -20.7723   20.4214 N   0  0  0  0  0  0
  -29.7591  -16.3128   20.1828 N   0  0  0  0  0  0
  -30.4811  -11.7517   20.0749 H   0  0  0  0  0  0
  -31.4671  -12.8547   19.1532 H   0  0  0  0  0  0
  -29.8613  -11.6655   17.6427 H   0  0  0  0  0  0
  -29.5859  -13.3852   17.6214 H   0  0  0  0  0  0
  -27.9863  -11.2414   19.0428 H   0  0  0  0  0  0
  -27.3884  -12.3502   17.8367 H   0  0  0  0  0  0
  -27.5126  -14.1940   19.3416 H   0  0  0  0  0  0
  -28.8033  -12.4257   21.4791 H   0  0  0  0  0  0
  -28.3514  -14.1066   21.6777 H   0  0  0  0  0  0
  -25.2741   -9.5670   22.4781 H   0  0  0  0  0  0
  -23.9997   -7.4608   22.7472 H   0  0  0  0  0  0
  -21.0832   -8.8756   19.8951 H   0  0  0  0  0  0
  -22.3678  -10.9664   19.6187 H   0  0  0  0  0  0
  -21.1993   -7.6142   23.9717 H   0  0  0  0  0  0
  -21.1485   -6.0519   25.9083 H   0  0  0  0  0  0
  -22.0599   -2.7607   23.2845 H   0  0  0  0  0  0
  -22.4017  -11.9873   22.4859 H   0  0  0  0  0  0
  -21.1030  -13.1238   22.2637 H   0  0  0  0  0  0
  -24.6559  -15.8444   20.5595 H   0  0  0  0  0  0
  -26.2819  -15.6322   20.1506 H   0  0  0  0  0  0
  -26.7317  -32.5245   23.0977 H   0  0  0  0  0  0
  -25.0068  -33.9583   25.0280 H   0  0  0  0  0  0
  -22.7622  -31.2871   21.3774 H   0  0  0  0  0  0
  -23.3764  -35.9560   23.3270 H   0  0  0  0  0  0
  -24.3576  -36.8917   22.2063 H   0  0  0  0  0  0
  -23.7230  -37.6419   23.6710 H   0  0  0  0  0  0
  -26.1863  -31.4455   20.6216 H   0  0  0  0  0  0
  -26.8860  -30.7375   22.0404 H   0  0  0  0  0  0
  -28.1366  -28.7291   21.2310 H   0  0  0  0  0  0
  -25.7943  -25.8012   19.0862 H   0  0  0  0  0  0
  -23.9597  -27.2887   19.0120 H   0  0  0  0  0  0
  -23.8280  -30.5679   19.3994 H   0  0  0  0  0  0
  -22.7969  -29.2410   19.8363 H   0  0  0  0  0  0
  -25.1311  -36.1828   25.0801 H   0  0  0  0  0  0
  -21.0023  -28.3324   24.1340 H   0  0  0  0  0  0
  -20.5687  -26.2346   23.3627 H   0  0  0  0  0  0
  -21.6659  -26.7423   22.1198 H   0  0  0  0  0  0
  -19.6922  -25.6280   21.1266 H   0  0  0  0  0  0
  -19.6697  -27.3170   20.6729 H   0  0  0  0  0  0
  -17.4213  -26.6679   21.4034 H   0  0  0  0  0  0
  -18.0347  -26.0088   22.9035 H   0  0  0  0  0  0
  -19.7959  -30.7307   24.2220 H   0  0  0  0  0  0
  -17.5030  -31.6269   24.5163 H   0  0  0  0  0  0
  -15.5370  -30.2974   23.7677 H   0  0  0  0  0  0
  -15.8699  -28.0809   22.7093 H   0  0  0  0  0  0
  -24.5884  -30.7116   25.7720 H   0  0  0  0  0  0
  -24.8885  -32.2959   26.4761 H   0  0  0  0  0  0
  -25.7962  -30.8984   27.0232 H   0  0  0  0  0  0
  -26.3049  -29.6659   24.1341 H   0  0  0  0  0  0
  -27.3968  -29.7264   25.4961 H   0  0  0  0  0  0
  -27.8980  -30.4164   23.9729 H   0  0  0  0  0  0
  -27.2632  -33.3667   26.2023 H   0  0  0  0  0  0
  -28.3901  -32.6868   25.0378 H   0  0  0  0  0  0
  -28.0679  -31.8522   26.5497 H   0  0  0  0  0  0
  -28.2559  -38.0102   24.7540 H   0  0  0  0  0  0
  -28.1107  -36.2632   24.6241 H   0  0  0  0  0  0
  -27.2301  -37.1361   25.8864 H   0  0  0  0  0  0
  -20.9513  -29.8763   21.6760 H   0  0  0  0  0  0
  -26.0135  -38.2796   24.1445 H   0  0  0  0  0  0
  -28.5894  -23.3425   22.4997 H   0  0  0  0  0  0
  -29.0014  -20.6827   22.5550 H   0  0  0  0  0  0
  -30.3344  -24.2060   18.3870 H   0  0  0  0  0  0
  -30.6436  -25.1182   19.8549 H   0  0  0  0  0  0
  -29.9408  -25.9186   18.4526 H   0  0  0  0  0  0
  -28.1087  -23.7085   17.6393 H   0  0  0  0  0  0
  -27.5222  -25.3485   17.7341 H   0  0  0  0  0  0
  -26.6869  -24.0157   18.5809 H   0  0  0  0  0  0
  -27.8520  -16.5105   19.2901 H   0  0  0  0  0  0
  -28.9472  -15.4499   18.3883 H   0  0  0  0  0  0
  -29.1809  -17.1452   18.3203 H   0  0  0  0  0  0
  -28.1743  -18.9573   19.8133 H   0  0  0  0  0  0
  -29.5966  -19.2964   18.9102 H   0  0  0  0  0  0
  -29.7368  -17.8676   21.6954 H   0  0  0  0  0  0
  -31.0567  -18.0224   20.5979 H   0  0  0  0  0  0
  1 25  1  0  0  0
  1 30  2  0  0  0
  1 82  1  0  0  0
  2  3  1  0  0  0
  2 25  1  0  0  0
  2 83  1  0  0  0
  2 84  1  0  0  0
  3  4  1  0  0  0
  3 85  1  0  0  0
  3 86  1  0  0  0
  4  5  1  0  0  0
  4 87  1  0  0  0
  4 88  1  0  0  0
  5  6  1  0  0  0
  5 26  1  0  0  0
  5 89  1  0  0  0
  6 25  1  0  0  0
  6 90  1  0  0  0
  6 91  1  0  0  0
  7  8  2  0  0  0
  7 26  1  0  0  0
  7 29  1  0  0  0
  8  9  1  0  0  0
  8 22  1  0  0  0
  9 10  1  0  0  0
  9 27  2  0  0  0
 10 11  2  0  0  0
 10 15  1  0  0  0
 11 12  1  0  0  0
 11 92  1  0  0  0
 12 13  2  0  0  0
 12 93  1  0  0  0
 13 14  1  0  0  0
 13 31  1  0  0  0
 14 15  2  0  0  0
 14 94  1  0  0  0
 15 95  1  0  0  0
 16 17  2  0  0  0
 16 21  1  0  0  0
 16 31  1  0  0  0
 17 18  1  0  0  0
 17 96  1  0  0  0
 18 19  2  0  0  0
 18 97  1  0  0  0
 19 20  1  0  0  0
 19 24  1  0  0  0
 20 21  2  0  0  0
 20 98  1  0  0  0
 21 23  1  0  0  0
 22 28  1  0  0  0
 22 32  2  0  0  0
 26 27  1  0  0  0
 28 99  1  0  0  0
 28100  1  0  0  0
 29101  1  0  0  0
 29102  1  0  0  0
 33 34  1  0  0  0
 33 66  1  0  0  0
 33 70  2  0  0  0
 34 36  1  0  0  0
 34 59  1  0  0  0
 34103  1  0  0  0
 35 44  2  0  0  0
 35 45  1  0  0  0
 35 68  1  0  0  0
 36 56  1  0  0  0
 36104  1  0  0  0
 37 39  1  0  0  0
 37 47  1  0  0  0
 37 66  1  0  0  0
 37105  1  0  0  0
 38 43  2  0  0  0
 38 46  1  0  0  0
 38 47  1  0  0  0
 39 64  1  0  0  0
 39 67  2  0  0  0
 40 52  1  0  0  0
 40 53  2  0  0  0
 40 58  1  0  0  0
 41106  1  0  0  0
 41107  1  0  0  0
 41108  1  0  0  0
 41 48  1  0  0  0
 42 43  1  0  0  0
 42 66  1  0  0  0
 42109  1  0  0  0
 42110  1  0  0  0
 43 44  1  0  0  0
 44111  1  0  0  0
 45 46  2  0  0  0
 45112  1  0  0  0
 46113  1  0  0  0
 47114  1  0  0  0
 47115  1  0  0  0
 48 56  1  0  0  0
 48 65  1  0  0  0
 48116  1  0  0  0
 49 50  1  0  0  0
 49 53  1  0  0  0
 49 64  1  0  0  0
 49117  1  0  0  0
 50 51  1  0  0  0
 50118  1  0  0  0
 50119  1  0  0  0
 51 52  1  0  0  0
 51120  1  0  0  0
 51121  1  0  0  0
 52122  1  0  0  0
 52123  1  0  0  0
 53 54  1  0  0  0
 54 55  2  0  0  0
 54124  1  0  0  0
 55 57  1  0  0  0
 55125  1  0  0  0
 56 69  2  0  0  0
 57 58  2  0  0  0
 57126  1  0  0  0
 58127  1  0  0  0
 59 60  1  0  0  0
 59 61  1  0  0  0
 59 62  1  0  0  0
 60128  1  0  0  0
 60129  1  0  0  0
 60130  1  0  0  0
 61131  1  0  0  0
 61132  1  0  0  0
 61133  1  0  0  0
 62134  1  0  0  0
 62135  1  0  0  0
 62136  1  0  0  0
 63 65  1  0  0  0
 63137  1  0  0  0
 63138  1  0  0  0
 63139  1  0  0  0
 64140  1  0  0  0
 65141  1  0  0  0
 68 79  1  0  0  0
 71 72  2  0  0  0
 71 73  1  0  0  0
 71142  1  0  0  0
 72 81  1  0  0  0
 72143  1  0  0  0
 73 79  1  0  0  0
 73 80  2  0  0  0
 74144  1  0  0  0
 74145  1  0  0  0
 74146  1  0  0  0
 74 79  1  0  0  0
 75 79  1  0  0  0
 75147  1  0  0  0
 75148  1  0  0  0
 75149  1  0  0  0
 76 82  1  0  0  0
 76150  1  0  0  0
 76151  1  0  0  0
 76152  1  0  0  0
 77 78  1  0  0  0
 77 81  1  0  0  0
 77153  1  0  0  0
 77154  1  0  0  0
 78 82  1  0  0  0
 78155  1  0  0  0
 78156  1  0  0  0
 80 81  1  0  0  0
M  ISO  4   1 100  68 101  79 101  82 100
M  END
> <chiral flag>
0

> <version>
0

> <s_m_source_file>
/data/baiqing/PycharmProjects/Reinvent-master-3.2/result/LINK_invent/BTK/process_docking_weight1_custom_sum_contain_oxygen_bond_distance_aromatic_linkinvent_7_9_3/rearranged_h_0055.sdf

> <i_m_source_file_index>
3

> <r_mmod_Potential_Energy-OPLS-2005>
896.815185546875

> <r_mmod_Stretch_Energy-OPLS-2005>
356.567291259766

> <r_mmod_Bend_Energy-OPLS-2005>
358.808166503906

> <r_mmod_Torsional_Energy-OPLS-2005>
305.884338378906

> <r_mmod_Improper_Torsional_Energy-OPLS-2005>
8.76563930511475

> <r_mmod_Van_der_Waal_Energy-OPLS-2005>
123.040328979492

> <r_mmod_Electrostatic_Energy-OPLS-2005>
-325.119995117188

> <r_mmod_Solvation_Energy-OPLS-2005>
-214.060333251953

> <b_mmod_Minimization_Converged-OPLS-2005>
0

> <r_mmod_RMS_Derivative-OPLS-2005>
0.770033597946167

$$$$
3
                    3D
 Structure written by MMmdl.
155163  0  0  1  0            999 V2000
  -30.4369  -15.2139   20.3841 C   0  0  0  0  0  0
  -30.4431  -12.7645   19.5322 C   0  0  0  0  0  0
  -29.5396  -12.5702   18.2881 C   0  0  0  0  0  0
  -28.0804  -12.3083   18.7028 C   0  0  0  0  0  0
  -27.6153  -13.2716   19.8229 C   0  0  2  0  0  0
  -28.6455  -13.4165   20.9615 C   0  0  0  0  0  0
  -25.2417  -13.8248   20.5720 C   0  0  0  0  0  0
  -24.1760  -13.0440   20.9234 C   0  0  0  0  0  0
  -24.6401  -11.6933   20.8744 C   0  0  0  0  0  0
  -23.9092  -10.4296   21.0403 C   0  0  0  0  0  0
  -24.3640   -9.4210   21.9178 C   0  0  0  0  0  0
  -23.6305   -8.2249   22.0762 C   0  0  0  0  0  0
  -22.4286   -8.0289   21.3553 C   0  0  0  0  0  0
  -21.9926   -9.0260   20.4653 C   0  0  0  0  0  0
  -22.7263  -10.2134   20.3054 C   0  0  0  0  0  0
  -21.6857   -6.0731   22.5271 C   0  0  0  0  0  0
  -21.4016   -6.5635   23.8203 C   0  0  0  0  0  0
  -21.3664   -5.6790   24.9171 C   0  0  0  0  0  0
  -21.6046   -4.3053   24.7222 C   0  0  0  0  0  0
  -21.8820   -3.8139   23.4343 C   0  0  0  0  0  0
  -21.9192   -4.6956   22.3400 C   0  0  0  0  0  0
  -22.7779  -13.5195   21.1886 C   0  0  0  0  0  0
  -22.1663   -4.2136   21.0982 F   0  0  0  0  0  0
  -21.5637   -3.4543   25.7742 F   0  0  0  0  0  0
  -29.8966  -13.9004   20.3586 N   0  0  0  0  0  0
  -26.2831  -12.9513   20.3184 N   0  0  0  0  0  0
  -25.9340  -11.6624   20.5700 N   0  0  0  0  0  0
  -22.0444  -12.8173   22.0447 N   0  0  0  0  0  0
  -25.4072  -15.1986   20.4168 N   0  0  0  0  0  0
  -31.6510  -15.2146   20.1324 O   0  0  0  0  0  0
  -21.6652   -6.8881   21.4237 O   0  0  0  0  0  0
  -22.3451  -14.5493   20.6726 O   0  0  0  0  0  0
  -24.6593  -31.8270   23.1734 C   0  0  0  0  0  0
  -25.9286  -32.4602   23.8188 C   0  0  1  0  0  0
  -27.2159  -26.9611   20.1898 C   0  0  0  0  0  0
  -25.5971  -33.8418   24.2089 N   0  0  0  0  0  0
  -23.4712  -30.4392   21.5224 C   0  0  2  0  0  0
  -24.9241  -28.8296   20.1180 C   0  0  0  0  0  0
  -22.7642  -29.4455   22.4804 C   0  0  0  0  0  0
  -18.0313  -28.1402   22.8466 C   0  0  0  0  0  0
  -24.1498  -36.7218   23.2646 C   0  0  0  0  0  0
  -26.0384  -30.6458   21.3977 C   0  0  0  0  0  0
  -26.1075  -29.2375   20.7461 C   0  0  0  0  0  0
  -27.2517  -28.3249   20.7541 C   0  0  0  0  0  0
  -26.0035  -26.6959   19.5160 C   0  0  0  0  0  0
  -24.8945  -27.5778   19.4829 C   0  0  0  0  0  0
  -23.7096  -29.7544   20.1490 C   0  0  0  0  0  0
  -25.4136  -36.2972   24.0297 C   0  0  1  0  0  0
  -20.5935  -28.3744   23.1200 C   0  0  2  0  0  0
  -20.6792  -26.9429   22.5405 C   0  0  0  0  0  0
  -19.5768  -26.6374   21.5213 C   0  0  0  0  0  0
  -18.1952  -26.7938   22.1618 C   0  0  0  0  0  0
  -19.1575  -28.8891   23.2819 C   0  0  0  0  0  0
  -18.9487  -30.1481   23.8851 C   0  0  0  0  0  0
  -17.6481  -30.6593   24.0551 C   0  0  0  0  0  0
  -25.9099  -34.9356   23.5010 C   0  0  0  0  0  0
  -16.5372  -29.9079   23.6341 C   0  0  0  0  0  0
  -16.7296  -28.6500   23.0359 C   0  0  0  0  0  0
  -26.4554  -31.6533   25.0700 C   0  0  0  0  0  0
  -25.3696  -31.3773   26.1365 C   0  0  0  0  0  0
  -27.0441  -30.2904   24.6403 C   0  0  0  0  0  0
  -27.6049  -32.4337   25.7503 C   0  0  0  0  0  0
  -27.5572  -37.1765   24.8462 C   0  0  0  0  0  0
  -21.4319  -29.3039   22.3557 N   0  0  0  0  0  0
  -26.4284  -37.3705   23.9403 N   0  0  0  0  0  0
  -24.7439  -30.9968   22.0851 N   0  0  0  0  0  0
  -23.4210  -28.8024   23.3029 O   0  0  0  0  0  0
  -28.2396  -25.8874   20.2148 O   0  0  0  0  0  0
  -26.5705  -34.8884   22.4605 O   0  0  0  0  0  0
  -23.5674  -32.1223   23.6853 O   0  0  0  0  0  0
  -30.0117  -20.1290   18.5144 C   0  0  0  0  0  0
  -29.4925  -19.7292   19.7184 C   0  0  0  0  0  0
  -30.0864  -17.9148   18.4221 C   0  0  0  0  0  0
  -30.1723  -16.6155   17.6770 C   0  0  0  0  0  0
  -29.8519  -17.1585   22.0826 C   0  0  0  0  0  0
  -28.8260  -21.0723   20.5418 C   0  0  0  0  0  0
  -28.8977  -22.7954   20.0290 C   0  0  0  0  0  0
  -27.9996  -24.2829   20.4456 C   0  0  0  0  0  0
  -29.6329  -16.7642   20.6143 C   0  0  1  0  0  0
  -29.7455  -18.1912   19.7136 N   0  0  0  0  0  0
  -30.3319  -19.0474   17.7767 N   0  3  0  0  0  0
  -31.4664  -12.9557   19.2068 H   0  0  0  0  0  0
  -30.4917  -11.8476   20.1217 H   0  0  0  0  0  0
  -29.9093  -11.7446   17.6788 H   0  0  0  0  0  0
  -29.5885  -13.4605   17.6597 H   0  0  0  0  0  0
  -28.0180  -11.2771   19.0529 H   0  0  0  0  0  0
  -27.4163  -12.3774   17.8399 H   0  0  0  0  0  0
  -27.5404  -14.2473   19.3420 H   0  0  0  0  0  0
  -28.7915  -12.4720   21.4883 H   0  0  0  0  0  0
  -28.2899  -14.1334   21.7039 H   0  0  0  0  0  0
  -25.2784   -9.5686   22.4752 H   0  0  0  0  0  0
  -24.0010   -7.4641   22.7486 H   0  0  0  0  0  0
  -21.0863   -8.8779   19.8957 H   0  0  0  0  0  0
  -22.3717  -10.9675   19.6167 H   0  0  0  0  0  0
  -21.2009   -7.6143   23.9700 H   0  0  0  0  0  0
  -21.1493   -6.0530   25.9075 H   0  0  0  0  0  0
  -22.0596   -2.7598   23.2847 H   0  0  0  0  0  0
  -22.4078  -11.9836   22.4829 H   0  0  0  0  0  0
  -21.1059  -13.1180   22.2657 H   0  0  0  0  0  0
  -24.6376  -15.8488   20.5373 H   0  0  0  0  0  0
  -26.2519  -15.6457   20.0868 H   0  0  0  0  0  0
  -26.7353  -32.5152   23.0905 H   0  0  0  0  0  0
  -25.0065  -33.9502   25.0200 H   0  0  0  0  0  0
  -22.7825  -31.2694   21.3529 H   0  0  0  0  0  0
  -23.3766  -35.9542   23.3276 H   0  0  0  0  0  0
  -24.3581  -36.8897   22.2068 H   0  0  0  0  0  0
  -23.7252  -37.6397   23.6725 H   0  0  0  0  0  0
  -26.2120  -31.3881   20.6175 H   0  0  0  0  0  0
  -26.9013  -30.7037   22.0492 H   0  0  0  0  0  0
  -28.1527  -28.6388   21.2631 H   0  0  0  0  0  0
  -25.8887  -25.7444   19.0188 H   0  0  0  0  0  0
  -23.9957  -27.2606   18.9723 H   0  0  0  0  0  0
  -23.8649  -30.5221   19.3898 H   0  0  0  0  0  0
  -22.8199  -29.2076   19.8319 H   0  0  0  0  0  0
  -25.1336  -36.1772   25.0790 H   0  0  0  0  0  0
  -21.0015  -28.3344   24.1323 H   0  0  0  0  0  0
  -20.5672  -26.2359   23.3638 H   0  0  0  0  0  0
  -21.6658  -26.7410   22.1213 H   0  0  0  0  0  0
  -19.6933  -25.6275   21.1265 H   0  0  0  0  0  0
  -19.6707  -27.3160   20.6726 H   0  0  0  0  0  0
  -17.4220  -26.6669   21.4026 H   0  0  0  0  0  0
  -18.0350  -26.0090   22.9025 H   0  0  0  0  0  0
  -19.7964  -30.7308   24.2203 H   0  0  0  0  0  0
  -17.5035  -31.6270   24.5160 H   0  0  0  0  0  0
  -15.5374  -30.2964   23.7695 H   0  0  0  0  0  0
  -15.8696  -28.0804   22.7101 H   0  0  0  0  0  0
  -24.5886  -30.7110   25.7682 H   0  0  0  0  0  0
  -24.8878  -32.2971   26.4693 H   0  0  0  0  0  0
  -25.7945  -30.9008   27.0208 H   0  0  0  0  0  0
  -26.3097  -29.6587   24.1394 H   0  0  0  0  0  0
  -27.3968  -29.7259   25.5046 H   0  0  0  0  0  0
  -27.9042  -30.4091   23.9808 H   0  0  0  0  0  0
  -27.2612  -33.3670   26.1975 H   0  0  0  0  0  0
  -28.3919  -32.6843   25.0378 H   0  0  0  0  0  0
  -28.0648  -31.8533   26.5510 H   0  0  0  0  0  0
  -28.2565  -38.0082   24.7510 H   0  0  0  0  0  0
  -28.1087  -36.2608   24.6287 H   0  0  0  0  0  0
  -27.2285  -37.1406   25.8863 H   0  0  0  0  0  0
  -20.9569  -29.8735   21.6698 H   0  0  0  0  0  0
  -26.0128  -38.2763   24.1413 H   0  0  0  0  0  0
  -30.0994  -21.1173   18.0863 H   0  0  0  0  0  0
  -31.1565  -16.1742   17.8237 H   0  0  0  0  0  0
  -30.0384  -16.8151   16.6128 H   0  0  0  0  0  0
  -29.3680  -15.9528   17.9930 H   0  0  0  0  0  0
  -29.1585  -17.9444   22.3835 H   0  0  0  0  0  0
  -30.8649  -17.5294   22.2399 H   0  0  0  0  0  0
  -29.7006  -16.3135   22.7556 H   0  0  0  0  0  0
  -29.2137  -21.0326   21.5602 H   0  0  0  0  0  0
  -27.7667  -20.8395   20.6536 H   0  0  0  0  0  0
  -28.7727  -22.7552   18.9475 H   0  0  0  0  0  0
  -29.9462  -23.0635   20.1600 H   0  0  0  0  0  0
  -27.8930  -24.2235   21.5293 H   0  0  0  0  0  0
  -26.9884  -24.0941   20.0879 H   0  0  0  0  0  0
  -28.5800  -16.4986   20.5238 H   0  0  0  0  0  0
  -30.6507  -19.0980   16.8168 H   0  0  0  0  0  0
  1 25  1  0  0  0
  1 30  2  0  0  0
  1 79  1  0  0  0
  2  3  1  0  0  0
  2 25  1  0  0  0
  2 82  1  0  0  0
  2 83  1  0  0  0
  3  4  1  0  0  0
  3 84  1  0  0  0
  3 85  1  0  0  0
  4  5  1  0  0  0
  4 86  1  0  0  0
  4 87  1  0  0  0
  5  6  1  0  0  0
  5 26  1  0  0  0
  5 88  1  0  0  0
  6 25  1  0  0  0
  6 89  1  0  0  0
  6 90  1  0  0  0
  7  8  2  0  0  0
  7 26  1  0  0  0
  7 29  1  0  0  0
  8  9  1  0  0  0
  8 22  1  0  0  0
  9 10  1  0  0  0
  9 27  2  0  0  0
 10 11  2  0  0  0
 10 15  1  0  0  0
 11 12  1  0  0  0
 11 91  1  0  0  0
 12 13  2  0  0  0
 12 92  1  0  0  0
 13 14  1  0  0  0
 13 31  1  0  0  0
 14 15  2  0  0  0
 14 93  1  0  0  0
 15 94  1  0  0  0
 16 17  2  0  0  0
 16 21  1  0  0  0
 16 31  1  0  0  0
 17 18  1  0  0  0
 17 95  1  0  0  0
 18 19  2  0  0  0
 18 96  1  0  0  0
 19 20  1  0  0  0
 19 24  1  0  0  0
 20 21  2  0  0  0
 20 97  1  0  0  0
 21 23  1  0  0  0
 22 28  1  0  0  0
 22 32  2  0  0  0
 26 27  1  0  0  0
 28 98  1  0  0  0
 28 99  1  0  0  0
 29100  1  0  0  0
 29101  1  0  0  0
 33 34  1  0  0  0
 33 66  1  0  0  0
 33 70  2  0  0  0
 34 36  1  0  0  0
 34 59  1  0  0  0
 34102  1  0  0  0
 35 44  2  0  0  0
 35 45  1  0  0  0
 35 68  1  0  0  0
 36 56  1  0  0  0
 36103  1  0  0  0
 37 39  1  0  0  0
 37 47  1  0  0  0
 37 66  1  0  0  0
 37104  1  0  0  0
 38 43  2  0  0  0
 38 46  1  0  0  0
 38 47  1  0  0  0
 39 64  1  0  0  0
 39 67  2  0  0  0
 40 52  1  0  0  0
 40 53  2  0  0  0
 40 58  1  0  0  0
 41105  1  0  0  0
 41106  1  0  0  0
 41107  1  0  0  0
 41 48  1  0  0  0
 42 43  1  0  0  0
 42 66  1  0  0  0
 42108  1  0  0  0
 42109  1  0  0  0
 43 44  1  0  0  0
 44110  1  0  0  0
 45 46  2  0  0  0
 45111  1  0  0  0
 46112  1  0  0  0
 47113  1  0  0  0
 47114  1  0  0  0
 48 56  1  0  0  0
 48 65  1  0  0  0
 48115  1  0  0  0
 49 50  1  0  0  0
 49 53  1  0  0  0
 49 64  1  0  0  0
 49116  1  0  0  0
 50 51  1  0  0  0
 50117  1  0  0  0
 50118  1  0  0  0
 51 52  1  0  0  0
 51119  1  0  0  0
 51120  1  0  0  0
 52121  1  0  0  0
 52122  1  0  0  0
 53 54  1  0  0  0
 54 55  2  0  0  0
 54123  1  0  0  0
 55 57  1  0  0  0
 55124  1  0  0  0
 56 69  2  0  0  0
 57 58  2  0  0  0
 57125  1  0  0  0
 58126  1  0  0  0
 59 60  1  0  0  0
 59 61  1  0  0  0
 59 62  1  0  0  0
 60127  1  0  0  0
 60128  1  0  0  0
 60129  1  0  0  0
 61130  1  0  0  0
 61131  1  0  0  0
 61132  1  0  0  0
 62133  1  0  0  0
 62134  1  0  0  0
 62135  1  0  0  0
 63 65  1  0  0  0
 63136  1  0  0  0
 63137  1  0  0  0
 63138  1  0  0  0
 64139  1  0  0  0
 65140  1  0  0  0
 68 78  1  0  0  0
 71 72  2  0  0  0
 71 81  1  0  0  0
 71141  1  0  0  0
 72 76  1  0  0  0
 72 80  1  0  0  0
 73 74  1  0  0  0
 73 80  1  0  0  0
 73 81  2  0  0  0
 74142  1  0  0  0
 74143  1  0  0  0
 74144  1  0  0  0
 75145  1  0  0  0
 75146  1  0  0  0
 75147  1  0  0  0
 75 79  1  0  0  0
 76 77  1  0  0  0
 76148  1  0  0  0
 76149  1  0  0  0
 77 78  1  0  0  0
 77150  1  0  0  0
 77151  1  0  0  0
 78152  1  0  0  0
 78153  1  0  0  0
 79 80  1  0  0  0
 79154  1  0  0  0
 81155  1  0  0  0
M  CHG  1  81   1
M  ISO  4   1 100  68 101  78 101  79 100
M  END
> <chiral flag>
0

> <version>
0

> <s_m_source_file>
/data/baiqing/PycharmProjects/Reinvent-master-3.2/result/LINK_invent/BTK/process_docking_weight1_custom_sum_contain_oxygen_bond_distance_aromatic_linkinvent_7_9_3/rearranged_h_0055.sdf

> <i_m_source_file_index>
4

> <r_mmod_Potential_Energy-OPLS-2005>
1218.08361816406

> <r_mmod_Stretch_Energy-OPLS-2005>
605.617736816406

> <r_mmod_Bend_Energy-OPLS-2005>
468.828796386719

> <r_mmod_Torsional_Energy-OPLS-2005>
229.627990722656

> <r_mmod_Improper_Torsional_Energy-OPLS-2005>
2.9414210319519

> <r_mmod_Van_der_Waal_Energy-OPLS-2005>
109.857315063477

> <r_mmod_Electrostatic_Energy-OPLS-2005>
-190.952072143555

> <r_mmod_Solvation_Energy-OPLS-2005>
-407.131927490234

> <b_mmod_Minimization_Converged-OPLS-2005>
0

> <r_mmod_RMS_Derivative-OPLS-2005>
1.31736898422241

$$$$
4
                    3D
 Structure written by MMmdl.
163171  0  0  1  0            999 V2000
  -30.7049  -14.6120   20.6199 C   0  0  0  0  0  0
  -30.4139  -12.4106   19.4669 C   0  0  0  0  0  0
  -29.5022  -12.5357   18.2274 C   0  0  0  0  0  0
  -28.0271  -12.3519   18.6216 C   0  0  0  0  0  0
  -27.6447  -13.2186   19.8473 C   0  0  2  0  0  0
  -28.6736  -13.0812   20.9851 C   0  0  0  0  0  0
  -25.2520  -13.8174   20.5628 C   0  0  0  0  0  0
  -24.1806  -13.0434   20.9177 C   0  0  0  0  0  0
  -24.6382  -11.6916   20.8703 C   0  0  0  0  0  0
  -23.9077  -10.4301   21.0389 C   0  0  0  0  0  0
  -24.3658   -9.4231   21.9166 C   0  0  0  0  0  0
  -23.6335   -8.2261   22.0761 C   0  0  0  0  0  0
  -22.4316   -8.0295   21.3561 C   0  0  0  0  0  0
  -21.9932   -9.0248   20.4654 C   0  0  0  0  0  0
  -22.7250  -10.2135   20.3046 C   0  0  0  0  0  0
  -21.6867   -6.0751   22.5286 C   0  0  0  0  0  0
  -21.4024   -6.5645   23.8221 C   0  0  0  0  0  0
  -21.3660   -5.6803   24.9178 C   0  0  0  0  0  0
  -21.6052   -4.3060   24.7229 C   0  0  0  0  0  0
  -21.8812   -3.8158   23.4348 C   0  0  0  0  0  0
  -21.9211   -4.6972   22.3415 C   0  0  0  0  0  0
  -22.7842  -13.5228   21.1851 C   0  0  0  0  0  0
  -22.1663   -4.2168   21.0988 F   0  0  0  0  0  0
  -21.5638   -3.4541   25.7738 F   0  0  0  0  0  0
  -30.0050  -13.4323   20.4631 N   0  0  0  0  0  0
  -26.2920  -12.9346   20.3173 N   0  0  0  0  0  0
  -25.9297  -11.6504   20.5654 N   0  0  0  0  0  0
  -22.0509  -12.8231   22.0425 N   0  0  0  0  0  0
  -25.4166  -15.1900   20.4040 N   0  0  0  0  0  0
  -31.7885  -14.7589   20.0470 O   0  0  0  0  0  0
  -21.6662   -6.8894   21.4260 O   0  0  0  0  0  0
  -22.3508  -14.5514   20.6672 O   0  0  0  0  0  0
  -24.6264  -31.8611   23.1970 C   0  0  0  0  0  0
  -25.9108  -32.4787   23.8311 C   0  0  1  0  0  0
  -27.2224  -27.3148   20.1282 C   0  0  0  0  0  0
  -25.5943  -33.8595   24.2241 N   0  0  0  0  0  0
  -23.4153  -30.4884   21.5391 C   0  0  2  0  0  0
  -24.8617  -28.9385   20.1062 C   0  0  0  0  0  0
  -22.7462  -29.4671   22.4902 C   0  0  0  0  0  0
  -18.0311  -28.1394   22.8503 C   0  0  0  0  0  0
  -24.1522  -36.7279   23.2621 C   0  0  0  0  0  0
  -25.9578  -30.8010   21.3560 C   0  0  0  0  0  0
  -26.0336  -29.4236   20.7040 C   0  0  0  0  0  0
  -27.2167  -28.6259   20.6959 C   0  0  0  0  0  0
  -26.0255  -26.8751   19.5183 C   0  0  0  0  0  0
  -24.8631  -27.6688   19.5036 C   0  0  0  0  0  0
  -23.6261  -29.8168   20.1556 C   0  0  0  0  0  0
  -25.4151  -36.3068   24.0297 C   0  0  1  0  0  0
  -20.5911  -28.3703   23.1287 C   0  0  2  0  0  0
  -20.6813  -26.9422   22.5415 C   0  0  0  0  0  0
  -19.5762  -26.6402   21.5241 C   0  0  0  0  0  0
  -18.1946  -26.7933   22.1655 C   0  0  0  0  0  0
  -19.1557  -28.8862   23.2895 C   0  0  0  0  0  0
  -18.9479  -30.1480   23.8888 C   0  0  0  0  0  0
  -17.6464  -30.6589   24.0568 C   0  0  0  0  0  0
  -25.9088  -34.9448   23.5065 C   0  0  0  0  0  0
  -16.5362  -29.9084   23.6325 C   0  0  0  0  0  0
  -16.7292  -28.6517   23.0332 C   0  0  0  0  0  0
  -26.4475  -31.6571   25.0647 C   0  0  0  0  0  0
  -25.3675  -31.3676   26.1327 C   0  0  0  0  0  0
  -27.0261  -30.3006   24.6012 C   0  0  0  0  0  0
  -27.6083  -32.4244   25.7396 C   0  0  0  0  0  0
  -27.5589  -37.1776   24.8454 C   0  0  0  0  0  0
  -21.4167  -29.3057   22.3674 N   0  0  0  0  0  0
  -26.4300  -37.3786   23.9412 N   0  0  0  0  0  0
  -24.6872  -31.0659   22.0890 N   0  0  0  0  0  0
  -23.4217  -28.8201   23.2957 O   0  0  0  0  0  0
  -28.3513  -26.4784   20.1720 O   0  0  0  0  0  0
  -26.5668  -34.8905   22.4634 O   0  0  0  0  0  0
  -23.5430  -32.1379   23.7320 O   0  0  0  0  0  0
  -28.7807  -21.9036   21.7592 C   0  0  0  0  0  0
  -28.7830  -20.4834   21.8609 C   0  0  0  0  0  0
  -29.2707  -22.5122   20.5786 C   0  0  0  0  0  0
  -29.2859  -19.6969   20.7914 C   0  0  0  0  0  0
  -31.2404  -16.1024   24.9508 C   0  0  0  0  0  0
  -28.1477  -17.6879   19.6713 C   0  0  0  0  0  0
  -29.4163  -24.0771   20.4436 C   0  0  0  0  0  0
  -31.3457  -15.5840   23.5068 C   0  0  0  0  0  0
  -30.0000  -15.6522   22.7469 C   0  0  0  0  0  0
  -30.3660  -17.1415   20.8337 C   0  0  0  0  0  0
  -28.1606  -25.0024   20.1199 C   0  0  0  0  0  0
  -29.1058  -18.1194   20.7940 C   0  0  1  0  0  0
  -29.7657  -21.7026   19.5902 N   0  0  0  0  0  0
  -29.7764  -20.3467   19.6899 N   0  0  0  0  0  0
  -30.1285  -15.6954   21.2693 N   0  0  0  0  0  0
  -31.4583  -12.5144   19.1701 H   0  0  0  0  0  0
  -30.3300  -11.4136   19.8996 H   0  0  0  0  0  0
  -29.7861  -11.8047   17.4687 H   0  0  0  0  0  0
  -29.6347  -13.5166   17.7711 H   0  0  0  0  0  0
  -27.8683  -11.2955   18.8415 H   0  0  0  0  0  0
  -27.3823  -12.5877   17.7747 H   0  0  0  0  0  0
  -27.6610  -14.2535   19.5090 H   0  0  0  0  0  0
  -28.6850  -12.0620   21.3709 H   0  0  0  0  0  0
  -28.3372  -13.7065   21.8028 H   0  0  0  0  0  0
  -25.2805   -9.5712   22.4730 H   0  0  0  0  0  0
  -24.0055   -7.4662   22.7483 H   0  0  0  0  0  0
  -21.0865   -8.8760   19.8956 H   0  0  0  0  0  0
  -22.3697  -10.9678   19.6162 H   0  0  0  0  0  0
  -21.1991   -7.6155   23.9730 H   0  0  0  0  0  0
  -21.1496   -6.0530   25.9090 H   0  0  0  0  0  0
  -22.0594   -2.7623   23.2848 H   0  0  0  0  0  0
  -22.4155  -11.9915   22.4827 H   0  0  0  0  0  0
  -21.1118  -13.1232   22.2610 H   0  0  0  0  0  0
  -24.6481  -15.8405   20.5249 H   0  0  0  0  0  0
  -26.2598  -15.6344   20.0657 H   0  0  0  0  0  0
  -26.7167  -32.5459   23.1053 H   0  0  0  0  0  0
  -25.0060  -33.9822   25.0350 H   0  0  0  0  0  0
  -22.7060  -31.3085   21.3965 H   0  0  0  0  0  0
  -23.3796  -35.9599   23.3274 H   0  0  0  0  0  0
  -24.3595  -36.8933   22.2032 H   0  0  0  0  0  0
  -23.7260  -37.6455   23.6681 H   0  0  0  0  0  0
  -26.0712  -31.5599   20.5797 H   0  0  0  0  0  0
  -26.8482  -30.8662   21.9728 H   0  0  0  0  0  0
  -28.1220  -28.9982   21.1552 H   0  0  0  0  0  0
  -25.9643  -25.9006   19.0567 H   0  0  0  0  0  0
  -23.9657  -27.2832   19.0381 H   0  0  0  0  0  0
  -23.7287  -30.5893   19.3928 H   0  0  0  0  0  0
  -22.7458  -29.2411   19.8613 H   0  0  0  0  0  0
  -25.1344  -36.1867   25.0785 H   0  0  0  0  0  0
  -21.0069  -28.3318   24.1381 H   0  0  0  0  0  0
  -20.5766  -26.2320   23.3636 H   0  0  0  0  0  0
  -21.6682  -26.7472   22.1180 H   0  0  0  0  0  0
  -19.6919  -25.6322   21.1269 H   0  0  0  0  0  0
  -19.6676  -27.3231   20.6787 H   0  0  0  0  0  0
  -17.4220  -26.6691   21.4056 H   0  0  0  0  0  0
  -18.0315  -26.0075   22.9043 H   0  0  0  0  0  0
  -19.7947  -30.7324   24.2232 H   0  0  0  0  0  0
  -17.4999  -31.6262   24.5171 H   0  0  0  0  0  0
  -15.5351  -30.2968   23.7645 H   0  0  0  0  0  0
  -15.8706  -28.0838   22.7000 H   0  0  0  0  0  0
  -24.5957  -30.6920   25.7607 H   0  0  0  0  0  0
  -24.8711  -32.2812   26.4625 H   0  0  0  0  0  0
  -25.7974  -30.8925   27.0158 H   0  0  0  0  0  0
  -26.2755  -29.6776   24.1124 H   0  0  0  0  0  0
  -27.4081  -29.7247   25.4451 H   0  0  0  0  0  0
  -27.8598  -30.4321   23.9106 H   0  0  0  0  0  0
  -27.2822  -33.3637   26.1892 H   0  0  0  0  0  0
  -28.3945  -32.6633   25.0211 H   0  0  0  0  0  0
  -28.0661  -31.8328   26.5335 H   0  0  0  0  0  0
  -28.2563  -38.0116   24.7596 H   0  0  0  0  0  0
  -28.1135  -36.2647   24.6204 H   0  0  0  0  0  0
  -27.2300  -37.1332   25.8849 H   0  0  0  0  0  0
  -20.9310  -29.8696   21.6834 H   0  0  0  0  0  0
  -26.0154  -38.2838   24.1467 H   0  0  0  0  0  0
  -28.4142  -22.5172   22.5715 H   0  0  0  0  0  0
  -28.3705  -20.0050   22.7367 H   0  0  0  0  0  0
  -32.1884  -15.9883   25.4787 H   0  0  0  0  0  0
  -30.4827  -15.5623   25.5210 H   0  0  0  0  0  0
  -30.9787  -17.1613   24.9711 H   0  0  0  0  0  0
  -27.2142  -18.2487   19.6992 H   0  0  0  0  0  0
  -27.8901  -16.6329   19.7446 H   0  0  0  0  0  0
  -28.5991  -17.8494   18.6927 H   0  0  0  0  0  0
  -30.1790  -24.2693   19.6896 H   0  0  0  0  0  0
  -29.8633  -24.4080   21.3811 H   0  0  0  0  0  0
  -31.6868  -14.5487   23.5398 H   0  0  0  0  0  0
  -32.1217  -16.1435   22.9833 H   0  0  0  0  0  0
  -29.4381  -16.5187   23.0884 H   0  0  0  0  0  0
  -29.4120  -14.8083   23.0909 H   0  0  0  0  0  0
  -31.1179  -17.5797   21.4900 H   0  0  0  0  0  0
  -30.8230  -17.1522   19.8422 H   0  0  0  0  0  0
  -27.3699  -24.7433   20.8269 H   0  0  0  0  0  0
  -27.7989  -24.7246   19.1278 H   0  0  0  0  0  0
  -28.5623  -17.9260   21.7193 H   0  0  0  0  0  0
  1 25  1  0  0  0
  1 30  2  0  0  0
  1 85  1  0  0  0
  2  3  1  0  0  0
  2 25  1  0  0  0
  2 86  1  0  0  0
  2 87  1  0  0  0
  3  4  1  0  0  0
  3 88  1  0  0  0
  3 89  1  0  0  0
  4  5  1  0  0  0
  4 90  1  0  0  0
  4 91  1  0  0  0
  5  6  1  0  0  0
  5 26  1  0  0  0
  5 92  1  0  0  0
  6 25  1  0  0  0
  6 93  1  0  0  0
  6 94  1  0  0  0
  7  8  2  0  0  0
  7 26  1  0  0  0
  7 29  1  0  0  0
  8  9  1  0  0  0
  8 22  1  0  0  0
  9 10  1  0  0  0
  9 27  2  0  0  0
 10 11  2  0  0  0
 10 15  1  0  0  0
 11 12  1  0  0  0
 11 95  1  0  0  0
 12 13  2  0  0  0
 12 96  1  0  0  0
 13 14  1  0  0  0
 13 31  1  0  0  0
 14 15  2  0  0  0
 14 97  1  0  0  0
 15 98  1  0  0  0
 16 17  2  0  0  0
 16 21  1  0  0  0
 16 31  1  0  0  0
 17 18  1  0  0  0
 17 99  1  0  0  0
 18 19  2  0  0  0
 18100  1  0  0  0
 19 20  1  0  0  0
 19 24  1  0  0  0
 20 21  2  0  0  0
 20101  1  0  0  0
 21 23  1  0  0  0
 22 28  1  0  0  0
 22 32  2  0  0  0
 26 27  1  0  0  0
 28102  1  0  0  0
 28103  1  0  0  0
 29104  1  0  0  0
 29105  1  0  0  0
 33 34  1  0  0  0
 33 66  1  0  0  0
 33 70  2  0  0  0
 34 36  1  0  0  0
 34 59  1  0  0  0
 34106  1  0  0  0
 35 44  2  0  0  0
 35 45  1  0  0  0
 35 68  1  0  0  0
 36 56  1  0  0  0
 36107  1  0  0  0
 37 39  1  0  0  0
 37 47  1  0  0  0
 37 66  1  0  0  0
 37108  1  0  0  0
 38 43  2  0  0  0
 38 46  1  0  0  0
 38 47  1  0  0  0
 39 64  1  0  0  0
 39 67  2  0  0  0
 40 52  1  0  0  0
 40 53  2  0  0  0
 40 58  1  0  0  0
 41109  1  0  0  0
 41110  1  0  0  0
 41111  1  0  0  0
 41 48  1  0  0  0
 42 43  1  0  0  0
 42 66  1  0  0  0
 42112  1  0  0  0
 42113  1  0  0  0
 43 44  1  0  0  0
 44114  1  0  0  0
 45 46  2  0  0  0
 45115  1  0  0  0
 46116  1  0  0  0
 47117  1  0  0  0
 47118  1  0  0  0
 48 56  1  0  0  0
 48 65  1  0  0  0
 48119  1  0  0  0
 49 50  1  0  0  0
 49 53  1  0  0  0
 49 64  1  0  0  0
 49120  1  0  0  0
 50 51  1  0  0  0
 50121  1  0  0  0
 50122  1  0  0  0
 51 52  1  0  0  0
 51123  1  0  0  0
 51124  1  0  0  0
 52125  1  0  0  0
 52126  1  0  0  0
 53 54  1  0  0  0
 54 55  2  0  0  0
 54127  1  0  0  0
 55 57  1  0  0  0
 55128  1  0  0  0
 56 69  2  0  0  0
 57 58  2  0  0  0
 57129  1  0  0  0
 58130  1  0  0  0
 59 60  1  0  0  0
 59 61  1  0  0  0
 59 62  1  0  0  0
 60131  1  0  0  0
 60132  1  0  0  0
 60133  1  0  0  0
 61134  1  0  0  0
 61135  1  0  0  0
 61136  1  0  0  0
 62137  1  0  0  0
 62138  1  0  0  0
 62139  1  0  0  0
 63 65  1  0  0  0
 63140  1  0  0  0
 63141  1  0  0  0
 63142  1  0  0  0
 64143  1  0  0  0
 65144  1  0  0  0
 68 81  1  0  0  0
 71 72  2  0  0  0
 71 73  1  0  0  0
 71145  1  0  0  0
 72 74  1  0  0  0
 72146  1  0  0  0
 73 77  1  0  0  0
 73 83  2  0  0  0
 74 82  1  0  0  0
 74 84  2  0  0  0
 75 78  1  0  0  0
 75147  1  0  0  0
 75148  1  0  0  0
 75149  1  0  0  0
 76150  1  0  0  0
 76151  1  0  0  0
 76152  1  0  0  0
 76 82  1  0  0  0
 77 81  1  0  0  0
 77153  1  0  0  0
 77154  1  0  0  0
 78 79  1  0  0  0
 78155  1  0  0  0
 78156  1  0  0  0
 79 85  1  0  0  0
 79157  1  0  0  0
 79158  1  0  0  0
 80 82  1  0  0  0
 80 85  1  0  0  0
 80159  1  0  0  0
 80160  1  0  0  0
 81161  1  0  0  0
 81162  1  0  0  0
 82163  1  0  0  0
 83 84  1  0  0  0
M  ISO  4   1 100  68 101  81 101  85 100
M  END
> <chiral flag>
0

> <version>
0

> <s_m_source_file>
/data/baiqing/PycharmProjects/Reinvent-master-3.2/result/LINK_invent/BTK/process_docking_weight1_custom_sum_contain_oxygen_bond_distance_aromatic_linkinvent_7_9_3/rearranged_h_0055.sdf

> <i_m_source_file_index>
5

> <r_mmod_Potential_Energy-OPLS-2005>
229.629745483398

> <r_mmod_Stretch_Energy-OPLS-2005>
98.5713653564453

> <r_mmod_Bend_Energy-OPLS-2005>
157.134323120117

> <r_mmod_Torsional_Energy-OPLS-2005>
269.414215087891

> <r_mmod_Improper_Torsional_Energy-OPLS-2005>
7.86696290969849

> <r_mmod_Van_der_Waal_Energy-OPLS-2005>
144.399017333984

> <r_mmod_Electrostatic_Energy-OPLS-2005>
-277.342529296875

> <r_mmod_Solvation_Energy-OPLS-2005>
-213.677536010742

> <b_mmod_Minimization_Converged-OPLS-2005>
0

> <r_mmod_RMS_Derivative-OPLS-2005>
4.3418984413147

$$$$
5
                    3D
 Structure written by MMmdl.
156164  0  0  1  0            999 V2000
  -30.4055  -15.3841   20.4045 C   0  0  0  0  0  0
  -30.4046  -12.8747   19.5908 C   0  0  0  0  0  0
  -29.5456  -12.6381   18.3225 C   0  0  0  0  0  0
  -28.0999  -12.3011   18.7218 C   0  0  0  0  0  0
  -27.5905  -13.2570   19.8229 C   0  0  2  0  0  0
  -28.5948  -13.5363   20.9686 C   0  0  0  0  0  0
  -25.2183  -13.7675   20.5912 C   0  0  0  0  0  0
  -24.1580  -12.9984   20.9311 C   0  0  0  0  0  0
  -24.6320  -11.6551   20.8703 C   0  0  0  0  0  0
  -23.9010  -10.4048   21.0330 C   0  0  0  0  0  0
  -24.3573   -9.4043   21.9157 C   0  0  0  0  0  0
  -23.6232   -8.2126   22.0773 C   0  0  0  0  0  0
  -22.4220   -8.0190   21.3553 C   0  0  0  0  0  0
  -21.9846   -9.0119   20.4621 C   0  0  0  0  0  0
  -22.7171  -10.1966   20.2983 C   0  0  0  0  0  0
  -21.6826   -6.0660   22.5320 C   0  0  0  0  0  0
  -21.3966   -6.5582   23.8241 C   0  0  0  0  0  0
  -21.3705   -5.6769   24.9225 C   0  0  0  0  0  0
  -21.6096   -4.3027   24.7306 C   0  0  0  0  0  0
  -21.8817   -3.8087   23.4423 C   0  0  0  0  0  0
  -21.9190   -4.6887   22.3454 C   0  0  0  0  0  0
  -22.7661  -13.4854   21.2009 C   0  0  0  0  0  0
  -22.1655   -4.2065   21.1031 F   0  0  0  0  0  0
  -21.5704   -3.4537   25.7828 F   0  0  0  0  0  0
  -29.8496  -14.0509   20.3797 N   0  0  0  0  0  0
  -26.2690  -12.9133   20.3210 N   0  0  0  0  0  0
  -25.9247  -11.6228   20.5553 N   0  0  0  0  0  0
  -22.0267  -12.7903   22.0516 N   0  0  0  0  0  0
  -25.3569  -15.1282   20.4722 N   0  0  0  0  0  0
  -31.5880  -15.3334   20.0124 O   0  0  0  0  0  0
  -21.6582   -6.8787   21.4275 O   0  0  0  0  0  0
  -22.3430  -14.5251   20.6930 O   0  0  0  0  0  0
  -24.6595  -31.8253   23.1662 C   0  0  0  0  0  0
  -25.9293  -32.4604   23.8103 C   0  0  1  0  0  0
  -27.2092  -26.9116   20.2116 C   0  0  0  0  0  0
  -25.5975  -33.8413   24.2031 N   0  0  0  0  0  0
  -23.4734  -30.4285   21.5210 C   0  0  2  0  0  0
  -24.9275  -28.8161   20.1068 C   0  0  0  0  0  0
  -22.7631  -29.4445   22.4854 C   0  0  0  0  0  0
  -18.0311  -28.1375   22.8549 C   0  0  0  0  0  0
  -24.1483  -36.7166   23.2638 C   0  0  0  0  0  0
  -26.0398  -30.6246   21.3996 C   0  0  0  0  0  0
  -26.1068  -29.2127   20.7475 C   0  0  0  0  0  0
  -27.2427  -28.2846   20.7684 C   0  0  0  0  0  0
  -26.0063  -26.6719   19.5076 C   0  0  0  0  0  0
  -24.9076  -27.5725   19.4549 C   0  0  0  0  0  0
  -23.7058  -29.7354   20.1495 C   0  0  0  0  0  0
  -25.4147  -36.2976   24.0290 C   0  0  1  0  0  0
  -20.5937  -28.3716   23.1266 C   0  0  2  0  0  0
  -20.6785  -26.9393   22.5455 C   0  0  0  0  0  0
  -19.5768  -26.6387   21.5253 C   0  0  0  0  0  0
  -18.1942  -26.7948   22.1648 C   0  0  0  0  0  0
  -19.1578  -28.8869   23.2893 C   0  0  0  0  0  0
  -18.9474  -30.1473   23.8919 C   0  0  0  0  0  0
  -17.6466  -30.6600   24.0545 C   0  0  0  0  0  0
  -25.9129  -34.9368   23.4998 C   0  0  0  0  0  0
  -16.5369  -29.9063   23.6349 C   0  0  0  0  0  0
  -16.7299  -28.6446   23.0466 C   0  0  0  0  0  0
  -26.4555  -31.6546   25.0623 C   0  0  0  0  0  0
  -25.3674  -31.3781   26.1261 C   0  0  0  0  0  0
  -27.0397  -30.2904   24.6319 C   0  0  0  0  0  0
  -27.6065  -32.4325   25.7417 C   0  0  0  0  0  0
  -27.5593  -37.1720   24.8454 C   0  0  0  0  0  0
  -21.4302  -29.2993   22.3586 N   0  0  0  0  0  0
  -26.4283  -37.3723   23.9430 N   0  0  0  0  0  0
  -24.7447  -30.9881   22.0823 N   0  0  0  0  0  0
  -23.4181  -28.8064   23.3127 O   0  0  0  0  0  0
  -28.2151  -25.8082   20.3143 O   0  0  0  0  0  0
  -26.5753  -34.8921   22.4602 O   0  0  0  0  0  0
  -23.5675  -32.1228   23.6760 O   0  0  0  0  0  0
  -28.9050  -20.9616   20.4134 C   0  0  0  0  0  0
  -28.0457  -18.9714   20.0086 C   0  0  0  0  0  0
  -25.6610  -18.6676   19.1305 C   0  0  0  0  0  0
  -26.4122  -17.7095   21.3255 C   0  0  0  0  0  0
  -27.3276  -16.8586   18.9768 C   0  0  0  0  0  0
  -29.0595  -22.7125   20.4851 C   0  0  0  0  0  0
  -29.8190  -16.9865   20.9882 C   0  0  0  0  0  0
  -27.9787  -24.1597   20.2978 C   0  0  0  0  0  0
  -26.8748  -18.0357   19.8702 C   0  0  0  0  0  0
  -27.8088  -20.3221   19.9044 N   0  0  0  0  0  0
  -29.8152  -19.9063   20.7490 N   0  0  0  0  0  0
  -29.2794  -18.5446   20.4511 N   0  0  0  0  0  0
  -31.4406  -13.0260   19.2966 H   0  0  0  0  0  0
  -30.4119  -11.9772   20.2118 H   0  0  0  0  0  0
  -29.9659  -11.8322   17.7188 H   0  0  0  0  0  0
  -29.5687  -13.5353   17.7022 H   0  0  0  0  0  0
  -28.0747  -11.2709   19.0750 H   0  0  0  0  0  0
  -27.4468  -12.3495   17.8490 H   0  0  0  0  0  0
  -27.4594  -14.1840   19.2796 H   0  0  0  0  0  0
  -28.7589  -12.6532   21.5867 H   0  0  0  0  0  0
  -28.1693  -14.2960   21.6260 H   0  0  0  0  0  0
  -25.2698   -9.5574   22.4729 H   0  0  0  0  0  0
  -23.9965   -7.4499   22.7475 H   0  0  0  0  0  0
  -21.0821   -8.8607   19.8854 H   0  0  0  0  0  0
  -22.3655  -10.9526   19.6105 H   0  0  0  0  0  0
  -21.1860   -7.6067   23.9736 H   0  0  0  0  0  0
  -21.1575   -6.0481   25.9138 H   0  0  0  0  0  0
  -22.0552   -2.7541   23.2977 H   0  0  0  0  0  0
  -22.3808  -11.9469   22.4761 H   0  0  0  0  0  0
  -21.0919  -13.1045   22.2690 H   0  0  0  0  0  0
  -24.5933  -15.7655   20.6562 H   0  0  0  0  0  0
  -26.2313  -15.5970   20.2798 H   0  0  0  0  0  0
  -26.7347  -32.5134   23.0787 H   0  0  0  0  0  0
  -25.0037  -33.9477   25.0127 H   0  0  0  0  0  0
  -22.7849  -31.2588   21.3499 H   0  0  0  0  0  0
  -23.3838  -35.9397   23.3221 H   0  0  0  0  0  0
  -24.3564  -36.8896   22.2067 H   0  0  0  0  0  0
  -23.7108  -37.6264   23.6765 H   0  0  0  0  0  0
  -26.2243  -31.3632   20.6187 H   0  0  0  0  0  0
  -26.8986  -30.6804   22.0570 H   0  0  0  0  0  0
  -28.1358  -28.5866   21.2942 H   0  0  0  0  0  0
  -25.8779  -25.7204   19.0120 H   0  0  0  0  0  0
  -24.0174  -27.2751   18.9175 H   0  0  0  0  0  0
  -23.8231  -30.4933   19.3729 H   0  0  0  0  0  0
  -22.8177  -29.1652   19.8687 H   0  0  0  0  0  0
  -25.1335  -36.1764   25.0773 H   0  0  0  0  0  0
  -21.0041  -28.3300   24.1386 H   0  0  0  0  0  0
  -20.5692  -26.2296   23.3670 H   0  0  0  0  0  0
  -21.6648  -26.7382   22.1250 H   0  0  0  0  0  0
  -19.6904  -25.6296   21.1289 H   0  0  0  0  0  0
  -19.6724  -27.3202   20.6795 H   0  0  0  0  0  0
  -17.4224  -26.6789   21.4015 H   0  0  0  0  0  0
  -18.0257  -26.0047   22.8985 H   0  0  0  0  0  0
  -19.7935  -30.7290   24.2323 H   0  0  0  0  0  0
  -17.4999  -31.6313   24.5076 H   0  0  0  0  0  0
  -15.5362  -30.2958   23.7666 H   0  0  0  0  0  0
  -15.8707  -28.0708   22.7296 H   0  0  0  0  0  0
  -24.5967  -30.7003   25.7563 H   0  0  0  0  0  0
  -24.8737  -32.2966   26.4446 H   0  0  0  0  0  0
  -25.7918  -30.9132   27.0172 H   0  0  0  0  0  0
  -26.3029  -29.6650   24.1265 H   0  0  0  0  0  0
  -27.3862  -29.7185   25.4936 H   0  0  0  0  0  0
  -27.9019  -30.4056   23.9742 H   0  0  0  0  0  0
  -27.2694  -33.3727   26.1784 H   0  0  0  0  0  0
  -28.3994  -32.6702   25.0314 H   0  0  0  0  0  0
  -28.0603  -31.8566   26.5484 H   0  0  0  0  0  0
  -28.2543  -38.0088   24.7662 H   0  0  0  0  0  0
  -28.1181  -36.2639   24.6134 H   0  0  0  0  0  0
  -27.2342  -37.1162   25.8858 H   0  0  0  0  0  0
  -20.9544  -29.8522   21.6599 H   0  0  0  0  0  0
  -26.0143  -38.2760   24.1558 H   0  0  0  0  0  0
  -25.1937  -19.4720   19.7045 H   0  0  0  0  0  0
  -24.8675  -17.9349   18.9572 H   0  0  0  0  0  0
  -25.9392  -19.0622   18.1537 H   0  0  0  0  0  0
  -26.6151  -18.5440   22.0010 H   0  0  0  0  0  0
  -26.8930  -16.8419   21.7797 H   0  0  0  0  0  0
  -25.3338  -17.5601   21.3953 H   0  0  0  0  0  0
  -27.8480  -17.2199   18.0898 H   0  0  0  0  0  0
  -26.5182  -16.2404   18.5960 H   0  0  0  0  0  0
  -28.0236  -16.2104   19.4866 H   0  0  0  0  0  0
  -29.8749  -22.9220   19.7973 H   0  0  0  0  0  0
  -29.5158  -22.8873   21.4592 H   0  0  0  0  0  0
  -29.0761  -16.6903   21.7261 H   0  0  0  0  0  0
  -30.6700  -17.2551   21.6109 H   0  0  0  0  0  0
  -27.2142  -24.0221   21.0633 H   0  0  0  0  0  0
  -27.4403  -23.9716   19.3693 H   0  0  0  0  0  0
  1 25  1  0  0  0
  1 30  2  0  0  0
  1 77  1  0  0  0
  2  3  1  0  0  0
  2 25  1  0  0  0
  2 83  1  0  0  0
  2 84  1  0  0  0
  3  4  1  0  0  0
  3 85  1  0  0  0
  3 86  1  0  0  0
  4  5  1  0  0  0
  4 87  1  0  0  0
  4 88  1  0  0  0
  5  6  1  0  0  0
  5 26  1  0  0  0
  5 89  1  0  0  0
  6 25  1  0  0  0
  6 90  1  0  0  0
  6 91  1  0  0  0
  7  8  2  0  0  0
  7 26  1  0  0  0
  7 29  1  0  0  0
  8  9  1  0  0  0
  8 22  1  0  0  0
  9 10  1  0  0  0
  9 27  2  0  0  0
 10 11  2  0  0  0
 10 15  1  0  0  0
 11 12  1  0  0  0
 11 92  1  0  0  0
 12 13  2  0  0  0
 12 93  1  0  0  0
 13 14  1  0  0  0
 13 31  1  0  0  0
 14 15  2  0  0  0
 14 94  1  0  0  0
 15 95  1  0  0  0
 16 17  2  0  0  0
 16 21  1  0  0  0
 16 31  1  0  0  0
 17 18  1  0  0  0
 17 96  1  0  0  0
 18 19  2  0  0  0
 18 97  1  0  0  0
 19 20  1  0  0  0
 19 24  1  0  0  0
 20 21  2  0  0  0
 20 98  1  0  0  0
 21 23  1  0  0  0
 22 28  1  0  0  0
 22 32  2  0  0  0
 26 27  1  0  0  0
 28 99  1  0  0  0
 28100  1  0  0  0
 29101  1  0  0  0
 29102  1  0  0  0
 33 34  1  0  0  0
 33 66  1  0  0  0
 33 70  2  0  0  0
 34 36  1  0  0  0
 34 59  1  0  0  0
 34103  1  0  0  0
 35 44  2  0  0  0
 35 45  1  0  0  0
 35 68  1  0  0  0
 36 56  1  0  0  0
 36104  1  0  0  0
 37 39  1  0  0  0
 37 47  1  0  0  0
 37 66  1  0  0  0
 37105  1  0  0  0
 38 43  2  0  0  0
 38 46  1  0  0  0
 38 47  1  0  0  0
 39 64  1  0  0  0
 39 67  2  0  0  0
 40 52  1  0  0  0
 40 53  2  0  0  0
 40 58  1  0  0  0
 41106  1  0  0  0
 41107  1  0  0  0
 41108  1  0  0  0
 41 48  1  0  0  0
 42 43  1  0  0  0
 42 66  1  0  0  0
 42109  1  0  0  0
 42110  1  0  0  0
 43 44  1  0  0  0
 44111  1  0  0  0
 45 46  2  0  0  0
 45112  1  0  0  0
 46113  1  0  0  0
 47114  1  0  0  0
 47115  1  0  0  0
 48 56  1  0  0  0
 48 65  1  0  0  0
 48116  1  0  0  0
 49 50  1  0  0  0
 49 53  1  0  0  0
 49 64  1  0  0  0
 49117  1  0  0  0
 50 51  1  0  0  0
 50118  1  0  0  0
 50119  1  0  0  0
 51 52  1  0  0  0
 51120  1  0  0  0
 51121  1  0  0  0
 52122  1  0  0  0
 52123  1  0  0  0
 53 54  1  0  0  0
 54 55  2  0  0  0
 54124  1  0  0  0
 55 57  1  0  0  0
 55125  1  0  0  0
 56 69  2  0  0  0
 57 58  2  0  0  0
 57126  1  0  0  0
 58127  1  0  0  0
 59 60  1  0  0  0
 59 61  1  0  0  0
 59 62  1  0  0  0
 60128  1  0  0  0
 60129  1  0  0  0
 60130  1  0  0  0
 61131  1  0  0  0
 61132  1  0  0  0
 61133  1  0  0  0
 62134  1  0  0  0
 62135  1  0  0  0
 62136  1  0  0  0
 63 65  1  0  0  0
 63137  1  0  0  0
 63138  1  0  0  0
 63139  1  0  0  0
 64140  1  0  0  0
 65141  1  0  0  0
 68 78  1  0  0  0
 71 76  1  0  0  0
 71 80  1  0  0  0
 71 81  2  0  0  0
 72 79  1  0  0  0
 72 80  2  0  0  0
 72 82  1  0  0  0
 73142  1  0  0  0
 73143  1  0  0  0
 73144  1  0  0  0
 73 79  1  0  0  0
 74 79  1  0  0  0
 74145  1  0  0  0
 74146  1  0  0  0
 74147  1  0  0  0
 75 79  1  0  0  0
 75148  1  0  0  0
 75149  1  0  0  0
 75150  1  0  0  0
 76 78  1  0  0  0
 76151  1  0  0  0
 76152  1  0  0  0
 77 82  1  0  0  0
 77153  1  0  0  0
 77154  1  0  0  0
 78155  1  0  0  0
 78156  1  0  0  0
 81 82  1  0  0  0
M  ISO  4   1 100  68 101  77 100  78 101
M  END
> <chiral flag>
0

> <version>
0

> <s_m_source_file>
/data/baiqing/PycharmProjects/Reinvent-master-3.2/result/LINK_invent/BTK/process_docking_weight1_custom_sum_contain_oxygen_bond_distance_aromatic_linkinvent_7_9_3/rearranged_h_0055.sdf

> <i_m_source_file_index>
6

> <r_mmod_Potential_Energy-OPLS-2005>
1586.67956542969

> <r_mmod_Stretch_Energy-OPLS-2005>
687.473754882812

> <r_mmod_Bend_Energy-OPLS-2005>
542.068542480469

> <r_mmod_Torsional_Energy-OPLS-2005>
218.637115478516

> <r_mmod_Improper_Torsional_Energy-OPLS-2005>
7.13245487213135

> <r_mmod_Van_der_Waal_Energy-OPLS-2005>
133.602737426758

> <r_mmod_Electrostatic_Energy-OPLS-2005>
-327.527099609375

> <r_mmod_Solvation_Energy-OPLS-2005>
-216.427963256836

> <b_mmod_Minimization_Converged-OPLS-2005>
0

> <r_mmod_RMS_Derivative-OPLS-2005>
7.03795528411865

$$$$
6
                    3D
 Structure written by MMmdl.
166174  0  0  1  0            999 V2000
  -30.6899  -14.6365   20.5127 C   0  0  0  0  0  0
  -30.4333  -12.3964   19.4686 C   0  0  0  0  0  0
  -29.5166  -12.5117   18.2308 C   0  0  0  0  0  0
  -28.0414  -12.3575   18.6391 C   0  0  0  0  0  0
  -27.6593  -13.2275   19.8692 C   0  0  2  0  0  0
  -28.7080  -13.1112   20.9980 C   0  0  0  0  0  0
  -25.2617  -13.8177   20.5699 C   0  0  0  0  0  0
  -24.1897  -13.0426   20.9143 C   0  0  0  0  0  0
  -24.6449  -11.6915   20.8710 C   0  0  0  0  0  0
  -23.9111  -10.4295   21.0378 C   0  0  0  0  0  0
  -24.3625   -9.4198   21.9155 C   0  0  0  0  0  0
  -23.6279   -8.2250   22.0750 C   0  0  0  0  0  0
  -22.4261   -8.0287   21.3532 C   0  0  0  0  0  0
  -21.9909   -9.0279   20.4640 C   0  0  0  0  0  0
  -22.7268  -10.2142   20.3037 C   0  0  0  0  0  0
  -21.6854   -6.0728   22.5256 C   0  0  0  0  0  0
  -21.4016   -6.5646   23.8172 C   0  0  0  0  0  0
  -21.3654   -5.6793   24.9139 C   0  0  0  0  0  0
  -21.6028   -4.3055   24.7184 C   0  0  0  0  0  0
  -21.8810   -3.8142   23.4319 C   0  0  0  0  0  0
  -21.9200   -4.6968   22.3376 C   0  0  0  0  0  0
  -22.7917  -13.5269   21.1784 C   0  0  0  0  0  0
  -22.1686   -4.2166   21.0960 F   0  0  0  0  0  0
  -21.5609   -3.4521   25.7687 F   0  0  0  0  0  0
  -30.0165  -13.4443   20.4234 N   0  0  0  0  0  0
  -26.3059  -12.9374   20.3368 N   0  0  0  0  0  0
  -25.9392  -11.6514   20.5757 N   0  0  0  0  0  0
  -22.0626  -12.8285   22.0414 N   0  0  0  0  0  0
  -25.4392  -15.1892   20.4214 N   0  0  0  0  0  0
  -31.8423  -14.7295   20.0832 O   0  0  0  0  0  0
  -21.6630   -6.8886   21.4221 O   0  0  0  0  0  0
  -22.3617  -14.5554   20.6640 O   0  0  0  0  0  0
  -24.6263  -31.8591   23.2011 C   0  0  0  0  0  0
  -25.9148  -32.4752   23.8303 C   0  0  1  0  0  0
  -27.1989  -27.3121   20.1313 C   0  0  0  0  0  0
  -25.5953  -33.8546   24.2222 N   0  0  0  0  0  0
  -23.4124  -30.4845   21.5499 C   0  0  2  0  0  0
  -24.8490  -28.9302   20.1212 C   0  0  0  0  0  0
  -22.7421  -29.4634   22.4989 C   0  0  0  0  0  0
  -18.0282  -28.1381   22.8497 C   0  0  0  0  0  0
  -24.1475  -36.7245   23.2633 C   0  0  0  0  0  0
  -25.9549  -30.7922   21.3646 C   0  0  0  0  0  0
  -26.0265  -29.4207   20.7041 C   0  0  0  0  0  0
  -27.2116  -28.6274   20.6853 C   0  0  0  0  0  0
  -25.9996  -26.8560   19.5550 C   0  0  0  0  0  0
  -24.8351  -27.6483   19.5455 C   0  0  0  0  0  0
  -23.6177  -29.8126   20.1690 C   0  0  0  0  0  0
  -25.4109  -36.3048   24.0311 C   0  0  1  0  0  0
  -20.5870  -28.3680   23.1282 C   0  0  2  0  0  0
  -20.6773  -26.9402   22.5419 C   0  0  0  0  0  0
  -19.5767  -26.6386   21.5199 C   0  0  0  0  0  0
  -18.1945  -26.7938   22.1614 C   0  0  0  0  0  0
  -19.1531  -28.8851   23.2890 C   0  0  0  0  0  0
  -18.9459  -30.1453   23.8892 C   0  0  0  0  0  0
  -17.6463  -30.6599   24.0561 C   0  0  0  0  0  0
  -25.9046  -34.9435   23.5066 C   0  0  0  0  0  0
  -16.5346  -29.9084   23.6371 C   0  0  0  0  0  0
  -16.7269  -28.6500   23.0403 C   0  0  0  0  0  0
  -26.4522  -31.6587   25.0691 C   0  0  0  0  0  0
  -25.3754  -31.3742   26.1418 C   0  0  0  0  0  0
  -27.0354  -30.3009   24.6171 C   0  0  0  0  0  0
  -27.6065  -32.4324   25.7476 C   0  0  0  0  0  0
  -27.5571  -37.1768   24.8482 C   0  0  0  0  0  0
  -21.4147  -29.3028   22.3676 N   0  0  0  0  0  0
  -26.4279  -37.3768   23.9419 N   0  0  0  0  0  0
  -24.6846  -31.0596   22.0957 N   0  0  0  0  0  0
  -23.4154  -28.8199   23.3084 O   0  0  0  0  0  0
  -28.2968  -26.4459   20.1359 O   0  0  0  0  0  0
  -26.5651  -34.8924   22.4637 O   0  0  0  0  0  0
  -23.5431  -32.1401   23.7360 O   0  0  0  0  0  0
  -28.5790  -19.1107   19.5201 C   0  0  0  0  0  0
  -29.9247  -20.4111   21.4421 C   0  0  0  0  0  0
  -29.5960  -18.4268   20.2465 C   0  0  0  0  0  0
  -28.8602  -21.0826   20.7591 C   0  0  0  0  0  0
  -26.3245  -21.0680   22.4664 C   0  0  0  0  0  0
  -28.4861  -16.5085   22.7068 C   0  0  0  0  0  0
  -28.8002  -22.7987   22.6434 C   0  0  0  0  0  0
  -30.0301  -16.9617   19.8760 C   0  0  0  0  0  0
  -26.6794  -22.1850   21.4572 C   0  0  0  0  0  0
  -28.3918  -23.7311   20.2927 C   0  0  0  0  0  0
  -29.9103  -16.1215   22.2617 C   0  0  0  0  0  0
  -28.1530  -25.1934   20.9144 C   0  0  0  0  0  0
  -28.2105  -22.4479   21.2521 C   0  0  2  0  0  0
  -30.3037  -19.1217   21.1800 N   0  0  0  0  0  0
  -28.2324  -20.4128   19.7516 N   0  0  0  0  0  0
  -29.9875  -15.7840   20.8313 N   0  0  0  0  0  0
  -31.4805  -12.4860   19.1690 H   0  0  0  0  0  0
  -30.3448  -11.4153   19.9381 H   0  0  0  0  0  0
  -29.7832  -11.7574   17.4892 H   0  0  0  0  0  0
  -29.6631  -13.4832   17.7560 H   0  0  0  0  0  0
  -27.8724  -11.3038   18.8627 H   0  0  0  0  0  0
  -27.3936  -12.6011   17.7973 H   0  0  0  0  0  0
  -27.6735  -14.2628   19.5283 H   0  0  0  0  0  0
  -28.7334  -12.1037   21.4147 H   0  0  0  0  0  0
  -28.4613  -13.7704   21.8295 H   0  0  0  0  0  0
  -25.2755   -9.5640   22.4739 H   0  0  0  0  0  0
  -23.9950   -7.4640   22.7496 H   0  0  0  0  0  0
  -21.0785   -8.8834   19.8993 H   0  0  0  0  0  0
  -22.3701  -10.9691   19.6173 H   0  0  0  0  0  0
  -21.2044   -7.6149   23.9664 H   0  0  0  0  0  0
  -21.1493   -6.0543   25.9035 H   0  0  0  0  0  0
  -22.0615   -2.7614   23.2811 H   0  0  0  0  0  0
  -22.4294  -11.9957   22.4757 H   0  0  0  0  0  0
  -21.1306  -13.1414   22.2759 H   0  0  0  0  0  0
  -24.6815  -15.8497   20.5547 H   0  0  0  0  0  0
  -26.3080  -15.6274   20.1482 H   0  0  0  0  0  0
  -26.7212  -32.5408   23.1029 H   0  0  0  0  0  0
  -25.0059  -33.9681   25.0350 H   0  0  0  0  0  0
  -22.7056  -31.3078   21.4133 H   0  0  0  0  0  0
  -23.3737  -35.9579   23.3331 H   0  0  0  0  0  0
  -24.3556  -36.8842   22.2041 H   0  0  0  0  0  0
  -23.7248  -37.6441   23.6667 H   0  0  0  0  0  0
  -26.0889  -31.5523   20.5926 H   0  0  0  0  0  0
  -26.8324  -30.8317   22.0006 H   0  0  0  0  0  0
  -28.1232  -29.0038   21.1240 H   0  0  0  0  0  0
  -25.9536  -25.8581   19.1414 H   0  0  0  0  0  0
  -23.9216  -27.2374   19.1357 H   0  0  0  0  0  0
  -23.7438  -30.5864   19.4117 H   0  0  0  0  0  0
  -22.7301  -29.2499   19.8703 H   0  0  0  0  0  0
  -25.1308  -36.1854   25.0808 H   0  0  0  0  0  0
  -20.9994  -28.3259   24.1383 H   0  0  0  0  0  0
  -20.5659  -26.2258   23.3605 H   0  0  0  0  0  0
  -21.6643  -26.7440   22.1209 H   0  0  0  0  0  0
  -19.6913  -25.6291   21.1244 H   0  0  0  0  0  0
  -19.6724  -27.3171   20.6708 H   0  0  0  0  0  0
  -17.4208  -26.6681   21.4025 H   0  0  0  0  0  0
  -18.0367  -26.0056   22.8987 H   0  0  0  0  0  0
  -19.7918  -30.7295   24.2236 H   0  0  0  0  0  0
  -17.5014  -31.6294   24.5132 H   0  0  0  0  0  0
  -15.5346  -30.3004   23.7699 H   0  0  0  0  0  0
  -15.8660  -28.0818   22.7165 H   0  0  0  0  0  0
  -24.5899  -30.7134   25.7744 H   0  0  0  0  0  0
  -24.8968  -32.2904   26.4876 H   0  0  0  0  0  0
  -25.8052  -30.8878   27.0183 H   0  0  0  0  0  0
  -26.2923  -29.6740   24.1205 H   0  0  0  0  0  0
  -27.4049  -29.7308   25.4707 H   0  0  0  0  0  0
  -27.8810  -30.4279   23.9401 H   0  0  0  0  0  0
  -27.2678  -33.3641   26.2039 H   0  0  0  0  0  0
  -28.3885  -32.6854   25.0302 H   0  0  0  0  0  0
  -28.0727  -31.8452   26.5406 H   0  0  0  0  0  0
  -28.2597  -38.0060   24.7513 H   0  0  0  0  0  0
  -28.1056  -36.2574   24.6322 H   0  0  0  0  0  0
  -27.2289  -37.1440   25.8894 H   0  0  0  0  0  0
  -20.9312  -29.8598   21.6770 H   0  0  0  0  0  0
  -26.0128  -38.2822   24.1452 H   0  0  0  0  0  0
  -28.0249  -18.6182   18.7331 H   0  0  0  0  0  0
  -30.4533  -20.8801   22.2584 H   0  0  0  0  0  0
  -25.2524  -20.8895   22.4587 H   0  0  0  0  0  0
  -26.5885  -21.3387   23.4893 H   0  0  0  0  0  0
  -26.8178  -20.1188   22.2496 H   0  0  0  0  0  0
  -28.3869  -16.4106   23.7889 H   0  0  0  0  0  0
  -27.7320  -15.8706   22.2435 H   0  0  0  0  0  0
  -28.2394  -17.5420   22.4546 H   0  0  0  0  0  0
  -28.7097  -21.9678   23.3445 H   0  0  0  0  0  0
  -28.2868  -23.6384   23.1111 H   0  0  0  0  0  0
  -29.8619  -23.0401   22.5824 H   0  0  0  0  0  0
  -31.0238  -17.0448   19.4326 H   0  0  0  0  0  0
  -29.3877  -16.6691   19.0457 H   0  0  0  0  0  0
  -26.1549  -23.0918   21.7630 H   0  0  0  0  0  0
  -26.2244  -21.9254   20.4983 H   0  0  0  0  0  0
  -29.4027  -23.7045   19.8948 H   0  0  0  0  0  0
  -27.7358  -23.6018   19.4314 H   0  0  0  0  0  0
  -30.2454  -15.2731   22.8645 H   0  0  0  0  0  0
  -30.6214  -16.9115   22.5005 H   0  0  0  0  0  0
  -28.8894  -25.3132   21.7118 H   0  0  0  0  0  0
  -27.1833  -25.1931   21.4134 H   0  0  0  0  0  0
  1 25  1  0  0  0
  1 30  2  0  0  0
  1 86  1  0  0  0
  2  3  1  0  0  0
  2 25  1  0  0  0
  2 87  1  0  0  0
  2 88  1  0  0  0
  3  4  1  0  0  0
  3 89  1  0  0  0
  3 90  1  0  0  0
  4  5  1  0  0  0
  4 91  1  0  0  0
  4 92  1  0  0  0
  5  6  1  0  0  0
  5 26  1  0  0  0
  5 93  1  0  0  0
  6 25  1  0  0  0
  6 94  1  0  0  0
  6 95  1  0  0  0
  7  8  2  0  0  0
  7 26  1  0  0  0
  7 29  1  0  0  0
  8  9  1  0  0  0
  8 22  1  0  0  0
  9 10  1  0  0  0
  9 27  2  0  0  0
 10 11  2  0  0  0
 10 15  1  0  0  0
 11 12  1  0  0  0
 11 96  1  0  0  0
 12 13  2  0  0  0
 12 97  1  0  0  0
 13 14  1  0  0  0
 13 31  1  0  0  0
 14 15  2  0  0  0
 14 98  1  0  0  0
 15 99  1  0  0  0
 16 17  2  0  0  0
 16 21  1  0  0  0
 16 31  1  0  0  0
 17 18  1  0  0  0
 17100  1  0  0  0
 18 19  2  0  0  0
 18101  1  0  0  0
 19 20  1  0  0  0
 19 24  1  0  0  0
 20 21  2  0  0  0
 20102  1  0  0  0
 21 23  1  0  0  0
 22 28  1  0  0  0
 22 32  2  0  0  0
 26 27  1  0  0  0
 28103  1  0  0  0
 28104  1  0  0  0
 29105  1  0  0  0
 29106  1  0  0  0
 33 34  1  0  0  0
 33 66  1  0  0  0
 33 70  2  0  0  0
 34 36  1  0  0  0
 34 59  1  0  0  0
 34107  1  0  0  0
 35 44  2  0  0  0
 35 45  1  0  0  0
 35 68  1  0  0  0
 36 56  1  0  0  0
 36108  1  0  0  0
 37 39  1  0  0  0
 37 47  1  0  0  0
 37 66  1  0  0  0
 37109  1  0  0  0
 38 43  2  0  0  0
 38 46  1  0  0  0
 38 47  1  0  0  0
 39 64  1  0  0  0
 39 67  2  0  0  0
 40 52  1  0  0  0
 40 53  2  0  0  0
 40 58  1  0  0  0
 41110  1  0  0  0
 41111  1  0  0  0
 41112  1  0  0  0
 41 48  1  0  0  0
 42 43  1  0  0  0
 42 66  1  0  0  0
 42113  1  0  0  0
 42114  1  0  0  0
 43 44  1  0  0  0
 44115  1  0  0  0
 45 46  2  0  0  0
 45116  1  0  0  0
 46117  1  0  0  0
 47118  1  0  0  0
 47119  1  0  0  0
 48 56  1  0  0  0
 48 65  1  0  0  0
 48120  1  0  0  0
 49 50  1  0  0  0
 49 53  1  0  0  0
 49 64  1  0  0  0
 49121  1  0  0  0
 50 51  1  0  0  0
 50122  1  0  0  0
 50123  1  0  0  0
 51 52  1  0  0  0
 51124  1  0  0  0
 51125  1  0  0  0
 52126  1  0  0  0
 52127  1  0  0  0
 53 54  1  0  0  0
 54 55  2  0  0  0
 54128  1  0  0  0
 55 57  1  0  0  0
 55129  1  0  0  0
 56 69  2  0  0  0
 57 58  2  0  0  0
 57130  1  0  0  0
 58131  1  0  0  0
 59 60  1  0  0  0
 59 61  1  0  0  0
 59 62  1  0  0  0
 60132  1  0  0  0
 60133  1  0  0  0
 60134  1  0  0  0
 61135  1  0  0  0
 61136  1  0  0  0
 61137  1  0  0  0
 62138  1  0  0  0
 62139  1  0  0  0
 62140  1  0  0  0
 63 65  1  0  0  0
 63141  1  0  0  0
 63142  1  0  0  0
 63143  1  0  0  0
 64144  1  0  0  0
 65145  1  0  0  0
 68 82  1  0  0  0
 71 73  2  0  0  0
 71 85  1  0  0  0
 71146  1  0  0  0
 72 74  1  0  0  0
 72 84  2  0  0  0
 72147  1  0  0  0
 73 78  1  0  0  0
 73 84  1  0  0  0
 74 83  1  0  0  0
 74 85  2  0  0  0
 75 79  1  0  0  0
 75148  1  0  0  0
 75149  1  0  0  0
 75150  1  0  0  0
 76 81  1  0  0  0
 76151  1  0  0  0
 76152  1  0  0  0
 76153  1  0  0  0
 77154  1  0  0  0
 77155  1  0  0  0
 77156  1  0  0  0
 77 83  1  0  0  0
 78 86  1  0  0  0
 78157  1  0  0  0
 78158  1  0  0  0
 79 83  1  0  0  0
 79159  1  0  0  0
 79160  1  0  0  0
 80 82  1  0  0  0
 80 83  1  0  0  0
 80161  1  0  0  0
 80162  1  0  0  0
 81 86  1  0  0  0
 81163  1  0  0  0
 81164  1  0  0  0
 82165  1  0  0  0
 82166  1  0  0  0
M  ISO  4   1 100  68 101  82 101  86 100
M  END
> <chiral flag>
0

> <version>
0

> <s_m_source_file>
/data/baiqing/PycharmProjects/Reinvent-master-3.2/result/LINK_invent/BTK/process_docking_weight1_custom_sum_contain_oxygen_bond_distance_aromatic_linkinvent_7_9_3/rearranged_h_0055.sdf

> <i_m_source_file_index>
7

> <r_mmod_Potential_Energy-OPLS-2005>
341.037261962891

> <r_mmod_Stretch_Energy-OPLS-2005>
94.987678527832

> <r_mmod_Bend_Energy-OPLS-2005>
156.431442260742

> <r_mmod_Torsional_Energy-OPLS-2005>
312.107574462891

> <r_mmod_Improper_Torsional_Energy-OPLS-2005>
10.2339286804199

> <r_mmod_Van_der_Waal_Energy-OPLS-2005>
155.606109619141

> <r_mmod_Electrostatic_Energy-OPLS-2005>
-242.373886108398

> <r_mmod_Solvation_Energy-OPLS-2005>
-197.210998535156

> <b_mmod_Minimization_Converged-OPLS-2005>
0

> <r_mmod_RMS_Derivative-OPLS-2005>
6.0803279876709

$$$$
7
                    3D
 Structure written by MMmdl.
167175  0  0  1  0            999 V2000
  -30.5934  -14.7899   20.3622 C   0  0  0  0  0  0
  -30.4489  -12.4553   19.4704 C   0  0  0  0  0  0
  -29.5161  -12.3716   18.2398 C   0  0  0  0  0  0
  -28.0296  -12.2797   18.6546 C   0  0  0  0  0  0
  -27.6316  -13.2092   19.8350 C   0  0  2  0  0  0
  -28.6906  -13.2074   20.9560 C   0  0  0  0  0  0
  -25.2525  -13.8136   20.5736 C   0  0  0  0  0  0
  -24.1786  -13.0418   20.9236 C   0  0  0  0  0  0
  -24.6350  -11.6887   20.8794 C   0  0  0  0  0  0
  -23.9031  -10.4278   21.0438 C   0  0  0  0  0  0
  -24.3597   -9.4191   21.9202 C   0  0  0  0  0  0
  -23.6285   -8.2222   22.0752 C   0  0  0  0  0  0
  -22.4268   -8.0264   21.3538 C   0  0  0  0  0  0
  -21.9896   -9.0237   20.4643 C   0  0  0  0  0  0
  -22.7215  -10.2124   20.3071 C   0  0  0  0  0  0
  -21.6846   -6.0731   22.5279 C   0  0  0  0  0  0
  -21.4007   -6.5637   23.8212 C   0  0  0  0  0  0
  -21.3657   -5.6790   24.9174 C   0  0  0  0  0  0
  -21.6043   -4.3053   24.7222 C   0  0  0  0  0  0
  -21.8820   -3.8143   23.4344 C   0  0  0  0  0  0
  -21.9191   -4.6959   22.3402 C   0  0  0  0  0  0
  -22.7815  -13.5226   21.1877 C   0  0  0  0  0  0
  -22.1657   -4.2146   21.0980 F   0  0  0  0  0  0
  -21.5636   -3.4536   25.7736 F   0  0  0  0  0  0
  -29.9748  -13.5567   20.3359 N   0  0  0  0  0  0
  -26.2907  -12.9279   20.3309 N   0  0  0  0  0  0
  -25.9271  -11.6458   20.5827 N   0  0  0  0  0  0
  -22.0449  -12.8222   22.0427 N   0  0  0  0  0  0
  -25.4279  -15.1858   20.4174 N   0  0  0  0  0  0
  -31.8229  -14.8575   20.2748 O   0  0  0  0  0  0
  -21.6630   -6.8865   21.4236 O   0  0  0  0  0  0
  -22.3514  -14.5532   20.6716 O   0  0  0  0  0  0
  -24.6287  -31.8560   23.1979 C   0  0  0  0  0  0
  -25.9118  -32.4762   23.8326 C   0  0  1  0  0  0
  -27.2300  -27.2805   20.1422 C   0  0  0  0  0  0
  -25.5922  -33.8563   24.2256 N   0  0  0  0  0  0
  -23.4253  -30.4761   21.5408 C   0  0  2  0  0  0
  -24.8751  -28.9179   20.1164 C   0  0  0  0  0  0
  -22.7489  -29.4604   22.4922 C   0  0  0  0  0  0
  -18.0290  -28.1385   22.8484 C   0  0  0  0  0  0
  -24.1489  -36.7287   23.2636 C   0  0  0  0  0  0
  -25.9680  -30.7771   21.3724 C   0  0  0  0  0  0
  -26.0442  -29.3981   20.7205 C   0  0  0  0  0  0
  -27.2257  -28.5934   20.7167 C   0  0  0  0  0  0
  -26.0405  -26.8576   19.5117 C   0  0  0  0  0  0
  -24.8770  -27.6547   19.5010 C   0  0  0  0  0  0
  -23.6441  -29.8034   20.1591 C   0  0  0  0  0  0
  -25.4113  -36.3073   24.0328 C   0  0  1  0  0  0
  -20.5892  -28.3692   23.1280 C   0  0  2  0  0  0
  -20.6779  -26.9412   22.5412 C   0  0  0  0  0  0
  -19.5757  -26.6383   21.5214 C   0  0  0  0  0  0
  -18.1937  -26.7928   22.1623 C   0  0  0  0  0  0
  -19.1542  -28.8856   23.2877 C   0  0  0  0  0  0
  -18.9462  -30.1456   23.8894 C   0  0  0  0  0  0
  -17.6462  -30.6585   24.0561 C   0  0  0  0  0  0
  -25.9055  -34.9444   23.5096 C   0  0  0  0  0  0
  -16.5354  -29.9082   23.6330 C   0  0  0  0  0  0
  -16.7277  -28.6501   23.0349 C   0  0  0  0  0  0
  -26.4495  -31.6580   25.0707 C   0  0  0  0  0  0
  -25.3724  -31.3731   26.1433 C   0  0  0  0  0  0
  -27.0337  -30.2998   24.6178 C   0  0  0  0  0  0
  -27.6052  -32.4312   25.7483 C   0  0  0  0  0  0
  -27.5586  -37.1790   24.8452 C   0  0  0  0  0  0
  -21.4198  -29.3039   22.3668 N   0  0  0  0  0  0
  -26.4282  -37.3776   23.9420 N   0  0  0  0  0  0
  -24.6931  -31.0541   22.0943 N   0  0  0  0  0  0
  -23.4197  -28.8153   23.3023 O   0  0  0  0  0  0
  -28.3524  -26.4292   20.1546 O   0  0  0  0  0  0
  -26.5629  -34.8919   22.4667 O   0  0  0  0  0  0
  -23.5443  -32.1369   23.7290 O   0  0  0  0  0  0
  -29.1976  -20.1345   20.3818 C   0  0  0  0  0  0
  -29.0030  -22.3327   20.2203 C   0  0  0  0  0  0
  -31.3138  -24.2179   20.9541 C   0  0  0  0  0  0
  -31.8606  -20.7081   18.7395 C   0  0  0  0  0  0
  -28.3819  -23.9299   18.3105 C   0  0  0  0  0  0
  -29.2777  -16.0222   18.7616 C   0  0  0  0  0  0
  -29.2823  -18.6213   19.9201 C   0  0  0  0  0  0
  -30.5126  -24.3616   19.6475 C   0  0  0  0  0  0
  -30.4216  -21.1354   18.4178 C   0  0  0  0  0  0
  -29.9950  -17.3671   20.6937 C   0  0  0  0  0  0
  -28.2156  -24.9783   20.5315 C   0  0  0  0  0  0
  -29.0432  -23.8516   19.7069 C   0  0  2  0  0  0
  -28.4797  -20.5530   21.4343 N   0  0  0  0  0  0
  -28.3619  -21.9440   21.3353 N   0  0  0  0  0  0
  -29.5942  -21.2203   19.6214 N   0  0  0  0  0  0
  -29.8127  -15.9355   20.1308 N   0  0  0  0  0  0
  -31.4791  -12.6071   19.1436 H   0  0  0  0  0  0
  -30.4427  -11.5156   20.0239 H   0  0  0  0  0  0
  -29.7748  -11.4859   17.6581 H   0  0  0  0  0  0
  -29.6882  -13.1980   17.5554 H   0  0  0  0  0  0
  -27.8555  -11.2429   18.9444 H   0  0  0  0  0  0
  -27.3832  -12.4591   17.7947 H   0  0  0  0  0  0
  -27.5805  -14.2103   19.4240 H   0  0  0  0  0  0
  -28.7468  -12.2334   21.4436 H   0  0  0  0  0  0
  -28.4302  -13.9331   21.7287 H   0  0  0  0  0  0
  -25.2742   -9.5670   22.4779 H   0  0  0  0  0  0
  -23.9995   -7.4609   22.7466 H   0  0  0  0  0  0
  -21.0828   -8.8757   19.8948 H   0  0  0  0  0  0
  -22.3673  -10.9670   19.6188 H   0  0  0  0  0  0
  -21.1992   -7.6145   23.9712 H   0  0  0  0  0  0
  -21.1482   -6.0521   25.9076 H   0  0  0  0  0  0
  -22.0604   -2.7606   23.2844 H   0  0  0  0  0  0
  -22.4060  -11.9885   22.4822 H   0  0  0  0  0  0
  -21.1062  -13.1247   22.2626 H   0  0  0  0  0  0
  -24.6735  -15.8499   20.5509 H   0  0  0  0  0  0
  -26.2963  -15.6224   20.1356 H   0  0  0  0  0  0
  -26.7188  -32.5426   23.1076 H   0  0  0  0  0  0
  -25.0061  -33.9704   25.0396 H   0  0  0  0  0  0
  -22.7209  -31.2973   21.3922 H   0  0  0  0  0  0
  -23.3762  -35.9606   23.3266 H   0  0  0  0  0  0
  -24.3591  -36.8940   22.2057 H   0  0  0  0  0  0
  -23.7224  -37.6472   23.6679 H   0  0  0  0  0  0
  -26.0995  -31.5362   20.5996 H   0  0  0  0  0  0
  -26.8480  -30.8316   22.0020 H   0  0  0  0  0  0
  -28.1254  -28.9607   21.1905 H   0  0  0  0  0  0
  -26.0029  -25.8931   19.0259 H   0  0  0  0  0  0
  -23.9823  -27.2818   19.0216 H   0  0  0  0  0  0
  -23.7684  -30.5769   19.4003 H   0  0  0  0  0  0
  -22.7634  -29.2342   19.8561 H   0  0  0  0  0  0
  -25.1291  -36.1913   25.0818 H   0  0  0  0  0  0
  -20.9988  -28.3269   24.1397 H   0  0  0  0  0  0
  -20.5677  -26.2302   23.3615 H   0  0  0  0  0  0
  -21.6647  -26.7437   22.1207 H   0  0  0  0  0  0
  -19.6921  -25.6295   21.1244 H   0  0  0  0  0  0
  -19.6698  -27.3193   20.6745 H   0  0  0  0  0  0
  -17.4209  -26.6674   21.4023 H   0  0  0  0  0  0
  -18.0335  -26.0072   22.9018 H   0  0  0  0  0  0
  -19.7940  -30.7271   24.2262 H   0  0  0  0  0  0
  -17.5017  -31.6267   24.5161 H   0  0  0  0  0  0
  -15.5353  -30.2980   23.7660 H   0  0  0  0  0  0
  -15.8678  -28.0820   22.7062 H   0  0  0  0  0  0
  -24.5893  -30.7087   25.7761 H   0  0  0  0  0  0
  -24.8925  -32.2903   26.4855 H   0  0  0  0  0  0
  -25.8041  -30.8906   27.0210 H   0  0  0  0  0  0
  -26.2915  -29.6747   24.1200 H   0  0  0  0  0  0
  -27.4023  -29.7256   25.4688 H   0  0  0  0  0  0
  -27.8789  -30.4274   23.9410 H   0  0  0  0  0  0
  -27.2665  -33.3614   26.2056 H   0  0  0  0  0  0
  -28.3871  -32.6865   25.0319 H   0  0  0  0  0  0
  -28.0711  -31.8437   26.5404 H   0  0  0  0  0  0
  -28.2564  -38.0127   24.7553 H   0  0  0  0  0  0
  -28.1122  -36.2662   24.6201 H   0  0  0  0  0  0
  -27.2317  -37.1339   25.8856 H   0  0  0  0  0  0
  -20.9383  -29.8755   21.6869 H   0  0  0  0  0  0
  -26.0159  -38.2841   24.1453 H   0  0  0  0  0  0
  -32.3205  -24.6166   20.8292 H   0  0  0  0  0  0
  -31.4157  -23.1752   21.2558 H   0  0  0  0  0  0
  -30.8509  -24.7618   21.7776 H   0  0  0  0  0  0
  -32.4626  -20.6674   17.8318 H   0  0  0  0  0  0
  -31.9001  -19.7218   19.2018 H   0  0  0  0  0  0
  -32.3382  -21.4158   19.4189 H   0  0  0  0  0  0
  -28.8519  -23.3149   17.5511 H   0  0  0  0  0  0
  -28.3921  -24.9504   17.9263 H   0  0  0  0  0  0
  -27.3390  -23.6157   18.3620 H   0  0  0  0  0  0
  -28.2664  -16.4260   18.7437 H   0  0  0  0  0  0
  -29.2168  -15.0747   18.2464 H   0  0  0  0  0  0
  -29.9234  -16.6308   18.1286 H   0  0  0  0  0  0
  -29.6810  -18.6376   18.9105 H   0  0  0  0  0  0
  -28.2357  -18.3464   19.7956 H   0  0  0  0  0  0
  -31.0692  -23.8512   18.8672 H   0  0  0  0  0  0
  -30.5249  -25.4082   19.3423 H   0  0  0  0  0  0
  -29.9578  -20.4446   17.7144 H   0  0  0  0  0  0
  -30.4615  -22.0817   17.8964 H   0  0  0  0  0  0
  -29.6235  -17.3480   21.7185 H   0  0  0  0  0  0
  -31.0642  -17.5684   20.7721 H   0  0  0  0  0  0
  -28.5213  -24.9206   21.5758 H   0  0  0  0  0  0
  -27.1654  -24.6881   20.5527 H   0  0  0  0  0  0
  1 25  1  0  0  0
  1 30  2  0  0  0
  1 86  1  0  0  0
  2  3  1  0  0  0
  2 25  1  0  0  0
  2 87  1  0  0  0
  2 88  1  0  0  0
  3  4  1  0  0  0
  3 89  1  0  0  0
  3 90  1  0  0  0
  4  5  1  0  0  0
  4 91  1  0  0  0
  4 92  1  0  0  0
  5  6  1  0  0  0
  5 26  1  0  0  0
  5 93  1  0  0  0
  6 25  1  0  0  0
  6 94  1  0  0  0
  6 95  1  0  0  0
  7  8  2  0  0  0
  7 26  1  0  0  0
  7 29  1  0  0  0
  8  9  1  0  0  0
  8 22  1  0  0  0
  9 10  1  0  0  0
  9 27  2  0  0  0
 10 11  2  0  0  0
 10 15  1  0  0  0
 11 12  1  0  0  0
 11 96  1  0  0  0
 12 13  2  0  0  0
 12 97  1  0  0  0
 13 14  1  0  0  0
 13 31  1  0  0  0
 14 15  2  0  0  0
 14 98  1  0  0  0
 15 99  1  0  0  0
 16 17  2  0  0  0
 16 21  1  0  0  0
 16 31  1  0  0  0
 17 18  1  0  0  0
 17100  1  0  0  0
 18 19  2  0  0  0
 18101  1  0  0  0
 19 20  1  0  0  0
 19 24  1  0  0  0
 20 21  2  0  0  0
 20102  1  0  0  0
 21 23  1  0  0  0
 22 28  1  0  0  0
 22 32  2  0  0  0
 26 27  1  0  0  0
 28103  1  0  0  0
 28104  1  0  0  0
 29105  1  0  0  0
 29106  1  0  0  0
 33 34  1  0  0  0
 33 66  1  0  0  0
 33 70  2  0  0  0
 34 36  1  0  0  0
 34 59  1  0  0  0
 34107  1  0  0  0
 35 44  2  0  0  0
 35 45  1  0  0  0
 35 68  1  0  0  0
 36 56  1  0  0  0
 36108  1  0  0  0
 37 39  1  0  0  0
 37 47  1  0  0  0
 37 66  1  0  0  0
 37109  1  0  0  0
 38 43  2  0  0  0
 38 46  1  0  0  0
 38 47  1  0  0  0
 39 64  1  0  0  0
 39 67  2  0  0  0
 40 52  1  0  0  0
 40 53  2  0  0  0
 40 58  1  0  0  0
 41110  1  0  0  0
 41111  1  0  0  0
 41112  1  0  0  0
 41 48  1  0  0  0
 42 43  1  0  0  0
 42 66  1  0  0  0
 42113  1  0  0  0
 42114  1  0  0  0
 43 44  1  0  0  0
 44115  1  0  0  0
 45 46  2  0  0  0
 45116  1  0  0  0
 46117  1  0  0  0
 47118  1  0  0  0
 47119  1  0  0  0
 48 56  1  0  0  0
 48 65  1  0  0  0
 48120  1  0  0  0
 49 50  1  0  0  0
 49 53  1  0  0  0
 49 64  1  0  0  0
 49121  1  0  0  0
 50 51  1  0  0  0
 50122  1  0  0  0
 50123  1  0  0  0
 51 52  1  0  0  0
 51124  1  0  0  0
 51125  1  0  0  0
 52126  1  0  0  0
 52127  1  0  0  0
 53 54  1  0  0  0
 54 55  2  0  0  0
 54128  1  0  0  0
 55 57  1  0  0  0
 55129  1  0  0  0
 56 69  2  0  0  0
 57 58  2  0  0  0
 57130  1  0  0  0
 58131  1  0  0  0
 59 60  1  0  0  0
 59 61  1  0  0  0
 59 62  1  0  0  0
 60132  1  0  0  0
 60133  1  0  0  0
 60134  1  0  0  0
 61135  1  0  0  0
 61136  1  0  0  0
 61137  1  0  0  0
 62138  1  0  0  0
 62139  1  0  0  0
 62140  1  0  0  0
 63 65  1  0  0  0
 63141  1  0  0  0
 63142  1  0  0  0
 63143  1  0  0  0
 64144  1  0  0  0
 65145  1  0  0  0
 68 81  1  0  0  0
 71 77  1  0  0  0
 71 83  2  0  0  0
 71 85  1  0  0  0
 72 82  1  0  0  0
 72 84  2  0  0  0
 72 85  1  0  0  0
 73 78  1  0  0  0
 73146  1  0  0  0
 73147  1  0  0  0
 73148  1  0  0  0
 74 79  1  0  0  0
 74149  1  0  0  0
 74150  1  0  0  0
 74151  1  0  0  0
 75152  1  0  0  0
 75153  1  0  0  0
 75154  1  0  0  0
 75 82  1  0  0  0
 76 86  1  0  0  0
 76155  1  0  0  0
 76156  1  0  0  0
 76157  1  0  0  0
 77 80  1  0  0  0
 77158  1  0  0  0
 77159  1  0  0  0
 78 82  1  0  0  0
 78160  1  0  0  0
 78161  1  0  0  0
 79 85  1  0  0  0
 79162  1  0  0  0
 79163  1  0  0  0
 80 86  1  0  0  0
 80164  1  0  0  0
 80165  1  0  0  0
 81 82  1  0  0  0
 81166  1  0  0  0
 81167  1  0  0  0
 83 84  1  0  0  0
M  ISO  4   1 100  68 101  81 101  86 100
M  END
> <chiral flag>
0

> <version>
0

> <s_m_source_file>
/data/baiqing/PycharmProjects/Reinvent-master-3.2/result/LINK_invent/BTK/process_docking_weight1_custom_sum_contain_oxygen_bond_distance_aromatic_linkinvent_7_9_3/rearranged_h_0055.sdf

> <i_m_source_file_index>
8

> <r_mmod_Potential_Energy-OPLS-2005>
441.379180908203

> <r_mmod_Stretch_Energy-OPLS-2005>
140.954971313477

> <r_mmod_Bend_Energy-OPLS-2005>
199.447311401367

> <r_mmod_Torsional_Energy-OPLS-2005>
348.001403808594

> <r_mmod_Improper_Torsional_Energy-OPLS-2005>
13.2525520324707

> <r_mmod_Van_der_Waal_Energy-OPLS-2005>
128.113296508789

> <r_mmod_Electrostatic_Energy-OPLS-2005>
-265.817413330078

> <r_mmod_Solvation_Energy-OPLS-2005>
-223.724380493164

> <b_mmod_Minimization_Converged-OPLS-2005>
0

> <r_mmod_RMS_Derivative-OPLS-2005>
0.871992409229279

$$$$
8
                    3D
 Structure written by MMmdl.
145153  0  0  1  0            999 V2000
  -30.4634  -15.2128   20.3770 C   0  0  0  0  0  0
  -30.4361  -12.7721   19.5214 C   0  0  0  0  0  0
  -29.5310  -12.5651   18.2821 C   0  0  0  0  0  0
  -28.0770  -12.3006   18.7096 C   0  0  0  0  0  0
  -27.6129  -13.2711   19.8246 C   0  0  2  0  0  0
  -28.6482  -13.4285   20.9583 C   0  0  0  0  0  0
  -25.2392  -13.8243   20.5744 C   0  0  0  0  0  0
  -24.1741  -13.0437   20.9260 C   0  0  0  0  0  0
  -24.6392  -11.6931   20.8765 C   0  0  0  0  0  0
  -23.9086  -10.4293   21.0410 C   0  0  0  0  0  0
  -24.3633   -9.4206   21.9186 C   0  0  0  0  0  0
  -23.6305   -8.2241   22.0751 C   0  0  0  0  0  0
  -22.4286   -8.0282   21.3544 C   0  0  0  0  0  0
  -21.9927   -9.0255   20.4643 C   0  0  0  0  0  0
  -22.7258  -10.2134   20.3056 C   0  0  0  0  0  0
  -21.6856   -6.0739   22.5279 C   0  0  0  0  0  0
  -21.4015   -6.5642   23.8213 C   0  0  0  0  0  0
  -21.3659   -5.6794   24.9175 C   0  0  0  0  0  0
  -21.6045   -4.3057   24.7225 C   0  0  0  0  0  0
  -21.8818   -3.8149   23.4346 C   0  0  0  0  0  0
  -21.9195   -4.6967   22.3403 C   0  0  0  0  0  0
  -22.7760  -13.5190   21.1910 C   0  0  0  0  0  0
  -22.1663   -4.2152   21.0981 F   0  0  0  0  0  0
  -21.5630   -3.4540   25.7737 F   0  0  0  0  0  0
  -29.8862  -13.9171   20.3323 N   0  0  0  0  0  0
  -26.2819  -12.9511   20.3227 N   0  0  0  0  0  0
  -25.9328  -11.6621   20.5729 N   0  0  0  0  0  0
  -22.0424  -12.8164   22.0464 N   0  0  0  0  0  0
  -25.4025  -15.1975   20.4170 N   0  0  0  0  0  0
  -31.6839  -15.2096   20.1652 O   0  0  0  0  0  0
  -21.6645   -6.8882   21.4241 O   0  0  0  0  0  0
  -22.3438  -14.5494   20.6755 O   0  0  0  0  0  0
  -24.6607  -31.8264   23.1740 C   0  0  0  0  0  0
  -25.9301  -32.4606   23.8190 C   0  0  1  0  0  0
  -27.2133  -26.9547   20.1771 C   0  0  0  0  0  0
  -25.5981  -33.8420   24.2096 N   0  0  0  0  0  0
  -23.4737  -30.4410   21.5223 C   0  0  2  0  0  0
  -24.9263  -28.8370   20.1107 C   0  0  0  0  0  0
  -22.7654  -29.4458   22.4786 C   0  0  0  0  0  0
  -18.0320  -28.1410   22.8472 C   0  0  0  0  0  0
  -24.1489  -36.7204   23.2646 C   0  0  0  0  0  0
  -26.0422  -30.6419   21.4009 C   0  0  0  0  0  0
  -26.1104  -29.2355   20.7438 C   0  0  0  0  0  0
  -27.2502  -28.3150   20.7543 C   0  0  0  0  0  0
  -26.0009  -26.7078   19.4926 C   0  0  0  0  0  0
  -24.8958  -27.5926   19.4651 C   0  0  0  0  0  0
  -23.7118  -29.7615   20.1468 C   0  0  0  0  0  0
  -25.4129  -36.2974   24.0303 C   0  0  1  0  0  0
  -20.5945  -28.3750   23.1191 C   0  0  2  0  0  0
  -20.6795  -26.9435   22.5400 C   0  0  0  0  0  0
  -19.5767  -26.6383   21.5211 C   0  0  0  0  0  0
  -18.1951  -26.7943   22.1627 C   0  0  0  0  0  0
  -19.1582  -28.8900   23.2821 C   0  0  0  0  0  0
  -18.9493  -30.1491   23.8856 C   0  0  0  0  0  0
  -17.6487  -30.6602   24.0555 C   0  0  0  0  0  0
  -25.9096  -34.9359   23.5018 C   0  0  0  0  0  0
  -16.5376  -29.9091   23.6347 C   0  0  0  0  0  0
  -16.7302  -28.6509   23.0371 C   0  0  0  0  0  0
  -26.4560  -31.6545   25.0708 C   0  0  0  0  0  0
  -25.3697  -31.3788   26.1371 C   0  0  0  0  0  0
  -27.0449  -30.2915   24.6425 C   0  0  0  0  0  0
  -27.6051  -32.4351   25.7511 C   0  0  0  0  0  0
  -27.5566  -37.1757   24.8467 C   0  0  0  0  0  0
  -21.4325  -29.3045   22.3538 N   0  0  0  0  0  0
  -26.4270  -37.3712   23.9415 N   0  0  0  0  0  0
  -24.7467  -30.9956   22.0861 N   0  0  0  0  0  0
  -23.4215  -28.8021   23.3011 O   0  0  0  0  0  0
  -28.2005  -25.8445   20.2604 O   0  0  0  0  0  0
  -26.5693  -34.8890   22.4607 O   0  0  0  0  0  0
  -23.5684  -32.1219   23.6854 O   0  0  0  0  0  0
  -28.7702  -20.4831   21.3485 C   0  0  0  0  0  0
  -29.5508  -20.6586   19.2448 C   0  0  0  0  0  0
  -29.3859  -19.6775   20.3058 C   0  0  0  0  0  0
  -28.6147  -22.7177   20.2553 C   0  0  0  0  0  0
  -30.1331  -18.0925   20.3600 C   0  0  0  0  0  0
  -27.8199  -24.2646   20.0660 C   0  0  0  0  0  0
  -28.4002  -21.8584   21.3086 N   0  0  0  0  0  0
  -29.1804  -22.0281   19.2152 N   0  0  0  0  0  0
  -29.7178  -16.4887   20.4539 N   0  0  0  0  0  0
  -31.4581  -12.9652   19.1920 H   0  0  0  0  0  0
  -30.4893  -11.8614   20.1203 H   0  0  0  0  0  0
  -29.9005  -11.7385   17.6736 H   0  0  0  0  0  0
  -29.5700  -13.4537   17.6505 H   0  0  0  0  0  0
  -28.0236  -11.2740   19.0737 H   0  0  0  0  0  0
  -27.4084  -12.3559   17.8498 H   0  0  0  0  0  0
  -27.5343  -14.2423   19.3351 H   0  0  0  0  0  0
  -28.8040  -12.4904   21.4929 H   0  0  0  0  0  0
  -28.2978  -14.1532   21.6949 H   0  0  0  0  0  0
  -25.2773   -9.5686   22.4766 H   0  0  0  0  0  0
  -24.0017   -7.4630   22.7466 H   0  0  0  0  0  0
  -21.0861   -8.8774   19.8944 H   0  0  0  0  0  0
  -22.3713  -10.9674   19.6168 H   0  0  0  0  0  0
  -21.2003   -7.6149   23.9717 H   0  0  0  0  0  0
  -21.1483   -6.0524   25.9078 H   0  0  0  0  0  0
  -22.0597   -2.7611   23.2845 H   0  0  0  0  0  0
  -22.4064  -11.9832   22.4843 H   0  0  0  0  0  0
  -21.1034  -13.1159   22.2674 H   0  0  0  0  0  0
  -24.6294  -15.8453   20.5251 H   0  0  0  0  0  0
  -26.2403  -15.6390   20.0621 H   0  0  0  0  0  0
  -26.7370  -32.5150   23.0905 H   0  0  0  0  0  0
  -25.0100  -33.9504   25.0226 H   0  0  0  0  0  0
  -22.7858  -31.2723   21.3552 H   0  0  0  0  0  0
  -23.3763  -35.9523   23.3288 H   0  0  0  0  0  0
  -24.3565  -36.8866   22.2065 H   0  0  0  0  0  0
  -23.7234  -37.6386   23.6705 H   0  0  0  0  0  0
  -26.2203  -31.3859   20.6232 H   0  0  0  0  0  0
  -26.9034  -30.6964   22.0549 H   0  0  0  0  0  0
  -28.1446  -28.6164   21.2814 H   0  0  0  0  0  0
  -25.8614  -25.7614   18.9930 H   0  0  0  0  0  0
  -23.9970  -27.2821   18.9502 H   0  0  0  0  0  0
  -23.8663  -30.5318   19.3906 H   0  0  0  0  0  0
  -22.8219  -29.2158   19.8287 H   0  0  0  0  0  0
  -25.1327  -36.1767   25.0792 H   0  0  0  0  0  0
  -21.0037  -28.3353   24.1313 H   0  0  0  0  0  0
  -20.5671  -26.2369   23.3638 H   0  0  0  0  0  0
  -21.6659  -26.7413   22.1204 H   0  0  0  0  0  0
  -19.6923  -25.6283   21.1271 H   0  0  0  0  0  0
  -19.6702  -27.3167   20.6719 H   0  0  0  0  0  0
  -17.4215  -26.6685   21.4036 H   0  0  0  0  0  0
  -18.0352  -26.0100   22.9039 H   0  0  0  0  0  0
  -19.7968  -30.7319   24.2207 H   0  0  0  0  0  0
  -17.5040  -31.6280   24.5162 H   0  0  0  0  0  0
  -15.5375  -30.2980   23.7696 H   0  0  0  0  0  0
  -15.8703  -28.0809   22.7118 H   0  0  0  0  0  0
  -24.5891  -30.7121   25.7686 H   0  0  0  0  0  0
  -24.8871  -32.2988   26.4679 H   0  0  0  0  0  0
  -25.7942  -30.9039   27.0224 H   0  0  0  0  0  0
  -26.3112  -29.6601   24.1403 H   0  0  0  0  0  0
  -27.3955  -29.7269   25.5074 H   0  0  0  0  0  0
  -27.9066  -30.4101   23.9856 H   0  0  0  0  0  0
  -27.2617  -33.3691   26.1969 H   0  0  0  0  0  0
  -28.3928  -32.6849   25.0390 H   0  0  0  0  0  0
  -28.0647  -31.8559   26.5529 H   0  0  0  0  0  0
  -28.2563  -38.0072   24.7526 H   0  0  0  0  0  0
  -28.1084  -36.2601   24.6280 H   0  0  0  0  0  0
  -27.2287  -37.1387   25.8871 H   0  0  0  0  0  0
  -20.9566  -29.8744   21.6682 H   0  0  0  0  0  0
  -26.0117  -38.2766   24.1441 H   0  0  0  0  0  0
  -28.5898  -20.0129   22.3041 H   0  0  0  0  0  0
  -30.0539  -20.3349   18.3453 H   0  0  0  0  0  0
  -30.8360  -18.1965   21.1877 H   0  0  0  0  0  0
  -30.7802  -18.1081   19.4819 H   0  0  0  0  0  0
  -26.9118  -24.1472   20.6574 H   0  0  0  0  0  0
  -27.4735  -24.2147   19.0342 H   0  0  0  0  0  0
  -28.7277  -16.3338   20.5767 H   0  0  0  0  0  0
  1 25  1  0  0  0
  1 30  2  0  0  0
  1 79  1  0  0  0
  2  3  1  0  0  0
  2 25  1  0  0  0
  2 80  1  0  0  0
  2 81  1  0  0  0
  3  4  1  0  0  0
  3 82  1  0  0  0
  3 83  1  0  0  0
  4  5  1  0  0  0
  4 84  1  0  0  0
  4 85  1  0  0  0
  5  6  1  0  0  0
  5 26  1  0  0  0
  5 86  1  0  0  0
  6 25  1  0  0  0
  6 87  1  0  0  0
  6 88  1  0  0  0
  7  8  2  0  0  0
  7 26  1  0  0  0
  7 29  1  0  0  0
  8  9  1  0  0  0
  8 22  1  0  0  0
  9 10  1  0  0  0
  9 27  2  0  0  0
 10 11  2  0  0  0
 10 15  1  0  0  0
 11 12  1  0  0  0
 11 89  1  0  0  0
 12 13  2  0  0  0
 12 90  1  0  0  0
 13 14  1  0  0  0
 13 31  1  0  0  0
 14 15  2  0  0  0
 14 91  1  0  0  0
 15 92  1  0  0  0
 16 17  2  0  0  0
 16 21  1  0  0  0
 16 31  1  0  0  0
 17 18  1  0  0  0
 17 93  1  0  0  0
 18 19  2  0  0  0
 18 94  1  0  0  0
 19 20  1  0  0  0
 19 24  1  0  0  0
 20 21  2  0  0  0
 20 95  1  0  0  0
 21 23  1  0  0  0
 22 28  1  0  0  0
 22 32  2  0  0  0
 26 27  1  0  0  0
 28 96  1  0  0  0
 28 97  1  0  0  0
 29 98  1  0  0  0
 29 99  1  0  0  0
 33 34  1  0  0  0
 33 66  1  0  0  0
 33 70  2  0  0  0
 34 36  1  0  0  0
 34 59  1  0  0  0
 34100  1  0  0  0
 35 44  2  0  0  0
 35 45  1  0  0  0
 35 68  1  0  0  0
 36 56  1  0  0  0
 36101  1  0  0  0
 37 39  1  0  0  0
 37 47  1  0  0  0
 37 66  1  0  0  0
 37102  1  0  0  0
 38 43  2  0  0  0
 38 46  1  0  0  0
 38 47  1  0  0  0
 39 64  1  0  0  0
 39 67  2  0  0  0
 40 52  1  0  0  0
 40 53  2  0  0  0
 40 58  1  0  0  0
 41103  1  0  0  0
 41104  1  0  0  0
 41105  1  0  0  0
 41 48  1  0  0  0
 42 43  1  0  0  0
 42 66  1  0  0  0
 42106  1  0  0  0
 42107  1  0  0  0
 43 44  1  0  0  0
 44108  1  0  0  0
 45 46  2  0  0  0
 45109  1  0  0  0
 46110  1  0  0  0
 47111  1  0  0  0
 47112  1  0  0  0
 48 56  1  0  0  0
 48 65  1  0  0  0
 48113  1  0  0  0
 49 50  1  0  0  0
 49 53  1  0  0  0
 49 64  1  0  0  0
 49114  1  0  0  0
 50 51  1  0  0  0
 50115  1  0  0  0
 50116  1  0  0  0
 51 52  1  0  0  0
 51117  1  0  0  0
 51118  1  0  0  0
 52119  1  0  0  0
 52120  1  0  0  0
 53 54  1  0  0  0
 54 55  2  0  0  0
 54121  1  0  0  0
 55 57  1  0  0  0
 55122  1  0  0  0
 56 69  2  0  0  0
 57 58  2  0  0  0
 57123  1  0  0  0
 58124  1  0  0  0
 59 60  1  0  0  0
 59 61  1  0  0  0
 59 62  1  0  0  0
 60125  1  0  0  0
 60126  1  0  0  0
 60127  1  0  0  0
 61128  1  0  0  0
 61129  1  0  0  0
 61130  1  0  0  0
 62131  1  0  0  0
 62132  1  0  0  0
 62133  1  0  0  0
 63 65  1  0  0  0
 63134  1  0  0  0
 63135  1  0  0  0
 63136  1  0  0  0
 64137  1  0  0  0
 65138  1  0  0  0
 68 76  1  0  0  0
 71 73  2  0  0  0
 71 77  1  0  0  0
 71139  1  0  0  0
 72 73  1  0  0  0
 72 78  2  0  0  0
 72140  1  0  0  0
 73 75  1  0  0  0
 74 76  1  0  0  0
 74 77  2  0  0  0
 74 78  1  0  0  0
 75 79  1  0  0  0
 75141  1  0  0  0
 75142  1  0  0  0
 76143  1  0  0  0
 76144  1  0  0  0
 79145  1  0  0  0
M  ISO  4   1 100  68 101  76 101  79 100
M  END
> <chiral flag>
0

> <version>
0

> <s_m_source_file>
/data/baiqing/PycharmProjects/Reinvent-master-3.2/result/LINK_invent/BTK/process_docking_weight1_custom_sum_contain_oxygen_bond_distance_aromatic_linkinvent_7_9_3/rearranged_h_0055.sdf

> <i_m_source_file_index>
9

> <r_mmod_Potential_Energy-OPLS-2005>
805.581665039062

> <r_mmod_Stretch_Energy-OPLS-2005>
481.773284912109

> <r_mmod_Bend_Energy-OPLS-2005>
442.117462158203

> <r_mmod_Torsional_Energy-OPLS-2005>
217.913314819336

> <r_mmod_Improper_Torsional_Energy-OPLS-2005>
10.528546333313

> <r_mmod_Van_der_Waal_Energy-OPLS-2005>
138.772994995117

> <r_mmod_Electrostatic_Energy-OPLS-2005>
-654.269348144531

> <r_mmod_Solvation_Energy-OPLS-2005>
-245.484130859375

> <b_mmod_Minimization_Converged-OPLS-2005>
0

> <r_mmod_RMS_Derivative-OPLS-2005>
0.598635911941528

$$$$
9
                    3D
 Structure written by MMmdl.
153161  0  0  1  0            999 V2000
  -30.4281  -15.0371   20.4036 C   0  0  0  0  0  0
  -30.4608  -12.6475   19.5058 C   0  0  0  0  0  0
  -29.5365  -12.5524   18.2657 C   0  0  0  0  0  0
  -28.0663  -12.3279   18.6730 C   0  0  0  0  0  0
  -27.6299  -13.2515   19.8393 C   0  0  2  0  0  0
  -28.6666  -13.2598   20.9805 C   0  0  0  0  0  0
  -25.2409  -13.8246   20.5639 C   0  0  0  0  0  0
  -24.1732  -13.0427   20.9150 C   0  0  0  0  0  0
  -24.6387  -11.6923   20.8720 C   0  0  0  0  0  0
  -23.9091  -10.4251   21.0421 C   0  0  0  0  0  0
  -24.3762   -9.4063   21.9019 C   0  0  0  0  0  0
  -23.6475   -8.2072   22.0575 C   0  0  0  0  0  0
  -22.4358   -8.0183   21.3510 C   0  0  0  0  0  0
  -21.9913   -9.0197   20.4715 C   0  0  0  0  0  0
  -22.7167  -10.2147   20.3196 C   0  0  0  0  0  0
  -21.6872   -6.0737   22.5296 C   0  0  0  0  0  0
  -21.4071   -6.5689   23.8224 C   0  0  0  0  0  0
  -21.3669   -5.6839   24.9175 C   0  0  0  0  0  0
  -21.6036   -4.3088   24.7246 C   0  0  0  0  0  0
  -21.8848   -3.8186   23.4356 C   0  0  0  0  0  0
  -21.9233   -4.6990   22.3424 C   0  0  0  0  0  0
  -22.7743  -13.5197   21.1810 C   0  0  0  0  0  0
  -22.1704   -4.2171   21.1003 F   0  0  0  0  0  0
  -21.5554   -3.4555   25.7751 F   0  0  0  0  0  0
  -29.9331  -13.7264   20.3946 N   0  0  0  0  0  0
  -26.2868  -12.9474   20.3212 N   0  0  0  0  0  0
  -25.9327  -11.6587   20.5693 N   0  0  0  0  0  0
  -22.0399  -12.8154   22.0360 N   0  0  0  0  0  0
  -25.3956  -15.2014   20.4116 N   0  0  0  0  0  0
  -31.6237  -15.1756   20.1071 O   0  0  0  0  0  0
  -21.6662   -6.8841   21.4234 O   0  0  0  0  0  0
  -22.3421  -14.5467   20.6602 O   0  0  0  0  0  0
  -24.6489  -31.8334   23.1824 C   0  0  0  0  0  0
  -25.9222  -32.4631   23.8227 C   0  0  1  0  0  0
  -27.2130  -27.0748   20.1423 C   0  0  0  0  0  0
  -25.5932  -33.8452   24.2084 N   0  0  0  0  0  0
  -23.4537  -30.4509   21.5279 C   0  0  2  0  0  0
  -24.9027  -28.8673   20.1020 C   0  0  0  0  0  0
  -22.7574  -29.4476   22.4830 C   0  0  0  0  0  0
  -18.0293  -28.1389   22.8475 C   0  0  0  0  0  0
  -24.1478  -36.7256   23.2653 C   0  0  0  0  0  0
  -26.0139  -30.6876   21.3913 C   0  0  0  0  0  0
  -26.0806  -29.2966   20.7263 C   0  0  0  0  0  0
  -27.2325  -28.4144   20.7288 C   0  0  0  0  0  0
  -26.0087  -26.7552   19.4830 C   0  0  0  0  0  0
  -24.8847  -27.6131   19.4664 C   0  0  0  0  0  0
  -23.6819  -29.7767   20.1474 C   0  0  0  0  0  0
  -25.4122  -36.3002   24.0283 C   0  0  1  0  0  0
  -20.5905  -28.3712   23.1224 C   0  0  2  0  0  0
  -20.6787  -26.9389   22.5417 C   0  0  0  0  0  0
  -19.5767  -26.6360   21.5216 C   0  0  0  0  0  0
  -18.1946  -26.7924   22.1621 C   0  0  0  0  0  0
  -19.1549  -28.8870   23.2847 C   0  0  0  0  0  0
  -18.9471  -30.1470   23.8850 C   0  0  0  0  0  0
  -17.6469  -30.6591   24.0551 C   0  0  0  0  0  0
  -25.9078  -34.9379   23.4994 C   0  0  0  0  0  0
  -16.5356  -29.9074   23.6357 C   0  0  0  0  0  0
  -16.7271  -28.6502   23.0360 C   0  0  0  0  0  0
  -26.4521  -31.6592   25.0733 C   0  0  0  0  0  0
  -25.3698  -31.3859   26.1436 C   0  0  0  0  0  0
  -27.0434  -30.2966   24.6450 C   0  0  0  0  0  0
  -27.5985  -32.4455   25.7534 C   0  0  0  0  0  0
  -27.5551  -37.1786   24.8445 C   0  0  0  0  0  0
  -21.4258  -29.3026   22.3609 N   0  0  0  0  0  0
  -26.4264  -37.3728   23.9385 N   0  0  0  0  0  0
  -24.7246  -31.0153   22.0868 N   0  0  0  0  0  0
  -23.4202  -28.8011   23.2979 O   0  0  0  0  0  0
  -28.2689  -26.0821   20.2516 O   0  0  0  0  0  0
  -26.5692  -34.8887   22.4589 O   0  0  0  0  0  0
  -23.5582  -32.1233   23.7002 O   0  0  0  0  0  0
  -29.8002  -18.8854   20.0557 C   0  0  0  0  0  0
  -27.8994  -19.4463   20.8695 C   0  0  0  0  0  0
  -29.2309  -17.6545   20.5547 C   0  0  0  0  0  0
  -26.7908  -22.8003   20.7019 C   0  0  0  0  0  0
  -28.9636  -23.2200   21.8417 C   0  0  0  0  0  0
  -28.9873  -21.6192   19.7765 C   0  0  0  0  0  0
  -28.3420  -24.5974   19.6969 C   0  0  0  0  0  0
  -28.2966  -23.0532   20.4654 C   0  0  0  0  0  0
  -28.0066  -18.1107   21.0631 N   0  0  0  0  0  0
  -28.9269  -20.0758   20.2640 N   0  0  0  0  0  0
  -29.4982  -16.1139   20.6098 N   0  0  0  0  0  0
  -31.4749  -12.8768   19.1804 H   0  0  0  0  0  0
  -30.5168  -11.6943   20.0361 H   0  0  0  0  0  0
  -29.8698  -11.7457   17.6099 H   0  0  0  0  0  0
  -29.6185  -13.4762   17.6875 H   0  0  0  0  0  0
  -27.9647  -11.2840   18.9712 H   0  0  0  0  0  0
  -27.4128  -12.4697   17.8108 H   0  0  0  0  0  0
  -27.5906  -14.2581   19.4212 H   0  0  0  0  0  0
  -28.7736  -12.2639   21.4112 H   0  0  0  0  0  0
  -28.3443  -13.9109   21.7954 H   0  0  0  0  0  0
  -25.3037   -9.5417   22.4413 H   0  0  0  0  0  0
  -24.0304   -7.4348   22.7085 H   0  0  0  0  0  0
  -21.0780   -8.8717   19.9108 H   0  0  0  0  0  0
  -22.3440  -10.9772   19.6490 H   0  0  0  0  0  0
  -21.2110   -7.6212   23.9711 H   0  0  0  0  0  0
  -21.1477   -6.0572   25.9060 H   0  0  0  0  0  0
  -22.0660   -2.7662   23.2861 H   0  0  0  0  0  0
  -21.0877  -13.0872   22.2361 H   0  0  0  0  0  0
  -22.4064  -11.9760   22.4627 H   0  0  0  0  0  0
  -24.6005  -15.8234   20.5141 H   0  0  0  0  0  0
  -26.2325  -15.6859   20.1105 H   0  0  0  0  0  0
  -26.7284  -32.5179   23.0958 H   0  0  0  0  0  0
  -25.0039  -33.9560   25.0200 H   0  0  0  0  0  0
  -22.7596  -31.2789   21.3695 H   0  0  0  0  0  0
  -23.3720  -35.9605   23.3301 H   0  0  0  0  0  0
  -24.3561  -36.8929   22.2071 H   0  0  0  0  0  0
  -23.7248  -37.6436   23.6741 H   0  0  0  0  0  0
  -26.1881  -31.4432   20.6252 H   0  0  0  0  0  0
  -26.8775  -30.7314   22.0422 H   0  0  0  0  0  0
  -28.1275  -28.7339   21.2458 H   0  0  0  0  0  0
  -25.8959  -25.7896   19.0121 H   0  0  0  0  0  0
  -23.9814  -27.2778   18.9712 H   0  0  0  0  0  0
  -23.8139  -30.5505   19.3892 H   0  0  0  0  0  0
  -22.7978  -29.2184   19.8389 H   0  0  0  0  0  0
  -25.1335  -36.1813   25.0775 H   0  0  0  0  0  0
  -20.9991  -28.3297   24.1354 H   0  0  0  0  0  0
  -20.5688  -26.2292   23.3633 H   0  0  0  0  0  0
  -21.6650  -26.7414   22.1196 H   0  0  0  0  0  0
  -19.6926  -25.6265   21.1268 H   0  0  0  0  0  0
  -19.6723  -27.3158   20.6725 H   0  0  0  0  0  0
  -17.4209  -26.6634   21.4034 H   0  0  0  0  0  0
  -18.0347  -26.0097   22.9035 H   0  0  0  0  0  0
  -19.7943  -30.7301   24.2190 H   0  0  0  0  0  0
  -17.5019  -31.6270   24.5140 H   0  0  0  0  0  0
  -15.5353  -30.2953   23.7731 H   0  0  0  0  0  0
  -15.8666  -28.0820   22.7092 H   0  0  0  0  0  0
  -24.5787  -30.7310   25.7767 H   0  0  0  0  0  0
  -24.9030  -32.3103   26.4856 H   0  0  0  0  0  0
  -25.7970  -30.9001   27.0220 H   0  0  0  0  0  0
  -26.3089  -29.6619   24.1477 H   0  0  0  0  0  0
  -27.3985  -29.7372   25.5118 H   0  0  0  0  0  0
  -27.9022  -30.4145   23.9836 H   0  0  0  0  0  0
  -27.2440  -33.3712   26.2092 H   0  0  0  0  0  0
  -28.3795  -32.7122   25.0402 H   0  0  0  0  0  0
  -28.0674  -31.8655   26.5492 H   0  0  0  0  0  0
  -28.2550  -38.0095   24.7475 H   0  0  0  0  0  0
  -28.1055  -36.2615   24.6294 H   0  0  0  0  0  0
  -27.2277  -37.1469   25.8850 H   0  0  0  0  0  0
  -20.9452  -29.8734   21.6794 H   0  0  0  0  0  0
  -26.0109  -38.2777   24.1409 H   0  0  0  0  0  0
  -30.7312  -19.0146   19.5232 H   0  0  0  0  0  0
  -26.9914  -19.9595   21.1450 H   0  0  0  0  0  0
  -26.6030  -22.0490   21.4675 H   0  0  0  0  0  0
  -26.2834  -22.4818   19.7888 H   0  0  0  0  0  0
  -26.2918  -23.7071   21.0425 H   0  0  0  0  0  0
  -28.8383  -22.3270   22.4559 H   0  0  0  0  0  0
  -28.5391  -24.0603   22.3949 H   0  0  0  0  0  0
  -30.0331  -23.4076   21.7419 H   0  0  0  0  0  0
  -30.0478  -21.8336   19.6408 H   0  0  0  0  0  0
  -28.6106  -21.5822   18.7510 H   0  0  0  0  0  0
  -27.6806  -24.5365   18.8331 H   0  0  0  0  0  0
  -29.3298  -24.6016   19.2307 H   0  0  0  0  0  0
  -28.6526  -15.6551   20.9129 H   0  0  0  0  0  0
  1 25  1  0  0  0
  1 30  2  0  0  0
  1 81  1  0  0  0
  2  3  1  0  0  0
  2 25  1  0  0  0
  2 82  1  0  0  0
  2 83  1  0  0  0
  3  4  1  0  0  0
  3 84  1  0  0  0
  3 85  1  0  0  0
  4  5  1  0  0  0
  4 86  1  0  0  0
  4 87  1  0  0  0
  5  6  1  0  0  0
  5 26  1  0  0  0
  5 88  1  0  0  0
  6 25  1  0  0  0
  6 89  1  0  0  0
  6 90  1  0  0  0
  7  8  2  0  0  0
  7 26  1  0  0  0
  7 29  1  0  0  0
  8  9  1  0  0  0
  8 22  1  0  0  0
  9 10  1  0  0  0
  9 27  2  0  0  0
 10 11  2  0  0  0
 10 15  1  0  0  0
 11 12  1  0  0  0
 11 91  1  0  0  0
 12 13  2  0  0  0
 12 92  1  0  0  0
 13 14  1  0  0  0
 13 31  1  0  0  0
 14 15  2  0  0  0
 14 93  1  0  0  0
 15 94  1  0  0  0
 16 17  2  0  0  0
 16 21  1  0  0  0
 16 31  1  0  0  0
 17 18  1  0  0  0
 17 95  1  0  0  0
 18 19  2  0  0  0
 18 96  1  0  0  0
 19 20  1  0  0  0
 19 24  1  0  0  0
 20 21  2  0  0  0
 20 97  1  0  0  0
 21 23  1  0  0  0
 22 28  1  0  0  0
 22 32  2  0  0  0
 26 27  1  0  0  0
 28 98  1  0  0  0
 28 99  1  0  0  0
 29100  1  0  0  0
 29101  1  0  0  0
 33 34  1  0  0  0
 33 66  1  0  0  0
 33 70  2  0  0  0
 34 36  1  0  0  0
 34 59  1  0  0  0
 34102  1  0  0  0
 35 44  2  0  0  0
 35 45  1  0  0  0
 35 68  1  0  0  0
 36 56  1  0  0  0
 36103  1  0  0  0
 37 39  1  0  0  0
 37 47  1  0  0  0
 37 66  1  0  0  0
 37104  1  0  0  0
 38 43  2  0  0  0
 38 46  1  0  0  0
 38 47  1  0  0  0
 39 64  1  0  0  0
 39 67  2  0  0  0
 40 52  1  0  0  0
 40 53  2  0  0  0
 40 58  1  0  0  0
 41105  1  0  0  0
 41106  1  0  0  0
 41107  1  0  0  0
 41 48  1  0  0  0
 42 43  1  0  0  0
 42 66  1  0  0  0
 42108  1  0  0  0
 42109  1  0  0  0
 43 44  1  0  0  0
 44110  1  0  0  0
 45 46  2  0  0  0
 45111  1  0  0  0
 46112  1  0  0  0
 47113  1  0  0  0
 47114  1  0  0  0
 48 56  1  0  0  0
 48 65  1  0  0  0
 48115  1  0  0  0
 49 50  1  0  0  0
 49 53  1  0  0  0
 49 64  1  0  0  0
 49116  1  0  0  0
 50 51  1  0  0  0
 50117  1  0  0  0
 50118  1  0  0  0
 51 52  1  0  0  0
 51119  1  0  0  0
 51120  1  0  0  0
 52121  1  0  0  0
 52122  1  0  0  0
 53 54  1  0  0  0
 54 55  2  0  0  0
 54123  1  0  0  0
 55 57  1  0  0  0
 55124  1  0  0  0
 56 69  2  0  0  0
 57 58  2  0  0  0
 57125  1  0  0  0
 58126  1  0  0  0
 59 60  1  0  0  0
 59 61  1  0  0  0
 59 62  1  0  0  0
 60127  1  0  0  0
 60128  1  0  0  0
 60129  1  0  0  0
 61130  1  0  0  0
 61131  1  0  0  0
 61132  1  0  0  0
 62133  1  0  0  0
 62134  1  0  0  0
 62135  1  0  0  0
 63 65  1  0  0  0
 63136  1  0  0  0
 63137  1  0  0  0
 63138  1  0  0  0
 64139  1  0  0  0
 65140  1  0  0  0
 68 77  1  0  0  0
 71 73  2  0  0  0
 71 80  1  0  0  0
 71141  1  0  0  0
 72 79  2  0  0  0
 72 80  1  0  0  0
 72142  1  0  0  0
 73 79  1  0  0  0
 73 81  1  0  0  0
 74143  1  0  0  0
 74144  1  0  0  0
 74145  1  0  0  0
 74 78  1  0  0  0
 75 78  1  0  0  0
 75146  1  0  0  0
 75147  1  0  0  0
 75148  1  0  0  0
 76 78  1  0  0  0
 76 80  1  0  0  0
 76149  1  0  0  0
 76150  1  0  0  0
 77 78  1  0  0  0
 77151  1  0  0  0
 77152  1  0  0  0
 81153  1  0  0  0
M  ISO  4   1 100  68 101  77 101  81 100
M  END
> <chiral flag>
0

> <version>
0

> <s_m_source_file>
/data/baiqing/PycharmProjects/Reinvent-master-3.2/result/LINK_invent/BTK/process_docking_weight1_custom_sum_contain_oxygen_bond_distance_aromatic_linkinvent_7_9_3/rearranged_h_0055.sdf

> <i_m_source_file_index>
10

> <r_mmod_Potential_Energy-OPLS-2005>
739.412902832031

> <r_mmod_Stretch_Energy-OPLS-2005>
341.832794189453

> <r_mmod_Bend_Energy-OPLS-2005>
394.740112304688

> <r_mmod_Torsional_Energy-OPLS-2005>
226.761291503906

> <r_mmod_Improper_Torsional_Energy-OPLS-2005>
4.67557191848755

> <r_mmod_Van_der_Waal_Energy-OPLS-2005>
101.692085266113

> <r_mmod_Electrostatic_Energy-OPLS-2005>
-378.176818847656

> <r_mmod_Solvation_Energy-OPLS-2005>
-212.287704467773

> <b_mmod_Minimization_Converged-OPLS-2005>
0

> <r_mmod_RMS_Derivative-OPLS-2005>
5.09721422195435

$$$$
10
                    3D
 Structure written by MMmdl.
155163  0  0  1  0            999 V2000
  -30.6241  -14.7203   20.4909 C   0  0  0  0  0  0
  -30.4295  -12.4355   19.4880 C   0  0  0  0  0  0
  -29.5192  -12.5094   18.2415 C   0  0  0  0  0  0
  -28.0430  -12.3292   18.6506 C   0  0  0  0  0  0
  -27.6476  -13.2224   19.8573 C   0  0  2  0  0  0
  -28.6852  -13.1248   20.9943 C   0  0  0  0  0  0
  -25.2571  -13.8174   20.5735 C   0  0  0  0  0  0
  -24.1816  -13.0434   20.9194 C   0  0  0  0  0  0
  -24.6386  -11.6915   20.8715 C   0  0  0  0  0  0
  -23.9054  -10.4301   21.0407 C   0  0  0  0  0  0
  -24.3610   -9.4219   21.9182 C   0  0  0  0  0  0
  -23.6289   -8.2247   22.0755 C   0  0  0  0  0  0
  -22.4277   -8.0282   21.3541 C   0  0  0  0  0  0
  -21.9911   -9.0255   20.4647 C   0  0  0  0  0  0
  -22.7227  -10.2132   20.3067 C   0  0  0  0  0  0
  -21.6849   -6.0746   22.5272 C   0  0  0  0  0  0
  -21.4010   -6.5643   23.8209 C   0  0  0  0  0  0
  -21.3671   -5.6787   24.9163 C   0  0  0  0  0  0
  -21.6057   -4.3051   24.7210 C   0  0  0  0  0  0
  -21.8823   -3.8151   23.4333 C   0  0  0  0  0  0
  -21.9195   -4.6976   22.3395 C   0  0  0  0  0  0
  -22.7852  -13.5235   21.1843 C   0  0  0  0  0  0
  -22.1658   -4.2158   21.0971 F   0  0  0  0  0  0
  -21.5643   -3.4543   25.7729 F   0  0  0  0  0  0
  -29.9905  -13.4940   20.4284 N   0  0  0  0  0  0
  -26.2977  -12.9354   20.3298 N   0  0  0  0  0  0
  -25.9322  -11.6512   20.5736 N   0  0  0  0  0  0
  -22.0477  -12.8217   22.0387 N   0  0  0  0  0  0
  -25.4333  -15.1887   20.4273 N   0  0  0  0  0  0
  -31.7742  -14.8285   20.0537 O   0  0  0  0  0  0
  -21.6629   -6.8889   21.4238 O   0  0  0  0  0  0
  -22.3549  -14.5549   20.6700 O   0  0  0  0  0  0
  -24.6368  -31.8502   23.1968 C   0  0  0  0  0  0
  -25.9169  -32.4732   23.8317 C   0  0  1  0  0  0
  -27.2141  -27.2271   20.1168 C   0  0  0  0  0  0
  -25.5949  -33.8536   24.2230 N   0  0  0  0  0  0
  -23.4362  -30.4757   21.5401 C   0  0  2  0  0  0
  -24.8807  -28.9219   20.1098 C   0  0  0  0  0  0
  -22.7537  -29.4575   22.4867 C   0  0  0  0  0  0
  -18.0311  -28.1368   22.8493 C   0  0  0  0  0  0
  -24.1478  -36.7256   23.2643 C   0  0  0  0  0  0
  -25.9870  -30.7515   21.3841 C   0  0  0  0  0  0
  -26.0565  -29.3723   20.7226 C   0  0  0  0  0  0
  -27.2266  -28.5386   20.7162 C   0  0  0  0  0  0
  -26.0117  -26.8610   19.4690 C   0  0  0  0  0  0
  -24.8649  -27.6738   19.4726 C   0  0  0  0  0  0
  -23.6558  -29.8135   20.1571 C   0  0  0  0  0  0
  -25.4106  -36.3049   24.0323 C   0  0  1  0  0  0
  -20.5923  -28.3679   23.1246 C   0  0  2  0  0  0
  -20.6779  -26.9384   22.5402 C   0  0  0  0  0  0
  -19.5742  -26.6367   21.5216 C   0  0  0  0  0  0
  -18.1931  -26.7911   22.1632 C   0  0  0  0  0  0
  -19.1566  -28.8836   23.2867 C   0  0  0  0  0  0
  -18.9486  -30.1443   23.8877 C   0  0  0  0  0  0
  -17.6481  -30.6575   24.0557 C   0  0  0  0  0  0
  -25.9050  -34.9429   23.5078 C   0  0  0  0  0  0
  -16.5371  -29.9073   23.6331 C   0  0  0  0  0  0
  -16.7299  -28.6485   23.0361 C   0  0  0  0  0  0
  -26.4551  -31.6568   25.0708 C   0  0  0  0  0  0
  -25.3801  -31.3724   26.1451 C   0  0  0  0  0  0
  -27.0405  -30.2981   24.6200 C   0  0  0  0  0  0
  -27.6071  -32.4364   25.7480 C   0  0  0  0  0  0
  -27.5568  -37.1783   24.8473 C   0  0  0  0  0  0
  -21.4232  -29.3030   22.3616 N   0  0  0  0  0  0
  -26.4277  -37.3750   23.9429 N   0  0  0  0  0  0
  -24.7059  -31.0448   22.0960 N   0  0  0  0  0  0
  -23.4208  -28.8097   23.2972 O   0  0  0  0  0  0
  -28.2878  -26.2930   20.1708 O   0  0  0  0  0  0
  -26.5608  -34.8903   22.4643 O   0  0  0  0  0  0
  -23.5513  -32.1334   23.7237 O   0  0  0  0  0  0
  -29.1882  -20.7058   20.2288 C   0  0  0  0  0  0
  -29.6783  -18.5718   20.2290 C   0  0  0  0  0  0
  -31.9298  -18.7928   21.3560 C   0  0  0  0  0  0
  -29.4071  -16.1344   22.1076 C   0  0  0  0  0  0
  -28.4157  -22.0597   19.9587 C   0  0  0  0  0  0
  -29.7983  -17.0556   19.7836 C   0  0  0  0  0  0
  -28.9783  -23.5605   20.2484 C   0  0  0  0  0  0
  -27.9871  -24.8212   19.9471 C   0  0  0  0  0  0
  -28.7166  -19.4510   19.8361 N   0  0  0  0  0  0
  -30.3523  -20.6112   20.8776 N   0  0  0  0  0  0
  -30.6563  -19.2640   20.8453 N   0  0  0  0  0  0
  -29.8732  -15.8684   20.7460 N   0  0  0  0  0  0
  -31.4795  -12.5321   19.2091 H   0  0  0  0  0  0
  -30.3424  -11.4553   19.9593 H   0  0  0  0  0  0
  -29.8061  -11.7412   17.5226 H   0  0  0  0  0  0
  -29.6482  -13.4687   17.7368 H   0  0  0  0  0  0
  -27.9063  -11.2791   18.9109 H   0  0  0  0  0  0
  -27.3860  -12.5217   17.8023 H   0  0  0  0  0  0
  -27.6528  -14.2498   19.4928 H   0  0  0  0  0  0
  -28.7185  -12.1163   21.4101 H   0  0  0  0  0  0
  -28.3929  -13.7662   21.8214 H   0  0  0  0  0  0
  -25.2769   -9.5701   22.4728 H   0  0  0  0  0  0
  -24.0021   -7.4654   22.7475 H   0  0  0  0  0  0
  -21.0854   -8.8785   19.8946 H   0  0  0  0  0  0
  -22.3711  -10.9671   19.6182 H   0  0  0  0  0  0
  -21.1986   -7.6141   23.9720 H   0  0  0  0  0  0
  -21.1493   -6.0505   25.9069 H   0  0  0  0  0  0
  -22.0592   -2.7617   23.2817 H   0  0  0  0  0  0
  -22.4072  -11.9871   22.4770 H   0  0  0  0  0  0
  -21.1100  -13.1282   22.2567 H   0  0  0  0  0  0
  -24.6858  -15.8530   20.5980 H   0  0  0  0  0  0
  -26.3067  -15.6326   20.1741 H   0  0  0  0  0  0
  -26.7227  -32.5349   23.1042 H   0  0  0  0  0  0
  -25.0173  -33.9672   25.0434 H   0  0  0  0  0  0
  -22.7357  -31.3002   21.3929 H   0  0  0  0  0  0
  -23.3744  -35.9582   23.3310 H   0  0  0  0  0  0
  -24.3566  -36.8880   22.2055 H   0  0  0  0  0  0
  -23.7221  -37.6453   23.6672 H   0  0  0  0  0  0
  -26.1378  -31.5089   20.6139 H   0  0  0  0  0  0
  -26.8628  -30.7949   22.0202 H   0  0  0  0  0  0
  -28.1247  -28.8763   21.2140 H   0  0  0  0  0  0
  -25.9158  -25.9168   18.9558 H   0  0  0  0  0  0
  -23.9667  -27.3236   18.9823 H   0  0  0  0  0  0
  -23.7882  -30.5911   19.4046 H   0  0  0  0  0  0
  -22.7727  -29.2530   19.8462 H   0  0  0  0  0  0
  -25.1294  -36.1893   25.0810 H   0  0  0  0  0  0
  -21.0025  -28.3264   24.1363 H   0  0  0  0  0  0
  -20.5670  -26.2289   23.3608 H   0  0  0  0  0  0
  -21.6640  -26.7385   22.1189 H   0  0  0  0  0  0
  -19.6884  -25.6284   21.1227 H   0  0  0  0  0  0
  -19.6671  -27.3187   20.6746 H   0  0  0  0  0  0
  -17.4199  -26.6682   21.4033 H   0  0  0  0  0  0
  -18.0315  -26.0050   22.9015 H   0  0  0  0  0  0
  -19.7966  -30.7270   24.2218 H   0  0  0  0  0  0
  -17.5045  -31.6257   24.5156 H   0  0  0  0  0  0
  -15.5370  -30.2973   23.7651 H   0  0  0  0  0  0
  -15.8701  -28.0801   22.7073 H   0  0  0  0  0  0
  -24.5906  -30.7151   25.7800 H   0  0  0  0  0  0
  -24.9086  -32.2900   26.4970 H   0  0  0  0  0  0
  -25.8139  -30.8826   27.0176 H   0  0  0  0  0  0
  -26.2976  -29.6710   24.1242 H   0  0  0  0  0  0
  -27.4119  -29.7261   25.4716 H   0  0  0  0  0  0
  -27.8857  -30.4259   23.9429 H   0  0  0  0  0  0
  -27.2622  -33.3666   26.2013 H   0  0  0  0  0  0
  -28.3884  -32.6939   25.0317 H   0  0  0  0  0  0
  -28.0733  -31.8538   26.5434 H   0  0  0  0  0  0
  -28.2592  -38.0073   24.7521 H   0  0  0  0  0  0
  -28.1060  -36.2608   24.6311 H   0  0  0  0  0  0
  -27.2294  -37.1450   25.8877 H   0  0  0  0  0  0
  -20.9397  -29.8783   21.6857 H   0  0  0  0  0  0
  -26.0147  -38.2817   24.1462 H   0  0  0  0  0  0
  -32.3948  -18.1419   20.6156 H   0  0  0  0  0  0
  -31.7803  -18.2322   22.2787 H   0  0  0  0  0  0
  -32.6064  -19.6244   21.5505 H   0  0  0  0  0  0
  -29.6418  -15.3244   22.8024 H   0  0  0  0  0  0
  -28.3273  -16.2832   22.1131 H   0  0  0  0  0  0
  -29.8723  -17.0254   22.5199 H   0  0  0  0  0  0
  -27.4592  -21.9670   20.4733 H   0  0  0  0  0  0
  -28.1536  -22.0340   18.9003 H   0  0  0  0  0  0
  -30.6504  -16.9967   19.1075 H   0  0  0  0  0  0
  -28.9330  -16.8570   19.1497 H   0  0  0  0  0  0
  -29.8930  -23.6925   19.6701 H   0  0  0  0  0  0
  -29.2788  -23.6052   21.2941 H   0  0  0  0  0  0
  -27.0789  -24.6015   20.5094 H   0  0  0  0  0  0
  -27.7145  -24.7235   18.8960 H   0  0  0  0  0  0
  1 25  1  0  0  0
  1 30  2  0  0  0
  1 82  1  0  0  0
  2  3  1  0  0  0
  2 25  1  0  0  0
  2 83  1  0  0  0
  2 84  1  0  0  0
  3  4  1  0  0  0
  3 85  1  0  0  0
  3 86  1  0  0  0
  4  5  1  0  0  0
  4 87  1  0  0  0
  4 88  1  0  0  0
  5  6  1  0  0  0
  5 26  1  0  0  0
  5 89  1  0  0  0
  6 25  1  0  0  0
  6 90  1  0  0  0
  6 91  1  0  0  0
  7  8  2  0  0  0
  7 26  1  0  0  0
  7 29  1  0  0  0
  8  9  1  0  0  0
  8 22  1  0  0  0
  9 10  1  0  0  0
  9 27  2  0  0  0
 10 11  2  0  0  0
 10 15  1  0  0  0
 11 12  1  0  0  0
 11 92  1  0  0  0
 12 13  2  0  0  0
 12 93  1  0  0  0
 13 14  1  0  0  0
 13 31  1  0  0  0
 14 15  2  0  0  0
 14 94  1  0  0  0
 15 95  1  0  0  0
 16 17  2  0  0  0
 16 21  1  0  0  0
 16 31  1  0  0  0
 17 18  1  0  0  0
 17 96  1  0  0  0
 18 19  2  0  0  0
 18 97  1  0  0  0
 19 20  1  0  0  0
 19 24  1  0  0  0
 20 21  2  0  0  0
 20 98  1  0  0  0
 21 23  1  0  0  0
 22 28  1  0  0  0
 22 32  2  0  0  0
 26 27  1  0  0  0
 28 99  1  0  0  0
 28100  1  0  0  0
 29101  1  0  0  0
 29102  1  0  0  0
 33 34  1  0  0  0
 33 66  1  0  0  0
 33 70  2  0  0  0
 34 36  1  0  0  0
 34 59  1  0  0  0
 34103  1  0  0  0
 35 44  2  0  0  0
 35 45  1  0  0  0
 35 68  1  0  0  0
 36 56  1  0  0  0
 36104  1  0  0  0
 37 39  1  0  0  0
 37 47  1  0  0  0
 37 66  1  0  0  0
 37105  1  0  0  0
 38 43  2  0  0  0
 38 46  1  0  0  0
 38 47  1  0  0  0
 39 64  1  0  0  0
 39 67  2  0  0  0
 40 52  1  0  0  0
 40 53  2  0  0  0
 40 58  1  0  0  0
 41106  1  0  0  0
 41107  1  0  0  0
 41108  1  0  0  0
 41 48  1  0  0  0
 42 43  1  0  0  0
 42 66  1  0  0  0
 42109  1  0  0  0
 42110  1  0  0  0
 43 44  1  0  0  0
 44111  1  0  0  0
 45 46  2  0  0  0
 45112  1  0  0  0
 46113  1  0  0  0
 47114  1  0  0  0
 47115  1  0  0  0
 48 56  1  0  0  0
 48 65  1  0  0  0
 48116  1  0  0  0
 49 50  1  0  0  0
 49 53  1  0  0  0
 49 64  1  0  0  0
 49117  1  0  0  0
 50 51  1  0  0  0
 50118  1  0  0  0
 50119  1  0  0  0
 51 52  1  0  0  0
 51120  1  0  0  0
 51121  1  0  0  0
 52122  1  0  0  0
 52123  1  0  0  0
 53 54  1  0  0  0
 54 55  2  0  0  0
 54124  1  0  0  0
 55 57  1  0  0  0
 55125  1  0  0  0
 56 69  2  0  0  0
 57 58  2  0  0  0
 57126  1  0  0  0
 58127  1  0  0  0
 59 60  1  0  0  0
 59 61  1  0  0  0
 59 62  1  0  0  0
 60128  1  0  0  0
 60129  1  0  0  0
 60130  1  0  0  0
 61131  1  0  0  0
 61132  1  0  0  0
 61133  1  0  0  0
 62134  1  0  0  0
 62135  1  0  0  0
 62136  1  0  0  0
 63 65  1  0  0  0
 63137  1  0  0  0
 63138  1  0  0  0
 63139  1  0  0  0
 64140  1  0  0  0
 65141  1  0  0  0
 68 78  1  0  0  0
 71 75  1  0  0  0
 71 79  1  0  0  0
 71 80  2  0  0  0
 72 76  1  0  0  0
 72 79  2  0  0  0
 72 81  1  0  0  0
 73 81  1  0  0  0
 73142  1  0  0  0
 73143  1  0  0  0
 73144  1  0  0  0
 74 82  1  0  0  0
 74145  1  0  0  0
 74146  1  0  0  0
 74147  1  0  0  0
 75 77  1  0  0  0
 75148  1  0  0  0
 75149  1  0  0  0
 76 82  1  0  0  0
 76150  1  0  0  0
 76151  1  0  0  0
 77 78  1  0  0  0
 77152  1  0  0  0
 77153  1  0  0  0
 78154  1  0  0  0
 78155  1  0  0  0
 80 81  1  0  0  0
M  ISO  4   1 100  68 101  78 101  82 100
M  END
> <chiral flag>
0

> <version>
0

> <s_m_source_file>
/data/baiqing/PycharmProjects/Reinvent-master-3.2/result/LINK_invent/BTK/process_docking_weight1_custom_sum_contain_oxygen_bond_distance_aromatic_linkinvent_7_9_3/rearranged_h_0055.sdf

> <i_m_source_file_index>
11

> <r_mmod_Potential_Energy-OPLS-2005>
212.527770996094

> <r_mmod_Stretch_Energy-OPLS-2005>
132.193450927734

> <r_mmod_Bend_Energy-OPLS-2005>
199.273681640625

> <r_mmod_Torsional_Energy-OPLS-2005>
271.920257568359

> <r_mmod_Improper_Torsional_Energy-OPLS-2005>
9.65898323059082

> <r_mmod_Van_der_Waal_Energy-OPLS-2005>
118.614204406738

> <r_mmod_Electrostatic_Energy-OPLS-2005>
-391.304260253906

> <r_mmod_Solvation_Energy-OPLS-2005>
-216.608474731445

> <b_mmod_Minimization_Converged-OPLS-2005>
0

> <r_mmod_RMS_Derivative-OPLS-2005>
3.14786148071289

$$$$
11
                    3D
 Structure written by MMmdl.
158166  0  0  1  0            999 V2000
  -30.5510  -14.9731   20.4565 C   0  0  0  0  0  0
  -30.4367  -12.6061   19.5133 C   0  0  0  0  0  0
  -29.5246  -12.5595   18.2639 C   0  0  0  0  0  0
  -28.0543  -12.3412   18.6667 C   0  0  0  0  0  0
  -27.6325  -13.2540   19.8470 C   0  0  2  0  0  0
  -28.6735  -13.2336   20.9836 C   0  0  0  0  0  0
  -25.2452  -13.8230   20.5687 C   0  0  0  0  0  0
  -24.1778  -13.0444   20.9214 C   0  0  0  0  0  0
  -24.6403  -11.6932   20.8744 C   0  0  0  0  0  0
  -23.9090  -10.4298   21.0404 C   0  0  0  0  0  0
  -24.3635   -9.4211   21.9182 C   0  0  0  0  0  0
  -23.6304   -8.2249   22.0754 C   0  0  0  0  0  0
  -22.4285   -8.0287   21.3547 C   0  0  0  0  0  0
  -21.9927   -9.0261   20.4646 C   0  0  0  0  0  0
  -22.7260  -10.2137   20.3054 C   0  0  0  0  0  0
  -21.6858   -6.0739   22.5279 C   0  0  0  0  0  0
  -21.4016   -6.5642   23.8212 C   0  0  0  0  0  0
  -21.3662   -5.6794   24.9174 C   0  0  0  0  0  0
  -21.6047   -4.3056   24.7226 C   0  0  0  0  0  0
  -21.8819   -3.8149   23.4346 C   0  0  0  0  0  0
  -21.9194   -4.6966   22.3402 C   0  0  0  0  0  0
  -22.7797  -13.5204   21.1875 C   0  0  0  0  0  0
  -22.1660   -4.2150   21.0981 F   0  0  0  0  0  0
  -21.5631   -3.4537   25.7739 F   0  0  0  0  0  0
  -29.9478  -13.7019   20.4144 N   0  0  0  0  0  0
  -26.2894  -12.9476   20.3256 N   0  0  0  0  0  0
  -25.9340  -11.6597   20.5733 N   0  0  0  0  0  0
  -22.0458  -12.8188   22.0438 N   0  0  0  0  0  0
  -25.4103  -15.1953   20.4078 N   0  0  0  0  0  0
  -31.7269  -14.9676   20.0655 O   0  0  0  0  0  0
  -21.6648   -6.8885   21.4242 O   0  0  0  0  0  0
  -22.3469  -14.5505   20.6722 O   0  0  0  0  0  0
  -24.6451  -31.8423   23.1868 C   0  0  0  0  0  0
  -25.9215  -32.4685   23.8264 C   0  0  1  0  0  0
  -27.2141  -27.1175   20.1535 C   0  0  0  0  0  0
  -25.5957  -33.8492   24.2180 N   0  0  0  0  0  0
  -23.4496  -30.4615   21.5327 C   0  0  2  0  0  0
  -24.8990  -28.8861   20.1087 C   0  0  0  0  0  0
  -22.7576  -29.4537   22.4849 C   0  0  0  0  0  0
  -18.0306  -28.1395   22.8477 C   0  0  0  0  0  0
  -24.1493  -36.7251   23.2643 C   0  0  0  0  0  0
  -26.0069  -30.7099   21.3889 C   0  0  0  0  0  0
  -26.0771  -29.3198   20.7296 C   0  0  0  0  0  0
  -27.2352  -28.4518   20.7347 C   0  0  0  0  0  0
  -26.0106  -26.7923   19.4889 C   0  0  0  0  0  0
  -24.8798  -27.6368   19.4719 C   0  0  0  0  0  0
  -23.6767  -29.7905   20.1522 C   0  0  0  0  0  0
  -25.4126  -36.3027   24.0314 C   0  0  1  0  0  0
  -20.5921  -28.3724   23.1228 C   0  0  2  0  0  0
  -20.6790  -26.9425   22.5402 C   0  0  0  0  0  0
  -19.5764  -26.6380   21.5210 C   0  0  0  0  0  0
  -18.1946  -26.7933   22.1623 C   0  0  0  0  0  0
  -19.1564  -28.8877   23.2845 C   0  0  0  0  0  0
  -18.9479  -30.1472   23.8873 C   0  0  0  0  0  0
  -17.6475  -30.6591   24.0558 C   0  0  0  0  0  0
  -25.9077  -34.9402   23.5057 C   0  0  0  0  0  0
  -16.5366  -29.9082   23.6336 C   0  0  0  0  0  0
  -16.7290  -28.6500   23.0359 C   0  0  0  0  0  0
  -26.4530  -31.6560   25.0714 C   0  0  0  0  0  0
  -25.3708  -31.3751   26.1403 C   0  0  0  0  0  0
  -27.0402  -30.2955   24.6311 C   0  0  0  0  0  0
  -27.6055  -32.4331   25.7502 C   0  0  0  0  0  0
  -27.5577  -37.1783   24.8465 C   0  0  0  0  0  0
  -21.4266  -29.3048   22.3598 N   0  0  0  0  0  0
  -26.4289  -37.3741   23.9406 N   0  0  0  0  0  0
  -24.7205  -31.0262   22.0911 N   0  0  0  0  0  0
  -23.4210  -28.8087   23.3008 O   0  0  0  0  0  0
  -28.2550  -26.1145   20.2355 O   0  0  0  0  0  0
  -26.5667  -34.8902   22.4639 O   0  0  0  0  0  0
  -23.5566  -32.1307   23.7078 O   0  0  0  0  0  0
  -28.5033  -17.8112   17.9554 C   0  0  0  0  0  0
  -29.0877  -18.9417   19.6307 C   0  0  0  0  0  0
  -27.9371  -17.4561   16.6248 C   0  0  0  0  0  0
  -31.1129  -17.2033   21.6502 C   0  0  0  0  0  0
  -28.8178  -16.3410   21.9495 C   0  0  0  0  0  0
  -28.9015  -23.2135   20.3987 C   0  0  0  0  0  0
  -28.4229  -21.6256   20.0461 C   0  0  0  0  0  0
  -27.9636  -24.5873   20.0370 C   0  0  0  0  0  0
  -29.9480  -16.4998   20.9176 C   0  0  0  0  0  0
  -28.5379  -19.0813   18.4265 N   0  0  0  0  0  0
  -28.9901  -16.8790   18.7543 N   0  0  0  0  0  0
  -29.4312  -17.5448   19.8576 N   0  0  0  0  0  0
  -29.1480  -20.2502   20.3375 N   0  0  0  0  0  0
  -31.4723  -12.7459   19.2014 H   0  0  0  0  0  0
  -30.4272  -11.6452   20.0300 H   0  0  0  0  0  0
  -29.8501  -11.7709   17.5845 H   0  0  0  0  0  0
  -29.6167  -13.4979   17.7146 H   0  0  0  0  0  0
  -27.9423  -11.2947   18.9522 H   0  0  0  0  0  0
  -27.3973  -12.4966   17.8102 H   0  0  0  0  0  0
  -27.6088  -14.2687   19.4484 H   0  0  0  0  0  0
  -28.7732  -12.2238   21.3848 H   0  0  0  0  0  0
  -28.3480  -13.8265   21.8311 H   0  0  0  0  0  0
  -25.2778   -9.5687   22.4758 H   0  0  0  0  0  0
  -24.0015   -7.4641   22.7474 H   0  0  0  0  0  0
  -21.0858   -8.8783   19.8949 H   0  0  0  0  0  0
  -22.3718  -10.9678   19.6165 H   0  0  0  0  0  0
  -21.2004   -7.6149   23.9714 H   0  0  0  0  0  0
  -21.1486   -6.0524   25.9077 H   0  0  0  0  0  0
  -22.0596   -2.7610   23.2846 H   0  0  0  0  0  0
  -22.4087  -11.9857   22.4829 H   0  0  0  0  0  0
  -21.1069  -13.1195   22.2638 H   0  0  0  0  0  0
  -24.6424  -15.8482   20.5194 H   0  0  0  0  0  0
  -26.2582  -15.6328   20.0704 H   0  0  0  0  0  0
  -26.7280  -32.5284   23.0990 H   0  0  0  0  0  0
  -25.0079  -33.9602   25.0312 H   0  0  0  0  0  0
  -22.7533  -31.2884   21.3775 H   0  0  0  0  0  0
  -23.3762  -35.9576   23.3290 H   0  0  0  0  0  0
  -24.3578  -36.8900   22.2060 H   0  0  0  0  0  0
  -23.7243  -37.6440   23.6691 H   0  0  0  0  0  0
  -26.1660  -31.4637   20.6166 H   0  0  0  0  0  0
  -26.8761  -30.7592   22.0333 H   0  0  0  0  0  0
  -28.1304  -28.7770   21.2461 H   0  0  0  0  0  0
  -25.9065  -25.8380   18.9951 H   0  0  0  0  0  0
  -23.9812  -27.3006   18.9727 H   0  0  0  0  0  0
  -23.8148  -30.5649   19.3967 H   0  0  0  0  0  0
  -22.7908  -29.2341   19.8411 H   0  0  0  0  0  0
  -25.1316  -36.1854   25.0807 H   0  0  0  0  0  0
  -21.0014  -28.3316   24.1349 H   0  0  0  0  0  0
  -20.5681  -26.2337   23.3623 H   0  0  0  0  0  0
  -21.6655  -26.7425   22.1202 H   0  0  0  0  0  0
  -19.6925  -25.6284   21.1257 H   0  0  0  0  0  0
  -19.6702  -27.3175   20.6729 H   0  0  0  0  0  0
  -17.4214  -26.6676   21.4028 H   0  0  0  0  0  0
  -18.0347  -26.0079   22.9024 H   0  0  0  0  0  0
  -19.7954  -30.7296   24.2232 H   0  0  0  0  0  0
  -17.5027  -31.6269   24.5164 H   0  0  0  0  0  0
  -15.5365  -30.2976   23.7671 H   0  0  0  0  0  0
  -15.8691  -28.0808   22.7091 H   0  0  0  0  0  0
  -24.5897  -30.7091   25.7719 H   0  0  0  0  0  0
  -24.8886  -32.2932   26.4769 H   0  0  0  0  0  0
  -25.7986  -30.8962   27.0220 H   0  0  0  0  0  0
  -26.3025  -29.6668   24.1310 H   0  0  0  0  0  0
  -27.3998  -29.7265   25.4895 H   0  0  0  0  0  0
  -27.8939  -30.4186   23.9644 H   0  0  0  0  0  0
  -27.2646  -33.3653   26.2018 H   0  0  0  0  0  0
  -28.3899  -32.6856   25.0355 H   0  0  0  0  0  0
  -28.0686  -31.8496   26.5470 H   0  0  0  0  0  0
  -28.2584  -38.0089   24.7513 H   0  0  0  0  0  0
  -28.1085  -36.2618   24.6294 H   0  0  0  0  0  0
  -27.2292  -37.1429   25.8867 H   0  0  0  0  0  0
  -20.9478  -29.8758   21.6773 H   0  0  0  0  0  0
  -26.0155  -38.2809   24.1407 H   0  0  0  0  0  0
  -27.3100  -18.2620   16.2438 H   0  0  0  0  0  0
  -27.3274  -16.5554   16.6970 H   0  0  0  0  0  0
  -28.7393  -17.2750   15.9099 H   0  0  0  0  0  0
  -30.7905  -18.1230   22.1388 H   0  0  0  0  0  0
  -31.9086  -17.4732   20.9548 H   0  0  0  0  0  0
  -31.5501  -16.5641   22.4186 H   0  0  0  0  0  0
  -28.5555  -17.2992   22.3988 H   0  0  0  0  0  0
  -29.1062  -15.6790   22.7660 H   0  0  0  0  0  0
  -27.9093  -15.9613   21.4853 H   0  0  0  0  0  0
  -29.8696  -23.3637   19.9212 H   0  0  0  0  0  0
  -29.1096  -23.2535   21.4679 H   0  0  0  0  0  0
  -28.2224  -21.6235   18.9741 H   0  0  0  0  0  0
  -27.4357  -21.5104   20.4958 H   0  0  0  0  0  0
  -27.0172  -24.4138   20.5504 H   0  0  0  0  0  0
  -27.7273  -24.4899   18.9772 H   0  0  0  0  0  0
  -29.5687  -20.1836   21.2601 H   0  0  0  0  0  0
  1 25  1  0  0  0
  1 30  2  0  0  0
  1 79  1  0  0  0
  2  3  1  0  0  0
  2 25  1  0  0  0
  2 84  1  0  0  0
  2 85  1  0  0  0
  3  4  1  0  0  0
  3 86  1  0  0  0
  3 87  1  0  0  0
  4  5  1  0  0  0
  4 88  1  0  0  0
  4 89  1  0  0  0
  5  6  1  0  0  0
  5 26  1  0  0  0
  5 90  1  0  0  0
  6 25  1  0  0  0
  6 91  1  0  0  0
  6 92  1  0  0  0
  7  8  2  0  0  0
  7 26  1  0  0  0
  7 29  1  0  0  0
  8  9  1  0  0  0
  8 22  1  0  0  0
  9 10  1  0  0  0
  9 27  2  0  0  0
 10 11  2  0  0  0
 10 15  1  0  0  0
 11 12  1  0  0  0
 11 93  1  0  0  0
 12 13  2  0  0  0
 12 94  1  0  0  0
 13 14  1  0  0  0
 13 31  1  0  0  0
 14 15  2  0  0  0
 14 95  1  0  0  0
 15 96  1  0  0  0
 16 17  2  0  0  0
 16 21  1  0  0  0
 16 31  1  0  0  0
 17 18  1  0  0  0
 17 97  1  0  0  0
 18 19  2  0  0  0
 18 98  1  0  0  0
 19 20  1  0  0  0
 19 24  1  0  0  0
 20 21  2  0  0  0
 20 99  1  0  0  0
 21 23  1  0  0  0
 22 28  1  0  0  0
 22 32  2  0  0  0
 26 27  1  0  0  0
 28100  1  0  0  0
 28101  1  0  0  0
 29102  1  0  0  0
 29103  1  0  0  0
 33 34  1  0  0  0
 33 66  1  0  0  0
 33 70  2  0  0  0
 34 36  1  0  0  0
 34 59  1  0  0  0
 34104  1  0  0  0
 35 44  2  0  0  0
 35 45  1  0  0  0
 35 68  1  0  0  0
 36 56  1  0  0  0
 36105  1  0  0  0
 37 39  1  0  0  0
 37 47  1  0  0  0
 37 66  1  0  0  0
 37106  1  0  0  0
 38 43  2  0  0  0
 38 46  1  0  0  0
 38 47  1  0  0  0
 39 64  1  0  0  0
 39 67  2  0  0  0
 40 52  1  0  0  0
 40 53  2  0  0  0
 40 58  1  0  0  0
 41107  1  0  0  0
 41108  1  0  0  0
 41109  1  0  0  0
 41 48  1  0  0  0
 42 43  1  0  0  0
 42 66  1  0  0  0
 42110  1  0  0  0
 42111  1  0  0  0
 43 44  1  0  0  0
 44112  1  0  0  0
 45 46  2  0  0  0
 45113  1  0  0  0
 46114  1  0  0  0
 47115  1  0  0  0
 47116  1  0  0  0
 48 56  1  0  0  0
 48 65  1  0  0  0
 48117  1  0  0  0
 49 50  1  0  0  0
 49 53  1  0  0  0
 49 64  1  0  0  0
 49118  1  0  0  0
 50 51  1  0  0  0
 50119  1  0  0  0
 50120  1  0  0  0
 51 52  1  0  0  0
 51121  1  0  0  0
 51122  1  0  0  0
 52123  1  0  0  0
 52124  1  0  0  0
 53 54  1  0  0  0
 54 55  2  0  0  0
 54125  1  0  0  0
 55 57  1  0  0  0
 55126  1  0  0  0
 56 69  2  0  0  0
 57 58  2  0  0  0
 57127  1  0  0  0
 58128  1  0  0  0
 59 60  1  0  0  0
 59 61  1  0  0  0
 59 62  1  0  0  0
 60129  1  0  0  0
 60130  1  0  0  0
 60131  1  0  0  0
 61132  1  0  0  0
 61133  1  0  0  0
 61134  1  0  0  0
 62135  1  0  0  0
 62136  1  0  0  0
 62137  1  0  0  0
 63 65  1  0  0  0
 63138  1  0  0  0
 63139  1  0  0  0
 63140  1  0  0  0
 64141  1  0  0  0
 65142  1  0  0  0
 68 78  1  0  0  0
 71 73  1  0  0  0
 71 80  1  0  0  0
 71 81  2  0  0  0
 72 80  2  0  0  0
 72 82  1  0  0  0
 72 83  1  0  0  0
 73143  1  0  0  0
 73144  1  0  0  0
 73145  1  0  0  0
 74146  1  0  0  0
 74147  1  0  0  0
 74148  1  0  0  0
 74 79  1  0  0  0
 75 79  1  0  0  0
 75149  1  0  0  0
 75150  1  0  0  0
 75151  1  0  0  0
 76 77  1  0  0  0
 76 78  1  0  0  0
 76152  1  0  0  0
 76153  1  0  0  0
 77 83  1  0  0  0
 77154  1  0  0  0
 77155  1  0  0  0
 78156  1  0  0  0
 78157  1  0  0  0
 79 82  1  0  0  0
 81 82  1  0  0  0
 83158  1  0  0  0
M  ISO  4   1 100  68 101  78 101  79 100
M  END
> <chiral flag>
0

> <version>
0

> <s_m_source_file>
/data/baiqing/PycharmProjects/Reinvent-master-3.2/result/LINK_invent/BTK/process_docking_weight1_custom_sum_contain_oxygen_bond_distance_aromatic_linkinvent_7_9_3/rearranged_h_0055.sdf

> <i_m_source_file_index>
12

> <r_mmod_Potential_Energy-OPLS-2005>
625.259033203125

> <r_mmod_Stretch_Energy-OPLS-2005>
309.215789794922

> <r_mmod_Bend_Energy-OPLS-2005>
362.044708251953

> <r_mmod_Torsional_Energy-OPLS-2005>
207.3359375

> <r_mmod_Improper_Torsional_Energy-OPLS-2005>
2.69186592102051

> <r_mmod_Van_der_Waal_Energy-OPLS-2005>
114.834098815918

> <r_mmod_Electrostatic_Energy-OPLS-2005>
-352.152893066406

> <r_mmod_Solvation_Energy-OPLS-2005>
-217.828689575195

> <b_mmod_Minimization_Converged-OPLS-2005>
0

> <r_mmod_RMS_Derivative-OPLS-2005>
0.401427567005157

$$$$
12
                    3D
 Structure written by MMmdl.
150158  0  0  1  0            999 V2000
  -30.5400  -14.9969   20.4054 C   0  0  0  0  0  0
  -30.4342  -12.6208   19.5071 C   0  0  0  0  0  0
  -29.5206  -12.5356   18.2626 C   0  0  0  0  0  0
  -28.0561  -12.3145   18.6826 C   0  0  0  0  0  0
  -27.6239  -13.2568   19.8365 C   0  0  2  0  0  0
  -28.6657  -13.3191   20.9737 C   0  0  0  0  0  0
  -25.2413  -13.8207   20.5706 C   0  0  0  0  0  0
  -24.1749  -13.0420   20.9223 C   0  0  0  0  0  0
  -24.6396  -11.6919   20.8768 C   0  0  0  0  0  0
  -23.9087  -10.4287   21.0417 C   0  0  0  0  0  0
  -24.3633   -9.4200   21.9192 C   0  0  0  0  0  0
  -23.6303   -8.2238   22.0758 C   0  0  0  0  0  0
  -22.4284   -8.0283   21.3549 C   0  0  0  0  0  0
  -21.9925   -9.0256   20.4648 C   0  0  0  0  0  0
  -22.7258  -10.2131   20.3062 C   0  0  0  0  0  0
  -21.6850   -6.0742   22.5283 C   0  0  0  0  0  0
  -21.4012   -6.5647   23.8218 C   0  0  0  0  0  0
  -21.3658   -5.6798   24.9178 C   0  0  0  0  0  0
  -21.6042   -4.3060   24.7225 C   0  0  0  0  0  0
  -21.8816   -3.8155   23.4346 C   0  0  0  0  0  0
  -21.9191   -4.6973   22.3403 C   0  0  0  0  0  0
  -22.7772  -13.5192   21.1880 C   0  0  0  0  0  0
  -22.1661   -4.2160   21.0980 F   0  0  0  0  0  0
  -21.5626   -3.4544   25.7738 F   0  0  0  0  0  0
  -29.9349  -13.7370   20.3662 N   0  0  0  0  0  0
  -26.2862  -12.9474   20.3264 N   0  0  0  0  0  0
  -25.9334  -11.6593   20.5764 N   0  0  0  0  0  0
  -22.0431  -12.8184   22.0446 N   0  0  0  0  0  0
  -25.4013  -15.1928   20.4117 N   0  0  0  0  0  0
  -31.7487  -15.0283   20.1502 O   0  0  0  0  0  0
  -21.6641   -6.8885   21.4246 O   0  0  0  0  0  0
  -22.3455  -14.5500   20.6731 O   0  0  0  0  0  0
  -24.6455  -31.8397   23.1828 C   0  0  0  0  0  0
  -25.9211  -32.4669   23.8237 C   0  0  1  0  0  0
  -27.2201  -27.1020   20.1633 C   0  0  0  0  0  0
  -25.5947  -33.8477   24.2154 N   0  0  0  0  0  0
  -23.4513  -30.4560   21.5285 C   0  0  2  0  0  0
  -24.9015  -28.8693   20.1117 C   0  0  0  0  0  0
  -22.7580  -29.4522   22.4838 C   0  0  0  0  0  0
  -18.0306  -28.1393   22.8468 C   0  0  0  0  0  0
  -24.1491  -36.7246   23.2646 C   0  0  0  0  0  0
  -26.0080  -30.7031   21.3842 C   0  0  0  0  0  0
  -26.0793  -29.3094   20.7288 C   0  0  0  0  0  0
  -27.2391  -28.4438   20.7305 C   0  0  0  0  0  0
  -26.0153  -26.7605   19.5147 C   0  0  0  0  0  0
  -24.8840  -27.6103   19.4878 C   0  0  0  0  0  0
  -23.6805  -29.7776   20.1505 C   0  0  0  0  0  0
  -25.4122  -36.3014   24.0314 C   0  0  1  0  0  0
  -20.5921  -28.3722   23.1224 C   0  0  2  0  0  0
  -20.6790  -26.9421   22.5400 C   0  0  0  0  0  0
  -19.5767  -26.6373   21.5209 C   0  0  0  0  0  0
  -18.1946  -26.7928   22.1618 C   0  0  0  0  0  0
  -19.1563  -28.8875   23.2836 C   0  0  0  0  0  0
  -18.9487  -30.1471   23.8866 C   0  0  0  0  0  0
  -17.6487  -30.6592   24.0557 C   0  0  0  0  0  0
  -25.9076  -34.9394   23.5048 C   0  0  0  0  0  0
  -16.5374  -29.9082   23.6338 C   0  0  0  0  0  0
  -16.7290  -28.6503   23.0352 C   0  0  0  0  0  0
  -26.4524  -31.6557   25.0702 C   0  0  0  0  0  0
  -25.3701  -31.3760   26.1397 C   0  0  0  0  0  0
  -27.0403  -30.2952   24.6308 C   0  0  0  0  0  0
  -27.6048  -32.4338   25.7485 C   0  0  0  0  0  0
  -27.5570  -37.1773   24.8463 C   0  0  0  0  0  0
  -21.4267  -29.3047   22.3599 N   0  0  0  0  0  0
  -26.4277  -37.3736   23.9414 N   0  0  0  0  0  0
  -24.7218  -31.0222   22.0870 N   0  0  0  0  0  0
  -23.4213  -28.8082   23.3005 O   0  0  0  0  0  0
  -28.2879  -26.1262   20.2214 O   0  0  0  0  0  0
  -26.5673  -34.8901   22.4632 O   0  0  0  0  0  0
  -23.5568  -32.1285   23.7033 O   0  0  0  0  0  0
  -29.9255  -20.5250   20.1210 C   0  0  0  0  0  0
  -29.4423  -19.2130   20.3909 C   0  0  0  0  0  0
  -28.0983  -19.6245   20.7456 C   0  0  0  0  0  0
  -30.2567  -17.7352   20.3337 C   0  0  0  0  0  0
  -29.2012  -23.2118   20.1577 C   0  0  0  0  0  0
  -28.1187  -24.5566   20.1733 C   0  0  0  0  0  0
  -26.9648  -18.7147   21.1903 C   0  0  0  0  0  0
  -27.8662  -20.9823   20.6973 N   0  0  0  0  0  0
  -28.9954  -21.6233   20.2893 N   0  0  0  0  0  0
  -29.7952  -16.2194   20.5131 N   0  0  0  0  0  0
  -27.2777  -17.4330   20.9923 F   0  0  0  0  0  0
  -26.7215  -18.8960   22.4891 F   0  0  0  0  0  0
  -25.8546  -18.9861   20.5016 F   0  0  0  0  0  0
  -31.4683  -12.7749   19.1948 H   0  0  0  0  0  0
  -30.4296  -11.6790   20.0578 H   0  0  0  0  0  0
  -29.8489  -11.7304   17.6040 H   0  0  0  0  0  0
  -29.6017  -13.4578   17.6852 H   0  0  0  0  0  0
  -27.9623  -11.2762   19.0033 H   0  0  0  0  0  0
  -27.3914  -12.4302   17.8256 H   0  0  0  0  0  0
  -27.5754  -14.2522   19.3938 H   0  0  0  0  0  0
  -28.7638  -12.3559   21.4766 H   0  0  0  0  0  0
  -28.3580  -14.0384   21.7342 H   0  0  0  0  0  0
  -25.2776   -9.5677   22.4773 H   0  0  0  0  0  0
  -24.0007   -7.4630   22.7482 H   0  0  0  0  0  0
  -21.0852   -8.8779   19.8956 H   0  0  0  0  0  0
  -22.3717  -10.9675   19.6177 H   0  0  0  0  0  0
  -21.2007   -7.6157   23.9724 H   0  0  0  0  0  0
  -21.1480   -6.0530   25.9080 H   0  0  0  0  0  0
  -22.0595   -2.7620   23.2844 H   0  0  0  0  0  0
  -22.4056  -11.9847   22.4825 H   0  0  0  0  0  0
  -21.1054  -13.1215   22.2669 H   0  0  0  0  0  0
  -24.6255  -15.8356   20.5214 H   0  0  0  0  0  0
  -26.2543  -15.6487   20.1178 H   0  0  0  0  0  0
  -26.7279  -32.5263   23.0966 H   0  0  0  0  0  0
  -25.0079  -33.9592   25.0292 H   0  0  0  0  0  0
  -22.7555  -31.2825   21.3689 H   0  0  0  0  0  0
  -23.3760  -35.9572   23.3288 H   0  0  0  0  0  0
  -24.3574  -36.8897   22.2064 H   0  0  0  0  0  0
  -23.7242  -37.6432   23.6701 H   0  0  0  0  0  0
  -26.1663  -31.4534   20.6085 H   0  0  0  0  0  0
  -26.8774  -30.7559   22.0281 H   0  0  0  0  0  0
  -28.1396  -28.7801   21.2254 H   0  0  0  0  0  0
  -25.9306  -25.7924   19.0418 H   0  0  0  0  0  0
  -23.9844  -27.2677   18.9950 H   0  0  0  0  0  0
  -23.8229  -30.5491   19.3933 H   0  0  0  0  0  0
  -22.7938  -29.2230   19.8383 H   0  0  0  0  0  0
  -25.1309  -36.1832   25.0806 H   0  0  0  0  0  0
  -21.0014  -28.3317   24.1345 H   0  0  0  0  0  0
  -20.5678  -26.2341   23.3627 H   0  0  0  0  0  0
  -21.6657  -26.7417   22.1205 H   0  0  0  0  0  0
  -19.6934  -25.6276   21.1260 H   0  0  0  0  0  0
  -19.6704  -27.3169   20.6728 H   0  0  0  0  0  0
  -17.4214  -26.6668   21.4022 H   0  0  0  0  0  0
  -18.0346  -26.0071   22.9020 H   0  0  0  0  0  0
  -19.7966  -30.7291   24.2221 H   0  0  0  0  0  0
  -17.5042  -31.6270   24.5163 H   0  0  0  0  0  0
  -15.5377  -30.2983   23.7678 H   0  0  0  0  0  0
  -15.8686  -28.0821   22.7077 H   0  0  0  0  0  0
  -24.5886  -30.7101   25.7721 H   0  0  0  0  0  0
  -24.8888  -32.2947   26.4759 H   0  0  0  0  0  0
  -25.7974  -30.8975   27.0219 H   0  0  0  0  0  0
  -26.3034  -29.6659   24.1310 H   0  0  0  0  0  0
  -27.4009  -29.7267   25.4889 H   0  0  0  0  0  0
  -27.8934  -30.4187   23.9635 H   0  0  0  0  0  0
  -27.2644  -33.3676   26.1969 H   0  0  0  0  0  0
  -28.3903  -32.6833   25.0340 H   0  0  0  0  0  0
  -28.0669  -31.8525   26.5475 H   0  0  0  0  0  0
  -28.2564  -38.0089   24.7522 H   0  0  0  0  0  0
  -28.1087  -36.2620   24.6273 H   0  0  0  0  0  0
  -27.2296  -37.1397   25.8866 H   0  0  0  0  0  0
  -20.9496  -29.8763   21.6769 H   0  0  0  0  0  0
  -26.0136  -38.2796   24.1434 H   0  0  0  0  0  0
  -30.9310  -20.7831   19.8180 H   0  0  0  0  0  0
  -31.0776  -17.8140   21.0474 H   0  0  0  0  0  0
  -30.7776  -17.7107   19.3758 H   0  0  0  0  0  0
  -29.9586  -23.4343   20.9114 H   0  0  0  0  0  0
  -29.7753  -23.2994   19.2331 H   0  0  0  0  0  0
  -28.5351  -24.8490   19.2091 H   0  0  0  0  0  0
  -28.4123  -24.7471   21.2059 H   0  0  0  0  0  0
  -28.8080  -16.0948   20.6837 H   0  0  0  0  0  0
  1 25  1  0  0  0
  1 30  2  0  0  0
  1 80  1  0  0  0
  2  3  1  0  0  0
  2 25  1  0  0  0
  2 84  1  0  0  0
  2 85  1  0  0  0
  3  4  1  0  0  0
  3 86  1  0  0  0
  3 87  1  0  0  0
  4  5  1  0  0  0
  4 88  1  0  0  0
  4 89  1  0  0  0
  5  6  1  0  0  0
  5 26  1  0  0  0
  5 90  1  0  0  0
  6 25  1  0  0  0
  6 91  1  0  0  0
  6 92  1  0  0  0
  7  8  2  0  0  0
  7 26  1  0  0  0
  7 29  1  0  0  0
  8  9  1  0  0  0
  8 22  1  0  0  0
  9 10  1  0  0  0
  9 27  2  0  0  0
 10 11  2  0  0  0
 10 15  1  0  0  0
 11 12  1  0  0  0
 11 93  1  0  0  0
 12 13  2  0  0  0
 12 94  1  0  0  0
 13 14  1  0  0  0
 13 31  1  0  0  0
 14 15  2  0  0  0
 14 95  1  0  0  0
 15 96  1  0  0  0
 16 17  2  0  0  0
 16 21  1  0  0  0
 16 31  1  0  0  0
 17 18  1  0  0  0
 17 97  1  0  0  0
 18 19  2  0  0  0
 18 98  1  0  0  0
 19 20  1  0  0  0
 19 24  1  0  0  0
 20 21  2  0  0  0
 20 99  1  0  0  0
 21 23  1  0  0  0
 22 28  1  0  0  0
 22 32  2  0  0  0
 26 27  1  0  0  0
 28100  1  0  0  0
 28101  1  0  0  0
 29102  1  0  0  0
 29103  1  0  0  0
 33 34  1  0  0  0
 33 66  1  0  0  0
 33 70  2  0  0  0
 34 36  1  0  0  0
 34 59  1  0  0  0
 34104  1  0  0  0
 35 44  2  0  0  0
 35 45  1  0  0  0
 35 68  1  0  0  0
 36 56  1  0  0  0
 36105  1  0  0  0
 37 39  1  0  0  0
 37 47  1  0  0  0
 37 66  1  0  0  0
 37106  1  0  0  0
 38 43  2  0  0  0
 38 46  1  0  0  0
 38 47  1  0  0  0
 39 64  1  0  0  0
 39 67  2  0  0  0
 40 52  1  0  0  0
 40 53  2  0  0  0
 40 58  1  0  0  0
 41107  1  0  0  0
 41108  1  0  0  0
 41109  1  0  0  0
 41 48  1  0  0  0
 42 43  1  0  0  0
 42 66  1  0  0  0
 42110  1  0  0  0
 42111  1  0  0  0
 43 44  1  0  0  0
 44112  1  0  0  0
 45 46  2  0  0  0
 45113  1  0  0  0
 46114  1  0  0  0
 47115  1  0  0  0
 47116  1  0  0  0
 48 56  1  0  0  0
 48 65  1  0  0  0
 48117  1  0  0  0
 49 50  1  0  0  0
 49 53  1  0  0  0
 49 64  1  0  0  0
 49118  1  0  0  0
 50 51  1  0  0  0
 50119  1  0  0  0
 50120  1  0  0  0
 51 52  1  0  0  0
 51121  1  0  0  0
 51122  1  0  0  0
 52123  1  0  0  0
 52124  1  0  0  0
 53 54  1  0  0  0
 54 55  2  0  0  0
 54125  1  0  0  0
 55 57  1  0  0  0
 55126  1  0  0  0
 56 69  2  0  0  0
 57 58  2  0  0  0
 57127  1  0  0  0
 58128  1  0  0  0
 59 60  1  0  0  0
 59 61  1  0  0  0
 59 62  1  0  0  0
 60129  1  0  0  0
 60130  1  0  0  0
 60131  1  0  0  0
 61132  1  0  0  0
 61133  1  0  0  0
 61134  1  0  0  0
 62135  1  0  0  0
 62136  1  0  0  0
 62137  1  0  0  0
 63 65  1  0  0  0
 63138  1  0  0  0
 63139  1  0  0  0
 63140  1  0  0  0
 64141  1  0  0  0
 65142  1  0  0  0
 68 76  1  0  0  0
 71 72  2  0  0  0
 71 79  1  0  0  0
 71143  1  0  0  0
 72 73  1  0  0  0
 72 74  1  0  0  0
 73 77  1  0  0  0
 73 78  2  0  0  0
 74 80  1  0  0  0
 74144  1  0  0  0
 74145  1  0  0  0
 75 76  1  0  0  0
 75 79  1  0  0  0
 75146  1  0  0  0
 75147  1  0  0  0
 76148  1  0  0  0
 76149  1  0  0  0
 77 81  1  0  0  0
 77 82  1  0  0  0
 77 83  1  0  0  0
 78 79  1  0  0  0
 80150  1  0  0  0
M  ISO  4   1 100  68 101  76 101  80 100
M  END
> <chiral flag>
0

> <version>
0

> <s_m_source_file>
/data/baiqing/PycharmProjects/Reinvent-master-3.2/result/LINK_invent/BTK/process_docking_weight1_custom_sum_contain_oxygen_bond_distance_aromatic_linkinvent_7_9_3/rearranged_h_0055.sdf

> <i_m_source_file_index>
13

> <r_mmod_Potential_Energy-OPLS-2005>
875.429504394531

> <r_mmod_Stretch_Energy-OPLS-2005>
301.478790283203

> <r_mmod_Bend_Energy-OPLS-2005>
509.125457763672

> <r_mmod_Torsional_Energy-OPLS-2005>
216.151947021484

> <r_mmod_Improper_Torsional_Energy-OPLS-2005>
4.530837059021

> <r_mmod_Van_der_Waal_Energy-OPLS-2005>
112.16960144043

> <r_mmod_Electrostatic_Energy-OPLS-2005>
-274.326721191406

> <r_mmod_Solvation_Energy-OPLS-2005>
-216.628845214844

> <b_mmod_Minimization_Converged-OPLS-2005>
0

> <r_mmod_RMS_Derivative-OPLS-2005>
0.797331154346466

$$$$
13
                    3D
 Structure written by MMmdl.
170178  0  0  1  0            999 V2000
  -30.7247  -14.4412   20.5949 C   0  0  0  0  0  0
  -30.4114  -12.2783   19.4543 C   0  0  0  0  0  0
  -29.5137  -12.4852   18.2172 C   0  0  0  0  0  0
  -28.0293  -12.3451   18.6124 C   0  0  0  0  0  0
  -27.6568  -13.2013   19.8540 C   0  0  2  0  0  0
  -28.6845  -12.9953   20.9870 C   0  0  0  0  0  0
  -25.2587  -13.8154   20.5637 C   0  0  0  0  0  0
  -24.1841  -13.0449   20.9183 C   0  0  0  0  0  0
  -24.6367  -11.6913   20.8691 C   0  0  0  0  0  0
  -23.9021  -10.4304   21.0377 C   0  0  0  0  0  0
  -24.3571   -9.4229   21.9180 C   0  0  0  0  0  0
  -23.6260   -8.2252   22.0761 C   0  0  0  0  0  0
  -22.4248   -8.0270   21.3546 C   0  0  0  0  0  0
  -21.9864   -9.0231   20.4641 C   0  0  0  0  0  0
  -22.7178  -10.2126   20.3044 C   0  0  0  0  0  0
  -21.6855   -6.0706   22.5287 C   0  0  0  0  0  0
  -21.4009   -6.5613   23.8214 C   0  0  0  0  0  0
  -21.3683   -5.6775   24.9184 C   0  0  0  0  0  0
  -21.6062   -4.3037   24.7235 C   0  0  0  0  0  0
  -21.8805   -3.8118   23.4351 C   0  0  0  0  0  0
  -21.9181   -4.6933   22.3401 C   0  0  0  0  0  0
  -22.7868  -13.5266   21.1853 C   0  0  0  0  0  0
  -22.1651   -4.2114   21.0981 F   0  0  0  0  0  0
  -21.5650   -3.4527   25.7743 F   0  0  0  0  0  0
  -30.0252  -13.2816   20.4555 N   0  0  0  0  0  0
  -26.2977  -12.9303   20.3193 N   0  0  0  0  0  0
  -25.9271  -11.6477   20.5630 N   0  0  0  0  0  0
  -22.0465  -12.8291   22.0402 N   0  0  0  0  0  0
  -25.4329  -15.1865   20.4052 N   0  0  0  0  0  0
  -31.8469  -14.6000   20.1025 O   0  0  0  0  0  0
  -21.6645   -6.8840   21.4245 O   0  0  0  0  0  0
  -22.3558  -14.5557   20.6668 O   0  0  0  0  0  0
  -24.6114  -31.8686   23.2069 C   0  0  0  0  0  0
  -25.9011  -32.4825   23.8361 C   0  0  1  0  0  0
  -27.2430  -27.4414   20.0972 C   0  0  0  0  0  0
  -25.5873  -33.8618   24.2309 N   0  0  0  0  0  0
  -23.3978  -30.4878   21.5490 C   0  0  2  0  0  0
  -24.8446  -28.9503   20.1226 C   0  0  0  0  0  0
  -22.7377  -29.4637   22.4991 C   0  0  0  0  0  0
  -18.0234  -28.1420   22.8477 C   0  0  0  0  0  0
  -24.1484  -36.7305   23.2638 C   0  0  0  0  0  0
  -25.9239  -30.8396   21.3528 C   0  0  0  0  0  0
  -26.0027  -29.4683   20.7135 C   0  0  0  0  0  0
  -27.1968  -28.7189   20.7018 C   0  0  0  0  0  0
  -26.0575  -26.9338   19.5115 C   0  0  0  0  0  0
  -24.8655  -27.6791   19.5280 C   0  0  0  0  0  0
  -23.6065  -29.8149   20.1662 C   0  0  0  0  0  0
  -25.4107  -36.3107   24.0340 C   0  0  1  0  0  0
  -20.5832  -28.3618   23.1279 C   0  0  2  0  0  0
  -20.6703  -26.9354   22.5397 C   0  0  0  0  0  0
  -19.5661  -26.6354   21.5205 C   0  0  0  0  0  0
  -18.1825  -26.7994   22.1562 C   0  0  0  0  0  0
  -19.1516  -28.8840   23.2890 C   0  0  0  0  0  0
  -18.9490  -30.1441   23.8924 C   0  0  0  0  0  0
  -17.6511  -30.6617   24.0610 C   0  0  0  0  0  0
  -25.9033  -34.9480   23.5126 C   0  0  0  0  0  0
  -16.5368  -29.9158   23.6383 C   0  0  0  0  0  0
  -16.7248  -28.6584   23.0380 C   0  0  0  0  0  0
  -26.4447  -31.6579   25.0672 C   0  0  0  0  0  0
  -25.3714  -31.3696   26.1423 C   0  0  0  0  0  0
  -27.0250  -30.3021   24.5996 C   0  0  0  0  0  0
  -27.6031  -32.4278   25.7443 C   0  0  0  0  0  0
  -27.5575  -37.1804   24.8466 C   0  0  0  0  0  0
  -21.4117  -29.2967   22.3682 N   0  0  0  0  0  0
  -26.4290  -37.3784   23.9399 N   0  0  0  0  0  0
  -24.6634  -31.0787   22.0957 N   0  0  0  0  0  0
  -23.4153  -28.8231   23.3073 O   0  0  0  0  0  0
  -28.4528  -26.7749   20.1269 O   0  0  0  0  0  0
  -26.5597  -34.8933   22.4689 O   0  0  0  0  0  0
  -23.5317  -32.1421   23.7474 O   0  0  0  0  0  0
  -28.0241  -17.4828   22.3753 C   0  0  0  0  0  0
  -27.5032  -18.7663   22.5958 C   0  0  0  0  0  0
  -29.3219  -17.1748   22.8337 C   0  0  0  0  0  0
  -28.2729  -19.6947   23.3136 C   0  0  0  0  0  0
  -30.0037  -18.1544   23.6088 C   0  0  0  0  0  0
  -30.0151  -16.6855   20.1014 C   0  0  0  0  0  0
  -26.5503  -23.4883   20.9159 C   0  0  0  0  0  0
  -29.9544  -15.8249   22.4554 C   0  0  0  0  0  0
  -27.7963  -21.1226   23.5253 C   0  0  0  0  0  0
  -28.6558  -22.1410   22.7503 C   0  0  0  0  0  0
  -28.1277  -23.5985   22.8219 C   0  0  0  0  0  0
  -28.8570  -24.3824   20.5706 C   0  0  0  0  0  0
  -28.6303  -25.4900   19.5182 C   0  0  0  0  0  0
  -31.3961  -17.9070   24.2176 C   0  0  0  0  0  0
  -29.4760  -19.3862   23.8306 N   0  0  0  0  0  0
  -30.0094  -15.5176   21.0067 N   0  0  0  0  0  0
  -27.7197  -24.1826   21.5102 N   0  3  1  0  0  0
  -32.3014  -17.7820   23.2448 F   0  0  0  0  0  0
  -31.7796  -18.9173   25.0038 F   0  0  0  0  0  0
  -31.3933  -16.7982   24.9618 F   0  0  0  0  0  0
  -31.4690  -12.3279   19.1917 H   0  0  0  0  0  0
  -30.2578  -11.2811   19.8678 H   0  0  0  0  0  0
  -29.7706  -11.7536   17.4482 H   0  0  0  0  0  0
  -29.6955  -13.4685   17.7802 H   0  0  0  0  0  0
  -27.8558  -11.2906   18.8333 H   0  0  0  0  0  0
  -27.3860  -12.5889   17.7651 H   0  0  0  0  0  0
  -27.6954  -14.2450   19.5415 H   0  0  0  0  0  0
  -28.6543  -11.9668   21.3470 H   0  0  0  0  0  0
  -28.4125  -13.6086   21.8413 H   0  0  0  0  0  0
  -25.2709   -9.5739   22.4760 H   0  0  0  0  0  0
  -23.9982   -7.4655   22.7480 H   0  0  0  0  0  0
  -21.0801   -8.8712   19.8929 H   0  0  0  0  0  0
  -22.3614  -10.9646   19.6141 H   0  0  0  0  0  0
  -21.1994   -7.6121   23.9709 H   0  0  0  0  0  0
  -21.1551   -6.0514   25.9093 H   0  0  0  0  0  0
  -22.0559   -2.7576   23.2872 H   0  0  0  0  0  0
  -22.4024  -11.9978   22.4882 H   0  0  0  0  0  0
  -21.1077  -13.1358   22.2503 H   0  0  0  0  0  0
  -24.6655  -15.8398   20.5108 H   0  0  0  0  0  0
  -26.2728  -15.6136   20.0377 H   0  0  0  0  0  0
  -26.7079  -32.5560   23.1127 H   0  0  0  0  0  0
  -25.0013  -33.9781   25.0448 H   0  0  0  0  0  0
  -22.6847  -31.3018   21.4056 H   0  0  0  0  0  0
  -23.3753  -35.9627   23.3324 H   0  0  0  0  0  0
  -24.3571  -36.8894   22.2044 H   0  0  0  0  0  0
  -23.7240  -37.6519   23.6640 H   0  0  0  0  0  0
  -26.0153  -31.5972   20.5724 H   0  0  0  0  0  0
  -26.8201  -30.9104   21.9580 H   0  0  0  0  0  0
  -28.0916  -29.1208   21.1562 H   0  0  0  0  0  0
  -26.0075  -25.9705   19.0343 H   0  0  0  0  0  0
  -23.9682  -27.2685   19.0848 H   0  0  0  0  0  0
  -23.7096  -30.5839   19.3997 H   0  0  0  0  0  0
  -22.7341  -29.2262   19.8761 H   0  0  0  0  0  0
  -25.1284  -36.1963   25.0831 H   0  0  0  0  0  0
  -20.9911  -28.3165   24.1396 H   0  0  0  0  0  0
  -20.5596  -26.2224   23.3581 H   0  0  0  0  0  0
  -21.6556  -26.7379   22.1157 H   0  0  0  0  0  0
  -19.6739  -25.6239   21.1283 H   0  0  0  0  0  0
  -19.6641  -27.3115   20.6696 H   0  0  0  0  0  0
  -17.4133  -26.6886   21.3901 H   0  0  0  0  0  0
  -18.0065  -26.0112   22.8897 H   0  0  0  0  0  0
  -19.8009  -30.7210   24.2293 H   0  0  0  0  0  0
  -17.5133  -31.6286   24.5250 H   0  0  0  0  0  0
  -15.5401  -30.3104   23.7771 H   0  0  0  0  0  0
  -15.8608  -28.0967   22.7097 H   0  0  0  0  0  0
  -24.5905  -30.7006   25.7784 H   0  0  0  0  0  0
  -24.8882  -32.2867   26.4811 H   0  0  0  0  0  0
  -25.8066  -30.8925   27.0214 H   0  0  0  0  0  0
  -26.2775  -29.6831   24.1018 H   0  0  0  0  0  0
  -27.4020  -29.7184   25.4406 H   0  0  0  0  0  0
  -27.8604  -30.4358   23.9115 H   0  0  0  0  0  0
  -27.2653  -33.3577   26.2021 H   0  0  0  0  0  0
  -28.3846  -32.6825   25.0274 H   0  0  0  0  0  0
  -28.0679  -31.8388   26.5357 H   0  0  0  0  0  0
  -28.2606  -38.0091   24.7502 H   0  0  0  0  0  0
  -28.1057  -36.2620   24.6307 H   0  0  0  0  0  0
  -27.2282  -37.1470   25.8868 H   0  0  0  0  0  0
  -20.9302  -29.8573   21.6784 H   0  0  0  0  0  0
  -26.0188  -38.2859   24.1402 H   0  0  0  0  0  0
  -27.4601  -16.7630   21.7992 H   0  0  0  0  0  0
  -26.5331  -19.0315   22.1972 H   0  0  0  0  0  0
  -30.6810  -17.4741   20.4566 H   0  0  0  0  0  0
  -29.0152  -17.1025   19.9937 H   0  0  0  0  0  0
  -30.3319  -16.4334   19.0859 H   0  0  0  0  0  0
  -26.2195  -23.9786   20.0034 H   0  0  0  0  0  0
  -25.7051  -23.4877   21.6053 H   0  0  0  0  0  0
  -26.7742  -22.4535   20.6610 H   0  0  0  0  0  0
  -29.4020  -15.0546   22.9934 H   0  0  0  0  0  0
  -30.9710  -15.7454   22.8353 H   0  0  0  0  0  0
  -27.8146  -21.3494   24.5923 H   0  0  0  0  0  0
  -26.7542  -21.1978   23.2156 H   0  0  0  0  0  0
  -28.7737  -21.8053   21.7206 H   0  0  0  0  0  0
  -29.6607  -22.1115   23.1723 H   0  0  0  0  0  0
  -28.8994  -24.2354   23.2548 H   0  0  0  0  0  0
  -27.2885  -23.6652   23.5159 H   0  0  0  0  0  0
  -29.7530  -24.6394   21.1357 H   0  0  0  0  0  0
  -29.0786  -23.4461   20.0564 H   0  0  0  0  0  0
  -27.8840  -25.2052   18.7841 H   0  0  0  0  0  0
  -29.5485  -25.5701   18.9358 H   0  0  0  0  0  0
  -27.4012  -25.1163   21.7326 H   0  0  0  0  0  0
  1 25  1  0  0  0
  1 30  2  0  0  0
  1 86  1  0  0  0
  2  3  1  0  0  0
  2 25  1  0  0  0
  2 91  1  0  0  0
  2 92  1  0  0  0
  3  4  1  0  0  0
  3 93  1  0  0  0
  3 94  1  0  0  0
  4  5  1  0  0  0
  4 95  1  0  0  0
  4 96  1  0  0  0
  5  6  1  0  0  0
  5 26  1  0  0  0
  5 97  1  0  0  0
  6 25  1  0  0  0
  6 98  1  0  0  0
  6 99  1  0  0  0
  7  8  2  0  0  0
  7 26  1  0  0  0
  7 29  1  0  0  0
  8  9  1  0  0  0
  8 22  1  0  0  0
  9 10  1  0  0  0
  9 27  2  0  0  0
 10 11  2  0  0  0
 10 15  1  0  0  0
 11 12  1  0  0  0
 11100  1  0  0  0
 12 13  2  0  0  0
 12101  1  0  0  0
 13 14  1  0  0  0
 13 31  1  0  0  0
 14 15  2  0  0  0
 14102  1  0  0  0
 15103  1  0  0  0
 16 17  2  0  0  0
 16 21  1  0  0  0
 16 31  1  0  0  0
 17 18  1  0  0  0
 17104  1  0  0  0
 18 19  2  0  0  0
 18105  1  0  0  0
 19 20  1  0  0  0
 19 24  1  0  0  0
 20 21  2  0  0  0
 20106  1  0  0  0
 21 23  1  0  0  0
 22 28  1  0  0  0
 22 32  2  0  0  0
 26 27  1  0  0  0
 28107  1  0  0  0
 28108  1  0  0  0
 29109  1  0  0  0
 29110  1  0  0  0
 33 34  1  0  0  0
 33 66  1  0  0  0
 33 70  2  0  0  0
 34 36  1  0  0  0
 34 59  1  0  0  0
 34111  1  0  0  0
 35 44  2  0  0  0
 35 45  1  0  0  0
 35 68  1  0  0  0
 36 56  1  0  0  0
 36112  1  0  0  0
 37 39  1  0  0  0
 37 47  1  0  0  0
 37 66  1  0  0  0
 37113  1  0  0  0
 38 43  2  0  0  0
 38 46  1  0  0  0
 38 47  1  0  0  0
 39 64  1  0  0  0
 39 67  2  0  0  0
 40 52  1  0  0  0
 40 53  2  0  0  0
 40 58  1  0  0  0
 41114  1  0  0  0
 41115  1  0  0  0
 41116  1  0  0  0
 41 48  1  0  0  0
 42 43  1  0  0  0
 42 66  1  0  0  0
 42117  1  0  0  0
 42118  1  0  0  0
 43 44  1  0  0  0
 44119  1  0  0  0
 45 46  2  0  0  0
 45120  1  0  0  0
 46121  1  0  0  0
 47122  1  0  0  0
 47123  1  0  0  0
 48 56  1  0  0  0
 48 65  1  0  0  0
 48124  1  0  0  0
 49 50  1  0  0  0
 49 53  1  0  0  0
 49 64  1  0  0  0
 49125  1  0  0  0
 50 51  1  0  0  0
 50126  1  0  0  0
 50127  1  0  0  0
 51 52  1  0  0  0
 51128  1  0  0  0
 51129  1  0  0  0
 52130  1  0  0  0
 52131  1  0  0  0
 53 54  1  0  0  0
 54 55  2  0  0  0
 54132  1  0  0  0
 55 57  1  0  0  0
 55133  1  0  0  0
 56 69  2  0  0  0
 57 58  2  0  0  0
 57134  1  0  0  0
 58135  1  0  0  0
 59 60  1  0  0  0
 59 61  1  0  0  0
 59 62  1  0  0  0
 60136  1  0  0  0
 60137  1  0  0  0
 60138  1  0  0  0
 61139  1  0  0  0
 61140  1  0  0  0
 61141  1  0  0  0
 62142  1  0  0  0
 62143  1  0  0  0
 62144  1  0  0  0
 63 65  1  0  0  0
 63145  1  0  0  0
 63146  1  0  0  0
 63147  1  0  0  0
 64148  1  0  0  0
 65149  1  0  0  0
 68 83  1  0  0  0
 71 72  2  0  0  0
 71 73  1  0  0  0
 71150  1  0  0  0
 72 74  1  0  0  0
 72151  1  0  0  0
 73 75  2  0  0  0
 73 78  1  0  0  0
 74 79  1  0  0  0
 74 85  2  0  0  0
 75 84  1  0  0  0
 75 85  1  0  0  0
 76 86  1  0  0  0
 76152  1  0  0  0
 76153  1  0  0  0
 76154  1  0  0  0
 77155  1  0  0  0
 77156  1  0  0  0
 77157  1  0  0  0
 77 87  1  0  0  0
 78 86  1  0  0  0
 78158  1  0  0  0
 78159  1  0  0  0
 79 80  1  0  0  0
 79160  1  0  0  0
 79161  1  0  0  0
 80 81  1  0  0  0
 80162  1  0  0  0
 80163  1  0  0  0
 81 87  1  0  0  0
 81164  1  0  0  0
 81165  1  0  0  0
 82 83  1  0  0  0
 82 87  1  0  0  0
 82166  1  0  0  0
 82167  1  0  0  0
 83168  1  0  0  0
 83169  1  0  0  0
 84 88  1  0  0  0
 84 89  1  0  0  0
 84 90  1  0  0  0
 87170  1  0  0  0
M  CHG  1  87   1
M  ISO  4   1 100  68 101  83 101  86 100
M  END
> <chiral flag>
0

> <version>
0

> <s_m_source_file>
/data/baiqing/PycharmProjects/Reinvent-master-3.2/result/LINK_invent/BTK/process_docking_weight1_custom_sum_contain_oxygen_bond_distance_aromatic_linkinvent_7_9_3/rearranged_h_0055.sdf

> <i_m_source_file_index>
14

> <r_mmod_Potential_Energy-OPLS-2005>
-8.26420497894287

> <r_mmod_Stretch_Energy-OPLS-2005>
41.1639060974121

> <r_mmod_Bend_Energy-OPLS-2005>
118.415138244629

> <r_mmod_Torsional_Energy-OPLS-2005>
291.749053955078

> <r_mmod_Improper_Torsional_Energy-OPLS-2005>
11.0236139297485

> <r_mmod_Van_der_Waal_Energy-OPLS-2005>
164.01969909668

> <r_mmod_Electrostatic_Energy-OPLS-2005>
-242.961929321289

> <r_mmod_Solvation_Energy-OPLS-2005>
-404.940734863281

> <b_mmod_Minimization_Converged-OPLS-2005>
0

> <r_mmod_RMS_Derivative-OPLS-2005>
3.36319327354431

$$$$
14
                    3D
 Structure written by MMmdl.
164172  0  0  1  0            999 V2000
  -30.6789  -14.5790   20.4748 C   0  0  0  0  0  0
  -30.4342  -12.3425   19.4496 C   0  0  0  0  0  0
  -29.5092  -12.4525   18.2194 C   0  0  0  0  0  0
  -28.0229  -12.3531   18.6207 C   0  0  0  0  0  0
  -27.6552  -13.2214   19.8579 C   0  0  2  0  0  0
  -28.7056  -13.0910   20.9839 C   0  0  0  0  0  0
  -25.2583  -13.8165   20.5700 C   0  0  0  0  0  0
  -24.1857  -13.0454   20.9193 C   0  0  0  0  0  0
  -24.6419  -11.6910   20.8746 C   0  0  0  0  0  0
  -23.9061  -10.4303   21.0401 C   0  0  0  0  0  0
  -24.3616   -9.4224   21.9182 C   0  0  0  0  0  0
  -23.6309   -8.2257   22.0750 C   0  0  0  0  0  0
  -22.4293   -8.0289   21.3535 C   0  0  0  0  0  0
  -21.9908   -9.0263   20.4651 C   0  0  0  0  0  0
  -22.7217  -10.2153   20.3065 C   0  0  0  0  0  0
  -21.6836   -6.0743   22.5268 C   0  0  0  0  0  0
  -21.3985   -6.5634   23.8205 C   0  0  0  0  0  0
  -21.3667   -5.6793   24.9172 C   0  0  0  0  0  0
  -21.6076   -4.3056   24.7211 C   0  0  0  0  0  0
  -21.8836   -3.8140   23.4327 C   0  0  0  0  0  0
  -21.9187   -4.6969   22.3393 C   0  0  0  0  0  0
  -22.7862  -13.5244   21.1833 C   0  0  0  0  0  0
  -22.1659   -4.2167   21.0970 F   0  0  0  0  0  0
  -21.5655   -3.4542   25.7715 F   0  0  0  0  0  0
  -30.0186  -13.3873   20.4022 N   0  0  0  0  0  0
  -26.3024  -12.9369   20.3344 N   0  0  0  0  0  0
  -25.9363  -11.6515   20.5804 N   0  0  0  0  0  0
  -22.0468  -12.8282   22.0389 N   0  0  0  0  0  0
  -25.4312  -15.1897   20.4091 N   0  0  0  0  0  0
  -31.8878  -14.6563   20.2377 O   0  0  0  0  0  0
  -21.6640   -6.8901   21.4238 O   0  0  0  0  0  0
  -22.3550  -14.5548   20.6648 O   0  0  0  0  0  0
  -24.6227  -31.8616   23.2043 C   0  0  0  0  0  0
  -25.9083  -32.4792   23.8364 C   0  0  1  0  0  0
  -27.2371  -27.3428   20.1453 C   0  0  0  0  0  0
  -25.5895  -33.8592   24.2269 N   0  0  0  0  0  0
  -23.4181  -30.4832   21.5439 C   0  0  2  0  0  0
  -24.8713  -28.9317   20.1223 C   0  0  0  0  0  0
  -22.7460  -29.4651   22.4951 C   0  0  0  0  0  0
  -18.0283  -28.1380   22.8496 C   0  0  0  0  0  0
  -24.1477  -36.7297   23.2647 C   0  0  0  0  0  0
  -25.9586  -30.7973   21.3799 C   0  0  0  0  0  0
  -26.0361  -29.4268   20.7233 C   0  0  0  0  0  0
  -27.2242  -28.6437   20.7236 C   0  0  0  0  0  0
  -26.0575  -26.8916   19.5149 C   0  0  0  0  0  0
  -24.8797  -27.6643   19.5156 C   0  0  0  0  0  0
  -23.6365  -29.8075   20.1630 C   0  0  0  0  0  0
  -25.4113  -36.3103   24.0332 C   0  0  1  0  0  0
  -20.5887  -28.3681   23.1284 C   0  0  2  0  0  0
  -20.6770  -26.9399   22.5422 C   0  0  0  0  0  0
  -19.5736  -26.6375   21.5231 C   0  0  0  0  0  0
  -18.1918  -26.7922   22.1640 C   0  0  0  0  0  0
  -19.1540  -28.8846   23.2882 C   0  0  0  0  0  0
  -18.9468  -30.1458   23.8880 C   0  0  0  0  0  0
  -17.6471  -30.6588   24.0561 C   0  0  0  0  0  0
  -25.9042  -34.9470   23.5114 C   0  0  0  0  0  0
  -16.5359  -29.9080   23.6354 C   0  0  0  0  0  0
  -16.7274  -28.6503   23.0362 C   0  0  0  0  0  0
  -26.4447  -31.6629   25.0765 C   0  0  0  0  0  0
  -25.3663  -31.3818   26.1494 C   0  0  0  0  0  0
  -27.0296  -30.3038   24.6290 C   0  0  0  0  0  0
  -27.6000  -32.4387   25.7509 C   0  0  0  0  0  0
  -27.5578  -37.1821   24.8471 C   0  0  0  0  0  0
  -21.4184  -29.3032   22.3662 N   0  0  0  0  0  0
  -26.4303  -37.3790   23.9396 N   0  0  0  0  0  0
  -24.6834  -31.0656   22.0979 N   0  0  0  0  0  0
  -23.4189  -28.8217   23.3046 O   0  0  0  0  0  0
  -28.3566  -26.5115   20.1792 O   0  0  0  0  0  0
  -26.5612  -34.8934   22.4682 O   0  0  0  0  0  0
  -23.5397  -32.1399   23.7385 O   0  0  0  0  0  0
  -30.2944  -22.9825   18.4988 C   0  0  0  0  0  0
  -29.6245  -24.0931   19.0317 C   0  0  0  0  0  0
  -30.3954  -21.7980   19.2593 C   0  0  0  0  0  0
  -29.0357  -24.0047   20.3012 C   0  0  0  0  0  0
  -29.8347  -21.7645   20.5613 C   0  0  0  0  0  0
  -31.1324  -20.6075   18.6539 C   0  0  0  0  0  0
  -29.9700  -16.1615   18.7754 C   0  0  0  0  0  0
  -28.2340  -19.2426   22.3945 C   0  0  0  0  0  0
  -30.1299  -20.5577   21.5125 C   0  0  0  0  0  0
  -28.1772  -25.1970   20.8261 C   0  0  0  0  0  0
  -29.2881  -16.6804   21.0643 C   0  0  0  0  0  0
  -30.1042  -18.0277   21.2370 C   0  0  0  0  0  0
  -29.1525  -22.8540   21.0505 N   0  0  0  0  0  0
  -29.9109  -15.6698   20.1617 N   0  0  0  0  0  0
  -29.2977  -19.3068   21.3597 N   0  3  1  0  0  0
  -31.4744  -12.4540   19.1375 H   0  0  0  0  0  0
  -30.3634  -11.3541   19.9074 H   0  0  0  0  0  0
  -29.7559  -11.6685   17.5010 H   0  0  0  0  0  0
  -29.6985  -13.3924   17.7007 H   0  0  0  0  0  0
  -27.8109  -11.3053   18.8302 H   0  0  0  0  0  0
  -27.3898  -12.6242   17.7741 H   0  0  0  0  0  0
  -27.6661  -14.2556   19.5187 H   0  0  0  0  0  0
  -28.7015  -12.0812   21.3993 H   0  0  0  0  0  0
  -28.4780  -13.7719   21.8051 H   0  0  0  0  0  0
  -25.2762   -9.5716   22.4755 H   0  0  0  0  0  0
  -24.0027   -7.4659   22.7469 H   0  0  0  0  0  0
  -21.0839   -8.8762   19.8976 H   0  0  0  0  0  0
  -22.3634  -10.9696   19.6192 H   0  0  0  0  0  0
  -21.1918   -7.6130   23.9705 H   0  0  0  0  0  0
  -21.1485   -6.0506   25.9091 H   0  0  0  0  0  0
  -22.0604   -2.7597   23.2797 H   0  0  0  0  0  0
  -22.4010  -11.9941   22.4852 H   0  0  0  0  0  0
  -21.1097  -13.1377   22.2559 H   0  0  0  0  0  0
  -24.6709  -15.8514   20.5292 H   0  0  0  0  0  0
  -26.2827  -15.6190   20.0704 H   0  0  0  0  0  0
  -26.7154  -32.5464   23.1112 H   0  0  0  0  0  0
  -25.0018  -33.9700   25.0399 H   0  0  0  0  0  0
  -22.7132  -31.3041   21.3944 H   0  0  0  0  0  0
  -23.3735  -35.9643   23.3377 H   0  0  0  0  0  0
  -24.3550  -36.8843   22.2048 H   0  0  0  0  0  0
  -23.7239  -37.6530   23.6610 H   0  0  0  0  0  0
  -26.1051  -31.5634   20.6176 H   0  0  0  0  0  0
  -26.8323  -30.8331   22.0195 H   0  0  0  0  0  0
  -28.1209  -29.0177   21.1981 H   0  0  0  0  0  0
  -26.0425  -25.9236   19.0345 H   0  0  0  0  0  0
  -23.9831  -27.2693   19.0574 H   0  0  0  0  0  0
  -23.7579  -30.5791   19.4025 H   0  0  0  0  0  0
  -22.7587  -29.2335   19.8609 H   0  0  0  0  0  0
  -25.1309  -36.1968   25.0830 H   0  0  0  0  0  0
  -20.9976  -28.3257   24.1407 H   0  0  0  0  0  0
  -20.5684  -26.2288   23.3625 H   0  0  0  0  0  0
  -21.6634  -26.7432   22.1204 H   0  0  0  0  0  0
  -19.6896  -25.6287   21.1252 H   0  0  0  0  0  0
  -19.6674  -27.3198   20.6769 H   0  0  0  0  0  0
  -17.4195  -26.6688   21.4034 H   0  0  0  0  0  0
  -18.0303  -26.0060   22.9025 H   0  0  0  0  0  0
  -19.7948  -30.7280   24.2233 H   0  0  0  0  0  0
  -17.5031  -31.6273   24.5148 H   0  0  0  0  0  0
  -15.5359  -30.2969   23.7706 H   0  0  0  0  0  0
  -15.8674  -28.0820   22.7083 H   0  0  0  0  0  0
  -24.5810  -30.7180   25.7852 H   0  0  0  0  0  0
  -24.8874  -32.3009   26.4894 H   0  0  0  0  0  0
  -25.7972  -30.9024   27.0288 H   0  0  0  0  0  0
  -26.2912  -29.6813   24.1224 H   0  0  0  0  0  0
  -27.3840  -29.7303   25.4863 H   0  0  0  0  0  0
  -27.8843  -30.4308   23.9641 H   0  0  0  0  0  0
  -27.2593  -33.3687   26.2071 H   0  0  0  0  0  0
  -28.3793  -32.6956   25.0322 H   0  0  0  0  0  0
  -28.0674  -31.8531   26.5432 H   0  0  0  0  0  0
  -28.2656  -38.0058   24.7473 H   0  0  0  0  0  0
  -28.1008  -36.2602   24.6365 H   0  0  0  0  0  0
  -27.2284  -37.1563   25.8869 H   0  0  0  0  0  0
  -20.9372  -29.8686   21.6803 H   0  0  0  0  0  0
  -26.0202  -38.2885   24.1350 H   0  0  0  0  0  0
  -30.7280  -23.0515   17.5101 H   0  0  0  0  0  0
  -29.5388  -25.0064   18.4595 H   0  0  0  0  0  0
  -31.5232  -20.8460   17.6638 H   0  0  0  0  0  0
  -30.4597  -19.7582   18.5380 H   0  0  0  0  0  0
  -31.9861  -20.2909   19.2570 H   0  0  0  0  0  0
  -29.5462  -17.1600   18.6604 H   0  0  0  0  0  0
  -29.3941  -15.5095   18.1214 H   0  0  0  0  0  0
  -30.9898  -16.1978   18.3888 H   0  0  0  0  0  0
  -27.6619  -20.1717   22.4144 H   0  0  0  0  0  0
  -28.6561  -19.0891   23.3888 H   0  0  0  0  0  0
  -27.5223  -18.4397   22.2098 H   0  0  0  0  0  0
  -30.0998  -20.8993   22.5475 H   0  0  0  0  0  0
  -31.1793  -20.3003   21.3713 H   0  0  0  0  0  0
  -28.3977  -25.3196   21.8877 H   0  0  0  0  0  0
  -27.1400  -24.8621   20.7795 H   0  0  0  0  0  0
  -28.2997  -16.8924   20.6616 H   0  0  0  0  0  0
  -29.1078  -16.2255   22.0419 H   0  0  0  0  0  0
  -30.7905  -18.1511   20.3989 H   0  0  0  0  0  0
  -30.7417  -17.9272   22.1172 H   0  0  0  0  0  0
  -28.8205  -19.4256   20.4786 H   0  0  0  0  0  0
  1 25  1  0  0  0
  1 30  2  0  0  0
  1 84  1  0  0  0
  2  3  1  0  0  0
  2 25  1  0  0  0
  2 86  1  0  0  0
  2 87  1  0  0  0
  3  4  1  0  0  0
  3 88  1  0  0  0
  3 89  1  0  0  0
  4  5  1  0  0  0
  4 90  1  0  0  0
  4 91  1  0  0  0
  5  6  1  0  0  0
  5 26  1  0  0  0
  5 92  1  0  0  0
  6 25  1  0  0  0
  6 93  1  0  0  0
  6 94  1  0  0  0
  7  8  2  0  0  0
  7 26  1  0  0  0
  7 29  1  0  0  0
  8  9  1  0  0  0
  8 22  1  0  0  0
  9 10  1  0  0  0
  9 27  2  0  0  0
 10 11  2  0  0  0
 10 15  1  0  0  0
 11 12  1  0  0  0
 11 95  1  0  0  0
 12 13  2  0  0  0
 12 96  1  0  0  0
 13 14  1  0  0  0
 13 31  1  0  0  0
 14 15  2  0  0  0
 14 97  1  0  0  0
 15 98  1  0  0  0
 16 17  2  0  0  0
 16 21  1  0  0  0
 16 31  1  0  0  0
 17 18  1  0  0  0
 17 99  1  0  0  0
 18 19  2  0  0  0
 18100  1  0  0  0
 19 20  1  0  0  0
 19 24  1  0  0  0
 20 21  2  0  0  0
 20101  1  0  0  0
 21 23  1  0  0  0
 22 28  1  0  0  0
 22 32  2  0  0  0
 26 27  1  0  0  0
 28102  1  0  0  0
 28103  1  0  0  0
 29104  1  0  0  0
 29105  1  0  0  0
 33 34  1  0  0  0
 33 66  1  0  0  0
 33 70  2  0  0  0
 34 36  1  0  0  0
 34 59  1  0  0  0
 34106  1  0  0  0
 35 44  2  0  0  0
 35 45  1  0  0  0
 35 68  1  0  0  0
 36 56  1  0  0  0
 36107  1  0  0  0
 37 39  1  0  0  0
 37 47  1  0  0  0
 37 66  1  0  0  0
 37108  1  0  0  0
 38 43  2  0  0  0
 38 46  1  0  0  0
 38 47  1  0  0  0
 39 64  1  0  0  0
 39 67  2  0  0  0
 40 52  1  0  0  0
 40 53  2  0  0  0
 40 58  1  0  0  0
 41109  1  0  0  0
 41110  1  0  0  0
 41111  1  0  0  0
 41 48  1  0  0  0
 42 43  1  0  0  0
 42 66  1  0  0  0
 42112  1  0  0  0
 42113  1  0  0  0
 43 44  1  0  0  0
 44114  1  0  0  0
 45 46  2  0  0  0
 45115  1  0  0  0
 46116  1  0  0  0
 47117  1  0  0  0
 47118  1  0  0  0
 48 56  1  0  0  0
 48 65  1  0  0  0
 48119  1  0  0  0
 49 50  1  0  0  0
 49 53  1  0  0  0
 49 64  1  0  0  0
 49120  1  0  0  0
 50 51  1  0  0  0
 50121  1  0  0  0
 50122  1  0  0  0
 51 52  1  0  0  0
 51123  1  0  0  0
 51124  1  0  0  0
 52125  1  0  0  0
 52126  1  0  0  0
 53 54  1  0  0  0
 54 55  2  0  0  0
 54127  1  0  0  0
 55 57  1  0  0  0
 55128  1  0  0  0
 56 69  2  0  0  0
 57 58  2  0  0  0
 57129  1  0  0  0
 58130  1  0  0  0
 59 60  1  0  0  0
 59 61  1  0  0  0
 59 62  1  0  0  0
 60131  1  0  0  0
 60132  1  0  0  0
 60133  1  0  0  0
 61134  1  0  0  0
 61135  1  0  0  0
 61136  1  0  0  0
 62137  1  0  0  0
 62138  1  0  0  0
 62139  1  0  0  0
 63 65  1  0  0  0
 63140  1  0  0  0
 63141  1  0  0  0
 63142  1  0  0  0
 64143  1  0  0  0
 65144  1  0  0  0
 68 80  1  0  0  0
 71 72  2  0  0  0
 71 73  1  0  0  0
 71145  1  0  0  0
 72 74  1  0  0  0
 72146  1  0  0  0
 73 75  2  0  0  0
 73 76  1  0  0  0
 74 80  1  0  0  0
 74 83  2  0  0  0
 75 79  1  0  0  0
 75 83  1  0  0  0
 76147  1  0  0  0
 76148  1  0  0  0
 76149  1  0  0  0
 77 84  1  0  0  0
 77150  1  0  0  0
 77151  1  0  0  0
 77152  1  0  0  0
 78153  1  0  0  0
 78154  1  0  0  0
 78155  1  0  0  0
 78 85  1  0  0  0
 79 85  1  0  0  0
 79156  1  0  0  0
 79157  1  0  0  0
 80158  1  0  0  0
 80159  1  0  0  0
 81 82  1  0  0  0
 81 84  1  0  0  0
 81160  1  0  0  0
 81161  1  0  0  0
 82 85  1  0  0  0
 82162  1  0  0  0
 82163  1  0  0  0
 85164  1  0  0  0
M  CHG  1  85   1
M  ISO  4   1 100  68 101  80 101  84 100
M  END
> <chiral flag>
0

> <version>
0

> <s_m_source_file>
/data/baiqing/PycharmProjects/Reinvent-master-3.2/result/LINK_invent/BTK/process_docking_weight1_custom_sum_contain_oxygen_bond_distance_aromatic_linkinvent_7_9_3/rearranged_h_0055.sdf

> <i_m_source_file_index>
15

> <r_mmod_Potential_Energy-OPLS-2005>
-61.1704025268555

> <r_mmod_Stretch_Energy-OPLS-2005>
69.4139251708984

> <r_mmod_Bend_Energy-OPLS-2005>
121.818672180176

> <r_mmod_Torsional_Energy-OPLS-2005>
353.040496826172

> <r_mmod_Improper_Torsional_Energy-OPLS-2005>
24.5523872375488

> <r_mmod_Van_der_Waal_Energy-OPLS-2005>
141.401016235352

> <r_mmod_Electrostatic_Energy-OPLS-2005>
-369.682922363281

> <r_mmod_Solvation_Energy-OPLS-2005>
-444.398498535156

> <b_mmod_Minimization_Converged-OPLS-2005>
0

> <r_mmod_RMS_Derivative-OPLS-2005>
3.79842376708984

$$$$
15
                    3D
 Structure written by MMmdl.
160168  0  0  1  0            999 V2000
  -30.7106  -14.7841   20.4790 C   0  0  0  0  0  0
  -30.4177  -12.4817   19.5085 C   0  0  0  0  0  0
  -29.5121  -12.5044   18.2573 C   0  0  0  0  0  0
  -28.0460  -12.2952   18.6745 C   0  0  0  0  0  0
  -27.6382  -13.2239   19.8434 C   0  0  2  0  0  0
  -28.6848  -13.2508   20.9920 C   0  0  0  0  0  0
  -25.2432  -13.8020   20.5609 C   0  0  0  0  0  0
  -24.1797  -13.0275   20.9195 C   0  0  0  0  0  0
  -24.6471  -11.6796   20.8823 C   0  0  0  0  0  0
  -23.9125  -10.4205   21.0498 C   0  0  0  0  0  0
  -24.3634   -9.4109   21.9272 C   0  0  0  0  0  0
  -23.6258   -8.2176   22.0767 C   0  0  0  0  0  0
  -22.4254   -8.0285   21.3524 C   0  0  0  0  0  0
  -21.9945   -9.0286   20.4642 C   0  0  0  0  0  0
  -22.7306  -10.2148   20.3105 C   0  0  0  0  0  0
  -21.6817   -6.0752   22.5257 C   0  0  0  0  0  0
  -21.4039   -6.5659   23.8199 C   0  0  0  0  0  0
  -21.3639   -5.6828   24.9166 C   0  0  0  0  0  0
  -21.6020   -4.3084   24.7243 C   0  0  0  0  0  0
  -21.8814   -3.8161   23.4373 C   0  0  0  0  0  0
  -21.9182   -4.6968   22.3418 C   0  0  0  0  0  0
  -22.7807  -13.5083   21.1830 C   0  0  0  0  0  0
  -22.1647   -4.2135   21.1001 F   0  0  0  0  0  0
  -21.5616   -3.4595   25.7766 F   0  0  0  0  0  0
  -29.9957  -13.5895   20.4163 N   0  0  0  0  0  0
  -26.2965  -12.9310   20.3299 N   0  0  0  0  0  0
  -25.9411  -11.6459   20.5831 N   0  0  0  0  0  0
  -22.0450  -12.8062   22.0379 N   0  0  0  0  0  0
  -25.3739  -15.1721   20.3809 N   0  0  0  0  0  0
  -31.8379  -14.7838   19.9758 O   0  0  0  0  0  0
  -21.6583   -6.8892   21.4211 O   0  0  0  0  0  0
  -22.3509  -14.5450   20.6741 O   0  0  0  0  0  0
  -24.6293  -31.8555   23.1981 C   0  0  0  0  0  0
  -25.9108  -32.4760   23.8371 C   0  0  1  0  0  0
  -27.2363  -27.2802   20.1401 C   0  0  0  0  0  0
  -25.5904  -33.8566   24.2288 N   0  0  0  0  0  0
  -23.4288  -30.4748   21.5391 C   0  0  2  0  0  0
  -24.8814  -28.9241   20.1161 C   0  0  0  0  0  0
  -22.7497  -29.4567   22.4880 C   0  0  0  0  0  0
  -18.0277  -28.1339   22.8469 C   0  0  0  0  0  0
  -24.1474  -36.7295   23.2642 C   0  0  0  0  0  0
  -25.9720  -30.7820   21.3728 C   0  0  0  0  0  0
  -26.0516  -29.4019   20.7213 C   0  0  0  0  0  0
  -27.2332  -28.5947   20.7170 C   0  0  0  0  0  0
  -26.0495  -26.8745   19.4930 C   0  0  0  0  0  0
  -24.8850  -27.6685   19.4882 C   0  0  0  0  0  0
  -23.6504  -29.8059   20.1571 C   0  0  0  0  0  0
  -25.4109  -36.3083   24.0329 C   0  0  1  0  0  0
  -20.5878  -28.3662   23.1265 C   0  0  2  0  0  0
  -20.6736  -26.9375   22.5406 C   0  0  0  0  0  0
  -19.5713  -26.6341   21.5198 C   0  0  0  0  0  0
  -18.1901  -26.7877   22.1614 C   0  0  0  0  0  0
  -19.1530  -28.8818   23.2852 C   0  0  0  0  0  0
  -18.9457  -30.1420   23.8870 C   0  0  0  0  0  0
  -17.6456  -30.6556   24.0546 C   0  0  0  0  0  0
  -25.9036  -34.9440   23.5114 C   0  0  0  0  0  0
  -16.5346  -29.9059   23.6304 C   0  0  0  0  0  0
  -16.7265  -28.6469   23.0333 C   0  0  0  0  0  0
  -26.4494  -31.6566   25.0734 C   0  0  0  0  0  0
  -25.3747  -31.3707   26.1467 C   0  0  0  0  0  0
  -27.0332  -30.2980   24.6197 C   0  0  0  0  0  0
  -27.6021  -32.4312   25.7531 C   0  0  0  0  0  0
  -27.5580  -37.1805   24.8464 C   0  0  0  0  0  0
  -21.4194  -29.3024   22.3661 N   0  0  0  0  0  0
  -26.4287  -37.3786   23.9413 N   0  0  0  0  0  0
  -24.6956  -31.0548   22.0944 N   0  0  0  0  0  0
  -23.4198  -28.8093   23.2970 O   0  0  0  0  0  0
  -28.3344  -26.3911   20.1704 O   0  0  0  0  0  0
  -26.5610  -34.8921   22.4676 O   0  0  0  0  0  0
  -23.5436  -32.1338   23.7289 O   0  0  0  0  0  0
  -30.5718  -21.0019   19.3811 C   0  0  0  0  0  0
  -31.1926  -19.8012   18.9856 C   0  0  0  0  0  0
  -29.5510  -20.9443   20.3415 C   0  0  0  0  0  0
  -29.9035  -18.5621   20.4420 C   0  0  0  0  0  0
  -32.2715  -19.7846   17.9190 C   0  0  0  0  0  0
  -28.2258  -16.7064   20.0318 C   0  0  0  0  0  0
  -31.3831  -16.4297   22.0898 C   0  0  0  0  0  0
  -28.7628  -22.2525   20.8145 C   0  0  0  0  0  0
  -29.0219  -23.7221   20.1708 C   0  0  0  0  0  0
  -28.1076  -24.9787   20.6403 C   0  0  0  0  0  0
  -29.3951  -17.1171   20.9014 C   0  0  2  0  0  0
  -30.8461  -18.5990   19.5041 N   0  0  0  0  0  0
  -29.2438  -19.6916   20.8527 N   0  0  0  0  0  0
  -30.3229  -15.9163   21.2076 N   0  0  0  0  0  0
  -31.4692  -12.5297   19.2172 H   0  0  0  0  0  0
  -30.3143  -11.5282   20.0285 H   0  0  0  0  0  0
  -29.8109  -11.7312   17.5449 H   0  0  0  0  0  0
  -29.6216  -13.4564   17.7408 H   0  0  0  0  0  0
  -27.9340  -11.2516   18.9698 H   0  0  0  0  0  0
  -27.3750  -12.4412   17.8272 H   0  0  0  0  0  0
  -27.5866  -14.1975   19.3725 H   0  0  0  0  0  0
  -28.7273  -12.2722   21.4756 H   0  0  0  0  0  0
  -28.4018  -13.9637   21.7692 H   0  0  0  0  0  0
  -25.2747   -9.5516   22.4904 H   0  0  0  0  0  0
  -23.9912   -7.4516   22.7451 H   0  0  0  0  0  0
  -21.0905   -8.8868   19.8888 H   0  0  0  0  0  0
  -22.3800  -10.9770   19.6265 H   0  0  0  0  0  0
  -21.2067   -7.6176   23.9709 H   0  0  0  0  0  0
  -21.1453   -6.0558   25.9059 H   0  0  0  0  0  0
  -22.0612   -2.7618   23.2881 H   0  0  0  0  0  0
  -22.4107  -11.9765   22.4780 H   0  0  0  0  0  0
  -21.1106  -13.1071   22.2724 H   0  0  0  0  0  0
  -24.5809  -15.7989   20.4661 H   0  0  0  0  0  0
  -26.1959  -15.6247   20.0048 H   0  0  0  0  0  0
  -26.7178  -32.5427   23.1132 H   0  0  0  0  0  0
  -25.0062  -33.9711   25.0446 H   0  0  0  0  0  0
  -22.7246  -31.2967   21.3890 H   0  0  0  0  0  0
  -23.3741  -35.9617   23.3283 H   0  0  0  0  0  0
  -24.3578  -36.8942   22.2063 H   0  0  0  0  0  0
  -23.7220  -37.6487   23.6684 H   0  0  0  0  0  0
  -26.0978  -31.5461   20.6049 H   0  0  0  0  0  0
  -26.8528  -30.8401   22.0008 H   0  0  0  0  0  0
  -28.1315  -28.9585   21.1940 H   0  0  0  0  0  0
  -26.0171  -25.9203   18.9876 H   0  0  0  0  0  0
  -23.9939  -27.3047   18.9940 H   0  0  0  0  0  0
  -23.7720  -30.5801   19.3992 H   0  0  0  0  0  0
  -22.7741  -29.2332   19.8484 H   0  0  0  0  0  0
  -25.1279  -36.1940   25.0824 H   0  0  0  0  0  0
  -20.9967  -28.3225   24.1381 H   0  0  0  0  0  0
  -20.5557  -26.2293   23.3610 H   0  0  0  0  0  0
  -21.6617  -26.7311   22.1269 H   0  0  0  0  0  0
  -19.6879  -25.6252   21.1220 H   0  0  0  0  0  0
  -19.6649  -27.3145   20.6724 H   0  0  0  0  0  0
  -17.4159  -26.6605   21.4016 H   0  0  0  0  0  0
  -18.0313  -26.0013   22.9016 H   0  0  0  0  0  0
  -19.7941  -30.7225   24.2230 H   0  0  0  0  0  0
  -17.5019  -31.6224   24.5161 H   0  0  0  0  0  0
  -15.5349  -30.2961   23.7622 H   0  0  0  0  0  0
  -15.8666  -28.0795   22.7048 H   0  0  0  0  0  0
  -24.5917  -30.7037   25.7851 H   0  0  0  0  0  0
  -24.8933  -32.2852   26.4917 H   0  0  0  0  0  0
  -25.8090  -30.8906   27.0236 H   0  0  0  0  0  0
  -26.2906  -29.6737   24.1194 H   0  0  0  0  0  0
  -27.3990  -29.7230   25.4721 H   0  0  0  0  0  0
  -27.8800  -30.4265   23.9448 H   0  0  0  0  0  0
  -27.2591  -33.3611   26.2094 H   0  0  0  0  0  0
  -28.3854  -32.6869   25.0381 H   0  0  0  0  0  0
  -28.0651  -31.8437   26.5473 H   0  0  0  0  0  0
  -28.2571  -38.0126   24.7519 H   0  0  0  0  0  0
  -28.1079  -36.2641   24.6248 H   0  0  0  0  0  0
  -27.2283  -37.1426   25.8863 H   0  0  0  0  0  0
  -20.9354  -29.8885   21.6996 H   0  0  0  0  0  0
  -26.0142  -38.2847   24.1437 H   0  0  0  0  0  0
  -30.8652  -21.9463   18.9379 H   0  0  0  0  0  0
  -32.9063  -20.6670   17.9792 H   0  0  0  0  0  0
  -31.8186  -19.7638   16.9287 H   0  0  0  0  0  0
  -32.9153  -18.9107   18.0071 H   0  0  0  0  0  0
  -28.5400  -16.3814   19.0406 H   0  0  0  0  0  0
  -27.5088  -17.5197   19.9259 H   0  0  0  0  0  0
  -27.7251  -15.9144   20.5670 H   0  0  0  0  0  0
  -32.0367  -15.6455   22.4859 H   0  0  0  0  0  0
  -30.9589  -16.9592   22.9457 H   0  0  0  0  0  0
  -32.0141  -17.1283   21.5356 H   0  0  0  0  0  0
  -28.9162  -22.3458   21.8888 H   0  0  0  0  0  0
  -27.7035  -22.0264   20.7035 H   0  0  0  0  0  0
  -28.9248  -23.6314   19.0914 H   0  0  0  0  0  0
  -30.0689  -23.9761   20.3453 H   0  0  0  0  0  0
  -28.1825  -25.0328   21.7263 H   0  0  0  0  0  0
  -27.0713  -24.6940   20.4663 H   0  0  0  0  0  0
  -28.9418  -17.3231   21.8742 H   0  0  0  0  0  0
  1 25  1  0  0  0
  1 30  2  0  0  0
  1 84  1  0  0  0
  2  3  1  0  0  0
  2 25  1  0  0  0
  2 85  1  0  0  0
  2 86  1  0  0  0
  3  4  1  0  0  0
  3 87  1  0  0  0
  3 88  1  0  0  0
  4  5  1  0  0  0
  4 89  1  0  0  0
  4 90  1  0  0  0
  5  6  1  0  0  0
  5 26  1  0  0  0
  5 91  1  0  0  0
  6 25  1  0  0  0
  6 92  1  0  0  0
  6 93  1  0  0  0
  7  8  2  0  0  0
  7 26  1  0  0  0
  7 29  1  0  0  0
  8  9  1  0  0  0
  8 22  1  0  0  0
  9 10  1  0  0  0
  9 27  2  0  0  0
 10 11  2  0  0  0
 10 15  1  0  0  0
 11 12  1  0  0  0
 11 94  1  0  0  0
 12 13  2  0  0  0
 12 95  1  0  0  0
 13 14  1  0  0  0
 13 31  1  0  0  0
 14 15  2  0  0  0
 14 96  1  0  0  0
 15 97  1  0  0  0
 16 17  2  0  0  0
 16 21  1  0  0  0
 16 31  1  0  0  0
 17 18  1  0  0  0
 17 98  1  0  0  0
 18 19  2  0  0  0
 18 99  1  0  0  0
 19 20  1  0  0  0
 19 24  1  0  0  0
 20 21  2  0  0  0
 20100  1  0  0  0
 21 23  1  0  0  0
 22 28  1  0  0  0
 22 32  2  0  0  0
 26 27  1  0  0  0
 28101  1  0  0  0
 28102  1  0  0  0
 29103  1  0  0  0
 29104  1  0  0  0
 33 34  1  0  0  0
 33 66  1  0  0  0
 33 70  2  0  0  0
 34 36  1  0  0  0
 34 59  1  0  0  0
 34105  1  0  0  0
 35 44  2  0  0  0
 35 45  1  0  0  0
 35 68  1  0  0  0
 36 56  1  0  0  0
 36106  1  0  0  0
 37 39  1  0  0  0
 37 47  1  0  0  0
 37 66  1  0  0  0
 37107  1  0  0  0
 38 43  2  0  0  0
 38 46  1  0  0  0
 38 47  1  0  0  0
 39 64  1  0  0  0
 39 67  2  0  0  0
 40 52  1  0  0  0
 40 53  2  0  0  0
 40 58  1  0  0  0
 41108  1  0  0  0
 41109  1  0  0  0
 41110  1  0  0  0
 41 48  1  0  0  0
 42 43  1  0  0  0
 42 66  1  0  0  0
 42111  1  0  0  0
 42112  1  0  0  0
 43 44  1  0  0  0
 44113  1  0  0  0
 45 46  2  0  0  0
 45114  1  0  0  0
 46115  1  0  0  0
 47116  1  0  0  0
 47117  1  0  0  0
 48 56  1  0  0  0
 48 65  1  0  0  0
 48118  1  0  0  0
 49 50  1  0  0  0
 49 53  1  0  0  0
 49 64  1  0  0  0
 49119  1  0  0  0
 50 51  1  0  0  0
 50120  1  0  0  0
 50121  1  0  0  0
 51 52  1  0  0  0
 51122  1  0  0  0
 51123  1  0  0  0
 52124  1  0  0  0
 52125  1  0  0  0
 53 54  1  0  0  0
 54 55  2  0  0  0
 54126  1  0  0  0
 55 57  1  0  0  0
 55127  1  0  0  0
 56 69  2  0  0  0
 57 58  2  0  0  0
 57128  1  0  0  0
 58129  1  0  0  0
 59 60  1  0  0  0
 59 61  1  0  0  0
 59 62  1  0  0  0
 60130  1  0  0  0
 60131  1  0  0  0
 60132  1  0  0  0
 61133  1  0  0  0
 61134  1  0  0  0
 61135  1  0  0  0
 62136  1  0  0  0
 62137  1  0  0  0
 62138  1  0  0  0
 63 65  1  0  0  0
 63139  1  0  0  0
 63140  1  0  0  0
 63141  1  0  0  0
 64142  1  0  0  0
 65143  1  0  0  0
 68 80  1  0  0  0
 71 72  2  0  0  0
 71 73  1  0  0  0
 71144  1  0  0  0
 72 75  1  0  0  0
 72 82  1  0  0  0
 73 78  1  0  0  0
 73 83  2  0  0  0
 74 81  1  0  0  0
 74 82  2  0  0  0
 74 83  1  0  0  0
 75145  1  0  0  0
 75146  1  0  0  0
 75147  1  0  0  0
 76148  1  0  0  0
 76149  1  0  0  0
 76150  1  0  0  0
 76 81  1  0  0  0
 77 84  1  0  0  0
 77151  1  0  0  0
 77152  1  0  0  0
 77153  1  0  0  0
 78 79  1  0  0  0
 78154  1  0  0  0
 78155  1  0  0  0
 79 80  1  0  0  0
 79156  1  0  0  0
 79157  1  0  0  0
 80158  1  0  0  0
 80159  1  0  0  0
 81 84  1  0  0  0
 81160  1  0  0  0
M  ISO  4   1 100  68 101  80 101  84 100
M  END
> <chiral flag>
0

> <version>
0

> <s_m_source_file>
/data/baiqing/PycharmProjects/Reinvent-master-3.2/result/LINK_invent/BTK/process_docking_weight1_custom_sum_contain_oxygen_bond_distance_aromatic_linkinvent_7_9_3/rearranged_h_0055.sdf

> <i_m_source_file_index>
16

> <r_mmod_Potential_Energy-OPLS-2005>
-184.341049194336

> <r_mmod_Stretch_Energy-OPLS-2005>
135.046005249023

> <r_mmod_Bend_Energy-OPLS-2005>
215.672714233398

> <r_mmod_Torsional_Energy-OPLS-2005>
256.474456787109

> <r_mmod_Improper_Torsional_Energy-OPLS-2005>
7.45603322982788

> <r_mmod_Van_der_Waal_Energy-OPLS-2005>
152.207015991211

> <r_mmod_Electrostatic_Energy-OPLS-2005>
-818.994750976562

> <r_mmod_Solvation_Energy-OPLS-2005>
-223.890426635742

> <b_mmod_Minimization_Converged-OPLS-2005>
0

> <r_mmod_RMS_Derivative-OPLS-2005>
5.87969541549683

$$$$
16
                    3D
 Structure written by MMmdl.
142150  0  0  1  0            999 V2000
  -30.0703  -16.2323   20.2694 C   0  0  0  0  0  0
  -30.3746  -13.5171   19.5749 C   0  0  0  0  0  0
  -29.5798  -12.8279   18.4042 C   0  0  0  0  0  0
  -28.2018  -12.3410   18.8612 C   0  0  0  0  0  0
  -27.5796  -13.3806   19.8087 C   0  0  2  0  0  0
  -28.5390  -13.9547   20.8967 C   0  0  0  0  0  0
  -25.2226  -13.8399   20.5863 C   0  0  0  0  0  0
  -24.1684  -13.0452   20.9297 C   0  0  0  0  0  0
  -24.6483  -11.6993   20.8727 C   0  0  0  0  0  0
  -23.9195  -10.4307   21.0354 C   0  0  0  0  0  0
  -24.3701   -9.4219   21.9155 C   0  0  0  0  0  0
  -23.6338   -8.2271   22.0750 C   0  0  0  0  0  0
  -22.4316   -8.0309   21.3545 C   0  0  0  0  0  0
  -21.9978   -9.0287   20.4639 C   0  0  0  0  0  0
  -22.7344  -10.2145   20.3025 C   0  0  0  0  0  0
  -21.6871   -6.0751   22.5278 C   0  0  0  0  0  0
  -21.4027   -6.5647   23.8214 C   0  0  0  0  0  0
  -21.3662   -5.6797   24.9172 C   0  0  0  0  0  0
  -21.6043   -4.3060   24.7222 C   0  0  0  0  0  0
  -21.8816   -3.8155   23.4343 C   0  0  0  0  0  0
  -21.9198   -4.6975   22.3400 C   0  0  0  0  0  0
  -22.7679  -13.5124   21.1928 C   0  0  0  0  0  0
  -22.1663   -4.2157   21.0978 F   0  0  0  0  0  0
  -21.5625   -3.4541   25.7735 F   0  0  0  0  0  0
  -29.6415  -14.7485   20.2420 N   0  0  0  0  0  0
  -26.2762  -12.9877   20.3297 N   0  0  0  0  0  0
  -25.9460  -11.6862   20.5633 N   0  0  0  0  0  0
  -22.0373  -12.8086   22.0489 N   0  0  0  0  0  0
  -25.3713  -15.2158   20.4356 N   0  0  0  0  0  0
  -31.3074  -16.0629   20.0835 O   0  0  0  0  0  0
  -21.6664   -6.8909   21.4248 O   0  0  0  0  0  0
  -22.3325  -14.5416   20.6771 O   0  0  0  0  0  0
  -24.7229  -31.7507   23.1174 C   0  0  0  0  0  0
  -25.9607  -32.4226   23.7882 C   0  0  1  0  0  0
  -27.2501  -26.2889   20.2465 C   0  0  0  0  0  0
  -25.6011  -33.8076   24.1717 N   0  0  0  0  0  0
  -23.5689  -30.3328   21.4805 C   0  0  2  0  0  0
  -25.0337  -28.5880   20.1253 C   0  0  0  0  0  0
  -22.7944  -29.4047   22.4595 C   0  0  0  0  0  0
  -18.0362  -28.1439   22.8434 C   0  0  0  0  0  0
  -24.1498  -36.7048   23.2662 C   0  0  0  0  0  0
  -26.1639  -30.3441   21.4479 C   0  0  0  0  0  0
  -26.2254  -28.8634   20.8038 C   0  0  0  0  0  0
  -27.2932  -27.7539   20.8261 C   0  0  0  0  0  0
  -26.0282  -26.3347   19.4920 C   0  0  0  0  0  0
  -25.0000  -27.3543   19.4433 C   0  0  0  0  0  0
  -23.8468  -29.5917   20.1333 C   0  0  0  0  0  0
  -25.4163  -36.2757   24.0253 C   0  0  1  0  0  0
  -20.6016  -28.3817   23.1061 C   0  0  2  0  0  0
  -20.6808  -26.9440   22.5402 C   0  0  0  0  0  0
  -19.5785  -26.6350   21.5221 C   0  0  0  0  0  0
  -18.1973  -26.7951   22.1627 C   0  0  0  0  0  0
  -19.1638  -28.8963   23.2716 C   0  0  0  0  0  0
  -18.9536  -30.1536   23.8775 C   0  0  0  0  0  0
  -17.6523  -30.6613   24.0534 C   0  0  0  0  0  0
  -25.9168  -34.9155   23.4857 C   0  0  0  0  0  0
  -16.5409  -29.9086   23.6361 C   0  0  0  0  0  0
  -16.7339  -28.6512   23.0376 C   0  0  0  0  0  0
  -26.4660  -31.6446   25.0679 C   0  0  0  0  0  0
  -25.3619  -31.3866   26.1218 C   0  0  0  0  0  0
  -27.0671  -30.2747   24.6884 C   0  0  0  0  0  0
  -27.6018  -32.4418   25.7522 C   0  0  0  0  0  0
  -27.5552  -37.1675   24.8467 C   0  0  0  0  0  0
  -21.4554  -29.2980   22.3335 N   0  0  0  0  0  0
  -26.4255  -37.3564   23.9411 N   0  0  0  0  0  0
  -24.8470  -30.8530   22.0664 N   0  0  0  0  0  0
  -23.4190  -28.7718   23.3133 O   0  0  0  0  0  0
  -28.1385  -24.8703   20.3668 O   0  0  0  0  0  0
  -26.5875  -34.8810   22.4519 O   0  0  0  0  0  0
  -23.6160  -32.0777   23.5858 O   0  0  0  0  0  0
  -29.5456  -19.6417   19.9052 C   0  0  0  0  0  0
  -29.3338  -18.0405   20.4003 C   0  0  0  0  0  0
  -28.7163  -20.9554   20.3042 C   0  0  0  0  0  0
  -26.8222  -20.3490   21.8808 C   0  0  0  0  0  0
  -28.0974  -22.9483   19.9400 C   0  0  0  0  0  0
  -28.3003  -18.5533   21.1588 N   0  0  0  0  0  0
  -27.9827  -19.9855   21.0904 N   0  0  0  0  0  0
  -31.3259  -13.8427   19.1542 H   0  0  0  0  0  0
  -30.6608  -12.7794   20.3268 H   0  0  0  0  0  0
  -30.1536  -11.9985   17.9888 H   0  0  0  0  0  0
  -29.4541  -13.5485   17.5947 H   0  0  0  0  0  0
  -28.3303  -11.3974   19.3930 H   0  0  0  0  0  0
  -27.5528  -12.1373   18.0085 H   0  0  0  0  0  0
  -27.3700  -14.2208   19.1443 H   0  0  0  0  0  0
  -28.9075  -13.1748   21.5655 H   0  0  0  0  0  0
  -27.9885  -14.6458   21.5357 H   0  0  0  0  0  0
  -25.2842   -9.5688   22.4740 H   0  0  0  0  0  0
  -24.0029   -7.4673   22.7491 H   0  0  0  0  0  0
  -21.0900   -8.8826   19.8953 H   0  0  0  0  0  0
  -22.3806  -10.9681   19.6127 H   0  0  0  0  0  0
  -21.2026   -7.6157   23.9719 H   0  0  0  0  0  0
  -21.1483   -6.0526   25.9075 H   0  0  0  0  0  0
  -22.0591   -2.7616   23.2842 H   0  0  0  0  0  0
  -22.4052  -11.9782   22.4891 H   0  0  0  0  0  0
  -21.0971  -13.1051   22.2686 H   0  0  0  0  0  0
  -24.6008  -15.8608   20.5726 H   0  0  0  0  0  0
  -26.2272  -15.6785   20.1568 H   0  0  0  0  0  0
  -26.7737  -32.4609   23.0626 H   0  0  0  0  0  0
  -24.9985  -33.9049   24.9758 H   0  0  0  0  0  0
  -22.9186  -31.1807   21.2553 H   0  0  0  0  0  0
  -23.3790  -35.9345   23.3241 H   0  0  0  0  0  0
  -24.3548  -36.8819   22.2092 H   0  0  0  0  0  0
  -23.7234  -37.6177   23.6828 H   0  0  0  0  0  0
  -26.4125  -31.0411   20.6465 H   0  0  0  0  0  0
  -26.9984  -30.4242   22.1308 H   0  0  0  0  0  0
  -28.1739  -27.9841   21.4089 H   0  0  0  0  0  0
  -25.7952  -25.4308   18.9471 H   0  0  0  0  0  0
  -24.1161  -27.1276   18.8631 H   0  0  0  0  0  0
  -24.0528  -30.3355   19.3628 H   0  0  0  0  0  0
  -22.9439  -29.0778   19.7998 H   0  0  0  0  0  0
  -25.1392  -36.1460   25.0742 H   0  0  0  0  0  0
  -21.0086  -28.3470   24.1194 H   0  0  0  0  0  0
  -20.5644  -26.2452   23.3700 H   0  0  0  0  0  0
  -21.6663  -26.7321   22.1238 H   0  0  0  0  0  0
  -19.6935  -25.6229   21.1329 H   0  0  0  0  0  0
  -19.6729  -27.3094   20.6698 H   0  0  0  0  0  0
  -17.4235  -26.6670   21.4043 H   0  0  0  0  0  0
  -18.0368  -26.0130   22.9062 H   0  0  0  0  0  0
  -19.8013  -30.7380   24.2094 H   0  0  0  0  0  0
  -17.5072  -31.6284   24.5153 H   0  0  0  0  0  0
  -15.5403  -30.2954   23.7754 H   0  0  0  0  0  0
  -15.8738  -28.0791   22.7165 H   0  0  0  0  0  0
  -24.5790  -30.7268   25.7465 H   0  0  0  0  0  0
  -24.8843  -32.3129   26.4418 H   0  0  0  0  0  0
  -25.7684  -30.9119   27.0157 H   0  0  0  0  0  0
  -26.3468  -29.6218   24.1948 H   0  0  0  0  0  0
  -27.4007  -29.7374   25.5773 H   0  0  0  0  0  0
  -27.9480  -30.3795   24.0549 H   0  0  0  0  0  0
  -27.2478  -33.3802   26.1801 H   0  0  0  0  0  0
  -28.3971  -32.6860   25.0468 H   0  0  0  0  0  0
  -28.0543  -31.8774   26.5687 H   0  0  0  0  0  0
  -28.2505  -38.0029   24.7537 H   0  0  0  0  0  0
  -28.1113  -36.2546   24.6276 H   0  0  0  0  0  0
  -27.2261  -37.1273   25.8865 H   0  0  0  0  0  0
  -20.9960  -29.8567   21.6278 H   0  0  0  0  0  0
  -26.0044  -38.2593   24.1437 H   0  0  0  0  0  0
  -30.3255  -19.7997   19.1732 H   0  0  0  0  0  0
  -26.3273  -21.2213   21.4562 H   0  0  0  0  0  0
  -27.1299  -20.5795   22.9007 H   0  0  0  0  0  0
  -26.1026  -19.5295   21.9028 H   0  0  0  0  0  0
  -27.0145  -22.8328   19.9279 H   0  0  0  0  0  0
  -28.3314  -23.0387   18.8798 H   0  0  0  0  0  0
  1 25  1  0  0  0
  1 30  2  0  0  0
  1 72  1  0  0  0
  2  3  1  0  0  0
  2 25  1  0  0  0
  2 78  1  0  0  0
  2 79  1  0  0  0
  3  4  1  0  0  0
  3 80  1  0  0  0
  3 81  1  0  0  0
  4  5  1  0  0  0
  4 82  1  0  0  0
  4 83  1  0  0  0
  5  6  1  0  0  0
  5 26  1  0  0  0
  5 84  1  0  0  0
  6 25  1  0  0  0
  6 85  1  0  0  0
  6 86  1  0  0  0
  7  8  2  0  0  0
  7 26  1  0  0  0
  7 29  1  0  0  0
  8  9  1  0  0  0
  8 22  1  0  0  0
  9 10  1  0  0  0
  9 27  2  0  0  0
 10 11  2  0  0  0
 10 15  1  0  0  0
 11 12  1  0  0  0
 11 87  1  0  0  0
 12 13  2  0  0  0
 12 88  1  0  0  0
 13 14  1  0  0  0
 13 31  1  0  0  0
 14 15  2  0  0  0
 14 89  1  0  0  0
 15 90  1  0  0  0
 16 17  2  0  0  0
 16 21  1  0  0  0
 16 31  1  0  0  0
 17 18  1  0  0  0
 17 91  1  0  0  0
 18 19  2  0  0  0
 18 92  1  0  0  0
 19 20  1  0  0  0
 19 24  1  0  0  0
 20 21  2  0  0  0
 20 93  1  0  0  0
 21 23  1  0  0  0
 22 28  1  0  0  0
 22 32  2  0  0  0
 26 27  1  0  0  0
 28 94  1  0  0  0
 28 95  1  0  0  0
 29 96  1  0  0  0
 29 97  1  0  0  0
 33 34  1  0  0  0
 33 66  1  0  0  0
 33 70  2  0  0  0
 34 36  1  0  0  0
 34 59  1  0  0  0
 34 98  1  0  0  0
 35 44  2  0  0  0
 35 45  1  0  0  0
 35 68  1  0  0  0
 36 56  1  0  0  0
 36 99  1  0  0  0
 37 39  1  0  0  0
 37 47  1  0  0  0
 37 66  1  0  0  0
 37100  1  0  0  0
 38 43  2  0  0  0
 38 46  1  0  0  0
 38 47  1  0  0  0
 39 64  1  0  0  0
 39 67  2  0  0  0
 40 52  1  0  0  0
 40 53  2  0  0  0
 40 58  1  0  0  0
 41101  1  0  0  0
 41102  1  0  0  0
 41103  1  0  0  0
 41 48  1  0  0  0
 42 43  1  0  0  0
 42 66  1  0  0  0
 42104  1  0  0  0
 42105  1  0  0  0
 43 44  1  0  0  0
 44106  1  0  0  0
 45 46  2  0  0  0
 45107  1  0  0  0
 46108  1  0  0  0
 47109  1  0  0  0
 47110  1  0  0  0
 48 56  1  0  0  0
 48 65  1  0  0  0
 48111  1  0  0  0
 49 50  1  0  0  0
 49 53  1  0  0  0
 49 64  1  0  0  0
 49112  1  0  0  0
 50 51  1  0  0  0
 50113  1  0  0  0
 50114  1  0  0  0
 51 52  1  0  0  0
 51115  1  0  0  0
 51116  1  0  0  0
 52117  1  0  0  0
 52118  1  0  0  0
 53 54  1  0  0  0
 54 55  2  0  0  0
 54119  1  0  0  0
 55 57  1  0  0  0
 55120  1  0  0  0
 56 69  2  0  0  0
 57 58  2  0  0  0
 57121  1  0  0  0
 58122  1  0  0  0
 59 60  1  0  0  0
 59 61  1  0  0  0
 59 62  1  0  0  0
 60123  1  0  0  0
 60124  1  0  0  0
 60125  1  0  0  0
 61126  1  0  0  0
 61127  1  0  0  0
 61128  1  0  0  0
 62129  1  0  0  0
 62130  1  0  0  0
 62131  1  0  0  0
 63 65  1  0  0  0
 63132  1  0  0  0
 63133  1  0  0  0
 63134  1  0  0  0
 64135  1  0  0  0
 65136  1  0  0  0
 68 75  1  0  0  0
 71 72  1  0  0  0
 71 73  2  0  0  0
 71137  1  0  0  0
 72 76  2  0  0  0
 73 75  1  0  0  0
 73 77  1  0  0  0
 74 77  1  0  0  0
 74138  1  0  0  0
 74139  1  0  0  0
 74140  1  0  0  0
 75141  1  0  0  0
 75142  1  0  0  0
 76 77  1  0  0  0
M  ISO  4   1 100  68 101  72 100  75 101
M  END
> <chiral flag>
0

> <version>
0

> <s_m_source_file>
/data/baiqing/PycharmProjects/Reinvent-master-3.2/result/LINK_invent/BTK/process_docking_weight1_custom_sum_contain_oxygen_bond_distance_aromatic_linkinvent_7_9_3/rearranged_h_0055.sdf

> <i_m_source_file_index>
17

> <r_mmod_Potential_Energy-OPLS-2005>
5008.9423828125

> <r_mmod_Stretch_Energy-OPLS-2005>
2059.26513671875

> <r_mmod_Bend_Energy-OPLS-2005>
1061.99963378906

> <r_mmod_Torsional_Energy-OPLS-2005>
218.653335571289

> <r_mmod_Improper_Torsional_Energy-OPLS-2005>
3.75126051902771

> <r_mmod_Van_der_Waal_Energy-OPLS-2005>
113.563537597656

> <r_mmod_Electrostatic_Energy-OPLS-2005>
-244.516387939453

> <r_mmod_Solvation_Energy-OPLS-2005>
-214.230758666992

> <b_mmod_Minimization_Converged-OPLS-2005>
0

> <r_mmod_RMS_Derivative-OPLS-2005>
0.621501386165619

$$$$
17
                    3D
 Structure written by MMmdl.
166174  0  0  1  0            999 V2000
  -30.7309  -14.6124   20.3540 C   0  0  0  0  0  0
  -30.3885  -12.3155   19.4719 C   0  0  0  0  0  0
  -29.4661  -12.2508   18.2369 C   0  0  0  0  0  0
  -27.9790  -12.2746   18.6387 C   0  0  0  0  0  0
  -27.6232  -13.2268   19.8202 C   0  0  2  0  0  0
  -28.6861  -13.1898   20.9370 C   0  0  0  0  0  0
  -25.2401  -13.8258   20.5704 C   0  0  0  0  0  0
  -24.1725  -13.0508   20.9286 C   0  0  0  0  0  0
  -24.6299  -11.6963   20.8855 C   0  0  0  0  0  0
  -23.9006  -10.4303   21.0474 C   0  0  0  0  0  0
  -24.3561   -9.4174   21.9207 C   0  0  0  0  0  0
  -23.6255   -8.2203   22.0757 C   0  0  0  0  0  0
  -22.4231   -8.0251   21.3538 C   0  0  0  0  0  0
  -21.9879   -9.0234   20.4628 C   0  0  0  0  0  0
  -22.7211  -10.2119   20.3072 C   0  0  0  0  0  0
  -21.6832   -6.0686   22.5274 C   0  0  0  0  0  0
  -21.3978   -6.5600   23.8202 C   0  0  0  0  0  0
  -21.3711   -5.6773   24.9183 C   0  0  0  0  0  0
  -21.6098   -4.3038   24.7239 C   0  0  0  0  0  0
  -21.8811   -3.8099   23.4363 C   0  0  0  0  0  0
  -21.9176   -4.6908   22.3409 C   0  0  0  0  0  0
  -22.7713  -13.5216   21.1975 C   0  0  0  0  0  0
  -22.1628   -4.2076   21.0989 F   0  0  0  0  0  0
  -21.5695   -3.4546   25.7768 F   0  0  0  0  0  0
  -29.9802  -13.4649   20.3012 N   0  0  0  0  0  0
  -26.2836  -12.9469   20.3294 N   0  0  0  0  0  0
  -25.9213  -11.6616   20.5866 N   0  0  0  0  0  0
  -22.0371  -12.8198   22.0514 N   0  0  0  0  0  0
  -25.4107  -15.1999   20.4018 N   0  0  0  0  0  0
  -31.9526  -14.5515   20.2676 O   0  0  0  0  0  0
  -21.6625   -6.8820   21.4217 O   0  0  0  0  0  0
  -22.3337  -14.5511   20.6816 O   0  0  0  0  0  0
  -24.6219  -31.8652   23.2114 C   0  0  0  0  0  0
  -25.9092  -32.4793   23.8409 C   0  0  1  0  0  0
  -27.2251  -27.3726   20.1160 C   0  0  0  0  0  0
  -25.5935  -33.8593   24.2315 N   0  0  0  0  0  0
  -23.4084  -30.4895   21.5584 C   0  0  2  0  0  0
  -24.8546  -28.9584   20.1125 C   0  0  0  0  0  0
  -22.7442  -29.4628   22.5047 C   0  0  0  0  0  0
  -18.0251  -28.1363   22.8497 C   0  0  0  0  0  0
  -24.1492  -36.7250   23.2633 C   0  0  0  0  0  0
  -25.9453  -30.8159   21.3726 C   0  0  0  0  0  0
  -26.0231  -29.4515   20.7070 C   0  0  0  0  0  0
  -27.2144  -28.6741   20.6911 C   0  0  0  0  0  0
  -26.0363  -26.9273   19.4876 C   0  0  0  0  0  0
  -24.8620  -27.7015   19.4907 C   0  0  0  0  0  0
  -23.6168  -29.8300   20.1711 C   0  0  0  0  0  0
  -25.4115  -36.3064   24.0328 C   0  0  1  0  0  0
  -20.5855  -28.3653   23.1339 C   0  0  2  0  0  0
  -20.6745  -26.9395   22.5436 C   0  0  0  0  0  0
  -19.5729  -26.6375   21.5224 C   0  0  0  0  0  0
  -18.1901  -26.7910   22.1625 C   0  0  0  0  0  0
  -19.1507  -28.8829   23.2901 C   0  0  0  0  0  0
  -18.9434  -30.1442   23.8908 C   0  0  0  0  0  0
  -17.6431  -30.6583   24.0552 C   0  0  0  0  0  0
  -25.9054  -34.9440   23.5100 C   0  0  0  0  0  0
  -16.5324  -29.9072   23.6334 C   0  0  0  0  0  0
  -16.7238  -28.6487   23.0360 C   0  0  0  0  0  0
  -26.4515  -31.6582   25.0744 C   0  0  0  0  0  0
  -25.3758  -31.3731   26.1481 C   0  0  0  0  0  0
  -27.0353  -30.3012   24.6162 C   0  0  0  0  0  0
  -27.6082  -32.4314   25.7498 C   0  0  0  0  0  0
  -27.5563  -37.1788   24.8482 C   0  0  0  0  0  0
  -21.4171  -29.2998   22.3762 N   0  0  0  0  0  0
  -26.4285  -37.3759   23.9402 N   0  0  0  0  0  0
  -24.6764  -31.0711   22.1042 N   0  0  0  0  0  0
  -23.4198  -28.8168   23.3091 O   0  0  0  0  0  0
  -28.3564  -26.5582   20.2003 O   0  0  0  0  0  0
  -26.5629  -34.8898   22.4671 O   0  0  0  0  0  0
  -23.5408  -32.1458   23.7478 O   0  0  0  0  0  0
  -28.6158  -21.7892   21.7713 C   0  0  0  0  0  0
  -30.1131  -15.4437   17.6404 C   0  0  0  0  0  0
  -29.0677  -17.4360   18.4534 C   0  0  0  0  0  0
  -29.0120  -22.6188   20.5558 C   0  0  0  0  0  0
  -29.2069  -24.1760   20.7638 C   0  0  0  0  0  0
  -29.3453  -17.9612   21.5687 C   0  0  0  0  0  0
  -29.7983  -19.4719   21.3826 C   0  0  0  0  0  0
  -30.3897  -16.8220   21.2463 C   0  0  0  0  0  0
  -28.1722  -25.1133   20.0462 C   0  0  0  0  0  0
  -30.2619  -16.4876   18.7551 C   0  0  0  0  0  0
  -31.6277  -17.2198   18.4683 C   0  0  0  0  0  0
  -27.7972  -22.2484   22.7178 N   0  0  0  0  0  0
  -27.6670  -21.2061   23.6050 N   0  0  0  0  0  0
  -28.3377  -20.1699   23.2111 N   0  0  0  0  0  0
  -28.9320  -20.4847   22.0273 N   0  0  0  0  0  0
  -30.1298  -15.8422   20.1368 N   0  0  0  0  0  0
  -31.6422  -17.6457   17.2052 F   0  0  0  0  0  0
  -31.7888  -18.3131   19.2101 F   0  0  0  0  0  0
  -32.6975  -16.4390   18.6215 F   0  0  0  0  0  0
  -31.4354  -12.3559   19.1645 H   0  0  0  0  0  0
  -30.2843  -11.3960   20.0536 H   0  0  0  0  0  0
  -29.6576  -11.3163   17.7115 H   0  0  0  0  0  0
  -29.7037  -12.9851   17.4832 H   0  0  0  0  0  0
  -27.7361  -11.2496   18.9200 H   0  0  0  0  0  0
  -27.3478  -12.4899   17.7762 H   0  0  0  0  0  0
  -27.6037  -14.2403   19.4159 H   0  0  0  0  0  0
  -28.6953  -12.2104   21.4191 H   0  0  0  0  0  0
  -28.4611  -13.9150   21.7189 H   0  0  0  0  0  0
  -25.2707   -9.5663   22.4775 H   0  0  0  0  0  0
  -23.9990   -7.4592   22.7472 H   0  0  0  0  0  0
  -21.0827   -8.8739   19.8895 H   0  0  0  0  0  0
  -22.3687  -10.9642   19.6168 H   0  0  0  0  0  0
  -21.1875   -7.6094   23.9669 H   0  0  0  0  0  0
  -21.1603   -6.0517   25.9106 H   0  0  0  0  0  0
  -22.0532   -2.7557   23.2901 H   0  0  0  0  0  0
  -22.3919  -11.9878   22.5013 H   0  0  0  0  0  0
  -21.0973  -13.1175   22.2652 H   0  0  0  0  0  0
  -24.6557  -15.8622   20.5418 H   0  0  0  0  0  0
  -26.2773  -15.6419   20.1258 H   0  0  0  0  0  0
  -26.7141  -32.5507   23.1151 H   0  0  0  0  0  0
  -25.0104  -33.9762   25.0479 H   0  0  0  0  0  0
  -22.6969  -31.3076   21.4280 H   0  0  0  0  0  0
  -23.3752  -35.9591   23.3348 H   0  0  0  0  0  0
  -24.3594  -36.8817   22.2038 H   0  0  0  0  0  0
  -23.7261  -37.6463   23.6644 H   0  0  0  0  0  0
  -26.0742  -31.5911   20.6156 H   0  0  0  0  0  0
  -26.8270  -30.8572   22.0012 H   0  0  0  0  0  0
  -28.1172  -29.0575   21.1479 H   0  0  0  0  0  0
  -25.9817  -25.9686   18.9950 H   0  0  0  0  0  0
  -23.9664  -27.3201   19.0192 H   0  0  0  0  0  0
  -23.7190  -30.6148   19.4201 H   0  0  0  0  0  0
  -22.7398  -29.2512   19.8749 H   0  0  0  0  0  0
  -25.1294  -36.1909   25.0822 H   0  0  0  0  0  0
  -20.9910  -28.3191   24.1471 H   0  0  0  0  0  0
  -20.5672  -26.2238   23.3602 H   0  0  0  0  0  0
  -21.6607  -26.7445   22.1212 H   0  0  0  0  0  0
  -19.6906  -25.6293   21.1224 H   0  0  0  0  0  0
  -19.6667  -27.3212   20.6774 H   0  0  0  0  0  0
  -17.4174  -26.6660   21.4014 H   0  0  0  0  0  0
  -18.0306  -26.0046   22.9017 H   0  0  0  0  0  0
  -19.7911  -30.7252   24.2286 H   0  0  0  0  0  0
  -17.4985  -31.6273   24.5128 H   0  0  0  0  0  0
  -15.5329  -30.2967   23.7665 H   0  0  0  0  0  0
  -15.8630  -28.0800   22.7087 H   0  0  0  0  0  0
  -24.5911  -30.7102   25.7814 H   0  0  0  0  0  0
  -24.8981  -32.2914   26.4913 H   0  0  0  0  0  0
  -25.8075  -30.8899   27.0260 H   0  0  0  0  0  0
  -26.2946  -29.6789   24.1123 H   0  0  0  0  0  0
  -27.4011  -29.7226   25.4657 H   0  0  0  0  0  0
  -27.8834  -30.4294   23.9425 H   0  0  0  0  0  0
  -27.2689  -33.3602   26.2104 H   0  0  0  0  0  0
  -28.3874  -32.6897   25.0307 H   0  0  0  0  0  0
  -28.0790  -31.8440   26.5398 H   0  0  0  0  0  0
  -28.2614  -38.0043   24.7466 H   0  0  0  0  0  0
  -28.1022  -36.2576   24.6390 H   0  0  0  0  0  0
  -27.2292  -37.1525   25.8890 H   0  0  0  0  0  0
  -20.9366  -29.8667   21.6924 H   0  0  0  0  0  0
  -26.0163  -38.2834   24.1404 H   0  0  0  0  0  0
  -30.9413  -14.7328   17.6571 H   0  0  0  0  0  0
  -30.1137  -15.8868   16.6439 H   0  0  0  0  0  0
  -29.1496  -14.9511   17.7421 H   0  0  0  0  0  0
  -29.0379  -17.7397   17.4053 H   0  0  0  0  0  0
  -28.1048  -16.9785   18.6640 H   0  0  0  0  0  0
  -29.1071  -18.3537   19.0157 H   0  0  0  0  0  0
  -28.2689  -22.4446   19.7770 H   0  0  0  0  0  0
  -29.9447  -22.1965   20.1801 H   0  0  0  0  0  0
  -30.2020  -24.4378   20.4021 H   0  0  0  0  0  0
  -29.2293  -24.4057   21.8293 H   0  0  0  0  0  0
  -28.3781  -17.7753   21.0983 H   0  0  0  0  0  0
  -29.1365  -17.8387   22.6316 H   0  0  0  0  0  0
  -29.8832  -19.7554   20.3402 H   0  0  0  0  0  0
  -30.8028  -19.5983   21.7912 H   0  0  0  0  0  0
  -30.4394  -16.2336   22.1654 H   0  0  0  0  0  0
  -31.4069  -17.2097   21.1821 H   0  0  0  0  0  0
  -27.1914  -24.8118   20.4192 H   0  0  0  0  0  0
  -28.1812  -24.8961   18.9766 H   0  0  0  0  0  0
  1 25  1  0  0  0
  1 30  2  0  0  0
  1 86  1  0  0  0
  2  3  1  0  0  0
  2 25  1  0  0  0
  2 90  1  0  0  0
  2 91  1  0  0  0
  3  4  1  0  0  0
  3 92  1  0  0  0
  3 93  1  0  0  0
  4  5  1  0  0  0
  4 94  1  0  0  0
  4 95  1  0  0  0
  5  6  1  0  0  0
  5 26  1  0  0  0
  5 96  1  0  0  0
  6 25  1  0  0  0
  6 97  1  0  0  0
  6 98  1  0  0  0
  7  8  2  0  0  0
  7 26  1  0  0  0
  7 29  1  0  0  0
  8  9  1  0  0  0
  8 22  1  0  0  0
  9 10  1  0  0  0
  9 27  2  0  0  0
 10 11  2  0  0  0
 10 15  1  0  0  0
 11 12  1  0  0  0
 11 99  1  0  0  0
 12 13  2  0  0  0
 12100  1  0  0  0
 13 14  1  0  0  0
 13 31  1  0  0  0
 14 15  2  0  0  0
 14101  1  0  0  0
 15102  1  0  0  0
 16 17  2  0  0  0
 16 21  1  0  0  0
 16 31  1  0  0  0
 17 18  1  0  0  0
 17103  1  0  0  0
 18 19  2  0  0  0
 18104  1  0  0  0
 19 20  1  0  0  0
 19 24  1  0  0  0
 20 21  2  0  0  0
 20105  1  0  0  0
 21 23  1  0  0  0
 22 28  1  0  0  0
 22 32  2  0  0  0
 26 27  1  0  0  0
 28106  1  0  0  0
 28107  1  0  0  0
 29108  1  0  0  0
 29109  1  0  0  0
 33 34  1  0  0  0
 33 66  1  0  0  0
 33 70  2  0  0  0
 34 36  1  0  0  0
 34 59  1  0  0  0
 34110  1  0  0  0
 35 44  2  0  0  0
 35 45  1  0  0  0
 35 68  1  0  0  0
 36 56  1  0  0  0
 36111  1  0  0  0
 37 39  1  0  0  0
 37 47  1  0  0  0
 37 66  1  0  0  0
 37112  1  0  0  0
 38 43  2  0  0  0
 38 46  1  0  0  0
 38 47  1  0  0  0
 39 64  1  0  0  0
 39 67  2  0  0  0
 40 52  1  0  0  0
 40 53  2  0  0  0
 40 58  1  0  0  0
 41113  1  0  0  0
 41114  1  0  0  0
 41115  1  0  0  0
 41 48  1  0  0  0
 42 43  1  0  0  0
 42 66  1  0  0  0
 42116  1  0  0  0
 42117  1  0  0  0
 43 44  1  0  0  0
 44118  1  0  0  0
 45 46  2  0  0  0
 45119  1  0  0  0
 46120  1  0  0  0
 47121  1  0  0  0
 47122  1  0  0  0
 48 56  1  0  0  0
 48 65  1  0  0  0
 48123  1  0  0  0
 49 50  1  0  0  0
 49 53  1  0  0  0
 49 64  1  0  0  0
 49124  1  0  0  0
 50 51  1  0  0  0
 50125  1  0  0  0
 50126  1  0  0  0
 51 52  1  0  0  0
 51127  1  0  0  0
 51128  1  0  0  0
 52129  1  0  0  0
 52130  1  0  0  0
 53 54  1  0  0  0
 54 55  2  0  0  0
 54131  1  0  0  0
 55 57  1  0  0  0
 55132  1  0  0  0
 56 69  2  0  0  0
 57 58  2  0  0  0
 57133  1  0  0  0
 58134  1  0  0  0
 59 60  1  0  0  0
 59 61  1  0  0  0
 59 62  1  0  0  0
 60135  1  0  0  0
 60136  1  0  0  0
 60137  1  0  0  0
 61138  1  0  0  0
 61139  1  0  0  0
 61140  1  0  0  0
 62141  1  0  0  0
 62142  1  0  0  0
 62143  1  0  0  0
 63 65  1  0  0  0
 63144  1  0  0  0
 63145  1  0  0  0
 63146  1  0  0  0
 64147  1  0  0  0
 65148  1  0  0  0
 68 79  1  0  0  0
 71 74  1  0  0  0
 71 82  2  0  0  0
 71 85  1  0  0  0
 72149  1  0  0  0
 72150  1  0  0  0
 72151  1  0  0  0
 72 80  1  0  0  0
 73 80  1  0  0  0
 73152  1  0  0  0
 73153  1  0  0  0
 73154  1  0  0  0
 74 75  1  0  0  0
 74155  1  0  0  0
 74156  1  0  0  0
 75 79  1  0  0  0
 75157  1  0  0  0
 75158  1  0  0  0
 76 77  1  0  0  0
 76 78  1  0  0  0
 76159  1  0  0  0
 76160  1  0  0  0
 77 85  1  0  0  0
 77161  1  0  0  0
 77162  1  0  0  0
 78 86  1  0  0  0
 78163  1  0  0  0
 78164  1  0  0  0
 79165  1  0  0  0
 79166  1  0  0  0
 80 81  1  0  0  0
 80 86  1  0  0  0
 81 87  1  0  0  0
 81 88  1  0  0  0
 81 89  1  0  0  0
 82 83  1  0  0  0
 83 84  2  0  0  0
 84 85  1  0  0  0
M  ISO  4   1 100  68 101  79 101  86 100
M  END
> <chiral flag>
0

> <version>
0

> <s_m_source_file>
/data/baiqing/PycharmProjects/Reinvent-master-3.2/result/LINK_invent/BTK/process_docking_weight1_custom_sum_contain_oxygen_bond_distance_aromatic_linkinvent_7_9_3/rearranged_h_0055.sdf

> <i_m_source_file_index>
18

> <r_mmod_Potential_Energy-OPLS-2005>
324.218505859375

> <r_mmod_Stretch_Energy-OPLS-2005>
78.2086486816406

> <r_mmod_Bend_Energy-OPLS-2005>
180.923690795898

> <r_mmod_Torsional_Energy-OPLS-2005>
369.918182373047

> <r_mmod_Improper_Torsional_Energy-OPLS-2005>
13.7372312545776

> <r_mmod_Van_der_Waal_Energy-OPLS-2005>
159.14714050293

> <r_mmod_Electrostatic_Energy-OPLS-2005>
-326.283203125

> <r_mmod_Solvation_Energy-OPLS-2005>
-221.579833984375

> <b_mmod_Minimization_Converged-OPLS-2005>
0

> <r_mmod_RMS_Derivative-OPLS-2005>
6.12284517288208

$$$$
18
                    3D
 Structure written by MMmdl.
156164  0  0  1  0            999 V2000
  -30.5815  -14.7638   20.4472 C   0  0  0  0  0  0
  -30.4469  -12.4687   19.4585 C   0  0  0  0  0  0
  -29.5182  -12.5084   18.2243 C   0  0  0  0  0  0
  -28.0459  -12.3179   18.6432 C   0  0  0  0  0  0
  -27.6437  -13.2213   19.8392 C   0  0  2  0  0  0
  -28.6900  -13.1610   20.9723 C   0  0  0  0  0  0
  -25.2546  -13.8162   20.5658 C   0  0  0  0  0  0
  -24.1824  -13.0442   20.9181 C   0  0  0  0  0  0
  -24.6387  -11.6919   20.8709 C   0  0  0  0  0  0
  -23.9050  -10.4304   21.0376 C   0  0  0  0  0  0
  -24.3615   -9.4243   21.9166 C   0  0  0  0  0  0
  -23.6293   -8.2278   22.0755 C   0  0  0  0  0  0
  -22.4269   -8.0304   21.3558 C   0  0  0  0  0  0
  -21.9898   -9.0262   20.4653 C   0  0  0  0  0  0
  -22.7215  -10.2143   20.3035 C   0  0  0  0  0  0
  -21.6858   -6.0751   22.5278 C   0  0  0  0  0  0
  -21.4029   -6.5654   23.8211 C   0  0  0  0  0  0
  -21.3646   -5.6795   24.9172 C   0  0  0  0  0  0
  -21.6027   -4.3051   24.7218 C   0  0  0  0  0  0
  -21.8813   -3.8163   23.4333 C   0  0  0  0  0  0
  -21.9197   -4.6986   22.3399 C   0  0  0  0  0  0
  -22.7843  -13.5267   21.1813 C   0  0  0  0  0  0
  -22.1666   -4.2175   21.0975 F   0  0  0  0  0  0
  -21.5619   -3.4528   25.7728 F   0  0  0  0  0  0
  -29.9851  -13.5235   20.3833 N   0  0  0  0  0  0
  -26.2955  -12.9343   20.3202 N   0  0  0  0  0  0
  -25.9304  -11.6508   20.5674 N   0  0  0  0  0  0
  -22.0431  -12.8309   22.0358 N   0  0  0  0  0  0
  -25.4248  -15.1883   20.4095 N   0  0  0  0  0  0
  -31.7833  -14.8886   20.1918 O   0  0  0  0  0  0
  -21.6654   -6.8890   21.4234 O   0  0  0  0  0  0
  -22.3568  -14.5574   20.6639 O   0  0  0  0  0  0
  -24.6334  -31.8552   23.1963 C   0  0  0  0  0  0
  -25.9173  -32.4733   23.8316 C   0  0  1  0  0  0
  -27.2260  -27.2595   20.1176 C   0  0  0  0  0  0
  -25.5982  -33.8538   24.2250 N   0  0  0  0  0  0
  -23.4305  -30.4783   21.5385 C   0  0  2  0  0  0
  -24.8762  -28.9236   20.1105 C   0  0  0  0  0  0
  -22.7523  -29.4622   22.4890 C   0  0  0  0  0  0
  -18.0308  -28.1390   22.8479 C   0  0  0  0  0  0
  -24.1494  -36.7280   23.2636 C   0  0  0  0  0  0
  -25.9766  -30.7673   21.3757 C   0  0  0  0  0  0
  -26.0496  -29.3889   20.7174 C   0  0  0  0  0  0
  -27.2266  -28.5728   20.7052 C   0  0  0  0  0  0
  -26.0204  -26.8619   19.4934 C   0  0  0  0  0  0
  -24.8661  -27.6674   19.4903 C   0  0  0  0  0  0
  -23.6491  -29.8111   20.1553 C   0  0  0  0  0  0
  -25.4110  -36.3044   24.0327 C   0  0  1  0  0  0
  -20.5911  -28.3726   23.1247 C   0  0  2  0  0  0
  -20.6800  -26.9443   22.5395 C   0  0  0  0  0  0
  -19.5775  -26.6388   21.5205 C   0  0  0  0  0  0
  -18.1954  -26.7936   22.1613 C   0  0  0  0  0  0
  -19.1562  -28.8875   23.2857 C   0  0  0  0  0  0
  -18.9479  -30.1465   23.8879 C   0  0  0  0  0  0
  -17.6479  -30.6588   24.0560 C   0  0  0  0  0  0
  -25.9058  -34.9424   23.5078 C   0  0  0  0  0  0
  -16.5370  -29.9081   23.6322 C   0  0  0  0  0  0
  -16.7297  -28.6499   23.0351 C   0  0  0  0  0  0
  -26.4545  -31.6561   25.0710 C   0  0  0  0  0  0
  -25.3789  -31.3734   26.1450 C   0  0  0  0  0  0
  -27.0388  -30.2961   24.6214 C   0  0  0  0  0  0
  -27.6070  -32.4332   25.7509 C   0  0  0  0  0  0
  -27.5577  -37.1784   24.8460 C   0  0  0  0  0  0
  -21.4233  -29.3068   22.3637 N   0  0  0  0  0  0
  -26.4273  -37.3754   23.9423 N   0  0  0  0  0  0
  -24.6989  -31.0535   22.0924 N   0  0  0  0  0  0
  -23.4211  -28.8158   23.2998 O   0  0  0  0  0  0
  -28.3376  -26.3812   20.1428 O   0  0  0  0  0  0
  -26.5613  -34.8918   22.4629 O   0  0  0  0  0  0
  -23.5493  -32.1377   23.7263 O   0  0  0  0  0  0
  -28.1912  -21.5628   21.0875 C   0  0  0  0  0  0
  -29.8270  -21.1844   19.7349 C   0  0  0  0  0  0
  -29.1301  -22.2713   20.2779 C   0  0  0  0  0  0
  -28.2943  -18.0012   19.0054 C   0  0  0  0  0  0
  -30.7008  -18.4849   18.6650 C   0  0  0  0  0  0
  -29.3444  -23.8466   20.1155 C   0  0  0  0  0  0
  -29.9884  -17.3617   20.8339 C   0  0  0  0  0  0
  -28.1137  -24.8901   20.1660 C   0  0  0  0  0  0
  -29.5783  -18.4750   19.7211 C   0  0  0  0  0  0
  -28.3037  -20.2250   21.0323 N   0  0  0  0  0  0
  -29.3232  -19.9311   20.1804 N   0  0  0  0  0  0
  -29.7517  -15.8619   20.6020 N   0  0  0  0  0  0
  -31.4843  -12.6194   19.1552 H   0  0  0  0  0  0
  -30.4142  -11.4909   19.9428 H   0  0  0  0  0  0
  -29.8120  -11.7400   17.5106 H   0  0  0  0  0  0
  -29.6361  -13.4642   17.7085 H   0  0  0  0  0  0
  -27.9139  -11.2691   18.9147 H   0  0  0  0  0  0
  -27.3859  -12.4963   17.7927 H   0  0  0  0  0  0
  -27.6359  -14.2395   19.4517 H   0  0  0  0  0  0
  -28.7311  -12.1657   21.4177 H   0  0  0  0  0  0
  -28.4222  -13.8420   21.7819 H   0  0  0  0  0  0
  -25.2741   -9.5750   22.4758 H   0  0  0  0  0  0
  -24.0001   -7.4676   22.7475 H   0  0  0  0  0  0
  -21.0826   -8.8757   19.8968 H   0  0  0  0  0  0
  -22.3624  -10.9684   19.6165 H   0  0  0  0  0  0
  -21.2035   -7.6163   23.9724 H   0  0  0  0  0  0
  -21.1458   -6.0529   25.9073 H   0  0  0  0  0  0
  -22.0599   -2.7631   23.2812 H   0  0  0  0  0  0
  -22.4028  -12.0052   22.4907 H   0  0  0  0  0  0
  -21.1035  -13.1374   22.2453 H   0  0  0  0  0  0
  -24.6533  -15.8361   20.5233 H   0  0  0  0  0  0
  -26.2621  -15.6294   20.0545 H   0  0  0  0  0  0
  -26.7234  -32.5381   23.1060 H   0  0  0  0  0  0
  -25.0210  -33.9658   25.0452 H   0  0  0  0  0  0
  -22.7263  -31.2988   21.3880 H   0  0  0  0  0  0
  -23.3751  -35.9615   23.3258 H   0  0  0  0  0  0
  -24.3598  -36.8943   22.2059 H   0  0  0  0  0  0
  -23.7261  -37.6476   23.6685 H   0  0  0  0  0  0
  -26.1177  -31.5299   20.6080 H   0  0  0  0  0  0
  -26.8516  -30.8139   22.0117 H   0  0  0  0  0  0
  -28.1277  -28.9261   21.1854 H   0  0  0  0  0  0
  -25.9294  -25.9111   18.9935 H   0  0  0  0  0  0
  -23.9675  -27.3030   19.0109 H   0  0  0  0  0  0
  -23.7774  -30.5817   19.3948 H   0  0  0  0  0  0
  -22.7677  -29.2449   19.8508 H   0  0  0  0  0  0
  -25.1287  -36.1870   25.0819 H   0  0  0  0  0  0
  -20.9994  -28.3317   24.1376 H   0  0  0  0  0  0
  -20.5711  -26.2354   23.3616 H   0  0  0  0  0  0
  -21.6670  -26.7485   22.1185 H   0  0  0  0  0  0
  -19.6942  -25.6292   21.1258 H   0  0  0  0  0  0
  -19.6691  -27.3175   20.6711 H   0  0  0  0  0  0
  -17.4231  -26.6698   21.4004 H   0  0  0  0  0  0
  -18.0334  -26.0077   22.9000 H   0  0  0  0  0  0
  -19.7958  -30.7282   24.2242 H   0  0  0  0  0  0
  -17.5037  -31.6258   24.5183 H   0  0  0  0  0  0
  -15.5367  -30.2976   23.7649 H   0  0  0  0  0  0
  -15.8702  -28.0799   22.7076 H   0  0  0  0  0  0
  -24.5932  -30.7110   25.7811 H   0  0  0  0  0  0
  -24.9037  -32.2921   26.4894 H   0  0  0  0  0  0
  -25.8134  -30.8909   27.0214 H   0  0  0  0  0  0
  -26.2959  -29.6697   24.1258 H   0  0  0  0  0  0
  -27.4075  -29.7245   25.4746 H   0  0  0  0  0  0
  -27.8844  -30.4213   23.9444 H   0  0  0  0  0  0
  -27.2622  -33.3631   26.2053 H   0  0  0  0  0  0
  -28.3903  -32.6905   25.0366 H   0  0  0  0  0  0
  -28.0714  -31.8499   26.5477 H   0  0  0  0  0  0
  -28.2557  -38.0112   24.7510 H   0  0  0  0  0  0
  -28.1102  -36.2638   24.6246 H   0  0  0  0  0  0
  -27.2313  -37.1392   25.8868 H   0  0  0  0  0  0
  -20.9436  -29.8798   21.6834 H   0  0  0  0  0  0
  -26.0142  -38.2826   24.1413 H   0  0  0  0  0  0
  -27.4208  -21.9818   21.7209 H   0  0  0  0  0  0
  -30.6520  -21.2083   19.0360 H   0  0  0  0  0  0
  -28.4099  -17.0136   18.5589 H   0  0  0  0  0  0
  -28.0265  -18.6842   18.1969 H   0  0  0  0  0  0
  -27.4471  -17.9612   19.6910 H   0  0  0  0  0  0
  -30.8495  -17.4973   18.2278 H   0  0  0  0  0  0
  -31.6500  -18.7945   19.0998 H   0  0  0  0  0  0
  -30.4732  -19.1671   17.8433 H   0  0  0  0  0  0
  -29.8574  -24.0323   19.1700 H   0  0  0  0  0  0
  -30.0583  -24.1702   20.8737 H   0  0  0  0  0  0
  -29.4080  -17.5956   21.7262 H   0  0  0  0  0  0
  -31.0255  -17.5155   21.1354 H   0  0  0  0  0  0
  -27.5372  -24.6780   21.0670 H   0  0  0  0  0  0
  -27.4792  -24.6046   19.3305 H   0  0  0  0  0  0
  -28.7807  -15.6058   20.6862 H   0  0  0  0  0  0
  1 25  1  0  0  0
  1 30  2  0  0  0
  1 82  1  0  0  0
  2  3  1  0  0  0
  2 25  1  0  0  0
  2 83  1  0  0  0
  2 84  1  0  0  0
  3  4  1  0  0  0
  3 85  1  0  0  0
  3 86  1  0  0  0
  4  5  1  0  0  0
  4 87  1  0  0  0
  4 88  1  0  0  0
  5  6  1  0  0  0
  5 26  1  0  0  0
  5 89  1  0  0  0
  6 25  1  0  0  0
  6 90  1  0  0  0
  6 91  1  0  0  0
  7  8  2  0  0  0
  7 26  1  0  0  0
  7 29  1  0  0  0
  8  9  1  0  0  0
  8 22  1  0  0  0
  9 10  1  0  0  0
  9 27  2  0  0  0
 10 11  2  0  0  0
 10 15  1  0  0  0
 11 12  1  0  0  0
 11 92  1  0  0  0
 12 13  2  0  0  0
 12 93  1  0  0  0
 13 14  1  0  0  0
 13 31  1  0  0  0
 14 15  2  0  0  0
 14 94  1  0  0  0
 15 95  1  0  0  0
 16 17  2  0  0  0
 16 21  1  0  0  0
 16 31  1  0  0  0
 17 18  1  0  0  0
 17 96  1  0  0  0
 18 19  2  0  0  0
 18 97  1  0  0  0
 19 20  1  0  0  0
 19 24  1  0  0  0
 20 21  2  0  0  0
 20 98  1  0  0  0
 21 23  1  0  0  0
 22 28  1  0  0  0
 22 32  2  0  0  0
 26 27  1  0  0  0
 28 99  1  0  0  0
 28100  1  0  0  0
 29101  1  0  0  0
 29102  1  0  0  0
 33 34  1  0  0  0
 33 66  1  0  0  0
 33 70  2  0  0  0
 34 36  1  0  0  0
 34 59  1  0  0  0
 34103  1  0  0  0
 35 44  2  0  0  0
 35 45  1  0  0  0
 35 68  1  0  0  0
 36 56  1  0  0  0
 36104  1  0  0  0
 37 39  1  0  0  0
 37 47  1  0  0  0
 37 66  1  0  0  0
 37105  1  0  0  0
 38 43  2  0  0  0
 38 46  1  0  0  0
 38 47  1  0  0  0
 39 64  1  0  0  0
 39 67  2  0  0  0
 40 52  1  0  0  0
 40 53  2  0  0  0
 40 58  1  0  0  0
 41106  1  0  0  0
 41107  1  0  0  0
 41108  1  0  0  0
 41 48  1  0  0  0
 42 43  1  0  0  0
 42 66  1  0  0  0
 42109  1  0  0  0
 42110  1  0  0  0
 43 44  1  0  0  0
 44111  1  0  0  0
 45 46  2  0  0  0
 45112  1  0  0  0
 46113  1  0  0  0
 47114  1  0  0  0
 47115  1  0  0  0
 48 56  1  0  0  0
 48 65  1  0  0  0
 48116  1  0  0  0
 49 50  1  0  0  0
 49 53  1  0  0  0
 49 64  1  0  0  0
 49117  1  0  0  0
 50 51  1  0  0  0
 50118  1  0  0  0
 50119  1  0  0  0
 51 52  1  0  0  0
 51120  1  0  0  0
 51121  1  0  0  0
 52122  1  0  0  0
 52123  1  0  0  0
 53 54  1  0  0  0
 54 55  2  0  0  0
 54124  1  0  0  0
 55 57  1  0  0  0
 55125  1  0  0  0
 56 69  2  0  0  0
 57 58  2  0  0  0
 57126  1  0  0  0
 58127  1  0  0  0
 59 60  1  0  0  0
 59 61  1  0  0  0
 59 62  1  0  0  0
 60128  1  0  0  0
 60129  1  0  0  0
 60130  1  0  0  0
 61131  1  0  0  0
 61132  1  0  0  0
 61133  1  0  0  0
 62134  1  0  0  0
 62135  1  0  0  0
 62136  1  0  0  0
 63 65  1  0  0  0
 63137  1  0  0  0
 63138  1  0  0  0
 63139  1  0  0  0
 64140  1  0  0  0
 65141  1  0  0  0
 68 78  1  0  0  0
 71 73  1  0  0  0
 71 80  2  0  0  0
 71142  1  0  0  0
 72 73  2  0  0  0
 72 81  1  0  0  0
 72143  1  0  0  0
 73 76  1  0  0  0
 74144  1  0  0  0
 74145  1  0  0  0
 74146  1  0  0  0
 74 79  1  0  0  0
 75 79  1  0  0  0
 75147  1  0  0  0
 75148  1  0  0  0
 75149  1  0  0  0
 76 78  1  0  0  0
 76150  1  0  0  0
 76151  1  0  0  0
 77 79  1  0  0  0
 77 82  1  0  0  0
 77152  1  0  0  0
 77153  1  0  0  0
 78154  1  0  0  0
 78155  1  0  0  0
 79 81  1  0  0  0
 80 81  1  0  0  0
 82156  1  0  0  0
M  ISO  4   1 100  68 101  78 101  82 100
M  END
> <chiral flag>
0

> <version>
0

> <s_m_source_file>
/data/baiqing/PycharmProjects/Reinvent-master-3.2/result/LINK_invent/BTK/process_docking_weight1_custom_sum_contain_oxygen_bond_distance_aromatic_linkinvent_7_9_3/rearranged_h_0055.sdf

> <i_m_source_file_index>
19

> <r_mmod_Potential_Energy-OPLS-2005>
121.250823974609

> <r_mmod_Stretch_Energy-OPLS-2005>
124.506721496582

> <r_mmod_Bend_Energy-OPLS-2005>
172.131881713867

> <r_mmod_Torsional_Energy-OPLS-2005>
253.426208496094

> <r_mmod_Improper_Torsional_Energy-OPLS-2005>
5.43184900283813

> <r_mmod_Van_der_Waal_Energy-OPLS-2005>
114.958992004395

> <r_mmod_Electrostatic_Energy-OPLS-2005>
-423.190795898438

> <r_mmod_Solvation_Energy-OPLS-2005>
-216.468292236328

> <b_mmod_Minimization_Converged-OPLS-2005>
0

> <r_mmod_RMS_Derivative-OPLS-2005>
3.36047625541687

$$$$
19
                    3D
 Structure written by MMmdl.
150158  0  0  1  0            999 V2000
  -30.5100  -15.0378   20.3988 C   0  0  0  0  0  0
  -30.4376  -12.6416   19.5207 C   0  0  0  0  0  0
  -29.5305  -12.5300   18.2721 C   0  0  0  0  0  0
  -28.0630  -12.3102   18.6838 C   0  0  0  0  0  0
  -27.6204  -13.2589   19.8290 C   0  0  2  0  0  0
  -28.6573  -13.3330   20.9708 C   0  0  0  0  0  0
  -25.2391  -13.8231   20.5689 C   0  0  0  0  0  0
  -24.1736  -13.0432   20.9233 C   0  0  0  0  0  0
  -24.6385  -11.6927   20.8771 C   0  0  0  0  0  0
  -23.9088  -10.4284   21.0411 C   0  0  0  0  0  0
  -24.3645   -9.4189   21.9176 C   0  0  0  0  0  0
  -23.6306   -8.2232   22.0747 C   0  0  0  0  0  0
  -22.4285   -8.0283   21.3542 C   0  0  0  0  0  0
  -21.9922   -9.0263   20.4658 C   0  0  0  0  0  0
  -22.7258  -10.2138   20.3063 C   0  0  0  0  0  0
  -21.6854   -6.0739   22.5282 C   0  0  0  0  0  0
  -21.4015   -6.5638   23.8219 C   0  0  0  0  0  0
  -21.3664   -5.6788   24.9177 C   0  0  0  0  0  0
  -21.6045   -4.3051   24.7228 C   0  0  0  0  0  0
  -21.8810   -3.8147   23.4352 C   0  0  0  0  0  0
  -21.9180   -4.6966   22.3407 C   0  0  0  0  0  0
  -22.7748  -13.5194   21.1873 C   0  0  0  0  0  0
  -22.1639   -4.2149   21.0986 F   0  0  0  0  0  0
  -21.5635   -3.4536   25.7741 F   0  0  0  0  0  0
  -29.9237  -13.7646   20.3658 N   0  0  0  0  0  0
  -26.2821  -12.9493   20.3183 N   0  0  0  0  0  0
  -25.9320  -11.6605   20.5735 N   0  0  0  0  0  0
  -22.0394  -12.8228   22.0464 N   0  0  0  0  0  0
  -25.4002  -15.1970   20.4102 N   0  0  0  0  0  0
  -31.7192  -15.0830   20.1485 O   0  0  0  0  0  0
  -21.6639   -6.8893   21.4250 O   0  0  0  0  0  0
  -22.3433  -14.5473   20.6676 O   0  0  0  0  0  0
  -24.6511  -31.8398   23.1831 C   0  0  0  0  0  0
  -25.9250  -32.4674   23.8256 C   0  0  1  0  0  0
  -27.2110  -27.0701   20.1477 C   0  0  0  0  0  0
  -25.5955  -33.8481   24.2143 N   0  0  0  0  0  0
  -23.4584  -30.4606   21.5304 C   0  0  2  0  0  0
  -24.9079  -28.8805   20.1071 C   0  0  0  0  0  0
  -22.7613  -29.4536   22.4807 C   0  0  0  0  0  0
  -18.0323  -28.1411   22.8483 C   0  0  0  0  0  0
  -24.1486  -36.7249   23.2641 C   0  0  0  0  0  0
  -26.0213  -30.6908   21.3956 C   0  0  0  0  0  0
  -26.0897  -29.2972   20.7333 C   0  0  0  0  0  0
  -27.2407  -28.4093   20.7350 C   0  0  0  0  0  0
  -26.0019  -26.7797   19.4730 C   0  0  0  0  0  0
  -24.8817  -27.6388   19.4602 C   0  0  0  0  0  0
  -23.6895  -29.7929   20.1496 C   0  0  0  0  0  0
  -25.4116  -36.3011   24.0303 C   0  0  1  0  0  0
  -20.5942  -28.3752   23.1206 C   0  0  2  0  0  0
  -20.6797  -26.9440   22.5405 C   0  0  0  0  0  0
  -19.5755  -26.6380   21.5232 C   0  0  0  0  0  0
  -18.1945  -26.7946   22.1648 C   0  0  0  0  0  0
  -19.1584  -28.8900   23.2841 C   0  0  0  0  0  0
  -18.9491  -30.1492   23.8861 C   0  0  0  0  0  0
  -17.6485  -30.6599   24.0572 C   0  0  0  0  0  0
  -25.9073  -34.9394   23.5025 C   0  0  0  0  0  0
  -16.5376  -29.9094   23.6343 C   0  0  0  0  0  0
  -16.7313  -28.6526   23.0352 C   0  0  0  0  0  0
  -26.4520  -31.6579   25.0745 C   0  0  0  0  0  0
  -25.3667  -31.3839   26.1424 C   0  0  0  0  0  0
  -27.0388  -30.2946   24.6420 C   0  0  0  0  0  0
  -27.6022  -32.4376   25.7546 C   0  0  0  0  0  0
  -27.5559  -37.1783   24.8453 C   0  0  0  0  0  0
  -21.4291  -29.3067   22.3566 N   0  0  0  0  0  0
  -26.4268  -37.3733   23.9403 N   0  0  0  0  0  0
  -24.7308  -31.0199   22.0897 N   0  0  0  0  0  0
  -23.4230  -28.8070   23.2973 O   0  0  0  0  0  0
  -28.2280  -26.0233   20.2237 O   0  0  0  0  0  0
  -26.5675  -34.8910   22.4615 O   0  0  0  0  0  0
  -23.5612  -32.1293   23.7000 O   0  0  0  0  0  0
  -30.4006  -21.4756   20.4286 C   0  0  0  0  0  0
  -30.1749  -22.8558   20.3478 C   0  0  0  0  0  0
  -28.7601  -23.0835   20.2234 C   0  0  0  0  0  0
  -31.2338  -23.9279   20.3749 C   0  0  0  0  0  0
  -27.8612  -24.4953   20.0016 C   0  0  0  0  0  0
  -28.9484  -19.1383   20.4203 C   0  0  0  0  0  0
  -30.0637  -17.8247   20.3693 C   0  0  0  0  0  0
  -28.2414  -21.7712   20.2240 N   0  0  0  0  0  0
  -29.2260  -20.7308   20.3394 N   0  0  0  0  0  0
  -29.7337  -16.2488   20.5041 N   0  0  0  0  0  0
  -31.4725  -12.8030   19.2162 H   0  0  0  0  0  0
  -30.4390  -11.7070   20.0845 H   0  0  0  0  0  0
  -29.8681  -11.7150   17.6317 H   0  0  0  0  0  0
  -29.6108  -13.4419   17.6802 H   0  0  0  0  0  0
  -27.9675  -11.2744   19.0099 H   0  0  0  0  0  0
  -27.4064  -12.4177   17.8193 H   0  0  0  0  0  0
  -27.5707  -14.2508   19.3776 H   0  0  0  0  0  0
  -28.7636  -12.3736   21.4785 H   0  0  0  0  0  0
  -28.3380  -14.0544   21.7245 H   0  0  0  0  0  0
  -25.2790   -9.5660   22.4750 H   0  0  0  0  0  0
  -24.0000   -7.4632   22.7489 H   0  0  0  0  0  0
  -21.0830   -8.8800   19.9004 H   0  0  0  0  0  0
  -22.3700  -10.9678   19.6185 H   0  0  0  0  0  0
  -21.2019   -7.6146   23.9727 H   0  0  0  0  0  0
  -21.1492   -6.0516   25.9081 H   0  0  0  0  0  0
  -22.0588   -2.7603   23.2844 H   0  0  0  0  0  0
  -22.3991  -11.9924   22.4926 H   0  0  0  0  0  0
  -21.1011  -13.1287   22.2637 H   0  0  0  0  0  0
  -24.6215  -15.8381   20.5219 H   0  0  0  0  0  0
  -26.2294  -15.6456   20.0441 H   0  0  0  0  0  0
  -26.7328  -32.5250   23.0999 H   0  0  0  0  0  0
  -25.0075  -33.9588   25.0276 H   0  0  0  0  0  0
  -22.7657  -31.2905   21.3733 H   0  0  0  0  0  0
  -23.3743  -35.9582   23.3282 H   0  0  0  0  0  0
  -24.3574  -36.8913   22.2058 H   0  0  0  0  0  0
  -23.7255  -37.6442   23.6705 H   0  0  0  0  0  0
  -26.1888  -31.4454   20.6256 H   0  0  0  0  0  0
  -26.8857  -30.7372   22.0469 H   0  0  0  0  0  0
  -28.1363  -28.7236   21.2524 H   0  0  0  0  0  0
  -25.8759  -25.8374   18.9637 H   0  0  0  0  0  0
  -23.9829  -27.3194   18.9511 H   0  0  0  0  0  0
  -23.8368  -30.5695   19.3984 H   0  0  0  0  0  0
  -22.8025  -29.2454   19.8288 H   0  0  0  0  0  0
  -25.1311  -36.1816   25.0796 H   0  0  0  0  0  0
  -21.0054  -28.3360   24.1322 H   0  0  0  0  0  0
  -20.5702  -26.2376   23.3645 H   0  0  0  0  0  0
  -21.6657  -26.7441   22.1191 H   0  0  0  0  0  0
  -19.6901  -25.6278   21.1291 H   0  0  0  0  0  0
  -19.6671  -27.3171   20.6741 H   0  0  0  0  0  0
  -17.4209  -26.6710   21.4051 H   0  0  0  0  0  0
  -18.0331  -26.0107   22.9060 H   0  0  0  0  0  0
  -19.7962  -30.7335   24.2200 H   0  0  0  0  0  0
  -17.5033  -31.6270   24.5183 H   0  0  0  0  0  0
  -15.5372  -30.2980   23.7672 H   0  0  0  0  0  0
  -15.8726  -28.0836   22.7055 H   0  0  0  0  0  0
  -24.5806  -30.7240   25.7742 H   0  0  0  0  0  0
  -24.8918  -32.3063   26.4777 H   0  0  0  0  0  0
  -25.7901  -30.9041   27.0256 H   0  0  0  0  0  0
  -26.3036  -29.6669   24.1378 H   0  0  0  0  0  0
  -27.3870  -29.7271   25.5061 H   0  0  0  0  0  0
  -27.9000  -30.4127   23.9845 H   0  0  0  0  0  0
  -27.2561  -33.3670   26.2083 H   0  0  0  0  0  0
  -28.3854  -32.6960   25.0407 H   0  0  0  0  0  0
  -28.0673  -31.8556   26.5511 H   0  0  0  0  0  0
  -28.2559  -38.0097   24.7497 H   0  0  0  0  0  0
  -28.1070  -36.2621   24.6268 H   0  0  0  0  0  0
  -27.2288  -37.1429   25.8863 H   0  0  0  0  0  0
  -20.9504  -29.8819   21.6772 H   0  0  0  0  0  0
  -26.0114  -38.2789   24.1431 H   0  0  0  0  0  0
  -31.3421  -20.9539   20.5370 H   0  0  0  0  0  0
  -32.2280  -23.5303   20.1651 H   0  0  0  0  0  0
  -31.2909  -24.4191   21.3463 H   0  0  0  0  0  0
  -31.0499  -24.7041   19.6319 H   0  0  0  0  0  0
  -26.9356  -24.3509   20.5585 H   0  0  0  0  0  0
  -27.5574  -24.4570   18.9551 H   0  0  0  0  0  0
  -28.3794  -19.0041   21.3402 H   0  0  0  0  0  0
  -28.2224  -18.9380   19.6325 H   0  0  0  0  0  0
  -30.8131  -18.0286   21.1345 H   0  0  0  0  0  0
  -30.6048  -17.9238   19.4276 H   0  0  0  0  0  0
  -28.7573  -16.0589   20.6774 H   0  0  0  0  0  0
  1 25  1  0  0  0
  1 30  2  0  0  0
  1 80  1  0  0  0
  2  3  1  0  0  0
  2 25  1  0  0  0
  2 81  1  0  0  0
  2 82  1  0  0  0
  3  4  1  0  0  0
  3 83  1  0  0  0
  3 84  1  0  0  0
  4  5  1  0  0  0
  4 85  1  0  0  0
  4 86  1  0  0  0
  5  6  1  0  0  0
  5 26  1  0  0  0
  5 87  1  0  0  0
  6 25  1  0  0  0
  6 88  1  0  0  0
  6 89  1  0  0  0
  7  8  2  0  0  0
  7 26  1  0  0  0
  7 29  1  0  0  0
  8  9  1  0  0  0
  8 22  1  0  0  0
  9 10  1  0  0  0
  9 27  2  0  0  0
 10 11  2  0  0  0
 10 15  1  0  0  0
 11 12  1  0  0  0
 11 90  1  0  0  0
 12 13  2  0  0  0
 12 91  1  0  0  0
 13 14  1  0  0  0
 13 31  1  0  0  0
 14 15  2  0  0  0
 14 92  1  0  0  0
 15 93  1  0  0  0
 16 17  2  0  0  0
 16 21  1  0  0  0
 16 31  1  0  0  0
 17 18  1  0  0  0
 17 94  1  0  0  0
 18 19  2  0  0  0
 18 95  1  0  0  0
 19 20  1  0  0  0
 19 24  1  0  0  0
 20 21  2  0  0  0
 20 96  1  0  0  0
 21 23  1  0  0  0
 22 28  1  0  0  0
 22 32  2  0  0  0
 26 27  1  0  0  0
 28 97  1  0  0  0
 28 98  1  0  0  0
 29 99  1  0  0  0
 29100  1  0  0  0
 33 34  1  0  0  0
 33 66  1  0  0  0
 33 70  2  0  0  0
 34 36  1  0  0  0
 34 59  1  0  0  0
 34101  1  0  0  0
 35 44  2  0  0  0
 35 45  1  0  0  0
 35 68  1  0  0  0
 36 56  1  0  0  0
 36102  1  0  0  0
 37 39  1  0  0  0
 37 47  1  0  0  0
 37 66  1  0  0  0
 37103  1  0  0  0
 38 43  2  0  0  0
 38 46  1  0  0  0
 38 47  1  0  0  0
 39 64  1  0  0  0
 39 67  2  0  0  0
 40 52  1  0  0  0
 40 53  2  0  0  0
 40 58  1  0  0  0
 41104  1  0  0  0
 41105  1  0  0  0
 41106  1  0  0  0
 41 48  1  0  0  0
 42 43  1  0  0  0
 42 66  1  0  0  0
 42107  1  0  0  0
 42108  1  0  0  0
 43 44  1  0  0  0
 44109  1  0  0  0
 45 46  2  0  0  0
 45110  1  0  0  0
 46111  1  0  0  0
 47112  1  0  0  0
 47113  1  0  0  0
 48 56  1  0  0  0
 48 65  1  0  0  0
 48114  1  0  0  0
 49 50  1  0  0  0
 49 53  1  0  0  0
 49 64  1  0  0  0
 49115  1  0  0  0
 50 51  1  0  0  0
 50116  1  0  0  0
 50117  1  0  0  0
 51 52  1  0  0  0
 51118  1  0  0  0
 51119  1  0  0  0
 52120  1  0  0  0
 52121  1  0  0  0
 53 54  1  0  0  0
 54 55  2  0  0  0
 54122  1  0  0  0
 55 57  1  0  0  0
 55123  1  0  0  0
 56 69  2  0  0  0
 57 58  2  0  0  0
 57124  1  0  0  0
 58125  1  0  0  0
 59 60  1  0  0  0
 59 61  1  0  0  0
 59 62  1  0  0  0
 60126  1  0  0  0
 60127  1  0  0  0
 60128  1  0  0  0
 61129  1  0  0  0
 61130  1  0  0  0
 61131  1  0  0  0
 62132  1  0  0  0
 62133  1  0  0  0
 62134  1  0  0  0
 63 65  1  0  0  0
 63135  1  0  0  0
 63136  1  0  0  0
 63137  1  0  0  0
 64138  1  0  0  0
 65139  1  0  0  0
 68 75  1  0  0  0
 71 72  2  0  0  0
 71 79  1  0  0  0
 71140  1  0  0  0
 72 73  1  0  0  0
 72 74  1  0  0  0
 73 75  1  0  0  0
 73 78  2  0  0  0
 74141  1  0  0  0
 74142  1  0  0  0
 74143  1  0  0  0
 75144  1  0  0  0
 75145  1  0  0  0
 76 77  1  0  0  0
 76 79  1  0  0  0
 76146  1  0  0  0
 76147  1  0  0  0
 77 80  1  0  0  0
 77148  1  0  0  0
 77149  1  0  0  0
 78 79  1  0  0  0
 80150  1  0  0  0
M  ISO  4   1 100  68 101  75 101  80 100
M  END
> <chiral flag>
0

> <version>
0

> <s_m_source_file>
/data/baiqing/PycharmProjects/Reinvent-master-3.2/result/LINK_invent/BTK/process_docking_weight1_custom_sum_contain_oxygen_bond_distance_aromatic_linkinvent_7_9_3/rearranged_h_0055.sdf

> <i_m_source_file_index>
20

> <r_mmod_Potential_Energy-OPLS-2005>
669.399108886719

> <r_mmod_Stretch_Energy-OPLS-2005>
339.452239990234

> <r_mmod_Bend_Energy-OPLS-2005>
301.143402099609

> <r_mmod_Torsional_Energy-OPLS-2005>
219.409942626953

> <r_mmod_Improper_Torsional_Energy-OPLS-2005>
4.6390175819397

> <r_mmod_Van_der_Waal_Energy-OPLS-2005>
109.322525024414

> <r_mmod_Electrostatic_Energy-OPLS-2005>
-335.084564208984

> <r_mmod_Solvation_Energy-OPLS-2005>
-233.137985229492

> <b_mmod_Minimization_Converged-OPLS-2005>
0

> <r_mmod_RMS_Derivative-OPLS-2005>
2.33131957054138

$$$$
20
                    3D
 Structure written by MMmdl.
157165  0  0  1  0            999 V2000
  -30.6879  -14.5730   20.5527 C   0  0  0  0  0  0
  -30.4205  -12.3645   19.4491 C   0  0  0  0  0  0
  -29.4967  -12.5123   18.2202 C   0  0  0  0  0  0
  -28.0201  -12.3564   18.6317 C   0  0  0  0  0  0
  -27.6524  -13.2181   19.8681 C   0  0  2  0  0  0
  -28.6946  -13.0596   20.9968 C   0  0  0  0  0  0
  -25.2550  -13.8187   20.5707 C   0  0  0  0  0  0
  -24.1816  -13.0446   20.9181 C   0  0  0  0  0  0
  -24.6390  -11.6915   20.8745 C   0  0  0  0  0  0
  -23.9068  -10.4295   21.0418 C   0  0  0  0  0  0
  -24.3621   -9.4212   21.9195 C   0  0  0  0  0  0
  -23.6297   -8.2250   22.0761 C   0  0  0  0  0  0
  -22.4281   -8.0291   21.3550 C   0  0  0  0  0  0
  -21.9921   -9.0261   20.4652 C   0  0  0  0  0  0
  -22.7246  -10.2138   20.3059 C   0  0  0  0  0  0
  -21.6854   -6.0750   22.5286 C   0  0  0  0  0  0
  -21.4018   -6.5648   23.8224 C   0  0  0  0  0  0
  -21.3653   -5.6795   24.9179 C   0  0  0  0  0  0
  -21.6039   -4.3060   24.7228 C   0  0  0  0  0  0
  -21.8816   -3.8157   23.4347 C   0  0  0  0  0  0
  -21.9196   -4.6978   22.3405 C   0  0  0  0  0  0
  -22.7839  -13.5243   21.1854 C   0  0  0  0  0  0
  -22.1665   -4.2162   21.0987 F   0  0  0  0  0  0
  -21.5624   -3.4541   25.7741 F   0  0  0  0  0  0
  -30.0159  -13.3841   20.4383 N   0  0  0  0  0  0
  -26.2982  -12.9373   20.3353 N   0  0  0  0  0  0
  -25.9320  -11.6519   20.5773 N   0  0  0  0  0  0
  -22.0478  -12.8227   22.0395 N   0  0  0  0  0  0
  -25.4270  -15.1913   20.4141 N   0  0  0  0  0  0
  -31.8282  -14.7021   20.0949 O   0  0  0  0  0  0
  -21.6647   -6.8894   21.4247 O   0  0  0  0  0  0
  -22.3527  -14.5556   20.6712 O   0  0  0  0  0  0
  -24.6232  -31.8617   23.2098 C   0  0  0  0  0  0
  -25.9117  -32.4771   23.8395 C   0  0  1  0  0  0
  -27.1990  -27.3310   20.1065 C   0  0  0  0  0  0
  -25.5958  -33.8573   24.2300 N   0  0  0  0  0  0
  -23.4126  -30.4944   21.5527 C   0  0  2  0  0  0
  -24.8524  -28.9649   20.1069 C   0  0  0  0  0  0
  -22.7455  -29.4620   22.4934 C   0  0  0  0  0  0
  -18.0277  -28.1379   22.8444 C   0  0  0  0  0  0
  -24.1482  -36.7292   23.2634 C   0  0  0  0  0  0
  -25.9576  -30.7949   21.3819 C   0  0  0  0  0  0
  -26.0247  -29.4295   20.7162 C   0  0  0  0  0  0
  -27.2021  -28.6257   20.7090 C   0  0  0  0  0  0
  -26.0059  -26.9347   19.4502 C   0  0  0  0  0  0
  -24.8462  -27.7217   19.4655 C   0  0  0  0  0  0
  -23.6237  -29.8462   20.1616 C   0  0  0  0  0  0
  -25.4102  -36.3065   24.0315 C   0  0  1  0  0  0
  -20.5871  -28.3665   23.1253 C   0  0  2  0  0  0
  -20.6769  -26.9386   22.5381 C   0  0  0  0  0  0
  -19.5764  -26.6372   21.5174 C   0  0  0  0  0  0
  -18.1936  -26.7909   22.1588 C   0  0  0  0  0  0
  -19.1527  -28.8844   23.2840 C   0  0  0  0  0  0
  -18.9472  -30.1459   23.8847 C   0  0  0  0  0  0
  -17.6476  -30.6574   24.0565 C   0  0  0  0  0  0
  -25.9056  -34.9441   23.5090 C   0  0  0  0  0  0
  -16.5364  -29.9069   23.6356 C   0  0  0  0  0  0
  -16.7263  -28.6508   23.0321 C   0  0  0  0  0  0
  -26.4523  -31.6584   25.0767 C   0  0  0  0  0  0
  -25.3746  -31.3730   26.1491 C   0  0  0  0  0  0
  -27.0404  -30.3001   24.6266 C   0  0  0  0  0  0
  -27.6086  -32.4329   25.7526 C   0  0  0  0  0  0
  -27.5568  -37.1791   24.8459 C   0  0  0  0  0  0
  -21.4168  -29.3028   22.3679 N   0  0  0  0  0  0
  -26.4279  -37.3757   23.9403 N   0  0  0  0  0  0
  -24.6832  -31.0657   22.1038 N   0  0  0  0  0  0
  -23.4194  -28.8114   23.2966 O   0  0  0  0  0  0
  -28.2910  -26.4529   20.1862 O   0  0  0  0  0  0
  -26.5612  -34.8899   22.4651 O   0  0  0  0  0  0
  -23.5408  -32.1429   23.7442 O   0  0  0  0  0  0
  -28.6653  -18.8930   21.0952 C   0  0  0  0  0  0
  -29.6727  -18.3401   20.2561 C   0  0  0  0  0  0
  -30.0667  -20.5122   19.4432 C   0  0  0  0  0  0
  -29.0081  -21.0566   20.2253 C   0  0  0  0  0  0
  -30.8172  -21.3349   18.4154 C   0  0  0  0  0  0
  -29.6805  -15.9695   22.2962 C   0  0  0  0  0  0
  -28.3450  -22.4421   19.9133 C   0  0  0  0  0  0
  -29.8306  -16.8191   19.9030 C   0  0  0  0  0  0
  -28.9126  -23.8345   20.4157 C   0  0  0  0  0  0
  -27.9991  -25.0287   19.9274 C   0  0  0  0  0  0
  -28.3490  -20.2291   21.0886 N   0  0  0  0  0  0
  -30.3965  -19.1874   19.4736 N   0  0  0  0  0  0
  -29.9566  -15.6874   20.8855 N   0  0  0  0  0  0
  -31.4660  -12.4593   19.1502 H   0  0  0  0  0  0
  -30.3274  -11.3670   19.8803 H   0  0  0  0  0  0
  -29.7518  -11.7703   17.4626 H   0  0  0  0  0  0
  -29.6483  -13.4885   17.7571 H   0  0  0  0  0  0
  -27.8467  -11.3022   18.8510 H   0  0  0  0  0  0
  -27.3666  -12.6014   17.7938 H   0  0  0  0  0  0
  -27.6770  -14.2574   19.5402 H   0  0  0  0  0  0
  -28.6918  -12.0396   21.3833 H   0  0  0  0  0  0
  -28.4320  -13.6925   21.8437 H   0  0  0  0  0  0
  -25.2762   -9.5698   22.4767 H   0  0  0  0  0  0
  -24.0012   -7.4650   22.7473 H   0  0  0  0  0  0
  -21.0859   -8.8776   19.8951 H   0  0  0  0  0  0
  -22.3711  -10.9681   19.6167 H   0  0  0  0  0  0
  -21.2014   -7.6155   23.9730 H   0  0  0  0  0  0
  -21.1472   -6.0528   25.9084 H   0  0  0  0  0  0
  -22.0602   -2.7620   23.2847 H   0  0  0  0  0  0
  -22.4092  -11.9882   22.4773 H   0  0  0  0  0  0
  -21.1095  -13.1255   22.2604 H   0  0  0  0  0  0
  -24.6591  -15.8457   20.5230 H   0  0  0  0  0  0
  -26.2849  -15.6334   20.1104 H   0  0  0  0  0  0
  -26.7178  -32.5438   23.1137 H   0  0  0  0  0  0
  -25.0156  -33.9745   25.0469 H   0  0  0  0  0  0
  -22.7046  -31.3144   21.4185 H   0  0  0  0  0  0
  -23.3732  -35.9640   23.3304 H   0  0  0  0  0  0
  -24.3554  -36.8909   22.2051 H   0  0  0  0  0  0
  -23.7281  -37.6507   23.6662 H   0  0  0  0  0  0
  -26.0976  -31.5608   20.6172 H   0  0  0  0  0  0
  -26.8358  -30.8298   22.0161 H   0  0  0  0  0  0
  -28.0991  -28.9739   21.2014 H   0  0  0  0  0  0
  -25.9189  -25.9959   18.9227 H   0  0  0  0  0  0
  -23.9509  -27.3632   18.9764 H   0  0  0  0  0  0
  -23.7444  -30.6342   19.4176 H   0  0  0  0  0  0
  -22.7414  -29.2838   19.8499 H   0  0  0  0  0  0
  -25.1270  -36.1912   25.0803 H   0  0  0  0  0  0
  -20.9954  -28.3249   24.1373 H   0  0  0  0  0  0
  -20.5641  -26.2274   23.3570 H   0  0  0  0  0  0
  -21.6641  -26.7379   22.1197 H   0  0  0  0  0  0
  -19.6923  -25.6273   21.1231 H   0  0  0  0  0  0
  -19.6731  -27.3168   20.6691 H   0  0  0  0  0  0
  -17.4182  -26.6612   21.4009 H   0  0  0  0  0  0
  -18.0364  -26.0046   22.8993 H   0  0  0  0  0  0
  -19.7960  -30.7305   24.2137 H   0  0  0  0  0  0
  -17.5038  -31.6234   24.5193 H   0  0  0  0  0  0
  -15.5375  -30.2975   23.7707 H   0  0  0  0  0  0
  -15.8650  -28.0872   22.6996 H   0  0  0  0  0  0
  -24.5919  -30.7070   25.7842 H   0  0  0  0  0  0
  -24.8956  -32.2912   26.4909 H   0  0  0  0  0  0
  -25.8064  -30.8932   27.0280 H   0  0  0  0  0  0
  -26.3022  -29.6722   24.1277 H   0  0  0  0  0  0
  -27.4082  -29.7278   25.4799 H   0  0  0  0  0  0
  -27.8873  -30.4278   23.9514 H   0  0  0  0  0  0
  -27.2701  -33.3631   26.2089 H   0  0  0  0  0  0
  -28.3912  -32.6881   25.0369 H   0  0  0  0  0  0
  -28.0741  -31.8471   26.5469 H   0  0  0  0  0  0
  -28.2556  -38.0113   24.7501 H   0  0  0  0  0  0
  -28.1085  -36.2638   24.6264 H   0  0  0  0  0  0
  -27.2288  -37.1412   25.8863 H   0  0  0  0  0  0
  -20.9331  -29.8818   21.6957 H   0  0  0  0  0  0
  -26.0150  -38.2807   24.1456 H   0  0  0  0  0  0
  -28.0351  -18.2554   21.6969 H   0  0  0  0  0  0
  -30.3510  -21.2209   17.4366 H   0  0  0  0  0  0
  -31.8535  -21.0046   18.3385 H   0  0  0  0  0  0
  -30.8241  -22.3943   18.6656 H   0  0  0  0  0  0
  -28.6133  -16.1308   22.4507 H   0  0  0  0  0  0
  -30.2219  -16.8534   22.6342 H   0  0  0  0  0  0
  -29.9805  -15.1445   22.9477 H   0  0  0  0  0  0
  -27.3094  -22.3712   20.2525 H   0  0  0  0  0  0
  -28.2620  -22.4950   18.8267 H   0  0  0  0  0  0
  -30.6627  -16.7547   19.1986 H   0  0  0  0  0  0
  -28.9560  -16.5755   19.2993 H   0  0  0  0  0  0
  -29.9279  -23.9856   20.0523 H   0  0  0  0  0  0
  -28.9635  -23.8370   21.5044 H   0  0  0  0  0  0
  -27.0264  -24.7939   20.3626 H   0  0  0  0  0  0
  -27.8932  -24.9265   18.8465 H   0  0  0  0  0  0
  1 25  1  0  0  0
  1 30  2  0  0  0
  1 83  1  0  0  0
  2  3  1  0  0  0
  2 25  1  0  0  0
  2 84  1  0  0  0
  2 85  1  0  0  0
  3  4  1  0  0  0
  3 86  1  0  0  0
  3 87  1  0  0  0
  4  5  1  0  0  0
  4 88  1  0  0  0
  4 89  1  0  0  0
  5  6  1  0  0  0
  5 26  1  0  0  0
  5 90  1  0  0  0
  6 25  1  0  0  0
  6 91  1  0  0  0
  6 92  1  0  0  0
  7  8  2  0  0  0
  7 26  1  0  0  0
  7 29  1  0  0  0
  8  9  1  0  0  0
  8 22  1  0  0  0
  9 10  1  0  0  0
  9 27  2  0  0  0
 10 11  2  0  0  0
 10 15  1  0  0  0
 11 12  1  0  0  0
 11 93  1  0  0  0
 12 13  2  0  0  0
 12 94  1  0  0  0
 13 14  1  0  0  0
 13 31  1  0  0  0
 14 15  2  0  0  0
 14 95  1  0  0  0
 15 96  1  0  0  0
 16 17  2  0  0  0
 16 21  1  0  0  0
 16 31  1  0  0  0
 17 18  1  0  0  0
 17 97  1  0  0  0
 18 19  2  0  0  0
 18 98  1  0  0  0
 19 20  1  0  0  0
 19 24  1  0  0  0
 20 21  2  0  0  0
 20 99  1  0  0  0
 21 23  1  0  0  0
 22 28  1  0  0  0
 22 32  2  0  0  0
 26 27  1  0  0  0
 28100  1  0  0  0
 28101  1  0  0  0
 29102  1  0  0  0
 29103  1  0  0  0
 33 34  1  0  0  0
 33 66  1  0  0  0
 33 70  2  0  0  0
 34 36  1  0  0  0
 34 59  1  0  0  0
 34104  1  0  0  0
 35 44  2  0  0  0
 35 45  1  0  0  0
 35 68  1  0  0  0
 36 56  1  0  0  0
 36105  1  0  0  0
 37 39  1  0  0  0
 37 47  1  0  0  0
 37 66  1  0  0  0
 37106  1  0  0  0
 38 43  2  0  0  0
 38 46  1  0  0  0
 38 47  1  0  0  0
 39 64  1  0  0  0
 39 67  2  0  0  0
 40 52  1  0  0  0
 40 53  2  0  0  0
 40 58  1  0  0  0
 41107  1  0  0  0
 41108  1  0  0  0
 41109  1  0  0  0
 41 48  1  0  0  0
 42 43  1  0  0  0
 42 66  1  0  0  0
 42110  1  0  0  0
 42111  1  0  0  0
 43 44  1  0  0  0
 44112  1  0  0  0
 45 46  2  0  0  0
 45113  1  0  0  0
 46114  1  0  0  0
 47115  1  0  0  0
 47116  1  0  0  0
 48 56  1  0  0  0
 48 65  1  0  0  0
 48117  1  0  0  0
 49 50  1  0  0  0
 49 53  1  0  0  0
 49 64  1  0  0  0
 49118  1  0  0  0
 50 51  1  0  0  0
 50119  1  0  0  0
 50120  1  0  0  0
 51 52  1  0  0  0
 51121  1  0  0  0
 51122  1  0  0  0
 52123  1  0  0  0
 52124  1  0  0  0
 53 54  1  0  0  0
 54 55  2  0  0  0
 54125  1  0  0  0
 55 57  1  0  0  0
 55126  1  0  0  0
 56 69  2  0  0  0
 57 58  2  0  0  0
 57127  1  0  0  0
 58128  1  0  0  0
 59 60  1  0  0  0
 59 61  1  0  0  0
 59 62  1  0  0  0
 60129  1  0  0  0
 60130  1  0  0  0
 60131  1  0  0  0
 61132  1  0  0  0
 61133  1  0  0  0
 61134  1  0  0  0
 62135  1  0  0  0
 62136  1  0  0  0
 62137  1  0  0  0
 63 65  1  0  0  0
 63138  1  0  0  0
 63139  1  0  0  0
 63140  1  0  0  0
 64141  1  0  0  0
 65142  1  0  0  0
 68 80  1  0  0  0
 71 72  2  0  0  0
 71 81  1  0  0  0
 71143  1  0  0  0
 72 78  1  0  0  0
 72 82  1  0  0  0
 73 74  1  0  0  0
 73 75  1  0  0  0
 73 82  2  0  0  0
 74 77  1  0  0  0
 74 81  2  0  0  0
 75144  1  0  0  0
 75145  1  0  0  0
 75146  1  0  0  0
 76 83  1  0  0  0
 76147  1  0  0  0
 76148  1  0  0  0
 76149  1  0  0  0
 77 79  1  0  0  0
 77150  1  0  0  0
 77151  1  0  0  0
 78 83  1  0  0  0
 78152  1  0  0  0
 78153  1  0  0  0
 79 80  1  0  0  0
 79154  1  0  0  0
 79155  1  0  0  0
 80156  1  0  0  0
 80157  1  0  0  0
M  ISO  4   1 100  68 101  80 101  83 100
M  END
> <chiral flag>
0

> <version>
0

> <s_m_source_file>
/data/baiqing/PycharmProjects/Reinvent-master-3.2/result/LINK_invent/BTK/process_docking_weight1_custom_sum_contain_oxygen_bond_distance_aromatic_linkinvent_7_9_3/rearranged_h_0055.sdf

> <i_m_source_file_index>
21

> <r_mmod_Potential_Energy-OPLS-2005>
208.960632324219

> <r_mmod_Stretch_Energy-OPLS-2005>
74.475471496582

> <r_mmod_Bend_Energy-OPLS-2005>
155.072540283203

> <r_mmod_Torsional_Energy-OPLS-2005>
278.699157714844

> <r_mmod_Improper_Torsional_Energy-OPLS-2005>
12.880560874939

> <r_mmod_Van_der_Waal_Energy-OPLS-2005>
158.636260986328

> <r_mmod_Electrostatic_Energy-OPLS-2005>
-294.962554931641

> <r_mmod_Solvation_Energy-OPLS-2005>
-216.426895141602

> <b_mmod_Minimization_Converged-OPLS-2005>
0

> <r_mmod_RMS_Derivative-OPLS-2005>
2.77459406852722

$$$$
21
                    3D
 Structure written by MMmdl.
148156  0  0  1  0            999 V2000
  -30.4188  -15.3635   20.3539 C   0  0  0  0  0  0
  -30.4330  -12.8780   19.5404 C   0  0  0  0  0  0
  -29.5388  -12.5930   18.3057 C   0  0  0  0  0  0
  -28.0948  -12.2939   18.7389 C   0  0  0  0  0  0
  -27.6071  -13.2848   19.8236 C   0  0  2  0  0  0
  -28.6343  -13.5165   20.9545 C   0  0  0  0  0  0
  -25.2364  -13.8260   20.5788 C   0  0  0  0  0  0
  -24.1723  -13.0444   20.9276 C   0  0  0  0  0  0
  -24.6390  -11.6944   20.8771 C   0  0  0  0  0  0
  -23.9085  -10.4297   21.0409 C   0  0  0  0  0  0
  -24.3633   -9.4215   21.9191 C   0  0  0  0  0  0
  -23.6309   -8.2246   22.0757 C   0  0  0  0  0  0
  -22.4290   -8.0284   21.3545 C   0  0  0  0  0  0
  -21.9927   -9.0258   20.4650 C   0  0  0  0  0  0
  -22.7255  -10.2135   20.3064 C   0  0  0  0  0  0
  -21.6855   -6.0745   22.5284 C   0  0  0  0  0  0
  -21.4018   -6.5653   23.8216 C   0  0  0  0  0  0
  -21.3658   -5.6806   24.9179 C   0  0  0  0  0  0
  -21.6038   -4.3067   24.7228 C   0  0  0  0  0  0
  -21.8814   -3.8156   23.4351 C   0  0  0  0  0  0
  -21.9194   -4.6971   22.3408 C   0  0  0  0  0  0
  -22.7743  -13.5186   21.1917 C   0  0  0  0  0  0
  -22.1666   -4.2158   21.0985 F   0  0  0  0  0  0
  -21.5621   -3.4551   25.7741 F   0  0  0  0  0  0
  -29.8569  -14.0434   20.3217 N   0  0  0  0  0  0
  -26.2799  -12.9550   20.3257 N   0  0  0  0  0  0
  -25.9328  -11.6641   20.5737 N   0  0  0  0  0  0
  -22.0414  -12.8161   22.0472 N   0  0  0  0  0  0
  -25.3996  -15.1992   20.4234 N   0  0  0  0  0  0
  -31.6391  -15.3347   20.1295 O   0  0  0  0  0  0
  -21.6654   -6.8883   21.4242 O   0  0  0  0  0  0
  -22.3426  -14.5493   20.6767 O   0  0  0  0  0  0
  -24.6678  -31.8175   23.1647 C   0  0  0  0  0  0
  -25.9333  -32.4563   23.8119 C   0  0  1  0  0  0
  -27.2253  -26.8741   20.1893 C   0  0  0  0  0  0
  -25.5990  -33.8374   24.2028 N   0  0  0  0  0  0
  -23.4875  -30.4281   21.5129 C   0  0  2  0  0  0
  -24.9448  -28.8062   20.1072 C   0  0  0  0  0  0
  -22.7709  -29.4410   22.4725 C   0  0  0  0  0  0
  -18.0339  -28.1424   22.8478 C   0  0  0  0  0  0
  -24.1497  -36.7192   23.2648 C   0  0  0  0  0  0
  -26.0592  -30.6078   21.4024 C   0  0  0  0  0  0
  -26.1271  -29.1916   20.7501 C   0  0  0  0  0  0
  -27.2579  -28.2466   20.7688 C   0  0  0  0  0  0
  -26.0174  -26.6628   19.4831 C   0  0  0  0  0  0
  -24.9196  -27.5649   19.4510 C   0  0  0  0  0  0
  -23.7331  -29.7407   20.1402 C   0  0  0  0  0  0
  -25.4138  -36.2952   24.0294 C   0  0  1  0  0  0
  -20.5972  -28.3772   23.1180 C   0  0  2  0  0  0
  -20.6818  -26.9445   22.5413 C   0  0  0  0  0  0
  -19.5787  -26.6380   21.5232 C   0  0  0  0  0  0
  -18.1965  -26.7961   22.1628 C   0  0  0  0  0  0
  -19.1605  -28.8914   23.2817 C   0  0  0  0  0  0
  -18.9513  -30.1497   23.8859 C   0  0  0  0  0  0
  -17.6506  -30.6612   24.0564 C   0  0  0  0  0  0
  -25.9104  -34.9338   23.4976 C   0  0  0  0  0  0
  -16.5392  -29.9108   23.6344 C   0  0  0  0  0  0
  -16.7322  -28.6524   23.0366 C   0  0  0  0  0  0
  -26.4566  -31.6530   25.0670 C   0  0  0  0  0  0
  -25.3685  -31.3814   26.1316 C   0  0  0  0  0  0
  -27.0457  -30.2894   24.6435 C   0  0  0  0  0  0
  -27.6050  -32.4347   25.7470 C   0  0  0  0  0  0
  -27.5560  -37.1757   24.8466 C   0  0  0  0  0  0
  -21.4366  -29.3043   22.3502 N   0  0  0  0  0  0
  -26.4269  -37.3694   23.9414 N   0  0  0  0  0  0
  -24.7597  -30.9794   22.0806 N   0  0  0  0  0  0
  -23.4231  -28.7975   23.2979 O   0  0  0  0  0  0
  -28.1982  -25.7249   20.3104 O   0  0  0  0  0  0
  -26.5706  -34.8891   22.4570 O   0  0  0  0  0  0
  -23.5732  -32.1149   23.6717 O   0  0  0  0  0  0
  -28.9331  -21.1531   19.6428 C   0  0  0  0  0  0
  -28.8717  -21.9612   21.6090 C   0  0  0  0  0  0
  -28.6296  -22.4944   20.3526 C   0  0  0  0  0  0
  -29.3092  -19.9363   20.3816 C   0  0  0  0  0  0
  -29.5809  -19.8825   22.8772 C   0  0  0  0  0  0
  -27.9821  -24.1205   19.8872 C   0  0  0  0  0  0
  -29.9982  -18.3056   20.0989 C   0  0  0  0  0  0
  -29.2529  -20.5695   21.6406 N   0  0  0  0  0  0
  -29.6804  -16.6739   20.4314 N   0  0  0  0  0  0
  -31.4490  -13.0855   19.2013 H   0  0  0  0  0  0
  -30.5164  -11.9918   20.1719 H   0  0  0  0  0  0
  -29.9394  -11.7575   17.7294 H   0  0  0  0  0  0
  -29.5488  -13.4593   17.6424 H   0  0  0  0  0  0
  -28.0734  -11.2786   19.1380 H   0  0  0  0  0  0
  -27.4245  -12.2989   17.8797 H   0  0  0  0  0  0
  -27.5050  -14.2360   19.2993 H   0  0  0  0  0  0
  -28.8236  -12.6061   21.5241 H   0  0  0  0  0  0
  -28.2506  -14.2519   21.6641 H   0  0  0  0  0  0
  -25.2764   -9.5702   22.4782 H   0  0  0  0  0  0
  -24.0020   -7.4638   22.7474 H   0  0  0  0  0  0
  -21.0859   -8.8768   19.8956 H   0  0  0  0  0  0
  -22.3696  -10.9679   19.6186 H   0  0  0  0  0  0
  -21.2014   -7.6161   23.9720 H   0  0  0  0  0  0
  -21.1483   -6.0540   25.9079 H   0  0  0  0  0  0
  -22.0588   -2.7620   23.2851 H   0  0  0  0  0  0
  -22.4057  -11.9819   22.4825 H   0  0  0  0  0  0
  -21.1034  -13.1164   22.2720 H   0  0  0  0  0  0
  -24.6266  -15.8468   20.5349 H   0  0  0  0  0  0
  -26.2394  -15.6414   20.0740 H   0  0  0  0  0  0
  -26.7399  -32.5083   23.0824 H   0  0  0  0  0  0
  -25.0136  -33.9444   25.0182 H   0  0  0  0  0  0
  -22.8028  -31.2600   21.3359 H   0  0  0  0  0  0
  -23.3760  -35.9522   23.3295 H   0  0  0  0  0  0
  -24.3576  -36.8855   22.2063 H   0  0  0  0  0  0
  -23.7269  -37.6382   23.6711 H   0  0  0  0  0  0
  -26.2429  -31.3457   20.6202 H   0  0  0  0  0  0
  -26.9165  -30.6679   22.0600 H   0  0  0  0  0  0
  -28.1463  -28.5409   21.3102 H   0  0  0  0  0  0
  -25.8761  -25.7184   18.9797 H   0  0  0  0  0  0
  -24.0245  -27.2673   18.9217 H   0  0  0  0  0  0
  -23.8975  -30.5080   19.3825 H   0  0  0  0  0  0
  -22.8422  -29.2008   19.8152 H   0  0  0  0  0  0
  -25.1350  -36.1716   25.0789 H   0  0  0  0  0  0
  -21.0071  -28.3387   24.1296 H   0  0  0  0  0  0
  -20.5707  -26.2393   23.3659 H   0  0  0  0  0  0
  -21.6683  -26.7417   22.1212 H   0  0  0  0  0  0
  -19.6955  -25.6275   21.1296 H   0  0  0  0  0  0
  -19.6742  -27.3166   20.6741 H   0  0  0  0  0  0
  -17.4250  -26.6720   21.4014 H   0  0  0  0  0  0
  -18.0333  -26.0104   22.9023 H   0  0  0  0  0  0
  -19.7986  -30.7326   24.2208 H   0  0  0  0  0  0
  -17.5061  -31.6293   24.5178 H   0  0  0  0  0  0
  -15.5389  -30.3002   23.7692 H   0  0  0  0  0  0
  -15.8720  -28.0832   22.7098 H   0  0  0  0  0  0
  -24.5896  -30.7124   25.7634 H   0  0  0  0  0  0
  -24.8831  -32.3019   26.4555 H   0  0  0  0  0  0
  -25.7901  -30.9112   27.0207 H   0  0  0  0  0  0
  -26.3123  -29.6559   24.1428 H   0  0  0  0  0  0
  -27.3959  -29.7275   25.5099 H   0  0  0  0  0  0
  -27.9083  -30.4059   23.9876 H   0  0  0  0  0  0
  -27.2623  -33.3711   26.1877 H   0  0  0  0  0  0
  -28.3942  -32.6799   25.0354 H   0  0  0  0  0  0
  -28.0618  -31.8581   26.5516 H   0  0  0  0  0  0
  -28.2568  -38.0056   24.7486 H   0  0  0  0  0  0
  -28.1057  -36.2579   24.6316 H   0  0  0  0  0  0
  -27.2273  -37.1437   25.8868 H   0  0  0  0  0  0
  -20.9610  -29.8742   21.6640 H   0  0  0  0  0  0
  -26.0100  -38.2745   24.1425 H   0  0  0  0  0  0
  -28.8875  -21.0993   18.5638 H   0  0  0  0  0  0
  -28.7878  -22.4812   22.5560 H   0  0  0  0  0  0
  -29.2165  -20.4468   23.7356 H   0  0  0  0  0  0
  -30.6617  -19.7713   22.9641 H   0  0  0  0  0  0
  -29.1180  -18.8955   22.8941 H   0  0  0  0  0  0
  -26.9116  -23.9707   20.0267 H   0  0  0  0  0  0
  -28.1050  -24.1360   18.8044 H   0  0  0  0  0  0
  -31.0159  -18.3914   20.4816 H   0  0  0  0  0  0
  -30.1581  -18.2737   19.0212 H   0  0  0  0  0  0
  -28.6997  -16.5222   20.6131 H   0  0  0  0  0  0
  1 25  1  0  0  0
  1 30  2  0  0  0
  1 79  1  0  0  0
  2  3  1  0  0  0
  2 25  1  0  0  0
  2 80  1  0  0  0
  2 81  1  0  0  0
  3  4  1  0  0  0
  3 82  1  0  0  0
  3 83  1  0  0  0
  4  5  1  0  0  0
  4 84  1  0  0  0
  4 85  1  0  0  0
  5  6  1  0  0  0
  5 26  1  0  0  0
  5 86  1  0  0  0
  6 25  1  0  0  0
  6 87  1  0  0  0
  6 88  1  0  0  0
  7  8  2  0  0  0
  7 26  1  0  0  0
  7 29  1  0  0  0
  8  9  1  0  0  0
  8 22  1  0  0  0
  9 10  1  0  0  0
  9 27  2  0  0  0
 10 11  2  0  0  0
 10 15  1  0  0  0
 11 12  1  0  0  0
 11 89  1  0  0  0
 12 13  2  0  0  0
 12 90  1  0  0  0
 13 14  1  0  0  0
 13 31  1  0  0  0
 14 15  2  0  0  0
 14 91  1  0  0  0
 15 92  1  0  0  0
 16 17  2  0  0  0
 16 21  1  0  0  0
 16 31  1  0  0  0
 17 18  1  0  0  0
 17 93  1  0  0  0
 18 19  2  0  0  0
 18 94  1  0  0  0
 19 20  1  0  0  0
 19 24  1  0  0  0
 20 21  2  0  0  0
 20 95  1  0  0  0
 21 23  1  0  0  0
 22 28  1  0  0  0
 22 32  2  0  0  0
 26 27  1  0  0  0
 28 96  1  0  0  0
 28 97  1  0  0  0
 29 98  1  0  0  0
 29 99  1  0  0  0
 33 34  1  0  0  0
 33 66  1  0  0  0
 33 70  2  0  0  0
 34 36  1  0  0  0
 34 59  1  0  0  0
 34100  1  0  0  0
 35 44  2  0  0  0
 35 45  1  0  0  0
 35 68  1  0  0  0
 36 56  1  0  0  0
 36101  1  0  0  0
 37 39  1  0  0  0
 37 47  1  0  0  0
 37 66  1  0  0  0
 37102  1  0  0  0
 38 43  2  0  0  0
 38 46  1  0  0  0
 38 47  1  0  0  0
 39 64  1  0  0  0
 39 67  2  0  0  0
 40 52  1  0  0  0
 40 53  2  0  0  0
 40 58  1  0  0  0
 41103  1  0  0  0
 41104  1  0  0  0
 41105  1  0  0  0
 41 48  1  0  0  0
 42 43  1  0  0  0
 42 66  1  0  0  0
 42106  1  0  0  0
 42107  1  0  0  0
 43 44  1  0  0  0
 44108  1  0  0  0
 45 46  2  0  0  0
 45109  1  0  0  0
 46110  1  0  0  0
 47111  1  0  0  0
 47112  1  0  0  0
 48 56  1  0  0  0
 48 65  1  0  0  0
 48113  1  0  0  0
 49 50  1  0  0  0
 49 53  1  0  0  0
 49 64  1  0  0  0
 49114  1  0  0  0
 50 51  1  0  0  0
 50115  1  0  0  0
 50116  1  0  0  0
 51 52  1  0  0  0
 51117  1  0  0  0
 51118  1  0  0  0
 52119  1  0  0  0
 52120  1  0  0  0
 53 54  1  0  0  0
 54 55  2  0  0  0
 54121  1  0  0  0
 55 57  1  0  0  0
 55122  1  0  0  0
 56 69  2  0  0  0
 57 58  2  0  0  0
 57123  1  0  0  0
 58124  1  0  0  0
 59 60  1  0  0  0
 59 61  1  0  0  0
 59 62  1  0  0  0
 60125  1  0  0  0
 60126  1  0  0  0
 60127  1  0  0  0
 61128  1  0  0  0
 61129  1  0  0  0
 61130  1  0  0  0
 62131  1  0  0  0
 62132  1  0  0  0
 62133  1  0  0  0
 63 65  1  0  0  0
 63134  1  0  0  0
 63135  1  0  0  0
 63136  1  0  0  0
 64137  1  0  0  0
 65138  1  0  0  0
 68 76  1  0  0  0
 71 73  1  0  0  0
 71 74  2  0  0  0
 71139  1  0  0  0
 72 73  2  0  0  0
 72 78  1  0  0  0
 72140  1  0  0  0
 73 76  1  0  0  0
 74 77  1  0  0  0
 74 78  1  0  0  0
 75 78  1  0  0  0
 75141  1  0  0  0
 75142  1  0  0  0
 75143  1  0  0  0
 76144  1  0  0  0
 76145  1  0  0  0
 77 79  1  0  0  0
 77146  1  0  0  0
 77147  1  0  0  0
 79148  1  0  0  0
M  ISO  4   1 100  68 101  76 101  79 100
M  END
> <chiral flag>
0

> <version>
0

> <s_m_source_file>
/data/baiqing/PycharmProjects/Reinvent-master-3.2/result/LINK_invent/BTK/process_docking_weight1_custom_sum_contain_oxygen_bond_distance_aromatic_linkinvent_7_9_3/rearranged_h_0055.sdf

> <i_m_source_file_index>
22

> <r_mmod_Potential_Energy-OPLS-2005>
1432.72131347656

> <r_mmod_Stretch_Energy-OPLS-2005>
663.338256835938

> <r_mmod_Bend_Energy-OPLS-2005>
481.370697021484

> <r_mmod_Torsional_Energy-OPLS-2005>
220.140823364258

> <r_mmod_Improper_Torsional_Energy-OPLS-2005>
6.66515254974365

> <r_mmod_Van_der_Waal_Energy-OPLS-2005>
108.252426147461

> <r_mmod_Electrostatic_Energy-OPLS-2005>
-383.716613769531

> <r_mmod_Solvation_Energy-OPLS-2005>
-225.03125

> <b_mmod_Minimization_Converged-OPLS-2005>
0

> <r_mmod_RMS_Derivative-OPLS-2005>
1.92257845401764

$$$$
22
                    3D
 Structure written by MMmdl.
148156  0  0  1  0            999 V2000
  -30.3890  -15.3915   20.3203 C   0  0  0  0  0  0
  -30.4430  -12.9029   19.4977 C   0  0  0  0  0  0
  -29.5415  -12.5773   18.2797 C   0  0  0  0  0  0
  -28.0958  -12.2814   18.7164 C   0  0  0  0  0  0
  -27.6017  -13.2644   19.8047 C   0  0  2  0  0  0
  -28.6411  -13.5160   20.9180 C   0  0  0  0  0  0
  -25.2389  -13.8181   20.5734 C   0  0  0  0  0  0
  -24.1739  -13.0406   20.9270 C   0  0  0  0  0  0
  -24.6394  -11.6909   20.8779 C   0  0  0  0  0  0
  -23.9083  -10.4295   21.0419 C   0  0  0  0  0  0
  -24.3642   -9.4220   21.9196 C   0  0  0  0  0  0
  -23.6316   -8.2253   22.0756 C   0  0  0  0  0  0
  -22.4294   -8.0295   21.3547 C   0  0  0  0  0  0
  -21.9939   -9.0264   20.4641 C   0  0  0  0  0  0
  -22.7262  -10.2147   20.3056 C   0  0  0  0  0  0
  -21.6862   -6.0748   22.5275 C   0  0  0  0  0  0
  -21.4029   -6.5646   23.8213 C   0  0  0  0  0  0
  -21.3668   -5.6788   24.9167 C   0  0  0  0  0  0
  -21.6038   -4.3050   24.7211 C   0  0  0  0  0  0
  -21.8820   -3.8154   23.4330 C   0  0  0  0  0  0
  -21.9206   -4.6978   22.3394 C   0  0  0  0  0  0
  -22.7768  -13.5196   21.1899 C   0  0  0  0  0  0
  -22.1668   -4.2168   21.0966 F   0  0  0  0  0  0
  -21.5629   -3.4528   25.7722 F   0  0  0  0  0  0
  -29.8407  -14.0640   20.2553 N   0  0  0  0  0  0
  -26.2800  -12.9437   20.3189 N   0  0  0  0  0  0
  -25.9328  -11.6565   20.5710 N   0  0  0  0  0  0
  -22.0391  -12.8218   22.0448 N   0  0  0  0  0  0
  -25.3969  -15.1910   20.4163 N   0  0  0  0  0  0
  -31.6299  -15.3615   20.3134 O   0  0  0  0  0  0
  -21.6650   -6.8898   21.4240 O   0  0  0  0  0  0
  -22.3475  -14.5488   20.6698 O   0  0  0  0  0  0
  -24.6690  -31.8176   23.1650 C   0  0  0  0  0  0
  -25.9336  -32.4561   23.8159 C   0  0  1  0  0  0
  -27.2361  -26.8758   20.1936 C   0  0  0  0  0  0
  -25.5982  -33.8377   24.2069 N   0  0  0  0  0  0
  -23.4886  -30.4251   21.5162 C   0  0  2  0  0  0
  -24.9458  -28.7964   20.1238 C   0  0  0  0  0  0
  -22.7702  -29.4408   22.4765 C   0  0  0  0  0  0
  -18.0328  -28.1410   22.8455 C   0  0  0  0  0  0
  -24.1504  -36.7203   23.2650 C   0  0  0  0  0  0
  -26.0616  -30.6077   21.4032 C   0  0  0  0  0  0
  -26.1331  -29.1894   20.7538 C   0  0  0  0  0  0
  -27.2736  -28.2546   20.7559 C   0  0  0  0  0  0
  -26.0139  -26.6468   19.5206 C   0  0  0  0  0  0
  -24.9136  -27.5456   19.4862 C   0  0  0  0  0  0
  -23.7347  -29.7329   20.1478 C   0  0  0  0  0  0
  -25.4145  -36.2959   24.0301 C   0  0  1  0  0  0
  -20.5958  -28.3763   23.1171 C   0  0  2  0  0  0
  -20.6811  -26.9437   22.5403 C   0  0  0  0  0  0
  -19.5793  -26.6371   21.5213 C   0  0  0  0  0  0
  -18.1967  -26.7940   22.1612 C   0  0  0  0  0  0
  -19.1589  -28.8911   23.2799 C   0  0  0  0  0  0
  -18.9491  -30.1490   23.8852 C   0  0  0  0  0  0
  -17.6482  -30.6596   24.0548 C   0  0  0  0  0  0
  -25.9107  -34.9335   23.5009 C   0  0  0  0  0  0
  -16.5375  -29.9081   23.6334 C   0  0  0  0  0  0
  -16.7308  -28.6500   23.0361 C   0  0  0  0  0  0
  -26.4574  -31.6515   25.0704 C   0  0  0  0  0  0
  -25.3688  -31.3762   26.1346 C   0  0  0  0  0  0
  -27.0471  -30.2880   24.6461 C   0  0  0  0  0  0
  -27.6070  -32.4321   25.7509 C   0  0  0  0  0  0
  -27.5576  -37.1767   24.8465 C   0  0  0  0  0  0
  -21.4365  -29.3040   22.3512 N   0  0  0  0  0  0
  -26.4298  -37.3687   23.9386 N   0  0  0  0  0  0
  -24.7620  -30.9786   22.0821 N   0  0  0  0  0  0
  -23.4210  -28.7987   23.3040 O   0  0  0  0  0  0
  -28.2489  -25.7574   20.1830 O   0  0  0  0  0  0
  -26.5717  -34.8871   22.4613 O   0  0  0  0  0  0
  -23.5736  -32.1170   23.6697 O   0  0  0  0  0  0
  -29.3136  -22.5863   18.6905 C   0  0  0  0  0  0
  -29.7885  -21.3874   18.1194 C   0  0  0  0  0  0
  -28.7871  -22.6069   19.9882 C   0  0  0  0  0  0
  -29.3854  -20.0012   19.9779 C   0  0  0  0  0  0
  -28.6351  -16.5776   19.0638 C   0  0  0  0  0  0
  -28.0294  -24.1270   20.5180 C   0  0  0  0  0  0
  -29.6959  -18.3449   20.5972 C   0  0  0  0  0  0
  -29.8073  -20.1725   18.7227 N   0  0  0  0  0  0
  -28.8688  -21.2366   20.5890 N   0  0  0  0  0  0
  -29.6147  -16.6855   20.1615 N   0  0  0  0  0  0
  -31.4434  -13.1538   19.1431 H   0  0  0  0  0  0
  -30.5674  -12.0309   20.1410 H   0  0  0  0  0  0
  -29.9469  -11.7305   17.7253 H   0  0  0  0  0  0
  -29.5435  -13.4220   17.5899 H   0  0  0  0  0  0
  -28.0679  -11.2613   19.1049 H   0  0  0  0  0  0
  -27.4289  -12.3020   17.8527 H   0  0  0  0  0  0
  -27.4742  -14.1980   19.2669 H   0  0  0  0  0  0
  -28.8535  -12.6078   21.4832 H   0  0  0  0  0  0
  -28.2584  -14.2494   21.6304 H   0  0  0  0  0  0
  -25.2783   -9.5713   22.4783 H   0  0  0  0  0  0
  -24.0019   -7.4658   22.7488 H   0  0  0  0  0  0
  -21.0867   -8.8801   19.8952 H   0  0  0  0  0  0
  -22.3720  -10.9702   19.6175 H   0  0  0  0  0  0
  -21.2010   -7.6153   23.9727 H   0  0  0  0  0  0
  -21.1488   -6.0507   25.9071 H   0  0  0  0  0  0
  -22.0592   -2.7618   23.2809 H   0  0  0  0  0  0
  -22.3990  -11.9895   22.4875 H   0  0  0  0  0  0
  -21.1004  -13.1263   22.2613 H   0  0  0  0  0  0
  -24.6139  -15.8289   20.5075 H   0  0  0  0  0  0
  -26.2328  -15.6365   20.0666 H   0  0  0  0  0  0
  -26.7421  -32.5097   23.0882 H   0  0  0  0  0  0
  -25.0078  -33.9455   25.0187 H   0  0  0  0  0  0
  -22.8052  -31.2579   21.3368 H   0  0  0  0  0  0
  -23.3764  -35.9535   23.3306 H   0  0  0  0  0  0
  -24.3577  -36.8852   22.2066 H   0  0  0  0  0  0
  -23.7272  -37.6395   23.6711 H   0  0  0  0  0  0
  -26.2447  -31.3412   20.6171 H   0  0  0  0  0  0
  -26.9207  -30.6735   22.0599 H   0  0  0  0  0  0
  -28.1796  -28.5641   21.2589 H   0  0  0  0  0  0
  -25.8874  -25.6968   19.0199 H   0  0  0  0  0  0
  -24.0157  -27.2371   18.9687 H   0  0  0  0  0  0
  -23.8990  -30.4973   19.3872 H   0  0  0  0  0  0
  -22.8444  -29.1901   19.8264 H   0  0  0  0  0  0
  -25.1350  -36.1768   25.0795 H   0  0  0  0  0  0
  -21.0044  -28.3379   24.1299 H   0  0  0  0  0  0
  -20.5688  -26.2383   23.3645 H   0  0  0  0  0  0
  -21.6672  -26.7409   22.1210 H   0  0  0  0  0  0
  -19.6949  -25.6266   21.1286 H   0  0  0  0  0  0
  -19.6741  -27.3142   20.6714 H   0  0  0  0  0  0
  -17.4237  -26.6672   21.4014 H   0  0  0  0  0  0
  -18.0363  -26.0099   22.9030 H   0  0  0  0  0  0
  -19.7967  -30.7313   24.2213 H   0  0  0  0  0  0
  -17.5033  -31.6274   24.5156 H   0  0  0  0  0  0
  -15.5373  -30.2966   23.7687 H   0  0  0  0  0  0
  -15.8707  -28.0797   22.7112 H   0  0  0  0  0  0
  -24.5889  -30.7104   25.7636 H   0  0  0  0  0  0
  -24.8857  -32.2954   26.4671 H   0  0  0  0  0  0
  -25.7906  -30.8984   27.0199 H   0  0  0  0  0  0
  -26.3141  -29.6537   24.1472 H   0  0  0  0  0  0
  -27.3989  -29.7270   25.5130 H   0  0  0  0  0  0
  -27.9091  -30.4048   23.9891 H   0  0  0  0  0  0
  -27.2657  -33.3666   26.1970 H   0  0  0  0  0  0
  -28.3946  -32.6802   25.0384 H   0  0  0  0  0  0
  -28.0669  -31.8523   26.5520 H   0  0  0  0  0  0
  -28.2584  -38.0069   24.7477 H   0  0  0  0  0  0
  -28.1083  -36.2591   24.6345 H   0  0  0  0  0  0
  -27.2279  -37.1461   25.8865 H   0  0  0  0  0  0
  -20.9630  -29.8722   21.6622 H   0  0  0  0  0  0
  -26.0149  -38.2755   24.1357 H   0  0  0  0  0  0
  -29.3210  -23.4951   18.1021 H   0  0  0  0  0  0
  -30.1710  -21.4008   17.1087 H   0  0  0  0  0  0
  -27.6296  -16.4706   19.4627 H   0  0  0  0  0  0
  -28.8290  -15.7515   18.3781 H   0  0  0  0  0  0
  -28.6380  -17.4693   18.4353 H   0  0  0  0  0  0
  -28.1496  -24.0934   21.6002 H   0  0  0  0  0  0
  -26.9641  -23.9563   20.3675 H   0  0  0  0  0  0
  -28.6071  -18.3223   20.5735 H   0  0  0  0  0  0
  -30.4354  -18.2878   19.8006 H   0  0  0  0  0  0
  1 25  1  0  0  0
  1 30  2  0  0  0
  1 80  1  0  0  0
  2  3  1  0  0  0
  2 25  1  0  0  0
  2 81  1  0  0  0
  2 82  1  0  0  0
  3  4  1  0  0  0
  3 83  1  0  0  0
  3 84  1  0  0  0
  4  5  1  0  0  0
  4 85  1  0  0  0
  4 86  1  0  0  0
  5  6  1  0  0  0
  5 26  1  0  0  0
  5 87  1  0  0  0
  6 25  1  0  0  0
  6 88  1  0  0  0
  6 89  1  0  0  0
  7  8  2  0  0  0
  7 26  1  0  0  0
  7 29  1  0  0  0
  8  9  1  0  0  0
  8 22  1  0  0  0
  9 10  1  0  0  0
  9 27  2  0  0  0
 10 11  2  0  0  0
 10 15  1  0  0  0
 11 12  1  0  0  0
 11 90  1  0  0  0
 12 13  2  0  0  0
 12 91  1  0  0  0
 13 14  1  0  0  0
 13 31  1  0  0  0
 14 15  2  0  0  0
 14 92  1  0  0  0
 15 93  1  0  0  0
 16 17  2  0  0  0
 16 21  1  0  0  0
 16 31  1  0  0  0
 17 18  1  0  0  0
 17 94  1  0  0  0
 18 19  2  0  0  0
 18 95  1  0  0  0
 19 20  1  0  0  0
 19 24  1  0  0  0
 20 21  2  0  0  0
 20 96  1  0  0  0
 21 23  1  0  0  0
 22 28  1  0  0  0
 22 32  2  0  0  0
 26 27  1  0  0  0
 28 97  1  0  0  0
 28 98  1  0  0  0
 29 99  1  0  0  0
 29100  1  0  0  0
 33 34  1  0  0  0
 33 66  1  0  0  0
 33 70  2  0  0  0
 34 36  1  0  0  0
 34 59  1  0  0  0
 34101  1  0  0  0
 35 44  2  0  0  0
 35 45  1  0  0  0
 35 68  1  0  0  0
 36 56  1  0  0  0
 36102  1  0  0  0
 37 39  1  0  0  0
 37 47  1  0  0  0
 37 66  1  0  0  0
 37103  1  0  0  0
 38 43  2  0  0  0
 38 46  1  0  0  0
 38 47  1  0  0  0
 39 64  1  0  0  0
 39 67  2  0  0  0
 40 52  1  0  0  0
 40 53  2  0  0  0
 40 58  1  0  0  0
 41104  1  0  0  0
 41105  1  0  0  0
 41106  1  0  0  0
 41 48  1  0  0  0
 42 43  1  0  0  0
 42 66  1  0  0  0
 42107  1  0  0  0
 42108  1  0  0  0
 43 44  1  0  0  0
 44109  1  0  0  0
 45 46  2  0  0  0
 45110  1  0  0  0
 46111  1  0  0  0
 47112  1  0  0  0
 47113  1  0  0  0
 48 56  1  0  0  0
 48 65  1  0  0  0
 48114  1  0  0  0
 49 50  1  0  0  0
 49 53  1  0  0  0
 49 64  1  0  0  0
 49115  1  0  0  0
 50 51  1  0  0  0
 50116  1  0  0  0
 50117  1  0  0  0
 51 52  1  0  0  0
 51118  1  0  0  0
 51119  1  0  0  0
 52120  1  0  0  0
 52121  1  0  0  0
 53 54  1  0  0  0
 54 55  2  0  0  0
 54122  1  0  0  0
 55 57  1  0  0  0
 55123  1  0  0  0
 56 69  2  0  0  0
 57 58  2  0  0  0
 57124  1  0  0  0
 58125  1  0  0  0
 59 60  1  0  0  0
 59 61  1  0  0  0
 59 62  1  0  0  0
 60126  1  0  0  0
 60127  1  0  0  0
 60128  1  0  0  0
 61129  1  0  0  0
 61130  1  0  0  0
 61131  1  0  0  0
 62132  1  0  0  0
 62133  1  0  0  0
 62134  1  0  0  0
 63 65  1  0  0  0
 63135  1  0  0  0
 63136  1  0  0  0
 63137  1  0  0  0
 64138  1  0  0  0
 65139  1  0  0  0
 68 76  1  0  0  0
 71 72  2  0  0  0
 71 73  1  0  0  0
 71140  1  0  0  0
 72 78  1  0  0  0
 72141  1  0  0  0
 73 76  1  0  0  0
 73 79  2  0  0  0
 74 77  1  0  0  0
 74 78  2  0  0  0
 74 79  1  0  0  0
 75 80  1  0  0  0
 75142  1  0  0  0
 75143  1  0  0  0
 75144  1  0  0  0
 76145  1  0  0  0
 76146  1  0  0  0
 77 80  1  0  0  0
 77147  1  0  0  0
 77148  1  0  0  0
M  ISO  4   1 100  68 101  76 101  80 100
M  END
> <chiral flag>
0

> <version>
0

> <s_m_source_file>
/data/baiqing/PycharmProjects/Reinvent-master-3.2/result/LINK_invent/BTK/process_docking_weight1_custom_sum_contain_oxygen_bond_distance_aromatic_linkinvent_7_9_3/rearranged_h_0055.sdf

> <i_m_source_file_index>
23

> <r_mmod_Potential_Energy-OPLS-2005>
1376.56164550781

> <r_mmod_Stretch_Energy-OPLS-2005>
701.388854980469

> <r_mmod_Bend_Energy-OPLS-2005>
658.885498046875

> <r_mmod_Torsional_Energy-OPLS-2005>
293.632537841797

> <r_mmod_Improper_Torsional_Energy-OPLS-2005>
6.88781452178955

> <r_mmod_Van_der_Waal_Energy-OPLS-2005>
143.256484985352

> <r_mmod_Electrostatic_Energy-OPLS-2005>
-759.992370605469

> <r_mmod_Solvation_Energy-OPLS-2005>
-243.957748413086

> <b_mmod_Minimization_Converged-OPLS-2005>
0

> <r_mmod_RMS_Derivative-OPLS-2005>
2.21065521240234

$$$$
23
                    3D
 Structure written by MMmdl.
158166  0  0  1  0            999 V2000
  -30.5751  -14.8902   20.4673 C   0  0  0  0  0  0
  -30.4339  -12.5571   19.4976 C   0  0  0  0  0  0
  -29.5187  -12.5392   18.2521 C   0  0  0  0  0  0
  -28.0469  -12.3372   18.6579 C   0  0  0  0  0  0
  -27.6336  -13.2441   19.8473 C   0  0  2  0  0  0
  -28.6732  -13.2057   20.9853 C   0  0  0  0  0  0
  -25.2459  -13.8215   20.5692 C   0  0  0  0  0  0
  -24.1769  -13.0442   20.9209 C   0  0  0  0  0  0
  -24.6387  -11.6930   20.8742 C   0  0  0  0  0  0
  -23.9073  -10.4297   21.0405 C   0  0  0  0  0  0
  -24.3631   -9.4206   21.9179 C   0  0  0  0  0  0
  -23.6308   -8.2241   22.0745 C   0  0  0  0  0  0
  -22.4288   -8.0281   21.3541 C   0  0  0  0  0  0
  -21.9925   -9.0251   20.4637 C   0  0  0  0  0  0
  -22.7248  -10.2133   20.3046 C   0  0  0  0  0  0
  -21.6854   -6.0738   22.5284 C   0  0  0  0  0  0
  -21.4013   -6.5641   23.8219 C   0  0  0  0  0  0
  -21.3663   -5.6794   24.9182 C   0  0  0  0  0  0
  -21.6048   -4.3058   24.7232 C   0  0  0  0  0  0
  -21.8819   -3.8147   23.4354 C   0  0  0  0  0  0
  -21.9194   -4.6963   22.3409 C   0  0  0  0  0  0
  -22.7787  -13.5206   21.1883 C   0  0  0  0  0  0
  -22.1651   -4.2146   21.0985 F   0  0  0  0  0  0
  -21.5637   -3.4541   25.7745 F   0  0  0  0  0  0
  -29.9553  -13.6396   20.4075 N   0  0  0  0  0  0
  -26.2886  -12.9441   20.3251 N   0  0  0  0  0  0
  -25.9318  -11.6573   20.5727 N   0  0  0  0  0  0
  -22.0440  -12.8187   22.0443 N   0  0  0  0  0  0
  -25.4166  -15.1939   20.4123 N   0  0  0  0  0  0
  -31.7481  -14.9411   20.0765 O   0  0  0  0  0  0
  -21.6646   -6.8881   21.4245 O   0  0  0  0  0  0
  -22.3455  -14.5507   20.6729 O   0  0  0  0  0  0
  -24.6375  -31.8468   23.1920 C   0  0  0  0  0  0
  -25.9164  -32.4709   23.8283 C   0  0  1  0  0  0
  -27.2161  -27.1847   20.1372 C   0  0  0  0  0  0
  -25.5945  -33.8523   24.2199 N   0  0  0  0  0  0
  -23.4376  -30.4670   21.5374 C   0  0  2  0  0  0
  -24.8860  -28.9048   20.1041 C   0  0  0  0  0  0
  -22.7527  -29.4547   22.4885 C   0  0  0  0  0  0
  -18.0285  -28.1398   22.8461 C   0  0  0  0  0  0
  -24.1496  -36.7268   23.2642 C   0  0  0  0  0  0
  -25.9894  -30.7363   21.3816 C   0  0  0  0  0  0
  -26.0602  -29.3530   20.7209 C   0  0  0  0  0  0
  -27.2264  -28.5081   20.7228 C   0  0  0  0  0  0
  -26.0208  -26.8301   19.4746 C   0  0  0  0  0  0
  -24.8772  -27.6564   19.4643 C   0  0  0  0  0  0
  -23.6580  -29.7991   20.1541 C   0  0  0  0  0  0
  -25.4125  -36.3042   24.0309 C   0  0  1  0  0  0
  -20.5895  -28.3703   23.1258 C   0  0  2  0  0  0
  -20.6787  -26.9416   22.5411 C   0  0  0  0  0  0
  -19.5768  -26.6382   21.5214 C   0  0  0  0  0  0
  -18.1941  -26.7936   22.1611 C   0  0  0  0  0  0
  -19.1540  -28.8869   23.2851 C   0  0  0  0  0  0
  -18.9461  -30.1470   23.8865 C   0  0  0  0  0  0
  -17.6461  -30.6597   24.0559 C   0  0  0  0  0  0
  -25.9067  -34.9416   23.5054 C   0  0  0  0  0  0
  -16.5350  -29.9083   23.6355 C   0  0  0  0  0  0
  -16.7270  -28.6512   23.0350 C   0  0  0  0  0  0
  -26.4514  -31.6565   25.0703 C   0  0  0  0  0  0
  -25.3726  -31.3730   26.1415 C   0  0  0  0  0  0
  -27.0356  -30.2963   24.6253 C   0  0  0  0  0  0
  -27.6057  -32.4322   25.7479 C   0  0  0  0  0  0
  -27.5574  -37.1783   24.8462 C   0  0  0  0  0  0
  -21.4227  -29.3032   22.3630 N   0  0  0  0  0  0
  -26.4286  -37.3755   23.9405 N   0  0  0  0  0  0
  -24.7078  -31.0364   22.0927 N   0  0  0  0  0  0
  -23.4200  -28.8107   23.3029 O   0  0  0  0  0  0
  -28.2861  -26.2360   20.2221 O   0  0  0  0  0  0
  -26.5656  -34.8907   22.4635 O   0  0  0  0  0  0
  -23.5505  -32.1315   23.7174 O   0  0  0  0  0  0
  -30.1116  -21.4150   19.4402 C   0  0  0  0  0  0
  -30.3914  -20.0087   19.3463 C   0  0  0  0  0  0
  -29.1318  -21.9473   20.3242 C   0  0  0  0  0  0
  -29.7263  -19.0128   20.1198 C   0  0  0  0  0  0
  -28.4676  -20.8828   21.0412 C   0  0  0  0  0  0
  -27.9112  -21.2841   23.4868 C   0  0  0  0  0  0
  -29.0747  -16.2949   21.8817 C   0  0  0  0  0  0
  -29.0550  -23.5622   20.6354 C   0  0  0  0  0  0
  -27.3836  -21.2253   22.0482 C   0  0  0  0  0  0
  -30.1234  -17.4318   19.8770 C   0  0  0  0  0  0
  -28.0862  -24.7271   19.9697 C   0  0  0  0  0  0
  -28.7422  -19.5114   20.9389 N   0  0  0  0  0  0
  -29.8492  -16.1027   20.6560 N   0  0  0  0  0  0
  -31.4703  -12.6986   19.1881 H   0  0  0  0  0  0
  -30.4129  -11.5905   20.0031 H   0  0  0  0  0  0
  -29.8306  -11.7504   17.5660 H   0  0  0  0  0  0
  -29.6250  -13.4787   17.7080 H   0  0  0  0  0  0
  -27.9224  -11.2888   18.9322 H   0  0  0  0  0  0
  -27.3915  -12.5087   17.8033 H   0  0  0  0  0  0
  -27.6167  -14.2634   19.4593 H   0  0  0  0  0  0
  -28.7509  -12.1998   21.3995 H   0  0  0  0  0  0
  -28.3549  -13.8300   21.8156 H   0  0  0  0  0  0
  -25.2781   -9.5683   22.4752 H   0  0  0  0  0  0
  -24.0024   -7.4630   22.7459 H   0  0  0  0  0  0
  -21.0858   -8.8766   19.8942 H   0  0  0  0  0  0
  -22.3706  -10.9671   19.6152 H   0  0  0  0  0  0
  -21.1991   -7.6145   23.9725 H   0  0  0  0  0  0
  -21.1485   -6.0521   25.9088 H   0  0  0  0  0  0
  -22.0595   -2.7605   23.2860 H   0  0  0  0  0  0
  -22.4073  -11.9861   22.4838 H   0  0  0  0  0  0
  -21.1039  -13.1175   22.2632 H   0  0  0  0  0  0
  -24.6591  -15.8561   20.5354 H   0  0  0  0  0  0
  -26.2795  -15.6308   20.1145 H   0  0  0  0  0  0
  -26.7228  -32.5313   23.1012 H   0  0  0  0  0  0
  -25.0078  -33.9670   25.0332 H   0  0  0  0  0  0
  -22.7383  -31.2922   21.3888 H   0  0  0  0  0  0
  -23.3764  -35.9593   23.3283 H   0  0  0  0  0  0
  -24.3590  -36.8921   22.2065 H   0  0  0  0  0  0
  -23.7248  -37.6453   23.6695 H   0  0  0  0  0  0
  -26.1387  -31.4953   20.6122 H   0  0  0  0  0  0
  -26.8630  -30.7829   22.0197 H   0  0  0  0  0  0
  -28.1204  -28.8497   21.2240 H   0  0  0  0  0  0
  -25.9377  -25.8790   18.9707 H   0  0  0  0  0  0
  -23.9815  -27.3143   18.9640 H   0  0  0  0  0  0
  -23.7812  -30.5753   19.3981 H   0  0  0  0  0  0
  -22.7750  -29.2335   19.8502 H   0  0  0  0  0  0
  -25.1318  -36.1866   25.0801 H   0  0  0  0  0  0
  -20.9965  -28.3281   24.1386 H   0  0  0  0  0  0
  -20.5710  -26.2298   23.3609 H   0  0  0  0  0  0
  -21.6651  -26.7459   22.1185 H   0  0  0  0  0  0
  -19.6940  -25.6293   21.1244 H   0  0  0  0  0  0
  -19.6729  -27.3190   20.6746 H   0  0  0  0  0  0
  -17.4218  -26.6660   21.4011 H   0  0  0  0  0  0
  -18.0340  -26.0096   22.9024 H   0  0  0  0  0  0
  -19.7941  -30.7298   24.2210 H   0  0  0  0  0  0
  -17.5020  -31.6275   24.5160 H   0  0  0  0  0  0
  -15.5352  -30.2979   23.7720 H   0  0  0  0  0  0
  -15.8660  -28.0841   22.7076 H   0  0  0  0  0  0
  -24.5906  -30.7079   25.7741 H   0  0  0  0  0  0
  -24.8924  -32.2904   26.4827 H   0  0  0  0  0  0
  -25.8033  -30.8910   27.0202 H   0  0  0  0  0  0
  -26.2937  -29.6698   24.1288 H   0  0  0  0  0  0
  -27.4002  -29.7256   25.4808 H   0  0  0  0  0  0
  -27.8844  -30.4201   23.9522 H   0  0  0  0  0  0
  -27.2658  -33.3652   26.1990 H   0  0  0  0  0  0
  -28.3895  -32.6830   25.0316 H   0  0  0  0  0  0
  -28.0690  -31.8484   26.5443 H   0  0  0  0  0  0
  -28.2577  -38.0094   24.7519 H   0  0  0  0  0  0
  -28.1075  -36.2621   24.6267 H   0  0  0  0  0  0
  -27.2290  -37.1409   25.8865 H   0  0  0  0  0  0
  -20.9423  -29.8715   21.6792 H   0  0  0  0  0  0
  -26.0143  -38.2812   24.1437 H   0  0  0  0  0  0
  -30.7056  -22.0948   18.8465 H   0  0  0  0  0  0
  -31.1640  -19.6963   18.6561 H   0  0  0  0  0  0
  -27.1120  -21.5402   24.1818 H   0  0  0  0  0  0
  -28.6939  -22.0359   23.5858 H   0  0  0  0  0  0
  -28.3260  -20.3241   23.7941 H   0  0  0  0  0  0
  -29.2142  -17.2939   22.2927 H   0  0  0  0  0  0
  -29.3836  -15.6055   22.6692 H   0  0  0  0  0  0
  -28.0109  -16.1532   21.6884 H   0  0  0  0  0  0
  -30.0711  -23.9161   20.4613 H   0  0  0  0  0  0
  -28.9376  -23.6516   21.7160 H   0  0  0  0  0  0
  -26.5890  -20.4814   21.9772 H   0  0  0  0  0  0
  -26.9234  -22.1759   21.7798 H   0  0  0  0  0  0
  -31.2058  -17.4580   19.7465 H   0  0  0  0  0  0
  -29.7407  -17.2245   18.8780 H   0  0  0  0  0  0
  -27.0693  -24.4689   20.2634 H   0  0  0  0  0  0
  -28.1212  -24.5994   18.8878 H   0  0  0  0  0  0
  1 25  1  0  0  0
  1 30  2  0  0  0
  1 83  1  0  0  0
  2  3  1  0  0  0
  2 25  1  0  0  0
  2 84  1  0  0  0
  2 85  1  0  0  0
  3  4  1  0  0  0
  3 86  1  0  0  0
  3 87  1  0  0  0
  4  5  1  0  0  0
  4 88  1  0  0  0
  4 89  1  0  0  0
  5  6  1  0  0  0
  5 26  1  0  0  0
  5 90  1  0  0  0
  6 25  1  0  0  0
  6 91  1  0  0  0
  6 92  1  0  0  0
  7  8  2  0  0  0
  7 26  1  0  0  0
  7 29  1  0  0  0
  8  9  1  0  0  0
  8 22  1  0  0  0
  9 10  1  0  0  0
  9 27  2  0  0  0
 10 11  2  0  0  0
 10 15  1  0  0  0
 11 12  1  0  0  0
 11 93  1  0  0  0
 12 13  2  0  0  0
 12 94  1  0  0  0
 13 14  1  0  0  0
 13 31  1  0  0  0
 14 15  2  0  0  0
 14 95  1  0  0  0
 15 96  1  0  0  0
 16 17  2  0  0  0
 16 21  1  0  0  0
 16 31  1  0  0  0
 17 18  1  0  0  0
 17 97  1  0  0  0
 18 19  2  0  0  0
 18 98  1  0  0  0
 19 20  1  0  0  0
 19 24  1  0  0  0
 20 21  2  0  0  0
 20 99  1  0  0  0
 21 23  1  0  0  0
 22 28  1  0  0  0
 22 32  2  0  0  0
 26 27  1  0  0  0
 28100  1  0  0  0
 28101  1  0  0  0
 29102  1  0  0  0
 29103  1  0  0  0
 33 34  1  0  0  0
 33 66  1  0  0  0
 33 70  2  0  0  0
 34 36  1  0  0  0
 34 59  1  0  0  0
 34104  1  0  0  0
 35 44  2  0  0  0
 35 45  1  0  0  0
 35 68  1  0  0  0
 36 56  1  0  0  0
 36105  1  0  0  0
 37 39  1  0  0  0
 37 47  1  0  0  0
 37 66  1  0  0  0
 37106  1  0  0  0
 38 43  2  0  0  0
 38 46  1  0  0  0
 38 47  1  0  0  0
 39 64  1  0  0  0
 39 67  2  0  0  0
 40 52  1  0  0  0
 40 53  2  0  0  0
 40 58  1  0  0  0
 41107  1  0  0  0
 41108  1  0  0  0
 41109  1  0  0  0
 41 48  1  0  0  0
 42 43  1  0  0  0
 42 66  1  0  0  0
 42110  1  0  0  0
 42111  1  0  0  0
 43 44  1  0  0  0
 44112  1  0  0  0
 45 46  2  0  0  0
 45113  1  0  0  0
 46114  1  0  0  0
 47115  1  0  0  0
 47116  1  0  0  0
 48 56  1  0  0  0
 48 65  1  0  0  0
 48117  1  0  0  0
 49 50  1  0  0  0
 49 53  1  0  0  0
 49 64  1  0  0  0
 49118  1  0  0  0
 50 51  1  0  0  0
 50119  1  0  0  0
 50120  1  0  0  0
 51 52  1  0  0  0
 51121  1  0  0  0
 51122  1  0  0  0
 52123  1  0  0  0
 52124  1  0  0  0
 53 54  1  0  0  0
 54 55  2  0  0  0
 54125  1  0  0  0
 55 57  1  0  0  0
 55126  1  0  0  0
 56 69  2  0  0  0
 57 58  2  0  0  0
 57127  1  0  0  0
 58128  1  0  0  0
 59 60  1  0  0  0
 59 61  1  0  0  0
 59 62  1  0  0  0
 60129  1  0  0  0
 60130  1  0  0  0
 60131  1  0  0  0
 61132  1  0  0  0
 61133  1  0  0  0
 61134  1  0  0  0
 62135  1  0  0  0
 62136  1  0  0  0
 62137  1  0  0  0
 63 65  1  0  0  0
 63138  1  0  0  0
 63139  1  0  0  0
 63140  1  0  0  0
 64141  1  0  0  0
 65142  1  0  0  0
 68 81  1  0  0  0
 71 72  2  0  0  0
 71 73  1  0  0  0
 71143  1  0  0  0
 72 74  1  0  0  0
 72144  1  0  0  0
 73 75  2  0  0  0
 73 78  1  0  0  0
 74 80  1  0  0  0
 74 82  2  0  0  0
 75 79  1  0  0  0
 75 82  1  0  0  0
 76 79  1  0  0  0
 76145  1  0  0  0
 76146  1  0  0  0
 76147  1  0  0  0
 77 83  1  0  0  0
 77148  1  0  0  0
 77149  1  0  0  0
 77150  1  0  0  0
 78 81  1  0  0  0
 78151  1  0  0  0
 78152  1  0  0  0
 79153  1  0  0  0
 79154  1  0  0  0
 80 83  1  0  0  0
 80155  1  0  0  0
 80156  1  0  0  0
 81157  1  0  0  0
 81158  1  0  0  0
M  ISO  4   1 100  68 101  81 101  83 100
M  END
> <chiral flag>
0

> <version>
0

> <s_m_source_file>
/data/baiqing/PycharmProjects/Reinvent-master-3.2/result/LINK_invent/BTK/process_docking_weight1_custom_sum_contain_oxygen_bond_distance_aromatic_linkinvent_7_9_3/rearranged_h_0055.sdf

> <i_m_source_file_index>
24

> <r_mmod_Potential_Energy-OPLS-2005>
277.931121826172

> <r_mmod_Stretch_Energy-OPLS-2005>
203.797348022461

> <r_mmod_Bend_Energy-OPLS-2005>
267.576538085938

> <r_mmod_Torsional_Energy-OPLS-2005>
249.844131469727

> <r_mmod_Improper_Torsional_Energy-OPLS-2005>
10.1543455123901

> <r_mmod_Van_der_Waal_Energy-OPLS-2005>
137.779006958008

> <r_mmod_Electrostatic_Energy-OPLS-2005>
-529.908874511719

> <r_mmod_Solvation_Energy-OPLS-2005>
-207.738204956055

> <b_mmod_Minimization_Converged-OPLS-2005>
0

> <r_mmod_RMS_Derivative-OPLS-2005>
1.77257716655731

$$$$
24
                    3D
 Structure written by MMmdl.
150158  0  0  1  0            999 V2000
  -30.3787  -15.4065   20.3530 C   0  0  0  0  0  0
  -30.4302  -12.9080   19.5513 C   0  0  0  0  0  0
  -29.5431  -12.6145   18.3115 C   0  0  0  0  0  0
  -28.1000  -12.3043   18.7400 C   0  0  0  0  0  0
  -27.6050  -13.2899   19.8269 C   0  0  2  0  0  0
  -28.6279  -13.5208   20.9619 C   0  0  0  0  0  0
  -25.2347  -13.8262   20.5774 C   0  0  0  0  0  0
  -24.1716  -13.0440   20.9264 C   0  0  0  0  0  0
  -24.6390  -11.6943   20.8762 C   0  0  0  0  0  0
  -23.9092  -10.4296   21.0413 C   0  0  0  0  0  0
  -24.3639   -9.4206   21.9193 C   0  0  0  0  0  0
  -23.6305   -8.2242   22.0749 C   0  0  0  0  0  0
  -22.4287   -8.0286   21.3540 C   0  0  0  0  0  0
  -21.9928   -9.0260   20.4644 C   0  0  0  0  0  0
  -22.7257  -10.2140   20.3062 C   0  0  0  0  0  0
  -21.6850   -6.0745   22.5274 C   0  0  0  0  0  0
  -21.4017   -6.5647   23.8210 C   0  0  0  0  0  0
  -21.3664   -5.6798   24.9166 C   0  0  0  0  0  0
  -21.6046   -4.3061   24.7213 C   0  0  0  0  0  0
  -21.8824   -3.8150   23.4334 C   0  0  0  0  0  0
  -21.9193   -4.6970   22.3391 C   0  0  0  0  0  0
  -22.7745  -13.5196   21.1916 C   0  0  0  0  0  0
  -22.1661   -4.2154   21.0969 F   0  0  0  0  0  0
  -21.5623   -3.4546   25.7727 F   0  0  0  0  0  0
  -29.8424  -14.0710   20.3333 N   0  0  0  0  0  0
  -26.2785  -12.9564   20.3248 N   0  0  0  0  0  0
  -25.9334  -11.6656   20.5725 N   0  0  0  0  0  0
  -22.0412  -12.8164   22.0466 N   0  0  0  0  0  0
  -25.3970  -15.1994   20.4223 N   0  0  0  0  0  0
  -31.5965  -15.3876   20.1109 O   0  0  0  0  0  0
  -21.6645   -6.8888   21.4236 O   0  0  0  0  0  0
  -22.3435  -14.5500   20.6750 O   0  0  0  0  0  0
  -24.6708  -31.8150   23.1628 C   0  0  0  0  0  0
  -25.9344  -32.4547   23.8125 C   0  0  1  0  0  0
  -27.2217  -26.8400   20.1914 C   0  0  0  0  0  0
  -25.5975  -33.8359   24.2027 N   0  0  0  0  0  0
  -23.4912  -30.4230   21.5130 C   0  0  2  0  0  0
  -24.9465  -28.7924   20.1066 C   0  0  0  0  0  0
  -22.7696  -29.4408   22.4748 C   0  0  0  0  0  0
  -18.0321  -28.1427   22.8459 C   0  0  0  0  0  0
  -24.1498  -36.7185   23.2652 C   0  0  0  0  0  0
  -26.0632  -30.5910   21.4077 C   0  0  0  0  0  0
  -26.1281  -29.1714   20.7534 C   0  0  0  0  0  0
  -27.2505  -28.2146   20.7775 C   0  0  0  0  0  0
  -26.0185  -26.6424   19.4736 C   0  0  0  0  0  0
  -24.9226  -27.5516   19.4463 C   0  0  0  0  0  0
  -23.7358  -29.7304   20.1419 C   0  0  0  0  0  0
  -25.4140  -36.2950   24.0306 C   0  0  1  0  0  0
  -20.5947  -28.3786   23.1166 C   0  0  2  0  0  0
  -20.6800  -26.9458   22.5414 C   0  0  0  0  0  0
  -19.5778  -26.6387   21.5223 C   0  0  0  0  0  0
  -18.1954  -26.7956   22.1621 C   0  0  0  0  0  0
  -19.1584  -28.8924   23.2799 C   0  0  0  0  0  0
  -18.9492  -30.1506   23.8853 C   0  0  0  0  0  0
  -17.6488  -30.6616   24.0553 C   0  0  0  0  0  0
  -25.9113  -34.9334   23.4998 C   0  0  0  0  0  0
  -16.5375  -29.9107   23.6338 C   0  0  0  0  0  0
  -16.7303  -28.6522   23.0359 C   0  0  0  0  0  0
  -26.4553  -31.6522   25.0691 C   0  0  0  0  0  0
  -25.3653  -31.3793   26.1329 C   0  0  0  0  0  0
  -27.0456  -30.2882   24.6483 C   0  0  0  0  0  0
  -27.6041  -32.4335   25.7485 C   0  0  0  0  0  0
  -27.5569  -37.1754   24.8464 C   0  0  0  0  0  0
  -21.4356  -29.3059   22.3498 N   0  0  0  0  0  0
  -26.4278  -37.3702   23.9408 N   0  0  0  0  0  0
  -24.7641  -30.9724   22.0817 N   0  0  0  0  0  0
  -23.4184  -28.7996   23.3053 O   0  0  0  0  0  0
  -28.1925  -25.6879   20.3569 O   0  0  0  0  0  0
  -26.5740  -34.8888   22.4611 O   0  0  0  0  0  0
  -23.5754  -32.1152   23.6678 O   0  0  0  0  0  0
  -27.2373  -20.8356   21.6089 C   0  0  0  0  0  0
  -28.3973  -22.4276   20.4255 C   0  0  0  0  0  0
  -28.9662  -19.8922   20.4628 C   0  0  0  0  0  0
  -26.0216  -20.5853   22.4777 C   0  0  0  0  0  0
  -29.8555  -18.3717   18.5323 C   0  0  0  0  0  0
  -28.2659  -24.0992   19.7733 C   0  0  0  0  0  0
  -29.8163  -18.3676   20.0666 C   0  0  2  0  0  0
  -27.4131  -22.1273   21.2729 N   0  0  0  0  0  0
  -27.9276  -19.7316   21.2729 N   0  0  0  0  0  0
  -29.1966  -21.2674   20.0076 N   0  0  0  0  0  0
  -29.6167  -16.7111   20.4441 N   0  0  0  0  0  0
  -31.4455  -13.1236   19.2191 H   0  0  0  0  0  0
  -30.5182  -12.0216   20.1818 H   0  0  0  0  0  0
  -29.9518  -11.7851   17.7336 H   0  0  0  0  0  0
  -29.5474  -13.4819   17.6495 H   0  0  0  0  0  0
  -28.0844  -11.2891   19.1384 H   0  0  0  0  0  0
  -27.4314  -12.3091   17.8784 H   0  0  0  0  0  0
  -27.5014  -14.2403   19.3024 H   0  0  0  0  0  0
  -28.8264  -12.6021   21.5165 H   0  0  0  0  0  0
  -28.2420  -14.2387   21.6865 H   0  0  0  0  0  0
  -25.2783   -9.5679   22.4777 H   0  0  0  0  0  0
  -24.0007   -7.4635   22.7476 H   0  0  0  0  0  0
  -21.0852   -8.8791   19.8954 H   0  0  0  0  0  0
  -22.3709  -10.9691   19.6178 H   0  0  0  0  0  0
  -21.2007   -7.6156   23.9709 H   0  0  0  0  0  0
  -21.1487   -6.0528   25.9067 H   0  0  0  0  0  0
  -22.0594   -2.7613   23.2827 H   0  0  0  0  0  0
  -22.4053  -11.9821   22.4834 H   0  0  0  0  0  0
  -21.1030  -13.1173   22.2698 H   0  0  0  0  0  0
  -24.6247  -15.8482   20.5303 H   0  0  0  0  0  0
  -26.2375  -15.6383   20.0704 H   0  0  0  0  0  0
  -26.7416  -32.5061   23.0835 H   0  0  0  0  0  0
  -25.0042  -33.9413   25.0122 H   0  0  0  0  0  0
  -22.8110  -31.2597   21.3361 H   0  0  0  0  0  0
  -23.3790  -35.9487   23.3277 H   0  0  0  0  0  0
  -24.3580  -36.8862   22.2075 H   0  0  0  0  0  0
  -23.7218  -37.6350   23.6724 H   0  0  0  0  0  0
  -26.2527  -31.3260   20.6234 H   0  0  0  0  0  0
  -26.9191  -30.6521   22.0674 H   0  0  0  0  0  0
  -28.1326  -28.4977   21.3345 H   0  0  0  0  0  0
  -25.8741  -25.6965   18.9722 H   0  0  0  0  0  0
  -24.0256  -27.2587   18.9172 H   0  0  0  0  0  0
  -23.8974  -30.4965   19.3832 H   0  0  0  0  0  0
  -22.8425  -29.1895   19.8245 H   0  0  0  0  0  0
  -25.1342  -36.1754   25.0802 H   0  0  0  0  0  0
  -21.0029  -28.3429   24.1288 H   0  0  0  0  0  0
  -20.5678  -26.2421   23.3679 H   0  0  0  0  0  0
  -21.6668  -26.7434   22.1225 H   0  0  0  0  0  0
  -19.6951  -25.6280   21.1298 H   0  0  0  0  0  0
  -19.6715  -27.3167   20.6727 H   0  0  0  0  0  0
  -17.4225  -26.6683   21.4026 H   0  0  0  0  0  0
  -18.0346  -26.0115   22.9032 H   0  0  0  0  0  0
  -19.7974  -30.7323   24.2217 H   0  0  0  0  0  0
  -17.5046  -31.6290   24.5173 H   0  0  0  0  0  0
  -15.5377  -30.2999   23.7700 H   0  0  0  0  0  0
  -15.8694  -28.0834   22.7111 H   0  0  0  0  0  0
  -24.5894  -30.7070   25.7642 H   0  0  0  0  0  0
  -24.8769  -32.2994   26.4563 H   0  0  0  0  0  0
  -25.7878  -30.9106   27.0228 H   0  0  0  0  0  0
  -26.3140  -29.6535   24.1472 H   0  0  0  0  0  0
  -27.3934  -29.7280   25.5170 H   0  0  0  0  0  0
  -27.9101  -30.4045   23.9942 H   0  0  0  0  0  0
  -27.2623  -33.3700   26.1909 H   0  0  0  0  0  0
  -28.3926  -32.6786   25.0355 H   0  0  0  0  0  0
  -28.0620  -31.8553   26.5519 H   0  0  0  0  0  0
  -28.2570  -38.0067   24.7529 H   0  0  0  0  0  0
  -28.1079  -36.2595   24.6274 H   0  0  0  0  0  0
  -27.2283  -37.1382   25.8864 H   0  0  0  0  0  0
  -20.9645  -29.8699   21.6558 H   0  0  0  0  0  0
  -26.0124  -38.2765   24.1414 H   0  0  0  0  0  0
  -25.8014  -19.5219   22.5741 H   0  0  0  0  0  0
  -25.1384  -21.0619   22.0494 H   0  0  0  0  0  0
  -26.1755  -20.9937   23.4754 H   0  0  0  0  0  0
  -30.3275  -19.2829   18.1610 H   0  0  0  0  0  0
  -28.8452  -18.3398   18.1239 H   0  0  0  0  0  0
  -30.4129  -17.5255   18.1323 H   0  0  0  0  0  0
  -29.1213  -24.1443   19.1001 H   0  0  0  0  0  0
  -27.4185  -24.0272   19.0941 H   0  0  0  0  0  0
  -30.8319  -18.5654   20.4100 H   0  0  0  0  0  0
  -28.6566  -16.5491   20.7098 H   0  0  0  0  0  0
  1 25  1  0  0  0
  1 30  2  0  0  0
  1 81  1  0  0  0
  2  3  1  0  0  0
  2 25  1  0  0  0
  2 82  1  0  0  0
  2 83  1  0  0  0
  3  4  1  0  0  0
  3 84  1  0  0  0
  3 85  1  0  0  0
  4  5  1  0  0  0
  4 86  1  0  0  0
  4 87  1  0  0  0
  5  6  1  0  0  0
  5 26  1  0  0  0
  5 88  1  0  0  0
  6 25  1  0  0  0
  6 89  1  0  0  0
  6 90  1  0  0  0
  7  8  2  0  0  0
  7 26  1  0  0  0
  7 29  1  0  0  0
  8  9  1  0  0  0
  8 22  1  0  0  0
  9 10  1  0  0  0
  9 27  2  0  0  0
 10 11  2  0  0  0
 10 15  1  0  0  0
 11 12  1  0  0  0
 11 91  1  0  0  0
 12 13  2  0  0  0
 12 92  1  0  0  0
 13 14  1  0  0  0
 13 31  1  0  0  0
 14 15  2  0  0  0
 14 93  1  0  0  0
 15 94  1  0  0  0
 16 17  2  0  0  0
 16 21  1  0  0  0
 16 31  1  0  0  0
 17 18  1  0  0  0
 17 95  1  0  0  0
 18 19  2  0  0  0
 18 96  1  0  0  0
 19 20  1  0  0  0
 19 24  1  0  0  0
 20 21  2  0  0  0
 20 97  1  0  0  0
 21 23  1  0  0  0
 22 28  1  0  0  0
 22 32  2  0  0  0
 26 27  1  0  0  0
 28 98  1  0  0  0
 28 99  1  0  0  0
 29100  1  0  0  0
 29101  1  0  0  0
 33 34  1  0  0  0
 33 66  1  0  0  0
 33 70  2  0  0  0
 34 36  1  0  0  0
 34 59  1  0  0  0
 34102  1  0  0  0
 35 44  2  0  0  0
 35 45  1  0  0  0
 35 68  1  0  0  0
 36 56  1  0  0  0
 36103  1  0  0  0
 37 39  1  0  0  0
 37 47  1  0  0  0
 37 66  1  0  0  0
 37104  1  0  0  0
 38 43  2  0  0  0
 38 46  1  0  0  0
 38 47  1  0  0  0
 39 64  1  0  0  0
 39 67  2  0  0  0
 40 52  1  0  0  0
 40 53  2  0  0  0
 40 58  1  0  0  0
 41105  1  0  0  0
 41106  1  0  0  0
 41107  1  0  0  0
 41 48  1  0  0  0
 42 43  1  0  0  0
 42 66  1  0  0  0
 42108  1  0  0  0
 42109  1  0  0  0
 43 44  1  0  0  0
 44110  1  0  0  0
 45 46  2  0  0  0
 45111  1  0  0  0
 46112  1  0  0  0
 47113  1  0  0  0
 47114  1  0  0  0
 48 56  1  0  0  0
 48 65  1  0  0  0
 48115  1  0  0  0
 49 50  1  0  0  0
 49 53  1  0  0  0
 49 64  1  0  0  0
 49116  1  0  0  0
 50 51  1  0  0  0
 50117  1  0  0  0
 50118  1  0  0  0
 51 52  1  0  0  0
 51119  1  0  0  0
 51120  1  0  0  0
 52121  1  0  0  0
 52122  1  0  0  0
 53 54  1  0  0  0
 54 55  2  0  0  0
 54123  1  0  0  0
 55 57  1  0  0  0
 55124  1  0  0  0
 56 69  2  0  0  0
 57 58  2  0  0  0
 57125  1  0  0  0
 58126  1  0  0  0
 59 60  1  0  0  0
 59 61  1  0  0  0
 59 62  1  0  0  0
 60127  1  0  0  0
 60128  1  0  0  0
 60129  1  0  0  0
 61130  1  0  0  0
 61131  1  0  0  0
 61132  1  0  0  0
 62133  1  0  0  0
 62134  1  0  0  0
 62135  1  0  0  0
 63 65  1  0  0  0
 63136  1  0  0  0
 63137  1  0  0  0
 63138  1  0  0  0
 64139  1  0  0  0
 65140  1  0  0  0
 68 76  1  0  0  0
 71 74  1  0  0  0
 71 78  2  0  0  0
 71 79  1  0  0  0
 72 76  1  0  0  0
 72 78  1  0  0  0
 72 80  2  0  0  0
 73 77  1  0  0  0
 73 79  2  0  0  0
 73 80  1  0  0  0
 74141  1  0  0  0
 74142  1  0  0  0
 74143  1  0  0  0
 75144  1  0  0  0
 75145  1  0  0  0
 75146  1  0  0  0
 75 77  1  0  0  0
 76147  1  0  0  0
 76148  1  0  0  0
 77 81  1  0  0  0
 77149  1  0  0  0
 81150  1  0  0  0
M  ISO  4   1 100  68 101  76 101  81 100
M  END
> <chiral flag>
0

> <version>
0

> <s_m_source_file>
/data/baiqing/PycharmProjects/Reinvent-master-3.2/result/LINK_invent/BTK/process_docking_weight1_custom_sum_contain_oxygen_bond_distance_aromatic_linkinvent_7_9_3/rearranged_h_0055.sdf

> <i_m_source_file_index>
25

> <r_mmod_Potential_Energy-OPLS-2005>
837.00927734375

> <r_mmod_Stretch_Energy-OPLS-2005>
715.274536132812

> <r_mmod_Bend_Energy-OPLS-2005>
511.257843017578

> <r_mmod_Torsional_Energy-OPLS-2005>
204.488800048828

> <r_mmod_Improper_Torsional_Energy-OPLS-2005>
6.59485912322998

> <r_mmod_Van_der_Waal_Energy-OPLS-2005>
137.926818847656

> <r_mmod_Electrostatic_Energy-OPLS-2005>
-1105.96032714844

> <r_mmod_Solvation_Energy-OPLS-2005>
-248.958557128906

> <b_mmod_Minimization_Converged-OPLS-2005>
0

> <r_mmod_RMS_Derivative-OPLS-2005>
2.32446789741516

$$$$
25
                    3D
 Structure written by MMmdl.
168176  0  0  1  0            999 V2000
  -30.5760  -15.0753   20.2558 C   0  0  0  0  0  0
  -30.4445  -12.6627   19.4641 C   0  0  0  0  0  0
  -29.5231  -12.3679   18.2641 C   0  0  0  0  0  0
  -28.0547  -12.2126   18.7074 C   0  0  0  0  0  0
  -27.6126  -13.2152   19.8048 C   0  0  2  0  0  0
  -28.6760  -13.4220   20.8940 C   0  0  0  0  0  0
  -25.2449  -13.8075   20.5836 C   0  0  0  0  0  0
  -24.1711  -13.0339   20.9196 C   0  0  0  0  0  0
  -24.6330  -11.6840   20.8780 C   0  0  0  0  0  0
  -23.9029  -10.4235   21.0414 C   0  0  0  0  0  0
  -24.3592   -9.4160   21.9187 C   0  0  0  0  0  0
  -23.6269   -8.2202   22.0753 C   0  0  0  0  0  0
  -22.4252   -8.0252   21.3538 C   0  0  0  0  0  0
  -21.9874   -9.0226   20.4647 C   0  0  0  0  0  0
  -22.7207  -10.2095   20.3055 C   0  0  0  0  0  0
  -21.6848   -6.0710   22.5274 C   0  0  0  0  0  0
  -21.4014   -6.5620   23.8205 C   0  0  0  0  0  0
  -21.3659   -5.6779   24.9172 C   0  0  0  0  0  0
  -21.6045   -4.3039   24.7225 C   0  0  0  0  0  0
  -21.8823   -3.8122   23.4349 C   0  0  0  0  0  0
  -21.9194   -4.6939   22.3403 C   0  0  0  0  0  0
  -22.7752  -13.5164   21.1851 C   0  0  0  0  0  0
  -22.1661   -4.2129   21.0983 F   0  0  0  0  0  0
  -21.5631   -3.4523   25.7735 F   0  0  0  0  0  0
  -29.9002  -13.8462   20.1951 N   0  0  0  0  0  0
  -26.2865  -12.9276   20.3340 N   0  0  0  0  0  0
  -25.9271  -11.6454   20.5854 N   0  0  0  0  0  0
  -22.0382  -12.8188   22.0418 N   0  0  0  0  0  0
  -25.4122  -15.1795   20.4529 N   0  0  0  0  0  0
  -31.7816  -14.9030   20.4731 O   0  0  0  0  0  0
  -21.6622   -6.8846   21.4234 O   0  0  0  0  0  0
  -22.3485  -14.5498   20.6712 O   0  0  0  0  0  0
  -24.6429  -31.8434   23.1851 C   0  0  0  0  0  0
  -25.9194  -32.4698   23.8256 C   0  0  1  0  0  0
  -27.2247  -27.1282   20.1756 C   0  0  0  0  0  0
  -25.5930  -33.8499   24.2168 N   0  0  0  0  0  0
  -23.4477  -30.4585   21.5317 C   0  0  2  0  0  0
  -24.8993  -28.8741   20.1206 C   0  0  0  0  0  0
  -22.7567  -29.4538   22.4871 C   0  0  0  0  0  0
  -18.0302  -28.1401   22.8478 C   0  0  0  0  0  0
  -24.1487  -36.7256   23.2646 C   0  0  0  0  0  0
  -26.0030  -30.7160   21.3830 C   0  0  0  0  0  0
  -26.0770  -29.3226   20.7329 C   0  0  0  0  0  0
  -27.2436  -28.4688   20.7343 C   0  0  0  0  0  0
  -26.0193  -26.7705   19.5365 C   0  0  0  0  0  0
  -24.8833  -27.6108   19.5055 C   0  0  0  0  0  0
  -23.6758  -29.7780   20.1553 C   0  0  0  0  0  0
  -25.4121  -36.3034   24.0316 C   0  0  1  0  0  0
  -20.5914  -28.3720   23.1243 C   0  0  2  0  0  0
  -20.6783  -26.9421   22.5410 C   0  0  0  0  0  0
  -19.5758  -26.6381   21.5220 C   0  0  0  0  0  0
  -18.1942  -26.7934   22.1628 C   0  0  0  0  0  0
  -19.1560  -28.8878   23.2849 C   0  0  0  0  0  0
  -18.9475  -30.1472   23.8872 C   0  0  0  0  0  0
  -17.6475  -30.6594   24.0558 C   0  0  0  0  0  0
  -25.9070  -34.9411   23.5054 C   0  0  0  0  0  0
  -16.5366  -29.9085   23.6341 C   0  0  0  0  0  0
  -16.7286  -28.6505   23.0361 C   0  0  0  0  0  0
  -26.4510  -31.6570   25.0700 C   0  0  0  0  0  0
  -25.3687  -31.3774   26.1391 C   0  0  0  0  0  0
  -27.0377  -30.2966   24.6289 C   0  0  0  0  0  0
  -27.6033  -32.4345   25.7491 C   0  0  0  0  0  0
  -27.5574  -37.1783   24.8463 C   0  0  0  0  0  0
  -21.4261  -29.3041   22.3619 N   0  0  0  0  0  0
  -26.4284  -37.3747   23.9409 N   0  0  0  0  0  0
  -24.7180  -31.0281   22.0885 N   0  0  0  0  0  0
  -23.4203  -28.8108   23.3046 O   0  0  0  0  0  0
  -28.2996  -26.1677   20.1668 O   0  0  0  0  0  0
  -26.5674  -34.8909   22.4647 O   0  0  0  0  0  0
  -23.5547  -32.1315   23.7060 O   0  0  0  0  0  0
  -29.1994  -20.2602   20.7412 C   0  0  0  0  0  0
  -29.7420  -18.0568   20.3135 C   0  0  0  0  0  0
  -30.0612  -20.0085   17.4675 C   0  0  0  0  0  0
  -27.0912  -18.0231   18.2535 C   0  0  0  0  0  0
  -31.5346  -16.9617   18.8455 C   0  0  0  0  0  0
  -29.3950  -15.7232   17.2639 C   0  0  0  0  0  0
  -29.2107  -21.9066   20.9424 C   0  0  0  0  0  0
  -28.6103  -23.2105   20.0512 C   0  0  0  0  0  0
  -30.7635  -20.0061   18.8353 C   0  0  0  0  0  0
  -27.6959  -16.7146   18.7872 C   0  0  0  0  0  0
  -28.1715  -24.7124   20.7153 C   0  0  0  0  0  0
  -30.1866  -16.6172   19.5605 C   0  0  1  0  0  0
  -28.5574  -19.4587   21.6112 N   0  0  0  0  0  0
  -28.9168  -18.1133   21.3746 N   0  0  0  0  0  0
  -29.9458  -19.4216   19.8984 N   0  0  0  0  0  0
  -29.1447  -16.5734   18.4593 N   0  3  1  0  0  0
  -31.4585  -12.8397   19.0995 H   0  0  0  0  0  0
  -30.5116  -11.7956   20.1230 H   0  0  0  0  0  0
  -29.8462  -11.4416   17.7877 H   0  0  0  0  0  0
  -29.6348  -13.1150   17.4899 H   0  0  0  0  0  0
  -27.9683  -11.2000   19.1028 H   0  0  0  0  0  0
  -27.3838  -12.2552   17.8483 H   0  0  0  0  0  0
  -27.5183  -14.1514   19.2815 H   0  0  0  0  0  0
  -28.8351  -12.5136   21.4773 H   0  0  0  0  0  0
  -28.3577  -14.1953   21.5937 H   0  0  0  0  0  0
  -25.2733   -9.5652   22.4767 H   0  0  0  0  0  0
  -23.9972   -7.4599   22.7476 H   0  0  0  0  0  0
  -21.0795   -8.8750   19.8971 H   0  0  0  0  0  0
  -22.3658  -10.9640   19.6170 H   0  0  0  0  0  0
  -21.2003   -7.6129   23.9701 H   0  0  0  0  0  0
  -21.1474   -6.0507   25.9073 H   0  0  0  0  0  0
  -22.0604   -2.7588   23.2854 H   0  0  0  0  0  0
  -22.3946  -11.9842   22.4833 H   0  0  0  0  0  0
  -21.1014  -13.1270   22.2601 H   0  0  0  0  0  0
  -24.6245  -15.7589   20.7222 H   0  0  0  0  0  0
  -26.2864  -15.5766   20.7642 H   0  0  0  0  0  0
  -26.7262  -32.5309   23.0990 H   0  0  0  0  0  0
  -25.0018  -33.9613   25.0278 H   0  0  0  0  0  0
  -22.7502  -31.2832   21.3721 H   0  0  0  0  0  0
  -23.3756  -35.9580   23.3294 H   0  0  0  0  0  0
  -24.3569  -36.8906   22.2062 H   0  0  0  0  0  0
  -23.7234  -37.6444   23.6695 H   0  0  0  0  0  0
  -26.1559  -31.4662   20.6058 H   0  0  0  0  0  0
  -26.8743  -30.7724   22.0242 H   0  0  0  0  0  0
  -28.1486  -28.8163   21.2133 H   0  0  0  0  0  0
  -25.9478  -25.7991   19.0683 H   0  0  0  0  0  0
  -23.9840  -27.2597   19.0183 H   0  0  0  0  0  0
  -23.8125  -30.5467   19.3937 H   0  0  0  0  0  0
  -22.7909  -29.2170   19.8489 H   0  0  0  0  0  0
  -25.1312  -36.1862   25.0810 H   0  0  0  0  0  0
  -21.0000  -28.3310   24.1368 H   0  0  0  0  0  0
  -20.5680  -26.2337   23.3632 H   0  0  0  0  0  0
  -21.6653  -26.7431   22.1212 H   0  0  0  0  0  0
  -19.6918  -25.6285   21.1267 H   0  0  0  0  0  0
  -19.6697  -27.3177   20.6740 H   0  0  0  0  0  0
  -17.4211  -26.6681   21.4030 H   0  0  0  0  0  0
  -18.0330  -26.0087   22.9036 H   0  0  0  0  0  0
  -19.7955  -30.7294   24.2234 H   0  0  0  0  0  0
  -17.5031  -31.6272   24.5162 H   0  0  0  0  0  0
  -15.5363  -30.2980   23.7678 H   0  0  0  0  0  0
  -15.8690  -28.0813   22.7094 H   0  0  0  0  0  0
  -24.5857  -30.7136   25.7708 H   0  0  0  0  0  0
  -24.8886  -32.2963   26.4764 H   0  0  0  0  0  0
  -25.7951  -30.8974   27.0206 H   0  0  0  0  0  0
  -26.3001  -29.6694   24.1270 H   0  0  0  0  0  0
  -27.3959  -29.7263   25.4871 H   0  0  0  0  0  0
  -27.8916  -30.4202   23.9627 H   0  0  0  0  0  0
  -27.2611  -33.3664   26.2008 H   0  0  0  0  0  0
  -28.3869  -32.6884   25.0341 H   0  0  0  0  0  0
  -28.0668  -31.8516   26.5460 H   0  0  0  0  0  0
  -28.2584  -38.0087   24.7513 H   0  0  0  0  0  0
  -28.1079  -36.2616   24.6288 H   0  0  0  0  0  0
  -27.2294  -37.1425   25.8867 H   0  0  0  0  0  0
  -20.9481  -29.8731   21.6774 H   0  0  0  0  0  0
  -26.0152  -38.2815   24.1415 H   0  0  0  0  0  0
  -30.6628  -20.5445   16.7326 H   0  0  0  0  0  0
  -29.0964  -20.5148   17.5212 H   0  0  0  0  0  0
  -29.8880  -19.0078   17.0772 H   0  0  0  0  0  0
  -26.0250  -18.0595   18.4812 H   0  0  0  0  0  0
  -27.1893  -18.0998   17.1701 H   0  0  0  0  0  0
  -27.5332  -18.9102   18.7015 H   0  0  0  0  0  0
  -31.4141  -17.6262   17.9972 H   0  0  0  0  0  0
  -32.0420  -16.1017   18.4095 H   0  0  0  0  0  0
  -32.2410  -17.4119   19.5435 H   0  0  0  0  0  0
  -29.3285  -16.3391   16.3671 H   0  0  0  0  0  0
  -28.6394  -14.9487   17.1472 H   0  0  0  0  0  0
  -30.3715  -15.2446   17.2474 H   0  0  0  0  0  0
  -30.2530  -22.1527   21.1455 H   0  0  0  0  0  0
  -28.7426  -22.0405   21.9181 H   0  0  0  0  0  0
  -27.7274  -22.8498   19.5246 H   0  0  0  0  0  0
  -29.3337  -23.4027   19.2590 H   0  0  0  0  0  0
  -30.9731  -21.0436   19.0983 H   0  0  0  0  0  0
  -31.7530  -19.5558   18.8116 H   0  0  0  0  0  0
  -27.1096  -15.9298   18.3137 H   0  0  0  0  0  0
  -27.5166  -16.6110   19.8539 H   0  0  0  0  0  0
  -28.7273  -24.7675   21.6525 H   0  0  0  0  0  0
  -27.1392  -24.6020   21.0493 H   0  0  0  0  0  0
  -29.3191  -17.4871   18.0761 H   0  0  0  0  0  0
  1 25  1  0  0  0
  1 30  2  0  0  0
  1 82  1  0  0  0
  2  3  1  0  0  0
  2 25  1  0  0  0
  2 87  1  0  0  0
  2 88  1  0  0  0
  3  4  1  0  0  0
  3 89  1  0  0  0
  3 90  1  0  0  0
  4  5  1  0  0  0
  4 91  1  0  0  0
  4 92  1  0  0  0
  5  6  1  0  0  0
  5 26  1  0  0  0
  5 93  1  0  0  0
  6 25  1  0  0  0
  6 94  1  0  0  0
  6 95  1  0  0  0
  7  8  2  0  0  0
  7 26  1  0  0  0
  7 29  1  0  0  0
  8  9  1  0  0  0
  8 22  1  0  0  0
  9 10  1  0  0  0
  9 27  2  0  0  0
 10 11  2  0  0  0
 10 15  1  0  0  0
 11 12  1  0  0  0
 11 96  1  0  0  0
 12 13  2  0  0  0
 12 97  1  0  0  0
 13 14  1  0  0  0
 13 31  1  0  0  0
 14 15  2  0  0  0
 14 98  1  0  0  0
 15 99  1  0  0  0
 16 17  2  0  0  0
 16 21  1  0  0  0
 16 31  1  0  0  0
 17 18  1  0  0  0
 17100  1  0  0  0
 18 19  2  0  0  0
 18101  1  0  0  0
 19 20  1  0  0  0
 19 24  1  0  0  0
 20 21  2  0  0  0
 20102  1  0  0  0
 21 23  1  0  0  0
 22 28  1  0  0  0
 22 32  2  0  0  0
 26 27  1  0  0  0
 28103  1  0  0  0
 28104  1  0  0  0
 29105  1  0  0  0
 29106  1  0  0  0
 33 34  1  0  0  0
 33 66  1  0  0  0
 33 70  2  0  0  0
 34 36  1  0  0  0
 34 59  1  0  0  0
 34107  1  0  0  0
 35 44  2  0  0  0
 35 45  1  0  0  0
 35 68  1  0  0  0
 36 56  1  0  0  0
 36108  1  0  0  0
 37 39  1  0  0  0
 37 47  1  0  0  0
 37 66  1  0  0  0
 37109  1  0  0  0
 38 43  2  0  0  0
 38 46  1  0  0  0
 38 47  1  0  0  0
 39 64  1  0  0  0
 39 67  2  0  0  0
 40 52  1  0  0  0
 40 53  2  0  0  0
 40 58  1  0  0  0
 41110  1  0  0  0
 41111  1  0  0  0
 41112  1  0  0  0
 41 48  1  0  0  0
 42 43  1  0  0  0
 42 66  1  0  0  0
 42113  1  0  0  0
 42114  1  0  0  0
 43 44  1  0  0  0
 44115  1  0  0  0
 45 46  2  0  0  0
 45116  1  0  0  0
 46117  1  0  0  0
 47118  1  0  0  0
 47119  1  0  0  0
 48 56  1  0  0  0
 48 65  1  0  0  0
 48120  1  0  0  0
 49 50  1  0  0  0
 49 53  1  0  0  0
 49 64  1  0  0  0
 49121  1  0  0  0
 50 51  1  0  0  0
 50122  1  0  0  0
 50123  1  0  0  0
 51 52  1  0  0  0
 51124  1  0  0  0
 51125  1  0  0  0
 52126  1  0  0  0
 52127  1  0  0  0
 53 54  1  0  0  0
 54 55  2  0  0  0
 54128  1  0  0  0
 55 57  1  0  0  0
 55129  1  0  0  0
 56 69  2  0  0  0
 57 58  2  0  0  0
 57130  1  0  0  0
 58131  1  0  0  0
 59 60  1  0  0  0
 59 61  1  0  0  0
 59 62  1  0  0  0
 60132  1  0  0  0
 60133  1  0  0  0
 60134  1  0  0  0
 61135  1  0  0  0
 61136  1  0  0  0
 61137  1  0  0  0
 62138  1  0  0  0
 62139  1  0  0  0
 62140  1  0  0  0
 63 65  1  0  0  0
 63141  1  0  0  0
 63142  1  0  0  0
 63143  1  0  0  0
 64144  1  0  0  0
 65145  1  0  0  0
 68 81  1  0  0  0
 71 77  1  0  0  0
 71 83  2  0  0  0
 71 85  1  0  0  0
 72 82  1  0  0  0
 72 84  2  0  0  0
 72 85  1  0  0  0
 73 79  1  0  0  0
 73146  1  0  0  0
 73147  1  0  0  0
 73148  1  0  0  0
 74 80  1  0  0  0
 74149  1  0  0  0
 74150  1  0  0  0
 74151  1  0  0  0
 75152  1  0  0  0
 75153  1  0  0  0
 75154  1  0  0  0
 75 82  1  0  0  0
 76155  1  0  0  0
 76156  1  0  0  0
 76157  1  0  0  0
 76 86  1  0  0  0
 77 78  1  0  0  0
 77158  1  0  0  0
 77159  1  0  0  0
 78 81  1  0  0  0
 78160  1  0  0  0
 78161  1  0  0  0
 79 85  1  0  0  0
 79162  1  0  0  0
 79163  1  0  0  0
 80 86  1  0  0  0
 80164  1  0  0  0
 80165  1  0  0  0
 81166  1  0  0  0
 81167  1  0  0  0
 82 86  1  0  0  0
 83 84  1  0  0  0
 86168  1  0  0  0
M  CHG  1  86   1
M  ISO  4   1 100  68 101  81 101  82 100
M  END
> <chiral flag>
0

> <version>
0

> <s_m_source_file>
/data/baiqing/PycharmProjects/Reinvent-master-3.2/result/LINK_invent/BTK/process_docking_weight1_custom_sum_contain_oxygen_bond_distance_aromatic_linkinvent_7_9_3/rearranged_h_0055.sdf

> <i_m_source_file_index>
26

> <r_mmod_Potential_Energy-OPLS-2005>
799.286804199219

> <r_mmod_Stretch_Energy-OPLS-2005>
334.888488769531

> <r_mmod_Bend_Energy-OPLS-2005>
406.789978027344

> <r_mmod_Torsional_Energy-OPLS-2005>
313.673278808594

> <r_mmod_Improper_Torsional_Energy-OPLS-2005>
23.3641700744629

> <r_mmod_Van_der_Waal_Energy-OPLS-2005>
124.136154174805

> <r_mmod_Electrostatic_Energy-OPLS-2005>
-249.765258789062

> <r_mmod_Solvation_Energy-OPLS-2005>
-430.632598876953

> <b_mmod_Minimization_Converged-OPLS-2005>
0

> <r_mmod_RMS_Derivative-OPLS-2005>
1.66895520687103

$$$$
26
                    3D
 Structure written by MMmdl.
161169  0  0  1  0            999 V2000
  -30.6367  -14.7545   20.5450 C   0  0  0  0  0  0
  -30.4310  -12.4791   19.4869 C   0  0  0  0  0  0
  -29.5124  -12.5392   18.2451 C   0  0  0  0  0  0
  -28.0369  -12.3554   18.6480 C   0  0  0  0  0  0
  -27.6441  -13.2377   19.8628 C   0  0  2  0  0  0
  -28.6814  -13.1398   20.9975 C   0  0  0  0  0  0
  -25.2494  -13.8208   20.5738 C   0  0  0  0  0  0
  -24.1797  -13.0428   20.9218 C   0  0  0  0  0  0
  -24.6420  -11.6912   20.8759 C   0  0  0  0  0  0
  -23.9104  -10.4291   21.0408 C   0  0  0  0  0  0
  -24.3656   -9.4202   21.9186 C   0  0  0  0  0  0
  -23.6326   -8.2246   22.0753 C   0  0  0  0  0  0
  -22.4307   -8.0289   21.3550 C   0  0  0  0  0  0
  -21.9959   -9.0266   20.4646 C   0  0  0  0  0  0
  -22.7274  -10.2144   20.3056 C   0  0  0  0  0  0
  -21.6862   -6.0745   22.5291 C   0  0  0  0  0  0
  -21.4019   -6.5648   23.8238 C   0  0  0  0  0  0
  -21.3657   -5.6784   24.9187 C   0  0  0  0  0  0
  -21.6050   -4.3049   24.7231 C   0  0  0  0  0  0
  -21.8813   -3.8154   23.4344 C   0  0  0  0  0  0
  -21.9197   -4.6984   22.3416 C   0  0  0  0  0  0
  -22.7804  -13.5193   21.1859 C   0  0  0  0  0  0
  -22.1646   -4.2171   21.0981 F   0  0  0  0  0  0
  -21.5646   -3.4528   25.7734 F   0  0  0  0  0  0
  -29.9873  -13.5316   20.4421 N   0  0  0  0  0  0
  -26.2939  -12.9430   20.3336 N   0  0  0  0  0  0
  -25.9351  -11.6561   20.5773 N   0  0  0  0  0  0
  -22.0439  -12.8193   22.0425 N   0  0  0  0  0  0
  -25.4151  -15.1940   20.4174 N   0  0  0  0  0  0
  -31.7650  -14.8630   20.0509 O   0  0  0  0  0  0
  -21.6651   -6.8898   21.4257 O   0  0  0  0  0  0
  -22.3472  -14.5478   20.6675 O   0  0  0  0  0  0
  -24.6307  -31.8537   23.1971 C   0  0  0  0  0  0
  -25.9124  -32.4752   23.8325 C   0  0  1  0  0  0
  -27.2208  -27.2543   20.1478 C   0  0  0  0  0  0
  -25.5920  -33.8550   24.2243 N   0  0  0  0  0  0
  -23.4280  -30.4747   21.5383 C   0  0  2  0  0  0
  -24.8815  -28.9160   20.1153 C   0  0  0  0  0  0
  -22.7479  -29.4587   22.4884 C   0  0  0  0  0  0
  -18.0271  -28.1408   22.8460 C   0  0  0  0  0  0
  -24.1496  -36.7281   23.2634 C   0  0  0  0  0  0
  -25.9745  -30.7691   21.3761 C   0  0  0  0  0  0
  -26.0520  -29.3877   20.7231 C   0  0  0  0  0  0
  -27.2295  -28.5699   20.7267 C   0  0  0  0  0  0
  -26.0311  -26.8469   19.5140 C   0  0  0  0  0  0
  -24.8762  -27.6545   19.4978 C   0  0  0  0  0  0
  -23.6513  -29.8040   20.1565 C   0  0  0  0  0  0
  -25.4122  -36.3058   24.0321 C   0  0  1  0  0  0
  -20.5880  -28.3715   23.1258 C   0  0  2  0  0  0
  -20.6782  -26.9425   22.5419 C   0  0  0  0  0  0
  -19.5774  -26.6391   21.5210 C   0  0  0  0  0  0
  -18.1935  -26.7944   22.1599 C   0  0  0  0  0  0
  -19.1528  -28.8871   23.2868 C   0  0  0  0  0  0
  -18.9459  -30.1463   23.8910 C   0  0  0  0  0  0
  -17.6468  -30.6608   24.0551 C   0  0  0  0  0  0
  -25.9059  -34.9432   23.5079 C   0  0  0  0  0  0
  -16.5353  -29.9111   23.6331 C   0  0  0  0  0  0
  -16.7266  -28.6523   23.0349 C   0  0  0  0  0  0
  -26.4515  -31.6573   25.0702 C   0  0  0  0  0  0
  -25.3752  -31.3732   26.1435 C   0  0  0  0  0  0
  -27.0345  -30.2978   24.6188 C   0  0  0  0  0  0
  -27.6082  -32.4306   25.7460 C   0  0  0  0  0  0
  -27.5589  -37.1781   24.8451 C   0  0  0  0  0  0
  -21.4183  -29.3055   22.3639 N   0  0  0  0  0  0
  -26.4284  -37.3778   23.9413 N   0  0  0  0  0  0
  -24.6960  -31.0499   22.0952 N   0  0  0  0  0  0
  -23.4184  -28.8105   23.2971 O   0  0  0  0  0  0
  -28.2961  -26.3392   20.1454 O   0  0  0  0  0  0
  -26.5623  -34.8891   22.4647 O   0  0  0  0  0  0
  -23.5449  -32.1350   23.7269 O   0  0  0  0  0  0
  -29.4603  -22.7082   20.5659 C   0  0  0  0  0  0
  -28.3924  -23.6033   20.4707 C   0  0  0  0  0  0
  -28.9788  -18.9902   22.1911 C   0  0  0  0  0  0
  -29.6659  -19.7978   18.4565 C   0  0  0  0  0  0
  -31.2580  -20.3364   20.2880 C   0  0  0  0  0  0
  -29.6857  -15.8638   22.4654 C   0  0  0  0  0  0
  -28.1655  -25.1005   20.9839 C   0  0  0  0  0  0
  -30.3163  -17.3445   20.5753 C   0  0  0  0  0  0
  -29.3292  -18.6686   20.7244 C   0  0  2  0  0  0
  -29.7721  -20.0675   19.9734 C   0  0  0  0  0  0
  -27.3232  -22.7851   20.0715 N   0  0  0  0  0  0
  -27.6903  -21.5267   19.9231 N   0  0  0  0  0  0
  -29.0124  -21.3983   20.2244 N   0  0  0  0  0  0
  -29.9750  -15.8996   21.0258 N   0  0  0  0  0  0
  -31.4737  -12.6001   19.1887 H   0  0  0  0  0  0
  -30.3776  -11.4947   19.9566 H   0  0  0  0  0  0
  -29.8031  -11.7756   17.5225 H   0  0  0  0  0  0
  -29.6345  -13.5011   17.7441 H   0  0  0  0  0  0
  -27.8883  -11.3019   18.8906 H   0  0  0  0  0  0
  -27.3847  -12.5697   17.7997 H   0  0  0  0  0  0
  -27.6477  -14.2695   19.5112 H   0  0  0  0  0  0
  -28.7298  -12.1229   21.3885 H   0  0  0  0  0  0
  -28.3754  -13.7610   21.8351 H   0  0  0  0  0  0
  -25.2799   -9.5690   22.4753 H   0  0  0  0  0  0
  -24.0042   -7.4637   22.7464 H   0  0  0  0  0  0
  -21.0903   -8.8789   19.8942 H   0  0  0  0  0  0
  -22.3741  -10.9696   19.6173 H   0  0  0  0  0  0
  -21.2010   -7.6152   23.9755 H   0  0  0  0  0  0
  -21.1477   -6.0505   25.9095 H   0  0  0  0  0  0
  -22.0607   -2.7623   23.2834 H   0  0  0  0  0  0
  -22.4040  -11.9863   22.4835 H   0  0  0  0  0  0
  -21.1044  -13.1212   22.2598 H   0  0  0  0  0  0
  -24.6510  -15.8484   20.5498 H   0  0  0  0  0  0
  -26.2770  -15.6435   20.1331 H   0  0  0  0  0  0
  -26.7164  -32.5419   23.1048 H   0  0  0  0  0  0
  -25.0093  -33.9705   25.0400 H   0  0  0  0  0  0
  -22.7250  -31.2961   21.3850 H   0  0  0  0  0  0
  -23.3768  -35.9602   23.3268 H   0  0  0  0  0  0
  -24.3594  -36.8952   22.2055 H   0  0  0  0  0  0
  -23.7235  -37.6462   23.6697 H   0  0  0  0  0  0
  -26.1048  -31.5273   20.6023 H   0  0  0  0  0  0
  -26.8532  -30.8278   22.0071 H   0  0  0  0  0  0
  -28.1275  -28.9246   21.2133 H   0  0  0  0  0  0
  -25.9876  -25.8737   19.0446 H   0  0  0  0  0  0
  -23.9776  -27.2896   19.0207 H   0  0  0  0  0  0
  -23.7758  -30.5774   19.3970 H   0  0  0  0  0  0
  -22.7731  -29.2353   19.8502 H   0  0  0  0  0  0
  -25.1304  -36.1900   25.0817 H   0  0  0  0  0  0
  -20.9970  -28.3326   24.1383 H   0  0  0  0  0  0
  -20.5684  -26.2328   23.3639 H   0  0  0  0  0  0
  -21.6651  -26.7465   22.1214 H   0  0  0  0  0  0
  -19.6955  -25.6300   21.1256 H   0  0  0  0  0  0
  -19.6735  -27.3187   20.6736 H   0  0  0  0  0  0
  -17.4215  -26.6677   21.3992 H   0  0  0  0  0  0
  -18.0325  -26.0089   22.9003 H   0  0  0  0  0  0
  -19.7945  -30.7249   24.2304 H   0  0  0  0  0  0
  -17.5035  -31.6279   24.5164 H   0  0  0  0  0  0
  -15.5369  -30.3026   23.7665 H   0  0  0  0  0  0
  -15.8652  -28.0855   22.7088 H   0  0  0  0  0  0
  -24.5952  -30.7038   25.7785 H   0  0  0  0  0  0
  -24.8910  -32.2899   26.4811 H   0  0  0  0  0  0
  -25.8087  -30.8968   27.0235 H   0  0  0  0  0  0
  -26.2902  -29.6715   24.1244 H   0  0  0  0  0  0
  -27.4046  -29.7262   25.4709 H   0  0  0  0  0  0
  -27.8783  -30.4224   23.9394 H   0  0  0  0  0  0
  -27.2717  -33.3637   26.1986 H   0  0  0  0  0  0
  -28.3920  -32.6815   25.0299 H   0  0  0  0  0  0
  -28.0709  -31.8455   26.5418 H   0  0  0  0  0  0
  -28.2574  -38.0106   24.7523 H   0  0  0  0  0  0
  -28.1114  -36.2638   24.6235 H   0  0  0  0  0  0
  -27.2302  -37.1366   25.8848 H   0  0  0  0  0  0
  -20.9374  -29.8781   21.6836 H   0  0  0  0  0  0
  -26.0158  -38.2842   24.1466 H   0  0  0  0  0  0
  -30.4807  -22.8926   20.8721 H   0  0  0  0  0  0
  -28.4230  -18.1863   22.6688 H   0  0  0  0  0  0
  -28.3381  -19.8690   22.2692 H   0  0  0  0  0  0
  -29.8724  -19.1894   22.7827 H   0  0  0  0  0  0
  -30.3117  -18.9840   18.1315 H   0  0  0  0  0  0
  -29.9418  -20.6776   17.8742 H   0  0  0  0  0  0
  -28.6464  -19.5342   18.1720 H   0  0  0  0  0  0
  -31.8926  -19.4902   20.0325 H   0  0  0  0  0  0
  -31.4058  -20.5539   21.3451 H   0  0  0  0  0  0
  -31.6366  -21.1843   19.7174 H   0  0  0  0  0  0
  -30.0559  -14.9614   22.9572 H   0  0  0  0  0  0
  -28.6119  -15.9181   22.6414 H   0  0  0  0  0  0
  -30.1609  -16.6903   22.9939 H   0  0  0  0  0  0
  -28.8637  -25.2586   21.8065 H   0  0  0  0  0  0
  -27.1924  -25.1320   21.4762 H   0  0  0  0  0  0
  -31.2504  -17.5828   21.0847 H   0  0  0  0  0  0
  -30.5993  -17.2648   19.5252 H   0  0  0  0  0  0
  -28.3808  -18.3764   20.2711 H   0  0  0  0  0  0
  1 25  1  0  0  0
  1 30  2  0  0  0
  1 84  1  0  0  0
  2  3  1  0  0  0
  2 25  1  0  0  0
  2 85  1  0  0  0
  2 86  1  0  0  0
  3  4  1  0  0  0
  3 87  1  0  0  0
  3 88  1  0  0  0
  4  5  1  0  0  0
  4 89  1  0  0  0
  4 90  1  0  0  0
  5  6  1  0  0  0
  5 26  1  0  0  0
  5 91  1  0  0  0
  6 25  1  0  0  0
  6 92  1  0  0  0
  6 93  1  0  0  0
  7  8  2  0  0  0
  7 26  1  0  0  0
  7 29  1  0  0  0
  8  9  1  0  0  0
  8 22  1  0  0  0
  9 10  1  0  0  0
  9 27  2  0  0  0
 10 11  2  0  0  0
 10 15  1  0  0  0
 11 12  1  0  0  0
 11 94  1  0  0  0
 12 13  2  0  0  0
 12 95  1  0  0  0
 13 14  1  0  0  0
 13 31  1  0  0  0
 14 15  2  0  0  0
 14 96  1  0  0  0
 15 97  1  0  0  0
 16 17  2  0  0  0
 16 21  1  0  0  0
 16 31  1  0  0  0
 17 18  1  0  0  0
 17 98  1  0  0  0
 18 19  2  0  0  0
 18 99  1  0  0  0
 19 20  1  0  0  0
 19 24  1  0  0  0
 20 21  2  0  0  0
 20100  1  0  0  0
 21 23  1  0  0  0
 22 28  1  0  0  0
 22 32  2  0  0  0
 26 27  1  0  0  0
 28101  1  0  0  0
 28102  1  0  0  0
 29103  1  0  0  0
 29104  1  0  0  0
 33 34  1  0  0  0
 33 66  1  0  0  0
 33 70  2  0  0  0
 34 36  1  0  0  0
 34 59  1  0  0  0
 34105  1  0  0  0
 35 44  2  0  0  0
 35 45  1  0  0  0
 35 68  1  0  0  0
 36 56  1  0  0  0
 36106  1  0  0  0
 37 39  1  0  0  0
 37 47  1  0  0  0
 37 66  1  0  0  0
 37107  1  0  0  0
 38 43  2  0  0  0
 38 46  1  0  0  0
 38 47  1  0  0  0
 39 64  1  0  0  0
 39 67  2  0  0  0
 40 52  1  0  0  0
 40 53  2  0  0  0
 40 58  1  0  0  0
 41108  1  0  0  0
 41109  1  0  0  0
 41110  1  0  0  0
 41 48  1  0  0  0
 42 43  1  0  0  0
 42 66  1  0  0  0
 42111  1  0  0  0
 42112  1  0  0  0
 43 44  1  0  0  0
 44113  1  0  0  0
 45 46  2  0  0  0
 45114  1  0  0  0
 46115  1  0  0  0
 47116  1  0  0  0
 47117  1  0  0  0
 48 56  1  0  0  0
 48 65  1  0  0  0
 48118  1  0  0  0
 49 50  1  0  0  0
 49 53  1  0  0  0
 49 64  1  0  0  0
 49119  1  0  0  0
 50 51  1  0  0  0
 50120  1  0  0  0
 50121  1  0  0  0
 51 52  1  0  0  0
 51122  1  0  0  0
 51123  1  0  0  0
 52124  1  0  0  0
 52125  1  0  0  0
 53 54  1  0  0  0
 54 55  2  0  0  0
 54126  1  0  0  0
 55 57  1  0  0  0
 55127  1  0  0  0
 56 69  2  0  0  0
 57 58  2  0  0  0
 57128  1  0  0  0
 58129  1  0  0  0
 59 60  1  0  0  0
 59 61  1  0  0  0
 59 62  1  0  0  0
 60130  1  0  0  0
 60131  1  0  0  0
 60132  1  0  0  0
 61133  1  0  0  0
 61134  1  0  0  0
 61135  1  0  0  0
 62136  1  0  0  0
 62137  1  0  0  0
 62138  1  0  0  0
 63 65  1  0  0  0
 63139  1  0  0  0
 63140  1  0  0  0
 63141  1  0  0  0
 64142  1  0  0  0
 65143  1  0  0  0
 68 77  1  0  0  0
 71 72  2  0  0  0
 71 83  1  0  0  0
 71144  1  0  0  0
 72 77  1  0  0  0
 72 81  1  0  0  0
 73145  1  0  0  0
 73146  1  0  0  0
 73147  1  0  0  0
 73 79  1  0  0  0
 74148  1  0  0  0
 74149  1  0  0  0
 74150  1  0  0  0
 74 80  1  0  0  0
 75 80  1  0  0  0
 75151  1  0  0  0
 75152  1  0  0  0
 75153  1  0  0  0
 76 84  1  0  0  0
 76154  1  0  0  0
 76155  1  0  0  0
 76156  1  0  0  0
 77157  1  0  0  0
 77158  1  0  0  0
 78 79  1  0  0  0
 78 84  1  0  0  0
 78159  1  0  0  0
 78160  1  0  0  0
 79 80  1  0  0  0
 79161  1  0  0  0
 80 83  1  0  0  0
 81 82  2  0  0  0
 82 83  1  0  0  0
M  ISO  4   1 100  68 101  77 101  84 100
M  END
> <chiral flag>
0

> <version>
0

> <s_m_source_file>
/data/baiqing/PycharmProjects/Reinvent-master-3.2/result/LINK_invent/BTK/process_docking_weight1_custom_sum_contain_oxygen_bond_distance_aromatic_linkinvent_7_9_3/rearranged_h_0055.sdf

> <i_m_source_file_index>
27

> <r_mmod_Potential_Energy-OPLS-2005>
422.511840820312

> <r_mmod_Stretch_Energy-OPLS-2005>
155.462448120117

> <r_mmod_Bend_Energy-OPLS-2005>
207.645385742188

> <r_mmod_Torsional_Energy-OPLS-2005>
347.031524658203

> <r_mmod_Improper_Torsional_Energy-OPLS-2005>
9.41650104522705

> <r_mmod_Van_der_Waal_Energy-OPLS-2005>
125.579467773438

> <r_mmod_Electrostatic_Energy-OPLS-2005>
-306.024505615234

> <r_mmod_Solvation_Energy-OPLS-2005>
-202.216262817383

> <b_mmod_Minimization_Converged-OPLS-2005>
0

> <r_mmod_RMS_Derivative-OPLS-2005>
2.78417062759399

$$$$
27
                    3D
 Structure written by MMmdl.
147155  0  0  1  0            999 V2000
  -30.3820  -15.4103   20.3685 C   0  0  0  0  0  0
  -30.4368  -12.9202   19.5145 C   0  0  0  0  0  0
  -29.5375  -12.6084   18.2888 C   0  0  0  0  0  0
  -28.0930  -12.3064   18.7219 C   0  0  0  0  0  0
  -27.6030  -13.2894   19.8115 C   0  0  2  0  0  0
  -28.6360  -13.5218   20.9343 C   0  0  0  0  0  0
  -25.2347  -13.8263   20.5740 C   0  0  0  0  0  0
  -24.1727  -13.0433   20.9272 C   0  0  0  0  0  0
  -24.6416  -11.6940   20.8781 C   0  0  0  0  0  0
  -23.9118  -10.4295   21.0417 C   0  0  0  0  0  0
  -24.3658   -9.4202   21.9187 C   0  0  0  0  0  0
  -23.6317   -8.2246   22.0750 C   0  0  0  0  0  0
  -22.4294   -8.0299   21.3543 C   0  0  0  0  0  0
  -21.9945   -9.0274   20.4636 C   0  0  0  0  0  0
  -22.7293  -10.2142   20.3054 C   0  0  0  0  0  0
  -21.6859   -6.0751   22.5279 C   0  0  0  0  0  0
  -21.4018   -6.5645   23.8218 C   0  0  0  0  0  0
  -21.3663   -5.6792   24.9176 C   0  0  0  0  0  0
  -21.6045   -4.3058   24.7216 C   0  0  0  0  0  0
  -21.8821   -3.8156   23.4338 C   0  0  0  0  0  0
  -21.9192   -4.6976   22.3398 C   0  0  0  0  0  0
  -22.7741  -13.5174   21.1918 C   0  0  0  0  0  0
  -22.1661   -4.2164   21.0976 F   0  0  0  0  0  0
  -21.5624   -3.4540   25.7728 F   0  0  0  0  0  0
  -29.8378  -14.0805   20.2864 N   0  0  0  0  0  0
  -26.2788  -12.9561   20.3196 N   0  0  0  0  0  0
  -25.9352  -11.6656   20.5711 N   0  0  0  0  0  0
  -22.0409  -12.8157   22.0480 N   0  0  0  0  0  0
  -25.3946  -15.2005   20.4150 N   0  0  0  0  0  0
  -31.6179  -15.3889   20.2516 O   0  0  0  0  0  0
  -21.6650   -6.8901   21.4245 O   0  0  0  0  0  0
  -22.3411  -14.5476   20.6765 O   0  0  0  0  0  0
  -24.6722  -31.8128   23.1638 C   0  0  0  0  0  0
  -25.9356  -32.4531   23.8140 C   0  0  1  0  0  0
  -27.2202  -26.8151   20.2155 C   0  0  0  0  0  0
  -25.5985  -33.8359   24.2023 N   0  0  0  0  0  0
  -23.4935  -30.4202   21.5152 C   0  0  2  0  0  0
  -24.9488  -28.7819   20.1260 C   0  0  0  0  0  0
  -22.7708  -29.4391   22.4759 C   0  0  0  0  0  0
  -18.0322  -28.1416   22.8452 C   0  0  0  0  0  0
  -24.1498  -36.7193   23.2653 C   0  0  0  0  0  0
  -26.0692  -30.5800   21.4172 C   0  0  0  0  0  0
  -26.1349  -29.1555   20.7706 C   0  0  0  0  0  0
  -27.2622  -28.1976   20.7867 C   0  0  0  0  0  0
  -26.0039  -26.6260   19.5138 C   0  0  0  0  0  0
  -24.9142  -27.5385   19.4753 C   0  0  0  0  0  0
  -23.7420  -29.7248   20.1482 C   0  0  0  0  0  0
  -25.4149  -36.2936   24.0289 C   0  0  1  0  0  0
  -20.5949  -28.3771   23.1161 C   0  0  2  0  0  0
  -20.6793  -26.9443   22.5400 C   0  0  0  0  0  0
  -19.5772  -26.6367   21.5213 C   0  0  0  0  0  0
  -18.1955  -26.7944   22.1618 C   0  0  0  0  0  0
  -19.1586  -28.8918   23.2790 C   0  0  0  0  0  0
  -18.9496  -30.1503   23.8834 C   0  0  0  0  0  0
  -17.6488  -30.6606   24.0541 C   0  0  0  0  0  0
  -25.9104  -34.9318   23.4984 C   0  0  0  0  0  0
  -16.5379  -29.9087   23.6343 C   0  0  0  0  0  0
  -16.7302  -28.6506   23.0363 C   0  0  0  0  0  0
  -26.4573  -31.6533   25.0717 C   0  0  0  0  0  0
  -25.3664  -31.3816   26.1341 C   0  0  0  0  0  0
  -27.0500  -30.2881   24.6566 C   0  0  0  0  0  0
  -27.6015  -32.4391   25.7539 C   0  0  0  0  0  0
  -27.5561  -37.1776   24.8474 C   0  0  0  0  0  0
  -21.4371  -29.3040   22.3501 N   0  0  0  0  0  0
  -26.4296  -37.3672   23.9378 N   0  0  0  0  0  0
  -24.7671  -30.9673   22.0846 N   0  0  0  0  0  0
  -23.4201  -28.7963   23.3047 O   0  0  0  0  0  0
  -28.2283  -25.6753   20.1624 O   0  0  0  0  0  0
  -26.5724  -34.8859   22.4578 O   0  0  0  0  0  0
  -23.5762  -32.1157   23.6646 O   0  0  0  0  0  0
  -27.2456  -22.7342   22.0520 C   0  0  0  0  0  0
  -28.6292  -21.6565   20.5688 C   0  0  0  0  0  0
  -28.0874  -24.1939   20.5292 C   0  0  0  0  0  0
  -26.3625  -22.5649   23.2705 C   0  0  0  0  0  0
  -29.0390  -19.9956   19.9961 C   0  0  0  0  0  0
  -29.7131  -18.4052   20.7040 C   0  0  0  0  0  0
  -27.8311  -21.6017   21.6307 N   0  0  0  0  0  0
  -27.3028  -23.9870   21.5769 N   0  0  0  0  0  0
  -28.7749  -23.0060   19.9954 N   0  0  0  0  0  0
  -29.6011  -16.7100   20.3839 N   0  0  0  0  0  0
  -31.4417  -13.1611   19.1653 H   0  0  0  0  0  0
  -30.5505  -12.0387   20.1485 H   0  0  0  0  0  0
  -29.9427  -11.7738   17.7149 H   0  0  0  0  0  0
  -29.5394  -13.4688   17.6179 H   0  0  0  0  0  0
  -28.0655  -11.2865   19.1058 H   0  0  0  0  0  0
  -27.4244  -12.3273   17.8596 H   0  0  0  0  0  0
  -27.4952  -14.2415   19.2901 H   0  0  0  0  0  0
  -28.8451  -12.6040   21.4861 H   0  0  0  0  0  0
  -28.2524  -14.2406   21.6593 H   0  0  0  0  0  0
  -25.2800   -9.5670   22.4766 H   0  0  0  0  0  0
  -24.0020   -7.4632   22.7470 H   0  0  0  0  0  0
  -21.0872   -8.8808   19.8944 H   0  0  0  0  0  0
  -22.3762  -10.9686   19.6167 H   0  0  0  0  0  0
  -21.2023   -7.6153   23.9726 H   0  0  0  0  0  0
  -21.1478   -6.0521   25.9080 H   0  0  0  0  0  0
  -22.0600   -2.7618   23.2831 H   0  0  0  0  0  0
  -22.4048  -11.9823   22.4855 H   0  0  0  0  0  0
  -21.1016  -13.1149   22.2694 H   0  0  0  0  0  0
  -24.6192  -15.8464   20.5156 H   0  0  0  0  0  0
  -26.2261  -15.6396   20.0427 H   0  0  0  0  0  0
  -26.7429  -32.5031   23.0848 H   0  0  0  0  0  0
  -25.0084  -33.9443   25.0145 H   0  0  0  0  0  0
  -22.8143  -31.2548   21.3328 H   0  0  0  0  0  0
  -23.3748  -35.9537   23.3347 H   0  0  0  0  0  0
  -24.3539  -36.8798   22.2052 H   0  0  0  0  0  0
  -23.7280  -37.6403   23.6690 H   0  0  0  0  0  0
  -26.2619  -31.3119   20.6321 H   0  0  0  0  0  0
  -26.9238  -30.6429   22.0790 H   0  0  0  0  0  0
  -28.1662  -28.4938   21.2997 H   0  0  0  0  0  0
  -25.8664  -25.6841   19.0016 H   0  0  0  0  0  0
  -24.0201  -27.2483   18.9406 H   0  0  0  0  0  0
  -23.9148  -30.4868   19.3877 H   0  0  0  0  0  0
  -22.8494  -29.1863   19.8224 H   0  0  0  0  0  0
  -25.1361  -36.1740   25.0784 H   0  0  0  0  0  0
  -21.0033  -28.3389   24.1286 H   0  0  0  0  0  0
  -20.5655  -26.2407   23.3659 H   0  0  0  0  0  0
  -21.6663  -26.7398   22.1226 H   0  0  0  0  0  0
  -19.6940  -25.6256   21.1299 H   0  0  0  0  0  0
  -19.6709  -27.3127   20.6704 H   0  0  0  0  0  0
  -17.4218  -26.6669   21.4026 H   0  0  0  0  0  0
  -18.0356  -26.0114   22.9045 H   0  0  0  0  0  0
  -19.7977  -30.7326   24.2189 H   0  0  0  0  0  0
  -17.5042  -31.6282   24.5151 H   0  0  0  0  0  0
  -15.5376  -30.2958   23.7722 H   0  0  0  0  0  0
  -15.8704  -28.0796   22.7122 H   0  0  0  0  0  0
  -24.5870  -30.7143   25.7643 H   0  0  0  0  0  0
  -24.8833  -32.3022   26.4617 H   0  0  0  0  0  0
  -25.7868  -30.9077   27.0220 H   0  0  0  0  0  0
  -26.3209  -29.6515   24.1546 H   0  0  0  0  0  0
  -27.3928  -29.7300   25.5293 H   0  0  0  0  0  0
  -27.9178  -30.4015   24.0072 H   0  0  0  0  0  0
  -27.2523  -33.3705   26.2015 H   0  0  0  0  0  0
  -28.3886  -32.6957   25.0435 H   0  0  0  0  0  0
  -28.0637  -31.8617   26.5556 H   0  0  0  0  0  0
  -28.2612  -38.0039   24.7431 H   0  0  0  0  0  0
  -28.1030  -36.2557   24.6435 H   0  0  0  0  0  0
  -27.2255  -37.1567   25.8874 H   0  0  0  0  0  0
  -20.9665  -29.8720   21.6591 H   0  0  0  0  0  0
  -26.0148  -38.2742   24.1322 H   0  0  0  0  0  0
  -26.5732  -23.3348   24.0118 H   0  0  0  0  0  0
  -26.5201  -21.5954   23.7450 H   0  0  0  0  0  0
  -25.3115  -22.6356   22.9923 H   0  0  0  0  0  0
  -29.6727  -20.1906   19.1319 H   0  0  0  0  0  0
  -28.0946  -19.6884   19.5493 H   0  0  0  0  0  0
  -29.3100  -18.4290   21.7171 H   0  0  0  0  0  0
  -30.7768  -18.5872   20.8605 H   0  0  0  0  0  0
  -28.6262  -16.4622   20.2945 H   0  0  0  0  0  0
  1 25  1  0  0  0
  1 30  2  0  0  0
  1 80  1  0  0  0
  2  3  1  0  0  0
  2 25  1  0  0  0
  2 81  1  0  0  0
  2 82  1  0  0  0
  3  4  1  0  0  0
  3 83  1  0  0  0
  3 84  1  0  0  0
  4  5  1  0  0  0
  4 85  1  0  0  0
  4 86  1  0  0  0
  5  6  1  0  0  0
  5 26  1  0  0  0
  5 87  1  0  0  0
  6 25  1  0  0  0
  6 88  1  0  0  0
  6 89  1  0  0  0
  7  8  2  0  0  0
  7 26  1  0  0  0
  7 29  1  0  0  0
  8  9  1  0  0  0
  8 22  1  0  0  0
  9 10  1  0  0  0
  9 27  2  0  0  0
 10 11  2  0  0  0
 10 15  1  0  0  0
 11 12  1  0  0  0
 11 90  1  0  0  0
 12 13  2  0  0  0
 12 91  1  0  0  0
 13 14  1  0  0  0
 13 31  1  0  0  0
 14 15  2  0  0  0
 14 92  1  0  0  0
 15 93  1  0  0  0
 16 17  2  0  0  0
 16 21  1  0  0  0
 16 31  1  0  0  0
 17 18  1  0  0  0
 17 94  1  0  0  0
 18 19  2  0  0  0
 18 95  1  0  0  0
 19 20  1  0  0  0
 19 24  1  0  0  0
 20 21  2  0  0  0
 20 96  1  0  0  0
 21 23  1  0  0  0
 22 28  1  0  0  0
 22 32  2  0  0  0
 26 27  1  0  0  0
 28 97  1  0  0  0
 28 98  1  0  0  0
 29 99  1  0  0  0
 29100  1  0  0  0
 33 34  1  0  0  0
 33 66  1  0  0  0
 33 70  2  0  0  0
 34 36  1  0  0  0
 34 59  1  0  0  0
 34101  1  0  0  0
 35 44  2  0  0  0
 35 45  1  0  0  0
 35 68  1  0  0  0
 36 56  1  0  0  0
 36102  1  0  0  0
 37 39  1  0  0  0
 37 47  1  0  0  0
 37 66  1  0  0  0
 37103  1  0  0  0
 38 43  2  0  0  0
 38 46  1  0  0  0
 38 47  1  0  0  0
 39 64  1  0  0  0
 39 67  2  0  0  0
 40 52  1  0  0  0
 40 53  2  0  0  0
 40 58  1  0  0  0
 41104  1  0  0  0
 41105  1  0  0  0
 41106  1  0  0  0
 41 48  1  0  0  0
 42 43  1  0  0  0
 42 66  1  0  0  0
 42107  1  0  0  0
 42108  1  0  0  0
 43 44  1  0  0  0
 44109  1  0  0  0
 45 46  2  0  0  0
 45110  1  0  0  0
 46111  1  0  0  0
 47112  1  0  0  0
 47113  1  0  0  0
 48 56  1  0  0  0
 48 65  1  0  0  0
 48114  1  0  0  0
 49 50  1  0  0  0
 49 53  1  0  0  0
 49 64  1  0  0  0
 49115  1  0  0  0
 50 51  1  0  0  0
 50116  1  0  0  0
 50117  1  0  0  0
 51 52  1  0  0  0
 51118  1  0  0  0
 51119  1  0  0  0
 52120  1  0  0  0
 52121  1  0  0  0
 53 54  1  0  0  0
 54 55  2  0  0  0
 54122  1  0  0  0
 55 57  1  0  0  0
 55123  1  0  0  0
 56 69  2  0  0  0
 57 58  2  0  0  0
 57124  1  0  0  0
 58125  1  0  0  0
 59 60  1  0  0  0
 59 61  1  0  0  0
 59 62  1  0  0  0
 60126  1  0  0  0
 60127  1  0  0  0
 60128  1  0  0  0
 61129  1  0  0  0
 61130  1  0  0  0
 61131  1  0  0  0
 62132  1  0  0  0
 62133  1  0  0  0
 62134  1  0  0  0
 63 65  1  0  0  0
 63135  1  0  0  0
 63136  1  0  0  0
 63137  1  0  0  0
 64138  1  0  0  0
 65139  1  0  0  0
 68 73  1  0  0  0
 71 74  1  0  0  0
 71 77  2  0  0  0
 71 78  1  0  0  0
 72 75  1  0  0  0
 72 77  1  0  0  0
 72 79  2  0  0  0
 73 78  2  0  0  0
 73 79  1  0  0  0
 74140  1  0  0  0
 74141  1  0  0  0
 74142  1  0  0  0
 75 76  1  0  0  0
 75143  1  0  0  0
 75144  1  0  0  0
 76 80  1  0  0  0
 76145  1  0  0  0
 76146  1  0  0  0
 80147  1  0  0  0
M  ISO  4   1 100  68 101  73 101  80 100
M  END
> <chiral flag>
0

> <version>
0

> <s_m_source_file>
/data/baiqing/PycharmProjects/Reinvent-master-3.2/result/LINK_invent/BTK/process_docking_weight1_custom_sum_contain_oxygen_bond_distance_aromatic_linkinvent_7_9_3/rearranged_h_0055.sdf

> <i_m_source_file_index>
28

> <r_mmod_Potential_Energy-OPLS-2005>
1067.90795898438

> <r_mmod_Stretch_Energy-OPLS-2005>
737.874206542969

> <r_mmod_Bend_Energy-OPLS-2005>
521.708374023438

> <r_mmod_Torsional_Energy-OPLS-2005>
221.473129272461

> <r_mmod_Improper_Torsional_Energy-OPLS-2005>
6.95265626907349

> <r_mmod_Van_der_Waal_Energy-OPLS-2005>
137.619277954102

> <r_mmod_Electrostatic_Energy-OPLS-2005>
-932.19970703125

> <r_mmod_Solvation_Energy-OPLS-2005>
-249.787139892578

> <b_mmod_Minimization_Converged-OPLS-2005>
0

> <r_mmod_RMS_Derivative-OPLS-2005>
1.92347943782806

$$$$
28
                    3D
 Structure written by MMmdl.
148156  0  0  1  0            999 V2000
  -30.4150  -15.4003   20.3463 C   0  0  0  0  0  0
  -30.4389  -12.9149   19.5105 C   0  0  0  0  0  0
  -29.5368  -12.5902   18.2931 C   0  0  0  0  0  0
  -28.0993  -12.2813   18.7420 C   0  0  0  0  0  0
  -27.6047  -13.2836   19.8113 C   0  0  2  0  0  0
  -28.6401  -13.5400   20.9281 C   0  0  0  0  0  0
  -25.2362  -13.8265   20.5734 C   0  0  0  0  0  0
  -24.1737  -13.0452   20.9288 C   0  0  0  0  0  0
  -24.6416  -11.6948   20.8809 C   0  0  0  0  0  0
  -23.9109  -10.4303   21.0433 C   0  0  0  0  0  0
  -24.3652   -9.4209   21.9204 C   0  0  0  0  0  0
  -23.6314   -8.2250   22.0765 C   0  0  0  0  0  0
  -22.4292   -8.0297   21.3551 C   0  0  0  0  0  0
  -21.9942   -9.0279   20.4650 C   0  0  0  0  0  0
  -22.7288  -10.2151   20.3064 C   0  0  0  0  0  0
  -21.6858   -6.0749   22.5288 C   0  0  0  0  0  0
  -21.4015   -6.5646   23.8221 C   0  0  0  0  0  0
  -21.3658   -5.6794   24.9179 C   0  0  0  0  0  0
  -21.6047   -4.3060   24.7224 C   0  0  0  0  0  0
  -21.8816   -3.8157   23.4343 C   0  0  0  0  0  0
  -21.9186   -4.6977   22.3401 C   0  0  0  0  0  0
  -22.7746  -13.5185   21.1919 C   0  0  0  0  0  0
  -22.1657   -4.2164   21.0979 F   0  0  0  0  0  0
  -21.5624   -3.4536   25.7735 F   0  0  0  0  0  0
  -29.8449  -14.0839   20.2700 N   0  0  0  0  0  0
  -26.2806  -12.9558   20.3224 N   0  0  0  0  0  0
  -25.9356  -11.6654   20.5758 N   0  0  0  0  0  0
  -22.0409  -12.8158   22.0470 N   0  0  0  0  0  0
  -25.3943  -15.2000   20.4055 N   0  0  0  0  0  0
  -31.6505  -15.3549   20.2358 O   0  0  0  0  0  0
  -21.6646   -6.8902   21.4249 O   0  0  0  0  0  0
  -22.3412  -14.5478   20.6751 O   0  0  0  0  0  0
  -24.6686  -31.8172   23.1630 C   0  0  0  0  0  0
  -25.9329  -32.4564   23.8124 C   0  0  1  0  0  0
  -27.2331  -26.8533   20.1998 C   0  0  0  0  0  0
  -25.5971  -33.8382   24.2025 N   0  0  0  0  0  0
  -23.4888  -30.4215   21.5153 C   0  0  2  0  0  0
  -24.9477  -28.7914   20.1222 C   0  0  0  0  0  0
  -22.7706  -29.4397   22.4789 C   0  0  0  0  0  0
  -18.0328  -28.1411   22.8455 C   0  0  0  0  0  0
  -24.1503  -36.7201   23.2650 C   0  0  0  0  0  0
  -26.0616  -30.5984   21.4056 C   0  0  0  0  0  0
  -26.1348  -29.1782   20.7569 C   0  0  0  0  0  0
  -27.2707  -28.2352   20.7654 C   0  0  0  0  0  0
  -26.0108  -26.6386   19.5192 C   0  0  0  0  0  0
  -24.9158  -27.5434   19.4815 C   0  0  0  0  0  0
  -23.7354  -29.7255   20.1484 C   0  0  0  0  0  0
  -25.4145  -36.2958   24.0295 C   0  0  1  0  0  0
  -20.5949  -28.3761   23.1184 C   0  0  2  0  0  0
  -20.6810  -26.9445   22.5401 C   0  0  0  0  0  0
  -19.5786  -26.6375   21.5216 C   0  0  0  0  0  0
  -18.1963  -26.7936   22.1617 C   0  0  0  0  0  0
  -19.1589  -28.8907   23.2801 C   0  0  0  0  0  0
  -18.9505  -30.1495   23.8842 C   0  0  0  0  0  0
  -17.6499  -30.6603   24.0546 C   0  0  0  0  0  0
  -25.9107  -34.9341   23.4990 C   0  0  0  0  0  0
  -16.5384  -29.9090   23.6342 C   0  0  0  0  0  0
  -16.7311  -28.6507   23.0363 C   0  0  0  0  0  0
  -26.4552  -31.6531   25.0678 C   0  0  0  0  0  0
  -25.3636  -31.3816   26.1306 C   0  0  0  0  0  0
  -27.0463  -30.2891   24.6458 C   0  0  0  0  0  0
  -27.6040  -32.4346   25.7478 C   0  0  0  0  0  0
  -27.5569  -37.1766   24.8467 C   0  0  0  0  0  0
  -21.4365  -29.3048   22.3540 N   0  0  0  0  0  0
  -26.4287  -37.3696   23.9397 N   0  0  0  0  0  0
  -24.7615  -30.9748   22.0820 N   0  0  0  0  0  0
  -23.4217  -28.8001   23.3088 O   0  0  0  0  0  0
  -28.2311  -25.7132   20.2209 O   0  0  0  0  0  0
  -26.5732  -34.8881   22.4595 O   0  0  0  0  0  0
  -23.5738  -32.1183   23.6671 O   0  0  0  0  0  0
  -29.5512  -22.0876   19.0529 C   0  0  0  0  0  0
  -28.7625  -22.5050   20.1192 C   0  0  0  0  0  0
  -29.4211  -20.0143   20.1776 C   0  0  0  0  0  0
  -30.7543  -20.0501   18.1121 C   0  0  0  0  0  0
  -27.9263  -24.0650   20.4140 C   0  0  0  0  0  0
  -29.9794  -18.3684   20.6742 C   0  0  0  0  0  0
  -29.8982  -20.7068   19.1043 N   0  0  0  0  0  0
  -28.7382  -21.1477   20.7750 N   0  3  0  0  0  0
  -29.6778  -16.7185   20.3494 N   0  0  0  0  0  0
  -31.4439  -13.1480   19.1555 H   0  0  0  0  0  0
  -30.5533  -12.0432   20.1571 H   0  0  0  0  0  0
  -29.9452  -11.7503   17.7296 H   0  0  0  0  0  0
  -29.5286  -13.4450   17.6143 H   0  0  0  0  0  0
  -28.0939  -11.2724   19.1570 H   0  0  0  0  0  0
  -27.4242  -12.2621   17.8861 H   0  0  0  0  0  0
  -27.4916  -14.2239   19.2705 H   0  0  0  0  0  0
  -28.8518  -12.6369   21.5019 H   0  0  0  0  0  0
  -28.2533  -14.2753   21.6365 H   0  0  0  0  0  0
  -25.2806   -9.5668   22.4765 H   0  0  0  0  0  0
  -24.0031   -7.4624   22.7462 H   0  0  0  0  0  0
  -21.0887   -8.8808   19.8931 H   0  0  0  0  0  0
  -22.3783  -10.9693   19.6157 H   0  0  0  0  0  0
  -21.2020   -7.6158   23.9729 H   0  0  0  0  0  0
  -21.1478   -6.0524   25.9082 H   0  0  0  0  0  0
  -22.0596   -2.7617   23.2840 H   0  0  0  0  0  0
  -22.4061  -11.9845   22.4873 H   0  0  0  0  0  0
  -21.1012  -13.1138   22.2659 H   0  0  0  0  0  0
  -24.6091  -15.8380   20.4806 H   0  0  0  0  0  0
  -26.2148  -15.6343   20.0050 H   0  0  0  0  0  0
  -26.7399  -32.5077   23.0835 H   0  0  0  0  0  0
  -25.0040  -33.9458   25.0125 H   0  0  0  0  0  0
  -22.8053  -31.2537   21.3336 H   0  0  0  0  0  0
  -23.3774  -35.9525   23.3294 H   0  0  0  0  0  0
  -24.3572  -36.8862   22.2067 H   0  0  0  0  0  0
  -23.7260  -37.6385   23.6719 H   0  0  0  0  0  0
  -26.2431  -31.3319   20.6182 H   0  0  0  0  0  0
  -26.9208  -30.6654   22.0617 H   0  0  0  0  0  0
  -28.1700  -28.5391   21.2828 H   0  0  0  0  0  0
  -25.8667  -25.6920   19.0197 H   0  0  0  0  0  0
  -24.0152  -27.2390   18.9654 H   0  0  0  0  0  0
  -23.9018  -30.4861   19.3856 H   0  0  0  0  0  0
  -22.8433  -29.1824   19.8298 H   0  0  0  0  0  0
  -25.1356  -36.1747   25.0791 H   0  0  0  0  0  0
  -21.0016  -28.3364   24.1319 H   0  0  0  0  0  0
  -20.5709  -26.2385   23.3647 H   0  0  0  0  0  0
  -21.6669  -26.7440   22.1202 H   0  0  0  0  0  0
  -19.6964  -25.6279   21.1282 H   0  0  0  0  0  0
  -19.6719  -27.3152   20.6721 H   0  0  0  0  0  0
  -17.4239  -26.6670   21.4021 H   0  0  0  0  0  0
  -18.0364  -26.0096   22.9033 H   0  0  0  0  0  0
  -19.7984  -30.7316   24.2193 H   0  0  0  0  0  0
  -17.5057  -31.6281   24.5161 H   0  0  0  0  0  0
  -15.5384  -30.2980   23.7710 H   0  0  0  0  0  0
  -15.8705  -28.0811   22.7122 H   0  0  0  0  0  0
  -24.5838  -30.7155   25.7589 H   0  0  0  0  0  0
  -24.8792  -32.3030   26.4552 H   0  0  0  0  0  0
  -25.7806  -30.9083   27.0200 H   0  0  0  0  0  0
  -26.3149  -29.6541   24.1441 H   0  0  0  0  0  0
  -27.3962  -29.7286   25.5134 H   0  0  0  0  0  0
  -27.9095  -30.4071   23.9903 H   0  0  0  0  0  0
  -27.2626  -33.3714   26.1896 H   0  0  0  0  0  0
  -28.3924  -32.6794   25.0348 H   0  0  0  0  0  0
  -28.0622  -31.8566   26.5515 H   0  0  0  0  0  0
  -28.2585  -38.0063   24.7493 H   0  0  0  0  0  0
  -28.1066  -36.2585   24.6329 H   0  0  0  0  0  0
  -27.2271  -37.1446   25.8866 H   0  0  0  0  0  0
  -20.9664  -29.8712   21.6614 H   0  0  0  0  0  0
  -26.0133  -38.2759   24.1379 H   0  0  0  0  0  0
  -29.8932  -22.6969   18.2272 H   0  0  0  0  0  0
  -30.3259  -19.0851   17.8414 H   0  0  0  0  0  0
  -31.7516  -19.9078   18.5291 H   0  0  0  0  0  0
  -30.8281  -20.6698   17.2167 H   0  0  0  0  0  0
  -27.6361  -24.0142   21.4637 H   0  0  0  0  0  0
  -26.9805  -23.9319   19.8923 H   0  0  0  0  0  0
  -31.0544  -18.4468   20.5138 H   0  0  0  0  0  0
  -29.8854  -18.4283   21.7571 H   0  0  0  0  0  0
  -28.2634  -21.0282   21.6614 H   0  0  0  0  0  0
  -28.6849  -16.5515   20.2781 H   0  0  0  0  0  0
  1 25  1  0  0  0
  1 30  2  0  0  0
  1 79  1  0  0  0
  2  3  1  0  0  0
  2 25  1  0  0  0
  2 80  1  0  0  0
  2 81  1  0  0  0
  3  4  1  0  0  0
  3 82  1  0  0  0
  3 83  1  0  0  0
  4  5  1  0  0  0
  4 84  1  0  0  0
  4 85  1  0  0  0
  5  6  1  0  0  0
  5 26  1  0  0  0
  5 86  1  0  0  0
  6 25  1  0  0  0
  6 87  1  0  0  0
  6 88  1  0  0  0
  7  8  2  0  0  0
  7 26  1  0  0  0
  7 29  1  0  0  0
  8  9  1  0  0  0
  8 22  1  0  0  0
  9 10  1  0  0  0
  9 27  2  0  0  0
 10 11  2  0  0  0
 10 15  1  0  0  0
 11 12  1  0  0  0
 11 89  1  0  0  0
 12 13  2  0  0  0
 12 90  1  0  0  0
 13 14  1  0  0  0
 13 31  1  0  0  0
 14 15  2  0  0  0
 14 91  1  0  0  0
 15 92  1  0  0  0
 16 17  2  0  0  0
 16 21  1  0  0  0
 16 31  1  0  0  0
 17 18  1  0  0  0
 17 93  1  0  0  0
 18 19  2  0  0  0
 18 94  1  0  0  0
 19 20  1  0  0  0
 19 24  1  0  0  0
 20 21  2  0  0  0
 20 95  1  0  0  0
 21 23  1  0  0  0
 22 28  1  0  0  0
 22 32  2  0  0  0
 26 27  1  0  0  0
 28 96  1  0  0  0
 28 97  1  0  0  0
 29 98  1  0  0  0
 29 99  1  0  0  0
 33 34  1  0  0  0
 33 66  1  0  0  0
 33 70  2  0  0  0
 34 36  1  0  0  0
 34 59  1  0  0  0
 34100  1  0  0  0
 35 44  2  0  0  0
 35 45  1  0  0  0
 35 68  1  0  0  0
 36 56  1  0  0  0
 36101  1  0  0  0
 37 39  1  0  0  0
 37 47  1  0  0  0
 37 66  1  0  0  0
 37102  1  0  0  0
 38 43  2  0  0  0
 38 46  1  0  0  0
 38 47  1  0  0  0
 39 64  1  0  0  0
 39 67  2  0  0  0
 40 52  1  0  0  0
 40 53  2  0  0  0
 40 58  1  0  0  0
 41103  1  0  0  0
 41104  1  0  0  0
 41105  1  0  0  0
 41 48  1  0  0  0
 42 43  1  0  0  0
 42 66  1  0  0  0
 42106  1  0  0  0
 42107  1  0  0  0
 43 44  1  0  0  0
 44108  1  0  0  0
 45 46  2  0  0  0
 45109  1  0  0  0
 46110  1  0  0  0
 47111  1  0  0  0
 47112  1  0  0  0
 48 56  1  0  0  0
 48 65  1  0  0  0
 48113  1  0  0  0
 49 50  1  0  0  0
 49 53  1  0  0  0
 49 64  1  0  0  0
 49114  1  0  0  0
 50 51  1  0  0  0
 50115  1  0  0  0
 50116  1  0  0  0
 51 52  1  0  0  0
 51117  1  0  0  0
 51118  1  0  0  0
 52119  1  0  0  0
 52120  1  0  0  0
 53 54  1  0  0  0
 54 55  2  0  0  0
 54121  1  0  0  0
 55 57  1  0  0  0
 55122  1  0  0  0
 56 69  2  0  0  0
 57 58  2  0  0  0
 57123  1  0  0  0
 58124  1  0  0  0
 59 60  1  0  0  0
 59 61  1  0  0  0
 59 62  1  0  0  0
 60125  1  0  0  0
 60126  1  0  0  0
 60127  1  0  0  0
 61128  1  0  0  0
 61129  1  0  0  0
 61130  1  0  0  0
 62131  1  0  0  0
 62132  1  0  0  0
 62133  1  0  0  0
 63 65  1  0  0  0
 63134  1  0  0  0
 63135  1  0  0  0
 63136  1  0  0  0
 64137  1  0  0  0
 65138  1  0  0  0
 68 75  1  0  0  0
 71 72  2  0  0  0
 71 77  1  0  0  0
 71139  1  0  0  0
 72 75  1  0  0  0
 72 78  1  0  0  0
 73 76  1  0  0  0
 73 77  1  0  0  0
 73 78  2  0  0  0
 74 77  1  0  0  0
 74140  1  0  0  0
 74141  1  0  0  0
 74142  1  0  0  0
 75143  1  0  0  0
 75144  1  0  0  0
 76 79  1  0  0  0
 76145  1  0  0  0
 76146  1  0  0  0
 78147  1  0  0  0
 79148  1  0  0  0
M  CHG  1  78   1
M  ISO  4   1 100  68 101  75 101  79 100
M  END
> <chiral flag>
0

> <version>
0

> <s_m_source_file>
/data/baiqing/PycharmProjects/Reinvent-master-3.2/result/LINK_invent/BTK/process_docking_weight1_custom_sum_contain_oxygen_bond_distance_aromatic_linkinvent_7_9_3/rearranged_h_0055.sdf

> <i_m_source_file_index>
29

> <r_mmod_Potential_Energy-OPLS-2005>
1427.912109375

> <r_mmod_Stretch_Energy-OPLS-2005>
711.934265136719

> <r_mmod_Bend_Energy-OPLS-2005>
510.126800537109

> <r_mmod_Torsional_Energy-OPLS-2005>
232.119537353516

> <r_mmod_Improper_Torsional_Energy-OPLS-2005>
7.99838399887085

> <r_mmod_Van_der_Waal_Energy-OPLS-2005>
108.139015197754

> <r_mmod_Electrostatic_Energy-OPLS-2005>
-285.939178466797

> <r_mmod_Solvation_Energy-OPLS-2005>
-453.231323242188

> <b_mmod_Minimization_Converged-OPLS-2005>
0

> <r_mmod_RMS_Derivative-OPLS-2005>
2.2075891494751

$$$$
29
                    3D
 Structure written by MMmdl.
150158  0  0  1  0            999 V2000
  -30.4940  -15.0541   20.3946 C   0  0  0  0  0  0
  -30.4371  -12.6466   19.5398 C   0  0  0  0  0  0
  -29.5374  -12.5484   18.2837 C   0  0  0  0  0  0
  -28.0665  -12.3286   18.6849 C   0  0  0  0  0  0
  -27.6270  -13.2631   19.8427 C   0  0  2  0  0  0
  -28.6594  -13.3258   20.9889 C   0  0  0  0  0  0
  -25.2424  -13.8233   20.5722 C   0  0  0  0  0  0
  -24.1748  -13.0432   20.9225 C   0  0  0  0  0  0
  -24.6402  -11.6924   20.8750 C   0  0  0  0  0  0
  -23.9098  -10.4283   21.0402 C   0  0  0  0  0  0
  -24.3649   -9.4188   21.9173 C   0  0  0  0  0  0
  -23.6316   -8.2229   22.0741 C   0  0  0  0  0  0
  -22.4290   -8.0284   21.3541 C   0  0  0  0  0  0
  -21.9934   -9.0258   20.4635 C   0  0  0  0  0  0
  -22.7273  -10.2130   20.3043 C   0  0  0  0  0  0
  -21.6854   -6.0742   22.5280 C   0  0  0  0  0  0
  -21.4019   -6.5636   23.8219 C   0  0  0  0  0  0
  -21.3664   -5.6784   24.9176 C   0  0  0  0  0  0
  -21.6052   -4.3052   24.7222 C   0  0  0  0  0  0
  -21.8815   -3.8147   23.4340 C   0  0  0  0  0  0
  -21.9182   -4.6968   22.3401 C   0  0  0  0  0  0
  -22.7765  -13.5192   21.1881 C   0  0  0  0  0  0
  -22.1648   -4.2150   21.0979 F   0  0  0  0  0  0
  -21.5628   -3.4531   25.7733 F   0  0  0  0  0  0
  -29.9310  -13.7659   20.4006 N   0  0  0  0  0  0
  -26.2863  -12.9497   20.3246 N   0  0  0  0  0  0
  -25.9337  -11.6613   20.5733 N   0  0  0  0  0  0
  -22.0422  -12.8183   22.0446 N   0  0  0  0  0  0
  -25.4088  -15.1970   20.4182 N   0  0  0  0  0  0
  -31.6777  -15.1118   20.0392 O   0  0  0  0  0  0
  -21.6639   -6.8894   21.4243 O   0  0  0  0  0  0
  -22.3446  -14.5503   20.6735 O   0  0  0  0  0  0
  -24.6504  -31.8339   23.1787 C   0  0  0  0  0  0
  -25.9240  -32.4629   23.8221 C   0  0  1  0  0  0
  -27.2251  -27.0573   20.1664 C   0  0  0  0  0  0
  -25.5949  -33.8446   24.2126 N   0  0  0  0  0  0
  -23.4586  -30.4470   21.5241 C   0  0  2  0  0  0
  -24.9118  -28.8542   20.1043 C   0  0  0  0  0  0
  -22.7602  -29.4483   22.4818 C   0  0  0  0  0  0
  -18.0311  -28.1393   22.8475 C   0  0  0  0  0  0
  -24.1490  -36.7237   23.2648 C   0  0  0  0  0  0
  -26.0171  -30.6811   21.3904 C   0  0  0  0  0  0
  -26.0861  -29.2846   20.7318 C   0  0  0  0  0  0
  -27.2361  -28.4007   20.7448 C   0  0  0  0  0  0
  -26.0269  -26.7406   19.4922 C   0  0  0  0  0  0
  -24.8991  -27.6004   19.4676 C   0  0  0  0  0  0
  -23.6908  -29.7666   20.1454 C   0  0  0  0  0  0
  -25.4124  -36.2992   24.0301 C   0  0  1  0  0  0
  -20.5927  -28.3720   23.1220 C   0  0  2  0  0  0
  -20.6782  -26.9414   22.5412 C   0  0  0  0  0  0
  -19.5761  -26.6367   21.5214 C   0  0  0  0  0  0
  -18.1944  -26.7926   22.1623 C   0  0  0  0  0  0
  -19.1569  -28.8876   23.2833 C   0  0  0  0  0  0
  -18.9482  -30.1469   23.8858 C   0  0  0  0  0  0
  -17.6481  -30.6583   24.0552 C   0  0  0  0  0  0
  -25.9075  -34.9372   23.5031 C   0  0  0  0  0  0
  -16.5372  -29.9075   23.6341 C   0  0  0  0  0  0
  -16.7296  -28.6498   23.0359 C   0  0  0  0  0  0
  -26.4535  -31.6550   25.0719 C   0  0  0  0  0  0
  -25.3686  -31.3796   26.1392 C   0  0  0  0  0  0
  -27.0427  -30.2932   24.6395 C   0  0  0  0  0  0
  -27.6033  -32.4349   25.7518 C   0  0  0  0  0  0
  -27.5568  -37.1773   24.8460 C   0  0  0  0  0  0
  -21.4287  -29.3030   22.3582 N   0  0  0  0  0  0
  -26.4277  -37.3717   23.9398 N   0  0  0  0  0  0
  -24.7285  -31.0121   22.0854 N   0  0  0  0  0  0
  -23.4210  -28.8050   23.3006 O   0  0  0  0  0  0
  -28.2845  -26.0652   20.3050 O   0  0  0  0  0  0
  -26.5685  -34.8895   22.4626 O   0  0  0  0  0  0
  -23.5603  -32.1254   23.6960 O   0  0  0  0  0  0
  -30.2503  -21.3779   21.1327 C   0  0  0  0  0  0
  -30.6052  -20.0302   21.1178 C   0  0  0  0  0  0
  -29.5889  -19.2966   20.4238 C   0  0  0  0  0  0
  -29.6982  -17.7015   19.8758 C   0  0  0  0  0  0
  -28.1835  -23.0195   20.5757 C   0  0  0  0  0  0
  -28.4038  -24.5528   19.8105 C   0  0  0  0  0  0
  -31.8647  -19.4362   21.6906 C   0  0  0  0  0  0
  -28.6502  -20.3080   20.0795 N   0  0  0  0  0  0
  -29.0411  -21.6403   20.4961 N   0  0  0  0  0  0
  -29.7161  -16.2536   20.5835 N   0  0  0  0  0  0
  -32.5890  -20.3761   22.3005 F   0  0  0  0  0  0
  -31.5543  -18.4910   22.5754 F   0  0  0  0  0  0
  -32.5954  -18.8995   20.7144 F   0  0  0  0  0  0
  -31.4754  -12.7966   19.2410 H   0  0  0  0  0  0
  -30.4303  -11.7052   20.0933 H   0  0  0  0  0  0
  -29.8784  -11.7373   17.6391 H   0  0  0  0  0  0
  -29.6256  -13.4646   17.6980 H   0  0  0  0  0  0
  -27.9591  -11.2881   18.9922 H   0  0  0  0  0  0
  -27.4151  -12.4596   17.8201 H   0  0  0  0  0  0
  -27.5815  -14.2613   19.4055 H   0  0  0  0  0  0
  -28.7600  -12.3577   21.4828 H   0  0  0  0  0  0
  -28.3341  -14.0274   21.7586 H   0  0  0  0  0  0
  -25.2793   -9.5658   22.4750 H   0  0  0  0  0  0
  -24.0011   -7.4619   22.7469 H   0  0  0  0  0  0
  -21.0852   -8.8803   19.8951 H   0  0  0  0  0  0
  -22.3738  -10.9685   19.6154 H   0  0  0  0  0  0
  -21.2022   -7.6148   23.9729 H   0  0  0  0  0  0
  -21.1494   -6.0508   25.9082 H   0  0  0  0  0  0
  -22.0590   -2.7606   23.2834 H   0  0  0  0  0  0
  -22.4055  -11.9865   22.4876 H   0  0  0  0  0  0
  -21.1038  -13.1200   22.2653 H   0  0  0  0  0  0
  -24.6429  -15.8509   20.5440 H   0  0  0  0  0  0
  -26.2535  -15.6386   20.0798 H   0  0  0  0  0  0
  -26.7314  -32.5202   23.0945 H   0  0  0  0  0  0
  -25.0040  -33.9542   25.0233 H   0  0  0  0  0  0
  -22.7654  -31.2744   21.3608 H   0  0  0  0  0  0
  -23.3746  -35.9573   23.3291 H   0  0  0  0  0  0
  -24.3568  -36.8900   22.2066 H   0  0  0  0  0  0
  -23.7258  -37.6429   23.6711 H   0  0  0  0  0  0
  -26.1873  -31.4321   20.6177 H   0  0  0  0  0  0
  -26.8806  -30.7285   22.0427 H   0  0  0  0  0  0
  -28.1278  -28.7217   21.2649 H   0  0  0  0  0  0
  -25.9288  -25.7734   19.0213 H   0  0  0  0  0  0
  -24.0007  -27.2659   18.9672 H   0  0  0  0  0  0
  -23.8351  -30.5372   19.3869 H   0  0  0  0  0  0
  -22.8035  -29.2132   19.8338 H   0  0  0  0  0  0
  -25.1324  -36.1794   25.0792 H   0  0  0  0  0  0
  -21.0023  -28.3308   24.1335 H   0  0  0  0  0  0
  -20.5655  -26.2335   23.3636 H   0  0  0  0  0  0
  -21.6645  -26.7392   22.1221 H   0  0  0  0  0  0
  -19.6917  -25.6265   21.1270 H   0  0  0  0  0  0
  -19.6700  -27.3152   20.6724 H   0  0  0  0  0  0
  -17.4214  -26.6673   21.4025 H   0  0  0  0  0  0
  -18.0340  -26.0072   22.9028 H   0  0  0  0  0  0
  -19.7956  -30.7297   24.2210 H   0  0  0  0  0  0
  -17.5029  -31.6259   24.5163 H   0  0  0  0  0  0
  -15.5367  -30.2964   23.7677 H   0  0  0  0  0  0
  -15.8696  -28.0801   22.7092 H   0  0  0  0  0  0
  -24.5812  -30.7214   25.7703 H   0  0  0  0  0  0
  -24.8940  -32.3013   26.4775 H   0  0  0  0  0  0
  -25.7916  -30.8966   27.0207 H   0  0  0  0  0  0
  -26.3091  -29.6616   24.1374 H   0  0  0  0  0  0
  -27.3965  -29.7283   25.5032 H   0  0  0  0  0  0
  -27.9023  -30.4143   23.9795 H   0  0  0  0  0  0
  -27.2578  -33.3638   26.2071 H   0  0  0  0  0  0
  -28.3858  -32.6939   25.0371 H   0  0  0  0  0  0
  -28.0694  -31.8509   26.5464 H   0  0  0  0  0  0
  -28.2575  -38.0081   24.7488 H   0  0  0  0  0  0
  -28.1074  -36.2604   24.6295 H   0  0  0  0  0  0
  -27.2289  -37.1432   25.8867 H   0  0  0  0  0  0
  -20.9512  -29.8731   21.6743 H   0  0  0  0  0  0
  -26.0130  -38.2780   24.1397 H   0  0  0  0  0  0
  -30.7830  -22.1968   21.5965 H   0  0  0  0  0  0
  -30.5938  -17.6751   19.2537 H   0  0  0  0  0  0
  -28.8977  -17.5938   19.1437 H   0  0  0  0  0  0
  -27.1479  -22.7338   20.3936 H   0  0  0  0  0  0
  -28.1917  -23.2582   21.6394 H   0  0  0  0  0  0
  -27.8594  -24.5013   18.8676 H   0  0  0  0  0  0
  -29.4439  -24.5158   19.4871 H   0  0  0  0  0  0
  -28.8311  -16.0523   21.0240 H   0  0  0  0  0  0
  1 25  1  0  0  0
  1 30  2  0  0  0
  1 80  1  0  0  0
  2  3  1  0  0  0
  2 25  1  0  0  0
  2 84  1  0  0  0
  2 85  1  0  0  0
  3  4  1  0  0  0
  3 86  1  0  0  0
  3 87  1  0  0  0
  4  5  1  0  0  0
  4 88  1  0  0  0
  4 89  1  0  0  0
  5  6  1  0  0  0
  5 26  1  0  0  0
  5 90  1  0  0  0
  6 25  1  0  0  0
  6 91  1  0  0  0
  6 92  1  0  0  0
  7  8  2  0  0  0
  7 26  1  0  0  0
  7 29  1  0  0  0
  8  9  1  0  0  0
  8 22  1  0  0  0
  9 10  1  0  0  0
  9 27  2  0  0  0
 10 11  2  0  0  0
 10 15  1  0  0  0
 11 12  1  0  0  0
 11 93  1  0  0  0
 12 13  2  0  0  0
 12 94  1  0  0  0
 13 14  1  0  0  0
 13 31  1  0  0  0
 14 15  2  0  0  0
 14 95  1  0  0  0
 15 96  1  0  0  0
 16 17  2  0  0  0
 16 21  1  0  0  0
 16 31  1  0  0  0
 17 18  1  0  0  0
 17 97  1  0  0  0
 18 19  2  0  0  0
 18 98  1  0  0  0
 19 20  1  0  0  0
 19 24  1  0  0  0
 20 21  2  0  0  0
 20 99  1  0  0  0
 21 23  1  0  0  0
 22 28  1  0  0  0
 22 32  2  0  0  0
 26 27  1  0  0  0
 28100  1  0  0  0
 28101  1  0  0  0
 29102  1  0  0  0
 29103  1  0  0  0
 33 34  1  0  0  0
 33 66  1  0  0  0
 33 70  2  0  0  0
 34 36  1  0  0  0
 34 59  1  0  0  0
 34104  1  0  0  0
 35 44  2  0  0  0
 35 45  1  0  0  0
 35 68  1  0  0  0
 36 56  1  0  0  0
 36105  1  0  0  0
 37 39  1  0  0  0
 37 47  1  0  0  0
 37 66  1  0  0  0
 37106  1  0  0  0
 38 43  2  0  0  0
 38 46  1  0  0  0
 38 47  1  0  0  0
 39 64  1  0  0  0
 39 67  2  0  0  0
 40 52  1  0  0  0
 40 53  2  0  0  0
 40 58  1  0  0  0
 41107  1  0  0  0
 41108  1  0  0  0
 41109  1  0  0  0
 41 48  1  0  0  0
 42 43  1  0  0  0
 42 66  1  0  0  0
 42110  1  0  0  0
 42111  1  0  0  0
 43 44  1  0  0  0
 44112  1  0  0  0
 45 46  2  0  0  0
 45113  1  0  0  0
 46114  1  0  0  0
 47115  1  0  0  0
 47116  1  0  0  0
 48 56  1  0  0  0
 48 65  1  0  0  0
 48117  1  0  0  0
 49 50  1  0  0  0
 49 53  1  0  0  0
 49 64  1  0  0  0
 49118  1  0  0  0
 50 51  1  0  0  0
 50119  1  0  0  0
 50120  1  0  0  0
 51 52  1  0  0  0
 51121  1  0  0  0
 51122  1  0  0  0
 52123  1  0  0  0
 52124  1  0  0  0
 53 54  1  0  0  0
 54 55  2  0  0  0
 54125  1  0  0  0
 55 57  1  0  0  0
 55126  1  0  0  0
 56 69  2  0  0  0
 57 58  2  0  0  0
 57127  1  0  0  0
 58128  1  0  0  0
 59 60  1  0  0  0
 59 61  1  0  0  0
 59 62  1  0  0  0
 60129  1  0  0  0
 60130  1  0  0  0
 60131  1  0  0  0
 61132  1  0  0  0
 61133  1  0  0  0
 61134  1  0  0  0
 62135  1  0  0  0
 62136  1  0  0  0
 62137  1  0  0  0
 63 65  1  0  0  0
 63138  1  0  0  0
 63139  1  0  0  0
 63140  1  0  0  0
 64141  1  0  0  0
 65142  1  0  0  0
 68 76  1  0  0  0
 71 72  2  0  0  0
 71 79  1  0  0  0
 71143  1  0  0  0
 72 73  1  0  0  0
 72 77  1  0  0  0
 73 74  1  0  0  0
 73 78  2  0  0  0
 74 80  1  0  0  0
 74144  1  0  0  0
 74145  1  0  0  0
 75 76  1  0  0  0
 75 79  1  0  0  0
 75146  1  0  0  0
 75147  1  0  0  0
 76148  1  0  0  0
 76149  1  0  0  0
 77 81  1  0  0  0
 77 82  1  0  0  0
 77 83  1  0  0  0
 78 79  1  0  0  0
 80150  1  0  0  0
M  ISO  4   1 100  68 101  76 101  80 100
M  END
> <chiral flag>
0

> <version>
0

> <s_m_source_file>
/data/baiqing/PycharmProjects/Reinvent-master-3.2/result/LINK_invent/BTK/process_docking_weight1_custom_sum_contain_oxygen_bond_distance_aromatic_linkinvent_7_9_3/rearranged_h_0055.sdf

> <i_m_source_file_index>
30

> <r_mmod_Potential_Energy-OPLS-2005>
661.83056640625

> <r_mmod_Stretch_Energy-OPLS-2005>
354.855804443359

> <r_mmod_Bend_Energy-OPLS-2005>
378.590545654297

> <r_mmod_Torsional_Energy-OPLS-2005>
234.712921142578

> <r_mmod_Improper_Torsional_Energy-OPLS-2005>
9.40318584442139

> <r_mmod_Van_der_Waal_Energy-OPLS-2005>
103.724639892578

> <r_mmod_Electrostatic_Energy-OPLS-2005>
-463.887359619141

> <r_mmod_Solvation_Energy-OPLS-2005>
-226.171813964844

> <b_mmod_Minimization_Converged-OPLS-2005>
0

> <r_mmod_RMS_Derivative-OPLS-2005>
1.97412097454071

$$$$
30
                    3D
 Structure written by MMmdl.
156164  0  0  1  0            999 V2000
  -30.5368  -15.0923   20.3469 C   0  0  0  0  0  0
  -30.4544  -12.6854   19.4673 C   0  0  0  0  0  0
  -29.5293  -12.4380   18.2509 C   0  0  0  0  0  0
  -28.0656  -12.2024   18.6808 C   0  0  0  0  0  0
  -27.6083  -13.1858   19.7770 C   0  0  2  0  0  0
  -28.6658  -13.3810   20.9015 C   0  0  0  0  0  0
  -25.2488  -13.8046   20.5613 C   0  0  0  0  0  0
  -24.1759  -13.0366   20.9209 C   0  0  0  0  0  0
  -24.6336  -11.6860   20.8770 C   0  0  0  0  0  0
  -23.8990  -10.4302   21.0490 C   0  0  0  0  0  0
  -24.3562   -9.4229   21.9250 C   0  0  0  0  0  0
  -23.6259   -8.2262   22.0757 C   0  0  0  0  0  0
  -22.4271   -8.0264   21.3542 C   0  0  0  0  0  0
  -21.9882   -9.0248   20.4679 C   0  0  0  0  0  0
  -22.7178  -10.2140   20.3148 C   0  0  0  0  0  0
  -21.6899   -6.0702   22.5229 C   0  0  0  0  0  0
  -21.4037   -6.5618   23.8152 C   0  0  0  0  0  0
  -21.3647   -5.6768   24.9118 C   0  0  0  0  0  0
  -21.6054   -4.3036   24.7179 C   0  0  0  0  0  0
  -21.8841   -3.8117   23.4298 C   0  0  0  0  0  0
  -21.9236   -4.6937   22.3360 C   0  0  0  0  0  0
  -22.7817  -13.5257   21.1854 C   0  0  0  0  0  0
  -22.1719   -4.2111   21.0938 F   0  0  0  0  0  0
  -21.5632   -3.4547   25.7714 F   0  0  0  0  0  0
  -29.9143  -13.8298   20.2624 N   0  0  0  0  0  0
  -26.2814  -12.9136   20.3034 N   0  0  0  0  0  0
  -25.9209  -11.6358   20.5661 N   0  0  0  0  0  0
  -22.0531  -12.8228   22.0448 N   0  0  0  0  0  0
  -25.4084  -15.1736   20.3974 N   0  0  0  0  0  0
  -31.7717  -15.0723   20.2748 O   0  0  0  0  0  0
  -21.6668   -6.8842   21.4191 O   0  0  0  0  0  0
  -22.3504  -14.5565   20.6733 O   0  0  0  0  0  0
  -24.6539  -31.8416   23.1852 C   0  0  0  0  0  0
  -25.9263  -32.4699   23.8286 C   0  0  1  0  0  0
  -27.2538  -27.1239   20.1509 C   0  0  0  0  0  0
  -25.5971  -33.8508   24.2199 N   0  0  0  0  0  0
  -23.4618  -30.4527   21.5359 C   0  0  2  0  0  0
  -24.9152  -28.8786   20.1130 C   0  0  0  0  0  0
  -22.7656  -29.4508   22.4907 C   0  0  0  0  0  0
  -18.0312  -28.1436   22.8533 C   0  0  0  0  0  0
  -24.1451  -36.7264   23.2639 C   0  0  0  0  0  0
  -26.0178  -30.7085   21.3859 C   0  0  0  0  0  0
  -26.0940  -29.3173   20.7297 C   0  0  0  0  0  0
  -27.2614  -28.4602   20.7281 C   0  0  0  0  0  0
  -26.0423  -26.7907   19.4966 C   0  0  0  0  0  0
  -24.9044  -27.6258   19.4808 C   0  0  0  0  0  0
  -23.6887  -29.7813   20.1569 C   0  0  0  0  0  0
  -25.4087  -36.3036   24.0322 C   0  0  1  0  0  0
  -20.5947  -28.3745   23.1289 C   0  0  2  0  0  0
  -20.6813  -26.9436   22.5473 C   0  0  0  0  0  0
  -19.5753  -26.6405   21.5311 C   0  0  0  0  0  0
  -18.1929  -26.7973   22.1688 C   0  0  0  0  0  0
  -19.1580  -28.8905   23.2880 C   0  0  0  0  0  0
  -18.9467  -30.1533   23.8882 C   0  0  0  0  0  0
  -17.6453  -30.6605   24.0595 C   0  0  0  0  0  0
  -25.9071  -34.9414   23.5070 C   0  0  0  0  0  0
  -16.5354  -29.9095   23.6359 C   0  0  0  0  0  0
  -16.7302  -28.6524   23.0359 C   0  0  0  0  0  0
  -26.4521  -31.6584   25.0765 C   0  0  0  0  0  0
  -25.3676  -31.3839   26.1458 C   0  0  0  0  0  0
  -27.0379  -30.2961   24.6370 C   0  0  0  0  0  0
  -27.6012  -32.4378   25.7576 C   0  0  0  0  0  0
  -27.5563  -37.1782   24.8463 C   0  0  0  0  0  0
  -21.4350  -29.3026   22.3654 N   0  0  0  0  0  0
  -26.4244  -37.3758   23.9435 N   0  0  0  0  0  0
  -24.7319  -31.0230   22.0912 N   0  0  0  0  0  0
  -23.4291  -28.8109   23.3119 O   0  0  0  0  0  0
  -28.3054  -26.1251   20.2383 O   0  0  0  0  0  0
  -26.5674  -34.8932   22.4661 O   0  0  0  0  0  0
  -23.5634  -32.1294   23.7047 O   0  0  0  0  0  0
  -28.3017  -21.8348   20.1538 C   0  0  0  0  0  0
  -28.8129  -23.2116   20.2621 C   0  0  0  0  0  0
  -29.2797  -20.8433   20.3767 C   0  0  0  0  0  0
  -28.3953  -16.4408   18.2331 C   0  0  0  0  0  0
  -31.6644  -21.1681   21.0778 C   0  0  0  0  0  0
  -27.9753  -24.6212   19.9760 C   0  0  0  0  0  0
  -29.1735  -19.2043   20.3712 C   0  0  0  0  0  0
  -28.4482  -16.4047   19.7797 C   0  0  0  0  0  0
  -30.2714  -17.8921   20.4607 C   0  0  0  0  0  0
  -30.1084  -23.0370   20.5938 N   0  0  0  0  0  0
  -30.3644  -21.6592   20.6759 N   0  0  0  0  0  0
  -29.8168  -16.3605   20.3032 N   0  0  0  0  0  0
  -31.4705  -12.8769   19.1147 H   0  0  0  0  0  0
  -30.5216  -11.7906   20.0858 H   0  0  0  0  0  0
  -29.8746  -11.5652   17.6924 H   0  0  0  0  0  0
  -29.5865  -13.2753   17.5552 H   0  0  0  0  0  0
  -27.9711  -11.1808   19.0489 H   0  0  0  0  0  0
  -27.4090  -12.2629   17.8114 H   0  0  0  0  0  0
  -27.4790  -14.0723   19.1740 H   0  0  0  0  0  0
  -28.8206  -12.4660   21.4683 H   0  0  0  0  0  0
  -28.3317  -14.1232   21.6309 H   0  0  0  0  0  0
  -25.2713   -9.5711   22.4793 H   0  0  0  0  0  0
  -23.9994   -7.4674   22.7479 H   0  0  0  0  0  0
  -21.0850   -8.8732   19.8964 H   0  0  0  0  0  0
  -22.3664  -10.9639   19.6233 H   0  0  0  0  0  0
  -21.2044   -7.6137   23.9612 H   0  0  0  0  0  0
  -21.1453   -6.0524   25.9000 H   0  0  0  0  0  0
  -22.0644   -2.7577   23.2807 H   0  0  0  0  0  0
  -22.4197  -11.9796   22.4582 H   0  0  0  0  0  0
  -21.1191  -13.1227   22.2881 H   0  0  0  0  0  0
  -24.6457  -15.8280   20.5346 H   0  0  0  0  0  0
  -26.2455  -15.5986   20.0177 H   0  0  0  0  0  0
  -26.7382  -32.5290   23.1068 H   0  0  0  0  0  0
  -25.0065  -33.9643   25.0307 H   0  0  0  0  0  0
  -22.7634  -31.2770   21.3832 H   0  0  0  0  0  0
  -23.3727  -35.9577   23.3253 H   0  0  0  0  0  0
  -24.3519  -36.8967   22.2070 H   0  0  0  0  0  0
  -23.7208  -37.6444   23.6700 H   0  0  0  0  0  0
  -26.1672  -31.4530   20.6044 H   0  0  0  0  0  0
  -26.8924  -30.7723   22.0222 H   0  0  0  0  0  0
  -28.1567  -28.7960   21.2297 H   0  0  0  0  0  0
  -25.9236  -25.8355   19.0077 H   0  0  0  0  0  0
  -24.0127  -27.2757   18.9829 H   0  0  0  0  0  0
  -23.8280  -30.5590   19.4055 H   0  0  0  0  0  0
  -22.8041  -29.2245   19.8464 H   0  0  0  0  0  0
  -25.1257  -36.1847   25.0807 H   0  0  0  0  0  0
  -21.0018  -28.3326   24.1418 H   0  0  0  0  0  0
  -20.5816  -26.2338   23.3699 H   0  0  0  0  0  0
  -21.6654  -26.7495   22.1201 H   0  0  0  0  0  0
  -19.6903  -25.6316   21.1335 H   0  0  0  0  0  0
  -19.6681  -27.3240   20.6867 H   0  0  0  0  0  0
  -17.4241  -26.6829   21.4032 H   0  0  0  0  0  0
  -18.0197  -26.0110   22.9047 H   0  0  0  0  0  0
  -19.7916  -30.7407   24.2193 H   0  0  0  0  0  0
  -17.4959  -31.6275   24.5227 H   0  0  0  0  0  0
  -15.5348  -30.2963   23.7663 H   0  0  0  0  0  0
  -15.8719  -28.0851   22.7025 H   0  0  0  0  0  0
  -24.5851  -30.7167   25.7833 H   0  0  0  0  0  0
  -24.8865  -32.3053   26.4745 H   0  0  0  0  0  0
  -25.7952  -30.9148   27.0329 H   0  0  0  0  0  0
  -26.3020  -29.6729   24.1284 H   0  0  0  0  0  0
  -27.3865  -29.7223   25.4974 H   0  0  0  0  0  0
  -27.8955  -30.4185   23.9755 H   0  0  0  0  0  0
  -27.2534  -33.3685   26.2061 H   0  0  0  0  0  0
  -28.3855  -32.6966   25.0453 H   0  0  0  0  0  0
  -28.0603  -31.8587   26.5599 H   0  0  0  0  0  0
  -28.2549  -38.0108   24.7531 H   0  0  0  0  0  0
  -28.1091  -36.2660   24.6193 H   0  0  0  0  0  0
  -27.2314  -37.1320   25.8872 H   0  0  0  0  0  0
  -20.9606  -29.8618   21.6708 H   0  0  0  0  0  0
  -26.0113  -38.2816   24.1449 H   0  0  0  0  0  0
  -27.2690  -21.6155   19.9278 H   0  0  0  0  0  0
  -29.1870  -17.0767   17.8272 H   0  0  0  0  0  0
  -27.4461  -16.8614   17.8908 H   0  0  0  0  0  0
  -28.5088  -15.4632   17.7670 H   0  0  0  0  0  0
  -32.0726  -20.5202   20.2983 H   0  0  0  0  0  0
  -31.5438  -20.5912   21.9964 H   0  0  0  0  0  0
  -32.3651  -21.9754   21.2703 H   0  0  0  0  0  0
  -27.0178  -24.4731   20.4765 H   0  0  0  0  0  0
  -27.7222  -24.5809   18.9155 H   0  0  0  0  0  0
  -28.6334  -19.0340   19.4432 H   0  0  0  0  0  0
  -28.4487  -19.0070   21.1616 H   0  0  0  0  0  0
  -27.8655  -15.6549   20.2585 H   0  0  0  0  0  0
  -27.8525  -17.2159   20.1659 H   0  0  0  0  0  0
  -30.8128  -17.9475   21.4093 H   0  0  0  0  0  0
  -31.0354  -18.0566   19.6999 H   0  0  0  0  0  0
  1 25  1  0  0  0
  1 30  2  0  0  0
  1 82  1  0  0  0
  2  3  1  0  0  0
  2 25  1  0  0  0
  2 83  1  0  0  0
  2 84  1  0  0  0
  3  4  1  0  0  0
  3 85  1  0  0  0
  3 86  1  0  0  0
  4  5  1  0  0  0
  4 87  1  0  0  0
  4 88  1  0  0  0
  5  6  1  0  0  0
  5 26  1  0  0  0
  5 89  1  0  0  0
  6 25  1  0  0  0
  6 90  1  0  0  0
  6 91  1  0  0  0
  7  8  2  0  0  0
  7 26  1  0  0  0
  7 29  1  0  0  0
  8  9  1  0  0  0
  8 22  1  0  0  0
  9 10  1  0  0  0
  9 27  2  0  0  0
 10 11  2  0  0  0
 10 15  1  0  0  0
 11 12  1  0  0  0
 11 92  1  0  0  0
 12 13  2  0  0  0
 12 93  1  0  0  0
 13 14  1  0  0  0
 13 31  1  0  0  0
 14 15  2  0  0  0
 14 94  1  0  0  0
 15 95  1  0  0  0
 16 17  2  0  0  0
 16 21  1  0  0  0
 16 31  1  0  0  0
 17 18  1  0  0  0
 17 96  1  0  0  0
 18 19  2  0  0  0
 18 97  1  0  0  0
 19 20  1  0  0  0
 19 24  1  0  0  0
 20 21  2  0  0  0
 20 98  1  0  0  0
 21 23  1  0  0  0
 22 28  1  0  0  0
 22 32  2  0  0  0
 26 27  1  0  0  0
 28 99  1  0  0  0
 28100  1  0  0  0
 29101  1  0  0  0
 29102  1  0  0  0
 33 34  1  0  0  0
 33 66  1  0  0  0
 33 70  2  0  0  0
 34 36  1  0  0  0
 34 59  1  0  0  0
 34103  1  0  0  0
 35 44  2  0  0  0
 35 45  1  0  0  0
 35 68  1  0  0  0
 36 56  1  0  0  0
 36104  1  0  0  0
 37 39  1  0  0  0
 37 47  1  0  0  0
 37 66  1  0  0  0
 37105  1  0  0  0
 38 43  2  0  0  0
 38 46  1  0  0  0
 38 47  1  0  0  0
 39 64  1  0  0  0
 39 67  2  0  0  0
 40 52  1  0  0  0
 40 53  2  0  0  0
 40 58  1  0  0  0
 41106  1  0  0  0
 41107  1  0  0  0
 41108  1  0  0  0
 41 48  1  0  0  0
 42 43  1  0  0  0
 42 66  1  0  0  0
 42109  1  0  0  0
 42110  1  0  0  0
 43 44  1  0  0  0
 44111  1  0  0  0
 45 46  2  0  0  0
 45112  1  0  0  0
 46113  1  0  0  0
 47114  1  0  0  0
 47115  1  0  0  0
 48 56  1  0  0  0
 48 65  1  0  0  0
 48116  1  0  0  0
 49 50  1  0  0  0
 49 53  1  0  0  0
 49 64  1  0  0  0
 49117  1  0  0  0
 50 51  1  0  0  0
 50118  1  0  0  0
 50119  1  0  0  0
 51 52  1  0  0  0
 51120  1  0  0  0
 51121  1  0  0  0
 52122  1  0  0  0
 52123  1  0  0  0
 53 54  1  0  0  0
 54 55  2  0  0  0
 54124  1  0  0  0
 55 57  1  0  0  0
 55125  1  0  0  0
 56 69  2  0  0  0
 57 58  2  0  0  0
 57126  1  0  0  0
 58127  1  0  0  0
 59 60  1  0  0  0
 59 61  1  0  0  0
 59 62  1  0  0  0
 60128  1  0  0  0
 60129  1  0  0  0
 60130  1  0  0  0
 61131  1  0  0  0
 61132  1  0  0  0
 61133  1  0  0  0
 62134  1  0  0  0
 62135  1  0  0  0
 62136  1  0  0  0
 63 65  1  0  0  0
 63137  1  0  0  0
 63138  1  0  0  0
 63139  1  0  0  0
 64140  1  0  0  0
 65141  1  0  0  0
 68 76  1  0  0  0
 71 72  1  0  0  0
 71 73  2  0  0  0
 71142  1  0  0  0
 72 76  1  0  0  0
 72 80  2  0  0  0
 73 77  1  0  0  0
 73 81  1  0  0  0
 74 78  1  0  0  0
 74143  1  0  0  0
 74144  1  0  0  0
 74145  1  0  0  0
 75 81  1  0  0  0
 75146  1  0  0  0
 75147  1  0  0  0
 75148  1  0  0  0
 76149  1  0  0  0
 76150  1  0  0  0
 77 79  1  0  0  0
 77151  1  0  0  0
 77152  1  0  0  0
 78 82  1  0  0  0
 78153  1  0  0  0
 78154  1  0  0  0
 79 82  1  0  0  0
 79155  1  0  0  0
 79156  1  0  0  0
 80 81  1  0  0  0
M  ISO  4   1 100  68 101  76 101  82 100
M  END
> <chiral flag>
0

> <version>
0

> <s_m_source_file>
/data/baiqing/PycharmProjects/Reinvent-master-3.2/result/LINK_invent/BTK/process_docking_weight1_custom_sum_contain_oxygen_bond_distance_aromatic_linkinvent_7_9_3/rearranged_h_0055.sdf

> <i_m_source_file_index>
31

> <r_mmod_Potential_Energy-OPLS-2005>
837.418579101562

> <r_mmod_Stretch_Energy-OPLS-2005>
287.770141601562

> <r_mmod_Bend_Energy-OPLS-2005>
334.2236328125

> <r_mmod_Torsional_Energy-OPLS-2005>
286.142364501953

> <r_mmod_Improper_Torsional_Energy-OPLS-2005>
4.93818378448486

> <r_mmod_Van_der_Waal_Energy-OPLS-2005>
142.152908325195

> <r_mmod_Electrostatic_Energy-OPLS-2005>
-263.997863769531

> <r_mmod_Solvation_Energy-OPLS-2005>
-227.386459350586

> <b_mmod_Minimization_Converged-OPLS-2005>
0

> <r_mmod_RMS_Derivative-OPLS-2005>
6.63993167877197

$$$$
31
                    3D
 Structure written by MMmdl.
154162  0  0  1  0            999 V2000
  -30.6750  -14.6179   20.5794 C   0  0  0  0  0  0
  -30.4288  -12.3953   19.4685 C   0  0  0  0  0  0
  -29.5104  -12.5180   18.2312 C   0  0  0  0  0  0
  -28.0325  -12.3485   18.6320 C   0  0  0  0  0  0
  -27.6505  -13.2226   19.8551 C   0  0  2  0  0  0
  -28.6851  -13.0796   20.9933 C   0  0  0  0  0  0
  -25.2550  -13.8194   20.5666 C   0  0  0  0  0  0
  -24.1813  -13.0471   20.9174 C   0  0  0  0  0  0
  -24.6370  -11.6930   20.8730 C   0  0  0  0  0  0
  -23.9055  -10.4303   21.0419 C   0  0  0  0  0  0
  -24.3630   -9.4207   21.9182 C   0  0  0  0  0  0
  -23.6320   -8.2232   22.0743 C   0  0  0  0  0  0
  -22.4295   -8.0258   21.3542 C   0  0  0  0  0  0
  -21.9918   -9.0216   20.4632 C   0  0  0  0  0  0
  -22.7238  -10.2111   20.3046 C   0  0  0  0  0  0
  -21.6832   -6.0721   22.5277 C   0  0  0  0  0  0
  -21.3992   -6.5618   23.8220 C   0  0  0  0  0  0
  -21.3685   -5.6773   24.9181 C   0  0  0  0  0  0
  -21.6072   -4.3042   24.7218 C   0  0  0  0  0  0
  -21.8814   -3.8124   23.4333 C   0  0  0  0  0  0
  -21.9181   -4.6946   22.3389 C   0  0  0  0  0  0
  -22.7828  -13.5237   21.1846 C   0  0  0  0  0  0
  -22.1661   -4.2144   21.0965 F   0  0  0  0  0  0
  -21.5653   -3.4524   25.7723 F   0  0  0  0  0  0
  -30.0138  -13.4180   20.4558 N   0  0  0  0  0  0
  -26.2965  -12.9386   20.3254 N   0  0  0  0  0  0
  -25.9310  -11.6540   20.5745 N   0  0  0  0  0  0
  -22.0487  -12.8215   22.0402 N   0  0  0  0  0  0
  -25.4333  -15.1913   20.4092 N   0  0  0  0  0  0
  -31.7715  -14.7878   20.0319 O   0  0  0  0  0  0
  -21.6637   -6.8870   21.4237 O   0  0  0  0  0  0
  -22.3495  -14.5542   20.6700 O   0  0  0  0  0  0
  -24.6282  -31.8608   23.2028 C   0  0  0  0  0  0
  -25.9154  -32.4779   23.8351 C   0  0  1  0  0  0
  -27.2185  -27.3226   20.1205 C   0  0  0  0  0  0
  -25.6000  -33.8582   24.2289 N   0  0  0  0  0  0
  -23.4203  -30.4850   21.5456 C   0  0  2  0  0  0
  -24.8611  -28.9374   20.1113 C   0  0  0  0  0  0
  -22.7485  -29.4621   22.4927 C   0  0  0  0  0  0
  -18.0305  -28.1344   22.8501 C   0  0  0  0  0  0
  -24.1485  -36.7268   23.2638 C   0  0  0  0  0  0
  -25.9612  -30.7900   21.3731 C   0  0  0  0  0  0
  -26.0313  -29.4203   20.7118 C   0  0  0  0  0  0
  -27.2138  -28.6251   20.7039 C   0  0  0  0  0  0
  -26.0245  -26.8859   19.5025 C   0  0  0  0  0  0
  -24.8588  -27.6754   19.4989 C   0  0  0  0  0  0
  -23.6339  -29.8244   20.1592 C   0  0  0  0  0  0
  -25.4115  -36.3069   24.0327 C   0  0  1  0  0  0
  -20.5899  -28.3658   23.1287 C   0  0  2  0  0  0
  -20.6784  -26.9387   22.5395 C   0  0  0  0  0  0
  -19.5762  -26.6351   21.5202 C   0  0  0  0  0  0
  -18.1940  -26.7891   22.1612 C   0  0  0  0  0  0
  -19.1552  -28.8822   23.2889 C   0  0  0  0  0  0
  -18.9471  -30.1421   23.8907 C   0  0  0  0  0  0
  -17.6471  -30.6558   24.0552 C   0  0  0  0  0  0
  -25.9073  -34.9452   23.5085 C   0  0  0  0  0  0
  -16.5364  -29.9042   23.6339 C   0  0  0  0  0  0
  -16.7282  -28.6444   23.0380 C   0  0  0  0  0  0
  -26.4542  -31.6598   25.0729 C   0  0  0  0  0  0
  -25.3793  -31.3733   26.1471 C   0  0  0  0  0  0
  -27.0429  -30.3042   24.6198 C   0  0  0  0  0  0
  -27.6103  -32.4346   25.7503 C   0  0  0  0  0  0
  -27.5571  -37.1788   24.8475 C   0  0  0  0  0  0
  -21.4197  -29.3024   22.3684 N   0  0  0  0  0  0
  -26.4276  -37.3768   23.9425 N   0  0  0  0  0  0
  -24.6883  -31.0635   22.0966 N   0  0  0  0  0  0
  -23.4211  -28.8177   23.3005 O   0  0  0  0  0  0
  -28.3436  -26.4893   20.1733 O   0  0  0  0  0  0
  -26.5591  -34.8908   22.4618 O   0  0  0  0  0  0
  -23.5459  -32.1389   23.7405 O   0  0  0  0  0  0
  -28.6385  -20.5939   21.6345 C   0  0  0  0  0  0
  -30.2423  -21.7784   19.8365 C   0  0  0  0  0  0
  -29.6252  -19.8132   20.9612 C   0  0  0  0  0  0
  -29.3048  -22.5703   20.5671 C   0  0  0  0  0  0
  -29.9723  -15.6758   22.6372 C   0  0  0  0  0  0
  -29.9909  -18.3650   21.4608 C   0  0  0  0  0  0
  -29.3638  -24.1428   20.5737 C   0  0  0  0  0  0
  -29.8799  -17.0644   20.5308 C   0  0  0  0  0  0
  -28.1577  -25.0253   20.0609 C   0  0  0  0  0  0
  -30.4157  -20.4305   20.0355 N   0  0  0  0  0  0
  -28.4837  -21.9436   21.4557 N   0  0  0  0  0  0
  -30.0239  -15.6839   21.1680 N   0  0  0  0  0  0
  -31.4751  -12.5070   19.1753 H   0  0  0  0  0  0
  -30.3500  -11.3971   19.9074 H   0  0  0  0  0  0
  -29.7866  -11.7688   17.4878 H   0  0  0  0  0  0
  -29.6526  -13.4904   17.7570 H   0  0  0  0  0  0
  -27.8745  -11.2948   18.8641 H   0  0  0  0  0  0
  -27.3804  -12.5711   17.7871 H   0  0  0  0  0  0
  -27.6684  -14.2576   19.5103 H   0  0  0  0  0  0
  -28.6876  -12.0616   21.3832 H   0  0  0  0  0  0
  -28.3950  -13.7122   21.8296 H   0  0  0  0  0  0
  -25.2785   -9.5676   22.4743 H   0  0  0  0  0  0
  -24.0032   -7.4612   22.7435 H   0  0  0  0  0  0
  -21.0840   -8.8705   19.8933 H   0  0  0  0  0  0
  -22.3683  -10.9634   19.6127 H   0  0  0  0  0  0
  -21.1963   -7.6129   23.9719 H   0  0  0  0  0  0
  -21.1554   -6.0501   25.9091 H   0  0  0  0  0  0
  -22.0582   -2.7583   23.2825 H   0  0  0  0  0  0
  -22.4118  -11.9899   22.4840 H   0  0  0  0  0  0
  -21.1098  -13.1230   22.2621 H   0  0  0  0  0  0
  -24.6827  -15.8652   20.5225 H   0  0  0  0  0  0
  -26.3051  -15.6192   20.1284 H   0  0  0  0  0  0
  -26.7237  -32.5436   23.1108 H   0  0  0  0  0  0
  -25.0326  -33.9715   25.0563 H   0  0  0  0  0  0
  -22.7138  -31.3042   21.4047 H   0  0  0  0  0  0
  -23.3749  -35.9597   23.3315 H   0  0  0  0  0  0
  -24.3593  -36.8859   22.2049 H   0  0  0  0  0  0
  -23.7212  -37.6471   23.6645 H   0  0  0  0  0  0
  -26.1013  -31.5525   20.6064 H   0  0  0  0  0  0
  -26.8389  -30.8318   22.0060 H   0  0  0  0  0  0
  -28.1101  -28.9941   21.1854 H   0  0  0  0  0  0
  -25.9659  -25.9158   19.0344 H   0  0  0  0  0  0
  -23.9587  -27.2962   19.0331 H   0  0  0  0  0  0
  -23.7640  -30.6043   19.4051 H   0  0  0  0  0  0
  -22.7514  -29.2583   19.8547 H   0  0  0  0  0  0
  -25.1281  -36.1929   25.0814 H   0  0  0  0  0  0
  -21.0010  -28.3201   24.1395 H   0  0  0  0  0  0
  -20.5690  -26.2258   23.3576 H   0  0  0  0  0  0
  -21.6655  -26.7390   22.1199 H   0  0  0  0  0  0
  -19.6931  -25.6260   21.1235 H   0  0  0  0  0  0
  -19.6721  -27.3164   20.6734 H   0  0  0  0  0  0
  -17.4227  -26.6685   21.3986 H   0  0  0  0  0  0
  -18.0314  -25.9990   22.8964 H   0  0  0  0  0  0
  -19.7947  -30.7231   24.2274 H   0  0  0  0  0  0
  -17.5025  -31.6256   24.5122 H   0  0  0  0  0  0
  -15.5364  -30.2946   23.7636 H   0  0  0  0  0  0
  -15.8680  -28.0747   22.7111 H   0  0  0  0  0  0
  -24.5937  -30.7116   25.7805 H   0  0  0  0  0  0
  -24.9027  -32.2898   26.4961 H   0  0  0  0  0  0
  -25.8122  -30.8867   27.0215 H   0  0  0  0  0  0
  -26.3007  -29.6724   24.1304 H   0  0  0  0  0  0
  -27.4243  -29.7370   25.4698 H   0  0  0  0  0  0
  -27.8819  -30.4356   23.9357 H   0  0  0  0  0  0
  -27.2721  -33.3635   26.2111 H   0  0  0  0  0  0
  -28.3914  -32.6924   25.0338 H   0  0  0  0  0  0
  -28.0795  -31.8466   26.5405 H   0  0  0  0  0  0
  -28.2601  -38.0075   24.7525 H   0  0  0  0  0  0
  -28.1044  -36.2604   24.6300 H   0  0  0  0  0  0
  -27.2301  -37.1444   25.8880 H   0  0  0  0  0  0
  -20.9350  -29.8802   21.6963 H   0  0  0  0  0  0
  -26.0162  -38.2839   24.1435 H   0  0  0  0  0  0
  -28.0258  -20.1488   22.4060 H   0  0  0  0  0  0
  -30.9253  -22.2399   19.1362 H   0  0  0  0  0  0
  -29.9803  -14.6701   23.0620 H   0  0  0  0  0  0
  -30.8369  -16.1975   23.0528 H   0  0  0  0  0  0
  -29.0629  -16.1540   22.9983 H   0  0  0  0  0  0
  -29.3688  -18.2258   22.3455 H   0  0  0  0  0  0
  -31.0102  -18.4264   21.8481 H   0  0  0  0  0  0
  -30.2482  -24.4371   20.0099 H   0  0  0  0  0  0
  -29.5737  -24.4437   21.5995 H   0  0  0  0  0  0
  -30.5913  -17.1666   19.7057 H   0  0  0  0  0  0
  -28.8937  -17.0659   20.0610 H   0  0  0  0  0  0
  -27.2708  -24.7342   20.6255 H   0  0  0  0  0  0
  -27.9621  -24.7731   19.0167 H   0  0  0  0  0  0
  1 25  1  0  0  0
  1 30  2  0  0  0
  1 82  1  0  0  0
  2  3  1  0  0  0
  2 25  1  0  0  0
  2 83  1  0  0  0
  2 84  1  0  0  0
  3  4  1  0  0  0
  3 85  1  0  0  0
  3 86  1  0  0  0
  4  5  1  0  0  0
  4 87  1  0  0  0
  4 88  1  0  0  0
  5  6  1  0  0  0
  5 26  1  0  0  0
  5 89  1  0  0  0
  6 25  1  0  0  0
  6 90  1  0  0  0
  6 91  1  0  0  0
  7  8  2  0  0  0
  7 26  1  0  0  0
  7 29  1  0  0  0
  8  9  1  0  0  0
  8 22  1  0  0  0
  9 10  1  0  0  0
  9 27  2  0  0  0
 10 11  2  0  0  0
 10 15  1  0  0  0
 11 12  1  0  0  0
 11 92  1  0  0  0
 12 13  2  0  0  0
 12 93  1  0  0  0
 13 14  1  0  0  0
 13 31  1  0  0  0
 14 15  2  0  0  0
 14 94  1  0  0  0
 15 95  1  0  0  0
 16 17  2  0  0  0
 16 21  1  0  0  0
 16 31  1  0  0  0
 17 18  1  0  0  0
 17 96  1  0  0  0
 18 19  2  0  0  0
 18 97  1  0  0  0
 19 20  1  0  0  0
 19 24  1  0  0  0
 20 21  2  0  0  0
 20 98  1  0  0  0
 21 23  1  0  0  0
 22 28  1  0  0  0
 22 32  2  0  0  0
 26 27  1  0  0  0
 28 99  1  0  0  0
 28100  1  0  0  0
 29101  1  0  0  0
 29102  1  0  0  0
 33 34  1  0  0  0
 33 66  1  0  0  0
 33 70  2  0  0  0
 34 36  1  0  0  0
 34 59  1  0  0  0
 34103  1  0  0  0
 35 44  2  0  0  0
 35 45  1  0  0  0
 35 68  1  0  0  0
 36 56  1  0  0  0
 36104  1  0  0  0
 37 39  1  0  0  0
 37 47  1  0  0  0
 37 66  1  0  0  0
 37105  1  0  0  0
 38 43  2  0  0  0
 38 46  1  0  0  0
 38 47  1  0  0  0
 39 64  1  0  0  0
 39 67  2  0  0  0
 40 52  1  0  0  0
 40 53  2  0  0  0
 40 58  1  0  0  0
 41106  1  0  0  0
 41107  1  0  0  0
 41108  1  0  0  0
 41 48  1  0  0  0
 42 43  1  0  0  0
 42 66  1  0  0  0
 42109  1  0  0  0
 42110  1  0  0  0
 43 44  1  0  0  0
 44111  1  0  0  0
 45 46  2  0  0  0
 45112  1  0  0  0
 46113  1  0  0  0
 47114  1  0  0  0
 47115  1  0  0  0
 48 56  1  0  0  0
 48 65  1  0  0  0
 48116  1  0  0  0
 49 50  1  0  0  0
 49 53  1  0  0  0
 49 64  1  0  0  0
 49117  1  0  0  0
 50 51  1  0  0  0
 50118  1  0  0  0
 50119  1  0  0  0
 51 52  1  0  0  0
 51120  1  0  0  0
 51121  1  0  0  0
 52122  1  0  0  0
 52123  1  0  0  0
 53 54  1  0  0  0
 54 55  2  0  0  0
 54124  1  0  0  0
 55 57  1  0  0  0
 55125  1  0  0  0
 56 69  2  0  0  0
 57 58  2  0  0  0
 57126  1  0  0  0
 58127  1  0  0  0
 59 60  1  0  0  0
 59 61  1  0  0  0
 59 62  1  0  0  0
 60128  1  0  0  0
 60129  1  0  0  0
 60130  1  0  0  0
 61131  1  0  0  0
 61132  1  0  0  0
 61133  1  0  0  0
 62134  1  0  0  0
 62135  1  0  0  0
 62136  1  0  0  0
 63 65  1  0  0  0
 63137  1  0  0  0
 63138  1  0  0  0
 63139  1  0  0  0
 64140  1  0  0  0
 65141  1  0  0  0
 68 79  1  0  0  0
 71 73  2  0  0  0
 71 81  1  0  0  0
 71142  1  0  0  0
 72 74  1  0  0  0
 72 80  2  0  0  0
 72143  1  0  0  0
 73 76  1  0  0  0
 73 80  1  0  0  0
 74 77  1  0  0  0
 74 81  2  0  0  0
 75 82  1  0  0  0
 75144  1  0  0  0
 75145  1  0  0  0
 75146  1  0  0  0
 76 78  1  0  0  0
 76147  1  0  0  0
 76148  1  0  0  0
 77 79  1  0  0  0
 77149  1  0  0  0
 77150  1  0  0  0
 78 82  1  0  0  0
 78151  1  0  0  0
 78152  1  0  0  0
 79153  1  0  0  0
 79154  1  0  0  0
M  ISO  4   1 100  68 101  79 101  82 100
M  END
> <chiral flag>
0

> <version>
0

> <s_m_source_file>
/data/baiqing/PycharmProjects/Reinvent-master-3.2/result/LINK_invent/BTK/process_docking_weight1_custom_sum_contain_oxygen_bond_distance_aromatic_linkinvent_7_9_3/rearranged_h_0055.sdf

> <i_m_source_file_index>
32

> <r_mmod_Potential_Energy-OPLS-2005>
258.214447021484

> <r_mmod_Stretch_Energy-OPLS-2005>
88.2754058837891

> <r_mmod_Bend_Energy-OPLS-2005>
139.015029907227

> <r_mmod_Torsional_Energy-OPLS-2005>
272.868804931641

> <r_mmod_Improper_Torsional_Energy-OPLS-2005>
7.91177463531494

> <r_mmod_Van_der_Waal_Energy-OPLS-2005>
152.004684448242

> <r_mmod_Electrostatic_Energy-OPLS-2005>
-229.699157714844

> <r_mmod_Solvation_Energy-OPLS-2005>
-215.759246826172

> <b_mmod_Minimization_Converged-OPLS-2005>
0

> <r_mmod_RMS_Derivative-OPLS-2005>
4.07680130004883

$$$$
32
                    3D
 Structure written by MMmdl.
156164  0  0  1  0            999 V2000
  -30.6368  -14.7062   20.4915 C   0  0  0  0  0  0
  -30.4277  -12.4302   19.4744 C   0  0  0  0  0  0
  -29.5101  -12.5147   18.2358 C   0  0  0  0  0  0
  -28.0362  -12.3343   18.6440 C   0  0  0  0  0  0
  -27.6454  -13.2286   19.8525 C   0  0  2  0  0  0
  -28.6876  -13.1331   20.9876 C   0  0  0  0  0  0
  -25.2527  -13.8203   20.5691 C   0  0  0  0  0  0
  -24.1799  -13.0454   20.9182 C   0  0  0  0  0  0
  -24.6375  -11.6926   20.8709 C   0  0  0  0  0  0
  -23.9060  -10.4287   21.0384 C   0  0  0  0  0  0
  -24.3615   -9.4220   21.9170 C   0  0  0  0  0  0
  -23.6294   -8.2255   22.0756 C   0  0  0  0  0  0
  -22.4270   -8.0287   21.3554 C   0  0  0  0  0  0
  -21.9901   -9.0258   20.4654 C   0  0  0  0  0  0
  -22.7229  -10.2131   20.3047 C   0  0  0  0  0  0
  -21.6860   -6.0733   22.5273 C   0  0  0  0  0  0
  -21.4024   -6.5639   23.8207 C   0  0  0  0  0  0
  -21.3659   -5.6791   24.9167 C   0  0  0  0  0  0
  -21.6046   -4.3057   24.7215 C   0  0  0  0  0  0
  -21.8823   -3.8150   23.4335 C   0  0  0  0  0  0
  -21.9199   -4.6963   22.3393 C   0  0  0  0  0  0
  -22.7813  -13.5242   21.1861 C   0  0  0  0  0  0
  -22.1668   -4.2141   21.0975 F   0  0  0  0  0  0
  -21.5618   -3.4551   25.7736 F   0  0  0  0  0  0
  -29.9953  -13.4882   20.4192 N   0  0  0  0  0  0
  -26.2946  -12.9402   20.3264 N   0  0  0  0  0  0
  -25.9305  -11.6538   20.5694 N   0  0  0  0  0  0
  -22.0461  -12.8234   22.0422 N   0  0  0  0  0  0
  -25.4249  -15.1935   20.4144 N   0  0  0  0  0  0
  -31.7937  -14.8104   20.0678 O   0  0  0  0  0  0
  -21.6654   -6.8878   21.4234 O   0  0  0  0  0  0
  -22.3481  -14.5533   20.6694 O   0  0  0  0  0  0
  -24.6324  -31.8592   23.2036 C   0  0  0  0  0  0
  -25.9156  -32.4776   23.8365 C   0  0  1  0  0  0
  -27.2036  -27.2609   20.1201 C   0  0  0  0  0  0
  -25.5961  -33.8575   24.2291 N   0  0  0  0  0  0
  -23.4267  -30.4876   21.5485 C   0  0  2  0  0  0
  -24.8684  -28.9488   20.1074 C   0  0  0  0  0  0
  -22.7510  -29.4621   22.4924 C   0  0  0  0  0  0
  -18.0295  -28.1399   22.8525 C   0  0  0  0  0  0
  -24.1487  -36.7261   23.2640 C   0  0  0  0  0  0
  -25.9769  -30.7741   21.3826 C   0  0  0  0  0  0
  -26.0441  -29.3997   20.7205 C   0  0  0  0  0  0
  -27.2156  -28.5697   20.7179 C   0  0  0  0  0  0
  -25.9999  -26.8943   19.4684 C   0  0  0  0  0  0
  -24.8524  -27.7038   19.4708 C   0  0  0  0  0  0
  -23.6407  -29.8362   20.1576 C   0  0  0  0  0  0
  -25.4116  -36.3067   24.0335 C   0  0  1  0  0  0
  -20.5909  -28.3699   23.1299 C   0  0  2  0  0  0
  -20.6789  -26.9417   22.5418 C   0  0  0  0  0  0
  -19.5735  -26.6397   21.5249 C   0  0  0  0  0  0
  -18.1918  -26.7950   22.1662 C   0  0  0  0  0  0
  -19.1556  -28.8877   23.2903 C   0  0  0  0  0  0
  -18.9461  -30.1490   23.8897 C   0  0  0  0  0  0
  -17.6454  -30.6600   24.0593 C   0  0  0  0  0  0
  -25.9061  -34.9446   23.5107 C   0  0  0  0  0  0
  -16.5348  -29.9099   23.6344 C   0  0  0  0  0  0
  -16.7282  -28.6518   23.0370 C   0  0  0  0  0  0
  -26.4502  -31.6595   25.0754 C   0  0  0  0  0  0
  -25.3740  -31.3734   26.1478 C   0  0  0  0  0  0
  -27.0335  -30.3022   24.6229 C   0  0  0  0  0  0
  -27.6057  -32.4337   25.7526 C   0  0  0  0  0  0
  -27.5565  -37.1792   24.8476 C   0  0  0  0  0  0
  -21.4209  -29.3050   22.3683 N   0  0  0  0  0  0
  -26.4283  -37.3772   23.9413 N   0  0  0  0  0  0
  -24.6983  -31.0571   22.1007 N   0  0  0  0  0  0
  -23.4235  -28.8150   23.2994 O   0  0  0  0  0  0
  -28.2813  -26.3371   20.1672 O   0  0  0  0  0  0
  -26.5604  -34.8917   22.4658 O   0  0  0  0  0  0
  -23.5464  -32.1386   23.7327 O   0  0  0  0  0  0
  -30.6490  -19.4086   20.8130 C   0  0  0  0  0  0
  -28.6877  -19.5230   19.9396 C   0  0  0  0  0  0
  -29.6634  -18.5668   20.2062 C   0  0  0  0  0  0
  -26.9811  -21.9714   19.5674 C   0  0  0  0  0  0
  -29.5932  -16.2031   22.1469 C   0  0  0  0  0  0
  -29.7236  -17.0253   19.7930 C   0  0  0  0  0  0
  -28.9327  -23.5925   20.1831 C   0  0  0  0  0  0
  -27.9324  -24.8699   20.2116 C   0  0  0  0  0  0
  -28.2595  -22.1284   20.4192 C   0  0  2  0  0  0
  -30.2953  -20.7051   20.9180 N   0  0  0  0  0  0
  -29.0706  -20.8269   20.3496 N   0  0  0  0  0  0
  -29.8944  -15.8550   20.7583 N   0  0  0  0  0  0
  -31.4735  -12.5269   19.1782 H   0  0  0  0  0  0
  -30.3500  -11.4476   19.9423 H   0  0  0  0  0  0
  -29.7920  -11.7577   17.5044 H   0  0  0  0  0  0
  -29.6418  -13.4820   17.7489 H   0  0  0  0  0  0
  -27.8916  -11.2840   18.9023 H   0  0  0  0  0  0
  -27.3798  -12.5296   17.7947 H   0  0  0  0  0  0
  -27.6513  -14.2556   19.4866 H   0  0  0  0  0  0
  -28.7133  -12.1219   21.3955 H   0  0  0  0  0  0
  -28.4129  -13.7838   21.8160 H   0  0  0  0  0  0
  -25.2761   -9.5706   22.4742 H   0  0  0  0  0  0
  -24.0002   -7.4648   22.7480 H   0  0  0  0  0  0
  -21.0824   -8.8763   19.8965 H   0  0  0  0  0  0
  -22.3678  -10.9656   19.6139 H   0  0  0  0  0  0
  -21.2021   -7.6151   23.9706 H   0  0  0  0  0  0
  -21.1480   -6.0524   25.9067 H   0  0  0  0  0  0
  -22.0605   -2.7611   23.2838 H   0  0  0  0  0  0
  -22.4058  -11.9894   22.4808 H   0  0  0  0  0  0
  -21.1066  -13.1229   22.2628 H   0  0  0  0  0  0
  -24.6646  -15.8528   20.5452 H   0  0  0  0  0  0
  -26.2915  -15.6369   20.1376 H   0  0  0  0  0  0
  -26.7255  -32.5427   23.1131 H   0  0  0  0  0  0
  -25.0176  -33.9723   25.0479 H   0  0  0  0  0  0
  -22.7213  -31.3107   21.4142 H   0  0  0  0  0  0
  -23.3753  -35.9595   23.3323 H   0  0  0  0  0  0
  -24.3561  -36.8836   22.2045 H   0  0  0  0  0  0
  -23.7246  -37.6478   23.6641 H   0  0  0  0  0  0
  -26.1204  -31.5368   20.6142 H   0  0  0  0  0  0
  -26.8550  -30.8174   22.0166 H   0  0  0  0  0  0
  -28.1103  -28.9121   21.2179 H   0  0  0  0  0  0
  -25.8872  -25.9653   18.9386 H   0  0  0  0  0  0
  -23.9569  -27.3561   18.9726 H   0  0  0  0  0  0
  -23.7645  -30.6228   19.4100 H   0  0  0  0  0  0
  -22.7583  -29.2717   19.8496 H   0  0  0  0  0  0
  -25.1305  -36.1910   25.0834 H   0  0  0  0  0  0
  -21.0023  -28.3254   24.1410 H   0  0  0  0  0  0
  -20.5736  -26.2287   23.3606 H   0  0  0  0  0  0
  -21.6643  -26.7453   22.1178 H   0  0  0  0  0  0
  -19.6869  -25.6312   21.1253 H   0  0  0  0  0  0
  -19.6673  -27.3239   20.6801 H   0  0  0  0  0  0
  -17.4195  -26.6756   21.4048 H   0  0  0  0  0  0
  -18.0280  -26.0089   22.9048 H   0  0  0  0  0  0
  -19.7925  -30.7352   24.2221 H   0  0  0  0  0  0
  -17.4984  -31.6269   24.5211 H   0  0  0  0  0  0
  -15.5344  -30.3005   23.7642 H   0  0  0  0  0  0
  -15.8680  -28.0836   22.7072 H   0  0  0  0  0  0
  -24.5939  -30.7045   25.7804 H   0  0  0  0  0  0
  -24.8905  -32.2899   26.4874 H   0  0  0  0  0  0
  -25.8079  -30.8939   27.0262 H   0  0  0  0  0  0
  -26.2908  -29.6793   24.1231 H   0  0  0  0  0  0
  -27.3978  -29.7256   25.4732 H   0  0  0  0  0  0
  -27.8816  -30.4287   23.9502 H   0  0  0  0  0  0
  -27.2672  -33.3648   26.2080 H   0  0  0  0  0  0
  -28.3886  -32.6863   25.0366 H   0  0  0  0  0  0
  -28.0727  -31.8487   26.5448 H   0  0  0  0  0  0
  -28.2614  -38.0055   24.7481 H   0  0  0  0  0  0
  -28.1024  -36.2582   24.6371 H   0  0  0  0  0  0
  -27.2259  -37.1522   25.8872 H   0  0  0  0  0  0
  -20.9363  -29.8765   21.6906 H   0  0  0  0  0  0
  -26.0143  -38.2839   24.1423 H   0  0  0  0  0  0
  -31.6337  -19.1223   21.1581 H   0  0  0  0  0  0
  -27.7322  -19.3688   19.4603 H   0  0  0  0  0  0
  -26.2857  -22.7967   19.7103 H   0  0  0  0  0  0
  -26.4190  -21.0804   19.8477 H   0  0  0  0  0  0
  -27.2126  -21.8990   18.5049 H   0  0  0  0  0  0
  -28.5587  -16.5373   22.2266 H   0  0  0  0  0  0
  -30.2378  -17.0116   22.4917 H   0  0  0  0  0  0
  -29.7374  -15.3704   22.8377 H   0  0  0  0  0  0
  -30.4914  -16.9121   19.0249 H   0  0  0  0  0  0
  -28.8031  -16.7840   19.2596 H   0  0  0  0  0  0
  -29.7143  -23.7375   20.9283 H   0  0  0  0  0  0
  -29.4443  -23.5912   19.2195 H   0  0  0  0  0  0
  -27.3212  -24.6701   19.3418 H   0  0  0  0  0  0
  -27.2858  -24.7427   21.0823 H   0  0  0  0  0  0
  -27.9029  -22.1631   21.4481 H   0  0  0  0  0  0
  1 25  1  0  0  0
  1 30  2  0  0  0
  1 82  1  0  0  0
  2  3  1  0  0  0
  2 25  1  0  0  0
  2 83  1  0  0  0
  2 84  1  0  0  0
  3  4  1  0  0  0
  3 85  1  0  0  0
  3 86  1  0  0  0
  4  5  1  0  0  0
  4 87  1  0  0  0
  4 88  1  0  0  0
  5  6  1  0  0  0
  5 26  1  0  0  0
  5 89  1  0  0  0
  6 25  1  0  0  0
  6 90  1  0  0  0
  6 91  1  0  0  0
  7  8  2  0  0  0
  7 26  1  0  0  0
  7 29  1  0  0  0
  8  9  1  0  0  0
  8 22  1  0  0  0
  9 10  1  0  0  0
  9 27  2  0  0  0
 10 11  2  0  0  0
 10 15  1  0  0  0
 11 12  1  0  0  0
 11 92  1  0  0  0
 12 13  2  0  0  0
 12 93  1  0  0  0
 13 14  1  0  0  0
 13 31  1  0  0  0
 14 15  2  0  0  0
 14 94  1  0  0  0
 15 95  1  0  0  0
 16 17  2  0  0  0
 16 21  1  0  0  0
 16 31  1  0  0  0
 17 18  1  0  0  0
 17 96  1  0  0  0
 18 19  2  0  0  0
 18 97  1  0  0  0
 19 20  1  0  0  0
 19 24  1  0  0  0
 20 21  2  0  0  0
 20 98  1  0  0  0
 21 23  1  0  0  0
 22 28  1  0  0  0
 22 32  2  0  0  0
 26 27  1  0  0  0
 28 99  1  0  0  0
 28100  1  0  0  0
 29101  1  0  0  0
 29102  1  0  0  0
 33 34  1  0  0  0
 33 66  1  0  0  0
 33 70  2  0  0  0
 34 36  1  0  0  0
 34 59  1  0  0  0
 34103  1  0  0  0
 35 44  2  0  0  0
 35 45  1  0  0  0
 35 68  1  0  0  0
 36 56  1  0  0  0
 36104  1  0  0  0
 37 39  1  0  0  0
 37 47  1  0  0  0
 37 66  1  0  0  0
 37105  1  0  0  0
 38 43  2  0  0  0
 38 46  1  0  0  0
 38 47  1  0  0  0
 39 64  1  0  0  0
 39 67  2  0  0  0
 40 52  1  0  0  0
 40 53  2  0  0  0
 40 58  1  0  0  0
 41106  1  0  0  0
 41107  1  0  0  0
 41108  1  0  0  0
 41 48  1  0  0  0
 42 43  1  0  0  0
 42 66  1  0  0  0
 42109  1  0  0  0
 42110  1  0  0  0
 43 44  1  0  0  0
 44111  1  0  0  0
 45 46  2  0  0  0
 45112  1  0  0  0
 46113  1  0  0  0
 47114  1  0  0  0
 47115  1  0  0  0
 48 56  1  0  0  0
 48 65  1  0  0  0
 48116  1  0  0  0
 49 50  1  0  0  0
 49 53  1  0  0  0
 49 64  1  0  0  0
 49117  1  0  0  0
 50 51  1  0  0  0
 50118  1  0  0  0
 50119  1  0  0  0
 51 52  1  0  0  0
 51120  1  0  0  0
 51121  1  0  0  0
 52122  1  0  0  0
 52123  1  0  0  0
 53 54  1  0  0  0
 54 55  2  0  0  0
 54124  1  0  0  0
 55 57  1  0  0  0
 55125  1  0  0  0
 56 69  2  0  0  0
 57 58  2  0  0  0
 57126  1  0  0  0
 58127  1  0  0  0
 59 60  1  0  0  0
 59 61  1  0  0  0
 59 62  1  0  0  0
 60128  1  0  0  0
 60129  1  0  0  0
 60130  1  0  0  0
 61131  1  0  0  0
 61132  1  0  0  0
 61133  1  0  0  0
 62134  1  0  0  0
 62135  1  0  0  0
 62136  1  0  0  0
 63 65  1  0  0  0
 63137  1  0  0  0
 63138  1  0  0  0
 63139  1  0  0  0
 64140  1  0  0  0
 65141  1  0  0  0
 68 78  1  0  0  0
 71 73  1  0  0  0
 71 80  2  0  0  0
 71142  1  0  0  0
 72 73  2  0  0  0
 72 81  1  0  0  0
 72143  1  0  0  0
 73 76  1  0  0  0
 74144  1  0  0  0
 74145  1  0  0  0
 74146  1  0  0  0
 74 79  1  0  0  0
 75 82  1  0  0  0
 75147  1  0  0  0
 75148  1  0  0  0
 75149  1  0  0  0
 76 82  1  0  0  0
 76150  1  0  0  0
 76151  1  0  0  0
 77 78  1  0  0  0
 77 79  1  0  0  0
 77152  1  0  0  0
 77153  1  0  0  0
 78154  1  0  0  0
 78155  1  0  0  0
 79 81  1  0  0  0
 79156  1  0  0  0
 80 81  1  0  0  0
M  ISO  4   1 100  68 101  78 101  82 100
M  END
> <chiral flag>
0

> <version>
0

> <s_m_source_file>
/data/baiqing/PycharmProjects/Reinvent-master-3.2/result/LINK_invent/BTK/process_docking_weight1_custom_sum_contain_oxygen_bond_distance_aromatic_linkinvent_7_9_3/rearranged_h_0055.sdf

> <i_m_source_file_index>
33

> <r_mmod_Potential_Energy-OPLS-2005>
314.003845214844

> <r_mmod_Stretch_Energy-OPLS-2005>
123.821128845215

> <r_mmod_Bend_Energy-OPLS-2005>
183.110534667969

> <r_mmod_Torsional_Energy-OPLS-2005>
303.379852294922

> <r_mmod_Improper_Torsional_Energy-OPLS-2005>
9.3901538848877

> <r_mmod_Van_der_Waal_Energy-OPLS-2005>
127.400650024414

> <r_mmod_Electrostatic_Energy-OPLS-2005>
-296.587158203125

> <r_mmod_Solvation_Energy-OPLS-2005>
-213.569763183594

> <b_mmod_Minimization_Converged-OPLS-2005>
0

> <r_mmod_RMS_Derivative-OPLS-2005>
3.12958216667175

$$$$
33
                    3D
 Structure written by MMmdl.
154162  0  0  1  0            999 V2000
  -30.5196  -14.9981   20.4793 C   0  0  0  0  0  0
  -30.4449  -12.6397   19.5043 C   0  0  0  0  0  0
  -29.5202  -12.5478   18.2653 C   0  0  0  0  0  0
  -28.0534  -12.3084   18.6717 C   0  0  0  0  0  0
  -27.6220  -13.2394   19.8317 C   0  0  2  0  0  0
  -28.6576  -13.2272   20.9695 C   0  0  0  0  0  0
  -25.2398  -13.8202   20.5671 C   0  0  0  0  0  0
  -24.1714  -13.0447   20.9222 C   0  0  0  0  0  0
  -24.6324  -11.6921   20.8752 C   0  0  0  0  0  0
  -23.9018  -10.4298   21.0427 C   0  0  0  0  0  0
  -24.3581   -9.4218   21.9200 C   0  0  0  0  0  0
  -23.6281   -8.2231   22.0732 C   0  0  0  0  0  0
  -22.4263   -8.0267   21.3523 C   0  0  0  0  0  0
  -21.9897   -9.0245   20.4632 C   0  0  0  0  0  0
  -22.7198  -10.2138   20.3072 C   0  0  0  0  0  0
  -21.6853   -6.0723   22.5259 C   0  0  0  0  0  0
  -21.4035   -6.5625   23.8198 C   0  0  0  0  0  0
  -21.3656   -5.6775   24.9148 C   0  0  0  0  0  0
  -21.6052   -4.3045   24.7197 C   0  0  0  0  0  0
  -21.8825   -3.8127   23.4320 C   0  0  0  0  0  0
  -21.9206   -4.6948   22.3373 C   0  0  0  0  0  0
  -22.7732  -13.5227   21.1908 C   0  0  0  0  0  0
  -22.1665   -4.2135   21.0945 F   0  0  0  0  0  0
  -21.5630   -3.4526   25.7707 F   0  0  0  0  0  0
  -29.9326  -13.7196   20.4104 N   0  0  0  0  0  0
  -26.2798  -12.9409   20.3176 N   0  0  0  0  0  0
  -25.9236  -11.6552   20.5702 N   0  0  0  0  0  0
  -22.0382  -12.8219   22.0461 N   0  0  0  0  0  0
  -25.4123  -15.1923   20.4109 N   0  0  0  0  0  0
  -31.6838  -15.0718   20.0617 O   0  0  0  0  0  0
  -21.6633   -6.8868   21.4224 O   0  0  0  0  0  0
  -22.3415  -14.5549   20.6787 O   0  0  0  0  0  0
  -24.6426  -31.8442   23.1875 C   0  0  0  0  0  0
  -25.9199  -32.4675   23.8267 C   0  0  1  0  0  0
  -27.2176  -27.1342   20.1619 C   0  0  0  0  0  0
  -25.5987  -33.8490   24.2186 N   0  0  0  0  0  0
  -23.4446  -30.4613   21.5359 C   0  0  2  0  0  0
  -24.8953  -28.8890   20.1104 C   0  0  0  0  0  0
  -22.7560  -29.4527   22.4871 C   0  0  0  0  0  0
  -18.0302  -28.1389   22.8467 C   0  0  0  0  0  0
  -24.1496  -36.7250   23.2640 C   0  0  0  0  0  0
  -25.9989  -30.7160   21.3877 C   0  0  0  0  0  0
  -26.0720  -29.3272   20.7318 C   0  0  0  0  0  0
  -27.2328  -28.4677   20.7392 C   0  0  0  0  0  0
  -26.0206  -26.8001   19.4908 C   0  0  0  0  0  0
  -24.8839  -27.6401   19.4720 C   0  0  0  0  0  0
  -23.6712  -29.7929   20.1534 C   0  0  0  0  0  0
  -25.4124  -36.3019   24.0307 C   0  0  1  0  0  0
  -20.5912  -28.3700   23.1256 C   0  0  2  0  0  0
  -20.6796  -26.9410   22.5417 C   0  0  0  0  0  0
  -19.5783  -26.6383   21.5199 C   0  0  0  0  0  0
  -18.1944  -26.7942   22.1594 C   0  0  0  0  0  0
  -19.1558  -28.8860   23.2859 C   0  0  0  0  0  0
  -18.9484  -30.1471   23.8866 C   0  0  0  0  0  0
  -17.6475  -30.6581   24.0562 C   0  0  0  0  0  0
  -25.9072  -34.9398   23.5052 C   0  0  0  0  0  0
  -16.5366  -29.9062   23.6350 C   0  0  0  0  0  0
  -16.7290  -28.6492   23.0346 C   0  0  0  0  0  0
  -26.4545  -31.6537   25.0690 C   0  0  0  0  0  0
  -25.3749  -31.3722   26.1396 C   0  0  0  0  0  0
  -27.0385  -30.2934   24.6238 C   0  0  0  0  0  0
  -27.6085  -32.4297   25.7471 C   0  0  0  0  0  0
  -27.5566  -37.1773   24.8468 C   0  0  0  0  0  0
  -21.4255  -29.3021   22.3629 N   0  0  0  0  0  0
  -26.4280  -37.3732   23.9403 N   0  0  0  0  0  0
  -24.7148  -31.0288   22.0931 N   0  0  0  0  0  0
  -23.4208  -28.8071   23.3013 O   0  0  0  0  0  0
  -28.2816  -26.1580   20.1959 O   0  0  0  0  0  0
  -26.5650  -34.8894   22.4612 O   0  0  0  0  0  0
  -23.5555  -32.1347   23.7090 O   0  0  0  0  0  0
  -28.6005  -20.4267   22.4910 C   0  0  0  0  0  0
  -29.3531  -20.4857   19.9745 C   0  0  0  0  0  0
  -28.9224  -21.7542   20.6244 C   0  0  0  0  0  0
  -29.3812  -19.1759   20.6842 C   0  0  0  0  0  0
  -29.7952  -20.5468   18.5225 C   0  0  0  0  0  0
  -29.1066  -16.1910   22.0884 C   0  0  0  0  0  0
  -29.0310  -23.3233   20.0884 C   0  0  0  0  0  0
  -29.9158  -17.6729   20.1513 C   0  0  0  0  0  0
  -28.0372  -24.6357   20.4792 C   0  0  0  0  0  0
  -28.5759  -21.6319   21.9177 N   0  0  0  0  0  0
  -28.9727  -19.2562   21.9636 N   0  0  0  0  0  0
  -29.7848  -16.2003   20.7873 N   0  0  0  0  0  0
  -31.4646  -12.8313   19.1679 H   0  0  0  0  0  0
  -30.4940  -11.6895   20.0382 H   0  0  0  0  0  0
  -29.8624  -11.7591   17.5921 H   0  0  0  0  0  0
  -29.5841  -13.4799   17.7075 H   0  0  0  0  0  0
  -27.9547  -11.2681   18.9845 H   0  0  0  0  0  0
  -27.3964  -12.4304   17.8099 H   0  0  0  0  0  0
  -27.5968  -14.2483   19.4200 H   0  0  0  0  0  0
  -28.7649  -12.2148   21.3579 H   0  0  0  0  0  0
  -28.2831  -13.8119   21.8023 H   0  0  0  0  0  0
  -25.2715   -9.5694   22.4790 H   0  0  0  0  0  0
  -23.9989   -7.4624   22.7448 H   0  0  0  0  0  0
  -21.0816   -8.8771   19.8940 H   0  0  0  0  0  0
  -22.3647  -10.9679   19.6183 H   0  0  0  0  0  0
  -21.2051   -7.6136   23.9688 H   0  0  0  0  0  0
  -21.1459   -6.0499   25.9048 H   0  0  0  0  0  0
  -22.0613   -2.7585   23.2813 H   0  0  0  0  0  0
  -22.4017  -11.9900   22.4880 H   0  0  0  0  0  0
  -21.0996  -13.1246   22.2695 H   0  0  0  0  0  0
  -24.6648  -15.8626   20.5539 H   0  0  0  0  0  0
  -26.2780  -15.6208   20.1095 H   0  0  0  0  0  0
  -26.7229  -32.5286   23.0959 H   0  0  0  0  0  0
  -25.0136  -33.9612   25.0343 H   0  0  0  0  0  0
  -22.7453  -31.2855   21.3817 H   0  0  0  0  0  0
  -23.3757  -35.9582   23.3288 H   0  0  0  0  0  0
  -24.3613  -36.8912   22.2069 H   0  0  0  0  0  0
  -23.7256  -37.6444   23.6678 H   0  0  0  0  0  0
  -26.1508  -31.4699   20.6146 H   0  0  0  0  0  0
  -26.8706  -30.7705   22.0276 H   0  0  0  0  0  0
  -28.1281  -28.8031   21.2466 H   0  0  0  0  0  0
  -25.9438  -25.8567   18.9713 H   0  0  0  0  0  0
  -23.9916  -27.3100   18.9563 H   0  0  0  0  0  0
  -23.8052  -30.5689   19.3996 H   0  0  0  0  0  0
  -22.7868  -29.2344   19.8428 H   0  0  0  0  0  0
  -25.1301  -36.1850   25.0800 H   0  0  0  0  0  0
  -20.9996  -28.3264   24.1373 H   0  0  0  0  0  0
  -20.5707  -26.2316   23.3634 H   0  0  0  0  0  0
  -21.6665  -26.7409   22.1215 H   0  0  0  0  0  0
  -19.6957  -25.6293   21.1251 H   0  0  0  0  0  0
  -19.6758  -27.3190   20.6733 H   0  0  0  0  0  0
  -17.4233  -26.6703   21.3986 H   0  0  0  0  0  0
  -18.0334  -26.0076   22.8988 H   0  0  0  0  0  0
  -19.7967  -30.7301   24.2211 H   0  0  0  0  0  0
  -17.5014  -31.6261   24.5165 H   0  0  0  0  0  0
  -15.5369  -30.2937   23.7680 H   0  0  0  0  0  0
  -15.8700  -28.0802   22.7037 H   0  0  0  0  0  0
  -24.5927  -30.7058   25.7719 H   0  0  0  0  0  0
  -24.8930  -32.2898   26.4769 H   0  0  0  0  0  0
  -25.8066  -30.8940   27.0195 H   0  0  0  0  0  0
  -26.2974  -29.6667   24.1258 H   0  0  0  0  0  0
  -27.4025  -29.7212   25.4783 H   0  0  0  0  0  0
  -27.8876  -30.4167   23.9517 H   0  0  0  0  0  0
  -27.2672  -33.3609   26.1997 H   0  0  0  0  0  0
  -28.3911  -32.6846   25.0310 H   0  0  0  0  0  0
  -28.0708  -31.8463   26.5441 H   0  0  0  0  0  0
  -28.2563  -38.0082   24.7496 H   0  0  0  0  0  0
  -28.1083  -36.2617   24.6299 H   0  0  0  0  0  0
  -27.2301  -37.1423   25.8878 H   0  0  0  0  0  0
  -20.9459  -29.8770   21.6829 H   0  0  0  0  0  0
  -26.0159  -38.2799   24.1415 H   0  0  0  0  0  0
  -28.2885  -20.3947   23.5229 H   0  0  0  0  0  0
  -28.9268  -20.4561   17.8668 H   0  0  0  0  0  0
  -30.4879  -19.7438   18.2783 H   0  0  0  0  0  0
  -30.2932  -21.4897   18.2913 H   0  0  0  0  0  0
  -29.3946  -17.0280   22.7133 H   0  0  0  0  0  0
  -29.3932  -15.3420   22.7088 H   0  0  0  0  0  0
  -28.0227  -16.1922   21.9658 H   0  0  0  0  0  0
  -29.0305  -23.2776   19.0016 H   0  0  0  0  0  0
  -30.0459  -23.6225   20.3474 H   0  0  0  0  0  0
  -30.9815  -17.8101   19.9724 H   0  0  0  0  0  0
  -29.4909  -17.5742   19.1508 H   0  0  0  0  0  0
  -27.9476  -24.6038   21.5649 H   0  0  0  0  0  0
  -27.0458  -24.3739   20.1190 H   0  0  0  0  0  0
  1 25  1  0  0  0
  1 30  2  0  0  0
  1 82  1  0  0  0
  2  3  1  0  0  0
  2 25  1  0  0  0
  2 83  1  0  0  0
  2 84  1  0  0  0
  3  4  1  0  0  0
  3 85  1  0  0  0
  3 86  1  0  0  0
  4  5  1  0  0  0
  4 87  1  0  0  0
  4 88  1  0  0  0
  5  6  1  0  0  0
  5 26  1  0  0  0
  5 89  1  0  0  0
  6 25  1  0  0  0
  6 90  1  0  0  0
  6 91  1  0  0  0
  7  8  2  0  0  0
  7 26  1  0  0  0
  7 29  1  0  0  0
  8  9  1  0  0  0
  8 22  1  0  0  0
  9 10  1  0  0  0
  9 27  2  0  0  0
 10 11  2  0  0  0
 10 15  1  0  0  0
 11 12  1  0  0  0
 11 92  1  0  0  0
 12 13  2  0  0  0
 12 93  1  0  0  0
 13 14  1  0  0  0
 13 31  1  0  0  0
 14 15  2  0  0  0
 14 94  1  0  0  0
 15 95  1  0  0  0
 16 17  2  0  0  0
 16 21  1  0  0  0
 16 31  1  0  0  0
 17 18  1  0  0  0
 17 96  1  0  0  0
 18 19  2  0  0  0
 18 97  1  0  0  0
 19 20  1  0  0  0
 19 24  1  0  0  0
 20 21  2  0  0  0
 20 98  1  0  0  0
 21 23  1  0  0  0
 22 28  1  0  0  0
 22 32  2  0  0  0
 26 27  1  0  0  0
 28 99  1  0  0  0
 28100  1  0  0  0
 29101  1  0  0  0
 29102  1  0  0  0
 33 34  1  0  0  0
 33 66  1  0  0  0
 33 70  2  0  0  0
 34 36  1  0  0  0
 34 59  1  0  0  0
 34103  1  0  0  0
 35 44  2  0  0  0
 35 45  1  0  0  0
 35 68  1  0  0  0
 36 56  1  0  0  0
 36104  1  0  0  0
 37 39  1  0  0  0
 37 47  1  0  0  0
 37 66  1  0  0  0
 37105  1  0  0  0
 38 43  2  0  0  0
 38 46  1  0  0  0
 38 47  1  0  0  0
 39 64  1  0  0  0
 39 67  2  0  0  0
 40 52  1  0  0  0
 40 53  2  0  0  0
 40 58  1  0  0  0
 41106  1  0  0  0
 41107  1  0  0  0
 41108  1  0  0  0
 41 48  1  0  0  0
 42 43  1  0  0  0
 42 66  1  0  0  0
 42109  1  0  0  0
 42110  1  0  0  0
 43 44  1  0  0  0
 44111  1  0  0  0
 45 46  2  0  0  0
 45112  1  0  0  0
 46113  1  0  0  0
 47114  1  0  0  0
 47115  1  0  0  0
 48 56  1  0  0  0
 48 65  1  0  0  0
 48116  1  0  0  0
 49 50  1  0  0  0
 49 53  1  0  0  0
 49 64  1  0  0  0
 49117  1  0  0  0
 50 51  1  0  0  0
 50118  1  0  0  0
 50119  1  0  0  0
 51 52  1  0  0  0
 51120  1  0  0  0
 51121  1  0  0  0
 52122  1  0  0  0
 52123  1  0  0  0
 53 54  1  0  0  0
 54 55  2  0  0  0
 54124  1  0  0  0
 55 57  1  0  0  0
 55125  1  0  0  0
 56 69  2  0  0  0
 57 58  2  0  0  0
 57126  1  0  0  0
 58127  1  0  0  0
 59 60  1  0  0  0
 59 61  1  0  0  0
 59 62  1  0  0  0
 60128  1  0  0  0
 60129  1  0  0  0
 60130  1  0  0  0
 61131  1  0  0  0
 61132  1  0  0  0
 61133  1  0  0  0
 62134  1  0  0  0
 62135  1  0  0  0
 62136  1  0  0  0
 63 65  1  0  0  0
 63137  1  0  0  0
 63138  1  0  0  0
 63139  1  0  0  0
 64140  1  0  0  0
 65141  1  0  0  0
 68 79  1  0  0  0
 71 80  2  0  0  0
 71 81  1  0  0  0
 71142  1  0  0  0
 72 73  2  0  0  0
 72 74  1  0  0  0
 72 75  1  0  0  0
 73 77  1  0  0  0
 73 80  1  0  0  0
 74 78  1  0  0  0
 74 81  2  0  0  0
 75143  1  0  0  0
 75144  1  0  0  0
 75145  1  0  0  0
 76 82  1  0  0  0
 76146  1  0  0  0
 76147  1  0  0  0
 76148  1  0  0  0
 77 79  1  0  0  0
 77149  1  0  0  0
 77150  1  0  0  0
 78 82  1  0  0  0
 78151  1  0  0  0
 78152  1  0  0  0
 79153  1  0  0  0
 79154  1  0  0  0
M  ISO  4   1 100  68 101  79 101  82 100
M  END
> <chiral flag>
0

> <version>
0

> <s_m_source_file>
/data/baiqing/PycharmProjects/Reinvent-master-3.2/result/LINK_invent/BTK/process_docking_weight1_custom_sum_contain_oxygen_bond_distance_aromatic_linkinvent_7_9_3/rearranged_h_0055.sdf

> <i_m_source_file_index>
34

> <r_mmod_Potential_Energy-OPLS-2005>
239.530303955078

> <r_mmod_Stretch_Energy-OPLS-2005>
292.1953125

> <r_mmod_Bend_Energy-OPLS-2005>
279.866455078125

> <r_mmod_Torsional_Energy-OPLS-2005>
263.955291748047

> <r_mmod_Improper_Torsional_Energy-OPLS-2005>
6.46103715896606

> <r_mmod_Van_der_Waal_Energy-OPLS-2005>
151.785614013672

> <r_mmod_Electrostatic_Energy-OPLS-2005>
-733.932434082031

> <r_mmod_Solvation_Energy-OPLS-2005>
-225.224182128906

> <b_mmod_Minimization_Converged-OPLS-2005>
0

> <r_mmod_RMS_Derivative-OPLS-2005>
3.7046160697937

$$$$
34
                    3D
 Structure written by MMmdl.
151159  0  0  1  0            999 V2000
  -30.3962  -15.3959   20.3363 C   0  0  0  0  0  0
  -30.4343  -12.8952   19.5498 C   0  0  0  0  0  0
  -29.5430  -12.6083   18.3117 C   0  0  0  0  0  0
  -28.1027  -12.2986   18.7467 C   0  0  0  0  0  0
  -27.6092  -13.2885   19.8295 C   0  0  2  0  0  0
  -28.6367  -13.5186   20.9636 C   0  0  0  0  0  0
  -25.2381  -13.8285   20.5776 C   0  0  0  0  0  0
  -24.1749  -13.0462   20.9285 C   0  0  0  0  0  0
  -24.6405  -11.6963   20.8770 C   0  0  0  0  0  0
  -23.9105  -10.4312   21.0419 C   0  0  0  0  0  0
  -24.3653   -9.4221   21.9193 C   0  0  0  0  0  0
  -23.6310   -8.2261   22.0765 C   0  0  0  0  0  0
  -22.4286   -8.0304   21.3557 C   0  0  0  0  0  0
  -21.9940   -9.0281   20.4657 C   0  0  0  0  0  0
  -22.7282  -10.2152   20.3069 C   0  0  0  0  0  0
  -21.6852   -6.0757   22.5290 C   0  0  0  0  0  0
  -21.4012   -6.5645   23.8233 C   0  0  0  0  0  0
  -21.3660   -5.6786   24.9184 C   0  0  0  0  0  0
  -21.6041   -4.3052   24.7219 C   0  0  0  0  0  0
  -21.8817   -3.8159   23.4334 C   0  0  0  0  0  0
  -21.9190   -4.6989   22.3402 C   0  0  0  0  0  0
  -22.7760  -13.5206   21.1901 C   0  0  0  0  0  0
  -22.1662   -4.2173   21.0981 F   0  0  0  0  0  0
  -21.5615   -3.4534   25.7732 F   0  0  0  0  0  0
  -29.8558  -14.0606   20.3362 N   0  0  0  0  0  0
  -26.2815  -12.9577   20.3276 N   0  0  0  0  0  0
  -25.9349  -11.6657   20.5742 N   0  0  0  0  0  0
  -22.0401  -12.8203   22.0460 N   0  0  0  0  0  0
  -25.3969  -15.2040   20.4160 N   0  0  0  0  0  0
  -31.6059  -15.3710   20.0567 O   0  0  0  0  0  0
  -21.6643   -6.8904   21.4249 O   0  0  0  0  0  0
  -22.3435  -14.5499   20.6724 O   0  0  0  0  0  0
  -24.6699  -31.8156   23.1641 C   0  0  0  0  0  0
  -25.9343  -32.4546   23.8132 C   0  0  1  0  0  0
  -27.2115  -26.8486   20.1860 C   0  0  0  0  0  0
  -25.5981  -33.8363   24.2026 N   0  0  0  0  0  0
  -23.4891  -30.4258   21.5135 C   0  0  2  0  0  0
  -24.9423  -28.8003   20.1111 C   0  0  0  0  0  0
  -22.7694  -29.4427   22.4734 C   0  0  0  0  0  0
  -18.0333  -28.1454   22.8442 C   0  0  0  0  0  0
  -24.1498  -36.7194   23.2648 C   0  0  0  0  0  0
  -26.0621  -30.5959   21.4061 C   0  0  0  0  0  0
  -26.1284  -29.1774   20.7522 C   0  0  0  0  0  0
  -27.2554  -28.2244   20.7658 C   0  0  0  0  0  0
  -26.0001  -26.6498   19.4840 C   0  0  0  0  0  0
  -24.9078  -27.5590   19.4565 C   0  0  0  0  0  0
  -23.7326  -29.7375   20.1430 C   0  0  0  0  0  0
  -25.4139  -36.2947   24.0293 C   0  0  1  0  0  0
  -20.5955  -28.3816   23.1146 C   0  0  2  0  0  0
  -20.6818  -26.9484   22.5396 C   0  0  0  0  0  0
  -19.5796  -26.6405   21.5218 C   0  0  0  0  0  0
  -18.1976  -26.7981   22.1609 C   0  0  0  0  0  0
  -19.1594  -28.8960   23.2790 C   0  0  0  0  0  0
  -18.9497  -30.1537   23.8847 C   0  0  0  0  0  0
  -17.6490  -30.6629   24.0572 C   0  0  0  0  0  0
  -25.9087  -34.9332   23.4989 C   0  0  0  0  0  0
  -16.5379  -29.9115   23.6355 C   0  0  0  0  0  0
  -16.7317  -28.6546   23.0354 C   0  0  0  0  0  0
  -26.4571  -31.6513   25.0684 C   0  0  0  0  0  0
  -25.3669  -31.3783   26.1315 C   0  0  0  0  0  0
  -27.0472  -30.2864   24.6480 C   0  0  0  0  0  0
  -27.6048  -32.4349   25.7482 C   0  0  0  0  0  0
  -27.5570  -37.1754   24.8464 C   0  0  0  0  0  0
  -21.4361  -29.3075   22.3474 N   0  0  0  0  0  0
  -26.4278  -37.3693   23.9403 N   0  0  0  0  0  0
  -24.7626  -30.9744   22.0815 N   0  0  0  0  0  0
  -23.4204  -28.8007   23.3020 O   0  0  0  0  0  0
  -28.1762  -25.6854   20.2838 O   0  0  0  0  0  0
  -26.5724  -34.8895   22.4597 O   0  0  0  0  0  0
  -23.5745  -32.1163   23.6672 O   0  0  0  0  0  0
  -29.5192  -22.0807   21.3779 C   0  0  0  0  0  0
  -28.6649  -22.4801   20.3544 C   0  0  0  0  0  0
  -29.2623  -19.9757   20.3465 C   0  0  0  0  0  0
  -30.9147  -18.4268   18.9430 C   0  0  0  0  0  0
  -30.7888  -20.0599   22.2680 C   0  0  0  0  0  0
  -27.8856  -24.0521   19.9818 C   0  0  0  0  0  0
  -29.6571  -18.2957   19.8160 C   0  0  2  0  0  0
  -29.8511  -20.6930   21.3401 N   0  0  0  0  0  0
  -28.5548  -21.1026   19.7654 N   0  3  0  0  0  0
  -29.6451  -16.7043   20.4556 N   0  0  0  0  0  0
  -31.4490  -13.1074   19.2124 H   0  0  0  0  0  0
  -30.5234  -12.0062   20.1772 H   0  0  0  0  0  0
  -29.9499  -11.7774   17.7317 H   0  0  0  0  0  0
  -29.5454  -13.4754   17.6488 H   0  0  0  0  0  0
  -28.0944  -11.2832   19.1492 H   0  0  0  0  0  0
  -27.4314  -12.2986   17.8889 H   0  0  0  0  0  0
  -27.5104  -14.2393   19.3031 H   0  0  0  0  0  0
  -28.8355  -12.6025   21.5193 H   0  0  0  0  0  0
  -28.2566  -14.2433   21.6845 H   0  0  0  0  0  0
  -25.2796   -9.5691   22.4779 H   0  0  0  0  0  0
  -24.0010   -7.4653   22.7504 H   0  0  0  0  0  0
  -21.0860   -8.8823   19.8972 H   0  0  0  0  0  0
  -22.3752  -10.9698   19.6184 H   0  0  0  0  0  0
  -21.2016   -7.6155   23.9752 H   0  0  0  0  0  0
  -21.1471   -6.0504   25.9087 H   0  0  0  0  0  0
  -22.0595   -2.7624   23.2823 H   0  0  0  0  0  0
  -22.3990  -11.9852   22.4823 H   0  0  0  0  0  0
  -21.1026  -13.1209   22.2664 H   0  0  0  0  0  0
  -24.6157  -15.8434   20.5103 H   0  0  0  0  0  0
  -26.2238  -15.6434   20.0311 H   0  0  0  0  0  0
  -26.7407  -32.5075   23.0840 H   0  0  0  0  0  0
  -25.0089  -33.9422   25.0152 H   0  0  0  0  0  0
  -22.8086  -31.2619   21.3351 H   0  0  0  0  0  0
  -23.3769  -35.9511   23.3276 H   0  0  0  0  0  0
  -24.3570  -36.8877   22.2067 H   0  0  0  0  0  0
  -23.7241  -37.6367   23.6723 H   0  0  0  0  0  0
  -26.2531  -31.3296   20.6230 H   0  0  0  0  0  0
  -26.9181  -30.6534   22.0669 H   0  0  0  0  0  0
  -28.1469  -28.5084   21.3067 H   0  0  0  0  0  0
  -25.8557  -25.7055   18.9797 H   0  0  0  0  0  0
  -24.0100  -27.2611   18.9331 H   0  0  0  0  0  0
  -23.8997  -30.5013   19.3828 H   0  0  0  0  0  0
  -22.8410  -29.1971   19.8214 H   0  0  0  0  0  0
  -25.1344  -36.1740   25.0784 H   0  0  0  0  0  0
  -21.0047  -28.3470   24.1273 H   0  0  0  0  0  0
  -20.5722  -26.2453   23.3657 H   0  0  0  0  0  0
  -21.6682  -26.7489   22.1197 H   0  0  0  0  0  0
  -19.6964  -25.6303   21.1304 H   0  0  0  0  0  0
  -19.6738  -27.3175   20.6718 H   0  0  0  0  0  0
  -17.4243  -26.6720   21.4013 H   0  0  0  0  0  0
  -18.0372  -26.0150   22.9035 H   0  0  0  0  0  0
  -19.7974  -30.7377   24.2176 H   0  0  0  0  0  0
  -17.5045  -31.6292   24.5205 H   0  0  0  0  0  0
  -15.5379  -30.3011   23.7721 H   0  0  0  0  0  0
  -15.8712  -28.0870   22.7078 H   0  0  0  0  0  0
  -24.5897  -30.7086   25.7623 H   0  0  0  0  0  0
  -24.8805  -32.2978   26.4571 H   0  0  0  0  0  0
  -25.7879  -30.9069   27.0203 H   0  0  0  0  0  0
  -26.3146  -29.6510   24.1489 H   0  0  0  0  0  0
  -27.3959  -29.7279   25.5177 H   0  0  0  0  0  0
  -27.9122  -30.4014   23.9947 H   0  0  0  0  0  0
  -27.2606  -33.3715   26.1889 H   0  0  0  0  0  0
  -28.3933  -32.6800   25.0349 H   0  0  0  0  0  0
  -28.0631  -31.8583   26.5524 H   0  0  0  0  0  0
  -28.2565  -38.0075   24.7520 H   0  0  0  0  0  0
  -28.1091  -36.2594   24.6284 H   0  0  0  0  0  0
  -27.2286  -37.1405   25.8869 H   0  0  0  0  0  0
  -20.9644  -29.8704   21.6534 H   0  0  0  0  0  0
  -26.0121  -38.2751   24.1413 H   0  0  0  0  0  0
  -29.9357  -22.7103   22.1504 H   0  0  0  0  0  0
  -30.7724  -19.1907   18.1774 H   0  0  0  0  0  0
  -31.1578  -17.5034   18.4197 H   0  0  0  0  0  0
  -31.7815  -18.7183   19.5367 H   0  0  0  0  0  0
  -31.2449  -19.1779   21.8193 H   0  0  0  0  0  0
  -30.2537  -19.7761   23.1725 H   0  0  0  0  0  0
  -31.5783  -20.7702   22.5159 H   0  0  0  0  0  0
  -27.7576  -24.0345   18.8988 H   0  0  0  0  0  0
  -26.8705  -23.9256   20.3578 H   0  0  0  0  0  0
  -28.8473  -18.1667   19.0998 H   0  0  0  0  0  0
  -27.9874  -20.9667   18.9377 H   0  0  0  0  0  0
  -28.7381  -16.5196   20.8611 H   0  0  0  0  0  0
  1 25  1  0  0  0
  1 30  2  0  0  0
  1 80  1  0  0  0
  2  3  1  0  0  0
  2 25  1  0  0  0
  2 81  1  0  0  0
  2 82  1  0  0  0
  3  4  1  0  0  0
  3 83  1  0  0  0
  3 84  1  0  0  0
  4  5  1  0  0  0
  4 85  1  0  0  0
  4 86  1  0  0  0
  5  6  1  0  0  0
  5 26  1  0  0  0
  5 87  1  0  0  0
  6 25  1  0  0  0
  6 88  1  0  0  0
  6 89  1  0  0  0
  7  8  2  0  0  0
  7 26  1  0  0  0
  7 29  1  0  0  0
  8  9  1  0  0  0
  8 22  1  0  0  0
  9 10  1  0  0  0
  9 27  2  0  0  0
 10 11  2  0  0  0
 10 15  1  0  0  0
 11 12  1  0  0  0
 11 90  1  0  0  0
 12 13  2  0  0  0
 12 91  1  0  0  0
 13 14  1  0  0  0
 13 31  1  0  0  0
 14 15  2  0  0  0
 14 92  1  0  0  0
 15 93  1  0  0  0
 16 17  2  0  0  0
 16 21  1  0  0  0
 16 31  1  0  0  0
 17 18  1  0  0  0
 17 94  1  0  0  0
 18 19  2  0  0  0
 18 95  1  0  0  0
 19 20  1  0  0  0
 19 24  1  0  0  0
 20 21  2  0  0  0
 20 96  1  0  0  0
 21 23  1  0  0  0
 22 28  1  0  0  0
 22 32  2  0  0  0
 26 27  1  0  0  0
 28 97  1  0  0  0
 28 98  1  0  0  0
 29 99  1  0  0  0
 29100  1  0  0  0
 33 34  1  0  0  0
 33 66  1  0  0  0
 33 70  2  0  0  0
 34 36  1  0  0  0
 34 59  1  0  0  0
 34101  1  0  0  0
 35 44  2  0  0  0
 35 45  1  0  0  0
 35 68  1  0  0  0
 36 56  1  0  0  0
 36102  1  0  0  0
 37 39  1  0  0  0
 37 47  1  0  0  0
 37 66  1  0  0  0
 37103  1  0  0  0
 38 43  2  0  0  0
 38 46  1  0  0  0
 38 47  1  0  0  0
 39 64  1  0  0  0
 39 67  2  0  0  0
 40 52  1  0  0  0
 40 53  2  0  0  0
 40 58  1  0  0  0
 41104  1  0  0  0
 41105  1  0  0  0
 41106  1  0  0  0
 41 48  1  0  0  0
 42 43  1  0  0  0
 42 66  1  0  0  0
 42107  1  0  0  0
 42108  1  0  0  0
 43 44  1  0  0  0
 44109  1  0  0  0
 45 46  2  0  0  0
 45110  1  0  0  0
 46111  1  0  0  0
 47112  1  0  0  0
 47113  1  0  0  0
 48 56  1  0  0  0
 48 65  1  0  0  0
 48114  1  0  0  0
 49 50  1  0  0  0
 49 53  1  0  0  0
 49 64  1  0  0  0
 49115  1  0  0  0
 50 51  1  0  0  0
 50116  1  0  0  0
 50117  1  0  0  0
 51 52  1  0  0  0
 51118  1  0  0  0
 51119  1  0  0  0
 52120  1  0  0  0
 52121  1  0  0  0
 53 54  1  0  0  0
 54 55  2  0  0  0
 54122  1  0  0  0
 55 57  1  0  0  0
 55123  1  0  0  0
 56 69  2  0  0  0
 57 58  2  0  0  0
 57124  1  0  0  0
 58125  1  0  0  0
 59 60  1  0  0  0
 59 61  1  0  0  0
 59 62  1  0  0  0
 60126  1  0  0  0
 60127  1  0  0  0
 60128  1  0  0  0
 61129  1  0  0  0
 61130  1  0  0  0
 61131  1  0  0  0
 62132  1  0  0  0
 62133  1  0  0  0
 62134  1  0  0  0
 63 65  1  0  0  0
 63135  1  0  0  0
 63136  1  0  0  0
 63137  1  0  0  0
 64138  1  0  0  0
 65139  1  0  0  0
 68 76  1  0  0  0
 71 72  2  0  0  0
 71 78  1  0  0  0
 71140  1  0  0  0
 72 76  1  0  0  0
 72 79  1  0  0  0
 73 77  1  0  0  0
 73 78  1  0  0  0
 73 79  2  0  0  0
 74141  1  0  0  0
 74142  1  0  0  0
 74143  1  0  0  0
 74 77  1  0  0  0
 75 78  1  0  0  0
 75144  1  0  0  0
 75145  1  0  0  0
 75146  1  0  0  0
 76147  1  0  0  0
 76148  1  0  0  0
 77 80  1  0  0  0
 77149  1  0  0  0
 79150  1  0  0  0
 80151  1  0  0  0
M  CHG  1  79   1
M  ISO  4   1 100  68 101  76 101  80 100
M  END
> <chiral flag>
0

> <version>
0

> <s_m_source_file>
/data/baiqing/PycharmProjects/Reinvent-master-3.2/result/LINK_invent/BTK/process_docking_weight1_custom_sum_contain_oxygen_bond_distance_aromatic_linkinvent_7_9_3/rearranged_h_0055.sdf

> <i_m_source_file_index>
35

> <r_mmod_Potential_Energy-OPLS-2005>
1449.02014160156

> <r_mmod_Stretch_Energy-OPLS-2005>
715.736083984375

> <r_mmod_Bend_Energy-OPLS-2005>
505.139404296875

> <r_mmod_Torsional_Energy-OPLS-2005>
230.83056640625

> <r_mmod_Improper_Torsional_Energy-OPLS-2005>
7.20279121398926

> <r_mmod_Van_der_Waal_Energy-OPLS-2005>
106.933898925781

> <r_mmod_Electrostatic_Energy-OPLS-2005>
-267.254119873047

> <r_mmod_Solvation_Energy-OPLS-2005>
-448.559997558594

> <b_mmod_Minimization_Converged-OPLS-2005>
0

> <r_mmod_RMS_Derivative-OPLS-2005>
3.53557634353638

$$$$
35
                    3D
 Structure written by MMmdl.
172180  0  0  1  0            999 V2000
  -30.6852  -14.6196   20.4296 C   0  0  0  0  0  0
  -30.4258  -12.3646   19.4491 C   0  0  0  0  0  0
  -29.4957  -12.4113   18.2250 C   0  0  0  0  0  0
  -28.0205  -12.2938   18.6519 C   0  0  0  0  0  0
  -27.6443  -13.2133   19.8476 C   0  0  2  0  0  0
  -28.6985  -13.1333   20.9689 C   0  0  0  0  0  0
  -25.2590  -13.8131   20.5773 C   0  0  0  0  0  0
  -24.1844  -13.0393   20.9203 C   0  0  0  0  0  0
  -24.6395  -11.6856   20.8737 C   0  0  0  0  0  0
  -23.9048  -10.4237   21.0355 C   0  0  0  0  0  0
  -24.3621   -9.4174   21.9173 C   0  0  0  0  0  0
  -23.6287   -8.2202   22.0741 C   0  0  0  0  0  0
  -22.4269   -8.0235   21.3533 C   0  0  0  0  0  0
  -21.9881   -9.0194   20.4636 C   0  0  0  0  0  0
  -22.7195  -10.2082   20.3037 C   0  0  0  0  0  0
  -21.6810   -6.0711   22.5288 C   0  0  0  0  0  0
  -21.3966   -6.5619   23.8223 C   0  0  0  0  0  0
  -21.3667   -5.6792   24.9202 C   0  0  0  0  0  0
  -21.6085   -4.3048   24.7251 C   0  0  0  0  0  0
  -21.8829   -3.8131   23.4357 C   0  0  0  0  0  0
  -21.9178   -4.6942   22.3423 C   0  0  0  0  0  0
  -22.7875  -13.5164   21.1882 C   0  0  0  0  0  0
  -22.1627   -4.2136   21.0990 F   0  0  0  0  0  0
  -21.5667   -3.4546   25.7759 F   0  0  0  0  0  0
  -29.9923  -13.4455   20.3565 N   0  0  0  0  0  0
  -26.2992  -12.9309   20.3371 N   0  0  0  0  0  0
  -25.9335  -11.6462   20.5818 N   0  0  0  0  0  0
  -22.0558  -12.8162   22.0450 N   0  0  0  0  0  0
  -25.4349  -15.1850   20.4178 N   0  0  0  0  0  0
  -31.9132  -14.6056   20.2960 O   0  0  0  0  0  0
  -21.6617   -6.8834   21.4233 O   0  0  0  0  0  0
  -22.3536  -14.5450   20.6664 O   0  0  0  0  0  0
  -24.6221  -31.8658   23.2093 C   0  0  0  0  0  0
  -25.9101  -32.4807   23.8386 C   0  0  1  0  0  0
  -27.2067  -27.3558   20.1388 C   0  0  0  0  0  0
  -25.5947  -33.8611   24.2302 N   0  0  0  0  0  0
  -23.4090  -30.4953   21.5537 C   0  0  2  0  0  0
  -24.8485  -28.9552   20.1210 C   0  0  0  0  0  0
  -22.7428  -29.4676   22.4976 C   0  0  0  0  0  0
  -18.0287  -28.1390   22.8489 C   0  0  0  0  0  0
  -24.1486  -36.7303   23.2628 C   0  0  0  0  0  0
  -25.9453  -30.8190   21.3659 C   0  0  0  0  0  0
  -26.0201  -29.4507   20.7060 C   0  0  0  0  0  0
  -27.2080  -28.6667   20.6943 C   0  0  0  0  0  0
  -26.0099  -26.8937   19.5470 C   0  0  0  0  0  0
  -24.8408  -27.6781   19.5386 C   0  0  0  0  0  0
  -23.6190  -29.8381   20.1660 C   0  0  0  0  0  0
  -25.4122  -36.3093   24.0307 C   0  0  1  0  0  0
  -20.5871  -28.3693   23.1298 C   0  0  2  0  0  0
  -20.6773  -26.9421   22.5419 C   0  0  0  0  0  0
  -19.5757  -26.6380   21.5219 C   0  0  0  0  0  0
  -18.1935  -26.7942   22.1621 C   0  0  0  0  0  0
  -19.1528  -28.8861   23.2889 C   0  0  0  0  0  0
  -18.9460  -30.1474   23.8895 C   0  0  0  0  0  0
  -17.6451  -30.6587   24.0587 C   0  0  0  0  0  0
  -25.9064  -34.9463   23.5098 C   0  0  0  0  0  0
  -16.5349  -29.9083   23.6342 C   0  0  0  0  0  0
  -16.7270  -28.6507   23.0347 C   0  0  0  0  0  0
  -26.4484  -31.6603   25.0741 C   0  0  0  0  0  0
  -25.3712  -31.3742   26.1458 C   0  0  0  0  0  0
  -27.0309  -30.3024   24.6184 C   0  0  0  0  0  0
  -27.6058  -32.4312   25.7534 C   0  0  0  0  0  0
  -27.5577  -37.1812   24.8458 C   0  0  0  0  0  0
  -21.4145  -29.3065   22.3699 N   0  0  0  0  0  0
  -26.4295  -37.3794   23.9394 N   0  0  0  0  0  0
  -24.6774  -31.0729   22.1021 N   0  0  0  0  0  0
  -23.4174  -28.8215   23.3031 O   0  0  0  0  0  0
  -28.3282  -26.5274   20.1866 O   0  0  0  0  0  0
  -26.5625  -34.8917   22.4661 O   0  0  0  0  0  0
  -23.5399  -32.1448   23.7446 O   0  0  0  0  0  0
  -28.8709  -21.2178   19.3039 C   0  0  0  0  0  0
  -28.5810  -19.8275   19.1301 C   0  0  0  0  0  0
  -28.9675  -21.5022   20.6368 C   0  0  0  0  0  0
  -28.6122  -19.2209   20.3669 C   0  0  0  0  0  0
  -28.2546  -19.1816   17.8063 C   0  0  0  0  0  0
  -29.4420  -15.8043   16.8985 C   0  0  0  0  0  0
  -27.2097  -20.3432   23.2049 C   0  0  0  0  0  0
  -29.2397  -22.8177   21.3905 C   0  0  0  0  0  0
  -28.3406  -17.7394   20.7541 C   0  0  0  0  0  0
  -30.7751  -15.9578   17.6489 C   0  0  0  0  0  0
  -29.3528  -24.2058   20.6378 C   0  0  0  0  0  0
  -28.6606  -20.1280   22.7425 C   0  0  0  0  0  0
  -29.5184  -16.7441   21.1435 C   0  0  0  0  0  0
  -30.6565  -16.6106   19.0428 C   0  0  0  0  0  0
  -28.0920  -25.1369   20.6014 C   0  0  0  0  0  0
  -28.7666  -20.2718   21.2946 N   0  0  0  0  0  0
  -30.0138  -15.7857   20.0987 N   0  0  0  0  0  0
  -31.4583  -12.4821   19.1186 H   0  0  0  0  0  0
  -30.3758  -11.3934   19.9442 H   0  0  0  0  0  0
  -29.7496  -11.6121   17.5280 H   0  0  0  0  0  0
  -29.6692  -13.3307   17.6836 H   0  0  0  0  0  0
  -27.8676  -11.2511   18.9323 H   0  0  0  0  0  0
  -27.3532  -12.4799   17.8099 H   0  0  0  0  0  0
  -27.6411  -14.2355   19.4753 H   0  0  0  0  0  0
  -28.7306  -12.1276   21.3909 H   0  0  0  0  0  0
  -28.4644  -13.8212   21.7819 H   0  0  0  0  0  0
  -25.2751   -9.5681   22.4759 H   0  0  0  0  0  0
  -24.0021   -7.4567   22.7423 H   0  0  0  0  0  0
  -21.0828   -8.8654   19.8940 H   0  0  0  0  0  0
  -22.3580  -10.9605   19.6168 H   0  0  0  0  0  0
  -21.1898   -7.6127   23.9715 H   0  0  0  0  0  0
  -21.1506   -6.0533   25.9122 H   0  0  0  0  0  0
  -22.0618   -2.7593   23.2860 H   0  0  0  0  0  0
  -22.4106  -11.9734   22.4748 H   0  0  0  0  0  0
  -21.1217  -13.1221   22.2691 H   0  0  0  0  0  0
  -24.6770  -15.8484   20.5254 H   0  0  0  0  0  0
  -26.3026  -15.6082   20.1186 H   0  0  0  0  0  0
  -26.7190  -32.5480   23.1150 H   0  0  0  0  0  0
  -25.0090  -33.9792   25.0435 H   0  0  0  0  0  0
  -22.7019  -31.3170   21.4191 H   0  0  0  0  0  0
  -23.3754  -35.9631   23.3282 H   0  0  0  0  0  0
  -24.3592  -36.8951   22.2052 H   0  0  0  0  0  0
  -23.7234  -37.6492   23.6678 H   0  0  0  0  0  0
  -26.0667  -31.5916   20.6051 H   0  0  0  0  0  0
  -26.8293  -30.8656   21.9898 H   0  0  0  0  0  0
  -28.1080  -29.0477   21.1549 H   0  0  0  0  0  0
  -25.9483  -25.9130   19.1023 H   0  0  0  0  0  0
  -23.9323  -27.2792   19.1072 H   0  0  0  0  0  0
  -23.7411  -30.6252   19.4199 H   0  0  0  0  0  0
  -22.7352  -29.2777   19.8558 H   0  0  0  0  0  0
  -25.1303  -36.1939   25.0804 H   0  0  0  0  0  0
  -20.9980  -28.3262   24.1411 H   0  0  0  0  0  0
  -20.5686  -26.2304   23.3623 H   0  0  0  0  0  0
  -21.6639  -26.7470   22.1202 H   0  0  0  0  0  0
  -19.6923  -25.6279   21.1280 H   0  0  0  0  0  0
  -19.6704  -27.3164   20.6737 H   0  0  0  0  0  0
  -17.4210  -26.6702   21.4017 H   0  0  0  0  0  0
  -18.0330  -26.0076   22.9013 H   0  0  0  0  0  0
  -19.7932  -30.7306   24.2229 H   0  0  0  0  0  0
  -17.5008  -31.6264   24.5189 H   0  0  0  0  0  0
  -15.5351  -30.2989   23.7671 H   0  0  0  0  0  0
  -15.8673  -28.0840   22.7046 H   0  0  0  0  0  0
  -24.5890  -30.7096   25.7762 H   0  0  0  0  0  0
  -24.8882  -32.2903   26.4871 H   0  0  0  0  0  0
  -25.7996  -30.8912   27.0244 H   0  0  0  0  0  0
  -26.2873  -29.6812   24.1165 H   0  0  0  0  0  0
  -27.3957  -29.7250   25.4690 H   0  0  0  0  0  0
  -27.8766  -30.4306   23.9423 H   0  0  0  0  0  0
  -27.2703  -33.3637   26.2092 H   0  0  0  0  0  0
  -28.3900  -32.6836   25.0381 H   0  0  0  0  0  0
  -28.0688  -31.8433   26.5472 H   0  0  0  0  0  0
  -28.2572  -38.0127   24.7516 H   0  0  0  0  0  0
  -28.1086  -36.2655   24.6259 H   0  0  0  0  0  0
  -27.2297  -37.1427   25.8861 H   0  0  0  0  0  0
  -20.9299  -29.8808   21.6947 H   0  0  0  0  0  0
  -26.0156  -38.2855   24.1425 H   0  0  0  0  0  0
  -28.9497  -21.9589   18.5178 H   0  0  0  0  0  0
  -27.5079  -19.7689   17.2697 H   0  0  0  0  0  0
  -27.8354  -18.1859   17.9422 H   0  0  0  0  0  0
  -29.1437  -19.1019   17.1811 H   0  0  0  0  0  0
  -29.6113  -15.3030   15.9467 H   0  0  0  0  0  0
  -28.7016  -15.2296   17.4537 H   0  0  0  0  0  0
  -28.9948  -16.7676   16.6587 H   0  0  0  0  0  0
  -27.1031  -20.1505   24.2721 H   0  0  0  0  0  0
  -26.5281  -19.6771   22.6765 H   0  0  0  0  0  0
  -26.8717  -21.3641   23.0223 H   0  0  0  0  0  0
  -30.2105  -22.6706   21.8680 H   0  0  0  0  0  0
  -28.5528  -22.9199   22.2323 H   0  0  0  0  0  0
  -27.7336  -17.2661   19.9824 H   0  0  0  0  0  0
  -27.6695  -17.7561   21.6119 H   0  0  0  0  0  0
  -31.4191  -16.5929   17.0392 H   0  0  0  0  0  0
  -31.2990  -15.0020   17.7037 H   0  0  0  0  0  0
  -29.7724  -24.0723   19.6405 H   0  0  0  0  0  0
  -30.1035  -24.7804   21.1863 H   0  0  0  0  0  0
  -29.0097  -19.1378   23.0360 H   0  0  0  0  0  0
  -29.3218  -20.8437   23.2335 H   0  0  0  0  0  0
  -29.1469  -16.1291   21.9648 H   0  0  0  0  0  0
  -30.3461  -17.3099   21.5763 H   0  0  0  0  0  0
  -30.1526  -17.5626   18.9214 H   0  0  0  0  0  0
  -31.6583  -16.8903   19.3747 H   0  0  0  0  0  0
  -27.6593  -25.1691   21.6032 H   0  0  0  0  0  0
  -27.3558  -24.6358   19.9746 H   0  0  0  0  0  0
  1 25  1  0  0  0
  1 30  2  0  0  0
  1 87  1  0  0  0
  2  3  1  0  0  0
  2 25  1  0  0  0
  2 88  1  0  0  0
  2 89  1  0  0  0
  3  4  1  0  0  0
  3 90  1  0  0  0
  3 91  1  0  0  0
  4  5  1  0  0  0
  4 92  1  0  0  0
  4 93  1  0  0  0
  5  6  1  0  0  0
  5 26  1  0  0  0
  5 94  1  0  0  0
  6 25  1  0  0  0
  6 95  1  0  0  0
  6 96  1  0  0  0
  7  8  2  0  0  0
  7 26  1  0  0  0
  7 29  1  0  0  0
  8  9  1  0  0  0
  8 22  1  0  0  0
  9 10  1  0  0  0
  9 27  2  0  0  0
 10 11  2  0  0  0
 10 15  1  0  0  0
 11 12  1  0  0  0
 11 97  1  0  0  0
 12 13  2  0  0  0
 12 98  1  0  0  0
 13 14  1  0  0  0
 13 31  1  0  0  0
 14 15  2  0  0  0
 14 99  1  0  0  0
 15100  1  0  0  0
 16 17  2  0  0  0
 16 21  1  0  0  0
 16 31  1  0  0  0
 17 18  1  0  0  0
 17101  1  0  0  0
 18 19  2  0  0  0
 18102  1  0  0  0
 19 20  1  0  0  0
 19 24  1  0  0  0
 20 21  2  0  0  0
 20103  1  0  0  0
 21 23  1  0  0  0
 22 28  1  0  0  0
 22 32  2  0  0  0
 26 27  1  0  0  0
 28104  1  0  0  0
 28105  1  0  0  0
 29106  1  0  0  0
 29107  1  0  0  0
 33 34  1  0  0  0
 33 66  1  0  0  0
 33 70  2  0  0  0
 34 36  1  0  0  0
 34 59  1  0  0  0
 34108  1  0  0  0
 35 44  2  0  0  0
 35 45  1  0  0  0
 35 68  1  0  0  0
 36 56  1  0  0  0
 36109  1  0  0  0
 37 39  1  0  0  0
 37 47  1  0  0  0
 37 66  1  0  0  0
 37110  1  0  0  0
 38 43  2  0  0  0
 38 46  1  0  0  0
 38 47  1  0  0  0
 39 64  1  0  0  0
 39 67  2  0  0  0
 40 52  1  0  0  0
 40 53  2  0  0  0
 40 58  1  0  0  0
 41111  1  0  0  0
 41112  1  0  0  0
 41113  1  0  0  0
 41 48  1  0  0  0
 42 43  1  0  0  0
 42 66  1  0  0  0
 42114  1  0  0  0
 42115  1  0  0  0
 43 44  1  0  0  0
 44116  1  0  0  0
 45 46  2  0  0  0
 45117  1  0  0  0
 46118  1  0  0  0
 47119  1  0  0  0
 47120  1  0  0  0
 48 56  1  0  0  0
 48 65  1  0  0  0
 48121  1  0  0  0
 49 50  1  0  0  0
 49 53  1  0  0  0
 49 64  1  0  0  0
 49122  1  0  0  0
 50 51  1  0  0  0
 50123  1  0  0  0
 50124  1  0  0  0
 51 52  1  0  0  0
 51125  1  0  0  0
 51126  1  0  0  0
 52127  1  0  0  0
 52128  1  0  0  0
 53 54  1  0  0  0
 54 55  2  0  0  0
 54129  1  0  0  0
 55 57  1  0  0  0
 55130  1  0  0  0
 56 69  2  0  0  0
 57 58  2  0  0  0
 57131  1  0  0  0
 58132  1  0  0  0
 59 60  1  0  0  0
 59 61  1  0  0  0
 59 62  1  0  0  0
 60133  1  0  0  0
 60134  1  0  0  0
 60135  1  0  0  0
 61136  1  0  0  0
 61137  1  0  0  0
 61138  1  0  0  0
 62139  1  0  0  0
 62140  1  0  0  0
 62141  1  0  0  0
 63 65  1  0  0  0
 63142  1  0  0  0
 63143  1  0  0  0
 63144  1  0  0  0
 64145  1  0  0  0
 65146  1  0  0  0
 68 85  1  0  0  0
 71 72  1  0  0  0
 71 73  2  0  0  0
 71147  1  0  0  0
 72 74  2  0  0  0
 72 75  1  0  0  0
 73 78  1  0  0  0
 73 86  1  0  0  0
 74 79  1  0  0  0
 74 86  1  0  0  0
 75148  1  0  0  0
 75149  1  0  0  0
 75150  1  0  0  0
 76 80  1  0  0  0
 76151  1  0  0  0
 76152  1  0  0  0
 76153  1  0  0  0
 77 82  1  0  0  0
 77154  1  0  0  0
 77155  1  0  0  0
 77156  1  0  0  0
 78 81  1  0  0  0
 78157  1  0  0  0
 78158  1  0  0  0
 79 83  1  0  0  0
 79159  1  0  0  0
 79160  1  0  0  0
 80 84  1  0  0  0
 80161  1  0  0  0
 80162  1  0  0  0
 81 85  1  0  0  0
 81163  1  0  0  0
 81164  1  0  0  0
 82 86  1  0  0  0
 82165  1  0  0  0
 82166  1  0  0  0
 83 87  1  0  0  0
 83167  1  0  0  0
 83168  1  0  0  0
 84 87  1  0  0  0
 84169  1  0  0  0
 84170  1  0  0  0
 85171  1  0  0  0
 85172  1  0  0  0
M  ISO  4   1 100  68 101  85 101  87 100
M  END
> <chiral flag>
0

> <version>
0

> <s_m_source_file>
/data/baiqing/PycharmProjects/Reinvent-master-3.2/result/LINK_invent/BTK/process_docking_weight1_custom_sum_contain_oxygen_bond_distance_aromatic_linkinvent_7_9_3/rearranged_h_0055.sdf

> <i_m_source_file_index>
36

> <r_mmod_Potential_Energy-OPLS-2005>
238.28727722168

> <r_mmod_Stretch_Energy-OPLS-2005>
71.3837356567383

> <r_mmod_Bend_Energy-OPLS-2005>
152.359939575195

> <r_mmod_Torsional_Energy-OPLS-2005>
340.207366943359

> <r_mmod_Improper_Torsional_Energy-OPLS-2005>
23.4874706268311

> <r_mmod_Van_der_Waal_Energy-OPLS-2005>
119.086761474609

> <r_mmod_Electrostatic_Energy-OPLS-2005>
-333.363403320312

> <r_mmod_Solvation_Energy-OPLS-2005>
-190.789077758789

> <b_mmod_Minimization_Converged-OPLS-2005>
0

> <r_mmod_RMS_Derivative-OPLS-2005>
5.1716194152832

$$$$
36
                    3D
 Structure written by MMmdl.
154162  0  0  1  0            999 V2000
  -30.5174  -15.0152   20.4236 C   0  0  0  0  0  0
  -30.4457  -12.6115   19.5564 C   0  0  0  0  0  0
  -29.5529  -12.5279   18.2942 C   0  0  0  0  0  0
  -28.0868  -12.2836   18.6981 C   0  0  0  0  0  0
  -27.6339  -13.2357   19.8332 C   0  0  2  0  0  0
  -28.6603  -13.2584   20.9839 C   0  0  0  0  0  0
  -25.2510  -13.8161   20.5690 C   0  0  0  0  0  0
  -24.1778  -13.0371   20.9213 C   0  0  0  0  0  0
  -24.6394  -11.6867   20.8739 C   0  0  0  0  0  0
  -23.9085  -10.4248   21.0407 C   0  0  0  0  0  0
  -24.3607   -9.4172   21.9202 C   0  0  0  0  0  0
  -23.6252   -8.2239   22.0781 C   0  0  0  0  0  0
  -22.4266   -8.0271   21.3532 C   0  0  0  0  0  0
  -21.9948   -9.0219   20.4590 C   0  0  0  0  0  0
  -22.7313  -10.2075   20.3012 C   0  0  0  0  0  0
  -21.6870   -6.0684   22.5272 C   0  0  0  0  0  0
  -21.4019   -6.5591   23.8204 C   0  0  0  0  0  0
  -21.3658   -5.6748   24.9174 C   0  0  0  0  0  0
  -21.6062   -4.2997   24.7241 C   0  0  0  0  0  0
  -21.8832   -3.8083   23.4360 C   0  0  0  0  0  0
  -21.9188   -4.6897   22.3410 C   0  0  0  0  0  0
  -22.7787  -13.5160   21.1810 C   0  0  0  0  0  0
  -22.1690   -4.2078   21.0976 F   0  0  0  0  0  0
  -21.5617   -3.4484   25.7768 F   0  0  0  0  0  0
  -29.9388  -13.7296   20.4146 N   0  0  0  0  0  0
  -26.2869  -12.9362   20.3153 N   0  0  0  0  0  0
  -25.9305  -11.6484   20.5671 N   0  0  0  0  0  0
  -22.0366  -12.8185   22.0396 N   0  0  0  0  0  0
  -25.4117  -15.1892   20.4063 N   0  0  0  0  0  0
  -31.6841  -15.0692   20.0121 O   0  0  0  0  0  0
  -21.6654   -6.8842   21.4226 O   0  0  0  0  0  0
  -22.3464  -14.5447   20.6651 O   0  0  0  0  0  0
  -24.6526  -31.8400   23.1832 C   0  0  0  0  0  0
  -25.9276  -32.4639   23.8247 C   0  0  1  0  0  0
  -27.2125  -27.0797   20.1017 C   0  0  0  0  0  0
  -25.6049  -33.8452   24.2186 N   0  0  0  0  0  0
  -23.4591  -30.4562   21.5353 C   0  0  2  0  0  0
  -24.8981  -28.8743   20.1121 C   0  0  0  0  0  0
  -22.7639  -29.4487   22.4881 C   0  0  0  0  0  0
  -18.0297  -28.1343   22.8467 C   0  0  0  0  0  0
  -24.1488  -36.7199   23.2646 C   0  0  0  0  0  0
  -26.0197  -30.6932   21.3872 C   0  0  0  0  0  0
  -26.0889  -29.2985   20.7161 C   0  0  0  0  0  0
  -27.2466  -28.4200   20.6917 C   0  0  0  0  0  0
  -25.9888  -26.7667   19.4814 C   0  0  0  0  0  0
  -24.8602  -27.6190   19.4837 C   0  0  0  0  0  0
  -23.6791  -29.7838   20.1565 C   0  0  0  0  0  0
  -25.4145  -36.3021   24.0306 C   0  0  1  0  0  0
  -20.5934  -28.3674   23.1241 C   0  0  2  0  0  0
  -20.6841  -26.9388   22.5394 C   0  0  0  0  0  0
  -19.5799  -26.6357   21.5225 C   0  0  0  0  0  0
  -18.1927  -26.7900   22.1574 C   0  0  0  0  0  0
  -19.1581  -28.8829   23.2801 C   0  0  0  0  0  0
  -18.9511  -30.1445   23.8798 C   0  0  0  0  0  0
  -17.6501  -30.6562   24.0525 C   0  0  0  0  0  0
  -25.9107  -34.9376   23.5065 C   0  0  0  0  0  0
  -16.5384  -29.9042   23.6310 C   0  0  0  0  0  0
  -16.7288  -28.6435   23.0390 C   0  0  0  0  0  0
  -26.4486  -31.6549   25.0740 C   0  0  0  0  0  0
  -25.3609  -31.3763   26.1405 C   0  0  0  0  0  0
  -27.0386  -30.2958   24.6354 C   0  0  0  0  0  0
  -27.6008  -32.4362   25.7513 C   0  0  0  0  0  0
  -27.5561  -37.1742   24.8484 C   0  0  0  0  0  0
  -21.4329  -29.3009   22.3623 N   0  0  0  0  0  0
  -26.4281  -37.3771   23.9427 N   0  0  0  0  0  0
  -24.7318  -31.0211   22.0886 N   0  0  0  0  0  0
  -23.4260  -28.8033   23.3055 O   0  0  0  0  0  0
  -28.2531  -26.0652   20.0222 O   0  0  0  0  0  0
  -26.5663  -34.8898   22.4631 O   0  0  0  0  0  0
  -23.5652  -32.1394   23.6994 O   0  0  0  0  0  0
  -28.3217  -22.8717   18.2462 C   0  0  0  0  0  0
  -28.4564  -21.5640   17.7104 C   0  0  0  0  0  0
  -28.5009  -23.1002   19.6335 C   0  0  0  0  0  0
  -29.0397  -20.6407   19.7651 C   0  0  0  0  0  0
  -28.1086  -21.2375   16.2539 C   0  0  0  0  0  0
  -29.0014  -16.3015   21.9075 C   0  0  0  0  0  0
  -27.9737  -24.5370   20.3511 C   0  0  0  0  0  0
  -29.2589  -19.2035   20.5846 C   0  0  0  0  0  0
  -29.8414  -17.7017   19.9740 C   0  0  0  0  0  0
  -28.8105  -20.4955   18.4649 N   0  0  0  0  0  0
  -28.8576  -21.9108   20.3516 N   0  0  0  0  0  0
  -29.7721  -16.2398   20.6612 N   0  0  0  0  0  0
  -31.4926  -12.7461   19.2787 H   0  0  0  0  0  0
  -30.4217  -11.6642   20.0952 H   0  0  0  0  0  0
  -29.9053  -11.7240   17.6476 H   0  0  0  0  0  0
  -29.6407  -13.4569   17.7262 H   0  0  0  0  0  0
  -28.0276  -11.2500   19.0509 H   0  0  0  0  0  0
  -27.4349  -12.3660   17.8284 H   0  0  0  0  0  0
  -27.6050  -14.2394   19.4024 H   0  0  0  0  0  0
  -28.7611  -12.2689   21.4355 H   0  0  0  0  0  0
  -28.3008  -13.8857   21.7931 H   0  0  0  0  0  0
  -25.2726   -9.5637   22.4793 H   0  0  0  0  0  0
  -23.9918   -7.4683   22.7569 H   0  0  0  0  0  0
  -21.0883   -8.8739   19.8870 H   0  0  0  0  0  0
  -22.3815  -10.9593   19.6074 H   0  0  0  0  0  0
  -21.2061   -7.6121   23.9735 H   0  0  0  0  0  0
  -21.1461   -6.0467   25.9101 H   0  0  0  0  0  0
  -22.0640   -2.7533   23.2929 H   0  0  0  0  0  0
  -22.3901  -11.9856   22.4865 H   0  0  0  0  0  0
  -21.0913  -13.1168   22.2312 H   0  0  0  0  0  0
  -24.6425  -15.8390   20.5252 H   0  0  0  0  0  0
  -26.2504  -15.6318   20.0439 H   0  0  0  0  0  0
  -26.7295  -32.5208   23.0954 H   0  0  0  0  0  0
  -25.0388  -33.9647   25.0462 H   0  0  0  0  0  0
  -22.7595  -31.2792   21.3809 H   0  0  0  0  0  0
  -23.3787  -35.9473   23.3306 H   0  0  0  0  0  0
  -24.3560  -36.8899   22.2059 H   0  0  0  0  0  0
  -23.7186  -37.6346   23.6727 H   0  0  0  0  0  0
  -26.2045  -31.4610   20.6314 H   0  0  0  0  0  0
  -26.8792  -30.7347   22.0403 H   0  0  0  0  0  0
  -28.1593  -28.7620   21.1548 H   0  0  0  0  0  0
  -25.8908  -25.8211   18.9689 H   0  0  0  0  0  0
  -23.9528  -27.2899   18.9960 H   0  0  0  0  0  0
  -23.8132  -30.5676   19.4144 H   0  0  0  0  0  0
  -22.7889  -29.2366   19.8370 H   0  0  0  0  0  0
  -25.1296  -36.1826   25.0773 H   0  0  0  0  0  0
  -20.9977  -28.3252   24.1403 H   0  0  0  0  0  0
  -20.5878  -26.2235   23.3595 H   0  0  0  0  0  0
  -21.6674  -26.7515   22.1084 H   0  0  0  0  0  0
  -19.7038  -25.6288   21.1213 H   0  0  0  0  0  0
  -19.6758  -27.3180   20.6763 H   0  0  0  0  0  0
  -17.4271  -26.6705   21.3896 H   0  0  0  0  0  0
  -18.0230  -26.0036   22.8931 H   0  0  0  0  0  0
  -19.8035  -30.7230   24.2142 H   0  0  0  0  0  0
  -17.5096  -31.6246   24.5130 H   0  0  0  0  0  0
  -15.5378  -30.2907   23.7735 H   0  0  0  0  0  0
  -15.8705  -28.0712   22.7187 H   0  0  0  0  0  0
  -24.5921  -30.6990   25.7675 H   0  0  0  0  0  0
  -24.8616  -32.2925   26.4598 H   0  0  0  0  0  0
  -25.7835  -30.9135   27.0350 H   0  0  0  0  0  0
  -26.3018  -29.6569   24.1482 H   0  0  0  0  0  0
  -27.4144  -29.7354   25.4906 H   0  0  0  0  0  0
  -27.8846  -30.4163   23.9584 H   0  0  0  0  0  0
  -27.2701  -33.3888   26.1692 H   0  0  0  0  0  0
  -28.3962  -32.6603   25.0385 H   0  0  0  0  0  0
  -28.0450  -31.8764   26.5759 H   0  0  0  0  0  0
  -28.2524  -38.0086   24.7612 H   0  0  0  0  0  0
  -28.1123  -36.2624   24.6230 H   0  0  0  0  0  0
  -27.2284  -37.1259   25.8890 H   0  0  0  0  0  0
  -20.9588  -29.8734   21.6805 H   0  0  0  0  0  0
  -26.0124  -38.2800   24.1570 H   0  0  0  0  0  0
  -27.9834  -23.6687   17.5928 H   0  0  0  0  0  0
  -28.2704  -22.0864   15.5884 H   0  0  0  0  0  0
  -27.0565  -20.9449   16.1597 H   0  0  0  0  0  0
  -28.7061  -20.4082   15.8600 H   0  0  0  0  0  0
  -27.9603  -16.0371   21.7282 H   0  0  0  0  0  0
  -29.0034  -17.2867   22.3754 H   0  0  0  0  0  0
  -29.4189  -15.6321   22.6620 H   0  0  0  0  0  0
  -28.2824  -24.4400   21.3921 H   0  0  0  0  0  0
  -26.8892  -24.4190   20.4075 H   0  0  0  0  0  0
  -28.2828  -19.0177   21.0288 H   0  0  0  0  0  0
  -29.8993  -19.4537   21.4319 H   0  0  0  0  0  0
  -30.8760  -17.8491   19.6622 H   0  0  0  0  0  0
  -29.3045  -17.5586   19.0386 H   0  0  0  0  0  0
  1 25  1  0  0  0
  1 30  2  0  0  0
  1 82  1  0  0  0
  2  3  1  0  0  0
  2 25  1  0  0  0
  2 83  1  0  0  0
  2 84  1  0  0  0
  3  4  1  0  0  0
  3 85  1  0  0  0
  3 86  1  0  0  0
  4  5  1  0  0  0
  4 87  1  0  0  0
  4 88  1  0  0  0
  5  6  1  0  0  0
  5 26  1  0  0  0
  5 89  1  0  0  0
  6 25  1  0  0  0
  6 90  1  0  0  0
  6 91  1  0  0  0
  7  8  2  0  0  0
  7 26  1  0  0  0
  7 29  1  0  0  0
  8  9  1  0  0  0
  8 22  1  0  0  0
  9 10  1  0  0  0
  9 27  2  0  0  0
 10 11  2  0  0  0
 10 15  1  0  0  0
 11 12  1  0  0  0
 11 92  1  0  0  0
 12 13  2  0  0  0
 12 93  1  0  0  0
 13 14  1  0  0  0
 13 31  1  0  0  0
 14 15  2  0  0  0
 14 94  1  0  0  0
 15 95  1  0  0  0
 16 17  2  0  0  0
 16 21  1  0  0  0
 16 31  1  0  0  0
 17 18  1  0  0  0
 17 96  1  0  0  0
 18 19  2  0  0  0
 18 97  1  0  0  0
 19 20  1  0  0  0
 19 24  1  0  0  0
 20 21  2  0  0  0
 20 98  1  0  0  0
 21 23  1  0  0  0
 22 28  1  0  0  0
 22 32  2  0  0  0
 26 27  1  0  0  0
 28 99  1  0  0  0
 28100  1  0  0  0
 29101  1  0  0  0
 29102  1  0  0  0
 33 34  1  0  0  0
 33 66  1  0  0  0
 33 70  2  0  0  0
 34 36  1  0  0  0
 34 59  1  0  0  0
 34103  1  0  0  0
 35 44  2  0  0  0
 35 45  1  0  0  0
 35 68  1  0  0  0
 36 56  1  0  0  0
 36104  1  0  0  0
 37 39  1  0  0  0
 37 47  1  0  0  0
 37 66  1  0  0  0
 37105  1  0  0  0
 38 43  2  0  0  0
 38 46  1  0  0  0
 38 47  1  0  0  0
 39 64  1  0  0  0
 39 67  2  0  0  0
 40 52  1  0  0  0
 40 53  2  0  0  0
 40 58  1  0  0  0
 41106  1  0  0  0
 41107  1  0  0  0
 41108  1  0  0  0
 41 48  1  0  0  0
 42 43  1  0  0  0
 42 66  1  0  0  0
 42109  1  0  0  0
 42110  1  0  0  0
 43 44  1  0  0  0
 44111  1  0  0  0
 45 46  2  0  0  0
 45112  1  0  0  0
 46113  1  0  0  0
 47114  1  0  0  0
 47115  1  0  0  0
 48 56  1  0  0  0
 48 65  1  0  0  0
 48116  1  0  0  0
 49 50  1  0  0  0
 49 53  1  0  0  0
 49 64  1  0  0  0
 49117  1  0  0  0
 50 51  1  0  0  0
 50118  1  0  0  0
 50119  1  0  0  0
 51 52  1  0  0  0
 51120  1  0  0  0
 51121  1  0  0  0
 52122  1  0  0  0
 52123  1  0  0  0
 53 54  1  0  0  0
 54 55  2  0  0  0
 54124  1  0  0  0
 55 57  1  0  0  0
 55125  1  0  0  0
 56 69  2  0  0  0
 57 58  2  0  0  0
 57126  1  0  0  0
 58127  1  0  0  0
 59 60  1  0  0  0
 59 61  1  0  0  0
 59 62  1  0  0  0
 60128  1  0  0  0
 60129  1  0  0  0
 60130  1  0  0  0
 61131  1  0  0  0
 61132  1  0  0  0
 61133  1  0  0  0
 62134  1  0  0  0
 62135  1  0  0  0
 62136  1  0  0  0
 63 65  1  0  0  0
 63137  1  0  0  0
 63138  1  0  0  0
 63139  1  0  0  0
 64140  1  0  0  0
 65141  1  0  0  0
 68 77  1  0  0  0
 71 72  2  0  0  0
 71 73  1  0  0  0
 71142  1  0  0  0
 72 75  1  0  0  0
 72 80  1  0  0  0
 73 77  1  0  0  0
 73 81  2  0  0  0
 74 78  1  0  0  0
 74 80  2  0  0  0
 74 81  1  0  0  0
 75143  1  0  0  0
 75144  1  0  0  0
 75145  1  0  0  0
 76 82  1  0  0  0
 76146  1  0  0  0
 76147  1  0  0  0
 76148  1  0  0  0
 77149  1  0  0  0
 77150  1  0  0  0
 78 79  1  0  0  0
 78151  1  0  0  0
 78152  1  0  0  0
 79 82  1  0  0  0
 79153  1  0  0  0
 79154  1  0  0  0
M  ISO  4   1 100  68 101  77 101  82 100
M  END
> <chiral flag>
0

> <version>
0

> <s_m_source_file>
/data/baiqing/PycharmProjects/Reinvent-master-3.2/result/LINK_invent/BTK/process_docking_weight1_custom_sum_contain_oxygen_bond_distance_aromatic_linkinvent_7_9_3/rearranged_h_0055.sdf

> <i_m_source_file_index>
37

> <r_mmod_Potential_Energy-OPLS-2005>
432.338653564453

> <r_mmod_Stretch_Energy-OPLS-2005>
344.527099609375

> <r_mmod_Bend_Energy-OPLS-2005>
313.076171875

> <r_mmod_Torsional_Energy-OPLS-2005>
297.6591796875

> <r_mmod_Improper_Torsional_Energy-OPLS-2005>
9.3256139755249

> <r_mmod_Van_der_Waal_Energy-OPLS-2005>
138.083709716797

> <r_mmod_Electrostatic_Energy-OPLS-2005>
-670.755737304688

> <r_mmod_Solvation_Energy-OPLS-2005>
-235.769287109375

> <b_mmod_Minimization_Converged-OPLS-2005>
0

> <r_mmod_RMS_Derivative-OPLS-2005>
10.1169691085815

$$$$
37
                    3D
 Structure written by MMmdl.
161169  0  0  1  0            999 V2000
  -30.6180  -14.7737   20.4935 C   0  0  0  0  0  0
  -30.4447  -12.4863   19.4585 C   0  0  0  0  0  0
  -29.5100  -12.5244   18.2280 C   0  0  0  0  0  0
  -28.0384  -12.3181   18.6389 C   0  0  0  0  0  0
  -27.6462  -13.1991   19.8504 C   0  0  2  0  0  0
  -28.7039  -13.1099   20.9770 C   0  0  0  0  0  0
  -25.2514  -13.8094   20.5579 C   0  0  0  0  0  0
  -24.1795  -13.0383   20.9134 C   0  0  0  0  0  0
  -24.6380  -11.6867   20.8727 C   0  0  0  0  0  0
  -23.9062  -10.4270   21.0417 C   0  0  0  0  0  0
  -24.3626   -9.4200   21.9193 C   0  0  0  0  0  0
  -23.6298   -8.2248   22.0775 C   0  0  0  0  0  0
  -22.4272   -8.0301   21.3578 C   0  0  0  0  0  0
  -21.9907   -9.0254   20.4664 C   0  0  0  0  0  0
  -22.7238  -10.2125   20.3064 C   0  0  0  0  0  0
  -21.6849   -6.0768   22.5307 C   0  0  0  0  0  0
  -21.4023   -6.5665   23.8247 C   0  0  0  0  0  0
  -21.3638   -5.6797   24.9194 C   0  0  0  0  0  0
  -21.6032   -4.3062   24.7228 C   0  0  0  0  0  0
  -21.8827   -3.8177   23.4344 C   0  0  0  0  0  0
  -21.9193   -4.7003   22.3415 C   0  0  0  0  0  0
  -22.7833  -13.5222   21.1784 C   0  0  0  0  0  0
  -22.1664   -4.2207   21.0986 F   0  0  0  0  0  0
  -21.5601   -3.4531   25.7730 F   0  0  0  0  0  0
  -29.9917  -13.5362   20.4101 N   0  0  0  0  0  0
  -26.2961  -12.9250   20.3279 N   0  0  0  0  0  0
  -25.9308  -11.6432   20.5748 N   0  0  0  0  0  0
  -22.0481  -12.8238   22.0364 N   0  0  0  0  0  0
  -25.4077  -15.1799   20.3895 N   0  0  0  0  0  0
  -31.7832  -14.8337   20.0898 O   0  0  0  0  0  0
  -21.6632   -6.8908   21.4275 O   0  0  0  0  0  0
  -22.3530  -14.5537   20.6644 O   0  0  0  0  0  0
  -24.6315  -31.8547   23.1997 C   0  0  0  0  0  0
  -25.9140  -32.4754   23.8347 C   0  0  1  0  0  0
  -27.2280  -27.2782   20.1320 C   0  0  0  0  0  0
  -25.5920  -33.8552   24.2269 N   0  0  0  0  0  0
  -23.4279  -30.4782   21.5412 C   0  0  2  0  0  0
  -24.8779  -28.9266   20.1112 C   0  0  0  0  0  0
  -22.7502  -29.4602   22.4900 C   0  0  0  0  0  0
  -18.0289  -28.1387   22.8479 C   0  0  0  0  0  0
  -24.1482  -36.7301   23.2642 C   0  0  0  0  0  0
  -25.9719  -30.7756   21.3746 C   0  0  0  0  0  0
  -26.0484  -29.3972   20.7209 C   0  0  0  0  0  0
  -27.2282  -28.5864   20.7197 C   0  0  0  0  0  0
  -26.0393  -26.8758   19.4846 C   0  0  0  0  0  0
  -24.8777  -27.6729   19.4812 C   0  0  0  0  0  0
  -23.6460  -29.8104   20.1578 C   0  0  0  0  0  0
  -25.4103  -36.3072   24.0329 C   0  0  1  0  0  0
  -20.5897  -28.3700   23.1257 C   0  0  2  0  0  0
  -20.6777  -26.9411   22.5408 C   0  0  0  0  0  0
  -19.5751  -26.6385   21.5213 C   0  0  0  0  0  0
  -18.1930  -26.7930   22.1623 C   0  0  0  0  0  0
  -19.1544  -28.8863   23.2864 C   0  0  0  0  0  0
  -18.9460  -30.1459   23.8892 C   0  0  0  0  0  0
  -17.6458  -30.6583   24.0564 C   0  0  0  0  0  0
  -25.9039  -34.9437   23.5105 C   0  0  0  0  0  0
  -16.5350  -29.9079   23.6331 C   0  0  0  0  0  0
  -16.7277  -28.6501   23.0349 C   0  0  0  0  0  0
  -26.4504  -31.6580   25.0732 C   0  0  0  0  0  0
  -25.3718  -31.3714   26.1443 C   0  0  0  0  0  0
  -27.0362  -30.2997   24.6232 C   0  0  0  0  0  0
  -27.6068  -32.4320   25.7498 C   0  0  0  0  0  0
  -27.5574  -37.1797   24.8452 C   0  0  0  0  0  0
  -21.4209  -29.3052   22.3645 N   0  0  0  0  0  0
  -26.4278  -37.3769   23.9408 N   0  0  0  0  0  0
  -24.6967  -31.0531   22.0961 N   0  0  0  0  0  0
  -23.4203  -28.8137   23.2993 O   0  0  0  0  0  0
  -28.3228  -26.3883   20.1459 O   0  0  0  0  0  0
  -26.5617  -34.8906   22.4675 O   0  0  0  0  0  0
  -23.5468  -32.1365   23.7298 O   0  0  0  0  0  0
  -29.8088  -23.9084   19.0237 C   0  0  0  0  0  0
  -30.5125  -22.7837   18.5727 C   0  0  0  0  0  0
  -28.9397  -23.7571   20.1083 C   0  0  0  0  0  0
  -29.5499  -21.4377   20.1716 C   0  0  0  0  0  0
  -30.2290  -16.2377   22.5203 C   0  0  0  0  0  0
  -28.4504  -16.3109   20.7981 C   0  0  0  0  0  0
  -28.9576  -18.5733   18.7709 C   0  0  0  0  0  0
  -28.0800  -24.9885   20.6367 C   0  0  0  0  0  0
  -29.4974  -19.9777   20.8024 C   0  0  0  0  0  0
  -30.6648  -17.5609   20.3954 C   0  0  0  0  0  0
  -29.9733  -16.1960   20.9981 C   0  0  0  0  0  0
  -30.3826  -21.5642   19.1422 N   0  0  0  0  0  0
  -28.8282  -22.4899   20.6673 N   0  0  0  0  0  0
  -29.9040  -18.8184   19.8883 N   0  3  1  0  0  0
  -31.4766  -12.6274   19.1356 H   0  0  0  0  0  0
  -30.4240  -11.5018   19.9281 H   0  0  0  0  0  0
  -29.8073  -11.7694   17.4987 H   0  0  0  0  0  0
  -29.6155  -13.4880   17.7264 H   0  0  0  0  0  0
  -27.8958  -11.2641   18.8810 H   0  0  0  0  0  0
  -27.3816  -12.5280   17.7945 H   0  0  0  0  0  0
  -27.6346  -14.2050   19.4504 H   0  0  0  0  0  0
  -28.7703  -12.0815   21.3360 H   0  0  0  0  0  0
  -28.4383  -13.6811   21.8613 H   0  0  0  0  0  0
  -25.2800   -9.5669   22.4722 H   0  0  0  0  0  0
  -24.0027   -7.4650   22.7491 H   0  0  0  0  0  0
  -21.0854   -8.8765   19.8964 H   0  0  0  0  0  0
  -22.3736  -10.9650   19.6142 H   0  0  0  0  0  0
  -21.2047   -7.6176   23.9776 H   0  0  0  0  0  0
  -21.1419   -6.0514   25.9094 H   0  0  0  0  0  0
  -22.0622   -2.7649   23.2821 H   0  0  0  0  0  0
  -22.4110  -11.9911   22.4748 H   0  0  0  0  0  0
  -21.1112  -13.1282   22.2581 H   0  0  0  0  0  0
  -24.6312  -15.8222   20.5046 H   0  0  0  0  0  0
  -26.2625  -15.6342   20.0997 H   0  0  0  0  0  0
  -26.7208  -32.5414   23.1098 H   0  0  0  0  0  0
  -25.0041  -33.9681   25.0398 H   0  0  0  0  0  0
  -22.7252  -31.3009   21.3941 H   0  0  0  0  0  0
  -23.3726  -35.9644   23.3291 H   0  0  0  0  0  0
  -24.3591  -36.8954   22.2060 H   0  0  0  0  0  0
  -23.7251  -37.6506   23.6680 H   0  0  0  0  0  0
  -26.1014  -31.5340   20.6012 H   0  0  0  0  0  0
  -26.8530  -30.8333   22.0028 H   0  0  0  0  0  0
  -28.1249  -28.9465   21.2054 H   0  0  0  0  0  0
  -25.9966  -25.9227   18.9766 H   0  0  0  0  0  0
  -23.9852  -27.3114   18.9888 H   0  0  0  0  0  0
  -23.7645  -30.5850   19.3987 H   0  0  0  0  0  0
  -22.7661  -29.2382   19.8566 H   0  0  0  0  0  0
  -25.1279  -36.1927   25.0820 H   0  0  0  0  0  0
  -20.9997  -28.3292   24.1377 H   0  0  0  0  0  0
  -20.5687  -26.2309   23.3619 H   0  0  0  0  0  0
  -21.6640  -26.7436   22.1199 H   0  0  0  0  0  0
  -19.6911  -25.6298   21.1247 H   0  0  0  0  0  0
  -19.6694  -27.3190   20.6737 H   0  0  0  0  0  0
  -17.4206  -26.6684   21.4018 H   0  0  0  0  0  0
  -18.0314  -26.0068   22.9014 H   0  0  0  0  0  0
  -19.7930  -30.7270   24.2277 H   0  0  0  0  0  0
  -17.5007  -31.6265   24.5156 H   0  0  0  0  0  0
  -15.5349  -30.2977   23.7658 H   0  0  0  0  0  0
  -15.8679  -28.0825   22.7059 H   0  0  0  0  0  0
  -24.5914  -30.7048   25.7758 H   0  0  0  0  0  0
  -24.8861  -32.2856   26.4846 H   0  0  0  0  0  0
  -25.8013  -30.8906   27.0240 H   0  0  0  0  0  0
  -26.2951  -29.6726   24.1260 H   0  0  0  0  0  0
  -27.4038  -29.7289   25.4771 H   0  0  0  0  0  0
  -27.8823  -30.4268   23.9480 H   0  0  0  0  0  0
  -27.2704  -33.3645   26.2040 H   0  0  0  0  0  0
  -28.3882  -32.6853   25.0320 H   0  0  0  0  0  0
  -28.0729  -31.8466   26.5437 H   0  0  0  0  0  0
  -28.2566  -38.0120   24.7527 H   0  0  0  0  0  0
  -28.1104  -36.2652   24.6239 H   0  0  0  0  0  0
  -27.2304  -37.1404   25.8860 H   0  0  0  0  0  0
  -20.9392  -29.8785   21.6859 H   0  0  0  0  0  0
  -26.0159  -38.2843   24.1420 H   0  0  0  0  0  0
  -29.9337  -24.8700   18.5434 H   0  0  0  0  0  0
  -31.1941  -22.8612   17.7386 H   0  0  0  0  0  0
  -29.8579  -17.1625   22.9640 H   0  0  0  0  0  0
  -31.2943  -16.1745   22.7513 H   0  0  0  0  0  0
  -29.7361  -15.4134   23.0359 H   0  0  0  0  0  0
  -28.0870  -17.2778   21.1406 H   0  0  0  0  0  0
  -27.8798  -15.6110   21.3967 H   0  0  0  0  0  0
  -28.1691  -16.2066   19.7528 H   0  0  0  0  0  0
  -28.9770  -19.3952   18.0552 H   0  0  0  0  0  0
  -27.9306  -18.4750   19.1201 H   0  0  0  0  0  0
  -29.2192  -17.6682   18.2219 H   0  0  0  0  0  0
  -28.2296  -25.0250   21.7165 H   0  0  0  0  0  0
  -27.0352  -24.7067   20.5133 H   0  0  0  0  0  0
  -28.4994  -19.7993   21.2010 H   0  0  0  0  0  0
  -30.1655  -19.9813   21.6630 H   0  0  0  0  0  0
  -31.2578  -17.2578   19.5319 H   0  0  0  0  0  0
  -31.4208  -17.9179   21.0959 H   0  0  0  0  0  0
  -30.6400  -19.3237   19.4087 H   0  0  0  0  0  0
  1 25  1  0  0  0
  1 30  2  0  0  0
  1 81  1  0  0  0
  2  3  1  0  0  0
  2 25  1  0  0  0
  2 85  1  0  0  0
  2 86  1  0  0  0
  3  4  1  0  0  0
  3 87  1  0  0  0
  3 88  1  0  0  0
  4  5  1  0  0  0
  4 89  1  0  0  0
  4 90  1  0  0  0
  5  6  1  0  0  0
  5 26  1  0  0  0
  5 91  1  0  0  0
  6 25  1  0  0  0
  6 92  1  0  0  0
  6 93  1  0  0  0
  7  8  2  0  0  0
  7 26  1  0  0  0
  7 29  1  0  0  0
  8  9  1  0  0  0
  8 22  1  0  0  0
  9 10  1  0  0  0
  9 27  2  0  0  0
 10 11  2  0  0  0
 10 15  1  0  0  0
 11 12  1  0  0  0
 11 94  1  0  0  0
 12 13  2  0  0  0
 12 95  1  0  0  0
 13 14  1  0  0  0
 13 31  1  0  0  0
 14 15  2  0  0  0
 14 96  1  0  0  0
 15 97  1  0  0  0
 16 17  2  0  0  0
 16 21  1  0  0  0
 16 31  1  0  0  0
 17 18  1  0  0  0
 17 98  1  0  0  0
 18 19  2  0  0  0
 18 99  1  0  0  0
 19 20  1  0  0  0
 19 24  1  0  0  0
 20 21  2  0  0  0
 20100  1  0  0  0
 21 23  1  0  0  0
 22 28  1  0  0  0
 22 32  2  0  0  0
 26 27  1  0  0  0
 28101  1  0  0  0
 28102  1  0  0  0
 29103  1  0  0  0
 29104  1  0  0  0
 33 34  1  0  0  0
 33 66  1  0  0  0
 33 70  2  0  0  0
 34 36  1  0  0  0
 34 59  1  0  0  0
 34105  1  0  0  0
 35 44  2  0  0  0
 35 45  1  0  0  0
 35 68  1  0  0  0
 36 56  1  0  0  0
 36106  1  0  0  0
 37 39  1  0  0  0
 37 47  1  0  0  0
 37 66  1  0  0  0
 37107  1  0  0  0
 38 43  2  0  0  0
 38 46  1  0  0  0
 38 47  1  0  0  0
 39 64  1  0  0  0
 39 67  2  0  0  0
 40 52  1  0  0  0
 40 53  2  0  0  0
 40 58  1  0  0  0
 41108  1  0  0  0
 41109  1  0  0  0
 41110  1  0  0  0
 41 48  1  0  0  0
 42 43  1  0  0  0
 42 66  1  0  0  0
 42111  1  0  0  0
 42112  1  0  0  0
 43 44  1  0  0  0
 44113  1  0  0  0
 45 46  2  0  0  0
 45114  1  0  0  0
 46115  1  0  0  0
 47116  1  0  0  0
 47117  1  0  0  0
 48 56  1  0  0  0
 48 65  1  0  0  0
 48118  1  0  0  0
 49 50  1  0  0  0
 49 53  1  0  0  0
 49 64  1  0  0  0
 49119  1  0  0  0
 50 51  1  0  0  0
 50120  1  0  0  0
 50121  1  0  0  0
 51 52  1  0  0  0
 51122  1  0  0  0
 51123  1  0  0  0
 52124  1  0  0  0
 52125  1  0  0  0
 53 54  1  0  0  0
 54 55  2  0  0  0
 54126  1  0  0  0
 55 57  1  0  0  0
 55127  1  0  0  0
 56 69  2  0  0  0
 57 58  2  0  0  0
 57128  1  0  0  0
 58129  1  0  0  0
 59 60  1  0  0  0
 59 61  1  0  0  0
 59 62  1  0  0  0
 60130  1  0  0  0
 60131  1  0  0  0
 60132  1  0  0  0
 61133  1  0  0  0
 61134  1  0  0  0
 61135  1  0  0  0
 62136  1  0  0  0
 62137  1  0  0  0
 62138  1  0  0  0
 63 65  1  0  0  0
 63139  1  0  0  0
 63140  1  0  0  0
 63141  1  0  0  0
 64142  1  0  0  0
 65143  1  0  0  0
 68 78  1  0  0  0
 71 72  2  0  0  0
 71 73  1  0  0  0
 71144  1  0  0  0
 72 82  1  0  0  0
 72145  1  0  0  0
 73 78  1  0  0  0
 73 83  2  0  0  0
 74 79  1  0  0  0
 74 82  2  0  0  0
 74 83  1  0  0  0
 75146  1  0  0  0
 75147  1  0  0  0
 75148  1  0  0  0
 75 81  1  0  0  0
 76 81  1  0  0  0
 76149  1  0  0  0
 76150  1  0  0  0
 76151  1  0  0  0
 77152  1  0  0  0
 77153  1  0  0  0
 77154  1  0  0  0
 77 84  1  0  0  0
 78155  1  0  0  0
 78156  1  0  0  0
 79 84  1  0  0  0
 79157  1  0  0  0
 79158  1  0  0  0
 80 81  1  0  0  0
 80 84  1  0  0  0
 80159  1  0  0  0
 80160  1  0  0  0
 84161  1  0  0  0
M  CHG  1  84   1
M  ISO  4   1 100  68 101  78 101  81 100
M  END
> <chiral flag>
0

> <version>
0

> <s_m_source_file>
/data/baiqing/PycharmProjects/Reinvent-master-3.2/result/LINK_invent/BTK/process_docking_weight1_custom_sum_contain_oxygen_bond_distance_aromatic_linkinvent_7_9_3/rearranged_h_0055.sdf

> <i_m_source_file_index>
38

> <r_mmod_Potential_Energy-OPLS-2005>
-339.569122314453

> <r_mmod_Stretch_Energy-OPLS-2005>
134.436721801758

> <r_mmod_Bend_Energy-OPLS-2005>
209.444961547852

> <r_mmod_Torsional_Energy-OPLS-2005>
243.944534301758

> <r_mmod_Improper_Torsional_Energy-OPLS-2005>
1.95412254333496

> <r_mmod_Van_der_Waal_Energy-OPLS-2005>
157.353134155273

> <r_mmod_Electrostatic_Energy-OPLS-2005>
-744.805419921875

> <r_mmod_Solvation_Energy-OPLS-2005>
-422.571228027344

> <b_mmod_Minimization_Converged-OPLS-2005>
0

> <r_mmod_RMS_Derivative-OPLS-2005>
2.18082714080811

$$$$
38
                    3D
 Structure written by MMmdl.
164172  0  0  1  0            999 V2000
  -30.7125  -14.4795   20.6047 C   0  0  0  0  0  0
  -30.4219  -12.3256   19.4177 C   0  0  0  0  0  0
  -29.4918  -12.5056   18.2014 C   0  0  0  0  0  0
  -28.0153  -12.3608   18.6185 C   0  0  0  0  0  0
  -27.6588  -13.2091   19.8685 C   0  0  2  0  0  0
  -28.7007  -13.0012   20.9895 C   0  0  0  0  0  0
  -25.2584  -13.8172   20.5685 C   0  0  0  0  0  0
  -24.1836  -13.0446   20.9181 C   0  0  0  0  0  0
  -24.6390  -11.6915   20.8731 C   0  0  0  0  0  0
  -23.9061  -10.4295   21.0404 C   0  0  0  0  0  0
  -24.3616   -9.4211   21.9185 C   0  0  0  0  0  0
  -23.6296   -8.2242   22.0762 C   0  0  0  0  0  0
  -22.4273   -8.0284   21.3554 C   0  0  0  0  0  0
  -21.9902   -9.0257   20.4655 C   0  0  0  0  0  0
  -22.7227  -10.2134   20.3061 C   0  0  0  0  0  0
  -21.6855   -6.0737   22.5281 C   0  0  0  0  0  0
  -21.4011   -6.5642   23.8213 C   0  0  0  0  0  0
  -21.3656   -5.6793   24.9177 C   0  0  0  0  0  0
  -21.6041   -4.3052   24.7223 C   0  0  0  0  0  0
  -21.8818   -3.8148   23.4342 C   0  0  0  0  0  0
  -21.9186   -4.6963   22.3399 C   0  0  0  0  0  0
  -22.7854  -13.5247   21.1826 C   0  0  0  0  0  0
  -22.1659   -4.2153   21.0974 F   0  0  0  0  0  0
  -21.5628   -3.4538   25.7737 F   0  0  0  0  0  0
  -30.0268  -13.3146   20.4335 N   0  0  0  0  0  0
  -26.3015  -12.9343   20.3341 N   0  0  0  0  0  0
  -25.9317  -11.6502   20.5757 N   0  0  0  0  0  0
  -22.0469  -12.8267   22.0382 N   0  0  0  0  0  0
  -25.4313  -15.1893   20.4125 N   0  0  0  0  0  0
  -31.8280  -14.6702   20.1138 O   0  0  0  0  0  0
  -21.6643   -6.8881   21.4247 O   0  0  0  0  0  0
  -22.3541  -14.5548   20.6664 O   0  0  0  0  0  0
  -24.6160  -31.8648   23.2077 C   0  0  0  0  0  0
  -25.9051  -32.4800   23.8382 C   0  0  1  0  0  0
  -27.2244  -27.3969   20.1128 C   0  0  0  0  0  0
  -25.5902  -33.8601   24.2303 N   0  0  0  0  0  0
  -23.4060  -30.4886   21.5476 C   0  0  2  0  0  0
  -24.8532  -28.9510   20.1135 C   0  0  0  0  0  0
  -22.7418  -29.4640   22.4963 C   0  0  0  0  0  0
  -18.0275  -28.1354   22.8489 C   0  0  0  0  0  0
  -24.1493  -36.7309   23.2637 C   0  0  0  0  0  0
  -25.9391  -30.8194   21.3679 C   0  0  0  0  0  0
  -26.0150  -29.4517   20.7146 C   0  0  0  0  0  0
  -27.2061  -28.6834   20.7075 C   0  0  0  0  0  0
  -26.0498  -26.9279   19.4866 C   0  0  0  0  0  0
  -24.8674  -27.6912   19.4931 C   0  0  0  0  0  0
  -23.6164  -29.8205   20.1626 C   0  0  0  0  0  0
  -25.4109  -36.3097   24.0330 C   0  0  1  0  0  0
  -20.5867  -28.3651   23.1301 C   0  0  2  0  0  0
  -20.6763  -26.9380   22.5406 C   0  0  0  0  0  0
  -19.5746  -26.6368   21.5195 C   0  0  0  0  0  0
  -18.1925  -26.7902   22.1612 C   0  0  0  0  0  0
  -19.1525  -28.8817   23.2896 C   0  0  0  0  0  0
  -18.9449  -30.1425   23.8905 C   0  0  0  0  0  0
  -17.6455  -30.6570   24.0551 C   0  0  0  0  0  0
  -25.9031  -34.9462   23.5113 C   0  0  0  0  0  0
  -16.5345  -29.9066   23.6327 C   0  0  0  0  0  0
  -16.7268  -28.6477   23.0357 C   0  0  0  0  0  0
  -26.4473  -31.6588   25.0721 C   0  0  0  0  0  0
  -25.3741  -31.3703   26.1476 C   0  0  0  0  0  0
  -27.0300  -30.3025   24.6111 C   0  0  0  0  0  0
  -27.6047  -32.4308   25.7485 C   0  0  0  0  0  0
  -27.5577  -37.1807   24.8459 C   0  0  0  0  0  0
  -21.4137  -29.3026   22.3708 N   0  0  0  0  0  0
  -26.4294  -37.3779   23.9400 N   0  0  0  0  0  0
  -24.6720  -31.0734   22.0982 N   0  0  0  0  0  0
  -23.4181  -28.8177   23.3009 O   0  0  0  0  0  0
  -28.3692  -26.6183   20.1169 O   0  0  0  0  0  0
  -26.5594  -34.8917   22.4672 O   0  0  0  0  0  0
  -23.5353  -32.1409   23.7450 O   0  0  0  0  0  0
  -30.6758  -19.2154   22.1385 C   0  0  0  0  0  0
  -30.1860  -18.0335   21.5108 C   0  0  0  0  0  0
  -28.7911  -19.3641   20.1956 C   0  0  0  0  0  0
  -29.3171  -20.5550   20.7942 C   0  0  0  0  0  0
  -33.1041  -19.5909   22.8210 C   0  0  0  0  0  0
  -27.3154  -20.6297   18.4281 C   0  0  0  0  0  0
  -31.6944  -19.1937   23.2727 C   0  0  0  0  0  0
  -27.6798  -19.3209   19.1439 C   0  0  0  0  0  0
  -30.7211  -16.6358   21.8943 C   0  0  0  0  0  0
  -29.3748  -24.3276   20.1716 C   0  0  0  0  0  0
  -28.2317  -25.2701   20.6422 C   0  0  0  0  0  0
  -29.5919  -22.9936   20.9601 C   0  0  0  0  0  0
  -29.2351  -18.1218   20.5479 N   0  0  0  0  0  0
  -30.2518  -20.4534   21.7750 N   0  0  0  0  0  0
  -30.0844  -15.4404   21.3087 N   0  0  0  0  0  0
  -28.9167  -21.8390   20.4153 O   0  0  0  0  0  0
  -31.4655  -12.4281   19.1158 H   0  0  0  0  0  0
  -30.3308  -11.3171   19.8248 H   0  0  0  0  0  0
  -29.7379  -11.7743   17.4307 H   0  0  0  0  0  0
  -29.6536  -13.4863   17.7524 H   0  0  0  0  0  0
  -27.8344  -11.3056   18.8266 H   0  0  0  0  0  0
  -27.3607  -12.6225   17.7856 H   0  0  0  0  0  0
  -27.7010  -14.2553   19.5638 H   0  0  0  0  0  0
  -28.6842  -11.9680   21.3398 H   0  0  0  0  0  0
  -28.4551  -13.6027   21.8639 H   0  0  0  0  0  0
  -25.2759   -9.5699   22.4761 H   0  0  0  0  0  0
  -24.0005   -7.4638   22.7489 H   0  0  0  0  0  0
  -21.0825   -8.8781   19.8964 H   0  0  0  0  0  0
  -22.3685  -10.9682   19.6175 H   0  0  0  0  0  0
  -21.2016   -7.6150   23.9721 H   0  0  0  0  0  0
  -21.1479   -6.0521   25.9082 H   0  0  0  0  0  0
  -22.0598   -2.7610   23.2837 H   0  0  0  0  0  0
  -22.4074  -11.9951   22.4820 H   0  0  0  0  0  0
  -21.1094  -13.1333   22.2563 H   0  0  0  0  0  0
  -24.6693  -15.8477   20.5363 H   0  0  0  0  0  0
  -26.2922  -15.6297   20.1130 H   0  0  0  0  0  0
  -26.7113  -32.5503   23.1133 H   0  0  0  0  0  0
  -25.0082  -33.9760   25.0475 H   0  0  0  0  0  0
  -22.6954  -31.3058   21.4058 H   0  0  0  0  0  0
  -23.3742  -35.9656   23.3304 H   0  0  0  0  0  0
  -24.3595  -36.8920   22.2051 H   0  0  0  0  0  0
  -23.7259  -37.6520   23.6654 H   0  0  0  0  0  0
  -26.0591  -31.5839   20.5996 H   0  0  0  0  0  0
  -26.8236  -30.8699   21.9907 H   0  0  0  0  0  0
  -28.1022  -29.0623   21.1788 H   0  0  0  0  0  0
  -26.0429  -25.9710   18.9858 H   0  0  0  0  0  0
  -23.9786  -27.3041   19.0137 H   0  0  0  0  0  0
  -23.7249  -30.5934   19.4006 H   0  0  0  0  0  0
  -22.7408  -29.2386   19.8686 H   0  0  0  0  0  0
  -25.1287  -36.1953   25.0824 H   0  0  0  0  0  0
  -20.9971  -28.3217   24.1416 H   0  0  0  0  0  0
  -20.5657  -26.2252   23.3592 H   0  0  0  0  0  0
  -21.6638  -26.7416   22.1205 H   0  0  0  0  0  0
  -19.6911  -25.6282   21.1218 H   0  0  0  0  0  0
  -19.6689  -27.3187   20.6731 H   0  0  0  0  0  0
  -17.4193  -26.6653   21.4013 H   0  0  0  0  0  0
  -18.0337  -26.0037   22.9007 H   0  0  0  0  0  0
  -19.7926  -30.7231   24.2284 H   0  0  0  0  0  0
  -17.5010  -31.6259   24.5131 H   0  0  0  0  0  0
  -15.5346  -30.2965   23.7640 H   0  0  0  0  0  0
  -15.8671  -28.0793   22.7073 H   0  0  0  0  0  0
  -24.5910  -30.7047   25.7825 H   0  0  0  0  0  0
  -24.8943  -32.2867   26.4928 H   0  0  0  0  0  0
  -25.8110  -30.8876   27.0228 H   0  0  0  0  0  0
  -26.2848  -29.6786   24.1160 H   0  0  0  0  0  0
  -27.4054  -29.7257   25.4573 H   0  0  0  0  0  0
  -27.8696  -30.4330   23.9277 H   0  0  0  0  0  0
  -27.2661  -33.3598   26.2085 H   0  0  0  0  0  0
  -28.3852  -32.6876   25.0309 H   0  0  0  0  0  0
  -28.0721  -31.8415   26.5384 H   0  0  0  0  0  0
  -28.2589  -38.0109   24.7497 H   0  0  0  0  0  0
  -28.1076  -36.2634   24.6291 H   0  0  0  0  0  0
  -27.2300  -37.1469   25.8866 H   0  0  0  0  0  0
  -20.9285  -29.8760   21.6946 H   0  0  0  0  0  0
  -26.0174  -38.2855   24.1401 H   0  0  0  0  0  0
  -33.8007  -19.5491   23.6584 H   0  0  0  0  0  0
  -33.1199  -20.6077   22.4282 H   0  0  0  0  0  0
  -33.4750  -18.9203   22.0455 H   0  0  0  0  0  0
  -26.5770  -20.4432   17.6480 H   0  0  0  0  0  0
  -28.1864  -21.0806   17.9525 H   0  0  0  0  0  0
  -26.8766  -21.3547   19.1140 H   0  0  0  0  0  0
  -31.7333  -18.2193   23.7555 H   0  0  0  0  0  0
  -31.3565  -19.8808   24.0491 H   0  0  0  0  0  0
  -26.7850  -18.9231   19.6249 H   0  0  0  0  0  0
  -27.9642  -18.5862   18.3892 H   0  0  0  0  0  0
  -30.6019  -16.5189   22.9707 H   0  0  0  0  0  0
  -31.7977  -16.6311   21.7138 H   0  0  0  0  0  0
  -30.2983  -24.8988   20.2718 H   0  0  0  0  0  0
  -29.2799  -24.1208   19.1054 H   0  0  0  0  0  0
  -28.2572  -25.3480   21.7303 H   0  0  0  0  0  0
  -27.2761  -24.8057   20.3985 H   0  0  0  0  0  0
  -29.3214  -23.1189   22.0097 H   0  0  0  0  0  0
  -30.6668  -22.8040   20.9379 H   0  0  0  0  0  0
  -29.1369  -15.2518   21.5950 H   0  0  0  0  0  0
  1 25  1  0  0  0
  1 30  2  0  0  0
  1 85  1  0  0  0
  2  3  1  0  0  0
  2 25  1  0  0  0
  2 87  1  0  0  0
  2 88  1  0  0  0
  3  4  1  0  0  0
  3 89  1  0  0  0
  3 90  1  0  0  0
  4  5  1  0  0  0
  4 91  1  0  0  0
  4 92  1  0  0  0
  5  6  1  0  0  0
  5 26  1  0  0  0
  5 93  1  0  0  0
  6 25  1  0  0  0
  6 94  1  0  0  0
  6 95  1  0  0  0
  7  8  2  0  0  0
  7 26  1  0  0  0
  7 29  1  0  0  0
  8  9  1  0  0  0
  8 22  1  0  0  0
  9 10  1  0  0  0
  9 27  2  0  0  0
 10 11  2  0  0  0
 10 15  1  0  0  0
 11 12  1  0  0  0
 11 96  1  0  0  0
 12 13  2  0  0  0
 12 97  1  0  0  0
 13 14  1  0  0  0
 13 31  1  0  0  0
 14 15  2  0  0  0
 14 98  1  0  0  0
 15 99  1  0  0  0
 16 17  2  0  0  0
 16 21  1  0  0  0
 16 31  1  0  0  0
 17 18  1  0  0  0
 17100  1  0  0  0
 18 19  2  0  0  0
 18101  1  0  0  0
 19 20  1  0  0  0
 19 24  1  0  0  0
 20 21  2  0  0  0
 20102  1  0  0  0
 21 23  1  0  0  0
 22 28  1  0  0  0
 22 32  2  0  0  0
 26 27  1  0  0  0
 28103  1  0  0  0
 28104  1  0  0  0
 29105  1  0  0  0
 29106  1  0  0  0
 33 34  1  0  0  0
 33 66  1  0  0  0
 33 70  2  0  0  0
 34 36  1  0  0  0
 34 59  1  0  0  0
 34107  1  0  0  0
 35 44  2  0  0  0
 35 45  1  0  0  0
 35 68  1  0  0  0
 36 56  1  0  0  0
 36108  1  0  0  0
 37 39  1  0  0  0
 37 47  1  0  0  0
 37 66  1  0  0  0
 37109  1  0  0  0
 38 43  2  0  0  0
 38 46  1  0  0  0
 38 47  1  0  0  0
 39 64  1  0  0  0
 39 67  2  0  0  0
 40 52  1  0  0  0
 40 53  2  0  0  0
 40 58  1  0  0  0
 41110  1  0  0  0
 41111  1  0  0  0
 41112  1  0  0  0
 41 48  1  0  0  0
 42 43  1  0  0  0
 42 66  1  0  0  0
 42113  1  0  0  0
 42114  1  0  0  0
 43 44  1  0  0  0
 44115  1  0  0  0
 45 46  2  0  0  0
 45116  1  0  0  0
 46117  1  0  0  0
 47118  1  0  0  0
 47119  1  0  0  0
 48 56  1  0  0  0
 48 65  1  0  0  0
 48120  1  0  0  0
 49 50  1  0  0  0
 49 53  1  0  0  0
 49 64  1  0  0  0
 49121  1  0  0  0
 50 51  1  0  0  0
 50122  1  0  0  0
 50123  1  0  0  0
 51 52  1  0  0  0
 51124  1  0  0  0
 51125  1  0  0  0
 52126  1  0  0  0
 52127  1  0  0  0
 53 54  1  0  0  0
 54 55  2  0  0  0
 54128  1  0  0  0
 55 57  1  0  0  0
 55129  1  0  0  0
 56 69  2  0  0  0
 57 58  2  0  0  0
 57130  1  0  0  0
 58131  1  0  0  0
 59 60  1  0  0  0
 59 61  1  0  0  0
 59 62  1  0  0  0
 60132  1  0  0  0
 60133  1  0  0  0
 60134  1  0  0  0
 61135  1  0  0  0
 61136  1  0  0  0
 61137  1  0  0  0
 62138  1  0  0  0
 62139  1  0  0  0
 62140  1  0  0  0
 63 65  1  0  0  0
 63141  1  0  0  0
 63142  1  0  0  0
 63143  1  0  0  0
 64144  1  0  0  0
 65145  1  0  0  0
 68 81  1  0  0  0
 71 72  2  0  0  0
 71 77  1  0  0  0
 71 84  1  0  0  0
 72 79  1  0  0  0
 72 83  1  0  0  0
 73 74  1  0  0  0
 73 78  1  0  0  0
 73 83  2  0  0  0
 74 84  2  0  0  0
 74 86  1  0  0  0
 75 77  1  0  0  0
 75146  1  0  0  0
 75147  1  0  0  0
 75148  1  0  0  0
 76 78  1  0  0  0
 76149  1  0  0  0
 76150  1  0  0  0
 76151  1  0  0  0
 77152  1  0  0  0
 77153  1  0  0  0
 78154  1  0  0  0
 78155  1  0  0  0
 79 85  1  0  0  0
 79156  1  0  0  0
 79157  1  0  0  0
 80 81  1  0  0  0
 80 82  1  0  0  0
 80158  1  0  0  0
 80159  1  0  0  0
 81160  1  0  0  0
 81161  1  0  0  0
 82 86  1  0  0  0
 82162  1  0  0  0
 82163  1  0  0  0
 85164  1  0  0  0
M  ISO  4   1 100  68 101  81 101  85 100
M  END
> <chiral flag>
0

> <version>
0

> <s_m_source_file>
/data/baiqing/PycharmProjects/Reinvent-master-3.2/result/LINK_invent/BTK/process_docking_weight1_custom_sum_contain_oxygen_bond_distance_aromatic_linkinvent_7_9_3/rearranged_h_0055.sdf

> <i_m_source_file_index>
39

> <r_mmod_Potential_Energy-OPLS-2005>
-60.8318099975586

> <r_mmod_Stretch_Energy-OPLS-2005>
49.8613929748535

> <r_mmod_Bend_Energy-OPLS-2005>
120.601745605469

> <r_mmod_Torsional_Energy-OPLS-2005>
197.363967895508

> <r_mmod_Improper_Torsional_Energy-OPLS-2005>
2.04981112480164

> <r_mmod_Van_der_Waal_Energy-OPLS-2005>
162.681716918945

> <r_mmod_Electrostatic_Energy-OPLS-2005>
-398.284393310547

> <r_mmod_Solvation_Energy-OPLS-2005>
-211.399276733398

> <b_mmod_Minimization_Converged-OPLS-2005>
0

> <r_mmod_RMS_Derivative-OPLS-2005>
1.79744231700897

$$$$
39
                    3D
 Structure written by MMmdl.
184192  0  0  1  0            999 V2000
  -30.7296  -14.4431   20.5839 C   0  0  0  0  0  0
  -30.4248  -12.2965   19.4181 C   0  0  0  0  0  0
  -29.5017  -12.5123   18.2017 C   0  0  0  0  0  0
  -28.0210  -12.3873   18.6101 C   0  0  0  0  0  0
  -27.6681  -13.2152   19.8739 C   0  0  2  0  0  0
  -28.7084  -12.9838   20.9932 C   0  0  0  0  0  0
  -25.2614  -13.8201   20.5705 C   0  0  0  0  0  0
  -24.1859  -13.0471   20.9191 C   0  0  0  0  0  0
  -24.6418  -11.6932   20.8736 C   0  0  0  0  0  0
  -23.9081  -10.4304   21.0396 C   0  0  0  0  0  0
  -24.3624   -9.4205   21.9188 C   0  0  0  0  0  0
  -23.6286   -8.2233   22.0752 C   0  0  0  0  0  0
  -22.4268   -8.0281   21.3535 C   0  0  0  0  0  0
  -21.9900   -9.0272   20.4651 C   0  0  0  0  0  0
  -22.7245  -10.2144   20.3053 C   0  0  0  0  0  0
  -21.6853   -6.0731   22.5270 C   0  0  0  0  0  0
  -21.4031   -6.5627   23.8202 C   0  0  0  0  0  0
  -21.3661   -5.6770   24.9162 C   0  0  0  0  0  0
  -21.6042   -4.3039   24.7221 C   0  0  0  0  0  0
  -21.8819   -3.8130   23.4344 C   0  0  0  0  0  0
  -21.9191   -4.6963   22.3396 C   0  0  0  0  0  0
  -22.7846  -13.5268   21.1801 C   0  0  0  0  0  0
  -22.1654   -4.2134   21.0982 F   0  0  0  0  0  0
  -21.5620   -3.4521   25.7743 F   0  0  0  0  0  0
  -30.0438  -13.2783   20.4478 N   0  0  0  0  0  0
  -26.3064  -12.9387   20.3346 N   0  0  0  0  0  0
  -25.9347  -11.6535   20.5726 N   0  0  0  0  0  0
  -22.0449  -12.8315   22.0378 N   0  0  0  0  0  0
  -25.4376  -15.1928   20.4156 N   0  0  0  0  0  0
  -31.8418  -14.6281   20.0863 O   0  0  0  0  0  0
  -21.6624   -6.8889   21.4228 O   0  0  0  0  0  0
  -22.3559  -14.5543   20.6599 O   0  0  0  0  0  0
  -24.6133  -31.8694   23.2122 C   0  0  0  0  0  0
  -25.9024  -32.4833   23.8420 C   0  0  1  0  0  0
  -27.2677  -27.4671   20.0924 C   0  0  0  0  0  0
  -25.5883  -33.8629   24.2358 N   0  0  0  0  0  0
  -23.4037  -30.4899   21.5509 C   0  0  2  0  0  0
  -24.8598  -28.9592   20.1209 C   0  0  0  0  0  0
  -22.7415  -29.4657   22.4998 C   0  0  0  0  0  0
  -18.0267  -28.1383   22.8488 C   0  0  0  0  0  0
  -24.1484  -36.7325   23.2639 C   0  0  0  0  0  0
  -25.9286  -30.8466   21.3603 C   0  0  0  0  0  0
  -26.0165  -29.4819   20.7125 C   0  0  0  0  0  0
  -27.2251  -28.7473   20.6988 C   0  0  0  0  0  0
  -26.0880  -26.9518   19.5168 C   0  0  0  0  0  0
  -24.8887  -27.6893   19.5209 C   0  0  0  0  0  0
  -23.6161  -29.8185   20.1678 C   0  0  0  0  0  0
  -25.4100  -36.3119   24.0346 C   0  0  1  0  0  0
  -20.5862  -28.3673   23.1320 C   0  0  2  0  0  0
  -20.6763  -26.9412   22.5420 C   0  0  0  0  0  0
  -19.5744  -26.6393   21.5214 C   0  0  0  0  0  0
  -18.1920  -26.7924   22.1627 C   0  0  0  0  0  0
  -19.1513  -28.8846   23.2904 C   0  0  0  0  0  0
  -18.9446  -30.1446   23.8919 C   0  0  0  0  0  0
  -17.6451  -30.6589   24.0567 C   0  0  0  0  0  0
  -25.9014  -34.9477   23.5145 C   0  0  0  0  0  0
  -16.5342  -29.9090   23.6323 C   0  0  0  0  0  0
  -16.7257  -28.6508   23.0343 C   0  0  0  0  0  0
  -26.4465  -31.6589   25.0726 C   0  0  0  0  0  0
  -25.3751  -31.3689   26.1496 C   0  0  0  0  0  0
  -27.0291  -30.3037   24.6065 C   0  0  0  0  0  0
  -27.6055  -32.4302   25.7473 C   0  0  0  0  0  0
  -27.5573  -37.1823   24.8471 C   0  0  0  0  0  0
  -21.4144  -29.3039   22.3735 N   0  0  0  0  0  0
  -26.4301  -37.3793   23.9392 N   0  0  0  0  0  0
  -24.6667  -31.0813   22.1005 N   0  0  0  0  0  0
  -23.4182  -28.8202   23.3041 O   0  0  0  0  0  0
  -28.3775  -26.6447   20.0246 O   0  0  0  0  0  0
  -26.5575  -34.8929   22.4704 O   0  0  0  0  0  0
  -23.5333  -32.1418   23.7525 O   0  0  0  0  0  0
  -30.0808  -21.7797   19.5007 C   0  0  0  0  0  0
  -30.2080  -20.7478   18.5671 C   0  0  0  0  0  0
  -29.9512  -21.4159   20.8478 C   0  0  0  0  0  0
  -29.7174  -19.2114   20.1855 C   0  0  0  0  0  0
  -32.1866  -21.3904   17.1471 C   0  0  0  0  0  0
  -29.3987  -20.9728   24.1487 C   0  0  0  0  0  0
  -32.1742  -23.4928   20.8186 C   0  0  0  0  0  0
  -30.1437  -27.9682   19.0551 C   0  0  0  0  0  0
  -28.4747  -22.9483   22.1375 C   0  0  0  0  0  0
  -30.2327  -25.7748   22.9120 C   0  0  0  0  0  0
  -30.6859  -21.0522   17.1624 C   0  0  0  0  0  0
  -29.3141  -17.7726   20.5327 C   0  0  0  0  0  0
  -30.4175  -21.8052   23.3417 C   0  0  0  0  0  0
  -30.4514  -16.8821   21.0911 C   0  0  0  0  0  0
  -30.6067  -25.8918   20.4503 C   0  0  0  0  0  0
  -30.9464  -23.7025   21.7521 C   0  0  2  0  0  0
  -29.6960  -27.1361   20.2647 C   0  0  2  0  0  0
  -29.9434  -22.4696   21.9920 C   0  0  1  0  0  0
  -30.0342  -19.4593   18.9173 N   0  0  0  0  0  0
  -29.6957  -20.1210   21.1557 N   0  0  0  0  0  0
  -30.0617  -15.4564   21.1627 N   0  0  0  0  0  0
  -30.2409  -25.0311   21.6213 N   0  3  1  0  0  0
  -31.4694  -12.3892   19.1195 H   0  0  0  0  0  0
  -30.3201  -11.2824   19.8079 H   0  0  0  0  0  0
  -29.7339  -11.7865   17.4215 H   0  0  0  0  0  0
  -29.6834  -13.4985   17.7722 H   0  0  0  0  0  0
  -27.8193  -11.3328   18.7926 H   0  0  0  0  0  0
  -27.3775  -12.6754   17.7778 H   0  0  0  0  0  0
  -27.7194  -14.2669   19.5881 H   0  0  0  0  0  0
  -28.6742  -11.9440   21.3257 H   0  0  0  0  0  0
  -28.4714  -13.5837   21.8735 H   0  0  0  0  0  0
  -25.2771   -9.5656   22.4766 H   0  0  0  0  0  0
  -23.9965   -7.4632   22.7503 H   0  0  0  0  0  0
  -21.0796   -8.8834   19.8986 H   0  0  0  0  0  0
  -22.3727  -10.9687   19.6150 H   0  0  0  0  0  0
  -21.2036   -7.6129   23.9723 H   0  0  0  0  0  0
  -21.1479   -6.0487   25.9069 H   0  0  0  0  0  0
  -22.0607   -2.7590   23.2843 H   0  0  0  0  0  0
  -22.3997  -12.0010   22.4856 H   0  0  0  0  0  0
  -21.1079  -13.1407   22.2531 H   0  0  0  0  0  0
  -24.6797  -15.8563   20.5369 H   0  0  0  0  0  0
  -26.2976  -15.6238   20.1000 H   0  0  0  0  0  0
  -26.7107  -32.5579   23.1210 H   0  0  0  0  0  0
  -25.0055  -33.9796   25.0521 H   0  0  0  0  0  0
  -22.6919  -31.3055   21.4089 H   0  0  0  0  0  0
  -23.3722  -35.9687   23.3358 H   0  0  0  0  0  0
  -24.3574  -36.8872   22.2041 H   0  0  0  0  0  0
  -23.7281  -37.6570   23.6609 H   0  0  0  0  0  0
  -26.0312  -31.6117   20.5899 H   0  0  0  0  0  0
  -26.8192  -30.9101   21.9729 H   0  0  0  0  0  0
  -28.1007  -29.1803   21.1582 H   0  0  0  0  0  0
  -26.1051  -25.9728   19.0557 H   0  0  0  0  0  0
  -23.9997  -27.2729   19.0668 H   0  0  0  0  0  0
  -23.7228  -30.5914   19.4059 H   0  0  0  0  0  0
  -22.7441  -29.2316   19.8734 H   0  0  0  0  0  0
  -25.1279  -36.1998   25.0844 H   0  0  0  0  0  0
  -20.9945  -28.3234   24.1444 H   0  0  0  0  0  0
  -20.5677  -26.2273   23.3600 H   0  0  0  0  0  0
  -21.6632  -26.7469   22.1201 H   0  0  0  0  0  0
  -19.6904  -25.6307   21.1229 H   0  0  0  0  0  0
  -19.6676  -27.3213   20.6751 H   0  0  0  0  0  0
  -17.4188  -26.6670   21.4033 H   0  0  0  0  0  0
  -18.0330  -26.0074   22.9032 H   0  0  0  0  0  0
  -19.7924  -30.7262   24.2300 H   0  0  0  0  0  0
  -17.5005  -31.6269   24.5167 H   0  0  0  0  0  0
  -15.5343  -30.3003   23.7642 H   0  0  0  0  0  0
  -15.8649  -28.0840   22.7046 H   0  0  0  0  0  0
  -24.5902  -30.7057   25.7843 H   0  0  0  0  0  0
  -24.8972  -32.2847   26.4988 H   0  0  0  0  0  0
  -25.8126  -30.8829   27.0228 H   0  0  0  0  0  0
  -26.2820  -29.6808   24.1135 H   0  0  0  0  0  0
  -27.4092  -29.7259   25.4500 H   0  0  0  0  0  0
  -27.8640  -30.4370   23.9182 H   0  0  0  0  0  0
  -27.2683  -33.3591   26.2089 H   0  0  0  0  0  0
  -28.3835  -32.6883   25.0273 H   0  0  0  0  0  0
  -28.0759  -31.8404   26.5355 H   0  0  0  0  0  0
  -28.2633  -38.0078   24.7461 H   0  0  0  0  0  0
  -28.1028  -36.2610   24.6368 H   0  0  0  0  0  0
  -27.2286  -37.1566   25.8877 H   0  0  0  0  0  0
  -20.9308  -29.8755   21.6952 H   0  0  0  0  0  0
  -26.0195  -38.2883   24.1360 H   0  0  0  0  0  0
  -30.1572  -22.8067   19.1774 H   0  0  0  0  0  0
  -32.5199  -21.6540   16.1449 H   0  0  0  0  0  0
  -32.7845  -20.5454   17.4918 H   0  0  0  0  0  0
  -32.4084  -22.2398   17.7963 H   0  0  0  0  0  0
  -29.8835  -20.5119   25.0090 H   0  0  0  0  0  0
  -28.9500  -20.1692   23.5693 H   0  0  0  0  0  0
  -28.5933  -21.5938   24.5398 H   0  0  0  0  0  0
  -32.5950  -22.4947   20.9486 H   0  0  0  0  0  0
  -32.9668  -24.2008   21.0584 H   0  0  0  0  0  0
  -31.9797  -23.6242   19.7581 H   0  0  0  0  0  0
  -31.1895  -28.2634   19.1457 H   0  0  0  0  0  0
  -29.5551  -28.8799   18.9588 H   0  0  0  0  0  0
  -30.0356  -27.4025   18.1296 H   0  0  0  0  0  0
  -27.8029  -22.1032   22.2895 H   0  0  0  0  0  0
  -28.1230  -23.4530   21.2369 H   0  0  0  0  0  0
  -28.3340  -23.6176   22.9851 H   0  0  0  0  0  0
  -29.4658  -26.5469   22.9336 H   0  0  0  0  0  0
  -31.2003  -26.2394   23.1061 H   0  0  0  0  0  0
  -30.0102  -25.1135   23.7506 H   0  0  0  0  0  0
  -30.1098  -21.8851   16.7585 H   0  0  0  0  0  0
  -30.4931  -20.1949   16.5171 H   0  0  0  0  0  0
  -28.9039  -17.3190   19.6288 H   0  0  0  0  0  0
  -28.4869  -17.7984   21.2404 H   0  0  0  0  0  0
  -31.3137  -21.2100   23.1554 H   0  0  0  0  0  0
  -30.7313  -22.5608   24.0607 H   0  0  0  0  0  0
  -30.7441  -17.2273   22.0836 H   0  0  0  0  0  0
  -31.3275  -17.0227   20.4547 H   0  0  0  0  0  0
  -31.6448  -26.2136   20.5463 H   0  0  0  0  0  0
  -30.5435  -25.3024   19.5350 H   0  0  0  0  0  0
  -31.5175  -23.8230   22.6710 H   0  0  0  0  0  0
  -29.7467  -27.7655   21.1516 H   0  0  0  0  0  0
  -29.1667  -15.2339   21.5722 H   0  0  0  0  0  0
  -29.2736  -24.7793   21.4606 H   0  0  0  0  0  0
  1 25  1  0  0  0
  1 30  2  0  0  0
  1 91  1  0  0  0
  2  3  1  0  0  0
  2 25  1  0  0  0
  2 93  1  0  0  0
  2 94  1  0  0  0
  3  4  1  0  0  0
  3 95  1  0  0  0
  3 96  1  0  0  0
  4  5  1  0  0  0
  4 97  1  0  0  0
  4 98  1  0  0  0
  5  6  1  0  0  0
  5 26  1  0  0  0
  5 99  1  0  0  0
  6 25  1  0  0  0
  6100  1  0  0  0
  6101  1  0  0  0
  7  8  2  0  0  0
  7 26  1  0  0  0
  7 29  1  0  0  0
  8  9  1  0  0  0
  8 22  1  0  0  0
  9 10  1  0  0  0
  9 27  2  0  0  0
 10 11  2  0  0  0
 10 15  1  0  0  0
 11 12  1  0  0  0
 11102  1  0  0  0
 12 13  2  0  0  0
 12103  1  0  0  0
 13 14  1  0  0  0
 13 31  1  0  0  0
 14 15  2  0  0  0
 14104  1  0  0  0
 15105  1  0  0  0
 16 17  2  0  0  0
 16 21  1  0  0  0
 16 31  1  0  0  0
 17 18  1  0  0  0
 17106  1  0  0  0
 18 19  2  0  0  0
 18107  1  0  0  0
 19 20  1  0  0  0
 19 24  1  0  0  0
 20 21  2  0  0  0
 20108  1  0  0  0
 21 23  1  0  0  0
 22 28  1  0  0  0
 22 32  2  0  0  0
 26 27  1  0  0  0
 28109  1  0  0  0
 28110  1  0  0  0
 29111  1  0  0  0
 29112  1  0  0  0
 33 34  1  0  0  0
 33 66  1  0  0  0
 33 70  2  0  0  0
 34 36  1  0  0  0
 34 59  1  0  0  0
 34113  1  0  0  0
 35 44  2  0  0  0
 35 45  1  0  0  0
 35 68  1  0  0  0
 36 56  1  0  0  0
 36114  1  0  0  0
 37 39  1  0  0  0
 37 47  1  0  0  0
 37 66  1  0  0  0
 37115  1  0  0  0
 38 43  2  0  0  0
 38 46  1  0  0  0
 38 47  1  0  0  0
 39 64  1  0  0  0
 39 67  2  0  0  0
 40 52  1  0  0  0
 40 53  2  0  0  0
 40 58  1  0  0  0
 41116  1  0  0  0
 41117  1  0  0  0
 41118  1  0  0  0
 41 48  1  0  0  0
 42 43  1  0  0  0
 42 66  1  0  0  0
 42119  1  0  0  0
 42120  1  0  0  0
 43 44  1  0  0  0
 44121  1  0  0  0
 45 46  2  0  0  0
 45122  1  0  0  0
 46123  1  0  0  0
 47124  1  0  0  0
 47125  1  0  0  0
 48 56  1  0  0  0
 48 65  1  0  0  0
 48126  1  0  0  0
 49 50  1  0  0  0
 49 53  1  0  0  0
 49 64  1  0  0  0
 49127  1  0  0  0
 50 51  1  0  0  0
 50128  1  0  0  0
 50129  1  0  0  0
 51 52  1  0  0  0
 51130  1  0  0  0
 51131  1  0  0  0
 52132  1  0  0  0
 52133  1  0  0  0
 53 54  1  0  0  0
 54 55  2  0  0  0
 54134  1  0  0  0
 55 57  1  0  0  0
 55135  1  0  0  0
 56 69  2  0  0  0
 57 58  2  0  0  0
 57136  1  0  0  0
 58137  1  0  0  0
 59 60  1  0  0  0
 59 61  1  0  0  0
 59 62  1  0  0  0
 60138  1  0  0  0
 60139  1  0  0  0
 60140  1  0  0  0
 61141  1  0  0  0
 61142  1  0  0  0
 61143  1  0  0  0
 62144  1  0  0  0
 62145  1  0  0  0
 62146  1  0  0  0
 63 65  1  0  0  0
 63147  1  0  0  0
 63148  1  0  0  0
 63149  1  0  0  0
 64150  1  0  0  0
 65151  1  0  0  0
 68 87  1  0  0  0
 71 72  2  0  0  0
 71 73  1  0  0  0
 71152  1  0  0  0
 72 81  1  0  0  0
 72 89  1  0  0  0
 73 88  1  0  0  0
 73 90  2  0  0  0
 74 82  1  0  0  0
 74 89  2  0  0  0
 74 90  1  0  0  0
 75 81  1  0  0  0
 75153  1  0  0  0
 75154  1  0  0  0
 75155  1  0  0  0
 76 83  1  0  0  0
 76156  1  0  0  0
 76157  1  0  0  0
 76158  1  0  0  0
 77159  1  0  0  0
 77160  1  0  0  0
 77161  1  0  0  0
 77 86  1  0  0  0
 78162  1  0  0  0
 78163  1  0  0  0
 78164  1  0  0  0
 78 87  1  0  0  0
 79165  1  0  0  0
 79166  1  0  0  0
 79167  1  0  0  0
 79 88  1  0  0  0
 80168  1  0  0  0
 80169  1  0  0  0
 80170  1  0  0  0
 80 92  1  0  0  0
 81171  1  0  0  0
 81172  1  0  0  0
 82 84  1  0  0  0
 82173  1  0  0  0
 82174  1  0  0  0
 83 88  1  0  0  0
 83175  1  0  0  0
 83176  1  0  0  0
 84 91  1  0  0  0
 84177  1  0  0  0
 84178  1  0  0  0
 85 87  1  0  0  0
 85 92  1  0  0  0
 85179  1  0  0  0
 85180  1  0  0  0
 86 88  1  0  0  0
 86 92  1  0  0  0
 86181  1  0  0  0
 87182  1  0  0  0
 91183  1  0  0  0
 92184  1  0  0  0
M  CHG  1  92   1
M  ISO  4   1 100  68 101  87 101  91 100
M  END
> <chiral flag>
0

> <version>
0

> <s_m_source_file>
/data/baiqing/PycharmProjects/Reinvent-master-3.2/result/LINK_invent/BTK/process_docking_weight1_custom_sum_contain_oxygen_bond_distance_aromatic_linkinvent_7_9_3/rearranged_h_0055.sdf

> <i_m_source_file_index>
40

> <r_mmod_Potential_Energy-OPLS-2005>
-425.332611083984

> <r_mmod_Stretch_Energy-OPLS-2005>
52.9533157348633

> <r_mmod_Bend_Energy-OPLS-2005>
149.140991210938

> <r_mmod_Torsional_Energy-OPLS-2005>
250.170684814453

> <r_mmod_Improper_Torsional_Energy-OPLS-2005>
4.43858575820923

> <r_mmod_Van_der_Waal_Energy-OPLS-2005>
185.614334106445

> <r_mmod_Electrostatic_Energy-OPLS-2005>
-645.432006835938

> <r_mmod_Solvation_Energy-OPLS-2005>
-432.052856445312

> <b_mmod_Minimization_Converged-OPLS-2005>
0

> <r_mmod_RMS_Derivative-OPLS-2005>
3.94193339347839

$$$$
40
                    3D
 Structure written by MMmdl.
152160  0  0  1  0            999 V2000
  -30.5248  -14.7923   20.3721 C   0  0  0  0  0  0
  -30.4582  -12.4464   19.5082 C   0  0  0  0  0  0
  -29.5405  -12.4244   18.2599 C   0  0  0  0  0  0
  -28.0451  -12.3048   18.6494 C   0  0  0  0  0  0
  -27.6368  -13.1931   19.8583 C   0  0  2  0  0  0
  -28.6866  -13.1512   20.9878 C   0  0  0  0  0  0
  -25.2528  -13.8062   20.5732 C   0  0  0  0  0  0
  -24.1783  -13.0359   20.9249 C   0  0  0  0  0  0
  -24.6336  -11.6831   20.8804 C   0  0  0  0  0  0
  -23.9001  -10.4248   21.0447 C   0  0  0  0  0  0
  -24.3581   -9.4187   21.9224 C   0  0  0  0  0  0
  -23.6285   -8.2206   22.0755 C   0  0  0  0  0  0
  -22.4268   -8.0257   21.3536 C   0  0  0  0  0  0
  -21.9895   -9.0228   20.4636 C   0  0  0  0  0  0
  -22.7189  -10.2120   20.3074 C   0  0  0  0  0  0
  -21.6842   -6.0739   22.5285 C   0  0  0  0  0  0
  -21.4008   -6.5639   23.8219 C   0  0  0  0  0  0
  -21.3662   -5.6786   24.9172 C   0  0  0  0  0  0
  -21.6044   -4.3051   24.7229 C   0  0  0  0  0  0
  -21.8825   -3.8153   23.4347 C   0  0  0  0  0  0
  -21.9196   -4.6972   22.3407 C   0  0  0  0  0  0
  -22.7829  -13.5217   21.1887 C   0  0  0  0  0  0
  -22.1675   -4.2161   21.0986 F   0  0  0  0  0  0
  -21.5625   -3.4532   25.7746 F   0  0  0  0  0  0
  -29.9906  -13.5180   20.4164 N   0  0  0  0  0  0
  -26.2906  -12.9153   20.3361 N   0  0  0  0  0  0
  -25.9248  -11.6352   20.5837 N   0  0  0  0  0  0
  -22.0471  -12.8220   22.0447 N   0  0  0  0  0  0
  -25.4241  -15.1778   20.4147 N   0  0  0  0  0  0
  -31.7387  -14.9276   20.1858 O   0  0  0  0  0  0
  -21.6615   -6.8871   21.4242 O   0  0  0  0  0  0
  -22.3559  -14.5553   20.6759 O   0  0  0  0  0  0
  -24.6266  -31.8565   23.1989 C   0  0  0  0  0  0
  -25.9093  -32.4768   23.8335 C   0  0  1  0  0  0
  -27.2302  -27.2878   20.1534 C   0  0  0  0  0  0
  -25.5920  -33.8569   24.2275 N   0  0  0  0  0  0
  -23.4243  -30.4769   21.5412 C   0  0  2  0  0  0
  -24.8760  -28.9239   20.1135 C   0  0  0  0  0  0
  -22.7483  -29.4608   22.4927 C   0  0  0  0  0  0
  -18.0299  -28.1398   22.8478 C   0  0  0  0  0  0
  -24.1507  -36.7278   23.2639 C   0  0  0  0  0  0
  -25.9647  -30.7829   21.3702 C   0  0  0  0  0  0
  -26.0441  -29.4053   20.7193 C   0  0  0  0  0  0
  -27.2267  -28.6021   20.7219 C   0  0  0  0  0  0
  -26.0441  -26.8630   19.5189 C   0  0  0  0  0  0
  -24.8796  -27.6600   19.4992 C   0  0  0  0  0  0
  -23.6423  -29.8056   20.1593 C   0  0  0  0  0  0
  -25.4129  -36.3081   24.0325 C   0  0  1  0  0  0
  -20.5899  -28.3699   23.1281 C   0  0  2  0  0  0
  -20.6800  -26.9422   22.5415 C   0  0  0  0  0  0
  -19.5780  -26.6383   21.5217 C   0  0  0  0  0  0
  -18.1950  -26.7936   22.1618 C   0  0  0  0  0  0
  -19.1550  -28.8866   23.2874 C   0  0  0  0  0  0
  -18.9467  -30.1466   23.8885 C   0  0  0  0  0  0
  -17.6466  -30.6596   24.0561 C   0  0  0  0  0  0
  -25.9059  -34.9449   23.5110 C   0  0  0  0  0  0
  -16.5360  -29.9087   23.6336 C   0  0  0  0  0  0
  -16.7279  -28.6512   23.0342 C   0  0  0  0  0  0
  -26.4481  -31.6564   25.0690 C   0  0  0  0  0  0
  -25.3732  -31.3686   26.1435 C   0  0  0  0  0  0
  -27.0292  -30.2990   24.6113 C   0  0  0  0  0  0
  -27.6050  -32.4285   25.7466 C   0  0  0  0  0  0
  -27.5595  -37.1804   24.8470 C   0  0  0  0  0  0
  -21.4205  -29.3034   22.3653 N   0  0  0  0  0  0
  -26.4312  -37.3767   23.9402 N   0  0  0  0  0  0
  -24.6910  -31.0560   22.0947 N   0  0  0  0  0  0
  -23.4185  -28.8171   23.3040 O   0  0  0  0  0  0
  -28.3395  -26.4206   20.1753 O   0  0  0  0  0  0
  -26.5641  -34.8915   22.4685 O   0  0  0  0  0  0
  -23.5419  -32.1380   23.7284 O   0  0  0  0  0  0
  -29.5224  -18.7035   19.7311 C   0  0  0  0  0  0
  -30.0766  -18.0914   21.7077 C   0  0  0  0  0  0
  -29.6138  -19.8666   20.4943 C   0  0  0  0  0  0
  -29.1819  -16.0663   18.6099 C   0  0  0  0  0  0
  -28.9000  -23.7614   20.1160 C   0  0  0  0  0  0
  -28.1853  -25.0546   20.7730 C   0  0  0  0  0  0
  -28.9318  -22.3140   20.8551 C   0  0  0  0  0  0
  -29.5413  -16.0631   20.1188 C   0  0  2  0  0  0
  -29.9857  -19.4436   21.7746 N   0  0  0  0  0  0
  -29.7892  -17.5323   20.5111 N   0  0  0  0  0  0
  -29.4597  -21.1864   20.0473 O   0  0  0  0  0  0
  -31.4974  -12.5944   19.2116 H   0  0  0  0  0  0
  -30.4293  -11.4821   20.0177 H   0  0  0  0  0  0
  -29.8156  -11.5833   17.6231 H   0  0  0  0  0  0
  -29.7292  -13.2950   17.6367 H   0  0  0  0  0  0
  -27.8659  -11.2587   18.8964 H   0  0  0  0  0  0
  -27.4095  -12.5200   17.7895 H   0  0  0  0  0  0
  -27.5806  -14.2041   19.4862 H   0  0  0  0  0  0
  -28.7323  -12.1601   21.4420 H   0  0  0  0  0  0
  -28.4152  -13.8336   21.7950 H   0  0  0  0  0  0
  -25.2733   -9.5682   22.4777 H   0  0  0  0  0  0
  -24.0024   -7.4588   22.7455 H   0  0  0  0  0  0
  -21.0837   -8.8740   19.8928 H   0  0  0  0  0  0
  -22.3670  -10.9667   19.6177 H   0  0  0  0  0  0
  -21.1998   -7.6148   23.9729 H   0  0  0  0  0  0
  -21.1475   -6.0508   25.9071 H   0  0  0  0  0  0
  -22.0606   -2.7618   23.2832 H   0  0  0  0  0  0
  -22.4089  -11.9877   22.4821 H   0  0  0  0  0  0
  -21.1088  -13.1239   22.2662 H   0  0  0  0  0  0
  -24.6566  -15.8316   20.5242 H   0  0  0  0  0  0
  -26.2726  -15.6168   20.0831 H   0  0  0  0  0  0
  -26.7154  -32.5438   23.1078 H   0  0  0  0  0  0
  -25.0056  -33.9724   25.0411 H   0  0  0  0  0  0
  -22.7182  -31.2975   21.3940 H   0  0  0  0  0  0
  -23.3782  -35.9603   23.3304 H   0  0  0  0  0  0
  -24.3607  -36.8885   22.2060 H   0  0  0  0  0  0
  -23.7246  -37.6470   23.6663 H   0  0  0  0  0  0
  -26.0912  -31.5431   20.5976 H   0  0  0  0  0  0
  -26.8470  -30.8419   21.9966 H   0  0  0  0  0  0
  -28.1252  -28.9712   21.1963 H   0  0  0  0  0  0
  -26.0131  -25.8917   19.0453 H   0  0  0  0  0  0
  -23.9864  -27.2866   19.0173 H   0  0  0  0  0  0
  -23.7580  -30.5806   19.4006 H   0  0  0  0  0  0
  -22.7619  -29.2329   19.8597 H   0  0  0  0  0  0
  -25.1317  -36.1940   25.0818 H   0  0  0  0  0  0
  -20.9987  -28.3289   24.1403 H   0  0  0  0  0  0
  -20.5731  -26.2302   23.3613 H   0  0  0  0  0  0
  -21.6665  -26.7473   22.1189 H   0  0  0  0  0  0
  -19.6948  -25.6286   21.1254 H   0  0  0  0  0  0
  -19.6732  -27.3193   20.6746 H   0  0  0  0  0  0
  -17.4223  -26.6675   21.4017 H   0  0  0  0  0  0
  -18.0355  -26.0090   22.9029 H   0  0  0  0  0  0
  -19.7940  -30.7296   24.2239 H   0  0  0  0  0  0
  -17.5016  -31.6276   24.5166 H   0  0  0  0  0  0
  -15.5356  -30.2980   23.7676 H   0  0  0  0  0  0
  -15.8683  -28.0834   22.7043 H   0  0  0  0  0  0
  -24.5927  -30.7020   25.7745 H   0  0  0  0  0  0
  -24.8921  -32.2844   26.4903 H   0  0  0  0  0  0
  -25.8083  -30.8837   27.0185 H   0  0  0  0  0  0
  -26.2823  -29.6773   24.1178 H   0  0  0  0  0  0
  -27.4005  -29.7233   25.4596 H   0  0  0  0  0  0
  -27.8700  -30.4244   23.9289 H   0  0  0  0  0  0
  -27.2675  -33.3599   26.2008 H   0  0  0  0  0  0
  -28.3888  -32.6801   25.0299 H   0  0  0  0  0  0
  -28.0679  -31.8435   26.5419 H   0  0  0  0  0  0
  -28.2605  -38.0107   24.7522 H   0  0  0  0  0  0
  -28.1100  -36.2640   24.6308 H   0  0  0  0  0  0
  -27.2314  -37.1453   25.8871 H   0  0  0  0  0  0
  -20.9390  -29.8708   21.6821 H   0  0  0  0  0  0
  -26.0202  -38.2841   24.1416 H   0  0  0  0  0  0
  -29.2470  -18.6460   18.6883 H   0  0  0  0  0  0
  -30.3006  -17.4883   22.5771 H   0  0  0  0  0  0
  -28.2991  -16.6721   18.4077 H   0  0  0  0  0  0
  -28.9381  -15.0926   18.2144 H   0  0  0  0  0  0
  -30.0107  -16.4354   18.0053 H   0  0  0  0  0  0
  -29.9334  -24.0348   19.9018 H   0  0  0  0  0  0
  -28.4391  -23.6130   19.1399 H   0  0  0  0  0  0
  -28.5739  -25.1500   21.7873 H   0  0  0  0  0  0
  -27.1283  -24.8244   20.9097 H   0  0  0  0  0  0
  -27.9178  -22.0527   21.1594 H   0  0  0  0  0  0
  -29.5132  -22.3934   21.7751 H   0  0  0  0  0  0
  -28.6364  -15.8172   20.6699 H   0  0  0  0  0  0
  1 25  1  0  0  0
  1 30  2  0  0  0
  1 78  1  0  0  0
  2  3  1  0  0  0
  2 25  1  0  0  0
  2 82  1  0  0  0
  2 83  1  0  0  0
  3  4  1  0  0  0
  3 84  1  0  0  0
  3 85  1  0  0  0
  4  5  1  0  0  0
  4 86  1  0  0  0
  4 87  1  0  0  0
  5  6  1  0  0  0
  5 26  1  0  0  0
  5 88  1  0  0  0
  6 25  1  0  0  0
  6 89  1  0  0  0
  6 90  1  0  0  0
  7  8  2  0  0  0
  7 26  1  0  0  0
  7 29  1  0  0  0
  8  9  1  0  0  0
  8 22  1  0  0  0
  9 10  1  0  0  0
  9 27  2  0  0  0
 10 11  2  0  0  0
 10 15  1  0  0  0
 11 12  1  0  0  0
 11 91  1  0  0  0
 12 13  2  0  0  0
 12 92  1  0  0  0
 13 14  1  0  0  0
 13 31  1  0  0  0
 14 15  2  0  0  0
 14 93  1  0  0  0
 15 94  1  0  0  0
 16 17  2  0  0  0
 16 21  1  0  0  0
 16 31  1  0  0  0
 17 18  1  0  0  0
 17 95  1  0  0  0
 18 19  2  0  0  0
 18 96  1  0  0  0
 19 20  1  0  0  0
 19 24  1  0  0  0
 20 21  2  0  0  0
 20 97  1  0  0  0
 21 23  1  0  0  0
 22 28  1  0  0  0
 22 32  2  0  0  0
 26 27  1  0  0  0
 28 98  1  0  0  0
 28 99  1  0  0  0
 29100  1  0  0  0
 29101  1  0  0  0
 33 34  1  0  0  0
 33 66  1  0  0  0
 33 70  2  0  0  0
 34 36  1  0  0  0
 34 59  1  0  0  0
 34102  1  0  0  0
 35 44  2  0  0  0
 35 45  1  0  0  0
 35 68  1  0  0  0
 36 56  1  0  0  0
 36103  1  0  0  0
 37 39  1  0  0  0
 37 47  1  0  0  0
 37 66  1  0  0  0
 37104  1  0  0  0
 38 43  2  0  0  0
 38 46  1  0  0  0
 38 47  1  0  0  0
 39 64  1  0  0  0
 39 67  2  0  0  0
 40 52  1  0  0  0
 40 53  2  0  0  0
 40 58  1  0  0  0
 41105  1  0  0  0
 41106  1  0  0  0
 41107  1  0  0  0
 41 48  1  0  0  0
 42 43  1  0  0  0
 42 66  1  0  0  0
 42108  1  0  0  0
 42109  1  0  0  0
 43 44  1  0  0  0
 44110  1  0  0  0
 45 46  2  0  0  0
 45111  1  0  0  0
 46112  1  0  0  0
 47113  1  0  0  0
 47114  1  0  0  0
 48 56  1  0  0  0
 48 65  1  0  0  0
 48115  1  0  0  0
 49 50  1  0  0  0
 49 53  1  0  0  0
 49 64  1  0  0  0
 49116  1  0  0  0
 50 51  1  0  0  0
 50117  1  0  0  0
 50118  1  0  0  0
 51 52  1  0  0  0
 51119  1  0  0  0
 51120  1  0  0  0
 52121  1  0  0  0
 52122  1  0  0  0
 53 54  1  0  0  0
 54 55  2  0  0  0
 54123  1  0  0  0
 55 57  1  0  0  0
 55124  1  0  0  0
 56 69  2  0  0  0
 57 58  2  0  0  0
 57125  1  0  0  0
 58126  1  0  0  0
 59 60  1  0  0  0
 59 61  1  0  0  0
 59 62  1  0  0  0
 60127  1  0  0  0
 60128  1  0  0  0
 60129  1  0  0  0
 61130  1  0  0  0
 61131  1  0  0  0
 61132  1  0  0  0
 62133  1  0  0  0
 62134  1  0  0  0
 62135  1  0  0  0
 63 65  1  0  0  0
 63136  1  0  0  0
 63137  1  0  0  0
 63138  1  0  0  0
 64139  1  0  0  0
 65140  1  0  0  0
 68 76  1  0  0  0
 71 73  2  0  0  0
 71 80  1  0  0  0
 71141  1  0  0  0
 72 79  2  0  0  0
 72 80  1  0  0  0
 72142  1  0  0  0
 73 79  1  0  0  0
 73 81  1  0  0  0
 74143  1  0  0  0
 74144  1  0  0  0
 74145  1  0  0  0
 74 78  1  0  0  0
 75 76  1  0  0  0
 75 77  1  0  0  0
 75146  1  0  0  0
 75147  1  0  0  0
 76148  1  0  0  0
 76149  1  0  0  0
 77 81  1  0  0  0
 77150  1  0  0  0
 77151  1  0  0  0
 78 80  1  0  0  0
 78152  1  0  0  0
M  ISO  4   1 100  68 101  76 101  78 100
M  END
> <chiral flag>
0

> <version>
0

> <s_m_source_file>
/data/baiqing/PycharmProjects/Reinvent-master-3.2/result/LINK_invent/BTK/process_docking_weight1_custom_sum_contain_oxygen_bond_distance_aromatic_linkinvent_7_9_3/rearranged_h_0055.sdf

> <i_m_source_file_index>
41

> <r_mmod_Potential_Energy-OPLS-2005>
238.352844238281

> <r_mmod_Stretch_Energy-OPLS-2005>
120.136138916016

> <r_mmod_Bend_Energy-OPLS-2005>
194.267532348633

> <r_mmod_Torsional_Energy-OPLS-2005>
251.393890380859

> <r_mmod_Improper_Torsional_Energy-OPLS-2005>
12.9023389816284

> <r_mmod_Van_der_Waal_Energy-OPLS-2005>
124.990631103516

> <r_mmod_Electrostatic_Energy-OPLS-2005>
-341.955780029297

> <r_mmod_Solvation_Energy-OPLS-2005>
-219.223388671875

> <b_mmod_Minimization_Converged-OPLS-2005>
0

> <r_mmod_RMS_Derivative-OPLS-2005>
2.83964705467224

$$$$
41
                    3D
 Structure written by MMmdl.
159167  0  0  1  0            999 V2000
  -30.5885  -14.7366   20.4522 C   0  0  0  0  0  0
  -30.4382  -12.4541   19.4489 C   0  0  0  0  0  0
  -29.5037  -12.5080   18.2197 C   0  0  0  0  0  0
  -28.0328  -12.3279   18.6457 C   0  0  0  0  0  0
  -27.6419  -13.2248   19.8495 C   0  0  2  0  0  0
  -28.6912  -13.1452   20.9791 C   0  0  0  0  0  0
  -25.2527  -13.8173   20.5683 C   0  0  0  0  0  0
  -24.1810  -13.0425   20.9217 C   0  0  0  0  0  0
  -24.6392  -11.6899   20.8757 C   0  0  0  0  0  0
  -23.9066  -10.4275   21.0424 C   0  0  0  0  0  0
  -24.3617   -9.4186   21.9204 C   0  0  0  0  0  0
  -23.6278   -8.2227   22.0775 C   0  0  0  0  0  0
  -22.4264   -8.0272   21.3553 C   0  0  0  0  0  0
  -21.9900   -9.0251   20.4658 C   0  0  0  0  0  0
  -22.7234  -10.2129   20.3071 C   0  0  0  0  0  0
  -21.6847   -6.0714   22.5268 C   0  0  0  0  0  0
  -21.3996   -6.5613   23.8196 C   0  0  0  0  0  0
  -21.3670   -5.6780   24.9170 C   0  0  0  0  0  0
  -21.6067   -4.3046   24.7239 C   0  0  0  0  0  0
  -21.8813   -3.8126   23.4357 C   0  0  0  0  0  0
  -21.9184   -4.6939   22.3405 C   0  0  0  0  0  0
  -22.7836  -13.5218   21.1882 C   0  0  0  0  0  0
  -22.1661   -4.2117   21.0990 F   0  0  0  0  0  0
  -21.5657   -3.4543   25.7762 F   0  0  0  0  0  0
  -29.9863  -13.5040   20.3869 N   0  0  0  0  0  0
  -26.2936  -12.9358   20.3280 N   0  0  0  0  0  0
  -25.9318  -11.6508   20.5749 N   0  0  0  0  0  0
  -22.0479  -12.8203   22.0443 N   0  0  0  0  0  0
  -25.4236  -15.1888   20.4053 N   0  0  0  0  0  0
  -31.7863  -14.8615   20.1874 O   0  0  0  0  0  0
  -21.6626   -6.8866   21.4233 O   0  0  0  0  0  0
  -22.3543  -14.5545   20.6757 O   0  0  0  0  0  0
  -24.6322  -31.8521   23.1974 C   0  0  0  0  0  0
  -25.9159  -32.4718   23.8304 C   0  0  1  0  0  0
  -27.2221  -27.2708   20.1157 C   0  0  0  0  0  0
  -25.5957  -33.8523   24.2247 N   0  0  0  0  0  0
  -23.4258  -30.4747   21.5415 C   0  0  2  0  0  0
  -24.8694  -28.9179   20.1082 C   0  0  0  0  0  0
  -22.7507  -29.4590   22.4939 C   0  0  0  0  0  0
  -18.0295  -28.1351   22.8479 C   0  0  0  0  0  0
  -24.1502  -36.7275   23.2645 C   0  0  0  0  0  0
  -25.9691  -30.7684   21.3705 C   0  0  0  0  0  0
  -26.0399  -29.3922   20.7112 C   0  0  0  0  0  0
  -27.2176  -28.5830   20.6982 C   0  0  0  0  0  0
  -26.0232  -26.8474   19.5019 C   0  0  0  0  0  0
  -24.8660  -27.6544   19.4934 C   0  0  0  0  0  0
  -23.6394  -29.8056   20.1570 C   0  0  0  0  0  0
  -25.4123  -36.3054   24.0326 C   0  0  1  0  0  0
  -20.5896  -28.3685   23.1267 C   0  0  2  0  0  0
  -20.6783  -26.9406   22.5408 C   0  0  0  0  0  0
  -19.5753  -26.6362   21.5213 C   0  0  0  0  0  0
  -18.1932  -26.7892   22.1619 C   0  0  0  0  0  0
  -19.1541  -28.8839   23.2853 C   0  0  0  0  0  0
  -18.9474  -30.1438   23.8873 C   0  0  0  0  0  0
  -17.6469  -30.6566   24.0553 C   0  0  0  0  0  0
  -25.9057  -34.9426   23.5093 C   0  0  0  0  0  0
  -16.5363  -29.9058   23.6323 C   0  0  0  0  0  0
  -16.7276  -28.6464   23.0361 C   0  0  0  0  0  0
  -26.4525  -31.6529   25.0690 C   0  0  0  0  0  0
  -25.3767  -31.3664   26.1425 C   0  0  0  0  0  0
  -27.0376  -30.2952   24.6150 C   0  0  0  0  0  0
  -27.6059  -32.4297   25.7467 C   0  0  0  0  0  0
  -27.5576  -37.1797   24.8469 C   0  0  0  0  0  0
  -21.4216  -29.3025   22.3661 N   0  0  0  0  0  0
  -26.4288  -37.3759   23.9414 N   0  0  0  0  0  0
  -24.6955  -31.0504   22.0931 N   0  0  0  0  0  0
  -23.4204  -28.8153   23.3053 O   0  0  0  0  0  0
  -28.3562  -26.4337   20.1718 O   0  0  0  0  0  0
  -26.5628  -34.8908   22.4669 O   0  0  0  0  0  0
  -23.5487  -32.1345   23.7293 O   0  0  0  0  0  0
  -27.4111  -22.0711   21.9173 C   0  0  0  0  0  0
  -28.1410  -22.3486   20.7861 C   0  0  0  0  0  0
  -28.0015  -23.8359   20.6943 C   0  0  0  0  0  0
  -26.0546  -23.4271   23.5925 C   0  0  0  0  0  0
  -30.8217  -20.3043   21.0505 C   0  0  0  0  0  0
  -28.7618  -21.1476   19.9348 C   0  0  0  0  0  0
  -28.4064  -24.9987   19.7094 C   0  0  0  0  0  0
  -30.0838  -17.3126   20.8863 C   0  0  0  0  0  0
  -29.3056  -18.5259   20.1223 C   0  0  0  0  0  0
  -27.2819  -24.2952   21.7122 N   0  0  0  0  0  0
  -26.9014  -23.2354   22.4319 N   0  0  0  0  0  0
  -29.7669  -15.8400   20.6182 N   0  0  0  0  0  0
  -29.4270  -19.9655   20.6855 N   0  3  1  0  0  0
  -31.4770  -12.5961   19.1446 H   0  0  0  0  0  0
  -30.3943  -11.4729   19.9249 H   0  0  0  0  0  0
  -29.7803  -11.7355   17.5012 H   0  0  0  0  0  0
  -29.6254  -13.4621   17.7013 H   0  0  0  0  0  0
  -27.8987  -11.2775   18.9104 H   0  0  0  0  0  0
  -27.3676  -12.5150   17.8029 H   0  0  0  0  0  0
  -27.6375  -14.2465   19.4682 H   0  0  0  0  0  0
  -28.7320  -12.1411   21.4017 H   0  0  0  0  0  0
  -28.4325  -13.8131   21.8030 H   0  0  0  0  0  0
  -25.2761   -9.5652   22.4792 H   0  0  0  0  0  0
  -23.9977   -7.4614   22.7483 H   0  0  0  0  0  0
  -21.0835   -8.8772   19.8953 H   0  0  0  0  0  0
  -22.3694  -10.9680   19.6194 H   0  0  0  0  0  0
  -21.1960   -7.6118   23.9690 H   0  0  0  0  0  0
  -21.1522   -6.0518   25.9074 H   0  0  0  0  0  0
  -22.0588   -2.7584   23.2869 H   0  0  0  0  0  0
  -22.4050  -11.9812   22.4773 H   0  0  0  0  0  0
  -21.1122  -13.1271   22.2687 H   0  0  0  0  0  0
  -24.6554  -15.8426   20.5052 H   0  0  0  0  0  0
  -26.2548  -15.6178   20.0221 H   0  0  0  0  0  0
  -26.7216  -32.5349   23.1034 H   0  0  0  0  0  0
  -25.0169  -33.9631   25.0436 H   0  0  0  0  0  0
  -22.7205  -31.2964   21.3982 H   0  0  0  0  0  0
  -23.3760  -35.9608   23.3303 H   0  0  0  0  0  0
  -24.3603  -36.8905   22.2061 H   0  0  0  0  0  0
  -23.7258  -37.6479   23.6669 H   0  0  0  0  0  0
  -26.1090  -31.5295   20.6014 H   0  0  0  0  0  0
  -26.8432  -30.8105   22.0071 H   0  0  0  0  0  0
  -28.1192  -28.9493   21.1697 H   0  0  0  0  0  0
  -25.9495  -25.8734   19.0435 H   0  0  0  0  0  0
  -23.9683  -27.2815   19.0213 H   0  0  0  0  0  0
  -23.7617  -30.5802   19.3981 H   0  0  0  0  0  0
  -22.7540  -29.2401   19.8588 H   0  0  0  0  0  0
  -25.1310  -36.1904   25.0810 H   0  0  0  0  0  0
  -20.9962  -28.3264   24.1396 H   0  0  0  0  0  0
  -20.5698  -26.2310   23.3623 H   0  0  0  0  0  0
  -21.6655  -26.7430   22.1204 H   0  0  0  0  0  0
  -19.6933  -25.6279   21.1228 H   0  0  0  0  0  0
  -19.6676  -27.3187   20.6754 H   0  0  0  0  0  0
  -17.4223  -26.6661   21.3994 H   0  0  0  0  0  0
  -18.0312  -26.0000   22.8978 H   0  0  0  0  0  0
  -19.7958  -30.7245   24.2231 H   0  0  0  0  0  0
  -17.5036  -31.6238   24.5171 H   0  0  0  0  0  0
  -15.5364  -30.2965   23.7642 H   0  0  0  0  0  0
  -15.8676  -28.0770   22.7103 H   0  0  0  0  0  0
  -24.5956  -30.6977   25.7791 H   0  0  0  0  0  0
  -24.8934  -32.2818   26.4840 H   0  0  0  0  0  0
  -25.8103  -30.8878   27.0213 H   0  0  0  0  0  0
  -26.2929  -29.6665   24.1241 H   0  0  0  0  0  0
  -27.4170  -29.7231   25.4630 H   0  0  0  0  0  0
  -27.8759  -30.4248   23.9300 H   0  0  0  0  0  0
  -27.2631  -33.3613   26.1984 H   0  0  0  0  0  0
  -28.3874  -32.6833   25.0291 H   0  0  0  0  0  0
  -28.0703  -31.8465   26.5429 H   0  0  0  0  0  0
  -28.2601  -38.0091   24.7522 H   0  0  0  0  0  0
  -28.1067  -36.2627   24.6294 H   0  0  0  0  0  0
  -27.2291  -37.1441   25.8869 H   0  0  0  0  0  0
  -20.9439  -29.8757   21.6857 H   0  0  0  0  0  0
  -26.0170  -38.2835   24.1402 H   0  0  0  0  0  0
  -27.1793  -21.1280   22.3923 H   0  0  0  0  0  0
  -25.3517  -22.5974   23.6854 H   0  0  0  0  0  0
  -25.4851  -24.3525   23.5012 H   0  0  0  0  0  0
  -26.6747  -23.4820   24.4862 H   0  0  0  0  0  0
  -30.8754  -21.3014   21.4880 H   0  0  0  0  0  0
  -31.4753  -20.2861   20.1769 H   0  0  0  0  0  0
  -31.2210  -19.6109   21.7933 H   0  0  0  0  0  0
  -29.4631  -21.5240   19.1898 H   0  0  0  0  0  0
  -27.9597  -20.7094   19.3395 H   0  0  0  0  0  0
  -27.8621  -24.9017   18.7717 H   0  0  0  0  0  0
  -29.4444  -24.8309   19.4271 H   0  0  0  0  0  0
  -29.9120  -17.4403   21.9554 H   0  0  0  0  0  0
  -31.1576  -17.4502   20.7530 H   0  0  0  0  0  0
  -28.2427  -18.2881   20.0710 H   0  0  0  0  0  0
  -29.6509  -18.5452   19.0877 H   0  0  0  0  0  0
  -28.7921  -15.6017   20.7156 H   0  0  0  0  0  0
  -28.9286  -19.9120   21.5602 H   0  0  0  0  0  0
  1 25  1  0  0  0
  1 30  2  0  0  0
  1 82  1  0  0  0
  2  3  1  0  0  0
  2 25  1  0  0  0
  2 84  1  0  0  0
  2 85  1  0  0  0
  3  4  1  0  0  0
  3 86  1  0  0  0
  3 87  1  0  0  0
  4  5  1  0  0  0
  4 88  1  0  0  0
  4 89  1  0  0  0
  5  6  1  0  0  0
  5 26  1  0  0  0
  5 90  1  0  0  0
  6 25  1  0  0  0
  6 91  1  0  0  0
  6 92  1  0  0  0
  7  8  2  0  0  0
  7 26  1  0  0  0
  7 29  1  0  0  0
  8  9  1  0  0  0
  8 22  1  0  0  0
  9 10  1  0  0  0
  9 27  2  0  0  0
 10 11  2  0  0  0
 10 15  1  0  0  0
 11 12  1  0  0  0
 11 93  1  0  0  0
 12 13  2  0  0  0
 12 94  1  0  0  0
 13 14  1  0  0  0
 13 31  1  0  0  0
 14 15  2  0  0  0
 14 95  1  0  0  0
 15 96  1  0  0  0
 16 17  2  0  0  0
 16 21  1  0  0  0
 16 31  1  0  0  0
 17 18  1  0  0  0
 17 97  1  0  0  0
 18 19  2  0  0  0
 18 98  1  0  0  0
 19 20  1  0  0  0
 19 24  1  0  0  0
 20 21  2  0  0  0
 20 99  1  0  0  0
 21 23  1  0  0  0
 22 28  1  0  0  0
 22 32  2  0  0  0
 26 27  1  0  0  0
 28100  1  0  0  0
 28101  1  0  0  0
 29102  1  0  0  0
 29103  1  0  0  0
 33 34  1  0  0  0
 33 66  1  0  0  0
 33 70  2  0  0  0
 34 36  1  0  0  0
 34 59  1  0  0  0
 34104  1  0  0  0
 35 44  2  0  0  0
 35 45  1  0  0  0
 35 68  1  0  0  0
 36 56  1  0  0  0
 36105  1  0  0  0
 37 39  1  0  0  0
 37 47  1  0  0  0
 37 66  1  0  0  0
 37106  1  0  0  0
 38 43  2  0  0  0
 38 46  1  0  0  0
 38 47  1  0  0  0
 39 64  1  0  0  0
 39 67  2  0  0  0
 40 52  1  0  0  0
 40 53  2  0  0  0
 40 58  1  0  0  0
 41107  1  0  0  0
 41108  1  0  0  0
 41109  1  0  0  0
 41 48  1  0  0  0
 42 43  1  0  0  0
 42 66  1  0  0  0
 42110  1  0  0  0
 42111  1  0  0  0
 43 44  1  0  0  0
 44112  1  0  0  0
 45 46  2  0  0  0
 45113  1  0  0  0
 46114  1  0  0  0
 47115  1  0  0  0
 47116  1  0  0  0
 48 56  1  0  0  0
 48 65  1  0  0  0
 48117  1  0  0  0
 49 50  1  0  0  0
 49 53  1  0  0  0
 49 64  1  0  0  0
 49118  1  0  0  0
 50 51  1  0  0  0
 50119  1  0  0  0
 50120  1  0  0  0
 51 52  1  0  0  0
 51121  1  0  0  0
 51122  1  0  0  0
 52123  1  0  0  0
 52124  1  0  0  0
 53 54  1  0  0  0
 54 55  2  0  0  0
 54125  1  0  0  0
 55 57  1  0  0  0
 55126  1  0  0  0
 56 69  2  0  0  0
 57 58  2  0  0  0
 57127  1  0  0  0
 58128  1  0  0  0
 59 60  1  0  0  0
 59 61  1  0  0  0
 59 62  1  0  0  0
 60129  1  0  0  0
 60130  1  0  0  0
 60131  1  0  0  0
 61132  1  0  0  0
 61133  1  0  0  0
 61134  1  0  0  0
 62135  1  0  0  0
 62136  1  0  0  0
 62137  1  0  0  0
 63 65  1  0  0  0
 63138  1  0  0  0
 63139  1  0  0  0
 63140  1  0  0  0
 64141  1  0  0  0
 65142  1  0  0  0
 68 77  1  0  0  0
 71 72  2  0  0  0
 71 81  1  0  0  0
 71143  1  0  0  0
 72 73  1  0  0  0
 72 76  1  0  0  0
 73 77  1  0  0  0
 73 80  2  0  0  0
 74 81  1  0  0  0
 74144  1  0  0  0
 74145  1  0  0  0
 74146  1  0  0  0
 75147  1  0  0  0
 75148  1  0  0  0
 75149  1  0  0  0
 75 83  1  0  0  0
 76 83  1  0  0  0
 76150  1  0  0  0
 76151  1  0  0  0
 77152  1  0  0  0
 77153  1  0  0  0
 78 79  1  0  0  0
 78 82  1  0  0  0
 78154  1  0  0  0
 78155  1  0  0  0
 79 83  1  0  0  0
 79156  1  0  0  0
 79157  1  0  0  0
 80 81  1  0  0  0
 82158  1  0  0  0
 83159  1  0  0  0
M  CHG  1  83   1
M  ISO  4   1 100  68 101  77 101  82 100
M  END
> <chiral flag>
0

> <version>
0

> <s_m_source_file>
/data/baiqing/PycharmProjects/Reinvent-master-3.2/result/LINK_invent/BTK/process_docking_weight1_custom_sum_contain_oxygen_bond_distance_aromatic_linkinvent_7_9_3/rearranged_h_0055.sdf

> <i_m_source_file_index>
42

> <r_mmod_Potential_Energy-OPLS-2005>
-33.9222259521484

> <r_mmod_Stretch_Energy-OPLS-2005>
130.540557861328

> <r_mmod_Bend_Energy-OPLS-2005>
189.424438476562

> <r_mmod_Torsional_Energy-OPLS-2005>
205.373641967773

> <r_mmod_Improper_Torsional_Energy-OPLS-2005>
5.27753829956055

> <r_mmod_Van_der_Waal_Energy-OPLS-2005>
110.911346435547

> <r_mmod_Electrostatic_Energy-OPLS-2005>
-248.589889526367

> <r_mmod_Solvation_Energy-OPLS-2005>
-506.267028808594

> <b_mmod_Minimization_Converged-OPLS-2005>
0

> <r_mmod_RMS_Derivative-OPLS-2005>
2.96913814544678

$$$$
42
                    3D
 Structure written by MMmdl.
162170  0  0  1  0            999 V2000
  -30.6998  -14.5189   20.5323 C   0  0  0  0  0  0
  -30.4181  -12.3214   19.4395 C   0  0  0  0  0  0
  -29.4991  -12.5006   18.2142 C   0  0  0  0  0  0
  -28.0191  -12.3610   18.6212 C   0  0  0  0  0  0
  -27.6558  -13.2175   19.8635 C   0  0  2  0  0  0
  -28.6979  -13.0464   20.9921 C   0  0  0  0  0  0
  -25.2563  -13.8192   20.5712 C   0  0  0  0  0  0
  -24.1826  -13.0453   20.9200 C   0  0  0  0  0  0
  -24.6392  -11.6914   20.8719 C   0  0  0  0  0  0
  -23.9061  -10.4299   21.0396 C   0  0  0  0  0  0
  -24.3614   -9.4213   21.9168 C   0  0  0  0  0  0
  -23.6297   -8.2246   22.0732 C   0  0  0  0  0  0
  -22.4280   -8.0284   21.3533 C   0  0  0  0  0  0
  -21.9920   -9.0254   20.4635 C   0  0  0  0  0  0
  -22.7242  -10.2136   20.3036 C   0  0  0  0  0  0
  -21.6864   -6.0738   22.5282 C   0  0  0  0  0  0
  -21.4023   -6.5634   23.8214 C   0  0  0  0  0  0
  -21.3654   -5.6776   24.9168 C   0  0  0  0  0  0
  -21.6040   -4.3039   24.7209 C   0  0  0  0  0  0
  -21.8815   -3.8142   23.4327 C   0  0  0  0  0  0
  -21.9204   -4.6972   22.3394 C   0  0  0  0  0  0
  -22.7846  -13.5236   21.1864 C   0  0  0  0  0  0
  -22.1672   -4.2161   21.0967 F   0  0  0  0  0  0
  -21.5613   -3.4510   25.7715 F   0  0  0  0  0  0
  -30.0270  -13.3377   20.4314 N   0  0  0  0  0  0
  -26.2997  -12.9378   20.3309 N   0  0  0  0  0  0
  -25.9312  -11.6526   20.5718 N   0  0  0  0  0  0
  -22.0471  -12.8218   22.0412 N   0  0  0  0  0  0
  -25.4261  -15.1917   20.4155 N   0  0  0  0  0  0
  -31.8511  -14.6613   20.1113 O   0  0  0  0  0  0
  -21.6645   -6.8887   21.4243 O   0  0  0  0  0  0
  -22.3525  -14.5532   20.6714 O   0  0  0  0  0  0
  -24.6191  -31.8679   23.2064 C   0  0  0  0  0  0
  -25.9052  -32.4832   23.8398 C   0  0  1  0  0  0
  -27.2267  -27.3871   20.1061 C   0  0  0  0  0  0
  -25.5908  -33.8625   24.2350 N   0  0  0  0  0  0
  -23.4097  -30.4934   21.5456 C   0  0  2  0  0  0
  -24.8549  -28.9553   20.1100 C   0  0  0  0  0  0
  -22.7440  -29.4681   22.4923 C   0  0  0  0  0  0
  -18.0288  -28.1404   22.8494 C   0  0  0  0  0  0
  -24.1472  -36.7285   23.2637 C   0  0  0  0  0  0
  -25.9430  -30.8199   21.3642 C   0  0  0  0  0  0
  -26.0189  -29.4511   20.7101 C   0  0  0  0  0  0
  -27.2081  -28.6765   20.7009 C   0  0  0  0  0  0
  -26.0425  -26.9278   19.4831 C   0  0  0  0  0  0
  -24.8641  -27.6948   19.4931 C   0  0  0  0  0  0
  -23.6217  -29.8298   20.1602 C   0  0  0  0  0  0
  -25.4094  -36.3115   24.0361 C   0  0  1  0  0  0
  -20.5891  -28.3702   23.1274 C   0  0  2  0  0  0
  -20.6761  -26.9422   22.5402 C   0  0  0  0  0  0
  -19.5729  -26.6406   21.5202 C   0  0  0  0  0  0
  -18.1921  -26.7951   22.1634 C   0  0  0  0  0  0
  -19.1544  -28.8860   23.2891 C   0  0  0  0  0  0
  -18.9474  -30.1456   23.8915 C   0  0  0  0  0  0
  -17.6480  -30.6610   24.0570 C   0  0  0  0  0  0
  -25.9037  -34.9487   23.5158 C   0  0  0  0  0  0
  -16.5365  -29.9116   23.6331 C   0  0  0  0  0  0
  -16.7282  -28.6526   23.0368 C   0  0  0  0  0  0
  -26.4454  -31.6617   25.0740 C   0  0  0  0  0  0
  -25.3719  -31.3738   26.1501 C   0  0  0  0  0  0
  -27.0287  -30.3073   24.6103 C   0  0  0  0  0  0
  -27.6058  -32.4309   25.7488 C   0  0  0  0  0  0
  -27.5590  -37.1782   24.8461 C   0  0  0  0  0  0
  -21.4155  -29.3078   22.3679 N   0  0  0  0  0  0
  -26.4265  -37.3822   23.9457 N   0  0  0  0  0  0
  -24.6755  -31.0758   22.0963 N   0  0  0  0  0  0
  -23.4192  -28.8207   23.2975 O   0  0  0  0  0  0
  -28.3705  -26.5970   20.1536 O   0  0  0  0  0  0
  -26.5597  -34.8933   22.4714 O   0  0  0  0  0  0
  -23.5363  -32.1436   23.7423 O   0  0  0  0  0  0
  -30.0426  -20.2884   18.3466 C   0  0  0  0  0  0
  -29.7960  -21.5122   17.6740 C   0  0  0  0  0  0
  -29.7567  -20.5299   19.6652 C   0  0  0  0  0  0
  -28.3141  -17.8751   21.9539 C   0  0  0  0  0  0
  -28.5228  -17.7775   19.4662 C   0  0  0  0  0  0
  -29.8680  -19.5673   20.8518 C   0  0  0  0  0  0
  -29.3441  -24.3279   20.7076 C   0  0  0  0  0  0
  -29.1255  -22.7732   20.8854 C   0  0  0  0  0  0
  -30.4441  -17.0030   20.9221 C   0  0  0  0  0  0
  -28.1928  -25.1535   20.0598 C   0  0  0  0  0  0
  -29.2991  -18.0735   20.7728 C   0  0  0  0  0  0
  -29.4294  -22.4685   18.5051 N   0  0  0  0  0  0
  -29.4463  -21.9063   19.7361 N   0  0  0  0  0  0
  -29.9890  -15.5891   20.9507 N   0  0  0  0  0  0
  -31.4649  -12.4067   19.1453 H   0  0  0  0  0  0
  -30.3046  -11.3204   19.8606 H   0  0  0  0  0  0
  -29.7472  -11.7673   17.4460 H   0  0  0  0  0  0
  -29.6664  -13.4814   17.7662 H   0  0  0  0  0  0
  -27.8300  -11.3085   18.8305 H   0  0  0  0  0  0
  -27.3725  -12.6245   17.7828 H   0  0  0  0  0  0
  -27.6850  -14.2575   19.5375 H   0  0  0  0  0  0
  -28.6773  -12.0283   21.3853 H   0  0  0  0  0  0
  -28.4589  -13.6939   21.8373 H   0  0  0  0  0  0
  -25.2749   -9.5700   22.4749 H   0  0  0  0  0  0
  -24.0010   -7.4629   22.7418 H   0  0  0  0  0  0
  -21.0864   -8.8773   19.8938 H   0  0  0  0  0  0
  -22.3698  -10.9666   19.6132 H   0  0  0  0  0  0
  -21.2040   -7.6147   23.9726 H   0  0  0  0  0  0
  -21.1467   -6.0495   25.9072 H   0  0  0  0  0  0
  -22.0616   -2.7611   23.2806 H   0  0  0  0  0  0
  -22.4087  -11.9899   22.4829 H   0  0  0  0  0  0
  -21.1080  -13.1225   22.2581 H   0  0  0  0  0  0
  -24.6557  -15.8419   20.5300 H   0  0  0  0  0  0
  -26.2742  -15.6373   20.0904 H   0  0  0  0  0  0
  -26.7132  -32.5533   23.1169 H   0  0  0  0  0  0
  -25.0105  -33.9796   25.0528 H   0  0  0  0  0  0
  -22.7009  -31.3120   21.4057 H   0  0  0  0  0  0
  -23.3783  -35.9568   23.3269 H   0  0  0  0  0  0
  -24.3583  -36.8924   22.2060 H   0  0  0  0  0  0
  -23.7147  -37.6455   23.6644 H   0  0  0  0  0  0
  -26.0624  -31.5803   20.5906 H   0  0  0  0  0  0
  -26.8284  -30.8745   21.9851 H   0  0  0  0  0  0
  -28.1020  -29.0531   21.1771 H   0  0  0  0  0  0
  -26.0075  -25.9678   18.9884 H   0  0  0  0  0  0
  -23.9702  -27.3093   19.0222 H   0  0  0  0  0  0
  -23.7396  -30.6065   19.4024 H   0  0  0  0  0  0
  -22.7427  -29.2586   19.8582 H   0  0  0  0  0  0
  -25.1245  -36.1984   25.0851 H   0  0  0  0  0  0
  -21.0010  -28.3275   24.1380 H   0  0  0  0  0  0
  -20.5631  -26.2322   23.3612 H   0  0  0  0  0  0
  -21.6633  -26.7431   22.1214 H   0  0  0  0  0  0
  -19.6877  -25.6306   21.1252 H   0  0  0  0  0  0
  -19.6667  -27.3196   20.6706 H   0  0  0  0  0  0
  -17.4185  -26.6710   21.4038 H   0  0  0  0  0  0
  -18.0323  -26.0091   22.9029 H   0  0  0  0  0  0
  -19.7954  -30.7255   24.2309 H   0  0  0  0  0  0
  -17.5055  -31.6289   24.5176 H   0  0  0  0  0  0
  -15.5375  -30.3047   23.7624 H   0  0  0  0  0  0
  -15.8687  -28.0846   22.7093 H   0  0  0  0  0  0
  -24.5876  -30.7088   25.7860 H   0  0  0  0  0  0
  -24.8909  -32.2895   26.4956 H   0  0  0  0  0  0
  -25.8084  -30.8921   27.0264 H   0  0  0  0  0  0
  -26.2830  -29.6851   24.1140 H   0  0  0  0  0  0
  -27.4073  -29.7288   25.4543 H   0  0  0  0  0  0
  -27.8661  -30.4439   23.9256 H   0  0  0  0  0  0
  -27.2742  -33.3652   26.2029 H   0  0  0  0  0  0
  -28.3884  -32.6792   25.0304 H   0  0  0  0  0  0
  -28.0692  -31.8431   26.5425 H   0  0  0  0  0  0
  -28.2558  -38.0132   24.7630 H   0  0  0  0  0  0
  -28.1137  -36.2683   24.6124 H   0  0  0  0  0  0
  -27.2341  -37.1241   25.8865 H   0  0  0  0  0  0
  -20.9304  -29.8871   21.6973 H   0  0  0  0  0  0
  -26.0164  -38.2885   24.1538 H   0  0  0  0  0  0
  -30.3781  -19.3615   17.9041 H   0  0  0  0  0  0
  -29.8843  -21.7374   16.6203 H   0  0  0  0  0  0
  -27.4903  -18.5893   21.9190 H   0  0  0  0  0  0
  -28.8138  -17.9976   22.9172 H   0  0  0  0  0  0
  -27.8612  -16.8834   21.9592 H   0  0  0  0  0  0
  -27.8001  -18.5607   19.2337 H   0  0  0  0  0  0
  -27.9632  -16.8448   19.5296 H   0  0  0  0  0  0
  -29.1903  -17.6684   18.6103 H   0  0  0  0  0  0
  -29.4224  -20.0619   21.7142 H   0  0  0  0  0  0
  -30.9248  -19.5151   21.1159 H   0  0  0  0  0  0
  -30.2783  -24.5162   20.1795 H   0  0  0  0  0  0
  -29.4952  -24.7394   21.7064 H   0  0  0  0  0  0
  -28.1055  -22.5611   21.2048 H   0  0  0  0  0  0
  -29.7648  -22.4434   21.7039 H   0  0  0  0  0  0
  -31.0119  -17.1798   21.8374 H   0  0  0  0  0  0
  -31.1606  -17.1398   20.1079 H   0  0  0  0  0  0
  -27.2724  -24.8663   20.5705 H   0  0  0  0  0  0
  -28.0745  -24.8708   19.0129 H   0  0  0  0  0  0
  -29.0470  -15.4128   21.2660 H   0  0  0  0  0  0
  1 25  1  0  0  0
  1 30  2  0  0  0
  1 84  1  0  0  0
  2  3  1  0  0  0
  2 25  1  0  0  0
  2 85  1  0  0  0
  2 86  1  0  0  0
  3  4  1  0  0  0
  3 87  1  0  0  0
  3 88  1  0  0  0
  4  5  1  0  0  0
  4 89  1  0  0  0
  4 90  1  0  0  0
  5  6  1  0  0  0
  5 26  1  0  0  0
  5 91  1  0  0  0
  6 25  1  0  0  0
  6 92  1  0  0  0
  6 93  1  0  0  0
  7  8  2  0  0  0
  7 26  1  0  0  0
  7 29  1  0  0  0
  8  9  1  0  0  0
  8 22  1  0  0  0
  9 10  1  0  0  0
  9 27  2  0  0  0
 10 11  2  0  0  0
 10 15  1  0  0  0
 11 12  1  0  0  0
 11 94  1  0  0  0
 12 13  2  0  0  0
 12 95  1  0  0  0
 13 14  1  0  0  0
 13 31  1  0  0  0
 14 15  2  0  0  0
 14 96  1  0  0  0
 15 97  1  0  0  0
 16 17  2  0  0  0
 16 21  1  0  0  0
 16 31  1  0  0  0
 17 18  1  0  0  0
 17 98  1  0  0  0
 18 19  2  0  0  0
 18 99  1  0  0  0
 19 20  1  0  0  0
 19 24  1  0  0  0
 20 21  2  0  0  0
 20100  1  0  0  0
 21 23  1  0  0  0
 22 28  1  0  0  0
 22 32  2  0  0  0
 26 27  1  0  0  0
 28101  1  0  0  0
 28102  1  0  0  0
 29103  1  0  0  0
 29104  1  0  0  0
 33 34  1  0  0  0
 33 66  1  0  0  0
 33 70  2  0  0  0
 34 36  1  0  0  0
 34 59  1  0  0  0
 34105  1  0  0  0
 35 44  2  0  0  0
 35 45  1  0  0  0
 35 68  1  0  0  0
 36 56  1  0  0  0
 36106  1  0  0  0
 37 39  1  0  0  0
 37 47  1  0  0  0
 37 66  1  0  0  0
 37107  1  0  0  0
 38 43  2  0  0  0
 38 46  1  0  0  0
 38 47  1  0  0  0
 39 64  1  0  0  0
 39 67  2  0  0  0
 40 52  1  0  0  0
 40 53  2  0  0  0
 40 58  1  0  0  0
 41108  1  0  0  0
 41109  1  0  0  0
 41110  1  0  0  0
 41 48  1  0  0  0
 42 43  1  0  0  0
 42 66  1  0  0  0
 42111  1  0  0  0
 42112  1  0  0  0
 43 44  1  0  0  0
 44113  1  0  0  0
 45 46  2  0  0  0
 45114  1  0  0  0
 46115  1  0  0  0
 47116  1  0  0  0
 47117  1  0  0  0
 48 56  1  0  0  0
 48 65  1  0  0  0
 48118  1  0  0  0
 49 50  1  0  0  0
 49 53  1  0  0  0
 49 64  1  0  0  0
 49119  1  0  0  0
 50 51  1  0  0  0
 50120  1  0  0  0
 50121  1  0  0  0
 51 52  1  0  0  0
 51122  1  0  0  0
 51123  1  0  0  0
 52124  1  0  0  0
 52125  1  0  0  0
 53 54  1  0  0  0
 54 55  2  0  0  0
 54126  1  0  0  0
 55 57  1  0  0  0
 55127  1  0  0  0
 56 69  2  0  0  0
 57 58  2  0  0  0
 57128  1  0  0  0
 58129  1  0  0  0
 59 60  1  0  0  0
 59 61  1  0  0  0
 59 62  1  0  0  0
 60130  1  0  0  0
 60131  1  0  0  0
 60132  1  0  0  0
 61133  1  0  0  0
 61134  1  0  0  0
 61135  1  0  0  0
 62136  1  0  0  0
 62137  1  0  0  0
 62138  1  0  0  0
 63 65  1  0  0  0
 63139  1  0  0  0
 63140  1  0  0  0
 63141  1  0  0  0
 64142  1  0  0  0
 65143  1  0  0  0
 68 80  1  0  0  0
 71 72  1  0  0  0
 71 73  2  0  0  0
 71144  1  0  0  0
 72 82  2  0  0  0
 72145  1  0  0  0
 73 76  1  0  0  0
 73 83  1  0  0  0
 74146  1  0  0  0
 74147  1  0  0  0
 74148  1  0  0  0
 74 81  1  0  0  0
 75 81  1  0  0  0
 75149  1  0  0  0
 75150  1  0  0  0
 75151  1  0  0  0
 76 81  1  0  0  0
 76152  1  0  0  0
 76153  1  0  0  0
 77 78  1  0  0  0
 77 80  1  0  0  0
 77154  1  0  0  0
 77155  1  0  0  0
 78 83  1  0  0  0
 78156  1  0  0  0
 78157  1  0  0  0
 79 81  1  0  0  0
 79 84  1  0  0  0
 79158  1  0  0  0
 79159  1  0  0  0
 80160  1  0  0  0
 80161  1  0  0  0
 82 83  1  0  0  0
 84162  1  0  0  0
M  ISO  4   1 100  68 101  80 101  84 100
M  END
> <chiral flag>
0

> <version>
0

> <s_m_source_file>
/data/baiqing/PycharmProjects/Reinvent-master-3.2/result/LINK_invent/BTK/process_docking_weight1_custom_sum_contain_oxygen_bond_distance_aromatic_linkinvent_7_9_3/rearranged_h_0055.sdf

> <i_m_source_file_index>
43

> <r_mmod_Potential_Energy-OPLS-2005>
-86.671745300293

> <r_mmod_Stretch_Energy-OPLS-2005>
55.7644805908203

> <r_mmod_Bend_Energy-OPLS-2005>
119.310035705566

> <r_mmod_Torsional_Energy-OPLS-2005>
223.719772338867

> <r_mmod_Improper_Torsional_Energy-OPLS-2005>
4.11921691894531

> <r_mmod_Van_der_Waal_Energy-OPLS-2005>
132.17155456543

> <r_mmod_Electrostatic_Energy-OPLS-2005>
-428.163452148438

> <r_mmod_Solvation_Energy-OPLS-2005>
-216.624465942383

> <b_mmod_Minimization_Converged-OPLS-2005>
0

> <r_mmod_RMS_Derivative-OPLS-2005>
3.00851130485535

$$$$
43
                    3D
 Structure written by MMmdl.
156164  0  0  1  0            999 V2000
  -30.3875  -15.4506   20.3002 C   0  0  0  0  0  0
  -30.4401  -12.9367   19.5112 C   0  0  0  0  0  0
  -29.5358  -12.5842   18.3019 C   0  0  0  0  0  0
  -28.1018  -12.2571   18.7543 C   0  0  0  0  0  0
  -27.5949  -13.2510   19.8225 C   0  0  2  0  0  0
  -28.6421  -13.5586   20.9222 C   0  0  0  0  0  0
  -25.2319  -13.8066   20.5902 C   0  0  0  0  0  0
  -24.1670  -13.0301   20.9357 C   0  0  0  0  0  0
  -24.6347  -11.6811   20.8855 C   0  0  0  0  0  0
  -23.9047  -10.4213   21.0450 C   0  0  0  0  0  0
  -24.3601   -9.4138   21.9222 C   0  0  0  0  0  0
  -23.6287   -8.2180   22.0770 C   0  0  0  0  0  0
  -22.4270   -8.0236   21.3549 C   0  0  0  0  0  0
  -21.9905   -9.0209   20.4646 C   0  0  0  0  0  0
  -22.7235  -10.2086   20.3078 C   0  0  0  0  0  0
  -21.6840   -6.0720   22.5277 C   0  0  0  0  0  0
  -21.3996   -6.5632   23.8201 C   0  0  0  0  0  0
  -21.3661   -5.6789   24.9177 C   0  0  0  0  0  0
  -21.6058   -4.3052   24.7233 C   0  0  0  0  0  0
  -21.8823   -3.8148   23.4348 C   0  0  0  0  0  0
  -21.9204   -4.6960   22.3407 C   0  0  0  0  0  0
  -22.7689  -13.5093   21.1944 C   0  0  0  0  0  0
  -22.1666   -4.2157   21.0979 F   0  0  0  0  0  0
  -21.5647   -3.4529   25.7743 F   0  0  0  0  0  0
  -29.8400  -14.1126   20.2529 N   0  0  0  0  0  0
  -26.2764  -12.9322   20.3408 N   0  0  0  0  0  0
  -25.9283  -11.6452   20.5844 N   0  0  0  0  0  0
  -22.0341  -12.8105   22.0501 N   0  0  0  0  0  0
  -25.3807  -15.1797   20.4369 N   0  0  0  0  0  0
  -31.6282  -15.4082   20.2464 O   0  0  0  0  0  0
  -21.6616   -6.8851   21.4238 O   0  0  0  0  0  0
  -22.3398  -14.5397   20.6755 O   0  0  0  0  0  0
  -24.6687  -31.8149   23.1606 C   0  0  0  0  0  0
  -25.9341  -32.4535   23.8109 C   0  0  1  0  0  0
  -27.2463  -26.8604   20.1945 C   0  0  0  0  0  0
  -25.5987  -33.8347   24.2011 N   0  0  0  0  0  0
  -23.4885  -30.4195   21.5102 C   0  0  2  0  0  0
  -24.9513  -28.7874   20.1097 C   0  0  0  0  0  0
  -22.7698  -29.4372   22.4729 C   0  0  0  0  0  0
  -18.0323  -28.1407   22.8454 C   0  0  0  0  0  0
  -24.1498  -36.7161   23.2649 C   0  0  0  0  0  0
  -26.0595  -30.5973   21.4042 C   0  0  0  0  0  0
  -26.1320  -29.1791   20.7507 C   0  0  0  0  0  0
  -27.2638  -28.2371   20.7703 C   0  0  0  0  0  0
  -26.0375  -26.6369   19.4915 C   0  0  0  0  0  0
  -24.9342  -27.5383   19.4609 C   0  0  0  0  0  0
  -23.7362  -29.7218   20.1410 C   0  0  0  0  0  0
  -25.4141  -36.2919   24.0293 C   0  0  1  0  0  0
  -20.5946  -28.3758   23.1165 C   0  0  2  0  0  0
  -20.6793  -26.9432   22.5402 C   0  0  0  0  0  0
  -19.5765  -26.6373   21.5217 C   0  0  0  0  0  0
  -18.1942  -26.7939   22.1614 C   0  0  0  0  0  0
  -19.1588  -28.8908   23.2799 C   0  0  0  0  0  0
  -18.9508  -30.1494   23.8846 C   0  0  0  0  0  0
  -17.6501  -30.6601   24.0550 C   0  0  0  0  0  0
  -25.9120  -34.9310   23.4973 C   0  0  0  0  0  0
  -16.5382  -29.9079   23.6348 C   0  0  0  0  0  0
  -16.7310  -28.6498   23.0368 C   0  0  0  0  0  0
  -26.4595  -31.6512   25.0669 C   0  0  0  0  0  0
  -25.3697  -31.3766   26.1305 C   0  0  0  0  0  0
  -27.0527  -30.2868   24.6457 C   0  0  0  0  0  0
  -27.6071  -32.4342   25.7468 C   0  0  0  0  0  0
  -27.5562  -37.1730   24.8460 C   0  0  0  0  0  0
  -21.4362  -29.3030   22.3499 N   0  0  0  0  0  0
  -26.4261  -37.3678   23.9417 N   0  0  0  0  0  0
  -24.7600  -30.9715   22.0800 N   0  0  0  0  0  0
  -23.4206  -28.7982   23.3033 O   0  0  0  0  0  0
  -28.2600  -25.7466   20.3394 O   0  0  0  0  0  0
  -26.5732  -34.8866   22.4578 O   0  0  0  0  0  0
  -23.5750  -32.1177   23.6655 O   0  0  0  0  0  0
  -28.6987  -19.3442   20.4422 C   0  0  0  0  0  0
  -29.1742  -20.8076   20.3336 C   0  0  0  0  0  0
  -29.6985  -18.2785   20.2807 C   0  0  0  0  0  0
  -29.3675  -22.8058   22.0004 C   0  0  0  0  0  0
  -27.1124  -22.2025   21.1638 C   0  0  0  0  0  0
  -32.1651  -18.7675   19.8441 C   0  0  0  0  0  0
  -28.4085  -16.5175   19.3270 C   0  0  0  0  0  0
  -28.3694  -24.1128   19.9008 C   0  0  0  0  0  0
  -28.5663  -22.4671   20.7309 C   0  0  0  0  0  0
  -30.4876  -20.5348   20.1108 N   0  0  0  0  0  0
  -30.7878  -19.1450   20.0856 N   0  0  0  0  0  0
  -29.5986  -16.7539   20.1413 N   0  0  0  0  0  0
  -31.4412  -13.1792   19.1521 H   0  0  0  0  0  0
  -30.5653  -12.0769   20.1703 H   0  0  0  0  0  0
  -29.9500  -11.7428   17.7471 H   0  0  0  0  0  0
  -29.5159  -13.4295   17.6133 H   0  0  0  0  0  0
  -28.1051  -11.2497   19.1690 H   0  0  0  0  0  0
  -27.4250  -12.2375   17.9004 H   0  0  0  0  0  0
  -27.4222  -14.1472   19.2463 H   0  0  0  0  0  0
  -28.8745  -12.6740   21.5167 H   0  0  0  0  0  0
  -28.2513  -14.3018   21.6193 H   0  0  0  0  0  0
  -25.2728   -9.5635   22.4822 H   0  0  0  0  0  0
  -24.0018   -7.4564   22.7460 H   0  0  0  0  0  0
  -21.0863   -8.8715   19.8909 H   0  0  0  0  0  0
  -22.3703  -10.9647   19.6205 H   0  0  0  0  0  0
  -21.1930   -7.6133   23.9700 H   0  0  0  0  0  0
  -21.1499   -6.0517   25.9072 H   0  0  0  0  0  0
  -22.0608   -2.7615   23.2843 H   0  0  0  0  0  0
  -22.3977  -11.9787   22.4922 H   0  0  0  0  0  0
  -21.0963  -13.1131   22.2712 H   0  0  0  0  0  0
  -24.6118  -15.8267   20.5654 H   0  0  0  0  0  0
  -26.2323  -15.6324   20.1370 H   0  0  0  0  0  0
  -26.7401  -32.5066   23.0815 H   0  0  0  0  0  0
  -25.0115  -33.9422   25.0146 H   0  0  0  0  0  0
  -22.8064  -31.2528   21.3274 H   0  0  0  0  0  0
  -23.3786  -35.9464   23.3271 H   0  0  0  0  0  0
  -24.3567  -36.8861   22.2070 H   0  0  0  0  0  0
  -23.7232  -37.6323   23.6742 H   0  0  0  0  0  0
  -26.2542  -31.3364   20.6260 H   0  0  0  0  0  0
  -26.9135  -30.6546   22.0666 H   0  0  0  0  0  0
  -28.1527  -28.5365   21.3099 H   0  0  0  0  0  0
  -25.9078  -25.6809   19.0027 H   0  0  0  0  0  0
  -24.0387  -27.2330   18.9375 H   0  0  0  0  0  0
  -23.8920  -30.4846   19.3785 H   0  0  0  0  0  0
  -22.8475  -29.1737   19.8237 H   0  0  0  0  0  0
  -25.1353  -36.1699   25.0783 H   0  0  0  0  0  0
  -21.0047  -28.3385   24.1283 H   0  0  0  0  0  0
  -20.5673  -26.2393   23.3660 H   0  0  0  0  0  0
  -21.6661  -26.7394   22.1220 H   0  0  0  0  0  0
  -19.6942  -25.6274   21.1277 H   0  0  0  0  0  0
  -19.6715  -27.3157   20.6724 H   0  0  0  0  0  0
  -17.4225  -26.6705   21.3991 H   0  0  0  0  0  0
  -18.0323  -26.0084   22.9017 H   0  0  0  0  0  0
  -19.7987  -30.7322   24.2191 H   0  0  0  0  0  0
  -17.5048  -31.6278   24.5163 H   0  0  0  0  0  0
  -15.5376  -30.2970   23.7708 H   0  0  0  0  0  0
  -15.8702  -28.0801   22.7121 H   0  0  0  0  0  0
  -24.5891  -30.7127   25.7570 H   0  0  0  0  0  0
  -24.8906  -32.2982   26.4601 H   0  0  0  0  0  0
  -25.7918  -30.8989   27.0158 H   0  0  0  0  0  0
  -26.3232  -29.6487   24.1458 H   0  0  0  0  0  0
  -27.4045  -29.7278   25.5143 H   0  0  0  0  0  0
  -27.9179  -30.4042   23.9924 H   0  0  0  0  0  0
  -27.2629  -33.3687   26.1901 H   0  0  0  0  0  0
  -28.3952  -32.6823   25.0342 H   0  0  0  0  0  0
  -28.0667  -31.8572   26.5504 H   0  0  0  0  0  0
  -28.2542  -38.0055   24.7523 H   0  0  0  0  0  0
  -28.1097  -36.2586   24.6280 H   0  0  0  0  0  0
  -27.2278  -37.1360   25.8857 H   0  0  0  0  0  0
  -20.9637  -29.8705   21.6602 H   0  0  0  0  0  0
  -26.0106  -38.2734   24.1436 H   0  0  0  0  0  0
  -27.6694  -19.0996   20.6632 H   0  0  0  0  0  0
  -29.2598  -22.0256   22.7550 H   0  0  0  0  0  0
  -29.0514  -23.7470   22.4515 H   0  0  0  0  0  0
  -30.4307  -22.8834   21.7715 H   0  0  0  0  0  0
  -27.0474  -21.4335   21.9329 H   0  0  0  0  0  0
  -26.5135  -21.8721   20.3161 H   0  0  0  0  0  0
  -26.6410  -23.1036   21.5602 H   0  0  0  0  0  0
  -32.2542  -18.2646   18.8805 H   0  0  0  0  0  0
  -32.4989  -18.0947   20.6326 H   0  0  0  0  0  0
  -32.8111  -19.6486   19.8450 H   0  0  0  0  0  0
  -27.5814  -16.2852   19.9851 H   0  0  0  0  0  0
  -28.5603  -15.7393   18.5786 H   0  0  0  0  0  0
  -28.1127  -17.3814   18.7274 H   0  0  0  0  0  0
  -27.5819  -23.9767   19.1596 H   0  0  0  0  0  0
  -29.2688  -24.1569   19.2872 H   0  0  0  0  0  0
  1 25  1  0  0  0
  1 30  2  0  0  0
  1 82  1  0  0  0
  2  3  1  0  0  0
  2 25  1  0  0  0
  2 83  1  0  0  0
  2 84  1  0  0  0
  3  4  1  0  0  0
  3 85  1  0  0  0
  3 86  1  0  0  0
  4  5  1  0  0  0
  4 87  1  0  0  0
  4 88  1  0  0  0
  5  6  1  0  0  0
  5 26  1  0  0  0
  5 89  1  0  0  0
  6 25  1  0  0  0
  6 90  1  0  0  0
  6 91  1  0  0  0
  7  8  2  0  0  0
  7 26  1  0  0  0
  7 29  1  0  0  0
  8  9  1  0  0  0
  8 22  1  0  0  0
  9 10  1  0  0  0
  9 27  2  0  0  0
 10 11  2  0  0  0
 10 15  1  0  0  0
 11 12  1  0  0  0
 11 92  1  0  0  0
 12 13  2  0  0  0
 12 93  1  0  0  0
 13 14  1  0  0  0
 13 31  1  0  0  0
 14 15  2  0  0  0
 14 94  1  0  0  0
 15 95  1  0  0  0
 16 17  2  0  0  0
 16 21  1  0  0  0
 16 31  1  0  0  0
 17 18  1  0  0  0
 17 96  1  0  0  0
 18 19  2  0  0  0
 18 97  1  0  0  0
 19 20  1  0  0  0
 19 24  1  0  0  0
 20 21  2  0  0  0
 20 98  1  0  0  0
 21 23  1  0  0  0
 22 28  1  0  0  0
 22 32  2  0  0  0
 26 27  1  0  0  0
 28 99  1  0  0  0
 28100  1  0  0  0
 29101  1  0  0  0
 29102  1  0  0  0
 33 34  1  0  0  0
 33 66  1  0  0  0
 33 70  2  0  0  0
 34 36  1  0  0  0
 34 59  1  0  0  0
 34103  1  0  0  0
 35 44  2  0  0  0
 35 45  1  0  0  0
 35 68  1  0  0  0
 36 56  1  0  0  0
 36104  1  0  0  0
 37 39  1  0  0  0
 37 47  1  0  0  0
 37 66  1  0  0  0
 37105  1  0  0  0
 38 43  2  0  0  0
 38 46  1  0  0  0
 38 47  1  0  0  0
 39 64  1  0  0  0
 39 67  2  0  0  0
 40 52  1  0  0  0
 40 53  2  0  0  0
 40 58  1  0  0  0
 41106  1  0  0  0
 41107  1  0  0  0
 41108  1  0  0  0
 41 48  1  0  0  0
 42 43  1  0  0  0
 42 66  1  0  0  0
 42109  1  0  0  0
 42110  1  0  0  0
 43 44  1  0  0  0
 44111  1  0  0  0
 45 46  2  0  0  0
 45112  1  0  0  0
 46113  1  0  0  0
 47114  1  0  0  0
 47115  1  0  0  0
 48 56  1  0  0  0
 48 65  1  0  0  0
 48116  1  0  0  0
 49 50  1  0  0  0
 49 53  1  0  0  0
 49 64  1  0  0  0
 49117  1  0  0  0
 50 51  1  0  0  0
 50118  1  0  0  0
 50119  1  0  0  0
 51 52  1  0  0  0
 51120  1  0  0  0
 51121  1  0  0  0
 52122  1  0  0  0
 52123  1  0  0  0
 53 54  1  0  0  0
 54 55  2  0  0  0
 54124  1  0  0  0
 55 57  1  0  0  0
 55125  1  0  0  0
 56 69  2  0  0  0
 57 58  2  0  0  0
 57126  1  0  0  0
 58127  1  0  0  0
 59 60  1  0  0  0
 59 61  1  0  0  0
 59 62  1  0  0  0
 60128  1  0  0  0
 60129  1  0  0  0
 60130  1  0  0  0
 61131  1  0  0  0
 61132  1  0  0  0
 61133  1  0  0  0
 62134  1  0  0  0
 62135  1  0  0  0
 62136  1  0  0  0
 63 65  1  0  0  0
 63137  1  0  0  0
 63138  1  0  0  0
 63139  1  0  0  0
 64140  1  0  0  0
 65141  1  0  0  0
 68 78  1  0  0  0
 71 72  1  0  0  0
 71 73  2  0  0  0
 71142  1  0  0  0
 72 79  1  0  0  0
 72 80  2  0  0  0
 73 81  1  0  0  0
 73 82  1  0  0  0
 74143  1  0  0  0
 74144  1  0  0  0
 74145  1  0  0  0
 74 79  1  0  0  0
 75 79  1  0  0  0
 75146  1  0  0  0
 75147  1  0  0  0
 75148  1  0  0  0
 76 81  1  0  0  0
 76149  1  0  0  0
 76150  1  0  0  0
 76151  1  0  0  0
 77 82  1  0  0  0
 77152  1  0  0  0
 77153  1  0  0  0
 77154  1  0  0  0
 78 79  1  0  0  0
 78155  1  0  0  0
 78156  1  0  0  0
 80 81  1  0  0  0
M  ISO  4   1 100  68 101  78 101  82 100
M  END
> <chiral flag>
0

> <version>
0

> <s_m_source_file>
/data/baiqing/PycharmProjects/Reinvent-master-3.2/result/LINK_invent/BTK/process_docking_weight1_custom_sum_contain_oxygen_bond_distance_aromatic_linkinvent_7_9_3/rearranged_h_0055.sdf

> <i_m_source_file_index>
44

> <r_mmod_Potential_Energy-OPLS-2005>
1759.65441894531

> <r_mmod_Stretch_Energy-OPLS-2005>
707.194274902344

> <r_mmod_Bend_Energy-OPLS-2005>
570.738952636719

> <r_mmod_Torsional_Energy-OPLS-2005>
281.075836181641

> <r_mmod_Improper_Torsional_Energy-OPLS-2005>
9.7882194519043

> <r_mmod_Van_der_Waal_Energy-OPLS-2005>
115.548126220703

> <r_mmod_Electrostatic_Energy-OPLS-2005>
-355.929992675781

> <r_mmod_Solvation_Energy-OPLS-2005>
-200.723968505859

> <b_mmod_Minimization_Converged-OPLS-2005>
0

> <r_mmod_RMS_Derivative-OPLS-2005>
3.62153315544128

$$$$
44
                    3D
 Structure written by MMmdl.
153161  0  0  1  0            999 V2000
  -29.9468  -16.5650   20.2911 C   0  0  0  0  0  0
  -30.3215  -13.7952   19.5273 C   0  0  0  0  0  0
  -29.5718  -12.9528   18.4134 C   0  0  0  0  0  0
  -28.2367  -12.3873   18.9066 C   0  0  0  0  0  0
  -27.5790  -13.4267   19.8249 C   0  0  2  0  0  0
  -28.5267  -14.1247   20.8689 C   0  0  0  0  0  0
  -25.2179  -13.8466   20.5976 C   0  0  0  0  0  0
  -24.1669  -13.0462   20.9371 C   0  0  0  0  0  0
  -24.6545  -11.7034   20.8760 C   0  0  0  0  0  0
  -23.9268  -10.4317   21.0334 C   0  0  0  0  0  0
  -24.3748   -9.4231   21.9143 C   0  0  0  0  0  0
  -23.6373   -8.2288   22.0739 C   0  0  0  0  0  0
  -22.4350   -8.0313   21.3537 C   0  0  0  0  0  0
  -22.0034   -9.0306   20.4642 C   0  0  0  0  0  0
  -22.7406  -10.2160   20.3026 C   0  0  0  0  0  0
  -21.6886   -6.0764   22.5278 C   0  0  0  0  0  0
  -21.4022   -6.5650   23.8216 C   0  0  0  0  0  0
  -21.3680   -5.6793   24.9166 C   0  0  0  0  0  0
  -21.6060   -4.3058   24.7215 C   0  0  0  0  0  0
  -21.8811   -3.8161   23.4327 C   0  0  0  0  0  0
  -21.9199   -4.6986   22.3393 C   0  0  0  0  0  0
  -22.7641  -13.5093   21.1960 C   0  0  0  0  0  0
  -22.1658   -4.2167   21.0970 F   0  0  0  0  0  0
  -21.5648   -3.4534   25.7727 F   0  0  0  0  0  0
  -29.5270  -15.0381   20.1559 N   0  0  0  0  0  0
  -26.2826  -13.0067   20.3521 N   0  0  0  0  0  0
  -25.9557  -11.6993   20.5716 N   0  0  0  0  0  0
  -22.0336  -12.8030   22.0503 N   0  0  0  0  0  0
  -25.3548  -15.2213   20.4376 N   0  0  0  0  0  0
  -31.1977  -16.3344   20.2856 O   0  0  0  0  0  0
  -21.6683   -6.8921   21.4242 O   0  0  0  0  0  0
  -22.3276  -14.5401   20.6827 O   0  0  0  0  0  0
  -24.7413  -31.7199   23.0969 C   0  0  0  0  0  0
  -25.9665  -32.4097   23.7768 C   0  0  1  0  0  0
  -27.2843  -26.0500   20.2713 C   0  0  0  0  0  0
  -25.5982  -33.7955   24.1576 N   0  0  0  0  0  0
  -23.6024  -30.2824   21.4676 C   0  0  2  0  0  0
  -25.0778  -28.4862   20.1371 C   0  0  0  0  0  0
  -22.8050  -29.3837   22.4579 C   0  0  0  0  0  0
  -18.0399  -28.1473   22.8435 C   0  0  0  0  0  0
  -24.1502  -36.6969   23.2661 C   0  0  0  0  0  0
  -26.2041  -30.2343   21.4642 C   0  0  0  0  0  0
  -26.2705  -28.7240   20.8278 C   0  0  0  0  0  0
  -27.3160  -27.5544   20.8509 C   0  0  0  0  0  0
  -26.0610  -26.1947   19.4991 C   0  0  0  0  0  0
  -25.0528  -27.2515   19.4488 C   0  0  0  0  0  0
  -23.8951  -29.5113   20.1352 C   0  0  0  0  0  0
  -25.4183  -36.2676   24.0234 C   0  0  1  0  0  0
  -20.6056  -28.3829   23.1082 C   0  0  2  0  0  0
  -20.6819  -26.9427   22.5474 C   0  0  0  0  0  0
  -19.5815  -26.6354   21.5269 C   0  0  0  0  0  0
  -18.1980  -26.8007   22.1602 C   0  0  0  0  0  0
  -19.1673  -28.9002   23.2728 C   0  0  0  0  0  0
  -18.9554  -30.1582   23.8780 C   0  0  0  0  0  0
  -17.6521  -30.6625   24.0551 C   0  0  0  0  0  0
  -25.9185  -34.9079   23.4803 C   0  0  0  0  0  0
  -16.5420  -29.9078   23.6378 C   0  0  0  0  0  0
  -16.7371  -28.6522   23.0374 C   0  0  0  0  0  0
  -26.4679  -31.6426   25.0651 C   0  0  0  0  0  0
  -25.3560  -31.3937   26.1140 C   0  0  0  0  0  0
  -27.0652  -30.2680   24.6990 C   0  0  0  0  0  0
  -27.6070  -32.4420   25.7439 C   0  0  0  0  0  0
  -27.5571  -37.1635   24.8450 C   0  0  0  0  0  0
  -21.4639  -29.2913   22.3313 N   0  0  0  0  0  0
  -26.4255  -37.3508   23.9397 N   0  0  0  0  0  0
  -24.8810  -30.7976   22.0596 N   0  0  0  0  0  0
  -23.4189  -28.7572   23.3233 O   0  0  0  0  0  0
  -28.1641  -24.5412   20.4184 O   0  0  0  0  0  0
  -26.5941  -34.8787   22.4499 O   0  0  0  0  0  0
  -23.6287  -32.0560   23.5505 O   0  0  0  0  0  0
  -29.7379  -21.8975   17.8897 C   0  0  0  0  0  0
  -29.6178  -22.5973   19.1110 C   0  0  0  0  0  0
  -31.9800  -22.3125   17.9414 C   0  0  0  0  0  0
  -33.3615  -22.0153   17.4044 C   0  0  0  0  0  0
  -27.0826  -22.2508   19.3297 C   0  0  0  0  0  0
  -27.7592  -17.9367   20.0918 C   0  0  0  0  0  0
  -29.0868  -20.2749   20.5539 C   0  0  0  0  0  0
  -28.4197  -22.4769   20.0473 C   0  0  2  0  0  0
  -30.9470  -21.7646   17.2942 N   0  0  0  0  0  0
  -30.7165  -23.1665   19.6697 N   0  0  0  0  0  0
  -31.9128  -23.0236   19.0802 N   0  0  0  0  0  0
  -29.1873  -18.1852   20.2751 N   0  0  0  0  0  0
  -31.2307  -14.1819   19.0661 H   0  0  0  0  0  0
  -30.7043  -13.1286   20.3031 H   0  0  0  0  0  0
  -30.2065  -12.1451   18.0487 H   0  0  0  0  0  0
  -29.3846  -13.6017   17.5574 H   0  0  0  0  0  0
  -28.4253  -11.4763   19.4749 H   0  0  0  0  0  0
  -27.5859  -12.1204   18.0719 H   0  0  0  0  0  0
  -27.3328  -14.2292   19.1265 H   0  0  0  0  0  0
  -28.9847  -13.4058   21.5516 H   0  0  0  0  0  0
  -27.9376  -14.7756   21.5140 H   0  0  0  0  0  0
  -25.2852   -9.5710   22.4773 H   0  0  0  0  0  0
  -24.0066   -7.4679   22.7464 H   0  0  0  0  0  0
  -21.0972   -8.8844   19.8940 H   0  0  0  0  0  0
  -22.3831  -10.9717   19.6173 H   0  0  0  0  0  0
  -21.1997   -7.6152   23.9726 H   0  0  0  0  0  0
  -21.1525   -6.0515   25.9077 H   0  0  0  0  0  0
  -22.0574   -2.7624   23.2832 H   0  0  0  0  0  0
  -22.3974  -11.9712   22.4911 H   0  0  0  0  0  0
  -21.0946  -13.1018   22.2712 H   0  0  0  0  0  0
  -24.5768  -15.8617   20.5469 H   0  0  0  0  0  0
  -26.1985  -15.6733   20.1134 H   0  0  0  0  0  0
  -26.7796  -32.4459   23.0519 H   0  0  0  0  0  0
  -24.9964  -33.8879   24.9625 H   0  0  0  0  0  0
  -22.9645  -31.1317   21.2130 H   0  0  0  0  0  0
  -23.3827  -35.9231   23.3190 H   0  0  0  0  0  0
  -24.3558  -36.8802   22.2104 H   0  0  0  0  0  0
  -23.7199  -37.6049   23.6884 H   0  0  0  0  0  0
  -26.4771  -30.9097   20.6530 H   0  0  0  0  0  0
  -27.0301  -30.3262   22.1548 H   0  0  0  0  0  0
  -28.1945  -27.7621   21.4471 H   0  0  0  0  0  0
  -25.7952  -25.3141   18.9327 H   0  0  0  0  0  0
  -24.1684  -27.0432   18.8613 H   0  0  0  0  0  0
  -24.1171  -30.2382   19.3525 H   0  0  0  0  0  0
  -22.9892  -28.9992   19.8035 H   0  0  0  0  0  0
  -25.1435  -36.1349   25.0724 H   0  0  0  0  0  0
  -21.0142  -28.3490   24.1206 H   0  0  0  0  0  0
  -20.5624  -26.2457   23.3781 H   0  0  0  0  0  0
  -21.6678  -26.7262   22.1329 H   0  0  0  0  0  0
  -19.6948  -25.6230   21.1376 H   0  0  0  0  0  0
  -19.6816  -27.3118   20.6767 H   0  0  0  0  0  0
  -17.4289  -26.6854   21.3951 H   0  0  0  0  0  0
  -18.0257  -26.0187   22.9004 H   0  0  0  0  0  0
  -19.8016  -30.7473   24.2070 H   0  0  0  0  0  0
  -17.5038  -31.6280   24.5184 H   0  0  0  0  0  0
  -15.5406  -30.2910   23.7784 H   0  0  0  0  0  0
  -15.8789  -28.0796   22.7128 H   0  0  0  0  0  0
  -24.5927  -30.7076   25.7444 H   0  0  0  0  0  0
  -24.8527  -32.3185   26.3972 H   0  0  0  0  0  0
  -25.7583  -30.9536   27.0272 H   0  0  0  0  0  0
  -26.3421  -29.6148   24.2094 H   0  0  0  0  0  0
  -27.3918  -29.7355   25.5927 H   0  0  0  0  0  0
  -27.9500  -30.3638   24.0698 H   0  0  0  0  0  0
  -27.2644  -33.3942   26.1505 H   0  0  0  0  0  0
  -28.4120  -32.6616   25.0409 H   0  0  0  0  0  0
  -28.0490  -31.8878   26.5727 H   0  0  0  0  0  0
  -28.2492  -38.0014   24.7546 H   0  0  0  0  0  0
  -28.1166  -36.2533   24.6232 H   0  0  0  0  0  0
  -27.2298  -37.1213   25.8850 H   0  0  0  0  0  0
  -21.0113  -29.8390   21.6129 H   0  0  0  0  0  0
  -26.0027  -38.2510   24.1464 H   0  0  0  0  0  0
  -28.9099  -21.3619   17.4524 H   0  0  0  0  0  0
  -33.3579  -21.9403   16.3178 H   0  0  0  0  0  0
  -33.7104  -21.0672   17.8150 H   0  0  0  0  0  0
  -34.0751  -22.7875   17.6901 H   0  0  0  0  0  0
  -26.2612  -22.2456   20.0483 H   0  0  0  0  0  0
  -27.0681  -21.2938   18.8082 H   0  0  0  0  0  0
  -26.8821  -23.0330   18.5981 H   0  0  0  0  0  0
  -27.2255  -18.1102   21.0259 H   0  0  0  0  0  0
  -27.5301  -16.9215   19.7683 H   0  0  0  0  0  0
  -27.3519  -18.6112   19.3402 H   0  0  0  0  0  0
  -28.6184  -20.2238   21.5353 H   0  0  0  0  0  0
  -30.1373  -20.4421   20.7954 H   0  0  0  0  0  0
  1 25  1  0  0  0
  1 30  2  0  0  0
  1 82  1  0  0  0
  2  3  1  0  0  0
  2 25  1  0  0  0
  2 83  1  0  0  0
  2 84  1  0  0  0
  3  4  1  0  0  0
  3 85  1  0  0  0
  3 86  1  0  0  0
  4  5  1  0  0  0
  4 87  1  0  0  0
  4 88  1  0  0  0
  5  6  1  0  0  0
  5 26  1  0  0  0
  5 89  1  0  0  0
  6 25  1  0  0  0
  6 90  1  0  0  0
  6 91  1  0  0  0
  7  8  2  0  0  0
  7 26  1  0  0  0
  7 29  1  0  0  0
  8  9  1  0  0  0
  8 22  1  0  0  0
  9 10  1  0  0  0
  9 27  2  0  0  0
 10 11  2  0  0  0
 10 15  1  0  0  0
 11 12  1  0  0  0
 11 92  1  0  0  0
 12 13  2  0  0  0
 12 93  1  0  0  0
 13 14  1  0  0  0
 13 31  1  0  0  0
 14 15  2  0  0  0
 14 94  1  0  0  0
 15 95  1  0  0  0
 16 17  2  0  0  0
 16 21  1  0  0  0
 16 31  1  0  0  0
 17 18  1  0  0  0
 17 96  1  0  0  0
 18 19  2  0  0  0
 18 97  1  0  0  0
 19 20  1  0  0  0
 19 24  1  0  0  0
 20 21  2  0  0  0
 20 98  1  0  0  0
 21 23  1  0  0  0
 22 28  1  0  0  0
 22 32  2  0  0  0
 26 27  1  0  0  0
 28 99  1  0  0  0
 28100  1  0  0  0
 29101  1  0  0  0
 29102  1  0  0  0
 33 34  1  0  0  0
 33 66  1  0  0  0
 33 70  2  0  0  0
 34 36  1  0  0  0
 34 59  1  0  0  0
 34103  1  0  0  0
 35 44  2  0  0  0
 35 45  1  0  0  0
 35 68  1  0  0  0
 36 56  1  0  0  0
 36104  1  0  0  0
 37 39  1  0  0  0
 37 47  1  0  0  0
 37 66  1  0  0  0
 37105  1  0  0  0
 38 43  2  0  0  0
 38 46  1  0  0  0
 38 47  1  0  0  0
 39 64  1  0  0  0
 39 67  2  0  0  0
 40 52  1  0  0  0
 40 53  2  0  0  0
 40 58  1  0  0  0
 41106  1  0  0  0
 41107  1  0  0  0
 41108  1  0  0  0
 41 48  1  0  0  0
 42 43  1  0  0  0
 42 66  1  0  0  0
 42109  1  0  0  0
 42110  1  0  0  0
 43 44  1  0  0  0
 44111  1  0  0  0
 45 46  2  0  0  0
 45112  1  0  0  0
 46113  1  0  0  0
 47114  1  0  0  0
 47115  1  0  0  0
 48 56  1  0  0  0
 48 65  1  0  0  0
 48116  1  0  0  0
 49 50  1  0  0  0
 49 53  1  0  0  0
 49 64  1  0  0  0
 49117  1  0  0  0
 50 51  1  0  0  0
 50118  1  0  0  0
 50119  1  0  0  0
 51 52  1  0  0  0
 51120  1  0  0  0
 51121  1  0  0  0
 52122  1  0  0  0
 52123  1  0  0  0
 53 54  1  0  0  0
 54 55  2  0  0  0
 54124  1  0  0  0
 55 57  1  0  0  0
 55125  1  0  0  0
 56 69  2  0  0  0
 57 58  2  0  0  0
 57126  1  0  0  0
 58127  1  0  0  0
 59 60  1  0  0  0
 59 61  1  0  0  0
 59 62  1  0  0  0
 60128  1  0  0  0
 60129  1  0  0  0
 60130  1  0  0  0
 61131  1  0  0  0
 61132  1  0  0  0
 61133  1  0  0  0
 62134  1  0  0  0
 62135  1  0  0  0
 62136  1  0  0  0
 63 65  1  0  0  0
 63137  1  0  0  0
 63138  1  0  0  0
 63139  1  0  0  0
 64140  1  0  0  0
 65141  1  0  0  0
 68 78  1  0  0  0
 71 72  2  0  0  0
 71 79  1  0  0  0
 71142  1  0  0  0
 72 78  1  0  0  0
 72 80  1  0  0  0
 73 74  1  0  0  0
 73 79  2  0  0  0
 73 81  1  0  0  0
 74143  1  0  0  0
 74144  1  0  0  0
 74145  1  0  0  0
 75146  1  0  0  0
 75147  1  0  0  0
 75148  1  0  0  0
 75 78  1  0  0  0
 76 82  1  0  0  0
 76149  1  0  0  0
 76150  1  0  0  0
 76151  1  0  0  0
 77 78  1  0  0  0
 77 82  1  0  0  0
 77152  1  0  0  0
 77153  1  0  0  0
 80 81  2  0  0  0
M  ISO  4   1 100  68 101  78 101  82 100
M  END
> <chiral flag>
0

> <version>
0

> <s_m_source_file>
/data/baiqing/PycharmProjects/Reinvent-master-3.2/result/LINK_invent/BTK/process_docking_weight1_custom_sum_contain_oxygen_bond_distance_aromatic_linkinvent_7_9_3/rearranged_h_0055.sdf

> <i_m_source_file_index>
45

> <r_mmod_Potential_Energy-OPLS-2005>
7125.158203125

> <r_mmod_Stretch_Energy-OPLS-2005>
3179.31298828125

> <r_mmod_Bend_Energy-OPLS-2005>
1204.49047851562

> <r_mmod_Torsional_Energy-OPLS-2005>
303.102478027344

> <r_mmod_Improper_Torsional_Energy-OPLS-2005>
8.17701816558838

> <r_mmod_Van_der_Waal_Energy-OPLS-2005>
142.122268676758

> <r_mmod_Electrostatic_Energy-OPLS-2005>
-302.480804443359

> <r_mmod_Solvation_Energy-OPLS-2005>
-260.240936279297

> <b_mmod_Minimization_Converged-OPLS-2005>
0

> <r_mmod_RMS_Derivative-OPLS-2005>
3.6847517490387

$$$$
45
                    3D
 Structure written by MMmdl.
157165  0  0  1  0            999 V2000
  -31.4513  -14.7827   21.0376 C   0  0  0  0  0  0
  -30.6316  -14.2016   18.8298 C   0  0  0  0  0  0
  -29.2166  -14.4074   17.6506 C   0  0  0  0  0  0
  -27.3977  -14.4891   18.2883 C   0  0  0  0  0  0
  -27.1315  -14.4980   20.2345 C   0  0  2  0  0  0
  -28.7414  -14.4884   21.3533 C   0  0  0  0  0  0
  -24.8375  -14.0402   20.6061 C   0  0  0  0  0  0
  -23.9707  -13.0820   20.9511 C   0  0  0  0  0  0
  -24.6360  -11.8218   20.8820 C   0  0  0  0  0  0
  -23.9830  -10.4767   21.0078 C   0  0  0  0  0  0
  -24.4146   -9.4628   21.8984 C   0  0  0  0  0  0
  -23.6704   -8.2621   22.0630 C   0  0  0  0  0  0
  -22.4676   -8.0497   21.3460 C   0  0  0  0  0  0
  -22.0461   -9.0447   20.4458 C   0  0  0  0  0  0
  -22.7936  -10.2282   20.2780 C   0  0  0  0  0  0
  -21.7007   -6.0859   22.5258 C   0  0  0  0  0  0
  -21.4111   -6.5688   23.8209 C   0  0  0  0  0  0
  -21.3728   -5.6805   24.9165 C   0  0  0  0  0  0
  -21.6086   -4.3079   24.7204 C   0  0  0  0  0  0
  -21.8805   -3.8186   23.4322 C   0  0  0  0  0  0
  -21.9218   -4.7035   22.3386 C   0  0  0  0  0  0
  -22.5540  -13.4193   21.2137 C   0  0  0  0  0  0
  -22.1648   -4.2221   21.0963 F   0  0  0  0  0  0
  -21.5647   -3.4539   25.7707 F   0  0  0  0  0  0
  -30.3114  -14.4566   20.5364 N   0  0  0  0  0  0
  -26.0474  -13.4867   20.5280 N   0  0  0  0  0  0
  -25.9519  -12.0743   20.6295 N   0  0  0  0  0  0
  -21.9098  -12.6891   22.1037 N   0  0  0  0  0  0
  -24.6563  -15.3963   20.3490 N   0  0  0  0  0  0
  -32.4679  -14.3464   20.5351 O   0  0  0  0  0  0
  -21.6919   -6.9115   21.4269 O   0  0  0  0  0  0
  -22.0542  -14.4227   20.7042 O   0  0  0  0  0  0
  -24.7761  -31.6689   23.0689 C   0  0  0  0  0  0
  -25.9870  -32.3822   23.7569 C   0  0  1  0  0  0
  -27.0450  -25.6775   20.1486 C   0  0  0  0  0  0
  -25.6029  -33.7715   24.1342 N   0  0  0  0  0  0
  -23.6230  -30.2484   21.4523 C   0  0  2  0  0  0
  -25.0191  -28.3817   20.1050 C   0  0  0  0  0  0
  -22.8066  -29.3679   22.4443 C   0  0  0  0  0  0
  -18.0384  -28.1429   22.8420 C   0  0  0  0  0  0
  -24.1512  -36.6880   23.2679 C   0  0  0  0  0  0
  -26.2220  -30.0388   21.4715 C   0  0  0  0  0  0
  -26.2232  -28.5059   20.8020 C   0  0  0  0  0  0
  -27.1826  -27.2158   20.7696 C   0  0  0  0  0  0
  -25.8411  -26.0226   19.4049 C   0  0  0  0  0  0
  -24.9283  -27.1718   19.3815 C   0  0  0  0  0  0
  -23.8949  -29.4771   20.1139 C   0  0  0  0  0  0
  -25.4198  -36.2528   24.0203 C   0  0  1  0  0  0
  -20.6038  -28.3818   23.1009 C   0  0  2  0  0  0
  -20.6778  -26.9400   22.5447 C   0  0  0  0  0  0
  -19.5785  -26.6318   21.5221 C   0  0  0  0  0  0
  -18.1972  -26.7953   22.1593 C   0  0  0  0  0  0
  -19.1669  -28.8960   23.2664 C   0  0  0  0  0  0
  -18.9568  -30.1516   23.8758 C   0  0  0  0  0  0
  -17.6556  -30.6611   24.0524 C   0  0  0  0  0  0
  -25.9232  -34.8943   23.4706 C   0  0  0  0  0  0
  -16.5433  -29.9087   23.6361 C   0  0  0  0  0  0
  -16.7359  -28.6489   23.0408 C   0  0  0  0  0  0
  -26.4751  -31.6308   25.0614 C   0  0  0  0  0  0
  -25.3587  -31.3891   26.1083 C   0  0  0  0  0  0
  -27.0826  -30.2576   24.7158 C   0  0  0  0  0  0
  -27.5984  -32.4433   25.7460 C   0  0  0  0  0  0
  -27.5548  -37.1582   24.8467 C   0  0  0  0  0  0
  -21.4641  -29.2878   22.3211 N   0  0  0  0  0  0
  -26.4229  -37.3417   23.9427 N   0  0  0  0  0  0
  -24.9176  -30.7133   22.0477 N   0  0  0  0  0  0
  -23.4109  -28.7450   23.3194 O   0  0  0  0  0  0
  -27.7736  -23.9872   20.0968 O   0  0  0  0  0  0
  -26.6026  -34.8740   22.4435 O   0  0  0  0  0  0
  -23.6619  -32.0226   23.5087 O   0  0  0  0  0  0
  -29.4946  -18.7763   19.5486 C   0  0  0  0  0  0
  -28.2310  -19.4037   19.7310 C   0  0  0  0  0  0
  -28.7815  -16.1570   19.4960 C   0  0  0  0  0  0
  -28.7353  -13.1197   19.5103 C   0  0  0  0  0  0
  -31.9401  -18.1801   18.2474 C   0  0  0  0  0  0
  -33.5602  -17.0832   20.4948 C   0  0  0  0  0  0
  -27.5588  -21.7325   19.8953 C   0  0  0  0  0  0
  -31.2672  -17.1697   19.2249 C   0  0  1  0  0  0
  -32.0077  -17.1142   20.6067 C   0  0  1  0  0  0
  -29.7705  -17.2754   19.3893 N   0  0  0  0  0  0
  -27.9035  -17.6261   19.7014 N   0  3  0  0  0  0
  -31.4304  -16.0503   21.4498 N   0  0  0  0  0  0
  -31.5716  -14.5096   18.3820 H   0  0  0  0  0  0
  -30.9940  -13.1773   18.7115 H   0  0  0  0  0  0
  -29.2879  -13.6379   16.8795 H   0  0  0  0  0  0
  -29.4123  -15.3251   17.0893 H   0  0  0  0  0  0
  -26.8225  -13.6652   17.8587 H   0  0  0  0  0  0
  -26.9059  -15.3563   17.8386 H   0  0  0  0  0  0
  -26.8345  -15.4706   20.6020 H   0  0  0  0  0  0
  -28.6983  -13.6806   22.0845 H   0  0  0  0  0  0
  -28.7199  -15.3865   21.9759 H   0  0  0  0  0  0
  -25.3180   -9.6154   22.4764 H   0  0  0  0  0  0
  -24.0342   -7.5077   22.7455 H   0  0  0  0  0  0
  -21.1392   -8.9037   19.8719 H   0  0  0  0  0  0
  -22.4290  -10.9726   19.5826 H   0  0  0  0  0  0
  -21.2109   -7.6189   23.9754 H   0  0  0  0  0  0
  -21.1544   -6.0505   25.9069 H   0  0  0  0  0  0
  -22.0497   -2.7643   23.2795 H   0  0  0  0  0  0
  -22.3622  -11.9072   22.5548 H   0  0  0  0  0  0
  -20.9540  -12.9135   22.3501 H   0  0  0  0  0  0
  -23.6748  -15.6603   20.4128 H   0  0  0  0  0  0
  -25.0229  -15.6977   19.4562 H   0  0  0  0  0  0
  -26.8091  -32.4092   23.0389 H   0  0  0  0  0  0
  -24.9902  -33.8565   24.9323 H   0  0  0  0  0  0
  -23.0087  -31.1129   21.2015 H   0  0  0  0  0  0
  -23.3820  -35.9156   23.3180 H   0  0  0  0  0  0
  -24.3541  -36.8782   22.2129 H   0  0  0  0  0  0
  -23.7227  -37.5951   23.6947 H   0  0  0  0  0  0
  -26.5595  -30.7025   20.6769 H   0  0  0  0  0  0
  -27.0346  -30.0608   22.1825 H   0  0  0  0  0  0
  -28.0734  -27.3430   21.3643 H   0  0  0  0  0  0
  -25.4796  -25.2009   18.8008 H   0  0  0  0  0  0
  -24.0515  -27.0521   18.7591 H   0  0  0  0  0  0
  -24.1523  -30.1997   19.3387 H   0  0  0  0  0  0
  -22.9652  -29.0167   19.7684 H   0  0  0  0  0  0
  -25.1450  -36.1135   25.0672 H   0  0  0  0  0  0
  -21.0081  -28.3523   24.1137 H   0  0  0  0  0  0
  -20.5507  -26.2460   23.3776 H   0  0  0  0  0  0
  -21.6648  -26.7166   22.1348 H   0  0  0  0  0  0
  -19.6927  -25.6182   21.1345 H   0  0  0  0  0  0
  -19.6790  -27.3044   20.6684 H   0  0  0  0  0  0
  -17.4253  -26.6717   21.3979 H   0  0  0  0  0  0
  -18.0325  -26.0112   22.8982 H   0  0  0  0  0  0
  -19.8045  -30.7349   24.2098 H   0  0  0  0  0  0
  -17.5112  -31.6295   24.5129 H   0  0  0  0  0  0
  -15.5429  -30.2955   23.7751 H   0  0  0  0  0  0
  -15.8749  -28.0738   22.7250 H   0  0  0  0  0  0
  -24.5875  -30.7139   25.7400 H   0  0  0  0  0  0
  -24.8682  -32.3187   26.3963 H   0  0  0  0  0  0
  -25.7585  -30.9431   27.0202 H   0  0  0  0  0  0
  -26.3633  -29.5844   24.2519 H   0  0  0  0  0  0
  -27.4285  -29.7477   25.6153 H   0  0  0  0  0  0
  -27.9586  -30.3550   24.0752 H   0  0  0  0  0  0
  -27.2396  -33.3943   26.1416 H   0  0  0  0  0  0
  -28.4090  -32.6657   25.0511 H   0  0  0  0  0  0
  -28.0335  -31.9004   26.5868 H   0  0  0  0  0  0
  -28.2434  -37.9991   24.7550 H   0  0  0  0  0  0
  -28.1165  -36.2491   24.6240 H   0  0  0  0  0  0
  -27.2264  -37.1156   25.8867 H   0  0  0  0  0  0
  -21.0128  -29.8379   21.6026 H   0  0  0  0  0  0
  -25.9951  -38.2407   24.1477 H   0  0  0  0  0  0
  -30.3240  -19.4572   19.5319 H   0  0  0  0  0  0
  -29.5679  -12.4776   19.8608 H   0  0  0  0  0  0
  -28.4560  -12.5058   18.6350 H   0  0  0  0  0  0
  -28.2133  -12.5411   20.2621 H   0  0  0  0  0  0
  -32.1086  -19.1780   18.6539 H   0  0  0  0  0  0
  -31.3939  -18.2533   17.3092 H   0  0  0  0  0  0
  -32.9314  -17.8212   17.9673 H   0  0  0  0  0  0
  -33.9460  -16.2250   19.9391 H   0  0  0  0  0  0
  -34.0233  -17.0864   21.4801 H   0  0  0  0  0  0
  -33.9471  -17.9659   19.9826 H   0  0  0  0  0  0
  -26.8875  -21.6376   20.7500 H   0  0  0  0  0  0
  -26.8813  -21.7671   19.0404 H   0  0  0  0  0  0
  -31.4445  -16.3592   18.5835 H   0  0  0  0  0  0
  -31.7786  -18.0345   21.1468 H   0  0  0  0  0  0
  -26.9226  -17.4595   19.8911 H   0  0  0  0  0  0
  -30.5870  -16.3233   21.9275 H   0  0  0  0  0  0
  1 25  1  0  0  0
  1 30  2  0  0  0
  1 82  1  0  0  0
  2  3  1  0  0  0
  2 25  1  0  0  0
  2 83  1  0  0  0
  2 84  1  0  0  0
  3  4  1  0  0  0
  3 85  1  0  0  0
  3 86  1  0  0  0
  4  5  1  0  0  0
  4 87  1  0  0  0
  4 88  1  0  0  0
  5  6  1  0  0  0
  5 26  1  0  0  0
  5 89  1  0  0  0
  6 25  1  0  0  0
  6 90  1  0  0  0
  6 91  1  0  0  0
  7  8  2  0  0  0
  7 26  1  0  0  0
  7 29  1  0  0  0
  8  9  1  0  0  0
  8 22  1  0  0  0
  9 10  1  0  0  0
  9 27  2  0  0  0
 10 11  2  0  0  0
 10 15  1  0  0  0
 11 12  1  0  0  0
 11 92  1  0  0  0
 12 13  2  0  0  0
 12 93  1  0  0  0
 13 14  1  0  0  0
 13 31  1  0  0  0
 14 15  2  0  0  0
 14 94  1  0  0  0
 15 95  1  0  0  0
 16 17  2  0  0  0
 16 21  1  0  0  0
 16 31  1  0  0  0
 17 18  1  0  0  0
 17 96  1  0  0  0
 18 19  2  0  0  0
 18 97  1  0  0  0
 19 20  1  0  0  0
 19 24  1  0  0  0
 20 21  2  0  0  0
 20 98  1  0  0  0
 21 23  1  0  0  0
 22 28  1  0  0  0
 22 32  2  0  0  0
 26 27  1  0  0  0
 28 99  1  0  0  0
 28100  1  0  0  0
 29101  1  0  0  0
 29102  1  0  0  0
 33 34  1  0  0  0
 33 66  1  0  0  0
 33 70  2  0  0  0
 34 36  1  0  0  0
 34 59  1  0  0  0
 34103  1  0  0  0
 35 44  2  0  0  0
 35 45  1  0  0  0
 35 68  1  0  0  0
 36 56  1  0  0  0
 36104  1  0  0  0
 37 39  1  0  0  0
 37 47  1  0  0  0
 37 66  1  0  0  0
 37105  1  0  0  0
 38 43  2  0  0  0
 38 46  1  0  0  0
 38 47  1  0  0  0
 39 64  1  0  0  0
 39 67  2  0  0  0
 40 52  1  0  0  0
 40 53  2  0  0  0
 40 58  1  0  0  0
 41106  1  0  0  0
 41107  1  0  0  0
 41108  1  0  0  0
 41 48  1  0  0  0
 42 43  1  0  0  0
 42 66  1  0  0  0
 42109  1  0  0  0
 42110  1  0  0  0
 43 44  1  0  0  0
 44111  1  0  0  0
 45 46  2  0  0  0
 45112  1  0  0  0
 46113  1  0  0  0
 47114  1  0  0  0
 47115  1  0  0  0
 48 56  1  0  0  0
 48 65  1  0  0  0
 48116  1  0  0  0
 49 50  1  0  0  0
 49 53  1  0  0  0
 49 64  1  0  0  0
 49117  1  0  0  0
 50 51  1  0  0  0
 50118  1  0  0  0
 50119  1  0  0  0
 51 52  1  0  0  0
 51120  1  0  0  0
 51121  1  0  0  0
 52122  1  0  0  0
 52123  1  0  0  0
 53 54  1  0  0  0
 54 55  2  0  0  0
 54124  1  0  0  0
 55 57  1  0  0  0
 55125  1  0  0  0
 56 69  2  0  0  0
 57 58  2  0  0  0
 57126  1  0  0  0
 58127  1  0  0  0
 59 60  1  0  0  0
 59 61  1  0  0  0
 59 62  1  0  0  0
 60128  1  0  0  0
 60129  1  0  0  0
 60130  1  0  0  0
 61131  1  0  0  0
 61132  1  0  0  0
 61133  1  0  0  0
 62134  1  0  0  0
 62135  1  0  0  0
 62136  1  0  0  0
 63 65  1  0  0  0
 63137  1  0  0  0
 63138  1  0  0  0
 63139  1  0  0  0
 64140  1  0  0  0
 65141  1  0  0  0
 68 77  1  0  0  0
 71 72  2  0  0  0
 71 80  1  0  0  0
 71142  1  0  0  0
 72 77  1  0  0  0
 72 81  1  0  0  0
 73 74  1  0  0  0
 73 80  1  0  0  0
 73 81  2  0  0  0
 74143  1  0  0  0
 74144  1  0  0  0
 74145  1  0  0  0
 75146  1  0  0  0
 75147  1  0  0  0
 75148  1  0  0  0
 75 78  1  0  0  0
 76149  1  0  0  0
 76150  1  0  0  0
 76151  1  0  0  0
 76 79  1  0  0  0
 77152  1  0  0  0
 77153  1  0  0  0
 78 79  1  0  0  0
 78 80  1  0  0  0
 78154  1  0  0  0
 79 82  1  0  0  0
 79155  1  0  0  0
 81156  1  0  0  0
 82157  1  0  0  0
M  CHG  1  81   1
M  ISO  4   1 100  68 101  77 101  82 100
M  END
> <chiral flag>
0

> <version>
0

> <s_m_source_file>
/data/baiqing/PycharmProjects/Reinvent-master-3.2/result/LINK_invent/BTK/process_docking_weight1_custom_sum_contain_oxygen_bond_distance_aromatic_linkinvent_7_9_3/rearranged_h_0055.sdf

> <i_m_source_file_index>
46

> <r_mmod_Potential_Energy-OPLS-2005>
14733.515625

> <r_mmod_Stretch_Energy-OPLS-2005>
7620.5419921875

> <r_mmod_Bend_Energy-OPLS-2005>
1645.24670410156

> <r_mmod_Torsional_Energy-OPLS-2005>
359.518859863281

> <r_mmod_Improper_Torsional_Energy-OPLS-2005>
44.3922958374023

> <r_mmod_Van_der_Waal_Energy-OPLS-2005>
1709.53796386719

> <r_mmod_Electrostatic_Energy-OPLS-2005>
-285.447265625

> <r_mmod_Solvation_Energy-OPLS-2005>
-410.381286621094

> <b_mmod_Minimization_Converged-OPLS-2005>
0

> <r_mmod_RMS_Derivative-OPLS-2005>
8.93852806091309

$$$$
46
                    3D
 Structure written by MMmdl.
158166  0  0  1  0            999 V2000
  -30.4776  -15.0676   20.4270 C   0  0  0  0  0  0
  -30.4385  -12.6749   19.5011 C   0  0  0  0  0  0
  -29.5212  -12.5670   18.2566 C   0  0  0  0  0  0
  -28.0534  -12.3334   18.6654 C   0  0  0  0  0  0
  -27.6227  -13.2517   19.8381 C   0  0  2  0  0  0
  -28.6658  -13.2538   20.9724 C   0  0  0  0  0  0
  -25.2393  -13.8188   20.5649 C   0  0  0  0  0  0
  -24.1740  -13.0411   20.9210 C   0  0  0  0  0  0
  -24.6382  -11.6902   20.8754 C   0  0  0  0  0  0
  -23.9072  -10.4270   21.0403 C   0  0  0  0  0  0
  -24.3628   -9.4194   21.9176 C   0  0  0  0  0  0
  -23.6307   -8.2229   22.0745 C   0  0  0  0  0  0
  -22.4287   -8.0265   21.3536 C   0  0  0  0  0  0
  -21.9921   -9.0238   20.4639 C   0  0  0  0  0  0
  -22.7247  -10.2116   20.3051 C   0  0  0  0  0  0
  -21.6862   -6.0733   22.5273 C   0  0  0  0  0  0
  -21.4022   -6.5638   23.8207 C   0  0  0  0  0  0
  -21.3660   -5.6785   24.9168 C   0  0  0  0  0  0
  -21.6044   -4.3047   24.7214 C   0  0  0  0  0  0
  -21.8826   -3.8142   23.4335 C   0  0  0  0  0  0
  -21.9199   -4.6963   22.3393 C   0  0  0  0  0  0
  -22.7765  -13.5180   21.1875 C   0  0  0  0  0  0
  -22.1668   -4.2154   21.0969 F   0  0  0  0  0  0
  -21.5632   -3.4527   25.7723 F   0  0  0  0  0  0
  -29.9136  -13.7715   20.3843 N   0  0  0  0  0  0
  -26.2837  -12.9435   20.3211 N   0  0  0  0  0  0
  -25.9319  -11.6566   20.5721 N   0  0  0  0  0  0
  -22.0443  -12.8161   22.0449 N   0  0  0  0  0  0
  -25.3971  -15.1909   20.3982 N   0  0  0  0  0  0
  -31.6596  -15.1189   20.0590 O   0  0  0  0  0  0
  -21.6651   -6.8866   21.4233 O   0  0  0  0  0  0
  -22.3426  -14.5479   20.6722 O   0  0  0  0  0  0
  -24.6476  -31.8350   23.1793 C   0  0  0  0  0  0
  -25.9216  -32.4649   23.8221 C   0  0  1  0  0  0
  -27.2253  -27.0677   20.1694 C   0  0  0  0  0  0
  -25.5941  -33.8456   24.2137 N   0  0  0  0  0  0
  -23.4565  -30.4478   21.5242 C   0  0  2  0  0  0
  -24.9102  -28.8555   20.1057 C   0  0  0  0  0  0
  -22.7597  -29.4480   22.4819 C   0  0  0  0  0  0
  -18.0317  -28.1389   22.8479 C   0  0  0  0  0  0
  -24.1494  -36.7231   23.2650 C   0  0  0  0  0  0
  -26.0138  -30.6860   21.3890 C   0  0  0  0  0  0
  -26.0831  -29.2894   20.7334 C   0  0  0  0  0  0
  -27.2335  -28.4087   20.7488 C   0  0  0  0  0  0
  -26.0308  -26.7441   19.4935 C   0  0  0  0  0  0
  -24.8998  -27.5998   19.4699 C   0  0  0  0  0  0
  -23.6887  -29.7658   20.1469 C   0  0  0  0  0  0
  -25.4126  -36.2995   24.0310 C   0  0  1  0  0  0
  -20.5932  -28.3703   23.1238 C   0  0  2  0  0  0
  -20.6791  -26.9394   22.5419 C   0  0  0  0  0  0
  -19.5767  -26.6369   21.5224 C   0  0  0  0  0  0
  -18.1948  -26.7930   22.1633 C   0  0  0  0  0  0
  -19.1574  -28.8866   23.2852 C   0  0  0  0  0  0
  -18.9482  -30.1471   23.8865 C   0  0  0  0  0  0
  -17.6475  -30.6582   24.0555 C   0  0  0  0  0  0
  -25.9071  -34.9378   23.5032 C   0  0  0  0  0  0
  -16.5366  -29.9073   23.6344 C   0  0  0  0  0  0
  -16.7304  -28.6499   23.0354 C   0  0  0  0  0  0
  -26.4527  -31.6545   25.0691 C   0  0  0  0  0  0
  -25.3699  -31.3761   26.1380 C   0  0  0  0  0  0
  -27.0412  -30.2935   24.6328 C   0  0  0  0  0  0
  -27.6044  -32.4329   25.7482 C   0  0  0  0  0  0
  -27.5572  -37.1775   24.8466 C   0  0  0  0  0  0
  -21.4276  -29.3019   22.3590 N   0  0  0  0  0  0
  -26.4290  -37.3714   23.9400 N   0  0  0  0  0  0
  -24.7256  -31.0136   22.0862 N   0  0  0  0  0  0
  -23.4211  -28.8045   23.3003 O   0  0  0  0  0  0
  -28.2881  -26.0860   20.3119 O   0  0  0  0  0  0
  -26.5677  -34.8895   22.4625 O   0  0  0  0  0  0
  -23.5578  -32.1262   23.6977 O   0  0  0  0  0  0
  -29.4443  -19.2993   20.4377 C   0  0  0  0  0  0
  -28.8534  -21.5383   20.5560 C   0  0  0  0  0  0
  -31.3936  -22.5175   22.5692 C   0  0  0  0  0  0
  -29.9759  -21.0665   24.1042 C   0  0  0  0  0  0
  -28.7348  -16.3594   21.6908 C   0  0  0  0  0  0
  -29.8597  -17.7540   19.9249 C   0  0  0  0  0  0
  -28.0833  -23.0492   20.5313 C   0  0  0  0  0  0
  -28.4441  -24.5761   19.8271 C   0  0  0  0  0  0
  -30.0086  -21.9038   22.8105 C   0  0  0  0  0  0
  -28.7493  -20.3735   19.7713 N   0  0  0  0  0  0
  -29.9814  -19.8019   21.5494 N   0  0  0  0  0  0
  -29.5806  -21.1360   21.6368 N   0  0  0  0  0  0
  -29.7121  -16.2980   20.6048 N   0  0  0  0  0  0
  -31.4646  -12.8593   19.1792 H   0  0  0  0  0  0
  -30.4746  -11.7230   20.0328 H   0  0  0  0  0  0
  -29.8602  -11.7668   17.5975 H   0  0  0  0  0  0
  -29.5917  -13.4904   17.6792 H   0  0  0  0  0  0
  -27.9541  -11.2877   18.9583 H   0  0  0  0  0  0
  -27.3934  -12.4716   17.8073 H   0  0  0  0  0  0
  -27.5862  -14.2613   19.4271 H   0  0  0  0  0  0
  -28.7975  -12.2450   21.3663 H   0  0  0  0  0  0
  -28.3273  -13.8352   21.8243 H   0  0  0  0  0  0
  -25.2770   -9.5688   22.4750 H   0  0  0  0  0  0
  -24.0027   -7.4624   22.7466 H   0  0  0  0  0  0
  -21.0852   -8.8750   19.8945 H   0  0  0  0  0  0
  -22.3694  -10.9657   19.6162 H   0  0  0  0  0  0
  -21.2014   -7.6146   23.9712 H   0  0  0  0  0  0
  -21.1479   -6.0513   25.9073 H   0  0  0  0  0  0
  -22.0609   -2.7605   23.2828 H   0  0  0  0  0  0
  -22.4094  -11.9839   22.4833 H   0  0  0  0  0  0
  -21.1058  -13.1158   22.2678 H   0  0  0  0  0  0
  -24.6211  -15.8356   20.4976 H   0  0  0  0  0  0
  -26.2366  -15.6320   20.0467 H   0  0  0  0  0  0
  -26.7262  -32.5239   23.0926 H   0  0  0  0  0  0
  -25.0052  -33.9560   25.0260 H   0  0  0  0  0  0
  -22.7606  -31.2736   21.3604 H   0  0  0  0  0  0
  -23.3764  -35.9561   23.3292 H   0  0  0  0  0  0
  -24.3571  -36.8878   22.2068 H   0  0  0  0  0  0
  -23.7253  -37.6418   23.6704 H   0  0  0  0  0  0
  -26.1780  -31.4360   20.6134 H   0  0  0  0  0  0
  -26.8803  -30.7389   22.0380 H   0  0  0  0  0  0
  -28.1235  -28.7325   21.2719 H   0  0  0  0  0  0
  -25.9443  -25.7765   19.0215 H   0  0  0  0  0  0
  -24.0031  -27.2629   18.9684 H   0  0  0  0  0  0
  -23.8278  -30.5354   19.3863 H   0  0  0  0  0  0
  -22.8036  -29.2069   19.8391 H   0  0  0  0  0  0
  -25.1325  -36.1805   25.0806 H   0  0  0  0  0  0
  -21.0033  -28.3292   24.1356 H   0  0  0  0  0  0
  -20.5667  -26.2308   23.3637 H   0  0  0  0  0  0
  -21.6652  -26.7380   22.1208 H   0  0  0  0  0  0
  -19.6903  -25.6273   21.1263 H   0  0  0  0  0  0
  -19.6705  -27.3172   20.6743 H   0  0  0  0  0  0
  -17.4214  -26.6687   21.4036 H   0  0  0  0  0  0
  -18.0321  -26.0080   22.9031 H   0  0  0  0  0  0
  -19.7951  -30.7311   24.2195 H   0  0  0  0  0  0
  -17.5022  -31.6255   24.5160 H   0  0  0  0  0  0
  -15.5360  -30.2955   23.7683 H   0  0  0  0  0  0
  -15.8711  -28.0813   22.7067 H   0  0  0  0  0  0
  -24.5880  -30.7096   25.7711 H   0  0  0  0  0  0
  -24.8895  -32.2959   26.4734 H   0  0  0  0  0  0
  -25.7982  -30.8987   27.0202 H   0  0  0  0  0  0
  -26.3046  -29.6631   24.1332 H   0  0  0  0  0  0
  -27.3985  -29.7268   25.4936 H   0  0  0  0  0  0
  -27.8967  -30.4155   23.9683 H   0  0  0  0  0  0
  -27.2612  -33.3650   26.1987 H   0  0  0  0  0  0
  -28.3904  -32.6849   25.0349 H   0  0  0  0  0  0
  -28.0649  -31.8496   26.5465 H   0  0  0  0  0  0
  -28.2578  -38.0083   24.7501 H   0  0  0  0  0  0
  -28.1080  -36.2609   24.6304 H   0  0  0  0  0  0
  -27.2288  -37.1417   25.8870 H   0  0  0  0  0  0
  -20.9483  -29.8733   21.6766 H   0  0  0  0  0  0
  -26.0142  -38.2777   24.1403 H   0  0  0  0  0  0
  -31.7442  -23.0607   23.4466 H   0  0  0  0  0  0
  -31.3677  -23.2233   21.7387 H   0  0  0  0  0  0
  -32.1320  -21.7487   22.3371 H   0  0  0  0  0  0
  -30.1928  -21.6846   24.9762 H   0  0  0  0  0  0
  -30.7106  -20.2606   24.0886 H   0  0  0  0  0  0
  -28.9927  -20.6184   24.2547 H   0  0  0  0  0  0
  -29.0684  -15.7902   22.5588 H   0  0  0  0  0  0
  -28.5645  -17.3743   22.0463 H   0  0  0  0  0  0
  -27.7728  -15.9752   21.3605 H   0  0  0  0  0  0
  -30.9174  -17.8214   19.6689 H   0  0  0  0  0  0
  -29.3738  -17.6363   18.9571 H   0  0  0  0  0  0
  -27.8585  -23.2829   21.5686 H   0  0  0  0  0  0
  -27.0885  -22.8236   20.1509 H   0  0  0  0  0  0
  -28.0808  -24.5454   18.8001 H   0  0  0  0  0  0
  -29.5267  -24.5259   19.7087 H   0  0  0  0  0  0
  -29.3086  -22.7214   22.9699 H   0  0  0  0  0  0
  1 25  1  0  0  0
  1 30  2  0  0  0
  1 83  1  0  0  0
  2  3  1  0  0  0
  2 25  1  0  0  0
  2 84  1  0  0  0
  2 85  1  0  0  0
  3  4  1  0  0  0
  3 86  1  0  0  0
  3 87  1  0  0  0
  4  5  1  0  0  0
  4 88  1  0  0  0
  4 89  1  0  0  0
  5  6  1  0  0  0
  5 26  1  0  0  0
  5 90  1  0  0  0
  6 25  1  0  0  0
  6 91  1  0  0  0
  6 92  1  0  0  0
  7  8  2  0  0  0
  7 26  1  0  0  0
  7 29  1  0  0  0
  8  9  1  0  0  0
  8 22  1  0  0  0
  9 10  1  0  0  0
  9 27  2  0  0  0
 10 11  2  0  0  0
 10 15  1  0  0  0
 11 12  1  0  0  0
 11 93  1  0  0  0
 12 13  2  0  0  0
 12 94  1  0  0  0
 13 14  1  0  0  0
 13 31  1  0  0  0
 14 15  2  0  0  0
 14 95  1  0  0  0
 15 96  1  0  0  0
 16 17  2  0  0  0
 16 21  1  0  0  0
 16 31  1  0  0  0
 17 18  1  0  0  0
 17 97  1  0  0  0
 18 19  2  0  0  0
 18 98  1  0  0  0
 19 20  1  0  0  0
 19 24  1  0  0  0
 20 21  2  0  0  0
 20 99  1  0  0  0
 21 23  1  0  0  0
 22 28  1  0  0  0
 22 32  2  0  0  0
 26 27  1  0  0  0
 28100  1  0  0  0
 28101  1  0  0  0
 29102  1  0  0  0
 29103  1  0  0  0
 33 34  1  0  0  0
 33 66  1  0  0  0
 33 70  2  0  0  0
 34 36  1  0  0  0
 34 59  1  0  0  0
 34104  1  0  0  0
 35 44  2  0  0  0
 35 45  1  0  0  0
 35 68  1  0  0  0
 36 56  1  0  0  0
 36105  1  0  0  0
 37 39  1  0  0  0
 37 47  1  0  0  0
 37 66  1  0  0  0
 37106  1  0  0  0
 38 43  2  0  0  0
 38 46  1  0  0  0
 38 47  1  0  0  0
 39 64  1  0  0  0
 39 67  2  0  0  0
 40 52  1  0  0  0
 40 53  2  0  0  0
 40 58  1  0  0  0
 41107  1  0  0  0
 41108  1  0  0  0
 41109  1  0  0  0
 41 48  1  0  0  0
 42 43  1  0  0  0
 42 66  1  0  0  0
 42110  1  0  0  0
 42111  1  0  0  0
 43 44  1  0  0  0
 44112  1  0  0  0
 45 46  2  0  0  0
 45113  1  0  0  0
 46114  1  0  0  0
 47115  1  0  0  0
 47116  1  0  0  0
 48 56  1  0  0  0
 48 65  1  0  0  0
 48117  1  0  0  0
 49 50  1  0  0  0
 49 53  1  0  0  0
 49 64  1  0  0  0
 49118  1  0  0  0
 50 51  1  0  0  0
 50119  1  0  0  0
 50120  1  0  0  0
 51 52  1  0  0  0
 51121  1  0  0  0
 51122  1  0  0  0
 52123  1  0  0  0
 52124  1  0  0  0
 53 54  1  0  0  0
 54 55  2  0  0  0
 54125  1  0  0  0
 55 57  1  0  0  0
 55126  1  0  0  0
 56 69  2  0  0  0
 57 58  2  0  0  0
 57127  1  0  0  0
 58128  1  0  0  0
 59 60  1  0  0  0
 59 61  1  0  0  0
 59 62  1  0  0  0
 60129  1  0  0  0
 60130  1  0  0  0
 60131  1  0  0  0
 61132  1  0  0  0
 61133  1  0  0  0
 61134  1  0  0  0
 62135  1  0  0  0
 62136  1  0  0  0
 62137  1  0  0  0
 63 65  1  0  0  0
 63138  1  0  0  0
 63139  1  0  0  0
 63140  1  0  0  0
 64141  1  0  0  0
 65142  1  0  0  0
 68 78  1  0  0  0
 71 76  1  0  0  0
 71 80  1  0  0  0
 71 81  2  0  0  0
 72 77  1  0  0  0
 72 80  2  0  0  0
 72 82  1  0  0  0
 73143  1  0  0  0
 73144  1  0  0  0
 73145  1  0  0  0
 73 79  1  0  0  0
 74 79  1  0  0  0
 74146  1  0  0  0
 74147  1  0  0  0
 74148  1  0  0  0
 75 83  1  0  0  0
 75149  1  0  0  0
 75150  1  0  0  0
 75151  1  0  0  0
 76 83  1  0  0  0
 76152  1  0  0  0
 76153  1  0  0  0
 77 78  1  0  0  0
 77154  1  0  0  0
 77155  1  0  0  0
 78156  1  0  0  0
 78157  1  0  0  0
 79 82  1  0  0  0
 79158  1  0  0  0
 81 82  1  0  0  0
M  ISO  4   1 100  68 101  78 101  83 100
M  END
> <chiral flag>
0

> <version>
0

> <s_m_source_file>
/data/baiqing/PycharmProjects/Reinvent-master-3.2/result/LINK_invent/BTK/process_docking_weight1_custom_sum_contain_oxygen_bond_distance_aromatic_linkinvent_7_9_3/rearranged_h_0055.sdf

> <i_m_source_file_index>
47

> <r_mmod_Potential_Energy-OPLS-2005>
808.652099609375

> <r_mmod_Stretch_Energy-OPLS-2005>
363.266357421875

> <r_mmod_Bend_Energy-OPLS-2005>
386.404663085938

> <r_mmod_Torsional_Energy-OPLS-2005>
274.060150146484

> <r_mmod_Improper_Torsional_Energy-OPLS-2005>
8.8128604888916

> <r_mmod_Van_der_Waal_Energy-OPLS-2005>
115.408935546875

> <r_mmod_Electrostatic_Energy-OPLS-2005>
-380.378356933594

> <r_mmod_Solvation_Energy-OPLS-2005>
-223.505737304688

> <b_mmod_Minimization_Converged-OPLS-2005>
0

> <r_mmod_RMS_Derivative-OPLS-2005>
2.01170611381531

$$$$
47
                    3D
 Structure written by MMmdl.
148156  0  0  1  0            999 V2000
  -30.4836  -14.9945   20.4282 C   0  0  0  0  0  0
  -30.4582  -12.6084   19.5206 C   0  0  0  0  0  0
  -29.5411  -12.5447   18.2722 C   0  0  0  0  0  0
  -28.0699  -12.3208   18.6760 C   0  0  0  0  0  0
  -27.6347  -13.2491   19.8389 C   0  0  2  0  0  0
  -28.6714  -13.2700   20.9812 C   0  0  0  0  0  0
  -25.2493  -13.8216   20.5701 C   0  0  0  0  0  0
  -24.1803  -13.0440   20.9214 C   0  0  0  0  0  0
  -24.6419  -11.6925   20.8732 C   0  0  0  0  0  0
  -23.9099  -10.4296   21.0395 C   0  0  0  0  0  0
  -24.3642   -9.4211   21.9179 C   0  0  0  0  0  0
  -23.6308   -8.2251   22.0751 C   0  0  0  0  0  0
  -22.4287   -8.0292   21.3545 C   0  0  0  0  0  0
  -21.9931   -9.0267   20.4648 C   0  0  0  0  0  0
  -22.7268  -10.2140   20.3052 C   0  0  0  0  0  0
  -21.6859   -6.0745   22.5282 C   0  0  0  0  0  0
  -21.4019   -6.5643   23.8214 C   0  0  0  0  0  0
  -21.3660   -5.6792   24.9175 C   0  0  0  0  0  0
  -21.6046   -4.3057   24.7224 C   0  0  0  0  0  0
  -21.8819   -3.8153   23.4342 C   0  0  0  0  0  0
  -21.9195   -4.6971   22.3402 C   0  0  0  0  0  0
  -22.7821  -13.5210   21.1881 C   0  0  0  0  0  0
  -22.1660   -4.2159   21.0979 F   0  0  0  0  0  0
  -21.5630   -3.4538   25.7735 F   0  0  0  0  0  0
  -29.9550  -13.6984   20.4084 N   0  0  0  0  0  0
  -26.2915  -12.9446   20.3210 N   0  0  0  0  0  0
  -25.9352  -11.6575   20.5701 N   0  0  0  0  0  0
  -22.0473  -12.8196   22.0438 N   0  0  0  0  0  0
  -25.4164  -15.1948   20.4159 N   0  0  0  0  0  0
  -31.6616  -15.1064   20.0664 O   0  0  0  0  0  0
  -21.6646   -6.8891   21.4245 O   0  0  0  0  0  0
  -22.3498  -14.5512   20.6728 O   0  0  0  0  0  0
  -24.6468  -31.8404   23.1841 C   0  0  0  0  0  0
  -25.9221  -32.4675   23.8251 C   0  0  1  0  0  0
  -27.2247  -27.1011   20.1581 C   0  0  0  0  0  0
  -25.5956  -33.8483   24.2167 N   0  0  0  0  0  0
  -23.4532  -30.4572   21.5301 C   0  0  2  0  0  0
  -24.9057  -28.8768   20.1099 C   0  0  0  0  0  0
  -22.7587  -29.4526   22.4839 C   0  0  0  0  0  0
  -18.0309  -28.1395   22.8473 C   0  0  0  0  0  0
  -24.1495  -36.7251   23.2643 C   0  0  0  0  0  0
  -26.0118  -30.7024   21.3889 C   0  0  0  0  0  0
  -26.0840  -29.3101   20.7308 C   0  0  0  0  0  0
  -27.2433  -28.4401   20.7347 C   0  0  0  0  0  0
  -26.0182  -26.7772   19.4981 C   0  0  0  0  0  0
  -24.8880  -27.6249   19.4768 C   0  0  0  0  0  0
  -23.6828  -29.7825   20.1513 C   0  0  0  0  0  0
  -25.4128  -36.3021   24.0313 C   0  0  1  0  0  0
  -20.5924  -28.3726   23.1223 C   0  0  2  0  0  0
  -20.6792  -26.9424   22.5401 C   0  0  0  0  0  0
  -19.5766  -26.6376   21.5210 C   0  0  0  0  0  0
  -18.1948  -26.7931   22.1623 C   0  0  0  0  0  0
  -19.1567  -28.8879   23.2840 C   0  0  0  0  0  0
  -18.9480  -30.1473   23.8869 C   0  0  0  0  0  0
  -17.6476  -30.6591   24.0555 C   0  0  0  0  0  0
  -25.9078  -34.9397   23.5052 C   0  0  0  0  0  0
  -16.5368  -29.9083   23.6336 C   0  0  0  0  0  0
  -16.7292  -28.6500   23.0359 C   0  0  0  0  0  0
  -26.4530  -31.6555   25.0709 C   0  0  0  0  0  0
  -25.3706  -31.3755   26.1397 C   0  0  0  0  0  0
  -27.0401  -30.2944   24.6317 C   0  0  0  0  0  0
  -27.6053  -32.4331   25.7496 C   0  0  0  0  0  0
  -27.5578  -37.1781   24.8464 C   0  0  0  0  0  0
  -21.4274  -29.3048   22.3591 N   0  0  0  0  0  0
  -26.4289  -37.3737   23.9407 N   0  0  0  0  0  0
  -24.7239  -31.0221   22.0893 N   0  0  0  0  0  0
  -23.4208  -28.8079   23.3011 O   0  0  0  0  0  0
  -28.2709  -26.0958   20.2341 O   0  0  0  0  0  0
  -26.5669  -34.8903   22.4634 O   0  0  0  0  0  0
  -23.5576  -32.1299   23.7034 O   0  0  0  0  0  0
  -30.7803  -18.7657   20.9167 C   0  0  0  0  0  0
  -28.7800  -18.8566   20.1905 C   0  0  0  0  0  0
  -29.6230  -16.3607   20.8676 C   0  0  0  0  0  0
  -28.9801  -23.1829   20.3687 C   0  0  0  0  0  0
  -28.4835  -21.5620   20.1699 C   0  0  0  0  0  0
  -27.9906  -24.5526   20.0836 C   0  0  0  0  0  0
  -30.5352  -20.0582   20.8286 N   0  0  0  0  0  0
  -29.7458  -17.9191   20.5124 N   0  0  0  0  0  0
  -29.2518  -20.1641   20.3620 N   0  0  0  0  0  0
  -27.6290  -18.5717   19.8504 O   0  0  0  0  0  0
  -31.4920  -12.7789   19.2162 H   0  0  0  0  0  0
  -30.4581  -11.6536   20.0484 H   0  0  0  0  0  0
  -29.8710  -11.7521   17.5995 H   0  0  0  0  0  0
  -29.6274  -13.4774   17.7127 H   0  0  0  0  0  0
  -27.9672  -11.2782   18.9792 H   0  0  0  0  0  0
  -27.4141  -12.4542   17.8148 H   0  0  0  0  0  0
  -27.5995  -14.2521   19.4134 H   0  0  0  0  0  0
  -28.7592  -12.2882   21.4484 H   0  0  0  0  0  0
  -28.3570  -13.9549   21.7700 H   0  0  0  0  0  0
  -25.2786   -9.5687   22.4756 H   0  0  0  0  0  0
  -24.0020   -7.4641   22.7465 H   0  0  0  0  0  0
  -21.0866   -8.8793   19.8948 H   0  0  0  0  0  0
  -22.3731  -10.9683   19.6164 H   0  0  0  0  0  0
  -21.2008   -7.6150   23.9726 H   0  0  0  0  0  0
  -21.1483   -6.0518   25.9080 H   0  0  0  0  0  0
  -22.0596   -2.7616   23.2840 H   0  0  0  0  0  0
  -22.4091  -11.9858   22.4827 H   0  0  0  0  0  0
  -21.1087  -13.1212   22.2636 H   0  0  0  0  0  0
  -24.6476  -15.8455   20.5349 H   0  0  0  0  0  0
  -26.2625  -15.6452   20.0904 H   0  0  0  0  0  0
  -26.7287  -32.5270   23.0977 H   0  0  0  0  0  0
  -25.0073  -33.9592   25.0295 H   0  0  0  0  0  0
  -22.7575  -31.2838   21.3711 H   0  0  0  0  0  0
  -23.3764  -35.9575   23.3284 H   0  0  0  0  0  0
  -24.3580  -36.8907   22.2062 H   0  0  0  0  0  0
  -23.7247  -37.6437   23.6698 H   0  0  0  0  0  0
  -26.1721  -31.4542   20.6150 H   0  0  0  0  0  0
  -26.8801  -30.7540   22.0342 H   0  0  0  0  0  0
  -28.1394  -28.7679   21.2425 H   0  0  0  0  0  0
  -25.9131  -25.8195   19.0110 H   0  0  0  0  0  0
  -23.9901  -27.2859   18.9791 H   0  0  0  0  0  0
  -23.8220  -30.5553   19.3946 H   0  0  0  0  0  0
  -22.7974  -29.2257   19.8395 H   0  0  0  0  0  0
  -25.1318  -36.1844   25.0805 H   0  0  0  0  0  0
  -21.0016  -28.3320   24.1343 H   0  0  0  0  0  0
  -20.5681  -26.2340   23.3622 H   0  0  0  0  0  0
  -21.6656  -26.7422   22.1199 H   0  0  0  0  0  0
  -19.6927  -25.6279   21.1258 H   0  0  0  0  0  0
  -19.6704  -27.3170   20.6727 H   0  0  0  0  0  0
  -17.4214  -26.6669   21.4029 H   0  0  0  0  0  0
  -18.0354  -26.0080   22.9028 H   0  0  0  0  0  0
  -19.7956  -30.7295   24.2227 H   0  0  0  0  0  0
  -17.5030  -31.6269   24.5160 H   0  0  0  0  0  0
  -15.5366  -30.2976   23.7676 H   0  0  0  0  0  0
  -15.8691  -28.0807   22.7095 H   0  0  0  0  0  0
  -24.5877  -30.7118   25.7708 H   0  0  0  0  0  0
  -24.8909  -32.2944   26.4778 H   0  0  0  0  0  0
  -25.7978  -30.8943   27.0204 H   0  0  0  0  0  0
  -26.3023  -29.6656   24.1320 H   0  0  0  0  0  0
  -27.3992  -29.7259   25.4904 H   0  0  0  0  0  0
  -27.8941  -30.4167   23.9654 H   0  0  0  0  0  0
  -27.2635  -33.3651   26.2011 H   0  0  0  0  0  0
  -28.3894  -32.6863   25.0349 H   0  0  0  0  0  0
  -28.0686  -31.8501   26.5464 H   0  0  0  0  0  0
  -28.2578  -38.0093   24.7512 H   0  0  0  0  0  0
  -28.1092  -36.2621   24.6290 H   0  0  0  0  0  0
  -27.2294  -37.1421   25.8866 H   0  0  0  0  0  0
  -20.9492  -29.8757   21.6760 H   0  0  0  0  0  0
  -26.0153  -38.2804   24.1409 H   0  0  0  0  0  0
  -31.6953  -18.3018   21.2895 H   0  0  0  0  0  0
  -28.5954  -16.1158   20.6025 H   0  0  0  0  0  0
  -29.6227  -16.3281   21.9572 H   0  0  0  0  0  0
  -29.8706  -23.3111   19.7527 H   0  0  0  0  0  0
  -29.3419  -23.2710   21.3931 H   0  0  0  0  0  0
  -28.0932  -21.5065   19.1532 H   0  0  0  0  0  0
  -27.5944  -21.4590   20.7936 H   0  0  0  0  0  0
  -27.0938  -24.3791   20.6793 H   0  0  0  0  0  0
  -27.6632  -24.4350   19.0507 H   0  0  0  0  0  0
  1 25  1  0  0  0
  1 30  2  0  0  0
  1 73  1  0  0  0
  2  3  1  0  0  0
  2 25  1  0  0  0
  2 81  1  0  0  0
  2 82  1  0  0  0
  3  4  1  0  0  0
  3 83  1  0  0  0
  3 84  1  0  0  0
  4  5  1  0  0  0
  4 85  1  0  0  0
  4 86  1  0  0  0
  5  6  1  0  0  0
  5 26  1  0  0  0
  5 87  1  0  0  0
  6 25  1  0  0  0
  6 88  1  0  0  0
  6 89  1  0  0  0
  7  8  2  0  0  0
  7 26  1  0  0  0
  7 29  1  0  0  0
  8  9  1  0  0  0
  8 22  1  0  0  0
  9 10  1  0  0  0
  9 27  2  0  0  0
 10 11  2  0  0  0
 10 15  1  0  0  0
 11 12  1  0  0  0
 11 90  1  0  0  0
 12 13  2  0  0  0
 12 91  1  0  0  0
 13 14  1  0  0  0
 13 31  1  0  0  0
 14 15  2  0  0  0
 14 92  1  0  0  0
 15 93  1  0  0  0
 16 17  2  0  0  0
 16 21  1  0  0  0
 16 31  1  0  0  0
 17 18  1  0  0  0
 17 94  1  0  0  0
 18 19  2  0  0  0
 18 95  1  0  0  0
 19 20  1  0  0  0
 19 24  1  0  0  0
 20 21  2  0  0  0
 20 96  1  0  0  0
 21 23  1  0  0  0
 22 28  1  0  0  0
 22 32  2  0  0  0
 26 27  1  0  0  0
 28 97  1  0  0  0
 28 98  1  0  0  0
 29 99  1  0  0  0
 29100  1  0  0  0
 33 34  1  0  0  0
 33 66  1  0  0  0
 33 70  2  0  0  0
 34 36  1  0  0  0
 34 59  1  0  0  0
 34101  1  0  0  0
 35 44  2  0  0  0
 35 45  1  0  0  0
 35 68  1  0  0  0
 36 56  1  0  0  0
 36102  1  0  0  0
 37 39  1  0  0  0
 37 47  1  0  0  0
 37 66  1  0  0  0
 37103  1  0  0  0
 38 43  2  0  0  0
 38 46  1  0  0  0
 38 47  1  0  0  0
 39 64  1  0  0  0
 39 67  2  0  0  0
 40 52  1  0  0  0
 40 53  2  0  0  0
 40 58  1  0  0  0
 41104  1  0  0  0
 41105  1  0  0  0
 41106  1  0  0  0
 41 48  1  0  0  0
 42 43  1  0  0  0
 42 66  1  0  0  0
 42107  1  0  0  0
 42108  1  0  0  0
 43 44  1  0  0  0
 44109  1  0  0  0
 45 46  2  0  0  0
 45110  1  0  0  0
 46111  1  0  0  0
 47112  1  0  0  0
 47113  1  0  0  0
 48 56  1  0  0  0
 48 65  1  0  0  0
 48114  1  0  0  0
 49 50  1  0  0  0
 49 53  1  0  0  0
 49 64  1  0  0  0
 49115  1  0  0  0
 50 51  1  0  0  0
 50116  1  0  0  0
 50117  1  0  0  0
 51 52  1  0  0  0
 51118  1  0  0  0
 51119  1  0  0  0
 52120  1  0  0  0
 52121  1  0  0  0
 53 54  1  0  0  0
 54 55  2  0  0  0
 54122  1  0  0  0
 55 57  1  0  0  0
 55123  1  0  0  0
 56 69  2  0  0  0
 57 58  2  0  0  0
 57124  1  0  0  0
 58125  1  0  0  0
 59 60  1  0  0  0
 59 61  1  0  0  0
 59 62  1  0  0  0
 60126  1  0  0  0
 60127  1  0  0  0
 60128  1  0  0  0
 61129  1  0  0  0
 61130  1  0  0  0
 61131  1  0  0  0
 62132  1  0  0  0
 62133  1  0  0  0
 62134  1  0  0  0
 63 65  1  0  0  0
 63135  1  0  0  0
 63136  1  0  0  0
 63137  1  0  0  0
 64138  1  0  0  0
 65139  1  0  0  0
 68 76  1  0  0  0
 71 77  2  0  0  0
 71 78  1  0  0  0
 71140  1  0  0  0
 72 78  1  0  0  0
 72 79  1  0  0  0
 72 80  2  0  0  0
 73 78  1  0  0  0
 73141  1  0  0  0
 73142  1  0  0  0
 74 75  1  0  0  0
 74 76  1  0  0  0
 74143  1  0  0  0
 74144  1  0  0  0
 75 79  1  0  0  0
 75145  1  0  0  0
 75146  1  0  0  0
 76147  1  0  0  0
 76148  1  0  0  0
 77 79  1  0  0  0
M  ISO  4   1 100  68 101  73 100  76 101
M  END
> <chiral flag>
0

> <version>
0

> <s_m_source_file>
/data/baiqing/PycharmProjects/Reinvent-master-3.2/result/LINK_invent/BTK/process_docking_weight1_custom_sum_contain_oxygen_bond_distance_aromatic_linkinvent_7_9_3/rearranged_h_0055.sdf

> <i_m_source_file_index>
48

> <r_mmod_Potential_Energy-OPLS-2005>
554.758972167969

> <r_mmod_Stretch_Energy-OPLS-2005>
297.046630859375

> <r_mmod_Bend_Energy-OPLS-2005>
349.734558105469

> <r_mmod_Torsional_Energy-OPLS-2005>
215.96321105957

> <r_mmod_Improper_Torsional_Energy-OPLS-2005>
3.12395977973938

> <r_mmod_Van_der_Waal_Energy-OPLS-2005>
104.952682495117

> <r_mmod_Electrostatic_Energy-OPLS-2005>
-426.915466308594

> <r_mmod_Solvation_Energy-OPLS-2005>
-215.823593139648

> <b_mmod_Minimization_Converged-OPLS-2005>
0

> <r_mmod_RMS_Derivative-OPLS-2005>
0.606644630432129

$$$$
48
                    3D
 Structure written by MMmdl.
154162  0  0  1  0            999 V2000
  -30.4756  -15.0053   20.3905 C   0  0  0  0  0  0
  -30.4743  -12.6226   19.4773 C   0  0  0  0  0  0
  -29.5260  -12.5308   18.2513 C   0  0  0  0  0  0
  -28.0536  -12.3092   18.6684 C   0  0  0  0  0  0
  -27.6330  -13.2019   19.8630 C   0  0  2  0  0  0
  -28.7081  -13.1753   20.9720 C   0  0  0  0  0  0
  -25.2429  -13.8028   20.5672 C   0  0  0  0  0  0
  -24.1738  -13.0315   20.9240 C   0  0  0  0  0  0
  -24.6340  -11.6803   20.8821 C   0  0  0  0  0  0
  -23.9019  -10.4214   21.0449 C   0  0  0  0  0  0
  -24.3581   -9.4135   21.9214 C   0  0  0  0  0  0
  -23.6262   -8.2175   22.0758 C   0  0  0  0  0  0
  -22.4249   -8.0234   21.3538 C   0  0  0  0  0  0
  -21.9886   -9.0205   20.4640 C   0  0  0  0  0  0
  -22.7210  -10.2081   20.3071 C   0  0  0  0  0  0
  -21.6829   -6.0714   22.5278 C   0  0  0  0  0  0
  -21.3997   -6.5626   23.8209 C   0  0  0  0  0  0
  -21.3659   -5.6783   24.9173 C   0  0  0  0  0  0
  -21.6048   -4.3046   24.7231 C   0  0  0  0  0  0
  -21.8820   -3.8135   23.4354 C   0  0  0  0  0  0
  -21.9184   -4.6947   22.3407 C   0  0  0  0  0  0
  -22.7772  -13.5140   21.1875 C   0  0  0  0  0  0
  -22.1657   -4.2132   21.0986 F   0  0  0  0  0  0
  -21.5633   -3.4534   25.7749 F   0  0  0  0  0  0
  -29.9658  -13.6902   20.3891 N   0  0  0  0  0  0
  -26.2897  -12.9182   20.3439 N   0  0  0  0  0  0
  -25.9277  -11.6367   20.5898 N   0  0  0  0  0  0
  -22.0423  -12.8157   22.0456 N   0  0  0  0  0  0
  -25.3909  -15.1743   20.3868 N   0  0  0  0  0  0
  -31.6863  -15.1067   20.1556 O   0  0  0  0  0  0
  -21.6605   -6.8844   21.4235 O   0  0  0  0  0  0
  -22.3472  -14.5451   20.6714 O   0  0  0  0  0  0
  -24.6419  -31.8443   23.1877 C   0  0  0  0  0  0
  -25.9190  -32.4700   23.8273 C   0  0  1  0  0  0
  -27.2414  -27.1526   20.1520 C   0  0  0  0  0  0
  -25.5943  -33.8505   24.2193 N   0  0  0  0  0  0
  -23.4468  -30.4603   21.5325 C   0  0  2  0  0  0
  -24.9021  -28.8857   20.1110 C   0  0  0  0  0  0
  -22.7564  -29.4539   22.4866 C   0  0  0  0  0  0
  -18.0303  -28.1384   22.8480 C   0  0  0  0  0  0
  -24.1493  -36.7258   23.2643 C   0  0  0  0  0  0
  -26.0009  -30.7225   21.3846 C   0  0  0  0  0  0
  -26.0768  -29.3338   20.7279 C   0  0  0  0  0  0
  -27.2439  -28.4832   20.7318 C   0  0  0  0  0  0
  -26.0393  -26.8016   19.4952 C   0  0  0  0  0  0
  -24.8954  -27.6316   19.4801 C   0  0  0  0  0  0
  -23.6743  -29.7834   20.1537 C   0  0  0  0  0  0
  -25.4125  -36.3036   24.0317 C   0  0  1  0  0  0
  -20.5912  -28.3709   23.1238 C   0  0  2  0  0  0
  -20.6782  -26.9412   22.5403 C   0  0  0  0  0  0
  -19.5758  -26.6371   21.5208 C   0  0  0  0  0  0
  -18.1941  -26.7925   22.1621 C   0  0  0  0  0  0
  -19.1559  -28.8866   23.2850 C   0  0  0  0  0  0
  -18.9477  -30.1462   23.8875 C   0  0  0  0  0  0
  -17.6473  -30.6583   24.0553 C   0  0  0  0  0  0
  -25.9073  -34.9410   23.5067 C   0  0  0  0  0  0
  -16.5364  -29.9074   23.6331 C   0  0  0  0  0  0
  -16.7288  -28.6489   23.0361 C   0  0  0  0  0  0
  -26.4520  -31.6566   25.0710 C   0  0  0  0  0  0
  -25.3706  -31.3745   26.1404 C   0  0  0  0  0  0
  -27.0387  -30.2969   24.6277 C   0  0  0  0  0  0
  -27.6051  -32.4331   25.7494 C   0  0  0  0  0  0
  -27.5579  -37.1784   24.8465 C   0  0  0  0  0  0
  -21.4256  -29.3039   22.3614 N   0  0  0  0  0  0
  -26.4291  -37.3748   23.9406 N   0  0  0  0  0  0
  -24.7159  -31.0301   22.0905 N   0  0  0  0  0  0
  -23.4206  -28.8094   23.3021 O   0  0  0  0  0  0
  -28.3161  -26.1921   20.2377 O   0  0  0  0  0  0
  -26.5660  -34.8907   22.4646 O   0  0  0  0  0  0
  -23.5537  -32.1313   23.7095 O   0  0  0  0  0  0
  -28.9266  -19.0578   20.3343 C   0  0  0  0  0  0
  -31.0135  -18.6749   20.4277 C   0  0  0  0  0  0
  -29.5021  -20.3529   20.2777 C   0  0  0  0  0  0
  -28.7527  -16.3492   19.0270 C   0  0  0  0  0  0
  -28.5469  -16.2680   21.6035 C   0  0  0  0  0  0
  -28.8113  -21.8006   19.8911 C   0  0  0  0  0  0
  -29.0866  -23.3658   20.4381 C   0  0  0  0  0  0
  -28.1126  -24.6710   19.9887 C   0  0  0  0  0  0
  -29.5035  -16.3998   20.3909 C   0  0  0  0  0  0
  -30.8765  -20.0336   20.3263 N   0  0  0  0  0  0
  -29.8719  -17.9507   20.4140 N   0  0  0  0  0  0
  -31.4893  -12.8353   19.1391 H   0  0  0  0  0  0
  -30.5364  -11.6631   19.9930 H   0  0  0  0  0  0
  -29.8472  -11.7273   17.5878 H   0  0  0  0  0  0
  -29.6056  -13.4451   17.6635 H   0  0  0  0  0  0
  -27.9417  -11.2599   18.9446 H   0  0  0  0  0  0
  -27.3878  -12.4708   17.8199 H   0  0  0  0  0  0
  -27.5638  -14.2017   19.4725 H   0  0  0  0  0  0
  -28.8407  -12.1517   21.3272 H   0  0  0  0  0  0
  -28.4129  -13.7129   21.8672 H   0  0  0  0  0  0
  -25.2722   -9.5605   22.4793 H   0  0  0  0  0  0
  -23.9962   -7.4557   22.7472 H   0  0  0  0  0  0
  -21.0818   -8.8727   19.8944 H   0  0  0  0  0  0
  -22.3677  -10.9630   19.6185 H   0  0  0  0  0  0
  -21.1985   -7.6134   23.9710 H   0  0  0  0  0  0
  -21.1485   -6.0515   25.9076 H   0  0  0  0  0  0
  -22.0607   -2.7599   23.2859 H   0  0  0  0  0  0
  -22.4040  -11.9821   22.4845 H   0  0  0  0  0  0
  -21.1050  -13.1191   22.2681 H   0  0  0  0  0  0
  -24.6086  -15.8125   20.4835 H   0  0  0  0  0  0
  -26.2312  -15.6253   20.0533 H   0  0  0  0  0  0
  -26.7257  -32.5318   23.1004 H   0  0  0  0  0  0
  -25.0062  -33.9622   25.0323 H   0  0  0  0  0  0
  -22.7487  -31.2850   21.3749 H   0  0  0  0  0  0
  -23.3763  -35.9582   23.3292 H   0  0  0  0  0  0
  -24.3579  -36.8903   22.2060 H   0  0  0  0  0  0
  -23.7241  -37.6447   23.6688 H   0  0  0  0  0  0
  -26.1527  -31.4771   20.6115 H   0  0  0  0  0  0
  -26.8719  -30.7759   22.0257 H   0  0  0  0  0  0
  -28.1374  -28.8238   21.2359 H   0  0  0  0  0  0
  -25.9542  -25.8429   19.0058 H   0  0  0  0  0  0
  -23.9988  -27.2820   18.9864 H   0  0  0  0  0  0
  -23.8052  -30.5549   19.3944 H   0  0  0  0  0  0
  -22.7912  -29.2195   19.8477 H   0  0  0  0  0  0
  -25.1312  -36.1868   25.0811 H   0  0  0  0  0  0
  -21.0006  -28.3294   24.1357 H   0  0  0  0  0  0
  -20.5660  -26.2325   23.3622 H   0  0  0  0  0  0
  -21.6651  -26.7404   22.1213 H   0  0  0  0  0  0
  -19.6918  -25.6274   21.1254 H   0  0  0  0  0  0
  -19.6695  -27.3166   20.6725 H   0  0  0  0  0  0
  -17.4208  -26.6667   21.4027 H   0  0  0  0  0  0
  -18.0342  -26.0067   22.9019 H   0  0  0  0  0  0
  -19.7952  -30.7283   24.2238 H   0  0  0  0  0  0
  -17.5024  -31.6264   24.5152 H   0  0  0  0  0  0
  -15.5362  -30.2969   23.7664 H   0  0  0  0  0  0
  -15.8689  -28.0794   22.7097 H   0  0  0  0  0  0
  -24.5885  -30.7100   25.7714 H   0  0  0  0  0  0
  -24.8895  -32.2924   26.4794 H   0  0  0  0  0  0
  -25.7988  -30.8932   27.0206 H   0  0  0  0  0  0
  -26.3003  -29.6690   24.1281 H   0  0  0  0  0  0
  -27.4008  -29.7268   25.4843 H   0  0  0  0  0  0
  -27.8906  -30.4217   23.9588 H   0  0  0  0  0  0
  -27.2647  -33.3648   26.2027 H   0  0  0  0  0  0
  -28.3886  -32.6869   25.0340 H   0  0  0  0  0  0
  -28.0696  -31.8489   26.5448 H   0  0  0  0  0  0
  -28.2585  -38.0091   24.7519 H   0  0  0  0  0  0
  -28.1087  -36.2620   24.6285 H   0  0  0  0  0  0
  -27.2295  -37.1421   25.8868 H   0  0  0  0  0  0
  -20.9465  -29.8754   21.6795 H   0  0  0  0  0  0
  -26.0159  -38.2817   24.1410 H   0  0  0  0  0  0
  -27.8734  -18.8245   20.2535 H   0  0  0  0  0  0
  -31.9826  -18.1965   20.4699 H   0  0  0  0  0  0
  -27.6839  -16.5268   19.1358 H   0  0  0  0  0  0
  -28.8946  -15.4267   18.4712 H   0  0  0  0  0  0
  -29.1200  -17.1044   18.3298 H   0  0  0  0  0  0
  -28.1079  -17.2086   21.9304 H   0  0  0  0  0  0
  -29.0653  -15.8696   22.4759 H   0  0  0  0  0  0
  -27.6980  -15.6322   21.3924 H   0  0  0  0  0  0
  -27.7439  -21.6580   20.0609 H   0  0  0  0  0  0
  -28.8758  -21.8792   18.8057 H   0  0  0  0  0  0
  -30.1108  -23.6183   20.1633 H   0  0  0  0  0  0
  -29.0888  -23.3325   21.5276 H   0  0  0  0  0  0
  -27.1319  -24.4355   20.4033 H   0  0  0  0  0  0
  -27.9883  -24.5841   18.9095 H   0  0  0  0  0  0
  1 25  1  0  0  0
  1 30  2  0  0  0
  1 79  1  0  0  0
  2  3  1  0  0  0
  2 25  1  0  0  0
  2 82  1  0  0  0
  2 83  1  0  0  0
  3  4  1  0  0  0
  3 84  1  0  0  0
  3 85  1  0  0  0
  4  5  1  0  0  0
  4 86  1  0  0  0
  4 87  1  0  0  0
  5  6  1  0  0  0
  5 26  1  0  0  0
  5 88  1  0  0  0
  6 25  1  0  0  0
  6 89  1  0  0  0
  6 90  1  0  0  0
  7  8  2  0  0  0
  7 26  1  0  0  0
  7 29  1  0  0  0
  8  9  1  0  0  0
  8 22  1  0  0  0
  9 10  1  0  0  0
  9 27  2  0  0  0
 10 11  2  0  0  0
 10 15  1  0  0  0
 11 12  1  0  0  0
 11 91  1  0  0  0
 12 13  2  0  0  0
 12 92  1  0  0  0
 13 14  1  0  0  0
 13 31  1  0  0  0
 14 15  2  0  0  0
 14 93  1  0  0  0
 15 94  1  0  0  0
 16 17  2  0  0  0
 16 21  1  0  0  0
 16 31  1  0  0  0
 17 18  1  0  0  0
 17 95  1  0  0  0
 18 19  2  0  0  0
 18 96  1  0  0  0
 19 20  1  0  0  0
 19 24  1  0  0  0
 20 21  2  0  0  0
 20 97  1  0  0  0
 21 23  1  0  0  0
 22 28  1  0  0  0
 22 32  2  0  0  0
 26 27  1  0  0  0
 28 98  1  0  0  0
 28 99  1  0  0  0
 29100  1  0  0  0
 29101  1  0  0  0
 33 34  1  0  0  0
 33 66  1  0  0  0
 33 70  2  0  0  0
 34 36  1  0  0  0
 34 59  1  0  0  0
 34102  1  0  0  0
 35 44  2  0  0  0
 35 45  1  0  0  0
 35 68  1  0  0  0
 36 56  1  0  0  0
 36103  1  0  0  0
 37 39  1  0  0  0
 37 47  1  0  0  0
 37 66  1  0  0  0
 37104  1  0  0  0
 38 43  2  0  0  0
 38 46  1  0  0  0
 38 47  1  0  0  0
 39 64  1  0  0  0
 39 67  2  0  0  0
 40 52  1  0  0  0
 40 53  2  0  0  0
 40 58  1  0  0  0
 41105  1  0  0  0
 41106  1  0  0  0
 41107  1  0  0  0
 41 48  1  0  0  0
 42 43  1  0  0  0
 42 66  1  0  0  0
 42108  1  0  0  0
 42109  1  0  0  0
 43 44  1  0  0  0
 44110  1  0  0  0
 45 46  2  0  0  0
 45111  1  0  0  0
 46112  1  0  0  0
 47113  1  0  0  0
 47114  1  0  0  0
 48 56  1  0  0  0
 48 65  1  0  0  0
 48115  1  0  0  0
 49 50  1  0  0  0
 49 53  1  0  0  0
 49 64  1  0  0  0
 49116  1  0  0  0
 50 51  1  0  0  0
 50117  1  0  0  0
 50118  1  0  0  0
 51 52  1  0  0  0
 51119  1  0  0  0
 51120  1  0  0  0
 52121  1  0  0  0
 52122  1  0  0  0
 53 54  1  0  0  0
 54 55  2  0  0  0
 54123  1  0  0  0
 55 57  1  0  0  0
 55124  1  0  0  0
 56 69  2  0  0  0
 57 58  2  0  0  0
 57125  1  0  0  0
 58126  1  0  0  0
 59 60  1  0  0  0
 59 61  1  0  0  0
 59 62  1  0  0  0
 60127  1  0  0  0
 60128  1  0  0  0
 60129  1  0  0  0
 61130  1  0  0  0
 61131  1  0  0  0
 61132  1  0  0  0
 62133  1  0  0  0
 62134  1  0  0  0
 62135  1  0  0  0
 63 65  1  0  0  0
 63136  1  0  0  0
 63137  1  0  0  0
 63138  1  0  0  0
 64139  1  0  0  0
 65140  1  0  0  0
 68 78  1  0  0  0
 71 73  2  0  0  0
 71 81  1  0  0  0
 71141  1  0  0  0
 72 80  2  0  0  0
 72 81  1  0  0  0
 72142  1  0  0  0
 73 76  1  0  0  0
 73 80  1  0  0  0
 74143  1  0  0  0
 74144  1  0  0  0
 74145  1  0  0  0
 74 79  1  0  0  0
 75 79  1  0  0  0
 75146  1  0  0  0
 75147  1  0  0  0
 75148  1  0  0  0
 76 77  1  0  0  0
 76149  1  0  0  0
 76150  1  0  0  0
 77 78  1  0  0  0
 77151  1  0  0  0
 77152  1  0  0  0
 78153  1  0  0  0
 78154  1  0  0  0
 79 81  1  0  0  0
M  ISO  4   1 100  68 101  78 101  79 100
M  END
> <chiral flag>
0

> <version>
0

> <s_m_source_file>
/data/baiqing/PycharmProjects/Reinvent-master-3.2/result/LINK_invent/BTK/process_docking_weight1_custom_sum_contain_oxygen_bond_distance_aromatic_linkinvent_7_9_3/rearranged_h_0055.sdf

> <i_m_source_file_index>
49

> <r_mmod_Potential_Energy-OPLS-2005>
647.010803222656

> <r_mmod_Stretch_Energy-OPLS-2005>
272.704650878906

> <r_mmod_Bend_Energy-OPLS-2005>
321.70068359375

> <r_mmod_Torsional_Energy-OPLS-2005>
245.023696899414

> <r_mmod_Improper_Torsional_Energy-OPLS-2005>
8.22848510742188

> <r_mmod_Van_der_Waal_Energy-OPLS-2005>
133.137802124023

> <r_mmod_Electrostatic_Energy-OPLS-2005>
-320.171325683594

> <r_mmod_Solvation_Energy-OPLS-2005>
-215.493347167969

> <b_mmod_Minimization_Converged-OPLS-2005>
0

> <r_mmod_RMS_Derivative-OPLS-2005>
0.84932678937912

$$$$
49
                    3D
 Structure written by MMmdl.
174182  0  0  1  0            999 V2000
  -30.6187  -14.7339   20.5277 C   0  0  0  0  0  0
  -30.4338  -12.4594   19.4784 C   0  0  0  0  0  0
  -29.5103  -12.5178   18.2395 C   0  0  0  0  0  0
  -28.0367  -12.3400   18.6486 C   0  0  0  0  0  0
  -27.6457  -13.2282   19.8592 C   0  0  2  0  0  0
  -28.6862  -13.1285   20.9930 C   0  0  0  0  0  0
  -25.2498  -13.8133   20.5621 C   0  0  0  0  0  0
  -24.1786  -13.0411   20.9179 C   0  0  0  0  0  0
  -24.6380  -11.6898   20.8751 C   0  0  0  0  0  0
  -23.9054  -10.4293   21.0412 C   0  0  0  0  0  0
  -24.3619   -9.4200   21.9167 C   0  0  0  0  0  0
  -23.6300   -8.2234   22.0731 C   0  0  0  0  0  0
  -22.4280   -8.0272   21.3525 C   0  0  0  0  0  0
  -21.9903   -9.0265   20.4649 C   0  0  0  0  0  0
  -22.7222  -10.2154   20.3063 C   0  0  0  0  0  0
  -21.6855   -6.0725   22.5276 C   0  0  0  0  0  0
  -21.4013   -6.5636   23.8205 C   0  0  0  0  0  0
  -21.3675   -5.6801   24.9178 C   0  0  0  0  0  0
  -21.6058   -4.3060   24.7241 C   0  0  0  0  0  0
  -21.8821   -3.8140   23.4362 C   0  0  0  0  0  0
  -21.9198   -4.6950   22.3412 C   0  0  0  0  0  0
  -22.7816  -13.5217   21.1852 C   0  0  0  0  0  0
  -22.1677   -4.2125   21.0993 F   0  0  0  0  0  0
  -21.5608   -3.4552   25.7758 F   0  0  0  0  0  0
  -29.9896  -13.5064   20.4339 N   0  0  0  0  0  0
  -26.2956  -12.9362   20.3315 N   0  0  0  0  0  0
  -25.9327  -11.6509   20.5786 N   0  0  0  0  0  0
  -22.0476  -12.8250   22.0448 N   0  0  0  0  0  0
  -25.4156  -15.1821   20.3904 N   0  0  0  0  0  0
  -31.7510  -14.8611   20.0478 O   0  0  0  0  0  0
  -21.6646   -6.8866   21.4227 O   0  0  0  0  0  0
  -22.3492  -14.5507   20.6676 O   0  0  0  0  0  0
  -24.6298  -31.8529   23.1950 C   0  0  0  0  0  0
  -25.9126  -32.4742   23.8301 C   0  0  1  0  0  0
  -27.2278  -27.2668   20.1157 C   0  0  0  0  0  0
  -25.5927  -33.8543   24.2230 N   0  0  0  0  0  0
  -23.4268  -30.4724   21.5386 C   0  0  2  0  0  0
  -24.8731  -28.9146   20.1079 C   0  0  0  0  0  0
  -22.7499  -29.4585   22.4912 C   0  0  0  0  0  0
  -18.0286  -28.1384   22.8477 C   0  0  0  0  0  0
  -24.1491  -36.7268   23.2642 C   0  0  0  0  0  0
  -25.9703  -30.7658   21.3738 C   0  0  0  0  0  0
  -26.0415  -29.3886   20.7143 C   0  0  0  0  0  0
  -27.2176  -28.5750   20.7062 C   0  0  0  0  0  0
  -26.0327  -26.8471   19.4934 C   0  0  0  0  0  0
  -24.8736  -27.6523   19.4896 C   0  0  0  0  0  0
  -23.6415  -29.7993   20.1562 C   0  0  0  0  0  0
  -25.4125  -36.3057   24.0319 C   0  0  1  0  0  0
  -20.5888  -28.3690   23.1271 C   0  0  2  0  0  0
  -20.6770  -26.9404   22.5418 C   0  0  0  0  0  0
  -19.5751  -26.6377   21.5209 C   0  0  0  0  0  0
  -18.1928  -26.7932   22.1617 C   0  0  0  0  0  0
  -19.1537  -28.8852   23.2869 C   0  0  0  0  0  0
  -18.9470  -30.1457   23.8880 C   0  0  0  0  0  0
  -17.6466  -30.6585   24.0553 C   0  0  0  0  0  0
  -25.9058  -34.9432   23.5082 C   0  0  0  0  0  0
  -16.5354  -29.9079   23.6333 C   0  0  0  0  0  0
  -16.7276  -28.6499   23.0352 C   0  0  0  0  0  0
  -26.4496  -31.6583   25.0707 C   0  0  0  0  0  0
  -25.3708  -31.3745   26.1422 C   0  0  0  0  0  0
  -27.0348  -30.2995   24.6214 C   0  0  0  0  0  0
  -27.6040  -32.4345   25.7487 C   0  0  0  0  0  0
  -27.5577  -37.1785   24.8466 C   0  0  0  0  0  0
  -21.4205  -29.3029   22.3662 N   0  0  0  0  0  0
  -26.4296  -37.3765   23.9402 N   0  0  0  0  0  0
  -24.6944  -31.0493   22.0924 N   0  0  0  0  0  0
  -23.4199  -28.8132   23.3016 O   0  0  0  0  0  0
  -28.3622  -26.4296   20.1874 O   0  0  0  0  0  0
  -26.5643  -34.8921   22.4661 O   0  0  0  0  0  0
  -23.5453  -32.1361   23.7241 O   0  0  0  0  0  0
  -26.9553  -21.0326   21.3513 C   0  0  0  0  0  0
  -26.6411  -19.7382   21.8252 C   0  0  0  0  0  0
  -28.1719  -20.9509   20.7265 C   0  0  0  0  0  0
  -28.6203  -16.0968   23.1408 C   0  0  0  0  0  0
  -31.0404  -15.4127   23.2985 C   0  0  0  0  0  0
  -24.3326  -20.4008   22.5794 C   0  0  0  0  0  0
  -25.8025  -19.0283   24.0749 C   0  0  0  0  0  0
  -24.8053  -18.0317   21.9936 C   0  0  0  0  0  0
  -28.8072  -22.2315   20.0679 C   0  0  0  0  0  0
  -28.2433  -23.7085   20.5079 C   0  0  0  0  0  0
  -29.7178  -18.6519   20.4232 C   0  0  0  0  0  0
  -29.4786  -17.0412   20.1365 C   0  0  0  0  0  0
  -28.4723  -25.0412   19.6239 C   0  0  0  0  0  0
  -30.0037  -16.2059   22.4690 C   0  0  0  0  0  0
  -25.4139  -19.2998   22.6121 C   0  0  0  0  0  0
  -27.6070  -18.8864   21.5375 N   0  0  0  0  0  0
  -28.5498  -19.5439   20.8201 N   0  0  0  0  0  0
  -29.9377  -15.8580   21.0230 N   0  0  0  0  0  0
  -31.4742  -12.5834   19.1703 H   0  0  0  0  0  0
  -30.3837  -11.4752   19.9458 H   0  0  0  0  0  0
  -29.7925  -11.7450   17.5220 H   0  0  0  0  0  0
  -29.6353  -13.4727   17.7279 H   0  0  0  0  0  0
  -27.8914  -11.2901   18.9031 H   0  0  0  0  0  0
  -27.3807  -12.5451   17.8013 H   0  0  0  0  0  0
  -27.6487  -14.2585   19.5029 H   0  0  0  0  0  0
  -28.7175  -12.1175   21.4030 H   0  0  0  0  0  0
  -28.4020  -13.7767   21.8148 H   0  0  0  0  0  0
  -25.2786   -9.5653   22.4704 H   0  0  0  0  0  0
  -24.0008   -7.4600   22.7431 H   0  0  0  0  0  0
  -21.0827   -8.8793   19.8969 H   0  0  0  0  0  0
  -22.3667  -10.9684   19.6162 H   0  0  0  0  0  0
  -21.1995   -7.6142   23.9688 H   0  0  0  0  0  0
  -21.1484   -6.0541   25.9078 H   0  0  0  0  0  0
  -22.0575   -2.7595   23.2881 H   0  0  0  0  0  0
  -22.4073  -11.9904   22.4845 H   0  0  0  0  0  0
  -21.1090  -13.1290   22.2634 H   0  0  0  0  0  0
  -24.6561  -15.8339   20.5471 H   0  0  0  0  0  0
  -26.2855  -15.6384   20.1510 H   0  0  0  0  0  0
  -26.7179  -32.5374   23.1027 H   0  0  0  0  0  0
  -25.0061  -33.9687   25.0364 H   0  0  0  0  0  0
  -22.7226  -31.2930   21.3895 H   0  0  0  0  0  0
  -23.3761  -35.9588   23.3307 H   0  0  0  0  0  0
  -24.3568  -36.8901   22.2052 H   0  0  0  0  0  0
  -23.7238  -37.6467   23.6672 H   0  0  0  0  0  0
  -26.1129  -31.5283   20.6067 H   0  0  0  0  0  0
  -26.8456  -30.8098   22.0107 H   0  0  0  0  0  0
  -28.1167  -28.9349   21.1864 H   0  0  0  0  0  0
  -25.9634  -25.8741   19.0318 H   0  0  0  0  0  0
  -23.9740  -27.2809   19.0182 H   0  0  0  0  0  0
  -23.7589  -30.5710   19.3948 H   0  0  0  0  0  0
  -22.7605  -29.2269   19.8591 H   0  0  0  0  0  0
  -25.1305  -36.1897   25.0810 H   0  0  0  0  0  0
  -20.9968  -28.3260   24.1395 H   0  0  0  0  0  0
  -20.5657  -26.2290   23.3620 H   0  0  0  0  0  0
  -21.6638  -26.7426   22.1208 H   0  0  0  0  0  0
  -19.6913  -25.6286   21.1238 H   0  0  0  0  0  0
  -19.6686  -27.3178   20.6731 H   0  0  0  0  0  0
  -17.4196  -26.6672   21.4023 H   0  0  0  0  0  0
  -18.0332  -26.0081   22.9022 H   0  0  0  0  0  0
  -19.7944  -30.7282   24.2231 H   0  0  0  0  0  0
  -17.5019  -31.6263   24.5166 H   0  0  0  0  0  0
  -15.5353  -30.2967   23.7681 H   0  0  0  0  0  0
  -15.8682  -28.0817   22.7068 H   0  0  0  0  0  0
  -24.5871  -30.7123   25.7735 H   0  0  0  0  0  0
  -24.8917  -32.2923   26.4840 H   0  0  0  0  0  0
  -25.8006  -30.8914   27.0202 H   0  0  0  0  0  0
  -26.2941  -29.6736   24.1230 H   0  0  0  0  0  0
  -27.4009  -29.7280   25.4749 H   0  0  0  0  0  0
  -27.8826  -30.4272   23.9480 H   0  0  0  0  0  0
  -27.2631  -33.3651   26.2046 H   0  0  0  0  0  0
  -28.3851  -32.6907   25.0313 H   0  0  0  0  0  0
  -28.0706  -31.8491   26.5417 H   0  0  0  0  0  0
  -28.2590  -38.0087   24.7513 H   0  0  0  0  0  0
  -28.1080  -36.2611   24.6293 H   0  0  0  0  0  0
  -27.2290  -37.1441   25.8873 H   0  0  0  0  0  0
  -20.9389  -29.8758   21.6868 H   0  0  0  0  0  0
  -26.0167  -38.2836   24.1416 H   0  0  0  0  0  0
  -26.3400  -21.9116   21.4675 H   0  0  0  0  0  0
  -28.5668  -16.7595   24.0048 H   0  0  0  0  0  0
  -28.4127  -15.0946   23.5114 H   0  0  0  0  0  0
  -27.8093  -16.3772   22.4690 H   0  0  0  0  0  0
  -31.0707  -15.7748   24.3262 H   0  0  0  0  0  0
  -32.0493  -15.5223   22.8972 H   0  0  0  0  0  0
  -30.8090  -14.3472   23.3450 H   0  0  0  0  0  0
  -24.6830  -21.3220   23.0448 H   0  0  0  0  0  0
  -23.4316  -20.0940   23.1116 H   0  0  0  0  0  0
  -24.0428  -20.6376   21.5548 H   0  0  0  0  0  0
  -26.2232  -19.9188   24.5422 H   0  0  0  0  0  0
  -26.5496  -18.2374   24.1447 H   0  0  0  0  0  0
  -24.9402  -18.7184   24.6655 H   0  0  0  0  0  0
  -24.5738  -18.1709   20.9379 H   0  0  0  0  0  0
  -23.8885  -17.7342   22.5029 H   0  0  0  0  0  0
  -25.5035  -17.2012   22.0764 H   0  0  0  0  0  0
  -28.6746  -22.1371   18.9905 H   0  0  0  0  0  0
  -29.8866  -22.2106   20.2190 H   0  0  0  0  0  0
  -28.6087  -23.9019   21.5160 H   0  0  0  0  0  0
  -27.1612  -23.6521   20.6027 H   0  0  0  0  0  0
  -30.0943  -19.0823   19.4950 H   0  0  0  0  0  0
  -30.5322  -18.8190   21.1270 H   0  0  0  0  0  0
  -29.9276  -16.8579   19.1582 H   0  0  0  0  0  0
  -28.4162  -16.8854   19.9526 H   0  0  0  0  0  0
  -27.8972  -24.9629   18.7013 H   0  0  0  0  0  0
  -29.5053  -24.9873   19.2800 H   0  0  0  0  0  0
  -30.3116  -17.2442   22.5552 H   0  0  0  0  0  0
  1 25  1  0  0  0
  1 30  2  0  0  0
  1 88  1  0  0  0
  2  3  1  0  0  0
  2 25  1  0  0  0
  2 89  1  0  0  0
  2 90  1  0  0  0
  3  4  1  0  0  0
  3 91  1  0  0  0
  3 92  1  0  0  0
  4  5  1  0  0  0
  4 93  1  0  0  0
  4 94  1  0  0  0
  5  6  1  0  0  0
  5 26  1  0  0  0
  5 95  1  0  0  0
  6 25  1  0  0  0
  6 96  1  0  0  0
  6 97  1  0  0  0
  7  8  2  0  0  0
  7 26  1  0  0  0
  7 29  1  0  0  0
  8  9  1  0  0  0
  8 22  1  0  0  0
  9 10  1  0  0  0
  9 27  2  0  0  0
 10 11  2  0  0  0
 10 15  1  0  0  0
 11 12  1  0  0  0
 11 98  1  0  0  0
 12 13  2  0  0  0
 12 99  1  0  0  0
 13 14  1  0  0  0
 13 31  1  0  0  0
 14 15  2  0  0  0
 14100  1  0  0  0
 15101  1  0  0  0
 16 17  2  0  0  0
 16 21  1  0  0  0
 16 31  1  0  0  0
 17 18  1  0  0  0
 17102  1  0  0  0
 18 19  2  0  0  0
 18103  1  0  0  0
 19 20  1  0  0  0
 19 24  1  0  0  0
 20 21  2  0  0  0
 20104  1  0  0  0
 21 23  1  0  0  0
 22 28  1  0  0  0
 22 32  2  0  0  0
 26 27  1  0  0  0
 28105  1  0  0  0
 28106  1  0  0  0
 29107  1  0  0  0
 29108  1  0  0  0
 33 34  1  0  0  0
 33 66  1  0  0  0
 33 70  2  0  0  0
 34 36  1  0  0  0
 34 59  1  0  0  0
 34109  1  0  0  0
 35 44  2  0  0  0
 35 45  1  0  0  0
 35 68  1  0  0  0
 36 56  1  0  0  0
 36110  1  0  0  0
 37 39  1  0  0  0
 37 47  1  0  0  0
 37 66  1  0  0  0
 37111  1  0  0  0
 38 43  2  0  0  0
 38 46  1  0  0  0
 38 47  1  0  0  0
 39 64  1  0  0  0
 39 67  2  0  0  0
 40 52  1  0  0  0
 40 53  2  0  0  0
 40 58  1  0  0  0
 41112  1  0  0  0
 41113  1  0  0  0
 41114  1  0  0  0
 41 48  1  0  0  0
 42 43  1  0  0  0
 42 66  1  0  0  0
 42115  1  0  0  0
 42116  1  0  0  0
 43 44  1  0  0  0
 44117  1  0  0  0
 45 46  2  0  0  0
 45118  1  0  0  0
 46119  1  0  0  0
 47120  1  0  0  0
 47121  1  0  0  0
 48 56  1  0  0  0
 48 65  1  0  0  0
 48122  1  0  0  0
 49 50  1  0  0  0
 49 53  1  0  0  0
 49 64  1  0  0  0
 49123  1  0  0  0
 50 51  1  0  0  0
 50124  1  0  0  0
 50125  1  0  0  0
 51 52  1  0  0  0
 51126  1  0  0  0
 51127  1  0  0  0
 52128  1  0  0  0
 52129  1  0  0  0
 53 54  1  0  0  0
 54 55  2  0  0  0
 54130  1  0  0  0
 55 57  1  0  0  0
 55131  1  0  0  0
 56 69  2  0  0  0
 57 58  2  0  0  0
 57132  1  0  0  0
 58133  1  0  0  0
 59 60  1  0  0  0
 59 61  1  0  0  0
 59 62  1  0  0  0
 60134  1  0  0  0
 60135  1  0  0  0
 60136  1  0  0  0
 61137  1  0  0  0
 61138  1  0  0  0
 61139  1  0  0  0
 62140  1  0  0  0
 62141  1  0  0  0
 62142  1  0  0  0
 63 65  1  0  0  0
 63143  1  0  0  0
 63144  1  0  0  0
 63145  1  0  0  0
 64146  1  0  0  0
 65147  1  0  0  0
 68 83  1  0  0  0
 71 72  1  0  0  0
 71 73  2  0  0  0
 71148  1  0  0  0
 72 85  1  0  0  0
 72 86  2  0  0  0
 73 79  1  0  0  0
 73 87  1  0  0  0
 74149  1  0  0  0
 74150  1  0  0  0
 74151  1  0  0  0
 74 84  1  0  0  0
 75 84  1  0  0  0
 75152  1  0  0  0
 75153  1  0  0  0
 75154  1  0  0  0
 76155  1  0  0  0
 76156  1  0  0  0
 76157  1  0  0  0
 76 85  1  0  0  0
 77 85  1  0  0  0
 77158  1  0  0  0
 77159  1  0  0  0
 77160  1  0  0  0
 78 85  1  0  0  0
 78161  1  0  0  0
 78162  1  0  0  0
 78163  1  0  0  0
 79 80  1  0  0  0
 79164  1  0  0  0
 79165  1  0  0  0
 80 83  1  0  0  0
 80166  1  0  0  0
 80167  1  0  0  0
 81 82  1  0  0  0
 81 87  1  0  0  0
 81168  1  0  0  0
 81169  1  0  0  0
 82 88  1  0  0  0
 82170  1  0  0  0
 82171  1  0  0  0
 83172  1  0  0  0
 83173  1  0  0  0
 84 88  1  0  0  0
 84174  1  0  0  0
 86 87  1  0  0  0
M  ISO  4   1 100  68 101  83 101  88 100
M  END
> <chiral flag>
0

> <version>
0

> <s_m_source_file>
/data/baiqing/PycharmProjects/Reinvent-master-3.2/result/LINK_invent/BTK/process_docking_weight1_custom_sum_contain_oxygen_bond_distance_aromatic_linkinvent_7_9_3/rearranged_h_0055.sdf

> <i_m_source_file_index>
50

> <r_mmod_Potential_Energy-OPLS-2005>
368.911651611328

> <r_mmod_Stretch_Energy-OPLS-2005>
150.741561889648

> <r_mmod_Bend_Energy-OPLS-2005>
237.382125854492

> <r_mmod_Torsional_Energy-OPLS-2005>
311.250335693359

> <r_mmod_Improper_Torsional_Energy-OPLS-2005>
4.24984741210938

> <r_mmod_Van_der_Waal_Energy-OPLS-2005>
112.677719116211

> <r_mmod_Electrostatic_Energy-OPLS-2005>
-344.841552734375

> <r_mmod_Solvation_Energy-OPLS-2005>
-177.797698974609

> <b_mmod_Minimization_Converged-OPLS-2005>
0

> <r_mmod_RMS_Derivative-OPLS-2005>
2.34304451942444

$$$$
50
                    3D
 Structure written by MMmdl.
154162  0  0  1  0            999 V2000
  -30.3955  -15.2751   20.4056 C   0  0  0  0  0  0
  -30.4537  -12.8067   19.5313 C   0  0  0  0  0  0
  -29.5435  -12.5758   18.2936 C   0  0  0  0  0  0
  -28.0862  -12.3034   18.7138 C   0  0  0  0  0  0
  -27.6189  -13.2716   19.8277 C   0  0  2  0  0  0
  -28.6527  -13.4137   20.9627 C   0  0  0  0  0  0
  -25.2392  -13.8240   20.5747 C   0  0  0  0  0  0
  -24.1724  -13.0441   20.9194 C   0  0  0  0  0  0
  -24.6342  -11.6882   20.8674 C   0  0  0  0  0  0
  -23.9019  -10.4304   21.0338 C   0  0  0  0  0  0
  -24.3563   -9.4238   21.9139 C   0  0  0  0  0  0
  -23.6243   -8.2261   22.0739 C   0  0  0  0  0  0
  -22.4279   -8.0261   21.3519 C   0  0  0  0  0  0
  -21.9885   -9.0197   20.4623 C   0  0  0  0  0  0
  -22.7155  -10.2093   20.3011 C   0  0  0  0  0  0
  -21.6833   -6.0689   22.5211 C   0  0  0  0  0  0
  -21.3983   -6.5598   23.8131 C   0  0  0  0  0  0
  -21.3684   -5.6767   24.9112 C   0  0  0  0  0  0
  -21.6064   -4.3036   24.7178 C   0  0  0  0  0  0
  -21.8822   -3.8100   23.4319 C   0  0  0  0  0  0
  -21.9194   -4.6907   22.3351 C   0  0  0  0  0  0
  -22.7773  -13.5197   21.1848 C   0  0  0  0  0  0
  -22.1672   -4.2077   21.0942 F   0  0  0  0  0  0
  -21.5685   -3.4544   25.7725 F   0  0  0  0  0  0
  -29.8946  -13.9333   20.3653 N   0  0  0  0  0  0
  -26.2863  -12.9468   20.3212 N   0  0  0  0  0  0
  -25.9283  -11.6600   20.5659 N   0  0  0  0  0  0
  -22.0449  -12.8139   22.0421 N   0  0  0  0  0  0
  -25.4045  -15.1940   20.4260 N   0  0  0  0  0  0
  -31.5931  -15.3159   20.0752 O   0  0  0  0  0  0
  -21.6659   -6.8821   21.4193 O   0  0  0  0  0  0
  -22.3440  -14.5500   20.6690 O   0  0  0  0  0  0
  -24.6602  -31.8233   23.1594 C   0  0  0  0  0  0
  -25.9288  -32.4610   23.8084 C   0  0  1  0  0  0
  -27.2558  -26.9144   20.2687 C   0  0  0  0  0  0
  -25.5996  -33.8425   24.2096 N   0  0  0  0  0  0
  -23.4725  -30.4311   21.5031 C   0  0  2  0  0  0
  -24.9403  -28.8059   20.1064 C   0  0  0  0  0  0
  -22.7616  -29.4431   22.4683 C   0  0  0  0  0  0
  -18.0297  -28.1441   22.8485 C   0  0  0  0  0  0
  -24.1406  -36.7102   23.2680 C   0  0  0  0  0  0
  -26.0344  -30.6353   21.3794 C   0  0  0  0  0  0
  -26.1081  -29.2185   20.7418 C   0  0  0  0  0  0
  -27.2511  -28.3010   20.7925 C   0  0  0  0  0  0
  -26.0539  -26.6543   19.5491 C   0  0  0  0  0  0
  -24.9359  -27.5410   19.4755 C   0  0  0  0  0  0
  -23.7178  -29.7297   20.1332 C   0  0  0  0  0  0
  -25.4063  -36.2990   24.0359 C   0  0  1  0  0  0
  -20.5939  -28.3738   23.1202 C   0  0  2  0  0  0
  -20.6760  -26.9424   22.5409 C   0  0  0  0  0  0
  -19.5738  -26.6415   21.5218 C   0  0  0  0  0  0
  -18.1914  -26.7974   22.1601 C   0  0  0  0  0  0
  -19.1607  -28.8885   23.2839 C   0  0  0  0  0  0
  -18.9526  -30.1468   23.8894 C   0  0  0  0  0  0
  -17.6558  -30.6627   24.0559 C   0  0  0  0  0  0
  -25.9089  -34.9377   23.5007 C   0  0  0  0  0  0
  -16.5418  -29.9135   23.6383 C   0  0  0  0  0  0
  -16.7320  -28.6532   23.0429 C   0  0  0  0  0  0
  -26.4553  -31.6544   25.0591 C   0  0  0  0  0  0
  -25.3679  -31.3782   26.1241 C   0  0  0  0  0  0
  -27.0470  -30.2956   24.6225 C   0  0  0  0  0  0
  -27.6116  -32.4283   25.7386 C   0  0  0  0  0  0
  -27.5478  -37.1724   24.8539 C   0  0  0  0  0  0
  -21.4300  -29.3033   22.3485 N   0  0  0  0  0  0
  -26.4190  -37.3753   23.9487 N   0  0  0  0  0  0
  -24.7422  -30.9927   22.0704 N   0  0  0  0  0  0
  -23.4209  -28.8000   23.2915 O   0  0  0  0  0  0
  -28.3150  -25.8740   20.5294 O   0  0  0  0  0  0
  -26.5665  -34.8929   22.4629 O   0  0  0  0  0  0
  -23.5680  -32.1181   23.6744 O   0  0  0  0  0  0
  -29.1944  -19.6672   21.1455 C   0  0  0  0  0  0
  -29.7891  -19.0485   19.2304 C   0  0  0  0  0  0
  -29.2436  -20.9673   20.4440 C   0  0  0  0  0  0
  -29.4827  -16.7570   22.3772 C   0  0  0  0  0  0
  -28.9266  -22.7241   22.4477 C   0  0  0  0  0  0
  -30.8545  -22.8737   20.8073 C   0  0  0  0  0  0
  -28.5898  -24.2606   20.1866 C   0  0  0  0  0  0
  -29.5331  -16.7577   20.8331 C   0  0  1  0  0  0
  -29.2867  -22.6836   20.9133 C   0  0  0  0  0  0
  -29.6452  -20.4232   19.1935 N   0  0  0  0  0  0
  -29.5770  -18.4021   20.4143 N   0  0  0  0  0  0
  -31.4706  -13.0178   19.1976 H   0  0  0  0  0  0
  -30.5356  -11.8954   20.1249 H   0  0  0  0  0  0
  -29.9199  -11.7374   17.7040 H   0  0  0  0  0  0
  -29.5832  -13.4488   17.6416 H   0  0  0  0  0  0
  -28.0294  -11.2798   19.0764 H   0  0  0  0  0  0
  -27.4189  -12.3611   17.8514 H   0  0  0  0  0  0
  -27.5464  -14.2491   19.3483 H   0  0  0  0  0  0
  -28.8152  -12.4649   21.4733 H   0  0  0  0  0  0
  -28.2740  -14.1011   21.7161 H   0  0  0  0  0  0
  -25.2683   -9.5756   22.4732 H   0  0  0  0  0  0
  -23.9923   -7.4708   22.7519 H   0  0  0  0  0  0
  -21.0795   -8.8667   19.8966 H   0  0  0  0  0  0
  -22.3526  -10.9612   19.6153 H   0  0  0  0  0  0
  -21.1925   -7.6101   23.9562 H   0  0  0  0  0  0
  -21.1543   -6.0548   25.8998 H   0  0  0  0  0  0
  -22.0590   -2.7565   23.2816 H   0  0  0  0  0  0
  -22.4105  -11.9755   22.4691 H   0  0  0  0  0  0
  -21.1085  -13.1124   22.2705 H   0  0  0  0  0  0
  -24.6352  -15.8423   20.5662 H   0  0  0  0  0  0
  -26.2459  -15.6508   20.0979 H   0  0  0  0  0  0
  -26.7314  -32.5173   23.0746 H   0  0  0  0  0  0
  -25.0310  -33.9489   25.0346 H   0  0  0  0  0  0
  -22.7902  -31.2658   21.3230 H   0  0  0  0  0  0
  -23.3773  -35.9342   23.3397 H   0  0  0  0  0  0
  -24.3459  -36.8653   22.2080 H   0  0  0  0  0  0
  -23.7018  -37.6267   23.6638 H   0  0  0  0  0  0
  -26.2016  -31.3665   20.5858 H   0  0  0  0  0  0
  -26.8994  -30.7129   22.0213 H   0  0  0  0  0  0
  -28.1246  -28.6282   21.3299 H   0  0  0  0  0  0
  -25.9308  -25.6833   19.0879 H   0  0  0  0  0  0
  -24.0354  -27.2284   18.9633 H   0  0  0  0  0  0
  -23.8727  -30.4897   19.3634 H   0  0  0  0  0  0
  -22.8300  -29.1848   19.8187 H   0  0  0  0  0  0
  -25.1246  -36.1790   25.0849 H   0  0  0  0  0  0
  -21.0082  -28.3298   24.1315 H   0  0  0  0  0  0
  -20.5599  -26.2323   23.3612 H   0  0  0  0  0  0
  -21.6605  -26.7341   22.1249 H   0  0  0  0  0  0
  -19.6892  -25.6344   21.1206 H   0  0  0  0  0  0
  -19.6722  -27.3219   20.6748 H   0  0  0  0  0  0
  -17.4198  -26.6796   21.3966 H   0  0  0  0  0  0
  -18.0230  -26.0115   22.8966 H   0  0  0  0  0  0
  -19.8035  -30.7217   24.2290 H   0  0  0  0  0  0
  -17.5169  -31.6342   24.5105 H   0  0  0  0  0  0
  -15.5449  -30.3093   23.7717 H   0  0  0  0  0  0
  -15.8659  -28.0845   22.7267 H   0  0  0  0  0  0
  -24.6116  -30.6800   25.7597 H   0  0  0  0  0  0
  -24.8558  -32.2951   26.4234 H   0  0  0  0  0  0
  -25.7968  -30.9384   27.0258 H   0  0  0  0  0  0
  -26.3131  -29.6641   24.1196 H   0  0  0  0  0  0
  -27.4093  -29.7285   25.4813 H   0  0  0  0  0  0
  -27.8970  -30.4256   23.9524 H   0  0  0  0  0  0
  -27.2931  -33.3860   26.1476 H   0  0  0  0  0  0
  -28.4197  -32.6301   25.0343 H   0  0  0  0  0  0
  -28.0363  -31.8614   26.5690 H   0  0  0  0  0  0
  -28.2616  -37.9908   24.7607 H   0  0  0  0  0  0
  -28.0864  -36.2485   24.6379 H   0  0  0  0  0  0
  -27.2212  -37.1361   25.8953 H   0  0  0  0  0  0
  -20.9456  -29.8772   21.6697 H   0  0  0  0  0  0
  -26.0048  -38.2792   24.1673 H   0  0  0  0  0  0
  -28.9298  -19.5645   22.1855 H   0  0  0  0  0  0
  -30.0531  -18.5012   18.3341 H   0  0  0  0  0  0
  -28.6311  -17.3270   22.7509 H   0  0  0  0  0  0
  -30.3864  -17.1943   22.7969 H   0  0  0  0  0  0
  -29.3803  -15.7536   22.7899 H   0  0  0  0  0  0
  -27.9498  -22.2892   22.6811 H   0  0  0  0  0  0
  -28.9055  -23.7346   22.8573 H   0  0  0  0  0  0
  -29.6451  -22.1837   23.0771 H   0  0  0  0  0  0
  -31.1591  -22.9832   19.7637 H   0  0  0  0  0  0
  -31.4532  -22.0393   21.1898 H   0  0  0  0  0  0
  -31.2374  -23.7532   21.3298 H   0  0  0  0  0  0
  -29.5951  -24.6595   20.0533 H   0  0  0  0  0  0
  -28.2561  -24.0828   19.1650 H   0  0  0  0  0  0
  -28.5273  -16.4771   20.5199 H   0  0  0  0  0  0
  1 25  1  0  0  0
  1 30  2  0  0  0
  1 78  1  0  0  0
  2  3  1  0  0  0
  2 25  1  0  0  0
  2 82  1  0  0  0
  2 83  1  0  0  0
  3  4  1  0  0  0
  3 84  1  0  0  0
  3 85  1  0  0  0
  4  5  1  0  0  0
  4 86  1  0  0  0
  4 87  1  0  0  0
  5  6  1  0  0  0
  5 26  1  0  0  0
  5 88  1  0  0  0
  6 25  1  0  0  0
  6 89  1  0  0  0
  6 90  1  0  0  0
  7  8  2  0  0  0
  7 26  1  0  0  0
  7 29  1  0  0  0
  8  9  1  0  0  0
  8 22  1  0  0  0
  9 10  1  0  0  0
  9 27  2  0  0  0
 10 11  2  0  0  0
 10 15  1  0  0  0
 11 12  1  0  0  0
 11 91  1  0  0  0
 12 13  2  0  0  0
 12 92  1  0  0  0
 13 14  1  0  0  0
 13 31  1  0  0  0
 14 15  2  0  0  0
 14 93  1  0  0  0
 15 94  1  0  0  0
 16 17  2  0  0  0
 16 21  1  0  0  0
 16 31  1  0  0  0
 17 18  1  0  0  0
 17 95  1  0  0  0
 18 19  2  0  0  0
 18 96  1  0  0  0
 19 20  1  0  0  0
 19 24  1  0  0  0
 20 21  2  0  0  0
 20 97  1  0  0  0
 21 23  1  0  0  0
 22 28  1  0  0  0
 22 32  2  0  0  0
 26 27  1  0  0  0
 28 98  1  0  0  0
 28 99  1  0  0  0
 29100  1  0  0  0
 29101  1  0  0  0
 33 34  1  0  0  0
 33 66  1  0  0  0
 33 70  2  0  0  0
 34 36  1  0  0  0
 34 59  1  0  0  0
 34102  1  0  0  0
 35 44  2  0  0  0
 35 45  1  0  0  0
 35 68  1  0  0  0
 36 56  1  0  0  0
 36103  1  0  0  0
 37 39  1  0  0  0
 37 47  1  0  0  0
 37 66  1  0  0  0
 37104  1  0  0  0
 38 43  2  0  0  0
 38 46  1  0  0  0
 38 47  1  0  0  0
 39 64  1  0  0  0
 39 67  2  0  0  0
 40 52  1  0  0  0
 40 53  2  0  0  0
 40 58  1  0  0  0
 41105  1  0  0  0
 41106  1  0  0  0
 41107  1  0  0  0
 41 48  1  0  0  0
 42 43  1  0  0  0
 42 66  1  0  0  0
 42108  1  0  0  0
 42109  1  0  0  0
 43 44  1  0  0  0
 44110  1  0  0  0
 45 46  2  0  0  0
 45111  1  0  0  0
 46112  1  0  0  0
 47113  1  0  0  0
 47114  1  0  0  0
 48 56  1  0  0  0
 48 65  1  0  0  0
 48115  1  0  0  0
 49 50  1  0  0  0
 49 53  1  0  0  0
 49 64  1  0  0  0
 49116  1  0  0  0
 50 51  1  0  0  0
 50117  1  0  0  0
 50118  1  0  0  0
 51 52  1  0  0  0
 51119  1  0  0  0
 51120  1  0  0  0
 52121  1  0  0  0
 52122  1  0  0  0
 53 54  1  0  0  0
 54 55  2  0  0  0
 54123  1  0  0  0
 55 57  1  0  0  0
 55124  1  0  0  0
 56 69  2  0  0  0
 57 58  2  0  0  0
 57125  1  0  0  0
 58126  1  0  0  0
 59 60  1  0  0  0
 59 61  1  0  0  0
 59 62  1  0  0  0
 60127  1  0  0  0
 60128  1  0  0  0
 60129  1  0  0  0
 61130  1  0  0  0
 61131  1  0  0  0
 61132  1  0  0  0
 62133  1  0  0  0
 62134  1  0  0  0
 62135  1  0  0  0
 63 65  1  0  0  0
 63136  1  0  0  0
 63137  1  0  0  0
 63138  1  0  0  0
 64139  1  0  0  0
 65140  1  0  0  0
 68 77  1  0  0  0
 71 73  2  0  0  0
 71 81  1  0  0  0
 71141  1  0  0  0
 72 80  2  0  0  0
 72 81  1  0  0  0
 72142  1  0  0  0
 73 79  1  0  0  0
 73 80  1  0  0  0
 74143  1  0  0  0
 74144  1  0  0  0
 74145  1  0  0  0
 74 78  1  0  0  0
 75146  1  0  0  0
 75147  1  0  0  0
 75148  1  0  0  0
 75 79  1  0  0  0
 76 79  1  0  0  0
 76149  1  0  0  0
 76150  1  0  0  0
 76151  1  0  0  0
 77 79  1  0  0  0
 77152  1  0  0  0
 77153  1  0  0  0
 78 81  1  0  0  0
 78154  1  0  0  0
M  ISO  4   1 100  68 101  77 101  78 100
M  END
> <chiral flag>
0

> <version>
0

> <s_m_source_file>
/data/baiqing/PycharmProjects/Reinvent-master-3.2/result/LINK_invent/BTK/process_docking_weight1_custom_sum_contain_oxygen_bond_distance_aromatic_linkinvent_7_9_3/rearranged_h_0055.sdf

> <i_m_source_file_index>
51

> <r_mmod_Potential_Energy-OPLS-2005>
1544.93225097656

> <r_mmod_Stretch_Energy-OPLS-2005>
684.998352050781

> <r_mmod_Bend_Energy-OPLS-2005>
588.749938964844

> <r_mmod_Torsional_Energy-OPLS-2005>
219.371002197266

> <r_mmod_Improper_Torsional_Energy-OPLS-2005>
4.92575597763062

> <r_mmod_Van_der_Waal_Energy-OPLS-2005>
107.777168273926

> <r_mmod_Electrostatic_Energy-OPLS-2005>
-322.348968505859

> <r_mmod_Solvation_Energy-OPLS-2005>
-213.054397583008

> <b_mmod_Minimization_Converged-OPLS-2005>
0

> <r_mmod_RMS_Derivative-OPLS-2005>
17.5533294677734

$$$$
51
                    3D
 Structure written by MMmdl.
156164  0  0  1  0            999 V2000
  -30.5237  -14.9829   20.4140 C   0  0  0  0  0  0
  -30.4442  -12.6076   19.5158 C   0  0  0  0  0  0
  -29.5289  -12.5444   18.2690 C   0  0  0  0  0  0
  -28.0624  -12.3248   18.6819 C   0  0  0  0  0  0
  -27.6350  -13.2523   19.8484 C   0  0  2  0  0  0
  -28.6748  -13.2828   20.9910 C   0  0  0  0  0  0
  -25.2487  -13.8222   20.5731 C   0  0  0  0  0  0
  -24.1803  -13.0440   20.9237 C   0  0  0  0  0  0
  -24.6415  -11.6928   20.8754 C   0  0  0  0  0  0
  -23.9090  -10.4299   21.0408 C   0  0  0  0  0  0
  -24.3639   -9.4214   21.9187 C   0  0  0  0  0  0
  -23.6306   -8.2249   22.0756 C   0  0  0  0  0  0
  -22.4286   -8.0290   21.3548 C   0  0  0  0  0  0
  -21.9928   -9.0265   20.4649 C   0  0  0  0  0  0
  -22.7259  -10.2142   20.3059 C   0  0  0  0  0  0
  -21.6855   -6.0747   22.5284 C   0  0  0  0  0  0
  -21.4015   -6.5647   23.8220 C   0  0  0  0  0  0
  -21.3659   -5.6798   24.9177 C   0  0  0  0  0  0
  -21.6043   -4.3061   24.7225 C   0  0  0  0  0  0
  -21.8817   -3.8158   23.4345 C   0  0  0  0  0  0
  -21.9197   -4.6976   22.3404 C   0  0  0  0  0  0
  -22.7820  -13.5214   21.1875 C   0  0  0  0  0  0
  -22.1662   -4.2170   21.0973 F   0  0  0  0  0  0
  -21.5632   -3.4534   25.7730 F   0  0  0  0  0  0
  -29.9530  -13.7060   20.4037 N   0  0  0  0  0  0
  -26.2923  -12.9462   20.3287 N   0  0  0  0  0  0
  -25.9360  -11.6589   20.5757 N   0  0  0  0  0  0
  -22.0460  -12.8209   22.0423 N   0  0  0  0  0  0
  -25.4148  -15.1955   20.4151 N   0  0  0  0  0  0
  -31.7050  -15.0620   20.0582 O   0  0  0  0  0  0
  -21.6649   -6.8890   21.4245 O   0  0  0  0  0  0
  -22.3503  -14.5512   20.6708 O   0  0  0  0  0  0
  -24.6466  -31.8414   23.1857 C   0  0  0  0  0  0
  -25.9225  -32.4680   23.8263 C   0  0  1  0  0  0
  -27.2165  -27.1021   20.1586 C   0  0  0  0  0  0
  -25.5966  -33.8489   24.2175 N   0  0  0  0  0  0
  -23.4518  -30.4594   21.5316 C   0  0  2  0  0  0
  -24.9021  -28.8812   20.1069 C   0  0  0  0  0  0
  -22.7586  -29.4535   22.4848 C   0  0  0  0  0  0
  -18.0313  -28.1400   22.8482 C   0  0  0  0  0  0
  -24.1490  -36.7245   23.2640 C   0  0  0  0  0  0
  -26.0093  -30.7030   21.3919 C   0  0  0  0  0  0
  -26.0784  -29.3113   20.7332 C   0  0  0  0  0  0
  -27.2324  -28.4369   20.7448 C   0  0  0  0  0  0
  -26.0208  -26.7895   19.4741 C   0  0  0  0  0  0
  -24.8895  -27.6364   19.4599 C   0  0  0  0  0  0
  -23.6797  -29.7876   20.1511 C   0  0  0  0  0  0
  -25.4121  -36.3022   24.0315 C   0  0  1  0  0  0
  -20.5933  -28.3731   23.1228 C   0  0  2  0  0  0
  -20.6798  -26.9430   22.5407 C   0  0  0  0  0  0
  -19.5765  -26.6381   21.5222 C   0  0  0  0  0  0
  -18.1947  -26.7938   22.1629 C   0  0  0  0  0  0
  -19.1572  -28.8881   23.2848 C   0  0  0  0  0  0
  -18.9485  -30.1477   23.8871 C   0  0  0  0  0  0
  -17.6479  -30.6593   24.0561 C   0  0  0  0  0  0
  -25.9079  -34.9400   23.5055 C   0  0  0  0  0  0
  -16.5370  -29.9082   23.6341 C   0  0  0  0  0  0
  -16.7298  -28.6505   23.0356 C   0  0  0  0  0  0
  -26.4532  -31.6566   25.0724 C   0  0  0  0  0  0
  -25.3704  -31.3775   26.1414 C   0  0  0  0  0  0
  -27.0409  -30.2953   24.6345 C   0  0  0  0  0  0
  -27.6050  -32.4351   25.7515 C   0  0  0  0  0  0
  -27.5580  -37.1771   24.8457 C   0  0  0  0  0  0
  -21.4277  -29.3049   22.3595 N   0  0  0  0  0  0
  -26.4274  -37.3743   23.9423 N   0  0  0  0  0  0
  -24.7225  -31.0235   22.0910 N   0  0  0  0  0  0
  -23.4216  -28.8094   23.3019 O   0  0  0  0  0  0
  -28.2605  -26.0997   20.2695 O   0  0  0  0  0  0
  -26.5663  -34.8906   22.4635 O   0  0  0  0  0  0
  -23.5582  -32.1311   23.7058 O   0  0  0  0  0  0
  -29.7002  -19.6176   23.1821 C   0  0  0  0  0  0
  -29.4420  -20.7208   22.4222 C   0  0  0  0  0  0
  -29.5730  -18.9181   21.1053 C   0  0  0  0  0  0
  -28.6923  -17.7338   18.9710 C   0  0  0  0  0  0
  -29.8579  -21.5631   18.8956 C   0  0  0  0  0  0
  -28.8196  -23.2094   20.6647 C   0  0  0  0  0  0
  -28.0949  -24.5697   19.9316 C   0  0  0  0  0  0
  -29.7512  -17.6598   20.0785 C   0  0  2  0  0  0
  -28.9220  -21.5781   20.1110 C   0  0  2  0  0  0
  -29.7645  -18.5123   22.3619 N   0  0  0  0  0  0
  -29.3144  -20.3657   21.0740 N   0  0  0  0  0  0
  -29.7307  -16.1530   20.6160 N   0  0  0  0  0  0
  -31.4780  -12.7655   19.2039 H   0  0  0  0  0  0
  -30.4407  -11.6559   20.0486 H   0  0  0  0  0  0
  -29.8528  -11.7447   17.6021 H   0  0  0  0  0  0
  -29.6164  -13.4732   17.7028 H   0  0  0  0  0  0
  -27.9595  -11.2822   18.9850 H   0  0  0  0  0  0
  -27.4015  -12.4606   17.8248 H   0  0  0  0  0  0
  -27.5980  -14.2556   19.4232 H   0  0  0  0  0  0
  -28.7663  -12.3076   21.4707 H   0  0  0  0  0  0
  -28.3651  -13.9811   21.7696 H   0  0  0  0  0  0
  -25.2779   -9.5696   22.4770 H   0  0  0  0  0  0
  -24.0021   -7.4636   22.7471 H   0  0  0  0  0  0
  -21.0863   -8.8780   19.8950 H   0  0  0  0  0  0
  -22.3714  -10.9682   19.6177 H   0  0  0  0  0  0
  -21.2006   -7.6156   23.9728 H   0  0  0  0  0  0
  -21.1479   -6.0527   25.9078 H   0  0  0  0  0  0
  -22.0598   -2.7623   23.2843 H   0  0  0  0  0  0
  -22.4073  -11.9871   22.4822 H   0  0  0  0  0  0
  -21.1072  -13.1232   22.2603 H   0  0  0  0  0  0
  -24.6466  -15.8466   20.5313 H   0  0  0  0  0  0
  -26.2535  -15.6328   20.0563 H   0  0  0  0  0  0
  -26.7294  -32.5272   23.0994 H   0  0  0  0  0  0
  -25.0099  -33.9600   25.0315 H   0  0  0  0  0  0
  -22.7566  -31.2870   21.3758 H   0  0  0  0  0  0
  -23.3772  -35.9556   23.3257 H   0  0  0  0  0  0
  -24.3582  -36.8925   22.2065 H   0  0  0  0  0  0
  -23.7218  -37.6416   23.6707 H   0  0  0  0  0  0
  -26.1732  -31.4566   20.6204 H   0  0  0  0  0  0
  -26.8763  -30.7508   22.0391 H   0  0  0  0  0  0
  -28.1234  -28.7582   21.2664 H   0  0  0  0  0  0
  -25.9224  -25.8460   18.9598 H   0  0  0  0  0  0
  -23.9950  -27.3063   18.9498 H   0  0  0  0  0  0
  -23.8182  -30.5626   19.3960 H   0  0  0  0  0  0
  -22.7936  -29.2320   19.8393 H   0  0  0  0  0  0
  -25.1308  -36.1840   25.0802 H   0  0  0  0  0  0
  -21.0026  -28.3327   24.1346 H   0  0  0  0  0  0
  -20.5702  -26.2347   23.3634 H   0  0  0  0  0  0
  -21.6661  -26.7433   22.1196 H   0  0  0  0  0  0
  -19.6923  -25.6284   21.1267 H   0  0  0  0  0  0
  -19.6698  -27.3182   20.6743 H   0  0  0  0  0  0
  -17.4222  -26.6702   21.4023 H   0  0  0  0  0  0
  -18.0327  -26.0080   22.9019 H   0  0  0  0  0  0
  -19.7956  -30.7308   24.2226 H   0  0  0  0  0  0
  -17.5024  -31.6265   24.5171 H   0  0  0  0  0  0
  -15.5367  -30.2968   23.7671 H   0  0  0  0  0  0
  -15.8704  -28.0806   22.7079 H   0  0  0  0  0  0
  -24.5877  -30.7131   25.7732 H   0  0  0  0  0  0
  -24.8904  -32.2967   26.4781 H   0  0  0  0  0  0
  -25.7972  -30.8981   27.0230 H   0  0  0  0  0  0
  -26.3039  -29.6662   24.1336 H   0  0  0  0  0  0
  -27.3982  -29.7274   25.4946 H   0  0  0  0  0  0
  -27.8966  -30.4178   23.9701 H   0  0  0  0  0  0
  -27.2620  -33.3665   26.2035 H   0  0  0  0  0  0
  -28.3886  -32.6895   25.0364 H   0  0  0  0  0  0
  -28.0690  -31.8521   26.5481 H   0  0  0  0  0  0
  -28.2556  -38.0110   24.7558 H   0  0  0  0  0  0
  -28.1121  -36.2644   24.6210 H   0  0  0  0  0  0
  -27.2312  -37.1324   25.8860 H   0  0  0  0  0  0
  -20.9503  -29.8745   21.6752 H   0  0  0  0  0  0
  -26.0140  -38.2805   24.1455 H   0  0  0  0  0  0
  -29.8498  -19.5409   24.2502 H   0  0  0  0  0  0
  -29.3385  -21.7346   22.7754 H   0  0  0  0  0  0
  -28.7405  -18.6771   18.4314 H   0  0  0  0  0  0
  -27.6878  -17.6429   19.3836 H   0  0  0  0  0  0
  -28.8297  -16.9362   18.2402 H   0  0  0  0  0  0
  -29.5379  -22.2906   18.1504 H   0  0  0  0  0  0
  -29.8840  -20.5901   18.4099 H   0  0  0  0  0  0
  -30.8783  -21.8148   19.1857 H   0  0  0  0  0  0
  -28.3208  -23.1746   21.6317 H   0  0  0  0  0  0
  -29.8422  -23.5072   20.8959 H   0  0  0  0  0  0
  -27.0316  -24.3489   19.9938 H   0  0  0  0  0  0
  -28.3263  -24.5019   18.8690 H   0  0  0  0  0  0
  -30.7273  -17.7957   19.6111 H   0  0  0  0  0  0
  -27.9245  -21.3262   19.7490 H   0  0  0  0  0  0
  -28.8495  -15.9342   21.0543 H   0  0  0  0  0  0
  1 25  1  0  0  0
  1 30  2  0  0  0
  1 82  1  0  0  0
  2  3  1  0  0  0
  2 25  1  0  0  0
  2 83  1  0  0  0
  2 84  1  0  0  0
  3  4  1  0  0  0
  3 85  1  0  0  0
  3 86  1  0  0  0
  4  5  1  0  0  0
  4 87  1  0  0  0
  4 88  1  0  0  0
  5  6  1  0  0  0
  5 26  1  0  0  0
  5 89  1  0  0  0
  6 25  1  0  0  0
  6 90  1  0  0  0
  6 91  1  0  0  0
  7  8  2  0  0  0
  7 26  1  0  0  0
  7 29  1  0  0  0
  8  9  1  0  0  0
  8 22  1  0  0  0
  9 10  1  0  0  0
  9 27  2  0  0  0
 10 11  2  0  0  0
 10 15  1  0  0  0
 11 12  1  0  0  0
 11 92  1  0  0  0
 12 13  2  0  0  0
 12 93  1  0  0  0
 13 14  1  0  0  0
 13 31  1  0  0  0
 14 15  2  0  0  0
 14 94  1  0  0  0
 15 95  1  0  0  0
 16 17  2  0  0  0
 16 21  1  0  0  0
 16 31  1  0  0  0
 17 18  1  0  0  0
 17 96  1  0  0  0
 18 19  2  0  0  0
 18 97  1  0  0  0
 19 20  1  0  0  0
 19 24  1  0  0  0
 20 21  2  0  0  0
 20 98  1  0  0  0
 21 23  1  0  0  0
 22 28  1  0  0  0
 22 32  2  0  0  0
 26 27  1  0  0  0
 28 99  1  0  0  0
 28100  1  0  0  0
 29101  1  0  0  0
 29102  1  0  0  0
 33 34  1  0  0  0
 33 66  1  0  0  0
 33 70  2  0  0  0
 34 36  1  0  0  0
 34 59  1  0  0  0
 34103  1  0  0  0
 35 44  2  0  0  0
 35 45  1  0  0  0
 35 68  1  0  0  0
 36 56  1  0  0  0
 36104  1  0  0  0
 37 39  1  0  0  0
 37 47  1  0  0  0
 37 66  1  0  0  0
 37105  1  0  0  0
 38 43  2  0  0  0
 38 46  1  0  0  0
 38 47  1  0  0  0
 39 64  1  0  0  0
 39 67  2  0  0  0
 40 52  1  0  0  0
 40 53  2  0  0  0
 40 58  1  0  0  0
 41106  1  0  0  0
 41107  1  0  0  0
 41108  1  0  0  0
 41 48  1  0  0  0
 42 43  1  0  0  0
 42 66  1  0  0  0
 42109  1  0  0  0
 42110  1  0  0  0
 43 44  1  0  0  0
 44111  1  0  0  0
 45 46  2  0  0  0
 45112  1  0  0  0
 46113  1  0  0  0
 47114  1  0  0  0
 47115  1  0  0  0
 48 56  1  0  0  0
 48 65  1  0  0  0
 48116  1  0  0  0
 49 50  1  0  0  0
 49 53  1  0  0  0
 49 64  1  0  0  0
 49117  1  0  0  0
 50 51  1  0  0  0
 50118  1  0  0  0
 50119  1  0  0  0
 51 52  1  0  0  0
 51120  1  0  0  0
 51121  1  0  0  0
 52122  1  0  0  0
 52123  1  0  0  0
 53 54  1  0  0  0
 54 55  2  0  0  0
 54124  1  0  0  0
 55 57  1  0  0  0
 55125  1  0  0  0
 56 69  2  0  0  0
 57 58  2  0  0  0
 57126  1  0  0  0
 58127  1  0  0  0
 59 60  1  0  0  0
 59 61  1  0  0  0
 59 62  1  0  0  0
 60128  1  0  0  0
 60129  1  0  0  0
 60130  1  0  0  0
 61131  1  0  0  0
 61132  1  0  0  0
 61133  1  0  0  0
 62134  1  0  0  0
 62135  1  0  0  0
 62136  1  0  0  0
 63 65  1  0  0  0
 63137  1  0  0  0
 63138  1  0  0  0
 63139  1  0  0  0
 64140  1  0  0  0
 65141  1  0  0  0
 68 77  1  0  0  0
 71 72  2  0  0  0
 71 80  1  0  0  0
 71142  1  0  0  0
 72 81  1  0  0  0
 72143  1  0  0  0
 73 78  1  0  0  0
 73 80  2  0  0  0
 73 81  1  0  0  0
 74144  1  0  0  0
 74145  1  0  0  0
 74146  1  0  0  0
 74 78  1  0  0  0
 75147  1  0  0  0
 75148  1  0  0  0
 75149  1  0  0  0
 75 79  1  0  0  0
 76 77  1  0  0  0
 76 79  1  0  0  0
 76150  1  0  0  0
 76151  1  0  0  0
 77152  1  0  0  0
 77153  1  0  0  0
 78 82  1  0  0  0
 78154  1  0  0  0
 79 81  1  0  0  0
 79155  1  0  0  0
 82156  1  0  0  0
M  ISO  4   1 100  68 101  77 101  82 100
M  END
> <chiral flag>
0

> <version>
0

> <s_m_source_file>
/data/baiqing/PycharmProjects/Reinvent-master-3.2/result/LINK_invent/BTK/process_docking_weight1_custom_sum_contain_oxygen_bond_distance_aromatic_linkinvent_7_9_3/rearranged_h_0055.sdf

> <i_m_source_file_index>
52

> <r_mmod_Potential_Energy-OPLS-2005>
579.453308105469

> <r_mmod_Stretch_Energy-OPLS-2005>
325.331726074219

> <r_mmod_Bend_Energy-OPLS-2005>
338.067962646484

> <r_mmod_Torsional_Energy-OPLS-2005>
240.12678527832

> <r_mmod_Improper_Torsional_Energy-OPLS-2005>
5.33114385604858

> <r_mmod_Van_der_Waal_Energy-OPLS-2005>
107.786315917969

> <r_mmod_Electrostatic_Energy-OPLS-2005>
-429.368469238281

> <r_mmod_Solvation_Energy-OPLS-2005>
-228.889801025391

> <b_mmod_Minimization_Converged-OPLS-2005>
0

> <r_mmod_RMS_Derivative-OPLS-2005>
1.40574359893799

$$$$
52
                    3D
 Structure written by MMmdl.
142150  0  0  1  0            999 V2000
  -30.2872  -15.6325   20.3272 C   0  0  0  0  0  0
  -30.4291  -13.0732   19.5486 C   0  0  0  0  0  0
  -29.5546  -12.6586   18.3291 C   0  0  0  0  0  0
  -28.1261  -12.3024   18.7676 C   0  0  0  0  0  0
  -27.5988  -13.3069   19.8166 C   0  0  2  0  0  0
  -28.6136  -13.6285   20.9400 C   0  0  0  0  0  0
  -25.2329  -13.8283   20.5784 C   0  0  0  0  0  0
  -24.1720  -13.0434   20.9291 C   0  0  0  0  0  0
  -24.6418  -11.6945   20.8766 C   0  0  0  0  0  0
  -23.9119  -10.4293   21.0398 C   0  0  0  0  0  0
  -24.3653   -9.4205   21.9180 C   0  0  0  0  0  0
  -23.6313   -8.2247   22.0754 C   0  0  0  0  0  0
  -22.4294   -8.0288   21.3545 C   0  0  0  0  0  0
  -21.9941   -9.0264   20.4644 C   0  0  0  0  0  0
  -22.7285  -10.2135   20.3050 C   0  0  0  0  0  0
  -21.6859   -6.0741   22.5279 C   0  0  0  0  0  0
  -21.4019   -6.5643   23.8212 C   0  0  0  0  0  0
  -21.3661   -5.6794   24.9174 C   0  0  0  0  0  0
  -21.6044   -4.3057   24.7223 C   0  0  0  0  0  0
  -21.8818   -3.8150   23.4344 C   0  0  0  0  0  0
  -21.9194   -4.6968   22.3401 C   0  0  0  0  0  0
  -22.7731  -13.5166   21.1924 C   0  0  0  0  0  0
  -22.1662   -4.2153   21.0978 F   0  0  0  0  0  0
  -21.5627   -3.4540   25.7735 F   0  0  0  0  0  0
  -29.7940  -14.2523   20.2962 N   0  0  0  0  0  0
  -26.2780  -12.9612   20.3229 N   0  0  0  0  0  0
  -25.9365  -11.6685   20.5699 N   0  0  0  0  0  0
  -22.0395  -12.8141   22.0474 N   0  0  0  0  0  0
  -25.3913  -15.2024   20.4199 N   0  0  0  0  0  0
  -31.5174  -15.5962   20.1227 O   0  0  0  0  0  0
  -21.6649   -6.8889   21.4243 O   0  0  0  0  0  0
  -22.3407  -14.5464   20.6758 O   0  0  0  0  0  0
  -24.6851  -31.7978   23.1503 C   0  0  0  0  0  0
  -25.9424  -32.4457   23.8056 C   0  0  1  0  0  0
  -27.2296  -26.6900   20.2133 C   0  0  0  0  0  0
  -25.5995  -33.8284   24.1939 N   0  0  0  0  0  0
  -23.5124  -30.3988   21.5041 C   0  0  2  0  0  0
  -24.9718  -28.7385   20.1157 C   0  0  0  0  0  0
  -22.7775  -29.4302   22.4702 C   0  0  0  0  0  0
  -18.0340  -28.1422   22.8454 C   0  0  0  0  0  0
  -24.1496  -36.7150   23.2652 C   0  0  0  0  0  0
  -26.0936  -30.5260   21.4180 C   0  0  0  0  0  0
  -26.1598  -29.0898   20.7673 C   0  0  0  0  0  0
  -27.2718  -28.0929   20.7860 C   0  0  0  0  0  0
  -26.0111  -26.5544   19.4987 C   0  0  0  0  0  0
  -24.9374  -27.4966   19.4577 C   0  0  0  0  0  0
  -23.7677  -29.6945   20.1397 C   0  0  0  0  0  0
  -25.4146  -36.2890   24.0280 C   0  0  1  0  0  0
  -20.5977  -28.3783   23.1138 C   0  0  2  0  0  0
  -20.6805  -26.9440   22.5404 C   0  0  0  0  0  0
  -19.5781  -26.6369   21.5217 C   0  0  0  0  0  0
  -18.1964  -26.7949   22.1619 C   0  0  0  0  0  0
  -19.1607  -28.8928   23.2776 C   0  0  0  0  0  0
  -18.9512  -30.1510   23.8823 C   0  0  0  0  0  0
  -17.6501  -30.6604   24.0550 C   0  0  0  0  0  0
  -25.9127  -34.9280   23.4949 C   0  0  0  0  0  0
  -16.5391  -29.9085   23.6350 C   0  0  0  0  0  0
  -16.7320  -28.6508   23.0367 C   0  0  0  0  0  0
  -26.4597  -31.6500   25.0686 C   0  0  0  0  0  0
  -25.3658  -31.3821   26.1296 C   0  0  0  0  0  0
  -27.0535  -30.2836   24.6601 C   0  0  0  0  0  0
  -27.6040  -32.4368   25.7507 C   0  0  0  0  0  0
  -27.5565  -37.1730   24.8465 C   0  0  0  0  0  0
  -21.4420  -29.3025   22.3454 N   0  0  0  0  0  0
  -26.4270  -37.3653   23.9408 N   0  0  0  0  0  0
  -24.7872  -30.9409   22.0766 N   0  0  0  0  0  0
  -23.4211  -28.7906   23.3055 O   0  0  0  0  0  0
  -28.1756  -25.4546   20.3156 O   0  0  0  0  0  0
  -26.5772  -34.8861   22.4569 O   0  0  0  0  0  0
  -23.5867  -32.1059   23.6447 O   0  0  0  0  0  0
  -29.7933  -21.2172   19.7624 C   0  0  0  0  0  0
  -28.1800  -19.4796   20.8621 C   0  0  0  0  0  0
  -28.6271  -22.0045   20.2895 C   0  0  0  0  0  0
  -29.3406  -18.6795   20.3618 C   0  0  0  0  0  0
  -27.9313  -23.7351   20.0128 C   0  0  0  0  0  0
  -27.8685  -20.9156   20.8252 N   0  0  0  0  0  0
  -30.1110  -19.7665   19.8139 N   0  0  0  0  0  0
  -29.4655  -16.9531   20.4425 N   0  0  0  0  0  0
  -31.4239  -13.3354   19.1867 H   0  0  0  0  0  0
  -30.5875  -12.2245   20.2163 H   0  0  0  0  0  0
  -30.0077  -11.8192   17.8000 H   0  0  0  0  0  0
  -29.5187  -13.4859   17.6187 H   0  0  0  0  0  0
  -28.1496  -11.3023   19.2021 H   0  0  0  0  0  0
  -27.4584  -12.2503   17.9066 H   0  0  0  0  0  0
  -27.4657  -14.2316   19.2534 H   0  0  0  0  0  0
  -28.8683  -12.7411   21.5216 H   0  0  0  0  0  0
  -28.1795  -14.3402   21.6438 H   0  0  0  0  0  0
  -25.2793   -9.5678   22.4765 H   0  0  0  0  0  0
  -24.0014   -7.4639   22.7479 H   0  0  0  0  0  0
  -21.0871   -8.8793   19.8950 H   0  0  0  0  0  0
  -22.3744  -10.9677   19.6162 H   0  0  0  0  0  0
  -21.2014   -7.6151   23.9717 H   0  0  0  0  0  0
  -21.1483   -6.0524   25.9077 H   0  0  0  0  0  0
  -22.0595   -2.7612   23.2843 H   0  0  0  0  0  0
  -22.4037  -11.9817   22.4869 H   0  0  0  0  0  0
  -21.1000  -13.1135   22.2671 H   0  0  0  0  0  0
  -24.6099  -15.8421   20.5153 H   0  0  0  0  0  0
  -26.2108  -15.6371   20.0186 H   0  0  0  0  0  0
  -26.7508  -32.4926   23.0769 H   0  0  0  0  0  0
  -25.0048  -33.9320   25.0029 H   0  0  0  0  0  0
  -22.8386  -31.2366   21.3129 H   0  0  0  0  0  0
  -23.3777  -35.9460   23.3261 H   0  0  0  0  0  0
  -24.3563  -36.8866   22.2077 H   0  0  0  0  0  0
  -23.7237  -37.6307   23.6765 H   0  0  0  0  0  0
  -26.2990  -31.2506   20.6290 H   0  0  0  0  0  0
  -26.9434  -30.5937   22.0847 H   0  0  0  0  0  0
  -28.1613  -28.3655   21.3361 H   0  0  0  0  0  0
  -25.8413  -25.6147   18.9929 H   0  0  0  0  0  0
  -24.0418  -27.2190   18.9190 H   0  0  0  0  0  0
  -23.9429  -30.4543   19.3772 H   0  0  0  0  0  0
  -22.8726  -29.1609   19.8155 H   0  0  0  0  0  0
  -25.1356  -36.1649   25.0770 H   0  0  0  0  0  0
  -21.0059  -28.3411   24.1264 H   0  0  0  0  0  0
  -20.5666  -26.2408   23.3669 H   0  0  0  0  0  0
  -21.6666  -26.7378   22.1224 H   0  0  0  0  0  0
  -19.6937  -25.6260   21.1296 H   0  0  0  0  0  0
  -19.6726  -27.3138   20.6714 H   0  0  0  0  0  0
  -17.4234  -26.6691   21.4023 H   0  0  0  0  0  0
  -18.0352  -26.0110   22.9033 H   0  0  0  0  0  0
  -19.7987  -30.7346   24.2159 H   0  0  0  0  0  0
  -17.5051  -31.6276   24.5167 H   0  0  0  0  0  0
  -15.5388  -30.2963   23.7717 H   0  0  0  0  0  0
  -15.8721  -28.0801   22.7125 H   0  0  0  0  0  0
  -24.5875  -30.7136   25.7597 H   0  0  0  0  0  0
  -24.8810  -32.3043   26.4511 H   0  0  0  0  0  0
  -25.7831  -30.9126   27.0213 H   0  0  0  0  0  0
  -26.3257  -29.6442   24.1596 H   0  0  0  0  0  0
  -27.3957  -29.7294   25.5351 H   0  0  0  0  0  0
  -27.9240  -30.3958   24.0136 H   0  0  0  0  0  0
  -27.2573  -33.3740   26.1875 H   0  0  0  0  0  0
  -28.3957  -32.6819   25.0415 H   0  0  0  0  0  0
  -28.0591  -31.8640   26.5597 H   0  0  0  0  0  0
  -28.2543  -38.0061   24.7521 H   0  0  0  0  0  0
  -28.1099  -36.2584   24.6282 H   0  0  0  0  0  0
  -27.2280  -37.1352   25.8866 H   0  0  0  0  0  0
  -20.9729  -29.8678   21.6514 H   0  0  0  0  0  0
  -26.0096  -38.2699   24.1426 H   0  0  0  0  0  0
  -30.5284  -21.7785   19.2042 H   0  0  0  0  0  0
  -27.3909  -18.9117   21.3330 H   0  0  0  0  0  0
  -26.9170  -23.6055   20.3899 H   0  0  0  0  0  0
  -27.7999  -23.7314   18.9309 H   0  0  0  0  0  0
  -28.5439  -16.6176   20.6785 H   0  0  0  0  0  0
  1 25  1  0  0  0
  1 30  2  0  0  0
  1 78  1  0  0  0
  2  3  1  0  0  0
  2 25  1  0  0  0
  2 79  1  0  0  0
  2 80  1  0  0  0
  3  4  1  0  0  0
  3 81  1  0  0  0
  3 82  1  0  0  0
  4  5  1  0  0  0
  4 83  1  0  0  0
  4 84  1  0  0  0
  5  6  1  0  0  0
  5 26  1  0  0  0
  5 85  1  0  0  0
  6 25  1  0  0  0
  6 86  1  0  0  0
  6 87  1  0  0  0
  7  8  2  0  0  0
  7 26  1  0  0  0
  7 29  1  0  0  0
  8  9  1  0  0  0
  8 22  1  0  0  0
  9 10  1  0  0  0
  9 27  2  0  0  0
 10 11  2  0  0  0
 10 15  1  0  0  0
 11 12  1  0  0  0
 11 88  1  0  0  0
 12 13  2  0  0  0
 12 89  1  0  0  0
 13 14  1  0  0  0
 13 31  1  0  0  0
 14 15  2  0  0  0
 14 90  1  0  0  0
 15 91  1  0  0  0
 16 17  2  0  0  0
 16 21  1  0  0  0
 16 31  1  0  0  0
 17 18  1  0  0  0
 17 92  1  0  0  0
 18 19  2  0  0  0
 18 93  1  0  0  0
 19 20  1  0  0  0
 19 24  1  0  0  0
 20 21  2  0  0  0
 20 94  1  0  0  0
 21 23  1  0  0  0
 22 28  1  0  0  0
 22 32  2  0  0  0
 26 27  1  0  0  0
 28 95  1  0  0  0
 28 96  1  0  0  0
 29 97  1  0  0  0
 29 98  1  0  0  0
 33 34  1  0  0  0
 33 66  1  0  0  0
 33 70  2  0  0  0
 34 36  1  0  0  0
 34 59  1  0  0  0
 34 99  1  0  0  0
 35 44  2  0  0  0
 35 45  1  0  0  0
 35 68  1  0  0  0
 36 56  1  0  0  0
 36100  1  0  0  0
 37 39  1  0  0  0
 37 47  1  0  0  0
 37 66  1  0  0  0
 37101  1  0  0  0
 38 43  2  0  0  0
 38 46  1  0  0  0
 38 47  1  0  0  0
 39 64  1  0  0  0
 39 67  2  0  0  0
 40 52  1  0  0  0
 40 53  2  0  0  0
 40 58  1  0  0  0
 41102  1  0  0  0
 41103  1  0  0  0
 41104  1  0  0  0
 41 48  1  0  0  0
 42 43  1  0  0  0
 42 66  1  0  0  0
 42105  1  0  0  0
 42106  1  0  0  0
 43 44  1  0  0  0
 44107  1  0  0  0
 45 46  2  0  0  0
 45108  1  0  0  0
 46109  1  0  0  0
 47110  1  0  0  0
 47111  1  0  0  0
 48 56  1  0  0  0
 48 65  1  0  0  0
 48112  1  0  0  0
 49 50  1  0  0  0
 49 53  1  0  0  0
 49 64  1  0  0  0
 49113  1  0  0  0
 50 51  1  0  0  0
 50114  1  0  0  0
 50115  1  0  0  0
 51 52  1  0  0  0
 51116  1  0  0  0
 51117  1  0  0  0
 52118  1  0  0  0
 52119  1  0  0  0
 53 54  1  0  0  0
 54 55  2  0  0  0
 54120  1  0  0  0
 55 57  1  0  0  0
 55121  1  0  0  0
 56 69  2  0  0  0
 57 58  2  0  0  0
 57122  1  0  0  0
 58123  1  0  0  0
 59 60  1  0  0  0
 59 61  1  0  0  0
 59 62  1  0  0  0
 60124  1  0  0  0
 60125  1  0  0  0
 60126  1  0  0  0
 61127  1  0  0  0
 61128  1  0  0  0
 61129  1  0  0  0
 62130  1  0  0  0
 62131  1  0  0  0
 62132  1  0  0  0
 63 65  1  0  0  0
 63133  1  0  0  0
 63134  1  0  0  0
 63135  1  0  0  0
 64136  1  0  0  0
 65137  1  0  0  0
 68 75  1  0  0  0
 71 73  2  0  0  0
 71 77  1  0  0  0
 71138  1  0  0  0
 72 74  1  0  0  0
 72 76  2  0  0  0
 72139  1  0  0  0
 73 75  1  0  0  0
 73 76  1  0  0  0
 74 77  2  0  0  0
 74 78  1  0  0  0
 75140  1  0  0  0
 75141  1  0  0  0
 78142  1  0  0  0
M  ISO  4   1 100  68 101  75 101  78 100
M  END
> <chiral flag>
0

> <version>
0

> <s_m_source_file>
/data/baiqing/PycharmProjects/Reinvent-master-3.2/result/LINK_invent/BTK/process_docking_weight1_custom_sum_contain_oxygen_bond_distance_aromatic_linkinvent_7_9_3/rearranged_h_0055.sdf

> <i_m_source_file_index>
53

> <r_mmod_Potential_Energy-OPLS-2005>
2409.27001953125

> <r_mmod_Stretch_Energy-OPLS-2005>
983.280944824219

> <r_mmod_Bend_Energy-OPLS-2005>
688.848022460938

> <r_mmod_Torsional_Energy-OPLS-2005>
216.758361816406

> <r_mmod_Improper_Torsional_Energy-OPLS-2005>
5.29224109649658

> <r_mmod_Van_der_Waal_Energy-OPLS-2005>
135.029052734375

> <r_mmod_Electrostatic_Energy-OPLS-2005>
-291.82080078125

> <r_mmod_Solvation_Energy-OPLS-2005>
-244.097106933594

> <b_mmod_Minimization_Converged-OPLS-2005>
1

> <r_mmod_RMS_Derivative-OPLS-2005>
0.0412764474749565

$$$$
53
                    3D
 Structure written by MMmdl.
161169  0  0  1  0            999 V2000
  -30.3878  -15.3132   20.4147 C   0  0  0  0  0  0
  -30.4527  -12.8428   19.5375 C   0  0  0  0  0  0
  -29.5489  -12.6002   18.3002 C   0  0  0  0  0  0
  -28.0976  -12.3130   18.7166 C   0  0  0  0  0  0
  -27.6160  -13.2771   19.8290 C   0  0  2  0  0  0
  -28.6454  -13.4362   20.9702 C   0  0  0  0  0  0
  -25.2289  -13.8095   20.5586 C   0  0  0  0  0  0
  -24.1712  -13.0329   20.9277 C   0  0  0  0  0  0
  -24.6425  -11.6858   20.8797 C   0  0  0  0  0  0
  -23.9127  -10.4238   21.0423 C   0  0  0  0  0  0
  -24.3655   -9.4149   21.9192 C   0  0  0  0  0  0
  -23.6309   -8.2198   22.0739 C   0  0  0  0  0  0
  -22.4282   -8.0275   21.3532 C   0  0  0  0  0  0
  -21.9946   -9.0267   20.4638 C   0  0  0  0  0  0
  -22.7312  -10.2120   20.3054 C   0  0  0  0  0  0
  -21.6839   -6.0738   22.5294 C   0  0  0  0  0  0
  -21.4030   -6.5638   23.8233 C   0  0  0  0  0  0
  -21.3662   -5.6780   24.9181 C   0  0  0  0  0  0
  -21.6039   -4.3040   24.7231 C   0  0  0  0  0  0
  -21.8831   -3.8144   23.4350 C   0  0  0  0  0  0
  -21.9191   -4.6968   22.3409 C   0  0  0  0  0  0
  -22.7735  -13.5114   21.1924 C   0  0  0  0  0  0
  -22.1643   -4.2163   21.0977 F   0  0  0  0  0  0
  -21.5615   -3.4522   25.7730 F   0  0  0  0  0  0
  -29.8840  -13.9716   20.3702 N   0  0  0  0  0  0
  -26.2827  -12.9468   20.3192 N   0  0  0  0  0  0
  -25.9378  -11.6580   20.5757 N   0  0  0  0  0  0
  -22.0349  -12.8151   22.0481 N   0  0  0  0  0  0
  -25.3663  -15.1745   20.3671 N   0  0  0  0  0  0
  -31.5772  -15.3514   20.0603 O   0  0  0  0  0  0
  -21.6612   -6.8895   21.4255 O   0  0  0  0  0  0
  -22.3450  -14.5437   20.6762 O   0  0  0  0  0  0
  -24.6656  -31.8213   23.1673 C   0  0  0  0  0  0
  -25.9329  -32.4576   23.8136 C   0  0  1  0  0  0
  -27.2273  -26.9066   20.1983 C   0  0  0  0  0  0
  -25.5989  -33.8391   24.2049 N   0  0  0  0  0  0
  -23.4806  -30.4290   21.5187 C   0  0  2  0  0  0
  -24.9344  -28.8076   20.1188 C   0  0  0  0  0  0
  -22.7681  -29.4425   22.4804 C   0  0  0  0  0  0
  -18.0315  -28.1412   22.8469 C   0  0  0  0  0  0
  -24.1491  -36.7216   23.2643 C   0  0  0  0  0  0
  -26.0498  -30.6214   21.3990 C   0  0  0  0  0  0
  -26.1199  -29.2066   20.7484 C   0  0  0  0  0  0
  -27.2600  -28.2813   20.7562 C   0  0  0  0  0  0
  -26.0088  -26.6585   19.5235 C   0  0  0  0  0  0
  -24.9052  -27.5526   19.4856 C   0  0  0  0  0  0
  -23.7215  -29.7395   20.1461 C   0  0  0  0  0  0
  -25.4137  -36.2968   24.0288 C   0  0  1  0  0  0
  -20.5947  -28.3761   23.1191 C   0  0  2  0  0  0
  -20.6809  -26.9437   22.5409 C   0  0  0  0  0  0
  -19.5781  -26.6369   21.5219 C   0  0  0  0  0  0
  -18.1956  -26.7939   22.1616 C   0  0  0  0  0  0
  -19.1577  -28.8907   23.2810 C   0  0  0  0  0  0
  -18.9492  -30.1497   23.8831 C   0  0  0  0  0  0
  -17.6489  -30.6597   24.0550 C   0  0  0  0  0  0
  -25.9108  -34.9344   23.4989 C   0  0  0  0  0  0
  -16.5383  -29.9083   23.6340 C   0  0  0  0  0  0
  -16.7297  -28.6509   23.0354 C   0  0  0  0  0  0
  -26.4541  -31.6539   25.0688 C   0  0  0  0  0  0
  -25.3677  -31.3808   26.1361 C   0  0  0  0  0  0
  -27.0442  -30.2906   24.6451 C   0  0  0  0  0  0
  -27.6024  -32.4358   25.7513 C   0  0  0  0  0  0
  -27.5570  -37.1765   24.8460 C   0  0  0  0  0  0
  -21.4357  -29.3037   22.3543 N   0  0  0  0  0  0
  -26.4275  -37.3713   23.9408 N   0  0  0  0  0  0
  -24.7533  -30.9845   22.0819 N   0  0  0  0  0  0
  -23.4226  -28.7996   23.3046 O   0  0  0  0  0  0
  -28.2528  -25.8139   20.2473 O   0  0  0  0  0  0
  -26.5722  -34.8892   22.4585 O   0  0  0  0  0  0
  -23.5726  -32.1193   23.6758 O   0  0  0  0  0  0
  -29.8987  -19.7788   20.3826 C   0  0  0  0  0  0
  -29.0355  -20.9874   20.3426 C   0  0  0  0  0  0
  -27.9368  -18.9397   20.6219 C   0  0  0  0  0  0
  -26.1424  -18.4518   22.3562 C   0  0  0  0  0  0
  -29.8410  -16.8194   22.4921 C   0  0  0  0  0  0
  -29.8221  -22.9374   18.8142 C   0  0  0  0  0  0
  -30.2487  -23.0904   21.2589 C   0  0  0  0  0  0
  -26.6669  -18.2016   20.9324 C   0  0  0  0  0  0
  -28.0498  -24.1595   20.2961 C   0  0  0  0  0  0
  -29.5779  -16.7916   20.9765 C   0  0  1  0  0  0
  -29.1893  -22.7453   20.2012 C   0  0  0  0  0  0
  -29.2289  -18.4638   20.5563 N   0  0  0  0  0  0
  -27.8490  -20.3035   20.4665 N   0  3  0  0  0  0
  -31.4660  -13.0601   19.1987 H   0  0  0  0  0  0
  -30.5446  -11.9348   20.1350 H   0  0  0  0  0  0
  -29.9410  -11.7718   17.7070 H   0  0  0  0  0  0
  -29.5760  -13.4780   17.6524 H   0  0  0  0  0  0
  -28.0581  -11.2868   19.0807 H   0  0  0  0  0  0
  -27.4356  -12.3583   17.8508 H   0  0  0  0  0  0
  -27.5378  -14.2512   19.3456 H   0  0  0  0  0  0
  -28.8183  -12.4876   21.4839 H   0  0  0  0  0  0
  -28.2643  -14.1254   21.7252 H   0  0  0  0  0  0
  -25.2791   -9.5588   22.4789 H   0  0  0  0  0  0
  -23.9990   -7.4575   22.7468 H   0  0  0  0  0  0
  -21.0868   -8.8855   19.8950 H   0  0  0  0  0  0
  -22.3814  -10.9684   19.6175 H   0  0  0  0  0  0
  -21.2031   -7.6148   23.9755 H   0  0  0  0  0  0
  -21.1450   -6.0479   25.9084 H   0  0  0  0  0  0
  -22.0597   -2.7621   23.2831 H   0  0  0  0  0  0
  -22.3920  -11.9868   22.4984 H   0  0  0  0  0  0
  -21.0974  -13.1191   22.2622 H   0  0  0  0  0  0
  -24.5480  -15.7755   20.3999 H   0  0  0  0  0  0
  -26.1251  -15.5702   19.8310 H   0  0  0  0  0  0
  -26.7410  -32.5114   23.0858 H   0  0  0  0  0  0
  -25.0089  -33.9461   25.0171 H   0  0  0  0  0  0
  -22.7949  -31.2609   21.3471 H   0  0  0  0  0  0
  -23.3770  -35.9527   23.3261 H   0  0  0  0  0  0
  -24.3557  -36.8916   22.2065 H   0  0  0  0  0  0
  -23.7235  -37.6381   23.6739 H   0  0  0  0  0  0
  -26.2286  -31.3553   20.6127 H   0  0  0  0  0  0
  -26.9115  -30.6835   22.0520 H   0  0  0  0  0  0
  -28.1613  -28.5901   21.2704 H   0  0  0  0  0  0
  -25.8803  -25.7022   19.0386 H   0  0  0  0  0  0
  -24.0049  -27.2377   18.9728 H   0  0  0  0  0  0
  -23.8814  -30.5073   19.3873 H   0  0  0  0  0  0
  -22.8297  -29.1957   19.8278 H   0  0  0  0  0  0
  -25.1329  -36.1748   25.0776 H   0  0  0  0  0  0
  -21.0011  -28.3365   24.1325 H   0  0  0  0  0  0
  -20.5703  -26.2370   23.3653 H   0  0  0  0  0  0
  -21.6676  -26.7428   22.1207 H   0  0  0  0  0  0
  -19.6938  -25.6258   21.1292 H   0  0  0  0  0  0
  -19.6715  -27.3151   20.6725 H   0  0  0  0  0  0
  -17.4232  -26.6679   21.4012 H   0  0  0  0  0  0
  -18.0341  -26.0096   22.9028 H   0  0  0  0  0  0
  -19.7970  -30.7327   24.2180 H   0  0  0  0  0  0
  -17.5039  -31.6270   24.5170 H   0  0  0  0  0  0
  -15.5379  -30.2964   23.7704 H   0  0  0  0  0  0
  -15.8702  -28.0805   22.7104 H   0  0  0  0  0  0
  -24.5845  -30.7163   25.7673 H   0  0  0  0  0  0
  -24.8886  -32.3028   26.4677 H   0  0  0  0  0  0
  -25.7906  -30.9036   27.0220 H   0  0  0  0  0  0
  -26.3104  -29.6591   24.1441 H   0  0  0  0  0  0
  -27.3940  -29.7256   25.5101 H   0  0  0  0  0  0
  -27.9050  -30.4061   23.9870 H   0  0  0  0  0  0
  -27.2558  -33.3692   26.1963 H   0  0  0  0  0  0
  -28.3909  -32.6883   25.0412 H   0  0  0  0  0  0
  -28.0624  -31.8596   26.5558 H   0  0  0  0  0  0
  -28.2561  -38.0088   24.7524 H   0  0  0  0  0  0
  -28.1088  -36.2615   24.6255 H   0  0  0  0  0  0
  -27.2288  -37.1374   25.8862 H   0  0  0  0  0  0
  -20.9641  -29.8706   21.6646 H   0  0  0  0  0  0
  -26.0118  -38.2760   24.1440 H   0  0  0  0  0  0
  -30.9782  -19.7848   20.3447 H   0  0  0  0  0  0
  -26.8679  -18.1533   23.1133 H   0  0  0  0  0  0
  -25.2349  -17.8736   22.5325 H   0  0  0  0  0  0
  -25.8988  -19.5025   22.5158 H   0  0  0  0  0  0
  -28.9797  -17.2156   23.0270 H   0  0  0  0  0  0
  -30.7045  -17.4418   22.7292 H   0  0  0  0  0  0
  -30.0273  -15.8254   22.9036 H   0  0  0  0  0  0
  -30.7345  -22.3533   18.6980 H   0  0  0  0  0  0
  -30.0757  -23.9825   18.6319 H   0  0  0  0  0  0
  -29.1283  -22.6295   18.0312 H   0  0  0  0  0  0
  -31.1518  -22.4940   21.1349 H   0  0  0  0  0  0
  -29.8629  -22.9065   22.2618 H   0  0  0  0  0  0
  -30.5419  -24.1396   21.1966 H   0  0  0  0  0  0
  -26.8094  -17.1507   20.7582 H   0  0  0  0  0  0
  -25.9285  -18.5236   20.1973 H   0  0  0  0  0  0
  -27.5245  -24.0116   21.2385 H   0  0  0  0  0  0
  -27.2949  -23.9553   19.5383 H   0  0  0  0  0  0
  -28.6050  -16.3350   20.8782 H   0  0  0  0  0  0
  -26.9558  -20.7806   20.5007 H   0  0  0  0  0  0
  1 25  1  0  0  0
  1 30  2  0  0  0
  1 80  1  0  0  0
  2  3  1  0  0  0
  2 25  1  0  0  0
  2 84  1  0  0  0
  2 85  1  0  0  0
  3  4  1  0  0  0
  3 86  1  0  0  0
  3 87  1  0  0  0
  4  5  1  0  0  0
  4 88  1  0  0  0
  4 89  1  0  0  0
  5  6  1  0  0  0
  5 26  1  0  0  0
  5 90  1  0  0  0
  6 25  1  0  0  0
  6 91  1  0  0  0
  6 92  1  0  0  0
  7  8  2  0  0  0
  7 26  1  0  0  0
  7 29  1  0  0  0
  8  9  1  0  0  0
  8 22  1  0  0  0
  9 10  1  0  0  0
  9 27  2  0  0  0
 10 11  2  0  0  0
 10 15  1  0  0  0
 11 12  1  0  0  0
 11 93  1  0  0  0
 12 13  2  0  0  0
 12 94  1  0  0  0
 13 14  1  0  0  0
 13 31  1  0  0  0
 14 15  2  0  0  0
 14 95  1  0  0  0
 15 96  1  0  0  0
 16 17  2  0  0  0
 16 21  1  0  0  0
 16 31  1  0  0  0
 17 18  1  0  0  0
 17 97  1  0  0  0
 18 19  2  0  0  0
 18 98  1  0  0  0
 19 20  1  0  0  0
 19 24  1  0  0  0
 20 21  2  0  0  0
 20 99  1  0  0  0
 21 23  1  0  0  0
 22 28  1  0  0  0
 22 32  2  0  0  0
 26 27  1  0  0  0
 28100  1  0  0  0
 28101  1  0  0  0
 29102  1  0  0  0
 29103  1  0  0  0
 33 34  1  0  0  0
 33 66  1  0  0  0
 33 70  2  0  0  0
 34 36  1  0  0  0
 34 59  1  0  0  0
 34104  1  0  0  0
 35 44  2  0  0  0
 35 45  1  0  0  0
 35 68  1  0  0  0
 36 56  1  0  0  0
 36105  1  0  0  0
 37 39  1  0  0  0
 37 47  1  0  0  0
 37 66  1  0  0  0
 37106  1  0  0  0
 38 43  2  0  0  0
 38 46  1  0  0  0
 38 47  1  0  0  0
 39 64  1  0  0  0
 39 67  2  0  0  0
 40 52  1  0  0  0
 40 53  2  0  0  0
 40 58  1  0  0  0
 41107  1  0  0  0
 41108  1  0  0  0
 41109  1  0  0  0
 41 48  1  0  0  0
 42 43  1  0  0  0
 42 66  1  0  0  0
 42110  1  0  0  0
 42111  1  0  0  0
 43 44  1  0  0  0
 44112  1  0  0  0
 45 46  2  0  0  0
 45113  1  0  0  0
 46114  1  0  0  0
 47115  1  0  0  0
 47116  1  0  0  0
 48 56  1  0  0  0
 48 65  1  0  0  0
 48117  1  0  0  0
 49 50  1  0  0  0
 49 53  1  0  0  0
 49 64  1  0  0  0
 49118  1  0  0  0
 50 51  1  0  0  0
 50119  1  0  0  0
 50120  1  0  0  0
 51 52  1  0  0  0
 51121  1  0  0  0
 51122  1  0  0  0
 52123  1  0  0  0
 52124  1  0  0  0
 53 54  1  0  0  0
 54 55  2  0  0  0
 54125  1  0  0  0
 55 57  1  0  0  0
 55126  1  0  0  0
 56 69  2  0  0  0
 57 58  2  0  0  0
 57127  1  0  0  0
 58128  1  0  0  0
 59 60  1  0  0  0
 59 61  1  0  0  0
 59 62  1  0  0  0
 60129  1  0  0  0
 60130  1  0  0  0
 60131  1  0  0  0
 61132  1  0  0  0
 61133  1  0  0  0
 61134  1  0  0  0
 62135  1  0  0  0
 62136  1  0  0  0
 62137  1  0  0  0
 63 65  1  0  0  0
 63138  1  0  0  0
 63139  1  0  0  0
 63140  1  0  0  0
 64141  1  0  0  0
 65142  1  0  0  0
 68 79  1  0  0  0
 71 72  2  0  0  0
 71 82  1  0  0  0
 71143  1  0  0  0
 72 81  1  0  0  0
 72 83  1  0  0  0
 73 78  1  0  0  0
 73 82  1  0  0  0
 73 83  2  0  0  0
 74 78  1  0  0  0
 74144  1  0  0  0
 74145  1  0  0  0
 74146  1  0  0  0
 75147  1  0  0  0
 75148  1  0  0  0
 75149  1  0  0  0
 75 80  1  0  0  0
 76150  1  0  0  0
 76151  1  0  0  0
 76152  1  0  0  0
 76 81  1  0  0  0
 77 81  1  0  0  0
 77153  1  0  0  0
 77154  1  0  0  0
 77155  1  0  0  0
 78156  1  0  0  0
 78157  1  0  0  0
 79 81  1  0  0  0
 79158  1  0  0  0
 79159  1  0  0  0
 80 82  1  0  0  0
 80160  1  0  0  0
 83161  1  0  0  0
M  CHG  1  83   1
M  ISO  4   1 100  68 101  79 101  80 100
M  END
> <chiral flag>
0

> <version>
0

> <s_m_source_file>
/data/baiqing/PycharmProjects/Reinvent-master-3.2/result/LINK_invent/BTK/process_docking_weight1_custom_sum_contain_oxygen_bond_distance_aromatic_linkinvent_7_9_3/rearranged_h_0055.sdf

> <i_m_source_file_index>
54

> <r_mmod_Potential_Energy-OPLS-2005>
1455.66357421875

> <r_mmod_Stretch_Energy-OPLS-2005>
666.741821289062

> <r_mmod_Bend_Energy-OPLS-2005>
520.838684082031

> <r_mmod_Torsional_Energy-OPLS-2005>
238.978958129883

> <r_mmod_Improper_Torsional_Energy-OPLS-2005>
7.119460105896

> <r_mmod_Van_der_Waal_Energy-OPLS-2005>
105.984931945801

> <r_mmod_Electrostatic_Energy-OPLS-2005>
-183.915649414062

> <r_mmod_Solvation_Energy-OPLS-2005>
-394.428741455078

> <b_mmod_Minimization_Converged-OPLS-2005>
0

> <r_mmod_RMS_Derivative-OPLS-2005>
3.36965274810791

$$$$
54
                    3D
 Structure written by MMmdl.
171179  0  0  1  0            999 V2000
  -30.7664  -14.5537   20.5345 C   0  0  0  0  0  0
  -30.4245  -12.3685   19.4220 C   0  0  0  0  0  0
  -29.4934  -12.5480   18.2090 C   0  0  0  0  0  0
  -28.0222  -12.3576   18.6290 C   0  0  0  0  0  0
  -27.6547  -13.2011   19.8789 C   0  0  2  0  0  0
  -28.7238  -13.0452   20.9916 C   0  0  0  0  0  0
  -25.2402  -13.8011   20.5397 C   0  0  0  0  0  0
  -24.1776  -13.0293   20.9152 C   0  0  0  0  0  0
  -24.6374  -11.6813   20.8739 C   0  0  0  0  0  0
  -23.9028  -10.4235   21.0352 C   0  0  0  0  0  0
  -24.3591   -9.4119   21.9088 C   0  0  0  0  0  0
  -23.6250   -8.2162   22.0650 C   0  0  0  0  0  0
  -22.4217   -8.0264   21.3482 C   0  0  0  0  0  0
  -21.9889   -9.0222   20.4540 C   0  0  0  0  0  0
  -22.7217  -10.2081   20.2959 C   0  0  0  0  0  0
  -21.6846   -6.0750   22.5236 C   0  0  0  0  0  0
  -21.4103   -6.5637   23.8190 C   0  0  0  0  0  0
  -21.3648   -5.6745   24.9114 C   0  0  0  0  0  0
  -21.6046   -4.3023   24.7134 C   0  0  0  0  0  0
  -21.8862   -3.8158   23.4260 C   0  0  0  0  0  0
  -21.9174   -4.6983   22.3321 C   0  0  0  0  0  0
  -22.7842  -13.5105   21.1921 C   0  0  0  0  0  0
  -22.1637   -4.2210   21.0884 F   0  0  0  0  0  0
  -21.5573   -3.4492   25.7628 F   0  0  0  0  0  0
  -30.0396  -13.3885   20.4218 N   0  0  0  0  0  0
  -26.2995  -12.9229   20.3425 N   0  0  0  0  0  0
  -25.9332  -11.6417   20.5880 N   0  0  0  0  0  0
  -22.0567  -12.8032   22.0522 N   0  0  0  0  0  0
  -25.3758  -15.1621   20.3164 N   0  0  0  0  0  0
  -31.8926  -14.6251   20.0346 O   0  0  0  0  0  0
  -21.6567   -6.8886   21.4219 O   0  0  0  0  0  0
  -22.3486  -14.5428   20.6862 O   0  0  0  0  0  0
  -24.6118  -31.8714   23.2159 C   0  0  0  0  0  0
  -25.9006  -32.4847   23.8460 C   0  0  1  0  0  0
  -27.2314  -27.4446   20.0744 C   0  0  0  0  0  0
  -25.5879  -33.8658   24.2382 N   0  0  0  0  0  0
  -23.3995  -30.5013   21.5560 C   0  0  2  0  0  0
  -24.8420  -28.9744   20.1155 C   0  0  0  0  0  0
  -22.7416  -29.4672   22.4987 C   0  0  0  0  0  0
  -18.0286  -28.1333   22.8506 C   0  0  0  0  0  0
  -24.1505  -36.7331   23.2644 C   0  0  0  0  0  0
  -25.9325  -30.8356   21.3754 C   0  0  0  0  0  0
  -26.0074  -29.4757   20.7141 C   0  0  0  0  0  0
  -27.1998  -28.7183   20.6922 C   0  0  0  0  0  0
  -26.0351  -26.9612   19.4799 C   0  0  0  0  0  0
  -24.8515  -27.7156   19.5006 C   0  0  0  0  0  0
  -23.6080  -29.8440   20.1684 C   0  0  0  0  0  0
  -25.4109  -36.3150   24.0363 C   0  0  1  0  0  0
  -20.5889  -28.3623   23.1307 C   0  0  2  0  0  0
  -20.6769  -26.9355   22.5393 C   0  0  0  0  0  0
  -19.5731  -26.6352   21.5205 C   0  0  0  0  0  0
  -18.1930  -26.7887   22.1646 C   0  0  0  0  0  0
  -19.1538  -28.8788   23.2918 C   0  0  0  0  0  0
  -18.9464  -30.1410   23.8897 C   0  0  0  0  0  0
  -17.6462  -30.6540   24.0557 C   0  0  0  0  0  0
  -25.9011  -34.9505   23.5179 C   0  0  0  0  0  0
  -16.5357  -29.9038   23.6320 C   0  0  0  0  0  0
  -16.7281  -28.6460   23.0344 C   0  0  0  0  0  0
  -26.4449  -31.6614   25.0776 C   0  0  0  0  0  0
  -25.3742  -31.3692   26.1547 C   0  0  0  0  0  0
  -27.0266  -30.3072   24.6119 C   0  0  0  0  0  0
  -27.6025  -32.4343   25.7528 C   0  0  0  0  0  0
  -27.5606  -37.1825   24.8471 C   0  0  0  0  0  0
  -21.4143  -29.3011   22.3711 N   0  0  0  0  0  0
  -26.4314  -37.3813   23.9412 N   0  0  0  0  0  0
  -24.6663  -31.0841   22.1061 N   0  0  0  0  0  0
  -23.4212  -28.8186   23.2975 O   0  0  0  0  0  0
  -28.4080  -26.7103   20.0694 O   0  0  0  0  0  0
  -26.5571  -34.8938   22.4743 O   0  0  0  0  0  0
  -23.5297  -32.1457   23.7518 O   0  0  0  0  0  0
  -31.9579  -18.7923   22.5951 C   0  0  0  0  0  0
  -31.7919  -17.7382   21.6693 C   0  0  0  0  0  0
  -32.5100  -20.1797   20.8601 C   0  0  0  0  0  0
  -28.9922  -16.6628   19.2688 C   0  0  0  0  0  0
  -27.9319  -16.4132   21.6448 C   0  0  0  0  0  0
  -31.9952  -22.6810   17.7780 C   0  0  0  0  0  0
  -31.2715  -16.3493   22.1153 C   0  0  0  0  0  0
  -33.0006  -21.5544   20.3925 C   0  0  0  0  0  0
  -29.4994  -24.4324   20.1315 C   0  0  0  0  0  0
  -31.9457  -22.6965   20.2800 C   0  0  0  0  0  0
  -30.4162  -24.1358   18.9188 C   0  0  0  0  0  0
  -28.2644  -25.3036   19.8250 C   0  0  0  0  0  0
  -29.2005  -16.5580   20.7991 C   0  0  0  0  0  0
  -32.3112  -20.0327   22.1758 N   0  0  0  0  0  0
  -32.0446  -17.9656   20.3512 N   0  0  0  0  0  0
  -32.3933  -19.2013   19.9417 N   0  0  0  0  0  0
  -30.2948  -15.6335   21.2386 N   0  0  0  0  0  0
  -31.1753  -22.8429   19.0065 N   0  3  1  0  0  0
  -31.4697  -12.4429   19.1087 H   0  0  0  0  0  0
  -30.3341  -11.3643   19.8412 H   0  0  0  0  0  0
  -29.7581  -11.8459   17.4188 H   0  0  0  0  0  0
  -29.6240  -13.5469   17.7876 H   0  0  0  0  0  0
  -27.8614  -11.2985   18.8384 H   0  0  0  0  0  0
  -27.3630  -12.6100   17.7981 H   0  0  0  0  0  0
  -27.6470  -14.2311   19.5543 H   0  0  0  0  0  0
  -28.7285  -12.0136   21.3446 H   0  0  0  0  0  0
  -28.5203  -13.6344   21.8785 H   0  0  0  0  0  0
  -25.2788   -9.5564   22.4558 H   0  0  0  0  0  0
  -24.0012   -7.4502   22.7260 H   0  0  0  0  0  0
  -21.0889   -8.8642   19.8783 H   0  0  0  0  0  0
  -22.3708  -10.9587   19.6013 H   0  0  0  0  0  0
  -21.2262   -7.6179   23.9723 H   0  0  0  0  0  0
  -21.1388   -6.0478   25.8994 H   0  0  0  0  0  0
  -22.0695   -2.7635   23.2684 H   0  0  0  0  0  0
  -22.4168  -11.9535   22.4657 H   0  0  0  0  0  0
  -21.1241  -13.1029   22.2914 H   0  0  0  0  0  0
  -24.6141  -15.8236   20.4247 H   0  0  0  0  0  0
  -26.2345  -15.5867   20.0008 H   0  0  0  0  0  0
  -26.7077  -32.5583   23.1225 H   0  0  0  0  0  0
  -25.0080  -33.9837   25.0571 H   0  0  0  0  0  0
  -22.6871  -31.3163   21.4219 H   0  0  0  0  0  0
  -23.3784  -35.9653   23.3308 H   0  0  0  0  0  0
  -24.3605  -36.8930   22.2058 H   0  0  0  0  0  0
  -23.7231  -37.6539   23.6627 H   0  0  0  0  0  0
  -26.0614  -31.6095   20.6185 H   0  0  0  0  0  0
  -26.8134  -30.8722   22.0043 H   0  0  0  0  0  0
  -28.1004  -29.0961   21.1602 H   0  0  0  0  0  0
  -25.9841  -26.0042   18.9878 H   0  0  0  0  0  0
  -23.9572  -27.3271   19.0333 H   0  0  0  0  0  0
  -23.7143  -30.6263   19.4154 H   0  0  0  0  0  0
  -22.7302  -29.2672   19.8701 H   0  0  0  0  0  0
  -25.1278  -36.2066   25.0854 H   0  0  0  0  0  0
  -21.0006  -28.3181   24.1425 H   0  0  0  0  0  0
  -20.5682  -26.2222   23.3574 H   0  0  0  0  0  0
  -21.6636  -26.7381   22.1174 H   0  0  0  0  0  0
  -19.6894  -25.6274   21.1206 H   0  0  0  0  0  0
  -19.6676  -27.3191   20.6756 H   0  0  0  0  0  0
  -17.4196  -26.6655   21.4066 H   0  0  0  0  0  0
  -18.0347  -26.0003   22.9011 H   0  0  0  0  0  0
  -19.7936  -30.7238   24.2273 H   0  0  0  0  0  0
  -17.5001  -31.6231   24.5140 H   0  0  0  0  0  0
  -15.5352  -30.2926   23.7597 H   0  0  0  0  0  0
  -15.8708  -28.0757   22.7034 H   0  0  0  0  0  0
  -24.5848  -30.7119   25.7900 H   0  0  0  0  0  0
  -24.9012  -32.2826   26.5151 H   0  0  0  0  0  0
  -25.8115  -30.8749   27.0225 H   0  0  0  0  0  0
  -26.2803  -29.6864   24.1139 H   0  0  0  0  0  0
  -27.4025  -29.7273   25.4557 H   0  0  0  0  0  0
  -27.8658  -30.4438   23.9289 H   0  0  0  0  0  0
  -27.2619  -33.3586   26.2208 H   0  0  0  0  0  0
  -28.3759  -32.6994   25.0313 H   0  0  0  0  0  0
  -28.0772  -31.8423   26.5358 H   0  0  0  0  0  0
  -28.2616  -38.0129   24.7516 H   0  0  0  0  0  0
  -28.1100  -36.2656   24.6300 H   0  0  0  0  0  0
  -27.2306  -37.1481   25.8867 H   0  0  0  0  0  0
  -20.9258  -29.8801   21.7033 H   0  0  0  0  0  0
  -26.0239  -38.2929   24.1353 H   0  0  0  0  0  0
  -31.8043  -18.6522   23.6556 H   0  0  0  0  0  0
  -28.7840  -15.7185   18.7792 H   0  0  0  0  0  0
  -29.8935  -17.0490   18.7872 H   0  0  0  0  0  0
  -28.1889  -17.3609   19.0208 H   0  0  0  0  0  0
  -27.1602  -17.1230   21.3352 H   0  0  0  0  0  0
  -28.1440  -16.6230   22.6924 H   0  0  0  0  0  0
  -27.5067  -15.4229   21.6077 H   0  0  0  0  0  0
  -32.3154  -21.6510   17.6246 H   0  0  0  0  0  0
  -32.8784  -23.3169   17.8194 H   0  0  0  0  0  0
  -31.4383  -22.9659   16.8832 H   0  0  0  0  0  0
  -30.7770  -16.4629   23.0825 H   0  0  0  0  0  0
  -32.1481  -15.7316   22.3339 H   0  0  0  0  0  0
  -33.6045  -21.4644   19.4888 H   0  0  0  0  0  0
  -33.7185  -21.8746   21.1478 H   0  0  0  0  0  0
  -30.0705  -24.8663   20.9489 H   0  0  0  0  0  0
  -29.1182  -23.4799   20.4980 H   0  0  0  0  0  0
  -32.4857  -23.6302   20.4246 H   0  0  0  0  0  0
  -31.2574  -22.6212   21.1214 H   0  0  0  0  0  0
  -31.1073  -24.9690   18.7810 H   0  0  0  0  0  0
  -29.8205  -24.1063   18.0023 H   0  0  0  0  0  0
  -27.4661  -24.9381   20.4732 H   0  0  0  0  0  0
  -27.9427  -25.1286   18.7972 H   0  0  0  0  0  0
  -29.4564  -17.5829   21.0496 H   0  0  0  0  0  0
  -30.4869  -22.1023   18.9942 H   0  0  0  0  0  0
  1 25  1  0  0  0
  1 30  2  0  0  0
  1 87  1  0  0  0
  2  3  1  0  0  0
  2 25  1  0  0  0
  2 89  1  0  0  0
  2 90  1  0  0  0
  3  4  1  0  0  0
  3 91  1  0  0  0
  3 92  1  0  0  0
  4  5  1  0  0  0
  4 93  1  0  0  0
  4 94  1  0  0  0
  5  6  1  0  0  0
  5 26  1  0  0  0
  5 95  1  0  0  0
  6 25  1  0  0  0
  6 96  1  0  0  0
  6 97  1  0  0  0
  7  8  2  0  0  0
  7 26  1  0  0  0
  7 29  1  0  0  0
  8  9  1  0  0  0
  8 22  1  0  0  0
  9 10  1  0  0  0
  9 27  2  0  0  0
 10 11  2  0  0  0
 10 15  1  0  0  0
 11 12  1  0  0  0
 11 98  1  0  0  0
 12 13  2  0  0  0
 12 99  1  0  0  0
 13 14  1  0  0  0
 13 31  1  0  0  0
 14 15  2  0  0  0
 14100  1  0  0  0
 15101  1  0  0  0
 16 17  2  0  0  0
 16 21  1  0  0  0
 16 31  1  0  0  0
 17 18  1  0  0  0
 17102  1  0  0  0
 18 19  2  0  0  0
 18103  1  0  0  0
 19 20  1  0  0  0
 19 24  1  0  0  0
 20 21  2  0  0  0
 20104  1  0  0  0
 21 23  1  0  0  0
 22 28  1  0  0  0
 22 32  2  0  0  0
 26 27  1  0  0  0
 28105  1  0  0  0
 28106  1  0  0  0
 29107  1  0  0  0
 29108  1  0  0  0
 33 34  1  0  0  0
 33 66  1  0  0  0
 33 70  2  0  0  0
 34 36  1  0  0  0
 34 59  1  0  0  0
 34109  1  0  0  0
 35 44  2  0  0  0
 35 45  1  0  0  0
 35 68  1  0  0  0
 36 56  1  0  0  0
 36110  1  0  0  0
 37 39  1  0  0  0
 37 47  1  0  0  0
 37 66  1  0  0  0
 37111  1  0  0  0
 38 43  2  0  0  0
 38 46  1  0  0  0
 38 47  1  0  0  0
 39 64  1  0  0  0
 39 67  2  0  0  0
 40 52  1  0  0  0
 40 53  2  0  0  0
 40 58  1  0  0  0
 41112  1  0  0  0
 41113  1  0  0  0
 41114  1  0  0  0
 41 48  1  0  0  0
 42 43  1  0  0  0
 42 66  1  0  0  0
 42115  1  0  0  0
 42116  1  0  0  0
 43 44  1  0  0  0
 44117  1  0  0  0
 45 46  2  0  0  0
 45118  1  0  0  0
 46119  1  0  0  0
 47120  1  0  0  0
 47121  1  0  0  0
 48 56  1  0  0  0
 48 65  1  0  0  0
 48122  1  0  0  0
 49 50  1  0  0  0
 49 53  1  0  0  0
 49 64  1  0  0  0
 49123  1  0  0  0
 50 51  1  0  0  0
 50124  1  0  0  0
 50125  1  0  0  0
 51 52  1  0  0  0
 51126  1  0  0  0
 51127  1  0  0  0
 52128  1  0  0  0
 52129  1  0  0  0
 53 54  1  0  0  0
 54 55  2  0  0  0
 54130  1  0  0  0
 55 57  1  0  0  0
 55131  1  0  0  0
 56 69  2  0  0  0
 57 58  2  0  0  0
 57132  1  0  0  0
 58133  1  0  0  0
 59 60  1  0  0  0
 59 61  1  0  0  0
 59 62  1  0  0  0
 60134  1  0  0  0
 60135  1  0  0  0
 60136  1  0  0  0
 61137  1  0  0  0
 61138  1  0  0  0
 61139  1  0  0  0
 62140  1  0  0  0
 62141  1  0  0  0
 62142  1  0  0  0
 63 65  1  0  0  0
 63143  1  0  0  0
 63144  1  0  0  0
 63145  1  0  0  0
 64146  1  0  0  0
 65147  1  0  0  0
 68 82  1  0  0  0
 71 72  2  0  0  0
 71 84  1  0  0  0
 71148  1  0  0  0
 72 77  1  0  0  0
 72 85  1  0  0  0
 73 78  1  0  0  0
 73 84  2  0  0  0
 73 86  1  0  0  0
 74149  1  0  0  0
 74150  1  0  0  0
 74151  1  0  0  0
 74 83  1  0  0  0
 75 83  1  0  0  0
 75152  1  0  0  0
 75153  1  0  0  0
 75154  1  0  0  0
 76155  1  0  0  0
 76156  1  0  0  0
 76157  1  0  0  0
 76 88  1  0  0  0
 77 87  1  0  0  0
 77158  1  0  0  0
 77159  1  0  0  0
 78 80  1  0  0  0
 78160  1  0  0  0
 78161  1  0  0  0
 79 81  1  0  0  0
 79 82  1  0  0  0
 79162  1  0  0  0
 79163  1  0  0  0
 80 88  1  0  0  0
 80164  1  0  0  0
 80165  1  0  0  0
 81 88  1  0  0  0
 81166  1  0  0  0
 81167  1  0  0  0
 82168  1  0  0  0
 82169  1  0  0  0
 83 87  1  0  0  0
 83170  1  0  0  0
 85 86  2  0  0  0
 88171  1  0  0  0
M  CHG  1  88   1
M  ISO  4   1 100  68 101  82 101  87 100
M  END
> <chiral flag>
0

> <version>
0

> <s_m_source_file>
/data/baiqing/PycharmProjects/Reinvent-master-3.2/result/LINK_invent/BTK/process_docking_weight1_custom_sum_contain_oxygen_bond_distance_aromatic_linkinvent_7_9_3/rearranged_h_0055.sdf

> <i_m_source_file_index>
55

> <r_mmod_Potential_Energy-OPLS-2005>
28.9733963012695

> <r_mmod_Stretch_Energy-OPLS-2005>
56.1543045043945

> <r_mmod_Bend_Energy-OPLS-2005>
158.168380737305

> <r_mmod_Torsional_Energy-OPLS-2005>
293.428253173828

> <r_mmod_Improper_Torsional_Energy-OPLS-2005>
4.34020853042603

> <r_mmod_Van_der_Waal_Energy-OPLS-2005>
186.20751953125

> <r_mmod_Electrostatic_Energy-OPLS-2005>
-232.230163574219

> <r_mmod_Solvation_Energy-OPLS-2005>
-459.896575927734

> <b_mmod_Minimization_Converged-OPLS-2005>
0

> <r_mmod_RMS_Derivative-OPLS-2005>
6.07925510406494

$$$$
55
                    3D
 Structure written by MMmdl.
168176  0  0  1  0            999 V2000
  -30.7367  -14.4222   20.5967 C   0  0  0  0  0  0
  -30.4086  -12.2891   19.4091 C   0  0  0  0  0  0
  -29.4848  -12.5008   18.1938 C   0  0  0  0  0  0
  -28.0038  -12.3841   18.6040 C   0  0  0  0  0  0
  -27.6598  -13.2100   19.8730 C   0  0  2  0  0  0
  -28.7004  -12.9795   20.9914 C   0  0  0  0  0  0
  -25.2592  -13.8162   20.5683 C   0  0  0  0  0  0
  -24.1836  -13.0440   20.9155 C   0  0  0  0  0  0
  -24.6378  -11.6906   20.8700 C   0  0  0  0  0  0
  -23.9038  -10.4286   21.0377 C   0  0  0  0  0  0
  -24.3589   -9.4220   21.9174 C   0  0  0  0  0  0
  -23.6274   -8.2255   22.0767 C   0  0  0  0  0  0
  -22.4267   -8.0266   21.3541 C   0  0  0  0  0  0
  -21.9889   -9.0226   20.4638 C   0  0  0  0  0  0
  -22.7207  -10.2113   20.3034 C   0  0  0  0  0  0
  -21.6855   -6.0724   22.5269 C   0  0  0  0  0  0
  -21.4009   -6.5633   23.8196 C   0  0  0  0  0  0
  -21.3661   -5.6790   24.9162 C   0  0  0  0  0  0
  -21.6046   -4.3052   24.7213 C   0  0  0  0  0  0
  -21.8821   -3.8138   23.4334 C   0  0  0  0  0  0
  -21.9196   -4.6953   22.3395 C   0  0  0  0  0  0
  -22.7865  -13.5250   21.1823 C   0  0  0  0  0  0
  -22.1669   -4.2142   21.0973 F   0  0  0  0  0  0
  -21.5633   -3.4541   25.7726 F   0  0  0  0  0  0
  -30.0330  -13.2706   20.4362 N   0  0  0  0  0  0
  -26.3020  -12.9339   20.3347 N   0  0  0  0  0  0
  -25.9310  -11.6493   20.5738 N   0  0  0  0  0  0
  -22.0486  -12.8227   22.0351 N   0  0  0  0  0  0
  -25.4328  -15.1877   20.4125 N   0  0  0  0  0  0
  -31.8447  -14.6117   20.0863 O   0  0  0  0  0  0
  -21.6643   -6.8863   21.4232 O   0  0  0  0  0  0
  -22.3571  -14.5575   20.6692 O   0  0  0  0  0  0
  -24.6131  -31.8691   23.2054 C   0  0  0  0  0  0
  -25.8997  -32.4843   23.8387 C   0  0  1  0  0  0
  -27.2358  -27.4224   20.0792 C   0  0  0  0  0  0
  -25.5839  -33.8639   24.2316 N   0  0  0  0  0  0
  -23.4009  -30.4891   21.5503 C   0  0  2  0  0  0
  -24.8432  -28.9497   20.1187 C   0  0  0  0  0  0
  -22.7421  -29.4641   22.5003 C   0  0  0  0  0  0
  -18.0266  -28.1381   22.8476 C   0  0  0  0  0  0
  -24.1475  -36.7318   23.2648 C   0  0  0  0  0  0
  -25.9269  -30.8311   21.3521 C   0  0  0  0  0  0
  -26.0046  -29.4585   20.7135 C   0  0  0  0  0  0
  -27.1973  -28.6975   20.6967 C   0  0  0  0  0  0
  -26.0402  -26.9186   19.5132 C   0  0  0  0  0  0
  -24.8564  -27.6780   19.5247 C   0  0  0  0  0  0
  -23.6057  -29.8178   20.1663 C   0  0  0  0  0  0
  -25.4095  -36.3136   24.0348 C   0  0  1  0  0  0
  -20.5864  -28.3656   23.1313 C   0  0  2  0  0  0
  -20.6747  -26.9395   22.5393 C   0  0  0  0  0  0
  -19.5722  -26.6388   21.5188 C   0  0  0  0  0  0
  -18.1908  -26.7915   22.1616 C   0  0  0  0  0  0
  -19.1527  -28.8817   23.2896 C   0  0  0  0  0  0
  -18.9471  -30.1422   23.8912 C   0  0  0  0  0  0
  -17.6476  -30.6571   24.0576 C   0  0  0  0  0  0
  -25.9021  -34.9500   23.5147 C   0  0  0  0  0  0
  -16.5364  -29.9088   23.6330 C   0  0  0  0  0  0
  -16.7260  -28.6514   23.0318 C   0  0  0  0  0  0
  -26.4399  -31.6611   25.0718 C   0  0  0  0  0  0
  -25.3610  -31.3690   26.1421 C   0  0  0  0  0  0
  -27.0261  -30.3095   24.6007 C   0  0  0  0  0  0
  -27.5981  -32.4303   25.7496 C   0  0  0  0  0  0
  -27.5564  -37.1836   24.8469 C   0  0  0  0  0  0
  -21.4140  -29.3059   22.3757 N   0  0  0  0  0  0
  -26.4282  -37.3821   23.9407 N   0  0  0  0  0  0
  -24.6677  -31.0773   22.0974 N   0  0  0  0  0  0
  -23.4190  -28.8166   23.3035 O   0  0  0  0  0  0
  -28.4408  -26.7403   20.0608 O   0  0  0  0  0  0
  -26.5636  -34.8958   22.4741 O   0  0  0  0  0  0
  -23.5310  -32.1434   23.7432 O   0  0  0  0  0  0
  -28.1112  -22.9592   19.8488 C   0  0  0  0  0  0
  -28.6176  -24.2572   20.1611 C   0  0  0  0  0  0
  -28.4095  -22.1739   20.9346 C   0  0  0  0  0  0
  -30.9136  -18.6490   23.1590 C   0  0  0  0  0  0
  -29.3167  -16.8063   23.6277 C   0  0  0  0  0  0
  -29.6738  -22.6940   23.1148 C   0  0  0  0  0  0
  -29.7401  -19.6625   19.7870 C   0  0  0  0  0  0
  -28.5986  -25.5194   19.3125 C   0  0  0  0  0  0
  -28.0474  -20.7339   21.2336 C   0  0  0  0  0  0
  -30.7699  -16.6848   21.5844 C   0  0  0  0  0  0
  -28.8011  -18.4081   21.7247 C   0  0  0  0  0  0
  -29.9436  -17.6478   22.4897 C   0  0  0  0  0  0
  -29.2336  -24.2522   21.3375 N   0  0  0  0  0  0
  -29.1060  -22.9923   21.8120 N   0  0  0  0  0  0
  -30.1261  -15.4005   21.2804 N   0  0  0  0  0  0
  -29.1692  -19.7467   21.1533 N   0  3  1  0  0  0
  -31.4556  -12.3704   19.1098 H   0  0  0  0  0  0
  -30.2905  -11.2789   19.8029 H   0  0  0  0  0  0
  -29.7117  -11.7674   17.4188 H   0  0  0  0  0  0
  -29.6698  -13.4803   17.7512 H   0  0  0  0  0  0
  -27.7886  -11.3291   18.7759 H   0  0  0  0  0  0
  -27.3631  -12.6908   17.7755 H   0  0  0  0  0  0
  -27.7079  -14.2612   19.5885 H   0  0  0  0  0  0
  -28.6690  -11.9435   21.3322 H   0  0  0  0  0  0
  -28.4657  -13.5816   21.8699 H   0  0  0  0  0  0
  -25.2728   -9.5726   22.4751 H   0  0  0  0  0  0
  -23.9981   -7.4669   22.7516 H   0  0  0  0  0  0
  -21.0823   -8.8718   19.8943 H   0  0  0  0  0  0
  -22.3646  -10.9639   19.6134 H   0  0  0  0  0  0
  -21.1993   -7.6139   23.9691 H   0  0  0  0  0  0
  -21.1488   -6.0524   25.9061 H   0  0  0  0  0  0
  -22.0598   -2.7599   23.2834 H   0  0  0  0  0  0
  -22.4084  -11.9842   22.4664 H   0  0  0  0  0  0
  -21.1108  -13.1258   22.2552 H   0  0  0  0  0  0
  -24.6617  -15.8402   20.5057 H   0  0  0  0  0  0
  -26.2795  -15.6205   20.0667 H   0  0  0  0  0  0
  -26.7077  -32.5536   23.1164 H   0  0  0  0  0  0
  -24.9946  -33.9818   25.0422 H   0  0  0  0  0  0
  -22.6907  -31.3067   21.4094 H   0  0  0  0  0  0
  -23.3768  -35.9627   23.3313 H   0  0  0  0  0  0
  -24.3571  -36.8914   22.2064 H   0  0  0  0  0  0
  -23.7182  -37.6507   23.6654 H   0  0  0  0  0  0
  -26.0133  -31.5814   20.5644 H   0  0  0  0  0  0
  -26.8267  -30.9119   21.9511 H   0  0  0  0  0  0
  -28.0961  -29.0920   21.1481 H   0  0  0  0  0  0
  -25.9825  -25.9412   19.0622 H   0  0  0  0  0  0
  -23.9603  -27.2707   19.0786 H   0  0  0  0  0  0
  -23.7071  -30.5897   19.4025 H   0  0  0  0  0  0
  -22.7295  -29.2353   19.8755 H   0  0  0  0  0  0
  -25.1258  -36.2034   25.0840 H   0  0  0  0  0  0
  -20.9955  -28.3206   24.1434 H   0  0  0  0  0  0
  -20.5648  -26.2271   23.3585 H   0  0  0  0  0  0
  -21.6612  -26.7428   22.1178 H   0  0  0  0  0  0
  -19.6907  -25.6317   21.1172 H   0  0  0  0  0  0
  -19.6640  -27.3243   20.6756 H   0  0  0  0  0  0
  -17.4164  -26.6658   21.4032 H   0  0  0  0  0  0
  -18.0335  -26.0049   22.9006 H   0  0  0  0  0  0
  -19.7954  -30.7233   24.2284 H   0  0  0  0  0  0
  -17.5034  -31.6251   24.5189 H   0  0  0  0  0  0
  -15.5366  -30.3007   23.7628 H   0  0  0  0  0  0
  -15.8655  -28.0855   22.6997 H   0  0  0  0  0  0
  -24.5855  -30.6960   25.7723 H   0  0  0  0  0  0
  -24.8697  -32.2834   26.4779 H   0  0  0  0  0  0
  -25.7891  -30.8930   27.0244 H   0  0  0  0  0  0
  -26.2841  -29.6923   24.0936 H   0  0  0  0  0  0
  -27.4009  -29.7235   25.4400 H   0  0  0  0  0  0
  -27.8640  -30.4534   23.9182 H   0  0  0  0  0  0
  -27.2643  -33.3658   26.2003 H   0  0  0  0  0  0
  -28.3837  -32.6746   25.0335 H   0  0  0  0  0  0
  -28.0573  -31.8437   26.5460 H   0  0  0  0  0  0
  -28.2575  -38.0147   24.7540 H   0  0  0  0  0  0
  -28.1072  -36.2678   24.6267 H   0  0  0  0  0  0
  -27.2286  -37.1420   25.8875 H   0  0  0  0  0  0
  -20.9293  -29.8881   21.7075 H   0  0  0  0  0  0
  -26.0186  -38.2911   24.1401 H   0  0  0  0  0  0
  -27.5805  -22.6541   18.9569 H   0  0  0  0  0  0
  -31.6605  -18.1269   23.7591 H   0  0  0  0  0  0
  -30.3915  -19.3270   23.8357 H   0  0  0  0  0  0
  -31.4681  -19.2445   22.4325 H   0  0  0  0  0  0
  -30.0539  -16.1445   24.0845 H   0  0  0  0  0  0
  -28.4935  -16.1823   23.2774 H   0  0  0  0  0  0
  -28.9183  -17.4347   24.4251 H   0  0  0  0  0  0
  -29.6126  -21.6314   23.3402 H   0  0  0  0  0  0
  -29.1397  -23.2455   23.8872 H   0  0  0  0  0  0
  -30.7238  -22.9881   23.1397 H   0  0  0  0  0  0
  -30.0893  -20.6353   19.4424 H   0  0  0  0  0  0
  -28.9983  -19.3011   19.0727 H   0  0  0  0  0  0
  -30.6017  -19.0018   19.7472 H   0  0  0  0  0  0
  -27.9014  -25.4183   18.4814 H   0  0  0  0  0  0
  -29.5659  -25.6017   18.8176 H   0  0  0  0  0  0
  -27.2503  -20.4181   20.5607 H   0  0  0  0  0  0
  -27.6086  -20.7076   22.2315 H   0  0  0  0  0  0
  -31.7084  -16.4483   22.0893 H   0  0  0  0  0  0
  -31.0643  -17.1598   20.6527 H   0  0  0  0  0  0
  -27.9908  -18.5650   22.4383 H   0  0  0  0  0  0
  -28.3622  -17.7744   20.9526 H   0  0  0  0  0  0
  -29.2013  -15.2192   21.6409 H   0  0  0  0  0  0
  -29.8950  -20.1047   21.7555 H   0  0  0  0  0  0
  1 25  1  0  0  0
  1 30  2  0  0  0
  1 85  1  0  0  0
  2  3  1  0  0  0
  2 25  1  0  0  0
  2 87  1  0  0  0
  2 88  1  0  0  0
  3  4  1  0  0  0
  3 89  1  0  0  0
  3 90  1  0  0  0
  4  5  1  0  0  0
  4 91  1  0  0  0
  4 92  1  0  0  0
  5  6  1  0  0  0
  5 26  1  0  0  0
  5 93  1  0  0  0
  6 25  1  0  0  0
  6 94  1  0  0  0
  6 95  1  0  0  0
  7  8  2  0  0  0
  7 26  1  0  0  0
  7 29  1  0  0  0
  8  9  1  0  0  0
  8 22  1  0  0  0
  9 10  1  0  0  0
  9 27  2  0  0  0
 10 11  2  0  0  0
 10 15  1  0  0  0
 11 12  1  0  0  0
 11 96  1  0  0  0
 12 13  2  0  0  0
 12 97  1  0  0  0
 13 14  1  0  0  0
 13 31  1  0  0  0
 14 15  2  0  0  0
 14 98  1  0  0  0
 15 99  1  0  0  0
 16 17  2  0  0  0
 16 21  1  0  0  0
 16 31  1  0  0  0
 17 18  1  0  0  0
 17100  1  0  0  0
 18 19  2  0  0  0
 18101  1  0  0  0
 19 20  1  0  0  0
 19 24  1  0  0  0
 20 21  2  0  0  0
 20102  1  0  0  0
 21 23  1  0  0  0
 22 28  1  0  0  0
 22 32  2  0  0  0
 26 27  1  0  0  0
 28103  1  0  0  0
 28104  1  0  0  0
 29105  1  0  0  0
 29106  1  0  0  0
 33 34  1  0  0  0
 33 66  1  0  0  0
 33 70  2  0  0  0
 34 36  1  0  0  0
 34 59  1  0  0  0
 34107  1  0  0  0
 35 44  2  0  0  0
 35 45  1  0  0  0
 35 68  1  0  0  0
 36 56  1  0  0  0
 36108  1  0  0  0
 37 39  1  0  0  0
 37 47  1  0  0  0
 37 66  1  0  0  0
 37109  1  0  0  0
 38 43  2  0  0  0
 38 46  1  0  0  0
 38 47  1  0  0  0
 39 64  1  0  0  0
 39 67  2  0  0  0
 40 52  1  0  0  0
 40 53  2  0  0  0
 40 58  1  0  0  0
 41110  1  0  0  0
 41111  1  0  0  0
 41112  1  0  0  0
 41 48  1  0  0  0
 42 43  1  0  0  0
 42 66  1  0  0  0
 42113  1  0  0  0
 42114  1  0  0  0
 43 44  1  0  0  0
 44115  1  0  0  0
 45 46  2  0  0  0
 45116  1  0  0  0
 46117  1  0  0  0
 47118  1  0  0  0
 47119  1  0  0  0
 48 56  1  0  0  0
 48 65  1  0  0  0
 48120  1  0  0  0
 49 50  1  0  0  0
 49 53  1  0  0  0
 49 64  1  0  0  0
 49121  1  0  0  0
 50 51  1  0  0  0
 50122  1  0  0  0
 50123  1  0  0  0
 51 52  1  0  0  0
 51124  1  0  0  0
 51125  1  0  0  0
 52126  1  0  0  0
 52127  1  0  0  0
 53 54  1  0  0  0
 54 55  2  0  0  0
 54128  1  0  0  0
 55 57  1  0  0  0
 55129  1  0  0  0
 56 69  2  0  0  0
 57 58  2  0  0  0
 57130  1  0  0  0
 58131  1  0  0  0
 59 60  1  0  0  0
 59 61  1  0  0  0
 59 62  1  0  0  0
 60132  1  0  0  0
 60133  1  0  0  0
 60134  1  0  0  0
 61135  1  0  0  0
 61136  1  0  0  0
 61137  1  0  0  0
 62138  1  0  0  0
 62139  1  0  0  0
 62140  1  0  0  0
 63 65  1  0  0  0
 63141  1  0  0  0
 63142  1  0  0  0
 63143  1  0  0  0
 64144  1  0  0  0
 65145  1  0  0  0
 68 78  1  0  0  0
 71 72  1  0  0  0
 71 73  2  0  0  0
 71146  1  0  0  0
 72 78  1  0  0  0
 72 83  2  0  0  0
 73 79  1  0  0  0
 73 84  1  0  0  0
 74147  1  0  0  0
 74148  1  0  0  0
 74149  1  0  0  0
 74 82  1  0  0  0
 75 82  1  0  0  0
 75150  1  0  0  0
 75151  1  0  0  0
 75152  1  0  0  0
 76 84  1  0  0  0
 76153  1  0  0  0
 76154  1  0  0  0
 76155  1  0  0  0
 77156  1  0  0  0
 77157  1  0  0  0
 77158  1  0  0  0
 77 86  1  0  0  0
 78159  1  0  0  0
 78160  1  0  0  0
 79 86  1  0  0  0
 79161  1  0  0  0
 79162  1  0  0  0
 80 82  1  0  0  0
 80 85  1  0  0  0
 80163  1  0  0  0
 80164  1  0  0  0
 81 82  1  0  0  0
 81 86  1  0  0  0
 81165  1  0  0  0
 81166  1  0  0  0
 83 84  1  0  0  0
 85167  1  0  0  0
 86168  1  0  0  0
M  CHG  1  86   1
M  ISO  4   1 100  68 101  78 101  85 100
M  END
> <chiral flag>
0

> <version>
0

> <s_m_source_file>
/data/baiqing/PycharmProjects/Reinvent-master-3.2/result/LINK_invent/BTK/process_docking_weight1_custom_sum_contain_oxygen_bond_distance_aromatic_linkinvent_7_9_3/rearranged_h_0055.sdf

> <i_m_source_file_index>
56

> <r_mmod_Potential_Energy-OPLS-2005>
-232.471572875977

> <r_mmod_Stretch_Energy-OPLS-2005>
40.2644882202148

> <r_mmod_Bend_Energy-OPLS-2005>
116.419006347656

> <r_mmod_Torsional_Energy-OPLS-2005>
232.166656494141

> <r_mmod_Improper_Torsional_Energy-OPLS-2005>
2.46226167678833

> <r_mmod_Van_der_Waal_Energy-OPLS-2005>
135.291809082031

> <r_mmod_Electrostatic_Energy-OPLS-2005>
-287.39306640625

> <r_mmod_Solvation_Energy-OPLS-2005>
-482.434326171875

> <b_mmod_Minimization_Converged-OPLS-2005>
0

> <r_mmod_RMS_Derivative-OPLS-2005>
3.01990485191345

$$$$
56
                    3D
 Structure written by MMmdl.
172180  0  0  1  0            999 V2000
  -30.7150  -14.4826   20.5406 C   0  0  0  0  0  0
  -30.4151  -12.3075   19.4261 C   0  0  0  0  0  0
  -29.4888  -12.4928   18.2050 C   0  0  0  0  0  0
  -28.0106  -12.3558   18.6184 C   0  0  0  0  0  0
  -27.6517  -13.2102   19.8614 C   0  0  2  0  0  0
  -28.6974  -13.0233   20.9800 C   0  0  0  0  0  0
  -25.2535  -13.8137   20.5637 C   0  0  0  0  0  0
  -24.1788  -13.0431   20.9136 C   0  0  0  0  0  0
  -24.6348  -11.6894   20.8712 C   0  0  0  0  0  0
  -23.9032  -10.4281   21.0402 C   0  0  0  0  0  0
  -24.3615   -9.4190   21.9172 C   0  0  0  0  0  0
  -23.6302   -8.2206   22.0735 C   0  0  0  0  0  0
  -22.4279   -8.0250   21.3539 C   0  0  0  0  0  0
  -21.9920   -9.0204   20.4623 C   0  0  0  0  0  0
  -22.7218  -10.2093   20.3035 C   0  0  0  0  0  0
  -21.6843   -6.0724   22.5288 C   0  0  0  0  0  0
  -21.3991   -6.5624   23.8219 C   0  0  0  0  0  0
  -21.3664   -5.6772   24.9178 C   0  0  0  0  0  0
  -21.6047   -4.3039   24.7221 C   0  0  0  0  0  0
  -21.8824   -3.8136   23.4342 C   0  0  0  0  0  0
  -21.9184   -4.6951   22.3401 C   0  0  0  0  0  0
  -22.7827  -13.5244   21.1864 C   0  0  0  0  0  0
  -22.1650   -4.2133   21.0974 F   0  0  0  0  0  0
  -21.5653   -3.4526   25.7739 F   0  0  0  0  0  0
  -30.0199  -13.3191   20.4180 N   0  0  0  0  0  0
  -26.2969  -12.9317   20.3301 N   0  0  0  0  0  0
  -25.9265  -11.6479   20.5707 N   0  0  0  0  0  0
  -22.0500  -12.8206   22.0428 N   0  0  0  0  0  0
  -25.4285  -15.1852   20.4119 N   0  0  0  0  0  0
  -31.9132  -14.5497   20.2454 O   0  0  0  0  0  0
  -21.6627   -6.8863   21.4252 O   0  0  0  0  0  0
  -22.3505  -14.5580   20.6773 O   0  0  0  0  0  0
  -24.6116  -31.8696   23.2142 C   0  0  0  0  0  0
  -25.9003  -32.4852   23.8429 C   0  0  1  0  0  0
  -27.2422  -27.4487   20.0932 C   0  0  0  0  0  0
  -25.5878  -33.8652   24.2366 N   0  0  0  0  0  0
  -23.3993  -30.4926   21.5534 C   0  0  2  0  0  0
  -24.8448  -28.9570   20.1250 C   0  0  0  0  0  0
  -22.7426  -29.4646   22.5011 C   0  0  0  0  0  0
  -18.0294  -28.1397   22.8498 C   0  0  0  0  0  0
  -24.1486  -36.7323   23.2639 C   0  0  0  0  0  0
  -25.9264  -30.8410   21.3628 C   0  0  0  0  0  0
  -26.0050  -29.4763   20.7101 C   0  0  0  0  0  0
  -27.2025  -28.7279   20.6897 C   0  0  0  0  0  0
  -26.0536  -26.9345   19.5192 C   0  0  0  0  0  0
  -24.8616  -27.6828   19.5340 C   0  0  0  0  0  0
  -23.6060  -29.8214   20.1703 C   0  0  0  0  0  0
  -25.4108  -36.3138   24.0346 C   0  0  1  0  0  0
  -20.5883  -28.3654   23.1377 C   0  0  2  0  0  0
  -20.6755  -26.9380   22.5477 C   0  0  0  0  0  0
  -19.5776  -26.6394   21.5228 C   0  0  0  0  0  0
  -18.1927  -26.7980   22.1575 C   0  0  0  0  0  0
  -19.1562  -28.8819   23.2945 C   0  0  0  0  0  0
  -18.9472  -30.1427   23.8970 C   0  0  0  0  0  0
  -17.6504  -30.6597   24.0611 C   0  0  0  0  0  0
  -25.9013  -34.9500   23.5144 C   0  0  0  0  0  0
  -16.5378  -29.9113   23.6364 C   0  0  0  0  0  0
  -16.7292  -28.6526   23.0387 C   0  0  0  0  0  0
  -26.4453  -31.6608   25.0739 C   0  0  0  0  0  0
  -25.3731  -31.3675   26.1481 C   0  0  0  0  0  0
  -27.0298  -30.3065   24.6087 C   0  0  0  0  0  0
  -27.6033  -32.4329   25.7497 C   0  0  0  0  0  0
  -27.5593  -37.1821   24.8471 C   0  0  0  0  0  0
  -21.4152  -29.3052   22.3789 N   0  0  0  0  0  0
  -26.4307  -37.3810   23.9410 N   0  0  0  0  0  0
  -24.6639  -31.0809   22.1031 N   0  0  0  0  0  0
  -23.4229  -28.8183   23.3017 O   0  0  0  0  0  0
  -28.4463  -26.7710   20.1067 O   0  0  0  0  0  0
  -26.5597  -34.8913   22.4718 O   0  0  0  0  0  0
  -23.5324  -32.1436   23.7558 O   0  0  0  0  0  0
  -27.0257  -18.4178   20.0685 C   0  0  0  0  0  0
  -27.2538  -19.7697   20.3969 C   0  0  0  0  0  0
  -28.9244  -19.1169   21.8556 C   0  0  0  0  0  0
  -28.8287  -17.7624   21.3841 C   0  0  0  0  0  0
  -29.8203  -19.6143   22.9771 C   0  0  0  0  0  0
  -31.2597  -17.0960   22.0120 C   0  0  0  0  0  0
  -29.2981  -15.8645   22.9339 C   0  0  0  0  0  0
  -30.0467  -16.2873   19.1839 C   0  0  0  0  0  0
  -25.3195  -22.9766   20.0379 C   0  0  0  0  0  0
  -26.5036  -20.8736   19.6598 C   0  0  0  0  0  0
  -28.0186  -24.3660   20.5203 C   0  0  0  0  0  0
  -27.8009  -22.9920   19.8229 C   0  0  0  0  0  0
  -28.5378  -25.4545   19.5541 C   0  0  0  0  0  0
  -29.8293  -16.5888   21.6780 C   0  0  0  0  0  0
  -27.7857  -17.4204   20.5762 N   0  0  0  0  0  0
  -28.1590  -20.1129   21.3391 N   0  0  0  0  0  0
  -29.9707  -15.6274   20.5124 N   0  0  0  0  0  0
  -26.5881  -22.2317   20.2681 N   0  3  1  0  0  0
  -31.4590  -12.4032   19.1221 H   0  0  0  0  0  0
  -30.3086  -11.3034   19.8459 H   0  0  0  0  0  0
  -29.7243  -11.7542   17.4382 H   0  0  0  0  0  0
  -29.6538  -13.4715   17.7489 H   0  0  0  0  0  0
  -27.8298  -11.3044   18.8414 H   0  0  0  0  0  0
  -27.3498  -12.5964   17.7853 H   0  0  0  0  0  0
  -27.6799  -14.2509   19.5406 H   0  0  0  0  0  0
  -28.4630  -13.6493   21.8335 H   0  0  0  0  0  0
  -28.6751  -11.9988   21.3526 H   0  0  0  0  0  0
  -25.2759   -9.5650   22.4757 H   0  0  0  0  0  0
  -24.0003   -7.4583   22.7458 H   0  0  0  0  0  0
  -21.0843   -8.8693   19.8944 H   0  0  0  0  0  0
  -22.3660  -10.9624   19.6142 H   0  0  0  0  0  0
  -21.1967   -7.6126   23.9703 H   0  0  0  0  0  0
  -21.1500   -6.0512   25.9077 H   0  0  0  0  0  0
  -22.0618   -2.7598   23.2841 H   0  0  0  0  0  0
  -22.4164  -11.9845   22.4734 H   0  0  0  0  0  0
  -21.1090  -13.1138   22.2635 H   0  0  0  0  0  0
  -24.6877  -15.8468   20.6093 H   0  0  0  0  0  0
  -26.3284  -15.6363   20.2727 H   0  0  0  0  0  0
  -26.7042  -32.5563   23.1172 H   0  0  0  0  0  0
  -25.0034  -33.9808   25.0509 H   0  0  0  0  0  0
  -22.6850  -31.3089   21.4161 H   0  0  0  0  0  0
  -23.3755  -35.9651   23.3328 H   0  0  0  0  0  0
  -24.3568  -36.8919   22.2048 H   0  0  0  0  0  0
  -23.7222  -37.6526   23.6626 H   0  0  0  0  0  0
  -26.0357  -31.6065   20.5945 H   0  0  0  0  0  0
  -26.8178  -30.8973   21.9757 H   0  0  0  0  0  0
  -28.1025  -29.1329   21.1296 H   0  0  0  0  0  0
  -26.0193  -25.9583   19.0635 H   0  0  0  0  0  0
  -23.9676  -27.2750   19.0851 H   0  0  0  0  0  0
  -23.7148  -30.5935   19.4108 H   0  0  0  0  0  0
  -22.7300  -29.2425   19.8700 H   0  0  0  0  0  0
  -25.1283  -36.2032   25.0846 H   0  0  0  0  0  0
  -20.9988  -28.3259   24.1483 H   0  0  0  0  0  0
  -21.6634  -26.7371   22.1304 H   0  0  0  0  0  0
  -20.5597  -26.2227   23.3630 H   0  0  0  0  0  0
  -19.6943  -25.6319   21.1252 H   0  0  0  0  0  0
  -19.6757  -27.3193   20.6766 H   0  0  0  0  0  0
  -17.4191  -26.6815   21.3988 H   0  0  0  0  0  0
  -18.0247  -26.0101   22.8926 H   0  0  0  0  0  0
  -19.7932  -30.7225   24.2385 H   0  0  0  0  0  0
  -17.5012  -31.6266   24.5231 H   0  0  0  0  0  0
  -15.5383  -30.3004   23.7732 H   0  0  0  0  0  0
  -15.8683  -28.0886   22.7028 H   0  0  0  0  0  0
  -24.5892  -30.7032   25.7826 H   0  0  0  0  0  0
  -24.8910  -32.2805   26.4983 H   0  0  0  0  0  0
  -25.8100  -30.8816   27.0210 H   0  0  0  0  0  0
  -26.2833  -29.6827   24.1143 H   0  0  0  0  0  0
  -27.4096  -29.7298   25.4537 H   0  0  0  0  0  0
  -27.8660  -30.4425   23.9224 H   0  0  0  0  0  0
  -27.2639  -33.3600   26.2117 H   0  0  0  0  0  0
  -28.3804  -32.6935   25.0309 H   0  0  0  0  0  0
  -28.0715  -31.8419   26.5365 H   0  0  0  0  0  0
  -28.2635  -38.0101   24.7518 H   0  0  0  0  0  0
  -28.1069  -36.2635   24.6310 H   0  0  0  0  0  0
  -27.2297  -37.1487   25.8870 H   0  0  0  0  0  0
  -20.9296  -29.8843   21.7080 H   0  0  0  0  0  0
  -26.0223  -38.2906   24.1397 H   0  0  0  0  0  0
  -26.2649  -18.1390   19.3555 H   0  0  0  0  0  0
  -29.8574  -18.9157   23.8138 H   0  0  0  0  0  0
  -29.4380  -20.5493   23.3906 H   0  0  0  0  0  0
  -30.8248  -19.8181   22.6108 H   0  0  0  0  0  0
  -31.9669  -16.2781   22.1325 H   0  0  0  0  0  0
  -31.3256  -17.6150   22.9613 H   0  0  0  0  0  0
  -31.6559  -17.7447   21.2313 H   0  0  0  0  0  0
  -29.9006  -15.0013   23.2200 H   0  0  0  0  0  0
  -28.2600  -15.5577   22.8013 H   0  0  0  0  0  0
  -29.2932  -16.5340   23.7916 H   0  0  0  0  0  0
  -30.8245  -15.9031   18.5208 H   0  0  0  0  0  0
  -29.1068  -16.1369   18.6530 H   0  0  0  0  0  0
  -30.2171  -17.3607   19.2458 H   0  0  0  0  0  0
  -25.2333  -23.8750   20.6458 H   0  0  0  0  0  0
  -24.4503  -22.3664   20.2895 H   0  0  0  0  0  0
  -25.2235  -23.2659   18.9916 H   0  0  0  0  0  0
  -25.4679  -20.5346   19.6138 H   0  0  0  0  0  0
  -26.8498  -20.9068   18.6247 H   0  0  0  0  0  0
  -28.7382  -24.2461   21.3302 H   0  0  0  0  0  0
  -27.1201  -24.7284   21.0151 H   0  0  0  0  0  0
  -28.7003  -22.3902   19.9790 H   0  0  0  0  0  0
  -27.7417  -23.1308   18.7414 H   0  0  0  0  0  0
  -29.5880  -25.2617   19.3341 H   0  0  0  0  0  0
  -28.0429  -25.4142   18.5835 H   0  0  0  0  0  0
  -26.6724  -22.0579   21.2604 H   0  0  0  0  0  0
  1 25  1  0  0  0
  1 30  2  0  0  0
  1 87  1  0  0  0
  2  3  1  0  0  0
  2 25  1  0  0  0
  2 89  1  0  0  0
  2 90  1  0  0  0
  3  4  1  0  0  0
  3 91  1  0  0  0
  3 92  1  0  0  0
  4  5  1  0  0  0
  4 93  1  0  0  0
  4 94  1  0  0  0
  5  6  1  0  0  0
  5 26  1  0  0  0
  5 95  1  0  0  0
  6 25  1  0  0  0
  6 96  1  0  0  0
  6 97  1  0  0  0
  7  8  2  0  0  0
  7 26  1  0  0  0
  7 29  1  0  0  0
  8  9  1  0  0  0
  8 22  1  0  0  0
  9 10  1  0  0  0
  9 27  2  0  0  0
 10 11  2  0  0  0
 10 15  1  0  0  0
 11 12  1  0  0  0
 11 98  1  0  0  0
 12 13  2  0  0  0
 12 99  1  0  0  0
 13 14  1  0  0  0
 13 31  1  0  0  0
 14 15  2  0  0  0
 14100  1  0  0  0
 15101  1  0  0  0
 16 17  2  0  0  0
 16 21  1  0  0  0
 16 31  1  0  0  0
 17 18  1  0  0  0
 17102  1  0  0  0
 18 19  2  0  0  0
 18103  1  0  0  0
 19 20  1  0  0  0
 19 24  1  0  0  0
 20 21  2  0  0  0
 20104  1  0  0  0
 21 23  1  0  0  0
 22 28  1  0  0  0
 22 32  2  0  0  0
 26 27  1  0  0  0
 28105  1  0  0  0
 28106  1  0  0  0
 29107  1  0  0  0
 29108  1  0  0  0
 33 34  1  0  0  0
 33 66  1  0  0  0
 33 70  2  0  0  0
 34 36  1  0  0  0
 34 59  1  0  0  0
 34109  1  0  0  0
 35 44  2  0  0  0
 35 45  1  0  0  0
 35 68  1  0  0  0
 36 56  1  0  0  0
 36110  1  0  0  0
 37 39  1  0  0  0
 37 47  1  0  0  0
 37 66  1  0  0  0
 37111  1  0  0  0
 38 43  2  0  0  0
 38 46  1  0  0  0
 38 47  1  0  0  0
 39 64  1  0  0  0
 39 67  2  0  0  0
 40 52  1  0  0  0
 40 53  2  0  0  0
 40 58  1  0  0  0
 41112  1  0  0  0
 41113  1  0  0  0
 41114  1  0  0  0
 41 48  1  0  0  0
 42 43  1  0  0  0
 42 66  1  0  0  0
 42115  1  0  0  0
 42116  1  0  0  0
 43 44  1  0  0  0
 44117  1  0  0  0
 45 46  2  0  0  0
 45118  1  0  0  0
 46119  1  0  0  0
 47120  1  0  0  0
 47121  1  0  0  0
 48 56  1  0  0  0
 48 65  1  0  0  0
 48122  1  0  0  0
 49 50  1  0  0  0
 49 53  1  0  0  0
 49 64  1  0  0  0
 49123  1  0  0  0
 50 51  1  0  0  0
 50124  1  0  0  0
 50125  1  0  0  0
 51 52  1  0  0  0
 51126  1  0  0  0
 51127  1  0  0  0
 52128  1  0  0  0
 52129  1  0  0  0
 53 54  1  0  0  0
 54 55  2  0  0  0
 54130  1  0  0  0
 55 57  1  0  0  0
 55131  1  0  0  0
 56 69  2  0  0  0
 57 58  2  0  0  0
 57132  1  0  0  0
 58133  1  0  0  0
 59 60  1  0  0  0
 59 61  1  0  0  0
 59 62  1  0  0  0
 60134  1  0  0  0
 60135  1  0  0  0
 60136  1  0  0  0
 61137  1  0  0  0
 61138  1  0  0  0
 61139  1  0  0  0
 62140  1  0  0  0
 62141  1  0  0  0
 62142  1  0  0  0
 63 65  1  0  0  0
 63143  1  0  0  0
 63144  1  0  0  0
 63145  1  0  0  0
 64146  1  0  0  0
 65147  1  0  0  0
 68 83  1  0  0  0
 71 72  2  0  0  0
 71 85  1  0  0  0
 71148  1  0  0  0
 72 80  1  0  0  0
 72 86  1  0  0  0
 73 74  1  0  0  0
 73 75  1  0  0  0
 73 86  2  0  0  0
 74 84  1  0  0  0
 74 85  2  0  0  0
 75149  1  0  0  0
 75150  1  0  0  0
 75151  1  0  0  0
 76152  1  0  0  0
 76153  1  0  0  0
 76154  1  0  0  0
 76 84  1  0  0  0
 77 84  1  0  0  0
 77155  1  0  0  0
 77156  1  0  0  0
 77157  1  0  0  0
 78 87  1  0  0  0
 78158  1  0  0  0
 78159  1  0  0  0
 78160  1  0  0  0
 79161  1  0  0  0
 79162  1  0  0  0
 79163  1  0  0  0
 79 88  1  0  0  0
 80 88  1  0  0  0
 80164  1  0  0  0
 80165  1  0  0  0
 81 82  1  0  0  0
 81 83  1  0  0  0
 81166  1  0  0  0
 81167  1  0  0  0
 82 88  1  0  0  0
 82168  1  0  0  0
 82169  1  0  0  0
 83170  1  0  0  0
 83171  1  0  0  0
 84 87  1  0  0  0
 88172  1  0  0  0
M  CHG  1  88   1
M  ISO  4   1 100  68 101  83 101  87 100
M  END
> <chiral flag>
0

> <version>
0

> <s_m_source_file>
/data/baiqing/PycharmProjects/Reinvent-master-3.2/result/LINK_invent/BTK/process_docking_weight1_custom_sum_contain_oxygen_bond_distance_aromatic_linkinvent_7_9_3/rearranged_h_0055.sdf

> <i_m_source_file_index>
57

> <r_mmod_Potential_Energy-OPLS-2005>
72.3695297241211

> <r_mmod_Stretch_Energy-OPLS-2005>
55.4079895019531

> <r_mmod_Bend_Energy-OPLS-2005>
136.876907348633

> <r_mmod_Torsional_Energy-OPLS-2005>
300.132080078125

> <r_mmod_Improper_Torsional_Energy-OPLS-2005>
18.166431427002

> <r_mmod_Van_der_Waal_Energy-OPLS-2005>
188.637130737305

> <r_mmod_Electrostatic_Energy-OPLS-2005>
-223.779663085938

> <r_mmod_Solvation_Energy-OPLS-2005>
-423.983184814453

> <b_mmod_Minimization_Converged-OPLS-2005>
0

> <r_mmod_RMS_Derivative-OPLS-2005>
4.80038166046143

$$$$
57
                    3D
 Structure written by MMmdl.
151159  0  0  1  0            999 V2000
  -30.3953  -15.4199   20.3556 C   0  0  0  0  0  0
  -30.4380  -12.9299   19.5006 C   0  0  0  0  0  0
  -29.5311  -12.6017   18.2840 C   0  0  0  0  0  0
  -28.0947  -12.2783   18.7324 C   0  0  0  0  0  0
  -27.6054  -13.2616   19.8205 C   0  0  2  0  0  0
  -28.6514  -13.4942   20.9361 C   0  0  0  0  0  0
  -25.2344  -13.8142   20.5739 C   0  0  0  0  0  0
  -24.1701  -13.0362   20.9258 C   0  0  0  0  0  0
  -24.6369  -11.6868   20.8778 C   0  0  0  0  0  0
  -23.9062  -10.4249   21.0409 C   0  0  0  0  0  0
  -24.3621   -9.4179   21.9189 C   0  0  0  0  0  0
  -23.6295   -8.2221   22.0749 C   0  0  0  0  0  0
  -22.4281   -8.0261   21.3535 C   0  0  0  0  0  0
  -21.9912   -9.0228   20.4637 C   0  0  0  0  0  0
  -22.7241  -10.2101   20.3052 C   0  0  0  0  0  0
  -21.6860   -6.0724   22.5275 C   0  0  0  0  0  0
  -21.4019   -6.5628   23.8206 C   0  0  0  0  0  0
  -21.3653   -5.6782   24.9167 C   0  0  0  0  0  0
  -21.6045   -4.3046   24.7223 C   0  0  0  0  0  0
  -21.8830   -3.8138   23.4345 C   0  0  0  0  0  0
  -21.9196   -4.6953   22.3400 C   0  0  0  0  0  0
  -22.7730  -13.5143   21.1888 C   0  0  0  0  0  0
  -22.1672   -4.2140   21.0982 F   0  0  0  0  0  0
  -21.5615   -3.4533   25.7736 F   0  0  0  0  0  0
  -29.8376  -14.0877   20.2779 N   0  0  0  0  0  0
  -26.2797  -12.9417   20.3277 N   0  0  0  0  0  0
  -25.9311  -11.6538   20.5764 N   0  0  0  0  0  0
  -22.0389  -12.8142   22.0452 N   0  0  0  0  0  0
  -25.3836  -15.1864   20.4106 N   0  0  0  0  0  0
  -31.6324  -15.3688   20.2410 O   0  0  0  0  0  0
  -21.6640   -6.8865   21.4238 O   0  0  0  0  0  0
  -22.3428  -14.5458   20.6731 O   0  0  0  0  0  0
  -24.6715  -31.8150   23.1629 C   0  0  0  0  0  0
  -25.9352  -32.4545   23.8136 C   0  0  1  0  0  0
  -27.2282  -26.8519   20.1996 C   0  0  0  0  0  0
  -25.5983  -33.8360   24.2039 N   0  0  0  0  0  0
  -23.4918  -30.4227   21.5137 C   0  0  2  0  0  0
  -24.9474  -28.7910   20.1221 C   0  0  0  0  0  0
  -22.7725  -29.4393   22.4755 C   0  0  0  0  0  0
  -18.0337  -28.1412   22.8465 C   0  0  0  0  0  0
  -24.1499  -36.7188   23.2651 C   0  0  0  0  0  0
  -26.0663  -30.5983   21.4049 C   0  0  0  0  0  0
  -26.1356  -29.1779   20.7550 C   0  0  0  0  0  0
  -27.2715  -28.2343   20.7603 C   0  0  0  0  0  0
  -26.0062  -26.6354   19.5220 C   0  0  0  0  0  0
  -24.9117  -27.5408   19.4843 C   0  0  0  0  0  0
  -23.7386  -29.7291   20.1456 C   0  0  0  0  0  0
  -25.4141  -36.2941   24.0300 C   0  0  1  0  0  0
  -20.5968  -28.3764   23.1168 C   0  0  2  0  0  0
  -20.6807  -26.9436   22.5398 C   0  0  0  0  0  0
  -19.5775  -26.6376   21.5215 C   0  0  0  0  0  0
  -18.1962  -26.7943   22.1629 C   0  0  0  0  0  0
  -19.1602  -28.8913   23.2801 C   0  0  0  0  0  0
  -18.9505  -30.1501   23.8837 C   0  0  0  0  0  0
  -17.6494  -30.6595   24.0552 C   0  0  0  0  0  0
  -25.9109  -34.9324   23.4998 C   0  0  0  0  0  0
  -16.5384  -29.9078   23.6341 C   0  0  0  0  0  0
  -16.7319  -28.6502   23.0358 C   0  0  0  0  0  0
  -26.4574  -31.6514   25.0694 C   0  0  0  0  0  0
  -25.3679  -31.3777   26.1334 C   0  0  0  0  0  0
  -27.0490  -30.2874   24.6486 C   0  0  0  0  0  0
  -27.6061  -32.4339   25.7493 C   0  0  0  0  0  0
  -27.5572  -37.1754   24.8469 C   0  0  0  0  0  0
  -21.4383  -29.3040   22.3511 N   0  0  0  0  0  0
  -26.4282  -37.3684   23.9407 N   0  0  0  0  0  0
  -24.7649  -30.9748   22.0803 N   0  0  0  0  0  0
  -23.4234  -28.7969   23.3032 O   0  0  0  0  0  0
  -28.2257  -25.7129   20.1948 O   0  0  0  0  0  0
  -26.5727  -34.8873   22.4600 O   0  0  0  0  0  0
  -23.5762  -32.1145   23.6677 O   0  0  0  0  0  0
  -28.7292  -21.8625   18.8675 C   0  0  0  0  0  0
  -28.6258  -22.4796   20.1119 C   0  0  0  0  0  0
  -29.3112  -20.0034   20.1869 C   0  0  0  0  0  0
  -29.0896  -21.2323   22.3448 C   0  0  0  0  0  0
  -28.2089  -16.7127   20.2200 C   0  0  0  0  0  0
  -27.9581  -24.0863   20.5429 C   0  0  0  0  0  0
  -30.0389  -18.4037   20.5834 C   0  0  0  0  0  0
  -29.0094  -21.2449   20.8853 N   0  0  0  0  0  0
  -29.1074  -20.4945   18.9432 N   0  3  0  0  0  0
  -29.6557  -16.7580   20.3684 N   0  0  0  0  0  0
  -31.4369  -13.1771   19.1381 H   0  0  0  0  0  0
  -30.5729  -12.0508   20.1329 H   0  0  0  0  0  0
  -29.9440  -11.7712   17.7102 H   0  0  0  0  0  0
  -29.5135  -13.4579   17.6078 H   0  0  0  0  0  0
  -28.0861  -11.2626   19.1301 H   0  0  0  0  0  0
  -27.4172  -12.2786   17.8770 H   0  0  0  0  0  0
  -27.4865  -14.1952   19.2796 H   0  0  0  0  0  0
  -28.8865  -12.5632   21.4548 H   0  0  0  0  0  0
  -28.2694  -14.1634   21.7061 H   0  0  0  0  0  0
  -25.2764   -9.5663   22.4767 H   0  0  0  0  0  0
  -23.9998   -7.4617   22.7477 H   0  0  0  0  0  0
  -21.0839   -8.8747   19.8954 H   0  0  0  0  0  0
  -22.3698  -10.9640   19.6164 H   0  0  0  0  0  0
  -21.2026   -7.6139   23.9703 H   0  0  0  0  0  0
  -21.1456   -6.0511   25.9064 H   0  0  0  0  0  0
  -22.0618   -2.7601   23.2842 H   0  0  0  0  0  0
  -22.4037  -11.9816   22.4847 H   0  0  0  0  0  0
  -21.1001  -13.1143   22.2655 H   0  0  0  0  0  0
  -24.6073  -15.8283   20.5282 H   0  0  0  0  0  0
  -26.2261  -15.6380   20.0826 H   0  0  0  0  0  0
  -26.7431  -32.5067   23.0857 H   0  0  0  0  0  0
  -25.0064  -33.9418   25.0146 H   0  0  0  0  0  0
  -22.8096  -31.2556   21.3324 H   0  0  0  0  0  0
  -23.3774  -35.9505   23.3273 H   0  0  0  0  0  0
  -24.3579  -36.8873   22.2073 H   0  0  0  0  0  0
  -23.7244  -37.6361   23.6731 H   0  0  0  0  0  0
  -26.2550  -31.3330   20.6211 H   0  0  0  0  0  0
  -26.9227  -30.6606   22.0642 H   0  0  0  0  0  0
  -28.1764  -28.5384   21.2673 H   0  0  0  0  0  0
  -25.8697  -25.6870   19.0223 H   0  0  0  0  0  0
  -24.0120  -27.2370   18.9669 H   0  0  0  0  0  0
  -23.9061  -30.4903   19.3831 H   0  0  0  0  0  0
  -22.8481  -29.1867   19.8241 H   0  0  0  0  0  0
  -25.1344  -36.1729   25.0792 H   0  0  0  0  0  0
  -21.0060  -28.3367   24.1292 H   0  0  0  0  0  0
  -20.5686  -26.2383   23.3648 H   0  0  0  0  0  0
  -21.6666  -26.7394   22.1203 H   0  0  0  0  0  0
  -19.6927  -25.6274   21.1278 H   0  0  0  0  0  0
  -19.6706  -27.3157   20.6723 H   0  0  0  0  0  0
  -17.4230  -26.6690   21.4033 H   0  0  0  0  0  0
  -18.0350  -26.0098   22.9043 H   0  0  0  0  0  0
  -19.7978  -30.7339   24.2175 H   0  0  0  0  0  0
  -17.5039  -31.6266   24.5173 H   0  0  0  0  0  0
  -15.5381  -30.2957   23.7692 H   0  0  0  0  0  0
  -15.8725  -28.0798   22.7096 H   0  0  0  0  0  0
  -24.5872  -30.7122   25.7621 H   0  0  0  0  0  0
  -24.8855  -32.2980   26.4636 H   0  0  0  0  0  0
  -25.7886  -30.9007   27.0194 H   0  0  0  0  0  0
  -26.3173  -29.6521   24.1480 H   0  0  0  0  0  0
  -27.3979  -29.7275   25.5172 H   0  0  0  0  0  0
  -27.9130  -30.4040   23.9943 H   0  0  0  0  0  0
  -27.2627  -33.3691   26.1926 H   0  0  0  0  0  0
  -28.3934  -32.6818   25.0361 H   0  0  0  0  0  0
  -28.0658  -31.8562   26.5522 H   0  0  0  0  0  0
  -28.2569  -38.0068   24.7515 H   0  0  0  0  0  0
  -28.1091  -36.2597   24.6301 H   0  0  0  0  0  0
  -27.2288  -37.1392   25.8871 H   0  0  0  0  0  0
  -20.9662  -29.8731   21.6620 H   0  0  0  0  0  0
  -26.0127  -38.2743   24.1402 H   0  0  0  0  0  0
  -28.5218  -22.3037   17.9025 H   0  0  0  0  0  0
  -28.2223  -20.7064   22.7443 H   0  0  0  0  0  0
  -29.1042  -22.2541   22.7215 H   0  0  0  0  0  0
  -30.0033  -20.7279   22.6579 H   0  0  0  0  0  0
  -27.7493  -17.7002   20.2491 H   0  0  0  0  0  0
  -27.7656  -16.1528   21.0391 H   0  0  0  0  0  0
  -27.9438  -16.2748   19.2591 H   0  0  0  0  0  0
  -27.9859  -24.0895   21.6316 H   0  0  0  0  0  0
  -26.8961  -23.9705   20.3298 H   0  0  0  0  0  0
  -30.1985  -18.4848   21.6581 H   0  0  0  0  0  0
  -31.0405  -18.4957   20.1630 H   0  0  0  0  0  0
  -29.2399  -19.9288   18.1135 H   0  0  0  0  0  0
  1 25  1  0  0  0
  1 30  2  0  0  0
  1 80  1  0  0  0
  2  3  1  0  0  0
  2 25  1  0  0  0
  2 81  1  0  0  0
  2 82  1  0  0  0
  3  4  1  0  0  0
  3 83  1  0  0  0
  3 84  1  0  0  0
  4  5  1  0  0  0
  4 85  1  0  0  0
  4 86  1  0  0  0
  5  6  1  0  0  0
  5 26  1  0  0  0
  5 87  1  0  0  0
  6 25  1  0  0  0
  6 88  1  0  0  0
  6 89  1  0  0  0
  7  8  2  0  0  0
  7 26  1  0  0  0
  7 29  1  0  0  0
  8  9  1  0  0  0
  8 22  1  0  0  0
  9 10  1  0  0  0
  9 27  2  0  0  0
 10 11  2  0  0  0
 10 15  1  0  0  0
 11 12  1  0  0  0
 11 90  1  0  0  0
 12 13  2  0  0  0
 12 91  1  0  0  0
 13 14  1  0  0  0
 13 31  1  0  0  0
 14 15  2  0  0  0
 14 92  1  0  0  0
 15 93  1  0  0  0
 16 17  2  0  0  0
 16 21  1  0  0  0
 16 31  1  0  0  0
 17 18  1  0  0  0
 17 94  1  0  0  0
 18 19  2  0  0  0
 18 95  1  0  0  0
 19 20  1  0  0  0
 19 24  1  0  0  0
 20 21  2  0  0  0
 20 96  1  0  0  0
 21 23  1  0  0  0
 22 28  1  0  0  0
 22 32  2  0  0  0
 26 27  1  0  0  0
 28 97  1  0  0  0
 28 98  1  0  0  0
 29 99  1  0  0  0
 29100  1  0  0  0
 33 34  1  0  0  0
 33 66  1  0  0  0
 33 70  2  0  0  0
 34 36  1  0  0  0
 34 59  1  0  0  0
 34101  1  0  0  0
 35 44  2  0  0  0
 35 45  1  0  0  0
 35 68  1  0  0  0
 36 56  1  0  0  0
 36102  1  0  0  0
 37 39  1  0  0  0
 37 47  1  0  0  0
 37 66  1  0  0  0
 37103  1  0  0  0
 38 43  2  0  0  0
 38 46  1  0  0  0
 38 47  1  0  0  0
 39 64  1  0  0  0
 39 67  2  0  0  0
 40 52  1  0  0  0
 40 53  2  0  0  0
 40 58  1  0  0  0
 41104  1  0  0  0
 41105  1  0  0  0
 41106  1  0  0  0
 41 48  1  0  0  0
 42 43  1  0  0  0
 42 66  1  0  0  0
 42107  1  0  0  0
 42108  1  0  0  0
 43 44  1  0  0  0
 44109  1  0  0  0
 45 46  2  0  0  0
 45110  1  0  0  0
 46111  1  0  0  0
 47112  1  0  0  0
 47113  1  0  0  0
 48 56  1  0  0  0
 48 65  1  0  0  0
 48114  1  0  0  0
 49 50  1  0  0  0
 49 53  1  0  0  0
 49 64  1  0  0  0
 49115  1  0  0  0
 50 51  1  0  0  0
 50116  1  0  0  0
 50117  1  0  0  0
 51 52  1  0  0  0
 51118  1  0  0  0
 51119  1  0  0  0
 52120  1  0  0  0
 52121  1  0  0  0
 53 54  1  0  0  0
 54 55  2  0  0  0
 54122  1  0  0  0
 55 57  1  0  0  0
 55123  1  0  0  0
 56 69  2  0  0  0
 57 58  2  0  0  0
 57124  1  0  0  0
 58125  1  0  0  0
 59 60  1  0  0  0
 59 61  1  0  0  0
 59 62  1  0  0  0
 60126  1  0  0  0
 60127  1  0  0  0
 60128  1  0  0  0
 61129  1  0  0  0
 61130  1  0  0  0
 61131  1  0  0  0
 62132  1  0  0  0
 62133  1  0  0  0
 62134  1  0  0  0
 63 65  1  0  0  0
 63135  1  0  0  0
 63136  1  0  0  0
 63137  1  0  0  0
 64138  1  0  0  0
 65139  1  0  0  0
 68 76  1  0  0  0
 71 72  2  0  0  0
 71 79  1  0  0  0
 71140  1  0  0  0
 72 76  1  0  0  0
 72 78  1  0  0  0
 73 77  1  0  0  0
 73 78  1  0  0  0
 73 79  2  0  0  0
 74 78  1  0  0  0
 74141  1  0  0  0
 74142  1  0  0  0
 74143  1  0  0  0
 75 80  1  0  0  0
 75144  1  0  0  0
 75145  1  0  0  0
 75146  1  0  0  0
 76147  1  0  0  0
 76148  1  0  0  0
 77 80  1  0  0  0
 77149  1  0  0  0
 77150  1  0  0  0
 79151  1  0  0  0
M  CHG  1  79   1
M  ISO  4   1 100  68 101  76 101  80 100
M  END
> <chiral flag>
0

> <version>
0

> <s_m_source_file>
/data/baiqing/PycharmProjects/Reinvent-master-3.2/result/LINK_invent/BTK/process_docking_weight1_custom_sum_contain_oxygen_bond_distance_aromatic_linkinvent_7_9_3/rearranged_h_0055.sdf

> <i_m_source_file_index>
58

> <r_mmod_Potential_Energy-OPLS-2005>
1581.57739257812

> <r_mmod_Stretch_Energy-OPLS-2005>
719.135620117188

> <r_mmod_Bend_Energy-OPLS-2005>
504.741943359375

> <r_mmod_Torsional_Energy-OPLS-2005>
273.183288574219

> <r_mmod_Improper_Torsional_Energy-OPLS-2005>
6.01253843307495

> <r_mmod_Van_der_Waal_Energy-OPLS-2005>
110.892692565918

> <r_mmod_Electrostatic_Energy-OPLS-2005>
-196.374710083008

> <r_mmod_Solvation_Energy-OPLS-2005>
-437.081817626953

> <b_mmod_Minimization_Converged-OPLS-2005>
0

> <r_mmod_RMS_Derivative-OPLS-2005>
1.16785061359406

$$$$
58
                    3D
 Structure written by MMmdl.
163171  0  0  1  0            999 V2000
  -30.7178  -14.6559   20.3857 C   0  0  0  0  0  0
  -30.4185  -12.3849   19.4584 C   0  0  0  0  0  0
  -29.5018  -12.4479   18.2213 C   0  0  0  0  0  0
  -28.0228  -12.3184   18.6432 C   0  0  0  0  0  0
  -27.6361  -13.2246   19.8476 C   0  0  2  0  0  0
  -28.7031  -13.2014   20.9652 C   0  0  0  0  0  0
  -25.2517  -13.8186   20.5760 C   0  0  0  0  0  0
  -24.1804  -13.0426   20.9220 C   0  0  0  0  0  0
  -24.6397  -11.6904   20.8779 C   0  0  0  0  0  0
  -23.9076  -10.4290   21.0424 C   0  0  0  0  0  0
  -24.3634   -9.4213   21.9196 C   0  0  0  0  0  0
  -23.6289   -8.2262   22.0751 C   0  0  0  0  0  0
  -22.4270   -8.0310   21.3540 C   0  0  0  0  0  0
  -21.9908   -9.0285   20.4643 C   0  0  0  0  0  0
  -22.7249  -10.2150   20.3059 C   0  0  0  0  0  0
  -21.6875   -6.0767   22.5261 C   0  0  0  0  0  0
  -21.4044   -6.5652   23.8201 C   0  0  0  0  0  0
  -21.3642   -5.6778   24.9146 C   0  0  0  0  0  0
  -21.6030   -4.3047   24.7194 C   0  0  0  0  0  0
  -21.8819   -3.8163   23.4310 C   0  0  0  0  0  0
  -21.9211   -4.6994   22.3381 C   0  0  0  0  0  0
  -22.7825  -13.5222   21.1838 C   0  0  0  0  0  0
  -22.1667   -4.2184   21.0961 F   0  0  0  0  0  0
  -21.5595   -3.4530   25.7711 F   0  0  0  0  0  0
  -30.0036  -13.4859   20.3454 N   0  0  0  0  0  0
  -26.2943  -12.9369   20.3383 N   0  0  0  0  0  0
  -25.9332  -11.6514   20.5837 N   0  0  0  0  0  0
  -22.0457  -12.8233   22.0406 N   0  0  0  0  0  0
  -25.4172  -15.1927   20.4173 N   0  0  0  0  0  0
  -31.9443  -14.6379   20.2778 O   0  0  0  0  0  0
  -21.6624   -6.8917   21.4235 O   0  0  0  0  0  0
  -22.3506  -14.5527   20.6671 O   0  0  0  0  0  0
  -24.6227  -31.8609   23.2017 C   0  0  0  0  0  0
  -25.9088  -32.4788   23.8350 C   0  0  1  0  0  0
  -27.2357  -27.3527   20.1185 C   0  0  0  0  0  0
  -25.5916  -33.8573   24.2286 N   0  0  0  0  0  0
  -23.4154  -30.4823   21.5444 C   0  0  2  0  0  0
  -24.8680  -28.9370   20.1140 C   0  0  0  0  0  0
  -22.7459  -29.4624   22.4946 C   0  0  0  0  0  0
  -18.0293  -28.1384   22.8497 C   0  0  0  0  0  0
  -24.1490  -36.7301   23.2638 C   0  0  0  0  0  0
  -25.9532  -30.8033   21.3680 C   0  0  0  0  0  0
  -26.0340  -29.4314   20.7140 C   0  0  0  0  0  0
  -27.2256  -28.6506   20.7060 C   0  0  0  0  0  0
  -26.0509  -26.8978   19.5008 C   0  0  0  0  0  0
  -24.8747  -27.6734   19.4996 C   0  0  0  0  0  0
  -23.6305  -29.8104   20.1620 C   0  0  0  0  0  0
  -25.4114  -36.3081   24.0330 C   0  0  1  0  0  0
  -20.5886  -28.3681   23.1297 C   0  0  2  0  0  0
  -20.6769  -26.9406   22.5415 C   0  0  0  0  0  0
  -19.5745  -26.6382   21.5220 C   0  0  0  0  0  0
  -18.1931  -26.7927   22.1631 C   0  0  0  0  0  0
  -19.1540  -28.8855   23.2889 C   0  0  0  0  0  0
  -18.9458  -30.1459   23.8896 C   0  0  0  0  0  0
  -17.6458  -30.6583   24.0571 C   0  0  0  0  0  0
  -25.9043  -34.9456   23.5114 C   0  0  0  0  0  0
  -16.5350  -29.9079   23.6331 C   0  0  0  0  0  0
  -16.7275  -28.6498   23.0351 C   0  0  0  0  0  0
  -26.4483  -31.6579   25.0705 C   0  0  0  0  0  0
  -25.3743  -31.3702   26.1455 C   0  0  0  0  0  0
  -27.0323  -30.3011   24.6128 C   0  0  0  0  0  0
  -27.6047  -32.4312   25.7476 C   0  0  0  0  0  0
  -27.5578  -37.1798   24.8463 C   0  0  0  0  0  0
  -21.4186  -29.3035   22.3686 N   0  0  0  0  0  0
  -26.4286  -37.3773   23.9403 N   0  0  0  0  0  0
  -24.6823  -31.0642   22.0962 N   0  0  0  0  0  0
  -23.4206  -28.8173   23.3007 O   0  0  0  0  0  0
  -28.3509  -26.5114   20.1286 O   0  0  0  0  0  0
  -26.5606  -34.8913   22.4674 O   0  0  0  0  0  0
  -23.5407  -32.1384   23.7376 O   0  0  0  0  0  0
  -30.8462  -19.6693   20.3581 C   0  0  0  0  0  0
  -28.3278  -20.0602   21.1779 C   0  0  0  0  0  0
  -30.0365  -18.5446   20.6974 C   0  0  0  0  0  0
  -29.1641  -21.2003   20.9412 C   0  0  0  0  0  0
  -30.6723  -16.4574   17.8407 C   0  0  0  0  0  0
  -27.4319  -22.6356   22.1665 C   0  0  0  0  0  0
  -29.8462  -22.9922   22.5600 C   0  0  0  0  0  0
  -30.6503  -17.1046   20.8646 C   0  0  0  0  0  0
  -28.8046  -23.8722   20.4045 C   0  0  0  0  0  0
  -29.5572  -16.1869   18.8732 C   0  0  0  0  0  0
  -28.2067  -25.2726   20.9049 C   0  0  0  0  0  0
  -28.8095  -22.6616   21.4598 C   0  0  0  0  0  0
  -28.7485  -18.7610   21.0745 N   0  0  0  0  0  0
  -30.4251  -20.9695   20.4736 N   0  0  0  0  0  0
  -30.0646  -15.8667   20.2256 N   0  0  0  0  0  0
  -31.4639  -12.4649   19.1553 H   0  0  0  0  0  0
  -30.3211  -11.4250   19.9696 H   0  0  0  0  0  0
  -29.7581  -11.6496   17.5246 H   0  0  0  0  0  0
  -29.6645  -13.3804   17.6797 H   0  0  0  0  0  0
  -27.8588  -11.2740   18.9101 H   0  0  0  0  0  0
  -27.3697  -12.5189   17.7942 H   0  0  0  0  0  0
  -27.5857  -14.2361   19.4653 H   0  0  0  0  0  0
  -28.7244  -12.2329   21.4647 H   0  0  0  0  0  0
  -28.4679  -13.9454   21.7267 H   0  0  0  0  0  0
  -25.2797   -9.5705   22.4737 H   0  0  0  0  0  0
  -24.0022   -7.4664   22.7461 H   0  0  0  0  0  0
  -21.0826   -8.8813   19.8942 H   0  0  0  0  0  0
  -22.3730  -10.9693   19.6153 H   0  0  0  0  0  0
  -21.2066   -7.6163   23.9739 H   0  0  0  0  0  0
  -21.1433   -6.0490   25.9052 H   0  0  0  0  0  0
  -22.0624   -2.7637   23.2781 H   0  0  0  0  0  0
  -22.4078  -11.9925   22.4847 H   0  0  0  0  0  0
  -21.1073  -13.1278   22.2584 H   0  0  0  0  0  0
  -24.6520  -15.8450   20.5475 H   0  0  0  0  0  0
  -26.2786  -15.6464   20.1385 H   0  0  0  0  0  0
  -26.7158  -32.5456   23.1099 H   0  0  0  0  0  0
  -25.0054  -33.9733   25.0432 H   0  0  0  0  0  0
  -22.7071  -31.3009   21.3996 H   0  0  0  0  0  0
  -23.3741  -35.9647   23.3310 H   0  0  0  0  0  0
  -24.3576  -36.8910   22.2049 H   0  0  0  0  0  0
  -23.7271  -37.6515   23.6660 H   0  0  0  0  0  0
  -26.0755  -31.5663   20.5978 H   0  0  0  0  0  0
  -26.8364  -30.8590   21.9915 H   0  0  0  0  0  0
  -28.1225  -29.0279   21.1769 H   0  0  0  0  0  0
  -26.0350  -25.9257   19.0292 H   0  0  0  0  0  0
  -23.9805  -27.2867   19.0314 H   0  0  0  0  0  0
  -23.7428  -30.5836   19.4014 H   0  0  0  0  0  0
  -22.7534  -29.2332   19.8636 H   0  0  0  0  0  0
  -25.1297  -36.1921   25.0821 H   0  0  0  0  0  0
  -20.9990  -28.3245   24.1413 H   0  0  0  0  0  0
  -20.5682  -26.2283   23.3603 H   0  0  0  0  0  0
  -21.6633  -26.7431   22.1202 H   0  0  0  0  0  0
  -19.6896  -25.6299   21.1230 H   0  0  0  0  0  0
  -19.6684  -27.3206   20.6759 H   0  0  0  0  0  0
  -17.4202  -26.6703   21.4026 H   0  0  0  0  0  0
  -18.0322  -26.0071   22.9020 H   0  0  0  0  0  0
  -19.7936  -30.7288   24.2256 H   0  0  0  0  0  0
  -17.5007  -31.6261   24.5174 H   0  0  0  0  0  0
  -15.5352  -30.2977   23.7651 H   0  0  0  0  0  0
  -15.8680  -28.0812   22.7059 H   0  0  0  0  0  0
  -24.5925  -30.7041   25.7788 H   0  0  0  0  0  0
  -24.8936  -32.2872   26.4878 H   0  0  0  0  0  0
  -25.8099  -30.8886   27.0224 H   0  0  0  0  0  0
  -26.2888  -29.6760   24.1179 H   0  0  0  0  0  0
  -27.4065  -29.7247   25.4595 H   0  0  0  0  0  0
  -27.8731  -30.4291   23.9313 H   0  0  0  0  0  0
  -27.2669  -33.3610   26.2052 H   0  0  0  0  0  0
  -28.3868  -32.6876   25.0324 H   0  0  0  0  0  0
  -28.0723  -31.8453   26.5392 H   0  0  0  0  0  0
  -28.2594  -38.0089   24.7490 H   0  0  0  0  0  0
  -28.1073  -36.2619   24.6316 H   0  0  0  0  0  0
  -27.2291  -37.1488   25.8862 H   0  0  0  0  0  0
  -20.9363  -29.8748   21.6899 H   0  0  0  0  0  0
  -26.0166  -38.2843   24.1402 H   0  0  0  0  0  0
  -31.8779  -19.5362   20.0631 H   0  0  0  0  0  0
  -27.3214  -20.1650   21.5530 H   0  0  0  0  0  0
  -30.2406  -16.6755   16.8633 H   0  0  0  0  0  0
  -31.3274  -15.5930   17.7177 H   0  0  0  0  0  0
  -31.2914  -17.3141   18.1129 H   0  0  0  0  0  0
  -27.3949  -21.8833   22.9556 H   0  0  0  0  0  0
  -26.6268  -22.4318   21.4604 H   0  0  0  0  0  0
  -27.2012  -23.5726   22.6716 H   0  0  0  0  0  0
  -29.8862  -22.2035   23.3136 H   0  0  0  0  0  0
  -29.6200  -23.9199   23.0834 H   0  0  0  0  0  0
  -30.8469  -23.0941   22.1362 H   0  0  0  0  0  0
  -30.7214  -16.9197   21.9372 H   0  0  0  0  0  0
  -31.6868  -17.1831   20.5280 H   0  0  0  0  0  0
  -29.8259  -24.0333   20.0611 H   0  0  0  0  0  0
  -28.2498  -23.5648   19.5186 H   0  0  0  0  0  0
  -28.8636  -17.0272   18.9063 H   0  0  0  0  0  0
  -28.9708  -15.3685   18.4760 H   0  0  0  0  0  0
  -28.6575  -25.5095   21.8661 H   0  0  0  0  0  0
  -27.1517  -25.1192   21.1253 H   0  0  0  0  0  0
  1 25  1  0  0  0
  1 30  2  0  0  0
  1 85  1  0  0  0
  2  3  1  0  0  0
  2 25  1  0  0  0
  2 86  1  0  0  0
  2 87  1  0  0  0
  3  4  1  0  0  0
  3 88  1  0  0  0
  3 89  1  0  0  0
  4  5  1  0  0  0
  4 90  1  0  0  0
  4 91  1  0  0  0
  5  6  1  0  0  0
  5 26  1  0  0  0
  5 92  1  0  0  0
  6 25  1  0  0  0
  6 93  1  0  0  0
  6 94  1  0  0  0
  7  8  2  0  0  0
  7 26  1  0  0  0
  7 29  1  0  0  0
  8  9  1  0  0  0
  8 22  1  0  0  0
  9 10  1  0  0  0
  9 27  2  0  0  0
 10 11  2  0  0  0
 10 15  1  0  0  0
 11 12  1  0  0  0
 11 95  1  0  0  0
 12 13  2  0  0  0
 12 96  1  0  0  0
 13 14  1  0  0  0
 13 31  1  0  0  0
 14 15  2  0  0  0
 14 97  1  0  0  0
 15 98  1  0  0  0
 16 17  2  0  0  0
 16 21  1  0  0  0
 16 31  1  0  0  0
 17 18  1  0  0  0
 17 99  1  0  0  0
 18 19  2  0  0  0
 18100  1  0  0  0
 19 20  1  0  0  0
 19 24  1  0  0  0
 20 21  2  0  0  0
 20101  1  0  0  0
 21 23  1  0  0  0
 22 28  1  0  0  0
 22 32  2  0  0  0
 26 27  1  0  0  0
 28102  1  0  0  0
 28103  1  0  0  0
 29104  1  0  0  0
 29105  1  0  0  0
 33 34  1  0  0  0
 33 66  1  0  0  0
 33 70  2  0  0  0
 34 36  1  0  0  0
 34 59  1  0  0  0
 34106  1  0  0  0
 35 44  2  0  0  0
 35 45  1  0  0  0
 35 68  1  0  0  0
 36 56  1  0  0  0
 36107  1  0  0  0
 37 39  1  0  0  0
 37 47  1  0  0  0
 37 66  1  0  0  0
 37108  1  0  0  0
 38 43  2  0  0  0
 38 46  1  0  0  0
 38 47  1  0  0  0
 39 64  1  0  0  0
 39 67  2  0  0  0
 40 52  1  0  0  0
 40 53  2  0  0  0
 40 58  1  0  0  0
 41109  1  0  0  0
 41110  1  0  0  0
 41111  1  0  0  0
 41 48  1  0  0  0
 42 43  1  0  0  0
 42 66  1  0  0  0
 42112  1  0  0  0
 42113  1  0  0  0
 43 44  1  0  0  0
 44114  1  0  0  0
 45 46  2  0  0  0
 45115  1  0  0  0
 46116  1  0  0  0
 47117  1  0  0  0
 47118  1  0  0  0
 48 56  1  0  0  0
 48 65  1  0  0  0
 48119  1  0  0  0
 49 50  1  0  0  0
 49 53  1  0  0  0
 49 64  1  0  0  0
 49120  1  0  0  0
 50 51  1  0  0  0
 50121  1  0  0  0
 50122  1  0  0  0
 51 52  1  0  0  0
 51123  1  0  0  0
 51124  1  0  0  0
 52125  1  0  0  0
 52126  1  0  0  0
 53 54  1  0  0  0
 54 55  2  0  0  0
 54127  1  0  0  0
 55 57  1  0  0  0
 55128  1  0  0  0
 56 69  2  0  0  0
 57 58  2  0  0  0
 57129  1  0  0  0
 58130  1  0  0  0
 59 60  1  0  0  0
 59 61  1  0  0  0
 59 62  1  0  0  0
 60131  1  0  0  0
 60132  1  0  0  0
 60133  1  0  0  0
 61134  1  0  0  0
 61135  1  0  0  0
 61136  1  0  0  0
 62137  1  0  0  0
 62138  1  0  0  0
 62139  1  0  0  0
 63 65  1  0  0  0
 63140  1  0  0  0
 63141  1  0  0  0
 63142  1  0  0  0
 64143  1  0  0  0
 65144  1  0  0  0
 68 81  1  0  0  0
 71 73  2  0  0  0
 71 84  1  0  0  0
 71145  1  0  0  0
 72 74  1  0  0  0
 72 83  2  0  0  0
 72146  1  0  0  0
 73 78  1  0  0  0
 73 83  1  0  0  0
 74 82  1  0  0  0
 74 84  2  0  0  0
 75 80  1  0  0  0
 75147  1  0  0  0
 75148  1  0  0  0
 75149  1  0  0  0
 76150  1  0  0  0
 76151  1  0  0  0
 76152  1  0  0  0
 76 82  1  0  0  0
 77 82  1  0  0  0
 77153  1  0  0  0
 77154  1  0  0  0
 77155  1  0  0  0
 78 85  1  0  0  0
 78156  1  0  0  0
 78157  1  0  0  0
 79 81  1  0  0  0
 79 82  1  0  0  0
 79158  1  0  0  0
 79159  1  0  0  0
 80 85  1  0  0  0
 80160  1  0  0  0
 80161  1  0  0  0
 81162  1  0  0  0
 81163  1  0  0  0
M  ISO  4   1 100  68 101  81 101  85 100
M  END
> <chiral flag>
0

> <version>
0

> <s_m_source_file>
/data/baiqing/PycharmProjects/Reinvent-master-3.2/result/LINK_invent/BTK/process_docking_weight1_custom_sum_contain_oxygen_bond_distance_aromatic_linkinvent_7_9_3/rearranged_h_0055.sdf

> <i_m_source_file_index>
59

> <r_mmod_Potential_Energy-OPLS-2005>
357.861297607422

> <r_mmod_Stretch_Energy-OPLS-2005>
89.3214111328125

> <r_mmod_Bend_Energy-OPLS-2005>
155.49137878418

> <r_mmod_Torsional_Energy-OPLS-2005>
320.967712402344

> <r_mmod_Improper_Torsional_Energy-OPLS-2005>
13.8297424316406

> <r_mmod_Van_der_Waal_Energy-OPLS-2005>
160.7060546875

> <r_mmod_Electrostatic_Energy-OPLS-2005>
-249.478561401367

> <r_mmod_Solvation_Energy-OPLS-2005>
-195.843200683594

> <b_mmod_Minimization_Converged-OPLS-2005>
0

> <r_mmod_RMS_Derivative-OPLS-2005>
3.51704812049866

$$$$
59
                    3D
 Structure written by MMmdl.
180189  0  0  1  0            999 V2000
  -30.7674  -14.3984   20.6622 C   0  0  0  0  0  0
  -30.4226  -12.2979   19.4183 C   0  0  0  0  0  0
  -29.4980  -12.5082   18.2043 C   0  0  0  0  0  0
  -28.0157  -12.3897   18.6111 C   0  0  0  0  0  0
  -27.6670  -13.2143   19.8813 C   0  0  2  0  0  0
  -28.7052  -12.9760   21.0009 C   0  0  0  0  0  0
  -25.2578  -13.8182   20.5718 C   0  0  0  0  0  0
  -24.1828  -13.0449   20.9194 C   0  0  0  0  0  0
  -24.6382  -11.6918   20.8720 C   0  0  0  0  0  0
  -23.9030  -10.4307   21.0401 C   0  0  0  0  0  0
  -24.3592   -9.4235   21.9171 C   0  0  0  0  0  0
  -23.6302   -8.2252   22.0743 C   0  0  0  0  0  0
  -22.4284   -8.0276   21.3542 C   0  0  0  0  0  0
  -21.9910   -9.0245   20.4642 C   0  0  0  0  0  0
  -22.7210  -10.2138   20.3044 C   0  0  0  0  0  0
  -21.6855   -6.0727   22.5280 C   0  0  0  0  0  0
  -21.4018   -6.5641   23.8221 C   0  0  0  0  0  0
  -21.3661   -5.6797   24.9186 C   0  0  0  0  0  0
  -21.6055   -4.3041   24.7222 C   0  0  0  0  0  0
  -21.8837   -3.8130   23.4346 C   0  0  0  0  0  0
  -21.9195   -4.6956   22.3397 C   0  0  0  0  0  0
  -22.7855  -13.5250   21.1872 C   0  0  0  0  0  0
  -22.1662   -4.2149   21.0967 F   0  0  0  0  0  0
  -21.5629   -3.4517   25.7715 F   0  0  0  0  0  0
  -30.0468  -13.2644   20.4600 N   0  0  0  0  0  0
  -26.3046  -12.9369   20.3380 N   0  0  0  0  0  0
  -25.9312  -11.6521   20.5764 N   0  0  0  0  0  0
  -22.0457  -12.8241   22.0412 N   0  0  0  0  0  0
  -25.4247  -15.1939   20.4229 N   0  0  0  0  0  0
  -31.8104  -14.6570   20.0555 O   0  0  0  0  0  0
  -21.6638   -6.8879   21.4247 O   0  0  0  0  0  0
  -22.3529  -14.5546   20.6703 O   0  0  0  0  0  0
  -24.6248  -31.8664   23.2122 C   0  0  0  0  0  0
  -25.9122  -32.4812   23.8400 C   0  0  1  0  0  0
  -27.2203  -27.3962   20.0470 C   0  0  0  0  0  0
  -25.5973  -33.8616   24.2319 N   0  0  0  0  0  0
  -23.4090  -30.4976   21.5566 C   0  0  2  0  0  0
  -24.8434  -28.9639   20.1163 C   0  0  0  0  0  0
  -22.7449  -29.4668   22.5004 C   0  0  0  0  0  0
  -18.0278  -28.1387   22.8511 C   0  0  0  0  0  0
  -24.1489  -36.7305   23.2622 C   0  0  0  0  0  0
  -25.9469  -30.8121   21.3732 C   0  0  0  0  0  0
  -26.0148  -29.4455   20.7132 C   0  0  0  0  0  0
  -27.2016  -28.6678   20.6839 C   0  0  0  0  0  0
  -26.0117  -26.9506   19.4460 C   0  0  0  0  0  0
  -24.8377  -27.7146   19.4864 C   0  0  0  0  0  0
  -23.6148  -29.8396   20.1700 C   0  0  0  0  0  0
  -25.4098  -36.3096   24.0342 C   0  0  1  0  0  0
  -20.5875  -28.3679   23.1309 C   0  0  2  0  0  0
  -20.6781  -26.9421   22.5409 C   0  0  0  0  0  0
  -19.5753  -26.6394   21.5224 C   0  0  0  0  0  0
  -18.1925  -26.7938   22.1627 C   0  0  0  0  0  0
  -19.1531  -28.8853   23.2896 C   0  0  0  0  0  0
  -18.9454  -30.1465   23.8904 C   0  0  0  0  0  0
  -17.6454  -30.6591   24.0570 C   0  0  0  0  0  0
  -25.9066  -34.9472   23.5114 C   0  0  0  0  0  0
  -16.5348  -29.9094   23.6328 C   0  0  0  0  0  0
  -16.7266  -28.6509   23.0366 C   0  0  0  0  0  0
  -26.4505  -31.6600   25.0748 C   0  0  0  0  0  0
  -25.3768  -31.3734   26.1512 C   0  0  0  0  0  0
  -27.0294  -30.3024   24.6137 C   0  0  0  0  0  0
  -27.6069  -32.4319   25.7515 C   0  0  0  0  0  0
  -27.5584  -37.1794   24.8445 C   0  0  0  0  0  0
  -21.4171  -29.3056   22.3726 N   0  0  0  0  0  0
  -26.4256  -37.3813   23.9455 N   0  0  0  0  0  0
  -24.6796  -31.0738   22.1041 N   0  0  0  0  0  0
  -23.4202  -28.8209   23.3052 O   0  0  0  0  0  0
  -28.3772  -26.6179   20.0216 O   0  0  0  0  0  0
  -26.5600  -34.8943   22.4666 O   0  0  0  0  0  0
  -23.5436  -32.1393   23.7523 O   0  0  0  0  0  0
  -31.0653  -22.2386   19.9558 C   0  0  0  0  0  0
  -28.0115  -19.7292   20.3432 C   0  0  0  0  0  0
  -31.1454  -23.4341   20.6808 C   0  0  0  0  0  0
  -30.0798  -22.1365   18.9599 C   0  0  0  0  0  0
  -27.5698  -19.0950   21.4766 C   0  0  0  0  0  0
  -29.3855  -24.2877   19.4983 C   0  0  0  0  0  0
  -29.6334  -18.3744   21.0187 C   0  0  0  0  0  0
  -32.2029  -23.6233   21.7445 C   0  0  0  0  0  0
  -26.2745  -19.1837   22.2203 C   0  0  0  0  0  0
  -31.3443  -19.7002   16.1125 C   0  0  0  0  0  0
  -28.4967  -21.5912   15.9308 C   0  0  0  0  0  0
  -28.2656  -25.3291   19.3513 C   0  0  0  0  0  0
  -30.9497  -17.6552   21.1642 C   0  0  0  0  0  0
  -31.1604  -20.9248   17.0417 C   0  0  0  0  0  0
  -28.6102  -20.8091   17.2611 C   0  0  0  0  0  0
  -30.1632  -19.5617   18.9069 C   0  0  0  0  0  0
  -30.9817  -16.4233   22.1060 C   0  0  0  0  0  0
  -29.9705  -20.8748   18.0534 C   0  0  0  0  0  0
  -30.2937  -24.4548   20.4597 N   0  0  0  0  0  0
  -29.2703  -23.1945   18.7334 N   0  0  0  0  0  0
  -29.2791  -19.2704   20.0681 N   0  0  0  0  0  0
  -28.6026  -18.2886   21.8695 N   0  3  0  0  0  0
  -30.2859  -15.2357   21.5935 N   0  0  0  0  0  0
  -31.4694  -12.3967   19.1208 H   0  0  0  0  0  0
  -30.3256  -11.2828   19.8056 H   0  0  0  0  0  0
  -29.7351  -11.7752   17.4317 H   0  0  0  0  0  0
  -29.6831  -13.4888   17.7652 H   0  0  0  0  0  0
  -27.8064  -11.3348   18.7879 H   0  0  0  0  0  0
  -27.3767  -12.6887   17.7780 H   0  0  0  0  0  0
  -27.7204  -14.2688   19.6057 H   0  0  0  0  0  0
  -28.6694  -11.9390   21.3371 H   0  0  0  0  0  0
  -28.4553  -13.5647   21.8833 H   0  0  0  0  0  0
  -25.2751   -9.5719   22.4739 H   0  0  0  0  0  0
  -24.0039   -7.4643   22.7442 H   0  0  0  0  0  0
  -21.0863   -8.8745   19.8947 H   0  0  0  0  0  0
  -22.3676  -10.9655   19.6138 H   0  0  0  0  0  0
  -21.2003   -7.6156   23.9731 H   0  0  0  0  0  0
  -21.1468   -6.0500   25.9098 H   0  0  0  0  0  0
  -22.0601   -2.7591   23.2807 H   0  0  0  0  0  0
  -22.4028  -11.9913   22.4846 H   0  0  0  0  0  0
  -21.1052  -13.1259   22.2516 H   0  0  0  0  0  0
  -24.6516  -15.8365   20.5567 H   0  0  0  0  0  0
  -26.2775  -15.6473   20.1211 H   0  0  0  0  0  0
  -26.7193  -32.5491   23.1153 H   0  0  0  0  0  0
  -25.0236  -33.9754   25.0543 H   0  0  0  0  0  0
  -22.6990  -31.3175   21.4250 H   0  0  0  0  0  0
  -23.3774  -35.9610   23.3216 H   0  0  0  0  0  0
  -24.3592  -36.8983   22.2048 H   0  0  0  0  0  0
  -23.7201  -37.6476   23.6678 H   0  0  0  0  0  0
  -26.0727  -31.5738   20.6032 H   0  0  0  0  0  0
  -26.8327  -30.8561   21.9946 H   0  0  0  0  0  0
  -28.1053  -29.0380   21.1478 H   0  0  0  0  0  0
  -25.9202  -26.0150   18.9164 H   0  0  0  0  0  0
  -23.9393  -27.3378   19.0159 H   0  0  0  0  0  0
  -23.7349  -30.6172   19.4164 H   0  0  0  0  0  0
  -22.7337  -29.2728   19.8681 H   0  0  0  0  0  0
  -25.1270  -36.1929   25.0829 H   0  0  0  0  0  0
  -20.9958  -28.3254   24.1435 H   0  0  0  0  0  0
  -20.5700  -26.2322   23.3612 H   0  0  0  0  0  0
  -21.6652  -26.7490   22.1184 H   0  0  0  0  0  0
  -19.6920  -25.6308   21.1257 H   0  0  0  0  0  0
  -19.6691  -27.3202   20.6749 H   0  0  0  0  0  0
  -17.4218  -26.6718   21.3999 H   0  0  0  0  0  0
  -18.0297  -26.0057   22.8992 H   0  0  0  0  0  0
  -19.7925  -30.7290   24.2249 H   0  0  0  0  0  0
  -17.5016  -31.6256   24.5184 H   0  0  0  0  0  0
  -15.5349  -30.3005   23.7653 H   0  0  0  0  0  0
  -15.8669  -28.0843   22.7053 H   0  0  0  0  0  0
  -24.5974  -30.7015   25.7907 H   0  0  0  0  0  0
  -24.8919  -32.2889   26.4911 H   0  0  0  0  0  0
  -25.8143  -30.8992   27.0303 H   0  0  0  0  0  0
  -26.2804  -29.6848   24.1160 H   0  0  0  0  0  0
  -27.3988  -29.7237   25.4609 H   0  0  0  0  0  0
  -27.8718  -30.4308   23.9330 H   0  0  0  0  0  0
  -27.2658  -33.3630   26.2053 H   0  0  0  0  0  0
  -28.3896  -32.6837   25.0350 H   0  0  0  0  0  0
  -28.0713  -31.8467   26.5456 H   0  0  0  0  0  0
  -28.2531  -38.0164   24.7614 H   0  0  0  0  0  0
  -28.1137  -36.2709   24.6078 H   0  0  0  0  0  0
  -27.2355  -37.1222   25.8852 H   0  0  0  0  0  0
  -20.9364  -29.8804   21.6955 H   0  0  0  0  0  0
  -26.0130  -38.2871   24.1512 H   0  0  0  0  0  0
  -31.7700  -21.4433   20.1493 H   0  0  0  0  0  0
  -27.4850  -20.4507   19.7436 H   0  0  0  0  0  0
  -32.8383  -22.7396   21.8211 H   0  0  0  0  0  0
  -31.7455  -23.7939   22.7189 H   0  0  0  0  0  0
  -32.8394  -24.4735   21.4997 H   0  0  0  0  0  0
  -25.4580  -19.4147   21.5337 H   0  0  0  0  0  0
  -26.3276  -19.9729   22.9694 H   0  0  0  0  0  0
  -26.0446  -18.2433   22.7211 H   0  0  0  0  0  0
  -32.0687  -19.9183   15.3258 H   0  0  0  0  0  0
  -30.4183  -19.3994   15.6230 H   0  0  0  0  0  0
  -31.7227  -18.8300   16.6509 H   0  0  0  0  0  0
  -27.4712  -21.5628   15.5599 H   0  0  0  0  0  0
  -29.1202  -21.1746   15.1401 H   0  0  0  0  0  0
  -28.7680  -22.6400   16.0510 H   0  0  0  0  0  0
  -27.4024  -24.7926   19.7467 H   0  0  0  0  0  0
  -28.0992  -25.4950   18.2848 H   0  0  0  0  0  0
  -31.6475  -18.4081   21.5343 H   0  0  0  0  0  0
  -31.2905  -17.3784   20.1680 H   0  0  0  0  0  0
  -31.0841  -21.8274   16.4363 H   0  0  0  0  0  0
  -32.0922  -21.0510   17.5947 H   0  0  0  0  0  0
  -28.3775  -19.7695   17.0286 H   0  0  0  0  0  0
  -27.7871  -21.1579   17.8760 H   0  0  0  0  0  0
  -31.1891  -19.5353   19.2728 H   0  0  0  0  0  0
  -30.0706  -18.6849   18.2650 H   0  0  0  0  0  0
  -30.5837  -16.6754   23.0897 H   0  0  0  0  0  0
  -32.0236  -16.1487   22.2821 H   0  0  0  0  0  0
  -28.5915  -17.7056   22.7003 H   0  0  0  0  0  0
  -29.4458  -14.9421   22.0674 H   0  0  0  0  0  0
  1 25  1  0  0  0
  1 30  2  0  0  0
  1 93  1  0  0  0
  2  3  1  0  0  0
  2 25  1  0  0  0
  2 94  1  0  0  0
  2 95  1  0  0  0
  3  4  1  0  0  0
  3 96  1  0  0  0
  3 97  1  0  0  0
  4  5  1  0  0  0
  4 98  1  0  0  0
  4 99  1  0  0  0
  5  6  1  0  0  0
  5 26  1  0  0  0
  5100  1  0  0  0
  6 25  1  0  0  0
  6101  1  0  0  0
  6102  1  0  0  0
  7  8  2  0  0  0
  7 26  1  0  0  0
  7 29  1  0  0  0
  8  9  1  0  0  0
  8 22  1  0  0  0
  9 10  1  0  0  0
  9 27  2  0  0  0
 10 11  2  0  0  0
 10 15  1  0  0  0
 11 12  1  0  0  0
 11103  1  0  0  0
 12 13  2  0  0  0
 12104  1  0  0  0
 13 14  1  0  0  0
 13 31  1  0  0  0
 14 15  2  0  0  0
 14105  1  0  0  0
 15106  1  0  0  0
 16 17  2  0  0  0
 16 21  1  0  0  0
 16 31  1  0  0  0
 17 18  1  0  0  0
 17107  1  0  0  0
 18 19  2  0  0  0
 18108  1  0  0  0
 19 20  1  0  0  0
 19 24  1  0  0  0
 20 21  2  0  0  0
 20109  1  0  0  0
 21 23  1  0  0  0
 22 28  1  0  0  0
 22 32  2  0  0  0
 26 27  1  0  0  0
 28110  1  0  0  0
 28111  1  0  0  0
 29112  1  0  0  0
 29113  1  0  0  0
 33 34  1  0  0  0
 33 66  1  0  0  0
 33 70  2  0  0  0
 34 36  1  0  0  0
 34 59  1  0  0  0
 34114  1  0  0  0
 35 44  2  0  0  0
 35 45  1  0  0  0
 35 68  1  0  0  0
 36 56  1  0  0  0
 36115  1  0  0  0
 37 39  1  0  0  0
 37 47  1  0  0  0
 37 66  1  0  0  0
 37116  1  0  0  0
 38 43  2  0  0  0
 38 46  1  0  0  0
 38 47  1  0  0  0
 39 64  1  0  0  0
 39 67  2  0  0  0
 40 52  1  0  0  0
 40 53  2  0  0  0
 40 58  1  0  0  0
 41117  1  0  0  0
 41118  1  0  0  0
 41119  1  0  0  0
 41 48  1  0  0  0
 42 43  1  0  0  0
 42 66  1  0  0  0
 42120  1  0  0  0
 42121  1  0  0  0
 43 44  1  0  0  0
 44122  1  0  0  0
 45 46  2  0  0  0
 45123  1  0  0  0
 46124  1  0  0  0
 47125  1  0  0  0
 47126  1  0  0  0
 48 56  1  0  0  0
 48 65  1  0  0  0
 48127  1  0  0  0
 49 50  1  0  0  0
 49 53  1  0  0  0
 49 64  1  0  0  0
 49128  1  0  0  0
 50 51  1  0  0  0
 50129  1  0  0  0
 50130  1  0  0  0
 51 52  1  0  0  0
 51131  1  0  0  0
 51132  1  0  0  0
 52133  1  0  0  0
 52134  1  0  0  0
 53 54  1  0  0  0
 54 55  2  0  0  0
 54135  1  0  0  0
 55 57  1  0  0  0
 55136  1  0  0  0
 56 69  2  0  0  0
 57 58  2  0  0  0
 57137  1  0  0  0
 58138  1  0  0  0
 59 60  1  0  0  0
 59 61  1  0  0  0
 59 62  1  0  0  0
 60139  1  0  0  0
 60140  1  0  0  0
 60141  1  0  0  0
 61142  1  0  0  0
 61143  1  0  0  0
 61144  1  0  0  0
 62145  1  0  0  0
 62146  1  0  0  0
 62147  1  0  0  0
 63 65  1  0  0  0
 63148  1  0  0  0
 63149  1  0  0  0
 63150  1  0  0  0
 64151  1  0  0  0
 65152  1  0  0  0
 68 82  1  0  0  0
 71 73  2  0  0  0
 71 74  1  0  0  0
 71153  1  0  0  0
 72 75  2  0  0  0
 72 91  1  0  0  0
 72154  1  0  0  0
 73 78  1  0  0  0
 73 89  1  0  0  0
 74 88  1  0  0  0
 74 90  2  0  0  0
 75 79  1  0  0  0
 75 92  1  0  0  0
 76 82  1  0  0  0
 76 89  2  0  0  0
 76 90  1  0  0  0
 77 83  1  0  0  0
 77 91  1  0  0  0
 77 92  2  0  0  0
 78155  1  0  0  0
 78156  1  0  0  0
 78157  1  0  0  0
 79158  1  0  0  0
 79159  1  0  0  0
 79160  1  0  0  0
 80 84  1  0  0  0
 80161  1  0  0  0
 80162  1  0  0  0
 80163  1  0  0  0
 81 85  1  0  0  0
 81164  1  0  0  0
 81165  1  0  0  0
 81166  1  0  0  0
 82167  1  0  0  0
 82168  1  0  0  0
 83 87  1  0  0  0
 83169  1  0  0  0
 83170  1  0  0  0
 84171  1  0  0  0
 84172  1  0  0  0
 84 88  1  0  0  0
 85 88  1  0  0  0
 85173  1  0  0  0
 85174  1  0  0  0
 86 88  1  0  0  0
 86 91  1  0  0  0
 86175  1  0  0  0
 86176  1  0  0  0
 87 93  1  0  0  0
 87177  1  0  0  0
 87178  1  0  0  0
 92179  1  0  0  0
 93180  1  0  0  0
M  CHG  1  92   1
M  ISO  4   1 100  68 101  82 101  93 100
M  END
> <chiral flag>
0

> <version>
0

> <s_m_source_file>
/data/baiqing/PycharmProjects/Reinvent-master-3.2/result/LINK_invent/BTK/process_docking_weight1_custom_sum_contain_oxygen_bond_distance_aromatic_linkinvent_7_9_3/rearranged_h_0055.sdf

> <i_m_source_file_index>
60

> <r_mmod_Potential_Energy-OPLS-2005>
-399.16162109375

> <r_mmod_Stretch_Energy-OPLS-2005>
51.544792175293

> <r_mmod_Bend_Energy-OPLS-2005>
134.059936523438

> <r_mmod_Torsional_Energy-OPLS-2005>
235.168792724609

> <r_mmod_Improper_Torsional_Energy-OPLS-2005>
2.87258267402649

> <r_mmod_Van_der_Waal_Energy-OPLS-2005>
168.752868652344

> <r_mmod_Electrostatic_Energy-OPLS-2005>
-561.8076171875

> <r_mmod_Solvation_Energy-OPLS-2005>
-443.638549804688

> <b_mmod_Minimization_Converged-OPLS-2005>
0

> <r_mmod_RMS_Derivative-OPLS-2005>
4.12231016159058

$$$$
60
                    3D
 Structure written by MMmdl.
160168  0  0  1  0            999 V2000
  -30.6585  -14.7048   20.5364 C   0  0  0  0  0  0
  -30.4338  -12.4450   19.4757 C   0  0  0  0  0  0
  -29.5126  -12.5301   18.2378 C   0  0  0  0  0  0
  -28.0340  -12.3588   18.6379 C   0  0  0  0  0  0
  -27.6518  -13.2241   19.8680 C   0  0  2  0  0  0
  -28.6984  -13.0721   20.9924 C   0  0  0  0  0  0
  -25.2531  -13.8178   20.5668 C   0  0  0  0  0  0
  -24.1816  -13.0427   20.9183 C   0  0  0  0  0  0
  -24.6405  -11.6908   20.8738 C   0  0  0  0  0  0
  -23.9072  -10.4288   21.0404 C   0  0  0  0  0  0
  -24.3618   -9.4204   21.9181 C   0  0  0  0  0  0
  -23.6280   -8.2246   22.0755 C   0  0  0  0  0  0
  -22.4261   -8.0286   21.3548 C   0  0  0  0  0  0
  -21.9900   -9.0261   20.4650 C   0  0  0  0  0  0
  -22.7240  -10.2135   20.3051 C   0  0  0  0  0  0
  -21.6857   -6.0732   22.5274 C   0  0  0  0  0  0
  -21.4015   -6.5636   23.8211 C   0  0  0  0  0  0
  -21.3652   -5.6792   24.9168 C   0  0  0  0  0  0
  -21.6037   -4.3052   24.7227 C   0  0  0  0  0  0
  -21.8818   -3.8145   23.4350 C   0  0  0  0  0  0
  -21.9196   -4.6957   22.3405 C   0  0  0  0  0  0
  -22.7837  -13.5216   21.1844 C   0  0  0  0  0  0
  -22.1670   -4.2142   21.0983 F   0  0  0  0  0  0
  -21.5619   -3.4536   25.7740 F   0  0  0  0  0  0
  -30.0001  -13.4867   20.4466 N   0  0  0  0  0  0
  -26.2983  -12.9380   20.3346 N   0  0  0  0  0  0
  -25.9336  -11.6525   20.5765 N   0  0  0  0  0  0
  -22.0474  -12.8214   22.0406 N   0  0  0  0  0  0
  -25.4182  -15.1894   20.4029 N   0  0  0  0  0  0
  -31.7919  -14.7603   20.0492 O   0  0  0  0  0  0
  -21.6646   -6.8867   21.4230 O   0  0  0  0  0  0
  -22.3532  -14.5527   20.6698 O   0  0  0  0  0  0
  -24.6288  -31.8577   23.2009 C   0  0  0  0  0  0
  -25.9122  -32.4768   23.8347 C   0  0  1  0  0  0
  -27.2185  -27.2853   20.1221 C   0  0  0  0  0  0
  -25.5928  -33.8569   24.2264 N   0  0  0  0  0  0
  -23.4239  -30.4828   21.5432 C   0  0  2  0  0  0
  -24.8714  -28.9381   20.1074 C   0  0  0  0  0  0
  -22.7487  -29.4614   22.4903 C   0  0  0  0  0  0
  -18.0292  -28.1387   22.8483 C   0  0  0  0  0  0
  -24.1490  -36.7295   23.2636 C   0  0  0  0  0  0
  -25.9696  -30.7772   21.3796 C   0  0  0  0  0  0
  -26.0422  -29.4035   20.7198 C   0  0  0  0  0  0
  -27.2180  -28.5888   20.7185 C   0  0  0  0  0  0
  -26.0257  -26.8920   19.4697 C   0  0  0  0  0  0
  -24.8675  -27.6890   19.4727 C   0  0  0  0  0  0
  -23.6417  -29.8214   20.1573 C   0  0  0  0  0  0
  -25.4113  -36.3071   24.0324 C   0  0  1  0  0  0
  -20.5897  -28.3696   23.1264 C   0  0  2  0  0  0
  -20.6783  -26.9412   22.5403 C   0  0  0  0  0  0
  -19.5758  -26.6377   21.5209 C   0  0  0  0  0  0
  -18.1938  -26.7927   22.1623 C   0  0  0  0  0  0
  -19.1547  -28.8855   23.2877 C   0  0  0  0  0  0
  -18.9468  -30.1459   23.8891 C   0  0  0  0  0  0
  -17.6468  -30.6588   24.0565 C   0  0  0  0  0  0
  -25.9049  -34.9445   23.5092 C   0  0  0  0  0  0
  -16.5359  -29.9087   23.6333 C   0  0  0  0  0  0
  -16.7279  -28.6508   23.0348 C   0  0  0  0  0  0
  -26.4500  -31.6589   25.0729 C   0  0  0  0  0  0
  -25.3725  -31.3750   26.1451 C   0  0  0  0  0  0
  -27.0348  -30.3001   24.6221 C   0  0  0  0  0  0
  -27.6040  -32.4340   25.7512 C   0  0  0  0  0  0
  -27.5578  -37.1800   24.8463 C   0  0  0  0  0  0
  -21.4193  -29.3053   22.3646 N   0  0  0  0  0  0
  -26.4290  -37.3767   23.9406 N   0  0  0  0  0  0
  -24.6928  -31.0566   22.0975 N   0  0  0  0  0  0
  -23.4206  -28.8140   23.2978 O   0  0  0  0  0  0
  -28.3118  -26.3924   20.1975 O   0  0  0  0  0  0
  -26.5620  -34.8915   22.4661 O   0  0  0  0  0  0
  -23.5441  -32.1390   23.7315 O   0  0  0  0  0  0
  -30.5801  -20.8822   21.2678 C   0  0  0  0  0  0
  -30.9326  -19.5503   21.2520 C   0  0  0  0  0  0
  -29.3966  -20.9848   20.4850 C   0  0  0  0  0  0
  -28.9960  -17.0729   18.9983 C   0  0  0  0  0  0
  -28.8065  -16.0754   21.9183 C   0  0  0  0  0  0
  -31.1931  -16.4774   22.2331 C   0  0  0  0  0  0
  -28.5454  -22.2544   20.1077 C   0  0  0  0  0  0
  -29.0354  -23.7527   20.4346 C   0  0  0  0  0  0
  -28.0432  -24.9354   19.9858 C   0  0  0  0  0  0
  -30.0662  -17.3502   20.0767 C   0  0  2  0  0  0
  -30.1433  -16.1232   21.1517 C   0  0  0  0  0  0
  -29.0638  -19.7350   20.0643 N   0  0  0  0  0  0
  -30.0003  -18.8168   20.5294 N   0  0  0  0  0  0
  -31.4757  -12.5494   19.1681 H   0  0  0  0  0  0
  -30.3760  -11.4530   19.9261 H   0  0  0  0  0  0
  -29.7935  -11.7701   17.5079 H   0  0  0  0  0  0
  -29.6509  -13.4956   17.7470 H   0  0  0  0  0  0
  -27.8719  -11.3037   18.8630 H   0  0  0  0  0  0
  -27.3853  -12.5930   17.7931 H   0  0  0  0  0  0
  -27.6680  -14.2599   19.5329 H   0  0  0  0  0  0
  -28.7405  -12.0303   21.3123 H   0  0  0  0  0  0
  -28.4147  -13.5965   21.8953 H   0  0  0  0  0  0
  -25.2760   -9.5670   22.4768 H   0  0  0  0  0  0
  -23.9976   -7.4631   22.7476 H   0  0  0  0  0  0
  -21.0832   -8.8783   19.8959 H   0  0  0  0  0  0
  -22.3699  -10.9674   19.6165 H   0  0  0  0  0  0
  -21.2016   -7.6147   23.9706 H   0  0  0  0  0  0
  -21.1477   -6.0531   25.9073 H   0  0  0  0  0  0
  -22.0610   -2.7609   23.2863 H   0  0  0  0  0  0
  -22.4071  -11.9867   22.4794 H   0  0  0  0  0  0
  -21.1106  -13.1261   22.2623 H   0  0  0  0  0  0
  -24.6507  -15.8430   20.5125 H   0  0  0  0  0  0
  -26.2727  -15.6321   20.0915 H   0  0  0  0  0  0
  -26.7183  -32.5423   23.1085 H   0  0  0  0  0  0
  -25.0083  -33.9725   25.0411 H   0  0  0  0  0  0
  -22.7196  -31.3048   21.3989 H   0  0  0  0  0  0
  -23.3746  -35.9636   23.3297 H   0  0  0  0  0  0
  -24.3570  -36.8917   22.2049 H   0  0  0  0  0  0
  -23.7261  -37.6500   23.6670 H   0  0  0  0  0  0
  -26.1072  -31.5378   20.6102 H   0  0  0  0  0  0
  -26.8483  -30.8242   22.0112 H   0  0  0  0  0  0
  -28.1111  -28.9375   21.2187 H   0  0  0  0  0  0
  -25.9498  -25.9442   18.9592 H   0  0  0  0  0  0
  -23.9729  -27.3287   18.9827 H   0  0  0  0  0  0
  -23.7633  -30.5998   19.4030 H   0  0  0  0  0  0
  -22.7618  -29.2524   19.8519 H   0  0  0  0  0  0
  -25.1294  -36.1910   25.0817 H   0  0  0  0  0  0
  -21.0005  -28.3272   24.1379 H   0  0  0  0  0  0
  -20.5672  -26.2306   23.3609 H   0  0  0  0  0  0
  -21.6652  -26.7425   22.1199 H   0  0  0  0  0  0
  -19.6916  -25.6283   21.1248 H   0  0  0  0  0  0
  -19.6698  -27.3180   20.6735 H   0  0  0  0  0  0
  -17.4205  -26.6673   21.4032 H   0  0  0  0  0  0
  -18.0340  -26.0073   22.9025 H   0  0  0  0  0  0
  -19.7943  -30.7281   24.2254 H   0  0  0  0  0  0
  -17.5022  -31.6265   24.5171 H   0  0  0  0  0  0
  -15.5362  -30.2992   23.7655 H   0  0  0  0  0  0
  -15.8678  -28.0829   22.7063 H   0  0  0  0  0  0
  -24.5892  -30.7109   25.7779 H   0  0  0  0  0  0
  -24.8942  -32.2937   26.4860 H   0  0  0  0  0  0
  -25.8038  -30.8930   27.0235 H   0  0  0  0  0  0
  -26.2937  -29.6750   24.1229 H   0  0  0  0  0  0
  -27.4003  -29.7260   25.4745 H   0  0  0  0  0  0
  -27.8828  -30.4264   23.9484 H   0  0  0  0  0  0
  -27.2624  -33.3637   26.2083 H   0  0  0  0  0  0
  -28.3865  -32.6910   25.0358 H   0  0  0  0  0  0
  -28.0707  -31.8482   26.5445 H   0  0  0  0  0  0
  -28.2580  -38.0104   24.7494 H   0  0  0  0  0  0
  -28.1082  -36.2633   24.6301 H   0  0  0  0  0  0
  -27.2296  -37.1459   25.8864 H   0  0  0  0  0  0
  -20.9358  -29.8796   21.6876 H   0  0  0  0  0  0
  -26.0162  -38.2837   24.1405 H   0  0  0  0  0  0
  -31.1220  -21.6836   21.7505 H   0  0  0  0  0  0
  -31.8063  -19.0796   21.6795 H   0  0  0  0  0  0
  -29.0854  -16.0699   18.5846 H   0  0  0  0  0  0
  -29.0914  -17.7695   18.1646 H   0  0  0  0  0  0
  -27.9887  -17.1802   19.4012 H   0  0  0  0  0  0
  -28.5306  -17.0685   22.2741 H   0  0  0  0  0  0
  -28.8714  -15.4506   22.8087 H   0  0  0  0  0  0
  -27.9831  -15.7345   21.2983 H   0  0  0  0  0  0
  -31.3751  -15.6363   22.9043 H   0  0  0  0  0  0
  -30.8696  -17.3071   22.8610 H   0  0  0  0  0  0
  -32.1538  -16.7470   21.7921 H   0  0  0  0  0  0
  -27.5620  -22.1370   20.5631 H   0  0  0  0  0  0
  -28.3510  -22.2130   19.0356 H   0  0  0  0  0  0
  -30.0070  -23.9104   19.9668 H   0  0  0  0  0  0
  -29.2050  -23.8350   21.5085 H   0  0  0  0  0  0
  -27.0964  -24.7049   20.4758 H   0  0  0  0  0  0
  -27.8709  -24.8067   18.9165 H   0  0  0  0  0  0
  -31.0148  -17.2966   19.5408 H   0  0  0  0  0  0
  1 25  1  0  0  0
  1 30  2  0  0  0
  1 81  1  0  0  0
  2  3  1  0  0  0
  2 25  1  0  0  0
  2 84  1  0  0  0
  2 85  1  0  0  0
  3  4  1  0  0  0
  3 86  1  0  0  0
  3 87  1  0  0  0
  4  5  1  0  0  0
  4 88  1  0  0  0
  4 89  1  0  0  0
  5  6  1  0  0  0
  5 26  1  0  0  0
  5 90  1  0  0  0
  6 25  1  0  0  0
  6 91  1  0  0  0
  6 92  1  0  0  0
  7  8  2  0  0  0
  7 26  1  0  0  0
  7 29  1  0  0  0
  8  9  1  0  0  0
  8 22  1  0  0  0
  9 10  1  0  0  0
  9 27  2  0  0  0
 10 11  2  0  0  0
 10 15  1  0  0  0
 11 12  1  0  0  0
 11 93  1  0  0  0
 12 13  2  0  0  0
 12 94  1  0  0  0
 13 14  1  0  0  0
 13 31  1  0  0  0
 14 15  2  0  0  0
 14 95  1  0  0  0
 15 96  1  0  0  0
 16 17  2  0  0  0
 16 21  1  0  0  0
 16 31  1  0  0  0
 17 18  1  0  0  0
 17 97  1  0  0  0
 18 19  2  0  0  0
 18 98  1  0  0  0
 19 20  1  0  0  0
 19 24  1  0  0  0
 20 21  2  0  0  0
 20 99  1  0  0  0
 21 23  1  0  0  0
 22 28  1  0  0  0
 22 32  2  0  0  0
 26 27  1  0  0  0
 28100  1  0  0  0
 28101  1  0  0  0
 29102  1  0  0  0
 29103  1  0  0  0
 33 34  1  0  0  0
 33 66  1  0  0  0
 33 70  2  0  0  0
 34 36  1  0  0  0
 34 59  1  0  0  0
 34104  1  0  0  0
 35 44  2  0  0  0
 35 45  1  0  0  0
 35 68  1  0  0  0
 36 56  1  0  0  0
 36105  1  0  0  0
 37 39  1  0  0  0
 37 47  1  0  0  0
 37 66  1  0  0  0
 37106  1  0  0  0
 38 43  2  0  0  0
 38 46  1  0  0  0
 38 47  1  0  0  0
 39 64  1  0  0  0
 39 67  2  0  0  0
 40 52  1  0  0  0
 40 53  2  0  0  0
 40 58  1  0  0  0
 41107  1  0  0  0
 41108  1  0  0  0
 41109  1  0  0  0
 41 48  1  0  0  0
 42 43  1  0  0  0
 42 66  1  0  0  0
 42110  1  0  0  0
 42111  1  0  0  0
 43 44  1  0  0  0
 44112  1  0  0  0
 45 46  2  0  0  0
 45113  1  0  0  0
 46114  1  0  0  0
 47115  1  0  0  0
 47116  1  0  0  0
 48 56  1  0  0  0
 48 65  1  0  0  0
 48117  1  0  0  0
 49 50  1  0  0  0
 49 53  1  0  0  0
 49 64  1  0  0  0
 49118  1  0  0  0
 50 51  1  0  0  0
 50119  1  0  0  0
 50120  1  0  0  0
 51 52  1  0  0  0
 51121  1  0  0  0
 51122  1  0  0  0
 52123  1  0  0  0
 52124  1  0  0  0
 53 54  1  0  0  0
 54 55  2  0  0  0
 54125  1  0  0  0
 55 57  1  0  0  0
 55126  1  0  0  0
 56 69  2  0  0  0
 57 58  2  0  0  0
 57127  1  0  0  0
 58128  1  0  0  0
 59 60  1  0  0  0
 59 61  1  0  0  0
 59 62  1  0  0  0
 60129  1  0  0  0
 60130  1  0  0  0
 60131  1  0  0  0
 61132  1  0  0  0
 61133  1  0  0  0
 61134  1  0  0  0
 62135  1  0  0  0
 62136  1  0  0  0
 62137  1  0  0  0
 63 65  1  0  0  0
 63138  1  0  0  0
 63139  1  0  0  0
 63140  1  0  0  0
 64141  1  0  0  0
 65142  1  0  0  0
 68 79  1  0  0  0
 71 72  2  0  0  0
 71 73  1  0  0  0
 71143  1  0  0  0
 72 83  1  0  0  0
 72144  1  0  0  0
 73 77  1  0  0  0
 73 82  2  0  0  0
 74145  1  0  0  0
 74146  1  0  0  0
 74147  1  0  0  0
 74 80  1  0  0  0
 75148  1  0  0  0
 75149  1  0  0  0
 75150  1  0  0  0
 75 81  1  0  0  0
 76 81  1  0  0  0
 76151  1  0  0  0
 76152  1  0  0  0
 76153  1  0  0  0
 77 78  1  0  0  0
 77154  1  0  0  0
 77155  1  0  0  0
 78 79  1  0  0  0
 78156  1  0  0  0
 78157  1  0  0  0
 79158  1  0  0  0
 79159  1  0  0  0
 80 81  1  0  0  0
 80 83  1  0  0  0
 80160  1  0  0  0
 82 83  1  0  0  0
M  ISO  4   1 100  68 101  79 101  81 100
M  END
> <chiral flag>
0

> <version>
0

> <s_m_source_file>
/data/baiqing/PycharmProjects/Reinvent-master-3.2/result/LINK_invent/BTK/process_docking_weight1_custom_sum_contain_oxygen_bond_distance_aromatic_linkinvent_7_9_3/rearranged_h_0055.sdf

> <i_m_source_file_index>
61

> <r_mmod_Potential_Energy-OPLS-2005>
164.611602783203

> <r_mmod_Stretch_Energy-OPLS-2005>
122.281776428223

> <r_mmod_Bend_Energy-OPLS-2005>
191.746780395508

> <r_mmod_Torsional_Energy-OPLS-2005>
198.682235717773

> <r_mmod_Improper_Torsional_Energy-OPLS-2005>
2.90154838562012

> <r_mmod_Van_der_Waal_Energy-OPLS-2005>
132.177291870117

> <r_mmod_Electrostatic_Energy-OPLS-2005>
-354.101409912109

> <r_mmod_Solvation_Energy-OPLS-2005>
-194.460693359375

> <b_mmod_Minimization_Converged-OPLS-2005>
0

> <r_mmod_RMS_Derivative-OPLS-2005>
1.53650081157684

$$$$
61
                    3D
 Structure written by MMmdl.
160168  0  0  1  0            999 V2000
  -30.3783  -15.4049   20.3486 C   0  0  0  0  0  0
  -30.4350  -12.9109   19.5303 C   0  0  0  0  0  0
  -29.5421  -12.5946   18.3016 C   0  0  0  0  0  0
  -28.1003  -12.2885   18.7378 C   0  0  0  0  0  0
  -27.6039  -13.2834   19.8156 C   0  0  2  0  0  0
  -28.6297  -13.5220   20.9461 C   0  0  0  0  0  0
  -25.2358  -13.8258   20.5762 C   0  0  0  0  0  0
  -24.1729  -13.0435   20.9288 C   0  0  0  0  0  0
  -24.6399  -11.6938   20.8777 C   0  0  0  0  0  0
  -23.9096  -10.4296   21.0411 C   0  0  0  0  0  0
  -24.3649   -9.4200   21.9186 C   0  0  0  0  0  0
  -23.6309   -8.2248   22.0751 C   0  0  0  0  0  0
  -22.4284   -8.0295   21.3541 C   0  0  0  0  0  0
  -21.9928   -9.0273   20.4648 C   0  0  0  0  0  0
  -22.7273  -10.2143   20.3054 C   0  0  0  0  0  0
  -21.6858   -6.0746   22.5291 C   0  0  0  0  0  0
  -21.4013   -6.5648   23.8227 C   0  0  0  0  0  0
  -21.3645   -5.6802   24.9186 C   0  0  0  0  0  0
  -21.6037   -4.3062   24.7235 C   0  0  0  0  0  0
  -21.8818   -3.8157   23.4354 C   0  0  0  0  0  0
  -21.9193   -4.6978   22.3408 C   0  0  0  0  0  0
  -22.7744  -13.5181   21.1938 C   0  0  0  0  0  0
  -22.1664   -4.2161   21.0993 F   0  0  0  0  0  0
  -21.5615   -3.4545   25.7744 F   0  0  0  0  0  0
  -29.8391  -14.0716   20.3086 N   0  0  0  0  0  0
  -26.2789  -12.9542   20.3207 N   0  0  0  0  0  0
  -25.9335  -11.6640   20.5713 N   0  0  0  0  0  0
  -22.0393  -12.8162   22.0478 N   0  0  0  0  0  0
  -25.3977  -15.1995   20.4193 N   0  0  0  0  0  0
  -31.6045  -15.3840   20.1442 O   0  0  0  0  0  0
  -21.6638   -6.8889   21.4247 O   0  0  0  0  0  0
  -22.3438  -14.5495   20.6783 O   0  0  0  0  0  0
  -24.6762  -31.8121   23.1608 C   0  0  0  0  0  0
  -25.9385  -32.4519   23.8128 C   0  0  1  0  0  0
  -27.2045  -26.8218   20.1683 C   0  0  0  0  0  0
  -25.6006  -33.8336   24.1977 N   0  0  0  0  0  0
  -23.4936  -30.4260   21.5116 C   0  0  2  0  0  0
  -24.9430  -28.8057   20.1039 C   0  0  0  0  0  0
  -22.7749  -29.4362   22.4701 C   0  0  0  0  0  0
  -18.0346  -28.1401   22.8477 C   0  0  0  0  0  0
  -24.1494  -36.7147   23.2661 C   0  0  0  0  0  0
  -26.0715  -30.5843   21.4072 C   0  0  0  0  0  0
  -26.1311  -29.1681   20.7456 C   0  0  0  0  0  0
  -27.2502  -28.1998   20.7536 C   0  0  0  0  0  0
  -25.9758  -26.6466   19.4879 C   0  0  0  0  0  0
  -24.8969  -27.5667   19.4556 C   0  0  0  0  0  0
  -23.7381  -29.7466   20.1376 C   0  0  0  0  0  0
  -25.4128  -36.2885   24.0297 C   0  0  1  0  0  0
  -20.6005  -28.3735   23.1144 C   0  0  2  0  0  0
  -20.6810  -26.9400   22.5370 C   0  0  0  0  0  0
  -19.5764  -26.6337   21.5208 C   0  0  0  0  0  0
  -18.1954  -26.7926   22.1638 C   0  0  0  0  0  0
  -19.1618  -28.8894   23.2805 C   0  0  0  0  0  0
  -18.9530  -30.1490   23.8835 C   0  0  0  0  0  0
  -17.6521  -30.6584   24.0553 C   0  0  0  0  0  0
  -25.9122  -34.9304   23.4944 C   0  0  0  0  0  0
  -16.5407  -29.9067   23.6358 C   0  0  0  0  0  0
  -16.7331  -28.6496   23.0371 C   0  0  0  0  0  0
  -26.4568  -31.6534   25.0730 C   0  0  0  0  0  0
  -25.3645  -31.3839   26.1353 C   0  0  0  0  0  0
  -27.0495  -30.2887   24.6572 C   0  0  0  0  0  0
  -27.6048  -32.4403   25.7505 C   0  0  0  0  0  0
  -27.5534  -37.1711   24.8476 C   0  0  0  0  0  0
  -21.4402  -29.3026   22.3499 N   0  0  0  0  0  0
  -26.4227  -37.3646   23.9443 N   0  0  0  0  0  0
  -24.7694  -30.9718   22.0782 N   0  0  0  0  0  0
  -23.4267  -28.7920   23.2954 O   0  0  0  0  0  0
  -28.1811  -25.6588   20.3207 O   0  0  0  0  0  0
  -26.5744  -34.8879   22.4554 O   0  0  0  0  0  0
  -23.5795  -32.1140   23.6603 O   0  0  0  0  0  0
  -29.3180  -21.3456   19.7545 C   0  0  0  0  0  0
  -29.1335  -20.0011   20.3434 C   0  0  0  0  0  0
  -27.7911  -21.7916   21.2142 C   0  0  0  0  0  0
  -27.4513  -24.0413   18.3481 C   0  0  0  0  0  0
  -25.3847  -22.5071   21.2939 C   0  0  0  0  0  0
  -27.0553  -23.6607   22.7693 C   0  0  0  0  0  0
  -26.3730  -21.3329   23.2638 C   0  0  0  0  0  0
  -29.9166  -18.3780   20.2175 C   0  0  0  0  0  0
  -28.2616  -24.1279   19.6490 C   0  0  2  0  0  0
  -26.6776  -22.3206   22.1111 C   0  0  0  0  0  0
  -28.4929  -22.4841   20.2580 N   0  0  0  0  0  0
  -28.1468  -20.4375   21.2314 N   0  3  0  0  0  0
  -29.6134  -16.7089   20.4180 N   0  0  0  0  0  0
  -31.4426  -13.1418   19.1826 H   0  0  0  0  0  0
  -30.5486  -12.0323   20.1656 H   0  0  0  0  0  0
  -29.9522  -11.7530   17.7429 H   0  0  0  0  0  0
  -29.5459  -13.4465   17.6199 H   0  0  0  0  0  0
  -28.0881  -11.2766   19.1449 H   0  0  0  0  0  0
  -27.4292  -12.2797   17.8774 H   0  0  0  0  0  0
  -27.4983  -14.2319   19.2867 H   0  0  0  0  0  0
  -28.8345  -12.6076   21.5048 H   0  0  0  0  0  0
  -28.2408  -14.2450   21.6654 H   0  0  0  0  0  0
  -25.2783   -9.5678   22.4768 H   0  0  0  0  0  0
  -24.0014   -7.4631   22.7461 H   0  0  0  0  0  0
  -21.0852   -8.8795   19.8954 H   0  0  0  0  0  0
  -22.3725  -10.9685   19.6175 H   0  0  0  0  0  0
  -21.2003   -7.6165   23.9737 H   0  0  0  0  0  0
  -21.1457   -6.0527   25.9086 H   0  0  0  0  0  0
  -22.0600   -2.7617   23.2860 H   0  0  0  0  0  0
  -22.4016  -11.9850   22.4902 H   0  0  0  0  0  0
  -21.1000  -13.1164   22.2649 H   0  0  0  0  0  0
  -24.6165  -15.8388   20.5157 H   0  0  0  0  0  0
  -26.2249  -15.6396   20.0402 H   0  0  0  0  0  0
  -26.7477  -32.4976   23.0862 H   0  0  0  0  0  0
  -25.0133  -33.9402   25.0118 H   0  0  0  0  0  0
  -22.8111  -31.2597   21.3319 H   0  0  0  0  0  0
  -23.3752  -35.9482   23.3282 H   0  0  0  0  0  0
  -24.3571  -36.8836   22.2081 H   0  0  0  0  0  0
  -23.7252  -37.6312   23.6762 H   0  0  0  0  0  0
  -26.2733  -31.3193   20.6278 H   0  0  0  0  0  0
  -26.9272  -30.6315   22.0674 H   0  0  0  0  0  0
  -28.1424  -28.4764   21.2968 H   0  0  0  0  0  0
  -25.7513  -25.7112   19.0219 H   0  0  0  0  0  0
  -23.9926  -27.2716   18.9419 H   0  0  0  0  0  0
  -23.9038  -30.5153   19.3832 H   0  0  0  0  0  0
  -22.8486  -29.2076   19.8119 H   0  0  0  0  0  0
  -25.1316  -36.1614   25.0774 H   0  0  0  0  0  0
  -21.0103  -28.3316   24.1261 H   0  0  0  0  0  0
  -20.5639  -26.2357   23.3613 H   0  0  0  0  0  0
  -21.6664  -26.7288   22.1190 H   0  0  0  0  0  0
  -19.6914  -25.6223   21.1268 H   0  0  0  0  0  0
  -19.6722  -27.3138   20.6733 H   0  0  0  0  0  0
  -17.4209  -26.6702   21.4048 H   0  0  0  0  0  0
  -18.0339  -26.0060   22.9026 H   0  0  0  0  0  0
  -19.8012  -30.7316   24.2155 H   0  0  0  0  0  0
  -17.5084  -31.6274   24.5143 H   0  0  0  0  0  0
  -15.5412  -30.2960   23.7701 H   0  0  0  0  0  0
  -15.8741  -28.0792   22.7112 H   0  0  0  0  0  0
  -24.5829  -30.7220   25.7601 H   0  0  0  0  0  0
  -24.8855  -32.3079   26.4621 H   0  0  0  0  0  0
  -25.7812  -30.9047   27.0226 H   0  0  0  0  0  0
  -26.3193  -29.6530   24.1560 H   0  0  0  0  0  0
  -27.3955  -29.7315   25.5281 H   0  0  0  0  0  0
  -27.9160  -30.4041   24.0066 H   0  0  0  0  0  0
  -27.2600  -33.3786   26.1879 H   0  0  0  0  0  0
  -28.3915  -32.6862   25.0357 H   0  0  0  0  0  0
  -28.0678  -31.8688   26.5555 H   0  0  0  0  0  0
  -28.2484  -38.0056   24.7476 H   0  0  0  0  0  0
  -28.1056  -36.2561   24.6289 H   0  0  0  0  0  0
  -27.2272  -37.1327   25.8881 H   0  0  0  0  0  0
  -20.9635  -29.8775   21.6689 H   0  0  0  0  0  0
  -26.0031  -38.2667   24.1504 H   0  0  0  0  0  0
  -30.0120  -21.5688   18.9564 H   0  0  0  0  0  0
  -27.8086  -23.2019   17.7526 H   0  0  0  0  0  0
  -27.5732  -24.9524   17.7604 H   0  0  0  0  0  0
  -26.4008  -23.8503   18.5471 H   0  0  0  0  0  0
  -25.5129  -23.2298   20.4912 H   0  0  0  0  0  0
  -24.5698  -22.8736   21.9203 H   0  0  0  0  0  0
  -25.0528  -21.5710   20.8427 H   0  0  0  0  0  0
  -28.0294  -23.6136   23.2552 H   0  0  0  0  0  0
  -26.3255  -23.9517   23.5256 H   0  0  0  0  0  0
  -27.0742  -24.4753   22.0561 H   0  0  0  0  0  0
  -26.0233  -20.3678   22.8968 H   0  0  0  0  0  0
  -25.5908  -21.7193   23.9191 H   0  0  0  0  0  0
  -27.2534  -21.1563   23.8845 H   0  0  0  0  0  0
  -30.8027  -18.4961   20.8395 H   0  0  0  0  0  0
  -30.3226  -18.3933   19.2061 H   0  0  0  0  0  0
  -29.2831  -24.2692   19.2941 H   0  0  0  0  0  0
  -27.7016  -19.7987   21.8789 H   0  0  0  0  0  0
  -28.6304  -16.5349   20.5671 H   0  0  0  0  0  0
  1 25  1  0  0  0
  1 30  2  0  0  0
  1 83  1  0  0  0
  2  3  1  0  0  0
  2 25  1  0  0  0
  2 84  1  0  0  0
  2 85  1  0  0  0
  3  4  1  0  0  0
  3 86  1  0  0  0
  3 87  1  0  0  0
  4  5  1  0  0  0
  4 88  1  0  0  0
  4 89  1  0  0  0
  5  6  1  0  0  0
  5 26  1  0  0  0
  5 90  1  0  0  0
  6 25  1  0  0  0
  6 91  1  0  0  0
  6 92  1  0  0  0
  7  8  2  0  0  0
  7 26  1  0  0  0
  7 29  1  0  0  0
  8  9  1  0  0  0
  8 22  1  0  0  0
  9 10  1  0  0  0
  9 27  2  0  0  0
 10 11  2  0  0  0
 10 15  1  0  0  0
 11 12  1  0  0  0
 11 93  1  0  0  0
 12 13  2  0  0  0
 12 94  1  0  0  0
 13 14  1  0  0  0
 13 31  1  0  0  0
 14 15  2  0  0  0
 14 95  1  0  0  0
 15 96  1  0  0  0
 16 17  2  0  0  0
 16 21  1  0  0  0
 16 31  1  0  0  0
 17 18  1  0  0  0
 17 97  1  0  0  0
 18 19  2  0  0  0
 18 98  1  0  0  0
 19 20  1  0  0  0
 19 24  1  0  0  0
 20 21  2  0  0  0
 20 99  1  0  0  0
 21 23  1  0  0  0
 22 28  1  0  0  0
 22 32  2  0  0  0
 26 27  1  0  0  0
 28100  1  0  0  0
 28101  1  0  0  0
 29102  1  0  0  0
 29103  1  0  0  0
 33 34  1  0  0  0
 33 66  1  0  0  0
 33 70  2  0  0  0
 34 36  1  0  0  0
 34 59  1  0  0  0
 34104  1  0  0  0
 35 44  2  0  0  0
 35 45  1  0  0  0
 35 68  1  0  0  0
 36 56  1  0  0  0
 36105  1  0  0  0
 37 39  1  0  0  0
 37 47  1  0  0  0
 37 66  1  0  0  0
 37106  1  0  0  0
 38 43  2  0  0  0
 38 46  1  0  0  0
 38 47  1  0  0  0
 39 64  1  0  0  0
 39 67  2  0  0  0
 40 52  1  0  0  0
 40 53  2  0  0  0
 40 58  1  0  0  0
 41107  1  0  0  0
 41108  1  0  0  0
 41109  1  0  0  0
 41 48  1  0  0  0
 42 43  1  0  0  0
 42 66  1  0  0  0
 42110  1  0  0  0
 42111  1  0  0  0
 43 44  1  0  0  0
 44112  1  0  0  0
 45 46  2  0  0  0
 45113  1  0  0  0
 46114  1  0  0  0
 47115  1  0  0  0
 47116  1  0  0  0
 48 56  1  0  0  0
 48 65  1  0  0  0
 48117  1  0  0  0
 49 50  1  0  0  0
 49 53  1  0  0  0
 49 64  1  0  0  0
 49118  1  0  0  0
 50 51  1  0  0  0
 50119  1  0  0  0
 50120  1  0  0  0
 51 52  1  0  0  0
 51121  1  0  0  0
 51122  1  0  0  0
 52123  1  0  0  0
 52124  1  0  0  0
 53 54  1  0  0  0
 54 55  2  0  0  0
 54125  1  0  0  0
 55 57  1  0  0  0
 55126  1  0  0  0
 56 69  2  0  0  0
 57 58  2  0  0  0
 57127  1  0  0  0
 58128  1  0  0  0
 59 60  1  0  0  0
 59 61  1  0  0  0
 59 62  1  0  0  0
 60129  1  0  0  0
 60130  1  0  0  0
 60131  1  0  0  0
 61132  1  0  0  0
 61133  1  0  0  0
 61134  1  0  0  0
 62135  1  0  0  0
 62136  1  0  0  0
 62137  1  0  0  0
 63 65  1  0  0  0
 63138  1  0  0  0
 63139  1  0  0  0
 63140  1  0  0  0
 64141  1  0  0  0
 65142  1  0  0  0
 68 79  1  0  0  0
 71 72  2  0  0  0
 71 81  1  0  0  0
 71143  1  0  0  0
 72 78  1  0  0  0
 72 82  1  0  0  0
 73 80  1  0  0  0
 73 81  1  0  0  0
 73 82  2  0  0  0
 74144  1  0  0  0
 74145  1  0  0  0
 74146  1  0  0  0
 74 79  1  0  0  0
 75147  1  0  0  0
 75148  1  0  0  0
 75149  1  0  0  0
 75 80  1  0  0  0
 76 80  1  0  0  0
 76150  1  0  0  0
 76151  1  0  0  0
 76152  1  0  0  0
 77 80  1  0  0  0
 77153  1  0  0  0
 77154  1  0  0  0
 77155  1  0  0  0
 78 83  1  0  0  0
 78156  1  0  0  0
 78157  1  0  0  0
 79 81  1  0  0  0
 79158  1  0  0  0
 82159  1  0  0  0
 83160  1  0  0  0
M  CHG  1  82   1
M  ISO  4   1 100  68 101  79 101  83 100
M  END
> <chiral flag>
0

> <version>
0

> <s_m_source_file>
/data/baiqing/PycharmProjects/Reinvent-master-3.2/result/LINK_invent/BTK/process_docking_weight1_custom_sum_contain_oxygen_bond_distance_aromatic_linkinvent_7_9_3/rearranged_h_0055.sdf

> <i_m_source_file_index>
62

> <r_mmod_Potential_Energy-OPLS-2005>
1591.14306640625

> <r_mmod_Stretch_Energy-OPLS-2005>
743.392272949219

> <r_mmod_Bend_Energy-OPLS-2005>
574.761962890625

> <r_mmod_Torsional_Energy-OPLS-2005>
240.450988769531

> <r_mmod_Improper_Torsional_Energy-OPLS-2005>
6.60855722427368

> <r_mmod_Van_der_Waal_Energy-OPLS-2005>
112.391487121582

> <r_mmod_Electrostatic_Energy-OPLS-2005>
-288.972412109375

> <r_mmod_Solvation_Energy-OPLS-2005>
-423.720428466797

> <b_mmod_Minimization_Converged-OPLS-2005>
0

> <r_mmod_RMS_Derivative-OPLS-2005>
3.50996232032776

$$$$
62
                    3D
 Structure written by MMmdl.
159167  0  0  1  0            999 V2000
  -30.5158  -15.0373   20.4110 C   0  0  0  0  0  0
  -30.4482  -12.6529   19.4904 C   0  0  0  0  0  0
  -29.5235  -12.5383   18.2558 C   0  0  0  0  0  0
  -28.0620  -12.3038   18.6845 C   0  0  0  0  0  0
  -27.6252  -13.2526   19.8297 C   0  0  2  0  0  0
  -28.6734  -13.3219   20.9593 C   0  0  0  0  0  0
  -25.2450  -13.8218   20.5713 C   0  0  0  0  0  0
  -24.1774  -13.0436   20.9228 C   0  0  0  0  0  0
  -24.6397  -11.6918   20.8755 C   0  0  0  0  0  0
  -23.9078  -10.4283   21.0396 C   0  0  0  0  0  0
  -24.3621   -9.4200   21.9184 C   0  0  0  0  0  0
  -23.6289   -8.2239   22.0758 C   0  0  0  0  0  0
  -22.4273   -8.0273   21.3545 C   0  0  0  0  0  0
  -21.9914   -9.0245   20.4650 C   0  0  0  0  0  0
  -22.7245  -10.2124   20.3050 C   0  0  0  0  0  0
  -21.6850   -6.0721   22.5275 C   0  0  0  0  0  0
  -21.4020   -6.5630   23.8204 C   0  0  0  0  0  0
  -21.3661   -5.6784   24.9172 C   0  0  0  0  0  0
  -21.6044   -4.3050   24.7226 C   0  0  0  0  0  0
  -21.8819   -3.8138   23.4347 C   0  0  0  0  0  0
  -21.9195   -4.6947   22.3402 C   0  0  0  0  0  0
  -22.7788  -13.5201   21.1873 C   0  0  0  0  0  0
  -22.1660   -4.2130   21.0976 F   0  0  0  0  0  0
  -21.5628   -3.4535   25.7743 F   0  0  0  0  0  0
  -29.9321  -13.7652   20.3421 N   0  0  0  0  0  0
  -26.2875  -12.9453   20.3239 N   0  0  0  0  0  0
  -25.9336  -11.6579   20.5747 N   0  0  0  0  0  0
  -22.0443  -12.8194   22.0432 N   0  0  0  0  0  0
  -25.4095  -15.1942   20.4111 N   0  0  0  0  0  0
  -31.7368  -15.0861   20.2280 O   0  0  0  0  0  0
  -21.6642   -6.8864   21.4234 O   0  0  0  0  0  0
  -22.3462  -14.5490   20.6697 O   0  0  0  0  0  0
  -24.6492  -31.8376   23.1835 C   0  0  0  0  0  0
  -25.9231  -32.4674   23.8230 C   0  0  1  0  0  0
  -27.2219  -27.0822   20.1722 C   0  0  0  0  0  0
  -25.5981  -33.8473   24.2188 N   0  0  0  0  0  0
  -23.4555  -30.4523   21.5294 C   0  0  2  0  0  0
  -24.9082  -28.8643   20.1183 C   0  0  0  0  0  0
  -22.7582  -29.4509   22.4839 C   0  0  0  0  0  0
  -18.0307  -28.1411   22.8464 C   0  0  0  0  0  0
  -24.1493  -36.7219   23.2645 C   0  0  0  0  0  0
  -26.0137  -30.6970   21.3876 C   0  0  0  0  0  0
  -26.0889  -29.2998   20.7363 C   0  0  0  0  0  0
  -27.2473  -28.4258   20.7420 C   0  0  0  0  0  0
  -26.0164  -26.7607   19.5147 C   0  0  0  0  0  0
  -24.8868  -27.6088   19.4922 C   0  0  0  0  0  0
  -23.6879  -29.7709   20.1528 C   0  0  0  0  0  0
  -25.4123  -36.3011   24.0334 C   0  0  1  0  0  0
  -20.5922  -28.3731   23.1245 C   0  0  2  0  0  0
  -20.6793  -26.9438   22.5407 C   0  0  0  0  0  0
  -19.5771  -26.6397   21.5205 C   0  0  0  0  0  0
  -18.1950  -26.7942   22.1609 C   0  0  0  0  0  0
  -19.1557  -28.8883   23.2841 C   0  0  0  0  0  0
  -18.9481  -30.1474   23.8884 C   0  0  0  0  0  0
  -17.6481  -30.6611   24.0552 C   0  0  0  0  0  0
  -25.9069  -34.9398   23.5068 C   0  0  0  0  0  0
  -16.5359  -29.9097   23.6341 C   0  0  0  0  0  0
  -16.7287  -28.6505   23.0377 C   0  0  0  0  0  0
  -26.4550  -31.6543   25.0668 C   0  0  0  0  0  0
  -25.3737  -31.3728   26.1354 C   0  0  0  0  0  0
  -27.0423  -30.2952   24.6254 C   0  0  0  0  0  0
  -27.6086  -32.4299   25.7459 C   0  0  0  0  0  0
  -27.5579  -37.1762   24.8469 C   0  0  0  0  0  0
  -21.4268  -29.3040   22.3592 N   0  0  0  0  0  0
  -26.4278  -37.3738   23.9430 N   0  0  0  0  0  0
  -24.7267  -31.0181   22.0891 N   0  0  0  0  0  0
  -23.4188  -28.8071   23.3023 O   0  0  0  0  0  0
  -28.2659  -26.0676   20.1726 O   0  0  0  0  0  0
  -26.5626  -34.8903   22.4620 O   0  0  0  0  0  0
  -23.5599  -32.1257   23.7042 O   0  0  0  0  0  0
  -28.9525  -21.7961   20.8292 C   0  0  0  0  0  0
  -28.6428  -23.1210   20.1828 C   0  0  0  0  0  0
  -29.2692  -20.7478   19.9030 C   0  0  0  0  0  0
  -31.0660  -19.0084   19.0135 C   0  0  0  0  0  0
  -28.5617  -18.0103   21.7930 C   0  0  0  0  0  0
  -31.0306  -17.9673   21.7627 C   0  0  0  0  0  0
  -29.2320  -21.1257   17.3403 C   0  0  0  0  0  0
  -28.0080  -24.5977   20.6904 C   0  0  0  0  0  0
  -29.7176  -19.1073   19.7662 C   0  0  1  0  0  0
  -29.7763  -17.7954   20.8747 C   0  0  0  0  0  0
  -28.7758  -22.8596   18.8946 N   0  0  0  0  0  0
  -29.1088  -21.5292   18.7318 N   0  0  0  0  0  0
  -29.7035  -16.2253   20.4836 N   0  0  0  0  0  0
  -31.4733  -12.8354   19.1658 H   0  0  0  0  0  0
  -30.4726  -11.7169   20.0503 H   0  0  0  0  0  0
  -29.8579  -11.7303   17.6033 H   0  0  0  0  0  0
  -29.5869  -13.4543   17.6677 H   0  0  0  0  0  0
  -27.9813  -11.2678   19.0183 H   0  0  0  0  0  0
  -27.3920  -12.4009   17.8293 H   0  0  0  0  0  0
  -27.5731  -14.2439   19.3789 H   0  0  0  0  0  0
  -28.7894  -12.3558   21.4513 H   0  0  0  0  0  0
  -28.3597  -14.0270   21.7310 H   0  0  0  0  0  0
  -25.2765   -9.5668   22.4761 H   0  0  0  0  0  0
  -23.9986   -7.4629   22.7491 H   0  0  0  0  0  0
  -21.0839   -8.8767   19.8960 H   0  0  0  0  0  0
  -22.3704  -10.9657   19.6151 H   0  0  0  0  0  0
  -21.2016   -7.6138   23.9700 H   0  0  0  0  0  0
  -21.1483   -6.0521   25.9072 H   0  0  0  0  0  0
  -22.0600   -2.7597   23.2859 H   0  0  0  0  0  0
  -22.4074  -11.9866   22.4823 H   0  0  0  0  0  0
  -21.1056  -13.1216   22.2635 H   0  0  0  0  0  0
  -24.6372  -15.8434   20.5152 H   0  0  0  0  0  0
  -26.2466  -15.6355   20.0542 H   0  0  0  0  0  0
  -26.7276  -32.5310   23.0933 H   0  0  0  0  0  0
  -25.0169  -33.9563   25.0370 H   0  0  0  0  0  0
  -22.7621  -31.2799   21.3662 H   0  0  0  0  0  0
  -23.3778  -35.9532   23.3292 H   0  0  0  0  0  0
  -24.3559  -36.8828   22.2059 H   0  0  0  0  0  0
  -23.7211  -37.6412   23.6642 H   0  0  0  0  0  0
  -26.1679  -31.4490   20.6130 H   0  0  0  0  0  0
  -26.8850  -30.7574   22.0277 H   0  0  0  0  0  0
  -28.1484  -28.7518   21.2412 H   0  0  0  0  0  0
  -25.9303  -25.8014   19.0225 H   0  0  0  0  0  0
  -23.9846  -27.2701   19.0007 H   0  0  0  0  0  0
  -23.8374  -30.5387   19.3925 H   0  0  0  0  0  0
  -22.8009  -29.2160   19.8389 H   0  0  0  0  0  0
  -25.1315  -36.1826   25.0831 H   0  0  0  0  0  0
  -21.0007  -28.3317   24.1369 H   0  0  0  0  0  0
  -20.5694  -26.2341   23.3615 H   0  0  0  0  0  0
  -21.6667  -26.7446   22.1213 H   0  0  0  0  0  0
  -19.6940  -25.6302   21.1257 H   0  0  0  0  0  0
  -19.6734  -27.3182   20.6718 H   0  0  0  0  0  0
  -17.4231  -26.6674   21.4014 H   0  0  0  0  0  0
  -18.0350  -26.0101   22.9027 H   0  0  0  0  0  0
  -19.7955  -30.7279   24.2274 H   0  0  0  0  0  0
  -17.5040  -31.6292   24.5134 H   0  0  0  0  0  0
  -15.5365  -30.3005   23.7692 H   0  0  0  0  0  0
  -15.8669  -28.0803   22.7166 H   0  0  0  0  0  0
  -24.5963  -30.7002   25.7691 H   0  0  0  0  0  0
  -24.8887  -32.2916   26.4672 H   0  0  0  0  0  0
  -25.8069  -30.8994   27.0178 H   0  0  0  0  0  0
  -26.3052  -29.6653   24.1264 H   0  0  0  0  0  0
  -27.4031  -29.7252   25.4824 H   0  0  0  0  0  0
  -27.8952  -30.4200   23.9577 H   0  0  0  0  0  0
  -27.2689  -33.3624   26.1973 H   0  0  0  0  0  0
  -28.3959  -32.6798   25.0331 H   0  0  0  0  0  0
  -28.0677  -31.8442   26.5435 H   0  0  0  0  0  0
  -28.2583  -38.0073   24.7571 H   0  0  0  0  0  0
  -28.1086  -36.2619   24.6242 H   0  0  0  0  0  0
  -27.2297  -37.1351   25.8863 H   0  0  0  0  0  0
  -20.9491  -29.8704   21.6726 H   0  0  0  0  0  0
  -26.0139  -38.2794   24.1464 H   0  0  0  0  0  0
  -28.9098  -21.6361   21.8975 H   0  0  0  0  0  0
  -31.0500  -19.4552   18.0264 H   0  0  0  0  0  0
  -31.3648  -17.9696   18.8663 H   0  0  0  0  0  0
  -31.8627  -19.5049   19.5702 H   0  0  0  0  0  0
  -28.5802  -18.9986   22.2555 H   0  0  0  0  0  0
  -28.5263  -17.2784   22.6012 H   0  0  0  0  0  0
  -27.6264  -17.9305   21.2367 H   0  0  0  0  0  0
  -31.1249  -18.9917   22.1264 H   0  0  0  0  0  0
  -31.9463  -17.7272   21.2214 H   0  0  0  0  0  0
  -31.0040  -17.3153   22.6358 H   0  0  0  0  0  0
  -30.2358  -21.3554   16.9785 H   0  0  0  0  0  0
  -28.5150  -21.6708   16.7249 H   0  0  0  0  0  0
  -29.0302  -20.0632   17.2168 H   0  0  0  0  0  0
  -28.2396  -24.6687   21.7529 H   0  0  0  0  0  0
  -26.9252  -24.4719   20.6884 H   0  0  0  0  0  0
  -28.9754  -18.7297   19.0641 H   0  0  0  0  0  0
  -28.7387  -15.9366   20.4324 H   0  0  0  0  0  0
  1 25  1  0  0  0
  1 30  2  0  0  0
  1 83  1  0  0  0
  2  3  1  0  0  0
  2 25  1  0  0  0
  2 84  1  0  0  0
  2 85  1  0  0  0
  3  4  1  0  0  0
  3 86  1  0  0  0
  3 87  1  0  0  0
  4  5  1  0  0  0
  4 88  1  0  0  0
  4 89  1  0  0  0
  5  6  1  0  0  0
  5 26  1  0  0  0
  5 90  1  0  0  0
  6 25  1  0  0  0
  6 91  1  0  0  0
  6 92  1  0  0  0
  7  8  2  0  0  0
  7 26  1  0  0  0
  7 29  1  0  0  0
  8  9  1  0  0  0
  8 22  1  0  0  0
  9 10  1  0  0  0
  9 27  2  0  0  0
 10 11  2  0  0  0
 10 15  1  0  0  0
 11 12  1  0  0  0
 11 93  1  0  0  0
 12 13  2  0  0  0
 12 94  1  0  0  0
 13 14  1  0  0  0
 13 31  1  0  0  0
 14 15  2  0  0  0
 14 95  1  0  0  0
 15 96  1  0  0  0
 16 17  2  0  0  0
 16 21  1  0  0  0
 16 31  1  0  0  0
 17 18  1  0  0  0
 17 97  1  0  0  0
 18 19  2  0  0  0
 18 98  1  0  0  0
 19 20  1  0  0  0
 19 24  1  0  0  0
 20 21  2  0  0  0
 20 99  1  0  0  0
 21 23  1  0  0  0
 22 28  1  0  0  0
 22 32  2  0  0  0
 26 27  1  0  0  0
 28100  1  0  0  0
 28101  1  0  0  0
 29102  1  0  0  0
 29103  1  0  0  0
 33 34  1  0  0  0
 33 66  1  0  0  0
 33 70  2  0  0  0
 34 36  1  0  0  0
 34 59  1  0  0  0
 34104  1  0  0  0
 35 44  2  0  0  0
 35 45  1  0  0  0
 35 68  1  0  0  0
 36 56  1  0  0  0
 36105  1  0  0  0
 37 39  1  0  0  0
 37 47  1  0  0  0
 37 66  1  0  0  0
 37106  1  0  0  0
 38 43  2  0  0  0
 38 46  1  0  0  0
 38 47  1  0  0  0
 39 64  1  0  0  0
 39 67  2  0  0  0
 40 52  1  0  0  0
 40 53  2  0  0  0
 40 58  1  0  0  0
 41107  1  0  0  0
 41108  1  0  0  0
 41109  1  0  0  0
 41 48  1  0  0  0
 42 43  1  0  0  0
 42 66  1  0  0  0
 42110  1  0  0  0
 42111  1  0  0  0
 43 44  1  0  0  0
 44112  1  0  0  0
 45 46  2  0  0  0
 45113  1  0  0  0
 46114  1  0  0  0
 47115  1  0  0  0
 47116  1  0  0  0
 48 56  1  0  0  0
 48 65  1  0  0  0
 48117  1  0  0  0
 49 50  1  0  0  0
 49 53  1  0  0  0
 49 64  1  0  0  0
 49118  1  0  0  0
 50 51  1  0  0  0
 50119  1  0  0  0
 50120  1  0  0  0
 51 52  1  0  0  0
 51121  1  0  0  0
 51122  1  0  0  0
 52123  1  0  0  0
 52124  1  0  0  0
 53 54  1  0  0  0
 54 55  2  0  0  0
 54125  1  0  0  0
 55 57  1  0  0  0
 55126  1  0  0  0
 56 69  2  0  0  0
 57 58  2  0  0  0
 57127  1  0  0  0
 58128  1  0  0  0
 59 60  1  0  0  0
 59 61  1  0  0  0
 59 62  1  0  0  0
 60129  1  0  0  0
 60130  1  0  0  0
 60131  1  0  0  0
 61132  1  0  0  0
 61133  1  0  0  0
 61134  1  0  0  0
 62135  1  0  0  0
 62136  1  0  0  0
 62137  1  0  0  0
 63 65  1  0  0  0
 63138  1  0  0  0
 63139  1  0  0  0
 63140  1  0  0  0
 64141  1  0  0  0
 65142  1  0  0  0
 68 78  1  0  0  0
 71 72  1  0  0  0
 71 73  2  0  0  0
 71143  1  0  0  0
 72 78  1  0  0  0
 72 81  2  0  0  0
 73 79  1  0  0  0
 73 82  1  0  0  0
 74144  1  0  0  0
 74145  1  0  0  0
 74146  1  0  0  0
 74 79  1  0  0  0
 75147  1  0  0  0
 75148  1  0  0  0
 75149  1  0  0  0
 75 80  1  0  0  0
 76 80  1  0  0  0
 76150  1  0  0  0
 76151  1  0  0  0
 76152  1  0  0  0
 77 82  1  0  0  0
 77153  1  0  0  0
 77154  1  0  0  0
 77155  1  0  0  0
 78156  1  0  0  0
 78157  1  0  0  0
 79 80  1  0  0  0
 79158  1  0  0  0
 80 83  1  0  0  0
 81 82  1  0  0  0
 83159  1  0  0  0
M  ISO  4   1 100  68 101  78 101  83 100
M  END
> <chiral flag>
0

> <version>
0

> <s_m_source_file>
/data/baiqing/PycharmProjects/Reinvent-master-3.2/result/LINK_invent/BTK/process_docking_weight1_custom_sum_contain_oxygen_bond_distance_aromatic_linkinvent_7_9_3/rearranged_h_0055.sdf

> <i_m_source_file_index>
63

> <r_mmod_Potential_Energy-OPLS-2005>
729.179626464844

> <r_mmod_Stretch_Energy-OPLS-2005>
345.585906982422

> <r_mmod_Bend_Energy-OPLS-2005>
350.984497070312

> <r_mmod_Torsional_Energy-OPLS-2005>
244.902145385742

> <r_mmod_Improper_Torsional_Energy-OPLS-2005>
5.38431358337402

> <r_mmod_Van_der_Waal_Energy-OPLS-2005>
110.698348999023

> <r_mmod_Electrostatic_Energy-OPLS-2005>
-358.388854980469

> <r_mmod_Solvation_Energy-OPLS-2005>
-222.661087036133

> <b_mmod_Minimization_Converged-OPLS-2005>
0

> <r_mmod_RMS_Derivative-OPLS-2005>
2.82769298553467

$$$$
63
                    3D
 Structure written by MMmdl.
147155  0  0  1  0            999 V2000
  -30.4743  -15.2792   20.4049 C   0  0  0  0  0  0
  -30.4537  -12.8359   19.5160 C   0  0  0  0  0  0
  -29.5375  -12.5832   18.2894 C   0  0  0  0  0  0
  -28.0902  -12.2962   18.7246 C   0  0  0  0  0  0
  -27.6232  -13.2655   19.8359 C   0  0  2  0  0  0
  -28.6727  -13.4151   20.9648 C   0  0  0  0  0  0
  -25.2395  -13.8187   20.5703 C   0  0  0  0  0  0
  -24.1758  -13.0387   20.9251 C   0  0  0  0  0  0
  -24.6422  -11.6900   20.8777 C   0  0  0  0  0  0
  -23.9107  -10.4272   21.0402 C   0  0  0  0  0  0
  -24.3642   -9.4185   21.9179 C   0  0  0  0  0  0
  -23.6304   -8.2233   22.0750 C   0  0  0  0  0  0
  -22.4289   -8.0277   21.3542 C   0  0  0  0  0  0
  -21.9927   -9.0254   20.4645 C   0  0  0  0  0  0
  -22.7269  -10.2127   20.3053 C   0  0  0  0  0  0
  -21.6858   -6.0729   22.5275 C   0  0  0  0  0  0
  -21.4013   -6.5634   23.8205 C   0  0  0  0  0  0
  -21.3655   -5.6790   24.9166 C   0  0  0  0  0  0
  -21.6045   -4.3055   24.7218 C   0  0  0  0  0  0
  -21.8823   -3.8144   23.4343 C   0  0  0  0  0  0
  -21.9198   -4.6959   22.3400 C   0  0  0  0  0  0
  -22.7779  -13.5164   21.1873 C   0  0  0  0  0  0
  -22.1679   -4.2144   21.0980 F   0  0  0  0  0  0
  -21.5621   -3.4536   25.7736 F   0  0  0  0  0  0
  -29.8910  -13.9726   20.3382 N   0  0  0  0  0  0
  -26.2892  -12.9480   20.3313 N   0  0  0  0  0  0
  -25.9379  -11.6589   20.5803 N   0  0  0  0  0  0
  -22.0440  -12.8177   22.0447 N   0  0  0  0  0  0
  -25.3829  -15.1904   20.3992 N   0  0  0  0  0  0
  -31.6845  -15.2569   20.1324 O   0  0  0  0  0  0
  -21.6647   -6.8876   21.4242 O   0  0  0  0  0  0
  -22.3457  -14.5451   20.6686 O   0  0  0  0  0  0
  -24.6614  -31.8247   23.1678 C   0  0  0  0  0  0
  -25.9295  -32.4586   23.8134 C   0  0  1  0  0  0
  -27.2318  -26.9484   20.1802 C   0  0  0  0  0  0
  -25.5954  -33.8394   24.2059 N   0  0  0  0  0  0
  -23.4758  -30.4343   21.5190 C   0  0  2  0  0  0
  -24.9327  -28.8277   20.1111 C   0  0  0  0  0  0
  -22.7672  -29.4422   22.4781 C   0  0  0  0  0  0
  -18.0312  -28.1389   22.8462 C   0  0  0  0  0  0
  -24.1485  -36.7215   23.2658 C   0  0  0  0  0  0
  -26.0457  -30.6392   21.3956 C   0  0  0  0  0  0
  -26.1184  -29.2320   20.7383 C   0  0  0  0  0  0
  -27.2626  -28.3143   20.7488 C   0  0  0  0  0  0
  -26.0118  -26.6918   19.5109 C   0  0  0  0  0  0
  -24.9027  -27.5752   19.4809 C   0  0  0  0  0  0
  -23.7134  -29.7492   20.1456 C   0  0  0  0  0  0
  -25.4138  -36.2971   24.0303 C   0  0  1  0  0  0
  -20.5956  -28.3738   23.1177 C   0  0  2  0  0  0
  -20.6786  -26.9409   22.5410 C   0  0  0  0  0  0
  -19.5755  -26.6354   21.5210 C   0  0  0  0  0  0
  -18.1931  -26.7916   22.1617 C   0  0  0  0  0  0
  -19.1587  -28.8889   23.2794 C   0  0  0  0  0  0
  -18.9503  -30.1478   23.8834 C   0  0  0  0  0  0
  -17.6501  -30.6587   24.0542 C   0  0  0  0  0  0
  -25.9115  -34.9352   23.5019 C   0  0  0  0  0  0
  -16.5387  -29.9079   23.6330 C   0  0  0  0  0  0
  -16.7301  -28.6493   23.0363 C   0  0  0  0  0  0
  -26.4547  -31.6520   25.0653 C   0  0  0  0  0  0
  -25.3647  -31.3752   26.1283 C   0  0  0  0  0  0
  -27.0462  -30.2892   24.6387 C   0  0  0  0  0  0
  -27.6029  -32.4364   25.7439 C   0  0  0  0  0  0
  -27.5576  -37.1750   24.8476 C   0  0  0  0  0  0
  -21.4353  -29.3012   22.3524 N   0  0  0  0  0  0
  -26.4281  -37.3709   23.9424 N   0  0  0  0  0  0
  -24.7482  -30.9919   22.0813 N   0  0  0  0  0  0
  -23.4229  -28.7987   23.3006 O   0  0  0  0  0  0
  -28.2336  -25.8461   20.2617 O   0  0  0  0  0  0
  -26.5743  -34.8888   22.4626 O   0  0  0  0  0  0
  -23.5691  -32.1214   23.6786 O   0  0  0  0  0  0
  -29.0478  -21.9285   21.3787 C   0  0  0  0  0  0
  -28.6932  -22.7111   20.2006 C   0  0  0  0  0  0
  -29.4445  -19.7398   20.2944 C   0  0  0  0  0  0
  -28.4949  -16.6131   21.2445 C   0  0  0  0  0  0
  -27.8845  -24.2588   20.0547 C   0  0  0  0  0  0
  -30.1926  -18.1605   20.2236 C   0  0  0  0  0  0
  -29.4251  -20.5499   21.4094 N   0  0  0  0  0  0
  -28.7406  -21.8144   19.1227 N   0  0  0  0  0  0
  -29.1133  -20.4539   19.1533 N   0  0  0  0  0  0
  -29.7603  -16.5868   20.5246 N   0  0  0  0  0  0
  -31.4606  -13.0583   19.1588 H   0  0  0  0  0  0
  -30.5645  -11.9339   20.1199 H   0  0  0  0  0  0
  -29.9221  -11.7539   17.6946 H   0  0  0  0  0  0
  -29.5531  -13.4575   17.6373 H   0  0  0  0  0  0
  -28.0544  -11.2723   19.0983 H   0  0  0  0  0  0
  -27.4162  -12.3335   17.8684 H   0  0  0  0  0  0
  -27.5398  -14.2307   19.3362 H   0  0  0  0  0  0
  -28.8724  -12.4598   21.4526 H   0  0  0  0  0  0
  -28.3046  -14.0609   21.7581 H   0  0  0  0  0  0
  -25.2779   -9.5660   22.4753 H   0  0  0  0  0  0
  -24.0003   -7.4630   22.7481 H   0  0  0  0  0  0
  -21.0846   -8.8781   19.8962 H   0  0  0  0  0  0
  -22.3721  -10.9667   19.6172 H   0  0  0  0  0  0
  -21.2004   -7.6139   23.9702 H   0  0  0  0  0  0
  -21.1471   -6.0520   25.9070 H   0  0  0  0  0  0
  -22.0600   -2.7602   23.2847 H   0  0  0  0  0  0
  -22.4085  -11.9883   22.4902 H   0  0  0  0  0  0
  -21.1051  -13.1194   22.2613 H   0  0  0  0  0  0
  -24.6015  -15.8278   20.5024 H   0  0  0  0  0  0
  -26.2161  -15.6399   20.0474 H   0  0  0  0  0  0
  -26.7363  -32.5142   23.0852 H   0  0  0  0  0  0
  -24.9947  -33.9464   25.0100 H   0  0  0  0  0  0
  -22.7855  -31.2640   21.3486 H   0  0  0  0  0  0
  -23.3759  -35.9523   23.3293 H   0  0  0  0  0  0
  -24.3556  -36.8914   22.2073 H   0  0  0  0  0  0
  -23.7220  -37.6391   23.6748 H   0  0  0  0  0  0
  -26.2232  -31.3855   20.6198 H   0  0  0  0  0  0
  -26.9043  -30.6956   22.0502 H   0  0  0  0  0  0
  -28.1600  -28.6213   21.2666 H   0  0  0  0  0  0
  -25.8670  -25.7319   19.0373 H   0  0  0  0  0  0
  -23.9996  -27.2491   18.9837 H   0  0  0  0  0  0
  -23.8586  -30.5182   19.3848 H   0  0  0  0  0  0
  -22.8241  -29.1997   19.8329 H   0  0  0  0  0  0
  -25.1314  -36.1771   25.0785 H   0  0  0  0  0  0
  -21.0026  -28.3340   24.1306 H   0  0  0  0  0  0
  -20.5655  -26.2336   23.3658 H   0  0  0  0  0  0
  -21.6646  -26.7359   22.1211 H   0  0  0  0  0  0
  -19.6919  -25.6246   21.1279 H   0  0  0  0  0  0
  -19.6712  -27.3126   20.6710 H   0  0  0  0  0  0
  -17.4208  -26.6670   21.4014 H   0  0  0  0  0  0
  -18.0322  -26.0060   22.9015 H   0  0  0  0  0  0
  -19.7992  -30.7294   24.2176 H   0  0  0  0  0  0
  -17.5062  -31.6267   24.5150 H   0  0  0  0  0  0
  -15.5388  -30.2968   23.7694 H   0  0  0  0  0  0
  -15.8692  -28.0800   22.7121 H   0  0  0  0  0  0
  -24.5835  -30.7131   25.7539 H   0  0  0  0  0  0
  -24.8813  -32.2938   26.4606 H   0  0  0  0  0  0
  -25.7805  -30.8942   27.0138 H   0  0  0  0  0  0
  -26.3133  -29.6540   24.1411 H   0  0  0  0  0  0
  -27.4026  -29.7279   25.5036 H   0  0  0  0  0  0
  -27.9043  -30.4085   23.9774 H   0  0  0  0  0  0
  -27.2604  -33.3741   26.1829 H   0  0  0  0  0  0
  -28.3884  -32.6836   25.0279 H   0  0  0  0  0  0
  -28.0644  -31.8634   26.5494 H   0  0  0  0  0  0
  -28.2566  -38.0068   24.7533 H   0  0  0  0  0  0
  -28.1103  -36.2600   24.6292 H   0  0  0  0  0  0
  -27.2307  -37.1381   25.8881 H   0  0  0  0  0  0
  -20.9615  -29.8726   21.6674 H   0  0  0  0  0  0
  -26.0147  -38.2765   24.1446 H   0  0  0  0  0  0
  -28.9836  -22.4026   22.3470 H   0  0  0  0  0  0
  -27.7723  -15.9885   20.7387 H   0  0  0  0  0  0
  -28.0534  -17.6079   21.2931 H   0  0  0  0  0  0
  -28.6230  -16.2652   22.2704 H   0  0  0  0  0  0
  -26.9611  -24.1096   20.6131 H   0  0  0  0  0  0
  -27.5744  -24.2363   19.0106 H   0  0  0  0  0  0
  -31.1038  -18.2898   20.8066 H   0  0  0  0  0  0
  -30.5549  -18.1172   19.1969 H   0  0  0  0  0  0
  1 25  1  0  0  0
  1 30  2  0  0  0
  1 80  1  0  0  0
  2  3  1  0  0  0
  2 25  1  0  0  0
  2 81  1  0  0  0
  2 82  1  0  0  0
  3  4  1  0  0  0
  3 83  1  0  0  0
  3 84  1  0  0  0
  4  5  1  0  0  0
  4 85  1  0  0  0
  4 86  1  0  0  0
  5  6  1  0  0  0
  5 26  1  0  0  0
  5 87  1  0  0  0
  6 25  1  0  0  0
  6 88  1  0  0  0
  6 89  1  0  0  0
  7  8  2  0  0  0
  7 26  1  0  0  0
  7 29  1  0  0  0
  8  9  1  0  0  0
  8 22  1  0  0  0
  9 10  1  0  0  0
  9 27  2  0  0  0
 10 11  2  0  0  0
 10 15  1  0  0  0
 11 12  1  0  0  0
 11 90  1  0  0  0
 12 13  2  0  0  0
 12 91  1  0  0  0
 13 14  1  0  0  0
 13 31  1  0  0  0
 14 15  2  0  0  0
 14 92  1  0  0  0
 15 93  1  0  0  0
 16 17  2  0  0  0
 16 21  1  0  0  0
 16 31  1  0  0  0
 17 18  1  0  0  0
 17 94  1  0  0  0
 18 19  2  0  0  0
 18 95  1  0  0  0
 19 20  1  0  0  0
 19 24  1  0  0  0
 20 21  2  0  0  0
 20 96  1  0  0  0
 21 23  1  0  0  0
 22 28  1  0  0  0
 22 32  2  0  0  0
 26 27  1  0  0  0
 28 97  1  0  0  0
 28 98  1  0  0  0
 29 99  1  0  0  0
 29100  1  0  0  0
 33 34  1  0  0  0
 33 66  1  0  0  0
 33 70  2  0  0  0
 34 36  1  0  0  0
 34 59  1  0  0  0
 34101  1  0  0  0
 35 44  2  0  0  0
 35 45  1  0  0  0
 35 68  1  0  0  0
 36 56  1  0  0  0
 36102  1  0  0  0
 37 39  1  0  0  0
 37 47  1  0  0  0
 37 66  1  0  0  0
 37103  1  0  0  0
 38 43  2  0  0  0
 38 46  1  0  0  0
 38 47  1  0  0  0
 39 64  1  0  0  0
 39 67  2  0  0  0
 40 52  1  0  0  0
 40 53  2  0  0  0
 40 58  1  0  0  0
 41104  1  0  0  0
 41105  1  0  0  0
 41106  1  0  0  0
 41 48  1  0  0  0
 42 43  1  0  0  0
 42 66  1  0  0  0
 42107  1  0  0  0
 42108  1  0  0  0
 43 44  1  0  0  0
 44109  1  0  0  0
 45 46  2  0  0  0
 45110  1  0  0  0
 46111  1  0  0  0
 47112  1  0  0  0
 47113  1  0  0  0
 48 56  1  0  0  0
 48 65  1  0  0  0
 48114  1  0  0  0
 49 50  1  0  0  0
 49 53  1  0  0  0
 49 64  1  0  0  0
 49115  1  0  0  0
 50 51  1  0  0  0
 50116  1  0  0  0
 50117  1  0  0  0
 51 52  1  0  0  0
 51118  1  0  0  0
 51119  1  0  0  0
 52120  1  0  0  0
 52121  1  0  0  0
 53 54  1  0  0  0
 54 55  2  0  0  0
 54122  1  0  0  0
 55 57  1  0  0  0
 55123  1  0  0  0
 56 69  2  0  0  0
 57 58  2  0  0  0
 57124  1  0  0  0
 58125  1  0  0  0
 59 60  1  0  0  0
 59 61  1  0  0  0
 59 62  1  0  0  0
 60126  1  0  0  0
 60127  1  0  0  0
 60128  1  0  0  0
 61129  1  0  0  0
 61130  1  0  0  0
 61131  1  0  0  0
 62132  1  0  0  0
 62133  1  0  0  0
 62134  1  0  0  0
 63 65  1  0  0  0
 63135  1  0  0  0
 63136  1  0  0  0
 63137  1  0  0  0
 64138  1  0  0  0
 65139  1  0  0  0
 68 75  1  0  0  0
 71 72  2  0  0  0
 71 77  1  0  0  0
 71140  1  0  0  0
 72 75  1  0  0  0
 72 78  1  0  0  0
 73 76  1  0  0  0
 73 77  2  0  0  0
 73 79  1  0  0  0
 74 80  1  0  0  0
 74141  1  0  0  0
 74142  1  0  0  0
 74143  1  0  0  0
 75144  1  0  0  0
 75145  1  0  0  0
 76 80  1  0  0  0
 76146  1  0  0  0
 76147  1  0  0  0
 78 79  2  0  0  0
M  ISO  4   1 100  68 101  75 101  80 100
M  END
> <chiral flag>
0

> <version>
0

> <s_m_source_file>
/data/baiqing/PycharmProjects/Reinvent-master-3.2/result/LINK_invent/BTK/process_docking_weight1_custom_sum_contain_oxygen_bond_distance_aromatic_linkinvent_7_9_3/rearranged_h_0055.sdf

> <i_m_source_file_index>
64

> <r_mmod_Potential_Energy-OPLS-2005>
1222.61706542969

> <r_mmod_Stretch_Energy-OPLS-2005>
515.225769042969

> <r_mmod_Bend_Energy-OPLS-2005>
454.769104003906

> <r_mmod_Torsional_Energy-OPLS-2005>
253.629592895508

> <r_mmod_Improper_Torsional_Energy-OPLS-2005>
10.5258922576904

> <r_mmod_Van_der_Waal_Energy-OPLS-2005>
142.757614135742

> <r_mmod_Electrostatic_Energy-OPLS-2005>
-353.697296142578

> <r_mmod_Solvation_Energy-OPLS-2005>
-245.106094360352

> <b_mmod_Minimization_Converged-OPLS-2005>
0

> <r_mmod_RMS_Derivative-OPLS-2005>
3.21622395515442

$$$$
64
                    3D
 Structure written by MMmdl.
166174  0  0  1  0            999 V2000
  -30.7061  -14.5125   20.6223 C   0  0  0  0  0  0
  -30.4171  -12.3242   19.4787 C   0  0  0  0  0  0
  -29.5169  -12.5272   18.2437 C   0  0  0  0  0  0
  -28.0325  -12.3807   18.6335 C   0  0  0  0  0  0
  -27.6616  -13.2161   19.8897 C   0  0  2  0  0  0
  -28.6928  -13.0154   21.0251 C   0  0  0  0  0  0
  -25.2582  -13.8179   20.5712 C   0  0  0  0  0  0
  -24.1809  -13.0437   20.9182 C   0  0  0  0  0  0
  -24.6379  -11.6915   20.8742 C   0  0  0  0  0  0
  -23.9040  -10.4292   21.0397 C   0  0  0  0  0  0
  -24.3604   -9.4223   21.9184 C   0  0  0  0  0  0
  -23.6300   -8.2243   22.0762 C   0  0  0  0  0  0
  -22.4283   -8.0273   21.3539 C   0  0  0  0  0  0
  -21.9901   -9.0251   20.4648 C   0  0  0  0  0  0
  -22.7201  -10.2147   20.3062 C   0  0  0  0  0  0
  -21.6845   -6.0710   22.5261 C   0  0  0  0  0  0
  -21.3992   -6.5610   23.8198 C   0  0  0  0  0  0
  -21.3672   -5.6766   24.9162 C   0  0  0  0  0  0
  -21.6072   -4.3033   24.7220 C   0  0  0  0  0  0
  -21.8811   -3.8117   23.4333 C   0  0  0  0  0  0
  -21.9211   -4.6939   22.3390 C   0  0  0  0  0  0
  -22.7835  -13.5280   21.1812 C   0  0  0  0  0  0
  -22.1667   -4.2120   21.0968 F   0  0  0  0  0  0
  -21.5675   -3.4519   25.7733 F   0  0  0  0  0  0
  -30.0241  -13.3301   20.4855 N   0  0  0  0  0  0
  -26.3011  -12.9333   20.3407 N   0  0  0  0  0  0
  -25.9314  -11.6488   20.5797 N   0  0  0  0  0  0
  -22.0450  -12.8312   22.0383 N   0  0  0  0  0  0
  -25.4340  -15.1896   20.4142 N   0  0  0  0  0  0
  -31.7784  -14.6773   20.0328 O   0  0  0  0  0  0
  -21.6645   -6.8871   21.4224 O   0  0  0  0  0  0
  -22.3549  -14.5580   20.6654 O   0  0  0  0  0  0
  -24.6174  -31.8657   23.2046 C   0  0  0  0  0  0
  -25.9059  -32.4805   23.8359 C   0  0  1  0  0  0
  -27.2274  -27.3659   20.1212 C   0  0  0  0  0  0
  -25.5897  -33.8610   24.2272 N   0  0  0  0  0  0
  -23.4080  -30.4871   21.5459 C   0  0  2  0  0  0
  -24.8581  -28.9459   20.1098 C   0  0  0  0  0  0
  -22.7398  -29.4678   22.4967 C   0  0  0  0  0  0
  -18.0269  -28.1368   22.8519 C   0  0  0  0  0  0
  -24.1491  -36.7272   23.2641 C   0  0  0  0  0  0
  -25.9434  -30.8088   21.3739 C   0  0  0  0  0  0
  -26.0197  -29.4409   20.7138 C   0  0  0  0  0  0
  -27.2036  -28.6590   20.7139 C   0  0  0  0  0  0
  -26.0457  -26.9013   19.5035 C   0  0  0  0  0  0
  -24.8717  -27.6806   19.4995 C   0  0  0  0  0  0
  -23.6170  -29.8107   20.1641 C   0  0  0  0  0  0
  -25.4123  -36.3080   24.0316 C   0  0  1  0  0  0
  -20.5867  -28.3672   23.1290 C   0  0  2  0  0  0
  -20.6751  -26.9398   22.5393 C   0  0  0  0  0  0
  -19.5722  -26.6393   21.5202 C   0  0  0  0  0  0
  -18.1916  -26.7926   22.1635 C   0  0  0  0  0  0
  -19.1523  -28.8835   23.2917 C   0  0  0  0  0  0
  -18.9451  -30.1448   23.8911 C   0  0  0  0  0  0
  -17.6455  -30.6588   24.0565 C   0  0  0  0  0  0
  -25.9056  -34.9460   23.5100 C   0  0  0  0  0  0
  -16.5345  -29.9074   23.6345 C   0  0  0  0  0  0
  -16.7264  -28.6482   23.0395 C   0  0  0  0  0  0
  -26.4466  -31.6620   25.0733 C   0  0  0  0  0  0
  -25.3651  -31.3768   26.1419 C   0  0  0  0  0  0
  -27.0329  -30.3041   24.6231 C   0  0  0  0  0  0
  -27.6053  -32.4357   25.7463 C   0  0  0  0  0  0
  -27.5574  -37.1779   24.8463 C   0  0  0  0  0  0
  -21.4120  -29.3047   22.3679 N   0  0  0  0  0  0
  -26.4293  -37.3768   23.9406 N   0  0  0  0  0  0
  -24.6745  -31.0693   22.0994 N   0  0  0  0  0  0
  -23.4144  -28.8230   23.3050 O   0  0  0  0  0  0
  -28.3892  -26.6035   20.1806 O   0  0  0  0  0  0
  -26.5644  -34.8916   22.4679 O   0  0  0  0  0  0
  -23.5348  -32.1478   23.7382 O   0  0  0  0  0  0
  -28.0373  -22.0111   19.2475 C   0  0  0  0  0  0
  -28.6934  -20.8079   19.1888 C   0  0  0  0  0  0
  -29.4946  -20.7740   20.3635 C   0  0  0  0  0  0
  -29.4506  -20.1757   16.8841 C   0  0  0  0  0  0
  -30.3862  -15.4789   22.9744 C   0  0  0  0  0  0
  -32.1555  -17.2983   21.4958 C   0  0  0  0  0  0
  -28.6405  -19.7523   18.1130 C   0  0  0  0  0  0
  -30.4841  -19.6512   20.7213 C   0  0  0  0  0  0
  -28.1161  -24.0815   20.7826 C   0  0  0  0  0  0
  -29.8764  -18.2860   21.2277 C   0  0  0  0  0  0
  -28.4484  -25.2100   19.7399 C   0  0  0  0  0  0
  -30.1650  -15.7309   21.4632 C   0  0  1  0  0  0
  -29.3651  -21.9170   21.0593 N   0  0  0  0  0  0
  -28.4958  -22.7082   20.3467 N   0  0  0  0  0  0
  -30.7566  -17.0633   21.0313 N   0  3  1  0  0  0
  -31.4695  -12.3974   19.2091 H   0  0  0  0  0  0
  -30.2933  -11.3133   19.8742 H   0  0  0  0  0  0
  -29.7769  -11.8160   17.4586 H   0  0  0  0  0  0
  -29.6932  -13.5202   17.8287 H   0  0  0  0  0  0
  -27.8463  -11.3247   18.8285 H   0  0  0  0  0  0
  -27.3989  -12.6632   17.7943 H   0  0  0  0  0  0
  -27.7034  -14.2627   19.5961 H   0  0  0  0  0  0
  -28.6657  -11.9802   21.3750 H   0  0  0  0  0  0
  -28.4363  -13.6212   21.8914 H   0  0  0  0  0  0
  -25.2748   -9.5712   22.4766 H   0  0  0  0  0  0
  -24.0025   -7.4621   22.7473 H   0  0  0  0  0  0
  -21.0835   -8.8733   19.8954 H   0  0  0  0  0  0
  -22.3626  -10.9691   19.6186 H   0  0  0  0  0  0
  -21.1897   -7.6100   23.9673 H   0  0  0  0  0  0
  -21.1545   -6.0499   25.9073 H   0  0  0  0  0  0
  -22.0594   -2.7583   23.2829 H   0  0  0  0  0  0
  -22.4058  -12.0000   22.4818 H   0  0  0  0  0  0
  -21.1080  -13.1385   22.2547 H   0  0  0  0  0  0
  -24.6717  -15.8533   20.5047 H   0  0  0  0  0  0
  -26.2833  -15.6177   20.0659 H   0  0  0  0  0  0
  -26.7124  -32.5483   23.1101 H   0  0  0  0  0  0
  -24.9950  -33.9782   25.0346 H   0  0  0  0  0  0
  -22.7004  -31.3067   21.4001 H   0  0  0  0  0  0
  -23.3767  -35.9583   23.3309 H   0  0  0  0  0  0
  -24.3561  -36.8903   22.2050 H   0  0  0  0  0  0
  -23.7233  -37.6468   23.6676 H   0  0  0  0  0  0
  -26.0720  -31.5814   20.6134 H   0  0  0  0  0  0
  -26.8229  -30.8540   22.0037 H   0  0  0  0  0  0
  -28.0948  -29.0359   21.1975 H   0  0  0  0  0  0
  -25.9981  -25.9312   19.0331 H   0  0  0  0  0  0
  -23.9781  -27.2943   19.0290 H   0  0  0  0  0  0
  -23.7001  -30.5787   19.3954 H   0  0  0  0  0  0
  -22.7474  -29.2135   19.8853 H   0  0  0  0  0  0
  -25.1299  -36.1931   25.0801 H   0  0  0  0  0  0
  -20.9996  -28.3247   24.1404 H   0  0  0  0  0  0
  -20.5656  -26.2271   23.3586 H   0  0  0  0  0  0
  -21.6614  -26.7434   22.1179 H   0  0  0  0  0  0
  -19.6878  -25.6314   21.1214 H   0  0  0  0  0  0
  -19.6657  -27.3212   20.6742 H   0  0  0  0  0  0
  -17.4175  -26.6706   21.4051 H   0  0  0  0  0  0
  -18.0330  -26.0046   22.9004 H   0  0  0  0  0  0
  -19.7924  -30.7278   24.2280 H   0  0  0  0  0  0
  -17.5003  -31.6288   24.5133 H   0  0  0  0  0  0
  -15.5340  -30.2979   23.7677 H   0  0  0  0  0  0
  -15.8665  -28.0794   22.7131 H   0  0  0  0  0  0
  -24.5810  -30.7189   25.7661 H   0  0  0  0  0  0
  -24.8854  -32.2945   26.4840 H   0  0  0  0  0  0
  -25.7884  -30.8878   27.0196 H   0  0  0  0  0  0
  -26.2946  -29.6783   24.1215 H   0  0  0  0  0  0
  -27.3964  -29.7336   25.4789 H   0  0  0  0  0  0
  -27.8824  -30.4327   23.9514 H   0  0  0  0  0  0
  -27.2707  -33.3656   26.2071 H   0  0  0  0  0  0
  -28.3805  -32.6939   25.0230 H   0  0  0  0  0  0
  -28.0792  -31.8476   26.5328 H   0  0  0  0  0  0
  -28.2592  -38.0077   24.7512 H   0  0  0  0  0  0
  -28.1073  -36.2608   24.6290 H   0  0  0  0  0  0
  -27.2282  -37.1414   25.8863 H   0  0  0  0  0  0
  -20.9278  -29.8708   21.6838 H   0  0  0  0  0  0
  -26.0180  -38.2841   24.1419 H   0  0  0  0  0  0
  -27.3130  -22.4460   18.5707 H   0  0  0  0  0  0
  -30.5137  -20.2748   17.1149 H   0  0  0  0  0  0
  -29.0994  -21.1288   16.4845 H   0  0  0  0  0  0
  -29.3502  -19.4311   16.0947 H   0  0  0  0  0  0
  -30.1530  -16.3595   23.5694 H   0  0  0  0  0  0
  -31.4167  -15.1927   23.1870 H   0  0  0  0  0  0
  -29.7587  -14.6742   23.3528 H   0  0  0  0  0  0
  -32.1874  -17.6175   22.5354 H   0  0  0  0  0  0
  -32.6423  -18.0678   20.8997 H   0  0  0  0  0  0
  -32.7923  -16.4193   21.4146 H   0  0  0  0  0  0
  -27.6146  -19.5310   17.8255 H   0  0  0  0  0  0
  -29.0421  -18.8031   18.4674 H   0  0  0  0  0  0
  -31.1951  -20.0167   21.4611 H   0  0  0  0  0  0
  -31.0830  -19.4589   19.8318 H   0  0  0  0  0  0
  -27.0460  -24.0882   21.0001 H   0  0  0  0  0  0
  -28.6143  -24.2883   21.7272 H   0  0  0  0  0  0
  -28.9149  -18.1221   20.7415 H   0  0  0  0  0  0
  -29.6495  -18.3926   22.2880 H   0  0  0  0  0  0
  -27.9117  -25.0477   18.8051 H   0  0  0  0  0  0
  -29.4925  -25.0555   19.4715 H   0  0  0  0  0  0
  -29.0928  -15.7922   21.2703 H   0  0  0  0  0  0
  -30.8373  -16.9400   20.0328 H   0  0  0  0  0  0
  1 25  1  0  0  0
  1 30  2  0  0  0
  1 82  1  0  0  0
  2  3  1  0  0  0
  2 25  1  0  0  0
  2 86  1  0  0  0
  2 87  1  0  0  0
  3  4  1  0  0  0
  3 88  1  0  0  0
  3 89  1  0  0  0
  4  5  1  0  0  0
  4 90  1  0  0  0
  4 91  1  0  0  0
  5  6  1  0  0  0
  5 26  1  0  0  0
  5 92  1  0  0  0
  6 25  1  0  0  0
  6 93  1  0  0  0
  6 94  1  0  0  0
  7  8  2  0  0  0
  7 26  1  0  0  0
  7 29  1  0  0  0
  8  9  1  0  0  0
  8 22  1  0  0  0
  9 10  1  0  0  0
  9 27  2  0  0  0
 10 11  2  0  0  0
 10 15  1  0  0  0
 11 12  1  0  0  0
 11 95  1  0  0  0
 12 13  2  0  0  0
 12 96  1  0  0  0
 13 14  1  0  0  0
 13 31  1  0  0  0
 14 15  2  0  0  0
 14 97  1  0  0  0
 15 98  1  0  0  0
 16 17  2  0  0  0
 16 21  1  0  0  0
 16 31  1  0  0  0
 17 18  1  0  0  0
 17 99  1  0  0  0
 18 19  2  0  0  0
 18100  1  0  0  0
 19 20  1  0  0  0
 19 24  1  0  0  0
 20 21  2  0  0  0
 20101  1  0  0  0
 21 23  1  0  0  0
 22 28  1  0  0  0
 22 32  2  0  0  0
 26 27  1  0  0  0
 28102  1  0  0  0
 28103  1  0  0  0
 29104  1  0  0  0
 29105  1  0  0  0
 33 34  1  0  0  0
 33 66  1  0  0  0
 33 70  2  0  0  0
 34 36  1  0  0  0
 34 59  1  0  0  0
 34106  1  0  0  0
 35 44  2  0  0  0
 35 45  1  0  0  0
 35 68  1  0  0  0
 36 56  1  0  0  0
 36107  1  0  0  0
 37 39  1  0  0  0
 37 47  1  0  0  0
 37 66  1  0  0  0
 37108  1  0  0  0
 38 43  2  0  0  0
 38 46  1  0  0  0
 38 47  1  0  0  0
 39 64  1  0  0  0
 39 67  2  0  0  0
 40 52  1  0  0  0
 40 53  2  0  0  0
 40 58  1  0  0  0
 41109  1  0  0  0
 41110  1  0  0  0
 41111  1  0  0  0
 41 48  1  0  0  0
 42 43  1  0  0  0
 42 66  1  0  0  0
 42112  1  0  0  0
 42113  1  0  0  0
 43 44  1  0  0  0
 44114  1  0  0  0
 45 46  2  0  0  0
 45115  1  0  0  0
 46116  1  0  0  0
 47117  1  0  0  0
 47118  1  0  0  0
 48 56  1  0  0  0
 48 65  1  0  0  0
 48119  1  0  0  0
 49 50  1  0  0  0
 49 53  1  0  0  0
 49 64  1  0  0  0
 49120  1  0  0  0
 50 51  1  0  0  0
 50121  1  0  0  0
 50122  1  0  0  0
 51 52  1  0  0  0
 51123  1  0  0  0
 51124  1  0  0  0
 52125  1  0  0  0
 52126  1  0  0  0
 53 54  1  0  0  0
 54 55  2  0  0  0
 54127  1  0  0  0
 55 57  1  0  0  0
 55128  1  0  0  0
 56 69  2  0  0  0
 57 58  2  0  0  0
 57129  1  0  0  0
 58130  1  0  0  0
 59 60  1  0  0  0
 59 61  1  0  0  0
 59 62  1  0  0  0
 60131  1  0  0  0
 60132  1  0  0  0
 60133  1  0  0  0
 61134  1  0  0  0
 61135  1  0  0  0
 61136  1  0  0  0
 62137  1  0  0  0
 62138  1  0  0  0
 62139  1  0  0  0
 63 65  1  0  0  0
 63140  1  0  0  0
 63141  1  0  0  0
 63142  1  0  0  0
 64143  1  0  0  0
 65144  1  0  0  0
 68 81  1  0  0  0
 71 72  2  0  0  0
 71 84  1  0  0  0
 71145  1  0  0  0
 72 73  1  0  0  0
 72 77  1  0  0  0
 73 78  1  0  0  0
 73 83  2  0  0  0
 74 77  1  0  0  0
 74146  1  0  0  0
 74147  1  0  0  0
 74148  1  0  0  0
 75149  1  0  0  0
 75150  1  0  0  0
 75151  1  0  0  0
 75 82  1  0  0  0
 76152  1  0  0  0
 76153  1  0  0  0
 76154  1  0  0  0
 76 85  1  0  0  0
 77155  1  0  0  0
 77156  1  0  0  0
 78 80  1  0  0  0
 78157  1  0  0  0
 78158  1  0  0  0
 79 81  1  0  0  0
 79 84  1  0  0  0
 79159  1  0  0  0
 79160  1  0  0  0
 80 85  1  0  0  0
 80161  1  0  0  0
 80162  1  0  0  0
 81163  1  0  0  0
 81164  1  0  0  0
 82 85  1  0  0  0
 82165  1  0  0  0
 83 84  1  0  0  0
 85166  1  0  0  0
M  CHG  1  85   1
M  ISO  4   1 100  68 101  81 101  82 100
M  END
> <chiral flag>
0

> <version>
0

> <s_m_source_file>
/data/baiqing/PycharmProjects/Reinvent-master-3.2/result/LINK_invent/BTK/process_docking_weight1_custom_sum_contain_oxygen_bond_distance_aromatic_linkinvent_7_9_3/rearranged_h_0055.sdf

> <i_m_source_file_index>
65

> <r_mmod_Potential_Energy-OPLS-2005>
-169.17333984375

> <r_mmod_Stretch_Energy-OPLS-2005>
62.1972427368164

> <r_mmod_Bend_Energy-OPLS-2005>
129.109130859375

> <r_mmod_Torsional_Energy-OPLS-2005>
195.079650878906

> <r_mmod_Improper_Torsional_Energy-OPLS-2005>
2.60982942581177

> <r_mmod_Van_der_Waal_Energy-OPLS-2005>
124.077911376953

> <r_mmod_Electrostatic_Energy-OPLS-2005>
-272.678588867188

> <r_mmod_Solvation_Energy-OPLS-2005>
-432.049011230469

> <b_mmod_Minimization_Converged-OPLS-2005>
0

> <r_mmod_RMS_Derivative-OPLS-2005>
5.14305830001831

$$$$
65
                    3D
 Structure written by MMmdl.
153161  0  0  1  0            999 V2000
  -30.4952  -15.0477   20.4269 C   0  0  0  0  0  0
  -30.4518  -12.6596   19.5041 C   0  0  0  0  0  0
  -29.5408  -12.5619   18.2568 C   0  0  0  0  0  0
  -28.0747  -12.3226   18.6701 C   0  0  0  0  0  0
  -27.6328  -13.2468   19.8374 C   0  0  2  0  0  0
  -28.6728  -13.2435   20.9737 C   0  0  0  0  0  0
  -25.2440  -13.8171   20.5619 C   0  0  0  0  0  0
  -24.1785  -13.0406   20.9195 C   0  0  0  0  0  0
  -24.6404  -11.6893   20.8731 C   0  0  0  0  0  0
  -23.9079  -10.4273   21.0396 C   0  0  0  0  0  0
  -24.3608   -9.4191   21.9189 C   0  0  0  0  0  0
  -23.6262   -8.2239   22.0769 C   0  0  0  0  0  0
  -22.4254   -8.0269   21.3536 C   0  0  0  0  0  0
  -21.9895   -9.0266   20.4660 C   0  0  0  0  0  0
  -22.7244  -10.2133   20.3055 C   0  0  0  0  0  0
  -21.6842   -6.0706   22.5249 C   0  0  0  0  0  0
  -21.4024   -6.5618   23.8176 C   0  0  0  0  0  0
  -21.3669   -5.6781   24.9152 C   0  0  0  0  0  0
  -21.6035   -4.3040   24.7215 C   0  0  0  0  0  0
  -21.8825   -3.8121   23.4339 C   0  0  0  0  0  0
  -21.9197   -4.6931   22.3386 C   0  0  0  0  0  0
  -22.7807  -13.5172   21.1876 C   0  0  0  0  0  0
  -22.1651   -4.2107   21.0971 F   0  0  0  0  0  0
  -21.5637   -3.4534   25.7749 F   0  0  0  0  0  0
  -29.9303  -13.7540   20.3941 N   0  0  0  0  0  0
  -26.2895  -12.9416   20.3167 N   0  0  0  0  0  0
  -25.9332  -11.6544   20.5680 N   0  0  0  0  0  0
  -22.0438  -12.8204   22.0427 N   0  0  0  0  0  0
  -25.4039  -15.1913   20.3999 N   0  0  0  0  0  0
  -31.6701  -15.1051   20.0380 O   0  0  0  0  0  0
  -21.6633   -6.8853   21.4215 O   0  0  0  0  0  0
  -22.3515  -14.5495   20.6717 O   0  0  0  0  0  0
  -24.6462  -31.8361   23.1869 C   0  0  0  0  0  0
  -25.9227  -32.4641   23.8236 C   0  0  1  0  0  0
  -27.2150  -27.0978   20.1380 C   0  0  0  0  0  0
  -25.5994  -33.8454   24.2128 N   0  0  0  0  0  0
  -23.4530  -30.4572   21.5352 C   0  0  2  0  0  0
  -24.9014  -28.8759   20.1176 C   0  0  0  0  0  0
  -22.7580  -29.4482   22.4857 C   0  0  0  0  0  0
  -18.0303  -28.1371   22.8483 C   0  0  0  0  0  0
  -24.1488  -36.7237   23.2643 C   0  0  0  0  0  0
  -26.0143  -30.6954   21.3916 C   0  0  0  0  0  0
  -26.0863  -29.3066   20.7264 C   0  0  0  0  0  0
  -27.2531  -28.4408   20.7075 C   0  0  0  0  0  0
  -26.0045  -26.7762   19.4960 C   0  0  0  0  0  0
  -24.8718  -27.6231   19.4900 C   0  0  0  0  0  0
  -23.6826  -29.7890   20.1564 C   0  0  0  0  0  0
  -25.4121  -36.2964   24.0287 C   0  0  1  0  0  0
  -20.5923  -28.3678   23.1241 C   0  0  2  0  0  0
  -20.6769  -26.9378   22.5384 C   0  0  0  0  0  0
  -19.5733  -26.6342   21.5208 C   0  0  0  0  0  0
  -18.1929  -26.7912   22.1624 C   0  0  0  0  0  0
  -19.1558  -28.8852   23.2855 C   0  0  0  0  0  0
  -18.9479  -30.1461   23.8851 C   0  0  0  0  0  0
  -17.6461  -30.6568   24.0523 C   0  0  0  0  0  0
  -25.9082  -34.9382   23.5017 C   0  0  0  0  0  0
  -16.5365  -29.9049   23.6350 C   0  0  0  0  0  0
  -16.7287  -28.6469   23.0350 C   0  0  0  0  0  0
  -26.4517  -31.6551   25.0727 C   0  0  0  0  0  0
  -25.3696  -31.3728   26.1420 C   0  0  0  0  0  0
  -27.0385  -30.2945   24.6339 C   0  0  0  0  0  0
  -27.6029  -32.4380   25.7485 C   0  0  0  0  0  0
  -27.5563  -37.1710   24.8439 C   0  0  0  0  0  0
  -21.4283  -29.3014   22.3618 N   0  0  0  0  0  0
  -26.4239  -37.3717   23.9447 N   0  0  0  0  0  0
  -24.7255  -31.0163   22.0927 N   0  0  0  0  0  0
  -23.4206  -28.7983   23.2983 O   0  0  0  0  0  0
  -28.2510  -26.0811   20.1277 O   0  0  0  0  0  0
  -26.5638  -34.8875   22.4584 O   0  0  0  0  0  0
  -23.5586  -32.1296   23.7070 O   0  0  0  0  0  0
  -29.1891  -22.0622   18.0631 C   0  0  0  0  0  0
  -29.0095  -20.7516   19.9034 C   0  0  0  0  0  0
  -28.5510  -23.1549   19.9323 C   0  0  0  0  0  0
  -29.5242  -22.1606   16.5870 C   0  0  0  0  0  0
  -28.8832  -16.3178   21.8358 C   0  0  0  0  0  0
  -28.9612  -19.1778   20.4989 C   0  0  0  0  0  0
  -27.9816  -24.5914   20.5879 C   0  0  0  0  0  0
  -29.9407  -17.7987   20.1286 C   0  0  0  0  0  0
  -29.2729  -20.8397   18.6026 N   0  0  0  0  0  0
  -28.8542  -23.2195   18.6401 N   0  0  0  0  0  0
  -28.6084  -21.9086   20.5970 N   0  0  0  0  0  0
  -29.7333  -16.2757   20.6439 N   0  0  0  0  0  0
  -31.4834  -12.8281   19.1953 H   0  0  0  0  0  0
  -30.4698  -11.7037   20.0287 H   0  0  0  0  0  0
  -29.8821  -11.7554   17.6075 H   0  0  0  0  0  0
  -29.6234  -13.4776   17.6676 H   0  0  0  0  0  0
  -27.9944  -11.2803   18.9855 H   0  0  0  0  0  0
  -27.4130  -12.4320   17.8107 H   0  0  0  0  0  0
  -27.5996  -14.2602   19.4347 H   0  0  0  0  0  0
  -28.8023  -12.2326   21.3685 H   0  0  0  0  0  0
  -28.3232  -13.8236   21.8207 H   0  0  0  0  0  0
  -25.2758   -9.5661   22.4783 H   0  0  0  0  0  0
  -23.9956   -7.4630   22.7506 H   0  0  0  0  0  0
  -21.0813   -8.8796   19.8971 H   0  0  0  0  0  0
  -22.3701  -10.9672   19.6174 H   0  0  0  0  0  0
  -21.2021   -7.6128   23.9660 H   0  0  0  0  0  0
  -21.1481   -6.0525   25.9052 H   0  0  0  0  0  0
  -22.0603   -2.7574   23.2860 H   0  0  0  0  0  0
  -22.4068  -11.9891   22.4876 H   0  0  0  0  0  0
  -21.1051  -13.1245   22.2577 H   0  0  0  0  0  0
  -24.6246  -15.8329   20.5057 H   0  0  0  0  0  0
  -26.2371  -15.6378   20.0364 H   0  0  0  0  0  0
  -26.7280  -32.5170   23.0937 H   0  0  0  0  0  0
  -25.0180  -33.9551   25.0278 H   0  0  0  0  0  0
  -22.7622  -31.2892   21.3784 H   0  0  0  0  0  0
  -23.3786  -35.9523   23.3197 H   0  0  0  0  0  0
  -24.3595  -36.9005   22.2087 H   0  0  0  0  0  0
  -23.7214  -37.6367   23.6798 H   0  0  0  0  0  0
  -26.1725  -31.4463   20.6187 H   0  0  0  0  0  0
  -26.8872  -30.7415   22.0307 H   0  0  0  0  0  0
  -28.1653  -28.7842   21.1745 H   0  0  0  0  0  0
  -25.9127  -25.8208   19.0028 H   0  0  0  0  0  0
  -23.9684  -27.2795   19.0084 H   0  0  0  0  0  0
  -23.8324  -30.5686   19.4085 H   0  0  0  0  0  0
  -22.7966  -29.2392   19.8338 H   0  0  0  0  0  0
  -25.1275  -36.1735   25.0761 H   0  0  0  0  0  0
  -21.0017  -28.3238   24.1357 H   0  0  0  0  0  0
  -20.5646  -26.2285   23.3586 H   0  0  0  0  0  0
  -21.6633  -26.7317   22.1173 H   0  0  0  0  0  0
  -19.6871  -25.6247   21.1250 H   0  0  0  0  0  0
  -19.6701  -27.3157   20.6755 H   0  0  0  0  0  0
  -17.4182  -26.6705   21.4007 H   0  0  0  0  0  0
  -18.0291  -26.0018   22.9001 H   0  0  0  0  0  0
  -19.7933  -30.7309   24.2196 H   0  0  0  0  0  0
  -17.4998  -31.6252   24.5126 H   0  0  0  0  0  0
  -15.5366  -30.2901   23.7731 H   0  0  0  0  0  0
  -15.8678  -28.0792   22.7062 H   0  0  0  0  0  0
  -24.5911  -30.7030   25.7737 H   0  0  0  0  0  0
  -24.8833  -32.2894   26.4777 H   0  0  0  0  0  0
  -25.7971  -30.8941   27.0242 H   0  0  0  0  0  0
  -26.2982  -29.6671   24.1372 H   0  0  0  0  0  0
  -27.4024  -29.7234   25.4885 H   0  0  0  0  0  0
  -27.8868  -30.4168   23.9614 H   0  0  0  0  0  0
  -27.2644  -33.3824   26.1773 H   0  0  0  0  0  0
  -28.3953  -32.6745   25.0368 H   0  0  0  0  0  0
  -28.0557  -31.8707   26.5620 H   0  0  0  0  0  0
  -28.2410  -38.0151   24.7649 H   0  0  0  0  0  0
  -28.1207  -36.2693   24.6052 H   0  0  0  0  0  0
  -27.2302  -37.1079   25.8825 H   0  0  0  0  0  0
  -20.9510  -29.8813   21.6854 H   0  0  0  0  0  0
  -26.0070  -38.2708   24.1665 H   0  0  0  0  0  0
  -30.1469  -21.3278   16.2653 H   0  0  0  0  0  0
  -30.0857  -23.0710   16.3822 H   0  0  0  0  0  0
  -28.6190  -22.1658   15.9766 H   0  0  0  0  0  0
  -27.8296  -16.1727   21.5873 H   0  0  0  0  0  0
  -28.9789  -17.2683   22.3544 H   0  0  0  0  0  0
  -29.1861  -15.5938   22.5899 H   0  0  0  0  0  0
  -27.9323  -18.8578   20.3340 H   0  0  0  0  0  0
  -29.0259  -19.3187   21.5774 H   0  0  0  0  0  0
  -28.3207  -24.5772   21.6267 H   0  0  0  0  0  0
  -26.9010  -24.4642   20.6658 H   0  0  0  0  0  0
  -30.9567  -18.0662   20.4245 H   0  0  0  0  0  0
  -29.9693  -17.7305   19.0407 H   0  0  0  0  0  0
  1 25  1  0  0  0
  1 30  2  0  0  0
  1 82  1  0  0  0
  2  3  1  0  0  0
  2 25  1  0  0  0
  2 83  1  0  0  0
  2 84  1  0  0  0
  3  4  1  0  0  0
  3 85  1  0  0  0
  3 86  1  0  0  0
  4  5  1  0  0  0
  4 87  1  0  0  0
  4 88  1  0  0  0
  5  6  1  0  0  0
  5 26  1  0  0  0
  5 89  1  0  0  0
  6 25  1  0  0  0
  6 90  1  0  0  0
  6 91  1  0  0  0
  7  8  2  0  0  0
  7 26  1  0  0  0
  7 29  1  0  0  0
  8  9  1  0  0  0
  8 22  1  0  0  0
  9 10  1  0  0  0
  9 27  2  0  0  0
 10 11  2  0  0  0
 10 15  1  0  0  0
 11 12  1  0  0  0
 11 92  1  0  0  0
 12 13  2  0  0  0
 12 93  1  0  0  0
 13 14  1  0  0  0
 13 31  1  0  0  0
 14 15  2  0  0  0
 14 94  1  0  0  0
 15 95  1  0  0  0
 16 17  2  0  0  0
 16 21  1  0  0  0
 16 31  1  0  0  0
 17 18  1  0  0  0
 17 96  1  0  0  0
 18 19  2  0  0  0
 18 97  1  0  0  0
 19 20  1  0  0  0
 19 24  1  0  0  0
 20 21  2  0  0  0
 20 98  1  0  0  0
 21 23  1  0  0  0
 22 28  1  0  0  0
 22 32  2  0  0  0
 26 27  1  0  0  0
 28 99  1  0  0  0
 28100  1  0  0  0
 29101  1  0  0  0
 29102  1  0  0  0
 33 34  1  0  0  0
 33 66  1  0  0  0
 33 70  2  0  0  0
 34 36  1  0  0  0
 34 59  1  0  0  0
 34103  1  0  0  0
 35 44  2  0  0  0
 35 45  1  0  0  0
 35 68  1  0  0  0
 36 56  1  0  0  0
 36104  1  0  0  0
 37 39  1  0  0  0
 37 47  1  0  0  0
 37 66  1  0  0  0
 37105  1  0  0  0
 38 43  2  0  0  0
 38 46  1  0  0  0
 38 47  1  0  0  0
 39 64  1  0  0  0
 39 67  2  0  0  0
 40 52  1  0  0  0
 40 53  2  0  0  0
 40 58  1  0  0  0
 41106  1  0  0  0
 41107  1  0  0  0
 41108  1  0  0  0
 41 48  1  0  0  0
 42 43  1  0  0  0
 42 66  1  0  0  0
 42109  1  0  0  0
 42110  1  0  0  0
 43 44  1  0  0  0
 44111  1  0  0  0
 45 46  2  0  0  0
 45112  1  0  0  0
 46113  1  0  0  0
 47114  1  0  0  0
 47115  1  0  0  0
 48 56  1  0  0  0
 48 65  1  0  0  0
 48116  1  0  0  0
 49 50  1  0  0  0
 49 53  1  0  0  0
 49 64  1  0  0  0
 49117  1  0  0  0
 50 51  1  0  0  0
 50118  1  0  0  0
 50119  1  0  0  0
 51 52  1  0  0  0
 51120  1  0  0  0
 51121  1  0  0  0
 52122  1  0  0  0
 52123  1  0  0  0
 53 54  1  0  0  0
 54 55  2  0  0  0
 54124  1  0  0  0
 55 57  1  0  0  0
 55125  1  0  0  0
 56 69  2  0  0  0
 57 58  2  0  0  0
 57126  1  0  0  0
 58127  1  0  0  0
 59 60  1  0  0  0
 59 61  1  0  0  0
 59 62  1  0  0  0
 60128  1  0  0  0
 60129  1  0  0  0
 60130  1  0  0  0
 61131  1  0  0  0
 61132  1  0  0  0
 61133  1  0  0  0
 62134  1  0  0  0
 62135  1  0  0  0
 62136  1  0  0  0
 63 65  1  0  0  0
 63137  1  0  0  0
 63138  1  0  0  0
 63139  1  0  0  0
 64140  1  0  0  0
 65141  1  0  0  0
 68 77  1  0  0  0
 71 74  1  0  0  0
 71 79  2  0  0  0
 71 80  1  0  0  0
 72 76  1  0  0  0
 72 79  1  0  0  0
 72 81  2  0  0  0
 73 77  1  0  0  0
 73 80  2  0  0  0
 73 81  1  0  0  0
 74142  1  0  0  0
 74143  1  0  0  0
 74144  1  0  0  0
 75 82  1  0  0  0
 75145  1  0  0  0
 75146  1  0  0  0
 75147  1  0  0  0
 76 78  1  0  0  0
 76148  1  0  0  0
 76149  1  0  0  0
 77150  1  0  0  0
 77151  1  0  0  0
 78 82  1  0  0  0
 78152  1  0  0  0
 78153  1  0  0  0
M  ISO  4   1 100  68 101  77 101  82 100
M  END
> <chiral flag>
0

> <version>
0

> <s_m_source_file>
/data/baiqing/PycharmProjects/Reinvent-master-3.2/result/LINK_invent/BTK/process_docking_weight1_custom_sum_contain_oxygen_bond_distance_aromatic_linkinvent_7_9_3/rearranged_h_0055.sdf

> <i_m_source_file_index>
66

> <r_mmod_Potential_Energy-OPLS-2005>
213.421096801758

> <r_mmod_Stretch_Energy-OPLS-2005>
345.976318359375

> <r_mmod_Bend_Energy-OPLS-2005>
304.587432861328

> <r_mmod_Torsional_Energy-OPLS-2005>
281.327758789062

> <r_mmod_Improper_Torsional_Energy-OPLS-2005>
8.27653026580811

> <r_mmod_Van_der_Waal_Energy-OPLS-2005>
150.678176879883

> <r_mmod_Electrostatic_Energy-OPLS-2005>
-877.910095214844

> <r_mmod_Solvation_Energy-OPLS-2005>
-240.868743896484

> <b_mmod_Minimization_Converged-OPLS-2005>
0

> <r_mmod_RMS_Derivative-OPLS-2005>
5.69999933242798

$$$$
66
                    3D
 Structure written by MMmdl.
159167  0  0  1  0            999 V2000
  -30.5126  -15.0629   20.3246 C   0  0  0  0  0  0
  -30.4387  -12.6475   19.4889 C   0  0  0  0  0  0
  -29.5188  -12.4873   18.2559 C   0  0  0  0  0  0
  -28.0543  -12.2715   18.6870 C   0  0  0  0  0  0
  -27.6133  -13.2206   19.8290 C   0  0  2  0  0  0
  -28.6697  -13.3635   20.9467 C   0  0  0  0  0  0
  -25.2480  -13.8118   20.5820 C   0  0  0  0  0  0
  -24.1762  -13.0367   20.9269 C   0  0  0  0  0  0
  -24.6358  -11.6846   20.8821 C   0  0  0  0  0  0
  -23.9048  -10.4237   21.0459 C   0  0  0  0  0  0
  -24.3606   -9.4151   21.9222 C   0  0  0  0  0  0
  -23.6279   -8.2191   22.0770 C   0  0  0  0  0  0
  -22.4259   -8.0256   21.3557 C   0  0  0  0  0  0
  -21.9900   -9.0235   20.4663 C   0  0  0  0  0  0
  -22.7240  -10.2102   20.3083 C   0  0  0  0  0  0
  -21.6829   -6.0722   22.5291 C   0  0  0  0  0  0
  -21.3996   -6.5634   23.8227 C   0  0  0  0  0  0
  -21.3649   -5.6797   24.9194 C   0  0  0  0  0  0
  -21.6042   -4.3063   24.7254 C   0  0  0  0  0  0
  -21.8821   -3.8145   23.4380 C   0  0  0  0  0  0
  -21.9193   -4.6949   22.3424 C   0  0  0  0  0  0
  -22.7797  -13.5177   21.1907 C   0  0  0  0  0  0
  -22.1662   -4.2130   21.1003 F   0  0  0  0  0  0
  -21.5630   -3.4555   25.7770 F   0  0  0  0  0  0
  -29.9196  -13.7888   20.3011 N   0  0  0  0  0  0
  -26.2846  -12.9257   20.3365 N   0  0  0  0  0  0
  -25.9280  -11.6425   20.5847 N   0  0  0  0  0  0
  -22.0449  -12.8141   22.0449 N   0  0  0  0  0  0
  -25.4225  -15.1837   20.4258 N   0  0  0  0  0  0
  -31.7484  -15.0770   20.2674 O   0  0  0  0  0  0
  -21.6619   -6.8858   21.4252 O   0  0  0  0  0  0
  -22.3503  -14.5507   20.6786 O   0  0  0  0  0  0
  -24.6464  -31.8417   23.1856 C   0  0  0  0  0  0
  -25.9207  -32.4688   23.8277 C   0  0  1  0  0  0
  -27.2210  -27.0871   20.1492 C   0  0  0  0  0  0
  -25.5942  -33.8499   24.2180 N   0  0  0  0  0  0
  -23.4535  -30.4594   21.5327 C   0  0  2  0  0  0
  -24.9059  -28.8804   20.1116 C   0  0  0  0  0  0
  -22.7595  -29.4514   22.4842 C   0  0  0  0  0  0
  -18.0304  -28.1398   22.8478 C   0  0  0  0  0  0
  -24.1491  -36.7244   23.2642 C   0  0  0  0  0  0
  -26.0155  -30.6983   21.3940 C   0  0  0  0  0  0
  -26.0878  -29.3049   20.7327 C   0  0  0  0  0  0
  -27.2448  -28.4276   20.7298 C   0  0  0  0  0  0
  -26.0080  -26.7811   19.4879 C   0  0  0  0  0  0
  -24.8825  -27.6335   19.4732 C   0  0  0  0  0  0
  -23.6850  -29.7896   20.1526 C   0  0  0  0  0  0
  -25.4126  -36.3023   24.0306 C   0  0  1  0  0  0
  -20.5928  -28.3728   23.1239 C   0  0  2  0  0  0
  -20.6793  -26.9430   22.5414 C   0  0  0  0  0  0
  -19.5764  -26.6378   21.5222 C   0  0  0  0  0  0
  -18.1937  -26.7937   22.1620 C   0  0  0  0  0  0
  -19.1566  -28.8881   23.2845 C   0  0  0  0  0  0
  -18.9476  -30.1477   23.8874 C   0  0  0  0  0  0
  -17.6471  -30.6594   24.0557 C   0  0  0  0  0  0
  -25.9078  -34.9399   23.5049 C   0  0  0  0  0  0
  -16.5363  -29.9086   23.6334 C   0  0  0  0  0  0
  -16.7285  -28.6506   23.0358 C   0  0  0  0  0  0
  -26.4518  -31.6576   25.0732 C   0  0  0  0  0  0
  -25.3686  -31.3770   26.1409 C   0  0  0  0  0  0
  -27.0379  -30.2955   24.6354 C   0  0  0  0  0  0
  -27.6025  -32.4383   25.7509 C   0  0  0  0  0  0
  -27.5571  -37.1778   24.8462 C   0  0  0  0  0  0
  -21.4278  -29.3042   22.3601 N   0  0  0  0  0  0
  -26.4284  -37.3738   23.9403 N   0  0  0  0  0  0
  -24.7254  -31.0223   22.0916 N   0  0  0  0  0  0
  -23.4212  -28.8054   23.3001 O   0  0  0  0  0  0
  -28.2618  -26.0672   20.1959 O   0  0  0  0  0  0
  -26.5678  -34.8900   22.4637 O   0  0  0  0  0  0
  -23.5564  -32.1314   23.7033 O   0  0  0  0  0  0
  -30.9652  -22.3286   19.6648 C   0  0  0  0  0  0
  -28.9339  -23.1876   20.1627 C   0  0  0  0  0  0
  -29.4182  -20.8033   20.2664 C   0  0  0  0  0  0
  -32.3871  -22.5829   19.1996 C   0  0  0  0  0  0
  -27.6979  -18.9226   19.9647 C   0  0  0  0  0  0
  -28.8762  -19.1358   22.1381 C   0  0  0  0  0  0
  -28.9105  -16.2322   18.9244 C   0  0  0  0  0  0
  -27.9170  -24.5204   20.1737 C   0  0  0  0  0  0
  -30.1214  -17.8575   20.2810 C   0  0  0  0  0  0
  -29.0692  -19.1948   20.6121 C   0  0  0  0  0  0
  -30.1848  -23.4111   19.7655 N   0  0  0  0  0  0
  -30.6673  -21.0462   19.8985 N   0  0  0  0  0  0
  -28.5215  -21.8713   20.4278 N   0  0  0  0  0  0
  -29.7470  -16.2901   20.1385 N   0  0  0  0  0  0
  -31.4661  -12.8195   19.1660 H   0  0  0  0  0  0
  -30.4590  -11.7287   20.0765 H   0  0  0  0  0  0
  -29.8494  -11.6457   17.6456 H   0  0  0  0  0  0
  -29.5999  -13.3608   17.6100 H   0  0  0  0  0  0
  -27.9610  -11.2379   19.0198 H   0  0  0  0  0  0
  -27.3875  -12.3771   17.8305 H   0  0  0  0  0  0
  -27.5057  -14.1743   19.3395 H   0  0  0  0  0  0
  -28.8000  -12.4329   21.4999 H   0  0  0  0  0  0
  -28.3554  -14.1171   21.6707 H   0  0  0  0  0  0
  -25.2744   -9.5610   22.4813 H   0  0  0  0  0  0
  -23.9979   -7.4566   22.7470 H   0  0  0  0  0  0
  -21.0832   -8.8769   19.8960 H   0  0  0  0  0  0
  -22.3727  -10.9655   19.6198 H   0  0  0  0  0  0
  -21.1970   -7.6142   23.9716 H   0  0  0  0  0  0
  -21.1469   -6.0540   25.9092 H   0  0  0  0  0  0
  -22.0606   -2.7608   23.2902 H   0  0  0  0  0  0
  -22.4052  -11.9741   22.4724 H   0  0  0  0  0  0
  -21.1098  -13.1189   22.2749 H   0  0  0  0  0  0
  -24.6657  -15.8482   20.5464 H   0  0  0  0  0  0
  -26.2928  -15.6179   20.1498 H   0  0  0  0  0  0
  -26.7265  -32.5290   23.1000 H   0  0  0  0  0  0
  -25.0076  -33.9656   25.0316 H   0  0  0  0  0  0
  -22.7555  -31.2847   21.3769 H   0  0  0  0  0  0
  -23.3765  -35.9564   23.3291 H   0  0  0  0  0  0
  -24.3567  -36.8901   22.2059 H   0  0  0  0  0  0
  -23.7250  -37.6426   23.6713 H   0  0  0  0  0  0
  -26.1819  -31.4520   20.6233 H   0  0  0  0  0  0
  -26.8806  -30.7472   22.0433 H   0  0  0  0  0  0
  -28.1471  -28.7516   21.2293 H   0  0  0  0  0  0
  -25.8882  -25.8400   18.9772 H   0  0  0  0  0  0
  -23.9824  -27.3083   18.9696 H   0  0  0  0  0  0
  -23.8271  -30.5682   19.4020 H   0  0  0  0  0  0
  -22.7987  -29.2388   19.8353 H   0  0  0  0  0  0
  -25.1321  -36.1827   25.0798 H   0  0  0  0  0  0
  -21.0014  -28.3315   24.1363 H   0  0  0  0  0  0
  -20.5701  -26.2337   23.3634 H   0  0  0  0  0  0
  -21.6654  -26.7433   22.1205 H   0  0  0  0  0  0
  -19.6933  -25.6279   21.1275 H   0  0  0  0  0  0
  -19.6712  -27.3169   20.6740 H   0  0  0  0  0  0
  -17.4219  -26.6697   21.4006 H   0  0  0  0  0  0
  -18.0314  -26.0081   22.9018 H   0  0  0  0  0  0
  -19.7948  -30.7302   24.2234 H   0  0  0  0  0  0
  -17.5019  -31.6272   24.5166 H   0  0  0  0  0  0
  -15.5364  -30.2980   23.7680 H   0  0  0  0  0  0
  -15.8679  -28.0817   22.7093 H   0  0  0  0  0  0
  -24.5889  -30.7095   25.7724 H   0  0  0  0  0  0
  -24.8847  -32.2948   26.4758 H   0  0  0  0  0  0
  -25.7949  -30.8996   27.0239 H   0  0  0  0  0  0
  -26.2998  -29.6686   24.1338 H   0  0  0  0  0  0
  -27.3926  -29.7255   25.4954 H   0  0  0  0  0  0
  -27.8945  -30.4162   23.9717 H   0  0  0  0  0  0
  -27.2587  -33.3721   26.1976 H   0  0  0  0  0  0
  -28.3866  -32.6903   25.0354 H   0  0  0  0  0  0
  -28.0658  -31.8601   26.5513 H   0  0  0  0  0  0
  -28.2566  -38.0094   24.7502 H   0  0  0  0  0  0
  -28.1091  -36.2618   24.6292 H   0  0  0  0  0  0
  -27.2293  -37.1420   25.8868 H   0  0  0  0  0  0
  -20.9494  -29.8750   21.6778 H   0  0  0  0  0  0
  -26.0135  -38.2792   24.1429 H   0  0  0  0  0  0
  -32.6412  -23.6422   19.2446 H   0  0  0  0  0  0
  -32.5195  -22.2493   18.1701 H   0  0  0  0  0  0
  -33.1055  -22.0460   19.8193 H   0  0  0  0  0  0
  -26.9687  -19.6770   20.2591 H   0  0  0  0  0  0
  -27.2827  -17.9711   20.2872 H   0  0  0  0  0  0
  -27.7531  -18.9410   18.8775 H   0  0  0  0  0  0
  -28.1215  -19.8490   22.4708 H   0  0  0  0  0  0
  -29.8031  -19.3820   22.6553 H   0  0  0  0  0  0
  -28.5631  -18.1449   22.4666 H   0  0  0  0  0  0
  -27.8535  -16.2409   19.1719 H   0  0  0  0  0  0
  -29.1009  -15.3641   18.2960 H   0  0  0  0  0  0
  -29.0789  -17.0732   18.2529 H   0  0  0  0  0  0
  -27.2317  -24.3569   21.0050 H   0  0  0  0  0  0
  -27.3244  -24.3521   19.2770 H   0  0  0  0  0  0
  -30.9207  -17.8986   21.0209 H   0  0  0  0  0  0
  -30.6444  -18.1168   19.3596 H   0  0  0  0  0  0
  1 25  1  0  0  0
  1 30  2  0  0  0
  1 84  1  0  0  0
  2  3  1  0  0  0
  2 25  1  0  0  0
  2 85  1  0  0  0
  2 86  1  0  0  0
  3  4  1  0  0  0
  3 87  1  0  0  0
  3 88  1  0  0  0
  4  5  1  0  0  0
  4 89  1  0  0  0
  4 90  1  0  0  0
  5  6  1  0  0  0
  5 26  1  0  0  0
  5 91  1  0  0  0
  6 25  1  0  0  0
  6 92  1  0  0  0
  6 93  1  0  0  0
  7  8  2  0  0  0
  7 26  1  0  0  0
  7 29  1  0  0  0
  8  9  1  0  0  0
  8 22  1  0  0  0
  9 10  1  0  0  0
  9 27  2  0  0  0
 10 11  2  0  0  0
 10 15  1  0  0  0
 11 12  1  0  0  0
 11 94  1  0  0  0
 12 13  2  0  0  0
 12 95  1  0  0  0
 13 14  1  0  0  0
 13 31  1  0  0  0
 14 15  2  0  0  0
 14 96  1  0  0  0
 15 97  1  0  0  0
 16 17  2  0  0  0
 16 21  1  0  0  0
 16 31  1  0  0  0
 17 18  1  0  0  0
 17 98  1  0  0  0
 18 19  2  0  0  0
 18 99  1  0  0  0
 19 20  1  0  0  0
 19 24  1  0  0  0
 20 21  2  0  0  0
 20100  1  0  0  0
 21 23  1  0  0  0
 22 28  1  0  0  0
 22 32  2  0  0  0
 26 27  1  0  0  0
 28101  1  0  0  0
 28102  1  0  0  0
 29103  1  0  0  0
 29104  1  0  0  0
 33 34  1  0  0  0
 33 66  1  0  0  0
 33 70  2  0  0  0
 34 36  1  0  0  0
 34 59  1  0  0  0
 34105  1  0  0  0
 35 44  2  0  0  0
 35 45  1  0  0  0
 35 68  1  0  0  0
 36 56  1  0  0  0
 36106  1  0  0  0
 37 39  1  0  0  0
 37 47  1  0  0  0
 37 66  1  0  0  0
 37107  1  0  0  0
 38 43  2  0  0  0
 38 46  1  0  0  0
 38 47  1  0  0  0
 39 64  1  0  0  0
 39 67  2  0  0  0
 40 52  1  0  0  0
 40 53  2  0  0  0
 40 58  1  0  0  0
 41108  1  0  0  0
 41109  1  0  0  0
 41110  1  0  0  0
 41 48  1  0  0  0
 42 43  1  0  0  0
 42 66  1  0  0  0
 42111  1  0  0  0
 42112  1  0  0  0
 43 44  1  0  0  0
 44113  1  0  0  0
 45 46  2  0  0  0
 45114  1  0  0  0
 46115  1  0  0  0
 47116  1  0  0  0
 47117  1  0  0  0
 48 56  1  0  0  0
 48 65  1  0  0  0
 48118  1  0  0  0
 49 50  1  0  0  0
 49 53  1  0  0  0
 49 64  1  0  0  0
 49119  1  0  0  0
 50 51  1  0  0  0
 50120  1  0  0  0
 50121  1  0  0  0
 51 52  1  0  0  0
 51122  1  0  0  0
 51123  1  0  0  0
 52124  1  0  0  0
 52125  1  0  0  0
 53 54  1  0  0  0
 54 55  2  0  0  0
 54126  1  0  0  0
 55 57  1  0  0  0
 55127  1  0  0  0
 56 69  2  0  0  0
 57 58  2  0  0  0
 57128  1  0  0  0
 58129  1  0  0  0
 59 60  1  0  0  0
 59 61  1  0  0  0
 59 62  1  0  0  0
 60130  1  0  0  0
 60131  1  0  0  0
 60132  1  0  0  0
 61133  1  0  0  0
 61134  1  0  0  0
 61135  1  0  0  0
 62136  1  0  0  0
 62137  1  0  0  0
 62138  1  0  0  0
 63 65  1  0  0  0
 63139  1  0  0  0
 63140  1  0  0  0
 63141  1  0  0  0
 64142  1  0  0  0
 65143  1  0  0  0
 68 78  1  0  0  0
 71 74  1  0  0  0
 71 81  2  0  0  0
 71 82  1  0  0  0
 72 78  1  0  0  0
 72 81  1  0  0  0
 72 83  2  0  0  0
 73 80  1  0  0  0
 73 82  2  0  0  0
 73 83  1  0  0  0
 74144  1  0  0  0
 74145  1  0  0  0
 74146  1  0  0  0
 75147  1  0  0  0
 75148  1  0  0  0
 75149  1  0  0  0
 75 80  1  0  0  0
 76 80  1  0  0  0
 76150  1  0  0  0
 76151  1  0  0  0
 76152  1  0  0  0
 77 84  1  0  0  0
 77153  1  0  0  0
 77154  1  0  0  0
 77155  1  0  0  0
 78156  1  0  0  0
 78157  1  0  0  0
 79 80  1  0  0  0
 79 84  1  0  0  0
 79158  1  0  0  0
 79159  1  0  0  0
M  ISO  4   1 100  68 101  78 101  84 100
M  END
> <chiral flag>
0

> <version>
0

> <s_m_source_file>
/data/baiqing/PycharmProjects/Reinvent-master-3.2/result/LINK_invent/BTK/process_docking_weight1_custom_sum_contain_oxygen_bond_distance_aromatic_linkinvent_7_9_3/rearranged_h_0055.sdf

> <i_m_source_file_index>
67

> <r_mmod_Potential_Energy-OPLS-2005>
208.503875732422

> <r_mmod_Stretch_Energy-OPLS-2005>
338.43701171875

> <r_mmod_Bend_Energy-OPLS-2005>
301.423492431641

> <r_mmod_Torsional_Energy-OPLS-2005>
295.289337158203

> <r_mmod_Improper_Torsional_Energy-OPLS-2005>
10.422456741333

> <r_mmod_Van_der_Waal_Energy-OPLS-2005>
159.414276123047

> <r_mmod_Electrostatic_Energy-OPLS-2005>
-935.256408691406

> <r_mmod_Solvation_Energy-OPLS-2005>
-229.905532836914

> <b_mmod_Minimization_Converged-OPLS-2005>
0

> <r_mmod_RMS_Derivative-OPLS-2005>
2.11946487426758

$$$$
67
                    3D
 Structure written by MMmdl.
165173  0  0  1  0            999 V2000
  -30.7465  -14.6714   20.5827 C   0  0  0  0  0  0
  -30.4157  -12.4344   19.4992 C   0  0  0  0  0  0
  -29.5131  -12.5539   18.2517 C   0  0  0  0  0  0
  -28.0402  -12.3635   18.6487 C   0  0  0  0  0  0
  -27.6537  -13.2369   19.8691 C   0  0  2  0  0  0
  -28.6943  -13.1376   21.0118 C   0  0  0  0  0  0
  -25.2459  -13.8173   20.5647 C   0  0  0  0  0  0
  -24.1786  -13.0401   20.9177 C   0  0  0  0  0  0
  -24.6406  -11.6893   20.8733 C   0  0  0  0  0  0
  -23.9086  -10.4273   21.0405 C   0  0  0  0  0  0
  -24.3630   -9.4200   21.9194 C   0  0  0  0  0  0
  -23.6299   -8.2242   22.0758 C   0  0  0  0  0  0
  -22.4284   -8.0274   21.3539 C   0  0  0  0  0  0
  -21.9930   -9.0246   20.4638 C   0  0  0  0  0  0
  -22.7263  -10.2127   20.3055 C   0  0  0  0  0  0
  -21.6865   -6.0731   22.5275 C   0  0  0  0  0  0
  -21.4012   -6.5635   23.8206 C   0  0  0  0  0  0
  -21.3655   -5.6788   24.9167 C   0  0  0  0  0  0
  -21.6055   -4.3052   24.7221 C   0  0  0  0  0  0
  -21.8817   -3.8142   23.4335 C   0  0  0  0  0  0
  -21.9190   -4.6959   22.3394 C   0  0  0  0  0  0
  -22.7809  -13.5178   21.1832 C   0  0  0  0  0  0
  -22.1666   -4.2148   21.0970 F   0  0  0  0  0  0
  -21.5631   -3.4532   25.7730 F   0  0  0  0  0  0
  -30.0206  -13.4908   20.4746 N   0  0  0  0  0  0
  -26.2976  -12.9424   20.3348 N   0  0  0  0  0  0
  -25.9368  -11.6542   20.5791 N   0  0  0  0  0  0
  -22.0452  -12.8161   22.0371 N   0  0  0  0  0  0
  -25.3947  -15.1877   20.3948 N   0  0  0  0  0  0
  -31.8092  -14.7164   19.9586 O   0  0  0  0  0  0
  -21.6639   -6.8877   21.4233 O   0  0  0  0  0  0
  -22.3486  -14.5481   20.6695 O   0  0  0  0  0  0
  -24.6283  -31.8579   23.2043 C   0  0  0  0  0  0
  -25.9125  -32.4756   23.8371 C   0  0  1  0  0  0
  -27.2207  -27.2938   20.1317 C   0  0  0  0  0  0
  -25.5930  -33.8563   24.2287 N   0  0  0  0  0  0
  -23.4242  -30.4803   21.5472 C   0  0  2  0  0  0
  -24.8725  -28.9379   20.1120 C   0  0  0  0  0  0
  -22.7493  -29.4602   22.4935 C   0  0  0  0  0  0
  -18.0292  -28.1328   22.8457 C   0  0  0  0  0  0
  -24.1491  -36.7290   23.2638 C   0  0  0  0  0  0
  -25.9667  -30.7792   21.3817 C   0  0  0  0  0  0
  -26.0428  -29.4059   20.7243 C   0  0  0  0  0  0
  -27.2215  -28.5987   20.7228 C   0  0  0  0  0  0
  -26.0339  -26.8992   19.4681 C   0  0  0  0  0  0
  -24.8728  -27.6937   19.4706 C   0  0  0  0  0  0
  -23.6412  -29.8209   20.1612 C   0  0  0  0  0  0
  -25.4127  -36.3079   24.0310 C   0  0  1  0  0  0
  -20.5872  -28.3663   23.1234 C   0  0  2  0  0  0
  -20.6778  -26.9379   22.5373 C   0  0  0  0  0  0
  -19.5779  -26.6337   21.5162 C   0  0  0  0  0  0
  -18.1951  -26.7865   22.1565 C   0  0  0  0  0  0
  -19.1532  -28.8812   23.2848 C   0  0  0  0  0  0
  -18.9455  -30.1404   23.8873 C   0  0  0  0  0  0
  -17.6461  -30.6546   24.0531 C   0  0  0  0  0  0
  -25.9064  -34.9445   23.5111 C   0  0  0  0  0  0
  -16.5354  -29.9032   23.6305 C   0  0  0  0  0  0
  -16.7275  -28.6444   23.0336 C   0  0  0  0  0  0
  -26.4506  -31.6563   25.0749 C   0  0  0  0  0  0
  -25.3718  -31.3615   26.1440 C   0  0  0  0  0  0
  -27.0419  -30.3025   24.6221 C   0  0  0  0  0  0
  -27.6070  -32.4328   25.7502 C   0  0  0  0  0  0
  -27.5587  -37.1809   24.8469 C   0  0  0  0  0  0
  -21.4199  -29.3015   22.3639 N   0  0  0  0  0  0
  -26.4303  -37.3791   23.9403 N   0  0  0  0  0  0
  -24.6924  -31.0558   22.1014 N   0  0  0  0  0  0
  -23.4228  -28.8164   23.3027 O   0  0  0  0  0  0
  -28.3088  -26.4012   20.1958 O   0  0  0  0  0  0
  -26.5635  -34.8911   22.4680 O   0  0  0  0  0  0
  -23.5427  -32.1401   23.7339 O   0  0  0  0  0  0
  -28.6530  -22.4279   20.5870 C   0  0  0  0  0  0
  -31.3002  -22.9639   20.8316 C   0  0  0  0  0  0
  -29.0368  -23.8221   20.5865 C   0  0  0  0  0  0
  -30.4203  -24.0650   20.7153 C   0  0  0  0  0  0
  -29.6080  -21.3556   20.7159 C   0  0  0  0  0  0
  -28.1048  -17.1373   20.8472 C   0  0  0  0  0  0
  -31.8135  -16.6246   21.8195 C   0  0  0  0  0  0
  -29.7959  -15.7207   22.8052 C   0  0  0  0  0  0
  -30.9580  -18.8681   19.3120 C   0  0  0  0  0  0
  -27.9668  -24.9830   20.5254 C   0  0  0  0  0  0
  -29.1802  -19.8259   20.7777 C   0  0  0  0  0  0
  -29.6235  -17.2039   20.5985 C   0  0  2  0  0  0
  -30.4243  -16.0339   21.4155 C   0  0  0  0  0  0
  -30.9204  -21.6571   20.8476 N   0  0  0  0  0  0
  -30.1681  -18.6648   20.5577 N   0  3  1  0  0  0
  -30.9092  -25.3300   20.7455 F   0  0  0  0  0  0
  -31.4649  -12.4850   19.2032 H   0  0  0  0  0  0
  -30.3054  -11.4453   19.9475 H   0  0  0  0  0  0
  -29.8001  -11.8199   17.4980 H   0  0  0  0  0  0
  -29.6499  -13.5352   17.7933 H   0  0  0  0  0  0
  -27.8914  -11.3081   18.8824 H   0  0  0  0  0  0
  -27.3865  -12.5830   17.8042 H   0  0  0  0  0  0
  -27.6582  -14.2658   19.5114 H   0  0  0  0  0  0
  -28.7171  -12.1247   21.4188 H   0  0  0  0  0  0
  -28.3906  -13.7643   21.8387 H   0  0  0  0  0  0
  -25.2763   -9.5679   22.4773 H   0  0  0  0  0  0
  -24.0000   -7.4634   22.7489 H   0  0  0  0  0  0
  -21.0874   -8.8762   19.8943 H   0  0  0  0  0  0
  -22.3719  -10.9659   19.6159 H   0  0  0  0  0  0
  -21.2003   -7.6144   23.9706 H   0  0  0  0  0  0
  -21.1491   -6.0517   25.9073 H   0  0  0  0  0  0
  -22.0604   -2.7607   23.2830 H   0  0  0  0  0  0
  -22.4064  -11.9814   22.4738 H   0  0  0  0  0  0
  -21.1046  -13.1166   22.2563 H   0  0  0  0  0  0
  -24.6109  -15.8243   20.4963 H   0  0  0  0  0  0
  -26.2305  -15.6372   20.0491 H   0  0  0  0  0  0
  -26.7194  -32.5418   23.1093 H   0  0  0  0  0  0
  -25.0048  -33.9692   25.0425 H   0  0  0  0  0  0
  -22.7196  -31.3033   21.4103 H   0  0  0  0  0  0
  -23.3730  -35.9643   23.3293 H   0  0  0  0  0  0
  -24.3590  -36.8963   22.2073 H   0  0  0  0  0  0
  -23.7256  -37.6476   23.6696 H   0  0  0  0  0  0
  -26.1013  -31.5400   20.6126 H   0  0  0  0  0  0
  -26.8445  -30.8304   22.0135 H   0  0  0  0  0  0
  -28.1176  -28.9505   21.2156 H   0  0  0  0  0  0
  -25.9762  -25.9648   18.9298 H   0  0  0  0  0  0
  -23.9828  -27.3379   18.9699 H   0  0  0  0  0  0
  -23.7620  -30.6005   19.4077 H   0  0  0  0  0  0
  -22.7594  -29.2544   19.8579 H   0  0  0  0  0  0
  -25.1295  -36.1922   25.0784 H   0  0  0  0  0  0
  -20.9954  -28.3224   24.1367 H   0  0  0  0  0  0
  -20.5634  -26.2292   23.3578 H   0  0  0  0  0  0
  -21.6660  -26.7403   22.1221 H   0  0  0  0  0  0
  -19.6950  -25.6244   21.1207 H   0  0  0  0  0  0
  -19.6677  -27.3105   20.6647 H   0  0  0  0  0  0
  -17.4228  -26.6577   21.3961 H   0  0  0  0  0  0
  -18.0378  -25.9981   22.8931 H   0  0  0  0  0  0
  -19.7938  -30.7192   24.2251 H   0  0  0  0  0  0
  -17.5026  -31.6213   24.5130 H   0  0  0  0  0  0
  -15.5349  -30.2934   23.7619 H   0  0  0  0  0  0
  -15.8681  -28.0748   22.7063 H   0  0  0  0  0  0
  -24.5980  -30.6878   25.7707 H   0  0  0  0  0  0
  -24.8750  -32.2719   26.4830 H   0  0  0  0  0  0
  -25.8036  -30.8821   27.0244 H   0  0  0  0  0  0
  -26.3021  -29.6697   24.1301 H   0  0  0  0  0  0
  -27.4205  -29.7355   25.4729 H   0  0  0  0  0  0
  -27.8852  -30.4337   23.9434 H   0  0  0  0  0  0
  -27.2733  -33.3728   26.1917 H   0  0  0  0  0  0
  -28.3947  -32.6731   25.0340 H   0  0  0  0  0  0
  -28.0659  -31.8540   26.5533 H   0  0  0  0  0  0
  -28.2571  -38.0146   24.7570 H   0  0  0  0  0  0
  -28.1111  -36.2666   24.6219 H   0  0  0  0  0  0
  -27.2294  -37.1387   25.8872 H   0  0  0  0  0  0
  -20.9391  -29.8796   21.6877 H   0  0  0  0  0  0
  -26.0143  -38.2848   24.1409 H   0  0  0  0  0  0
  -27.6006  -22.1829   20.5096 H   0  0  0  0  0  0
  -32.3624  -23.1421   20.9279 H   0  0  0  0  0  0
  -27.7792  -16.1033   20.8481 H   0  0  0  0  0  0
  -27.5324  -17.6371   20.0661 H   0  0  0  0  0  0
  -27.8212  -17.5595   21.8103 H   0  0  0  0  0  0
  -31.7278  -17.5023   22.4596 H   0  0  0  0  0  0
  -32.4226  -16.9172   20.9652 H   0  0  0  0  0  0
  -32.4029  -15.8975   22.3815 H   0  0  0  0  0  0
  -29.9564  -16.5343   23.5120 H   0  0  0  0  0  0
  -30.2476  -14.8344   23.2534 H   0  0  0  0  0  0
  -28.7215  -15.5693   22.8030 H   0  0  0  0  0  0
  -31.5607  -19.7723   19.3287 H   0  0  0  0  0  0
  -30.2973  -18.9272   18.4469 H   0  0  0  0  0  0
  -31.6562  -18.0508   19.1303 H   0  0  0  0  0  0
  -27.4921  -25.0011   21.5096 H   0  0  0  0  0  0
  -27.2047  -24.5987   19.8522 H   0  0  0  0  0  0
  -28.3728  -19.7212   20.0549 H   0  0  0  0  0  0
  -28.7293  -19.6911   21.7602 H   0  0  0  0  0  0
  -29.6853  -16.8658   19.5621 H   0  0  0  0  0  0
  -30.8306  -18.7560   21.3149 H   0  0  0  0  0  0
  1 25  1  0  0  0
  1 30  2  0  0  0
  1 83  1  0  0  0
  2  3  1  0  0  0
  2 25  1  0  0  0
  2 87  1  0  0  0
  2 88  1  0  0  0
  3  4  1  0  0  0
  3 89  1  0  0  0
  3 90  1  0  0  0
  4  5  1  0  0  0
  4 91  1  0  0  0
  4 92  1  0  0  0
  5  6  1  0  0  0
  5 26  1  0  0  0
  5 93  1  0  0  0
  6 25  1  0  0  0
  6 94  1  0  0  0
  6 95  1  0  0  0
  7  8  2  0  0  0
  7 26  1  0  0  0
  7 29  1  0  0  0
  8  9  1  0  0  0
  8 22  1  0  0  0
  9 10  1  0  0  0
  9 27  2  0  0  0
 10 11  2  0  0  0
 10 15  1  0  0  0
 11 12  1  0  0  0
 11 96  1  0  0  0
 12 13  2  0  0  0
 12 97  1  0  0  0
 13 14  1  0  0  0
 13 31  1  0  0  0
 14 15  2  0  0  0
 14 98  1  0  0  0
 15 99  1  0  0  0
 16 17  2  0  0  0
 16 21  1  0  0  0
 16 31  1  0  0  0
 17 18  1  0  0  0
 17100  1  0  0  0
 18 19  2  0  0  0
 18101  1  0  0  0
 19 20  1  0  0  0
 19 24  1  0  0  0
 20 21  2  0  0  0
 20102  1  0  0  0
 21 23  1  0  0  0
 22 28  1  0  0  0
 22 32  2  0  0  0
 26 27  1  0  0  0
 28103  1  0  0  0
 28104  1  0  0  0
 29105  1  0  0  0
 29106  1  0  0  0
 33 34  1  0  0  0
 33 66  1  0  0  0
 33 70  2  0  0  0
 34 36  1  0  0  0
 34 59  1  0  0  0
 34107  1  0  0  0
 35 44  2  0  0  0
 35 45  1  0  0  0
 35 68  1  0  0  0
 36 56  1  0  0  0
 36108  1  0  0  0
 37 39  1  0  0  0
 37 47  1  0  0  0
 37 66  1  0  0  0
 37109  1  0  0  0
 38 43  2  0  0  0
 38 46  1  0  0  0
 38 47  1  0  0  0
 39 64  1  0  0  0
 39 67  2  0  0  0
 40 52  1  0  0  0
 40 53  2  0  0  0
 40 58  1  0  0  0
 41110  1  0  0  0
 41111  1  0  0  0
 41112  1  0  0  0
 41 48  1  0  0  0
 42 43  1  0  0  0
 42 66  1  0  0  0
 42113  1  0  0  0
 42114  1  0  0  0
 43 44  1  0  0  0
 44115  1  0  0  0
 45 46  2  0  0  0
 45116  1  0  0  0
 46117  1  0  0  0
 47118  1  0  0  0
 47119  1  0  0  0
 48 56  1  0  0  0
 48 65  1  0  0  0
 48120  1  0  0  0
 49 50  1  0  0  0
 49 53  1  0  0  0
 49 64  1  0  0  0
 49121  1  0  0  0
 50 51  1  0  0  0
 50122  1  0  0  0
 50123  1  0  0  0
 51 52  1  0  0  0
 51124  1  0  0  0
 51125  1  0  0  0
 52126  1  0  0  0
 52127  1  0  0  0
 53 54  1  0  0  0
 54 55  2  0  0  0
 54128  1  0  0  0
 55 57  1  0  0  0
 55129  1  0  0  0
 56 69  2  0  0  0
 57 58  2  0  0  0
 57130  1  0  0  0
 58131  1  0  0  0
 59 60  1  0  0  0
 59 61  1  0  0  0
 59 62  1  0  0  0
 60132  1  0  0  0
 60133  1  0  0  0
 60134  1  0  0  0
 61135  1  0  0  0
 61136  1  0  0  0
 61137  1  0  0  0
 62138  1  0  0  0
 62139  1  0  0  0
 62140  1  0  0  0
 63 65  1  0  0  0
 63141  1  0  0  0
 63142  1  0  0  0
 63143  1  0  0  0
 64144  1  0  0  0
 65145  1  0  0  0
 68 80  1  0  0  0
 71 73  2  0  0  0
 71 75  1  0  0  0
 71146  1  0  0  0
 72 74  2  0  0  0
 72 84  1  0  0  0
 72147  1  0  0  0
 73 74  1  0  0  0
 73 80  1  0  0  0
 74 86  1  0  0  0
 75 81  1  0  0  0
 75 84  2  0  0  0
 76148  1  0  0  0
 76149  1  0  0  0
 76150  1  0  0  0
 76 82  1  0  0  0
 77151  1  0  0  0
 77152  1  0  0  0
 77153  1  0  0  0
 77 83  1  0  0  0
 78 83  1  0  0  0
 78154  1  0  0  0
 78155  1  0  0  0
 78156  1  0  0  0
 79157  1  0  0  0
 79158  1  0  0  0
 79159  1  0  0  0
 79 85  1  0  0  0
 80160  1  0  0  0
 80161  1  0  0  0
 81 85  1  0  0  0
 81162  1  0  0  0
 81163  1  0  0  0
 82 83  1  0  0  0
 82 85  1  0  0  0
 82164  1  0  0  0
 85165  1  0  0  0
M  CHG  1  85   1
M  ISO  4   1 100  68 101  80 101  83 100
M  END
> <chiral flag>
0

> <version>
0

> <s_m_source_file>
/data/baiqing/PycharmProjects/Reinvent-master-3.2/result/LINK_invent/BTK/process_docking_weight1_custom_sum_contain_oxygen_bond_distance_aromatic_linkinvent_7_9_3/rearranged_h_0055.sdf

> <i_m_source_file_index>
68

> <r_mmod_Potential_Energy-OPLS-2005>
26.6918716430664

> <r_mmod_Stretch_Energy-OPLS-2005>
129.318252563477

> <r_mmod_Bend_Energy-OPLS-2005>
199.44416809082

> <r_mmod_Torsional_Energy-OPLS-2005>
231.169006347656

> <r_mmod_Improper_Torsional_Energy-OPLS-2005>
1.94995534420013

> <r_mmod_Van_der_Waal_Energy-OPLS-2005>
172.520706176758

> <r_mmod_Electrostatic_Energy-OPLS-2005>
-344.930694580078

> <r_mmod_Solvation_Energy-OPLS-2005>
-424.963531494141

> <b_mmod_Minimization_Converged-OPLS-2005>
0

> <r_mmod_RMS_Derivative-OPLS-2005>
3.63416528701782

$$$$
68
                    3D
 Structure written by MMmdl.
162170  0  0  1  0            999 V2000
  -29.8179  -16.4741   19.9974 C   0  0  0  0  0  0
  -30.2470  -13.7397   19.3787 C   0  0  0  0  0  0
  -29.5050  -12.8418   18.3300 C   0  0  0  0  0  0
  -28.1921  -12.2981   18.8910 C   0  0  0  0  0  0
  -27.5313  -13.3702   19.7691 C   0  0  2  0  0  0
  -28.4810  -14.0970   20.7645 C   0  0  0  0  0  0
  -25.2088  -13.8356   20.5924 C   0  0  0  0  0  0
  -24.1585  -13.0414   20.9400 C   0  0  0  0  0  0
  -24.6401  -11.6962   20.8830 C   0  0  0  0  0  0
  -23.9146  -10.4284   21.0414 C   0  0  0  0  0  0
  -24.3672   -9.4197   21.9194 C   0  0  0  0  0  0
  -23.6329   -8.2241   22.0755 C   0  0  0  0  0  0
  -22.4312   -8.0288   21.3543 C   0  0  0  0  0  0
  -21.9968   -9.0262   20.4635 C   0  0  0  0  0  0
  -22.7320  -10.2132   20.3052 C   0  0  0  0  0  0
  -21.6865   -6.0747   22.5274 C   0  0  0  0  0  0
  -21.4033   -6.5650   23.8207 C   0  0  0  0  0  0
  -21.3665   -5.6801   24.9166 C   0  0  0  0  0  0
  -21.6041   -4.3061   24.7215 C   0  0  0  0  0  0
  -21.8820   -3.8156   23.4334 C   0  0  0  0  0  0
  -21.9196   -4.6973   22.3393 C   0  0  0  0  0  0
  -22.7594  -13.5097   21.1988 C   0  0  0  0  0  0
  -22.1662   -4.2158   21.0969 F   0  0  0  0  0  0
  -21.5620   -3.4542   25.7725 F   0  0  0  0  0  0
  -29.4022  -14.9694   19.9340 N   0  0  0  0  0  0
  -26.2574  -12.9797   20.3381 N   0  0  0  0  0  0
  -25.9352  -11.6802   20.5715 N   0  0  0  0  0  0
  -22.0294  -12.8042   22.0531 N   0  0  0  0  0  0
  -25.3568  -15.2110   20.4257 N   0  0  0  0  0  0
  -31.0610  -16.2010   20.1196 O   0  0  0  0  0  0
  -21.6662   -6.8897   21.4240 O   0  0  0  0  0  0
  -22.3262  -14.5392   20.6815 O   0  0  0  0  0  0
  -24.7362  -31.6869   22.9390 C   0  0  0  0  0  0
  -25.9542  -32.4055   23.6696 C   0  0  1  0  0  0
  -28.0036  -26.3069   20.7542 C   0  0  0  0  0  0
  -25.5634  -33.7788   24.0781 N   0  0  0  0  0  0
  -23.5041  -30.1971   21.3665 C   0  0  2  0  0  0
  -24.6390  -28.1762   19.9074 C   0  0  0  0  0  0
  -22.7786  -29.3785   22.4528 C   0  0  0  0  0  0
  -18.0337  -28.1388   22.8489 C   0  0  0  0  0  0
  -24.1487  -36.7049   23.2680 C   0  0  0  0  0  0
  -26.0290  -30.5199   20.8431 C   0  0  0  0  0  0
  -26.2280  -29.1152   19.9204 C   0  0  0  0  0  0
  -27.8807  -28.1846   20.0963 C   0  0  0  0  0  0
  -26.1128  -25.2250   21.2450 C   0  0  0  0  0  0
  -24.4882  -26.2861   20.4243 C   0  0  0  0  0  0
  -23.5485  -29.2894   20.0548 C   0  0  0  0  0  0
  -25.4169  -36.2584   24.0147 C   0  0  1  0  0  0
  -20.5956  -28.3682   23.1315 C   0  0  2  0  0  0
  -20.6751  -26.9353   22.5482 C   0  0  0  0  0  0
  -19.5770  -26.6385   21.5220 C   0  0  0  0  0  0
  -18.1963  -26.7912   22.1649 C   0  0  0  0  0  0
  -19.1593  -28.8868   23.2859 C   0  0  0  0  0  0
  -18.9515  -30.1455   23.8890 C   0  0  0  0  0  0
  -17.6505  -30.6592   24.0555 C   0  0  0  0  0  0
  -25.9163  -34.9102   23.4498 C   0  0  0  0  0  0
  -16.5397  -29.9077   23.6300 C   0  0  0  0  0  0
  -16.7331  -28.6487   23.0342 C   0  0  0  0  0  0
  -26.4657  -31.6699   24.9851 C   0  0  0  0  0  0
  -25.3614  -31.3529   26.0263 C   0  0  0  0  0  0
  -27.1321  -30.3599   24.5760 C   0  0  0  0  0  0
  -27.5537  -32.4933   25.7154 C   0  0  0  0  0  0
  -27.5580  -37.1539   24.8400 C   0  0  0  0  0  0
  -21.4391  -29.2893   22.3656 N   0  0  0  0  0  0
  -26.4197  -37.3482   23.9461 N   0  0  0  0  0  0
  -24.8202  -30.8122   21.8075 N   0  0  0  0  0  0
  -23.4382  -28.7730   23.2999 O   0  0  0  0  0  0
  -29.0270  -26.2735   21.4924 O   0  0  0  0  0  0
  -26.6141  -34.8987   22.4341 O   0  0  0  0  0  0
  -23.6446  -31.9743   23.4714 O   0  0  0  0  0  0
  -26.4336  -26.7113   18.8495 C   0  0  0  0  0  0
  -27.1247  -24.3057   18.9836 C   0  0  0  0  0  0
  -26.1084  -27.5784   17.7289 C   0  0  0  0  0  0
  -28.9316  -22.1824   17.9893 C   0  0  0  0  0  0
  -27.2633  -25.1479   16.6712 C   0  0  0  0  0  0
  -30.3988  -18.8620   20.4871 C   0  0  0  0  0  0
  -28.1536  -19.8920   19.5582 C   0  0  0  0  0  0
  -26.9677  -27.2798   22.6422 C   0  0  0  0  0  0
  -28.5584  -27.1283   22.5676 C   0  0  0  0  0  0
  -28.0659  -22.1834   19.2553 C   0  0  2  0  0  0
  -26.4955  -25.6895   19.1584 N   0  0  0  0  0  0
  -27.0747  -25.4038   18.1232 N   0  0  0  0  0  0
  -29.2648  -18.1695   19.8771 N   0  0  0  0  0  0
  -26.1933  -27.3448   21.2374 N   0  3  1  0  0  0
  -31.1246  -14.1313   18.8626 H   0  0  0  0  0  0
  -30.6716  -13.1326   20.1808 H   0  0  0  0  0  0
  -30.1477  -12.0264   17.9965 H   0  0  0  0  0  0
  -29.2890  -13.4430   17.4471 H   0  0  0  0  0  0
  -28.4192  -11.4251   19.5043 H   0  0  0  0  0  0
  -27.5284  -11.9547   18.0977 H   0  0  0  0  0  0
  -27.2576  -14.1310   19.0370 H   0  0  0  0  0  0
  -28.9800  -13.4087   21.4496 H   0  0  0  0  0  0
  -27.9029  -14.7590   21.4078 H   0  0  0  0  0  0
  -25.2805   -9.5671   22.4789 H   0  0  0  0  0  0
  -24.0025   -7.4638   22.7485 H   0  0  0  0  0  0
  -21.0904   -8.8803   19.8931 H   0  0  0  0  0  0
  -22.3794  -10.9680   19.6162 H   0  0  0  0  0  0
  -21.2046   -7.6162   23.9715 H   0  0  0  0  0  0
  -21.1483   -6.0527   25.9069 H   0  0  0  0  0  0
  -22.0595   -2.7618   23.2828 H   0  0  0  0  0  0
  -22.3990  -11.9723   22.4886 H   0  0  0  0  0  0
  -21.0885  -13.0975   22.2745 H   0  0  0  0  0  0
  -24.5796  -15.8541   20.5326 H   0  0  0  0  0  0
  -26.1971  -15.6596   20.0843 H   0  0  0  0  0  0
  -26.7801  -32.4559   22.9581 H   0  0  0  0  0  0
  -24.9362  -33.8535   24.8655 H   0  0  0  0  0  0
  -22.8490  -31.0341   21.1210 H   0  0  0  0  0  0
  -23.3845  -35.9268   23.2896 H   0  0  0  0  0  0
  -24.3593  -36.9283   22.2212 H   0  0  0  0  0  0
  -23.7152  -37.5961   23.7216 H   0  0  0  0  0  0
  -26.0520  -31.3533   20.1382 H   0  0  0  0  0  0
  -26.9406  -30.6529   21.4211 H   0  0  0  0  0  0
  -28.7752  -28.7823   20.1875 H   0  0  0  0  0  0
  -26.0465  -24.2859   21.7736 H   0  0  0  0  0  0
  -23.4992  -25.8619   20.5600 H   0  0  0  0  0  0
  -23.6680  -29.9454   19.1898 H   0  0  0  0  0  0
  -22.5800  -28.8195   19.8962 H   0  0  0  0  0  0
  -25.1462  -36.1046   25.0617 H   0  0  0  0  0  0
  -21.0057  -28.3281   24.1431 H   0  0  0  0  0  0
  -20.5531  -26.2298   23.3704 H   0  0  0  0  0  0
  -21.6601  -26.7203   22.1340 H   0  0  0  0  0  0
  -19.6928  -25.6307   21.1209 H   0  0  0  0  0  0
  -19.6716  -27.3230   20.6767 H   0  0  0  0  0  0
  -17.4204  -26.6638   21.4081 H   0  0  0  0  0  0
  -18.0387  -26.0062   22.9066 H   0  0  0  0  0  0
  -19.7991  -30.7250   24.2271 H   0  0  0  0  0  0
  -17.5064  -31.6273   24.5133 H   0  0  0  0  0  0
  -15.5399  -30.2997   23.7575 H   0  0  0  0  0  0
  -15.8722  -28.0804   22.7043 H   0  0  0  0  0  0
  -24.6185  -30.6567   25.6343 H   0  0  0  0  0  0
  -24.8364  -32.2537   26.3436 H   0  0  0  0  0  0
  -25.7807  -30.8923   26.9231 H   0  0  0  0  0  0
  -26.5109  -29.9205   23.8196 H   0  0  0  0  0  0
  -27.2413  -29.6581   25.4050 H   0  0  0  0  0  0
  -28.1180  -30.5149   24.1336 H   0  0  0  0  0  0
  -27.1414  -33.3944   26.1728 H   0  0  0  0  0  0
  -28.3445  -32.8117   25.0342 H   0  0  0  0  0  0
  -28.0232  -31.9231   26.5183 H   0  0  0  0  0  0
  -28.2281  -38.0115   24.7757 H   0  0  0  0  0  0
  -28.1375  -36.2672   24.5797 H   0  0  0  0  0  0
  -27.2392  -37.0626   25.8791 H   0  0  0  0  0  0
  -20.9663  -29.8440   21.6653 H   0  0  0  0  0  0
  -25.9925  -38.2434   24.1662 H   0  0  0  0  0  0
  -26.2243  -27.2775   16.7072 H   0  0  0  0  0  0
  -25.6716  -28.5576   17.7398 H   0  0  0  0  0  0
  -29.4809  -23.1201   17.8882 H   0  0  0  0  0  0
  -28.3006  -22.0598   17.1074 H   0  0  0  0  0  0
  -29.6524  -21.3687   17.9910 H   0  0  0  0  0  0
  -27.8028  -25.9626   16.1874 H   0  0  0  0  0  0
  -26.2800  -25.0568   16.2060 H   0  0  0  0  0  0
  -27.8032  -24.2241   16.4823 H   0  0  0  0  0  0
  -30.2710  -19.9399   20.5790 H   0  0  0  0  0  0
  -31.3188  -18.6973   19.9269 H   0  0  0  0  0  0
  -30.5491  -18.4950   21.5034 H   0  0  0  0  0  0
  -27.4928  -19.5438   18.7648 H   0  0  0  0  0  0
  -27.5289  -19.8167   20.4448 H   0  0  0  0  0  0
  -26.6079  -26.4514   23.2495 H   0  0  0  0  0  0
  -26.6562  -28.0823   23.2622 H   0  0  0  0  0  0
  -28.9494  -26.7434   23.5095 H   0  0  0  0  0  0
  -29.0124  -28.1168   22.4658 H   0  0  0  0  0  0
  -28.7288  -22.4297   20.0889 H   0  0  0  0  0  0
  -25.8174  -28.2663   21.0528 H   0  0  0  0  0  0
  1 25  1  0  0  0
  1 30  2  0  0  0
  1 83  1  0  0  0
  2  3  1  0  0  0
  2 25  1  0  0  0
  2 85  1  0  0  0
  2 86  1  0  0  0
  3  4  1  0  0  0
  3 87  1  0  0  0
  3 88  1  0  0  0
  4  5  1  0  0  0
  4 89  1  0  0  0
  4 90  1  0  0  0
  5  6  1  0  0  0
  5 26  1  0  0  0
  5 91  1  0  0  0
  6 25  1  0  0  0
  6 92  1  0  0  0
  6 93  1  0  0  0
  7  8  2  0  0  0
  7 26  1  0  0  0
  7 29  1  0  0  0
  8  9  1  0  0  0
  8 22  1  0  0  0
  9 10  1  0  0  0
  9 27  2  0  0  0
 10 11  2  0  0  0
 10 15  1  0  0  0
 11 12  1  0  0  0
 11 94  1  0  0  0
 12 13  2  0  0  0
 12 95  1  0  0  0
 13 14  1  0  0  0
 13 31  1  0  0  0
 14 15  2  0  0  0
 14 96  1  0  0  0
 15 97  1  0  0  0
 16 17  2  0  0  0
 16 21  1  0  0  0
 16 31  1  0  0  0
 17 18  1  0  0  0
 17 98  1  0  0  0
 18 19  2  0  0  0
 18 99  1  0  0  0
 19 20  1  0  0  0
 19 24  1  0  0  0
 20 21  2  0  0  0
 20100  1  0  0  0
 21 23  1  0  0  0
 22 28  1  0  0  0
 22 32  2  0  0  0
 26 27  1  0  0  0
 28101  1  0  0  0
 28102  1  0  0  0
 29103  1  0  0  0
 29104  1  0  0  0
 33 34  1  0  0  0
 33 66  1  0  0  0
 33 70  2  0  0  0
 34 36  1  0  0  0
 34 59  1  0  0  0
 34105  1  0  0  0
 35 44  2  0  0  0
 35 45  1  0  0  0
 35 68  1  0  0  0
 36 56  1  0  0  0
 36106  1  0  0  0
 37 39  1  0  0  0
 37 47  1  0  0  0
 37 66  1  0  0  0
 37107  1  0  0  0
 38 43  2  0  0  0
 38 46  1  0  0  0
 38 47  1  0  0  0
 39 64  1  0  0  0
 39 67  2  0  0  0
 40 52  1  0  0  0
 40 53  2  0  0  0
 40 58  1  0  0  0
 41108  1  0  0  0
 41109  1  0  0  0
 41110  1  0  0  0
 41 48  1  0  0  0
 42 43  1  0  0  0
 42 66  1  0  0  0
 42111  1  0  0  0
 42112  1  0  0  0
 43 44  1  0  0  0
 44113  1  0  0  0
 45 46  2  0  0  0
 45114  1  0  0  0
 46115  1  0  0  0
 47116  1  0  0  0
 47117  1  0  0  0
 48 56  1  0  0  0
 48 65  1  0  0  0
 48118  1  0  0  0
 49 50  1  0  0  0
 49 53  1  0  0  0
 49 64  1  0  0  0
 49119  1  0  0  0
 50 51  1  0  0  0
 50120  1  0  0  0
 50121  1  0  0  0
 51 52  1  0  0  0
 51122  1  0  0  0
 51123  1  0  0  0
 52124  1  0  0  0
 52125  1  0  0  0
 53 54  1  0  0  0
 54 55  2  0  0  0
 54126  1  0  0  0
 55 57  1  0  0  0
 55127  1  0  0  0
 56 69  2  0  0  0
 57 58  2  0  0  0
 57128  1  0  0  0
 58129  1  0  0  0
 59 60  1  0  0  0
 59 61  1  0  0  0
 59 62  1  0  0  0
 60130  1  0  0  0
 60131  1  0  0  0
 60132  1  0  0  0
 61133  1  0  0  0
 61134  1  0  0  0
 61135  1  0  0  0
 62136  1  0  0  0
 62137  1  0  0  0
 62138  1  0  0  0
 63 65  1  0  0  0
 63139  1  0  0  0
 63140  1  0  0  0
 63141  1  0  0  0
 64142  1  0  0  0
 65143  1  0  0  0
 68 79  1  0  0  0
 71 73  2  0  0  0
 71 82  1  0  0  0
 71 84  1  0  0  0
 72 80  1  0  0  0
 72 81  2  0  0  0
 72 82  1  0  0  0
 73144  1  0  0  0
 73145  1  0  0  0
 74146  1  0  0  0
 74147  1  0  0  0
 74148  1  0  0  0
 74 80  1  0  0  0
 75 82  1  0  0  0
 75149  1  0  0  0
 75150  1  0  0  0
 75151  1  0  0  0
 76 83  1  0  0  0
 76152  1  0  0  0
 76153  1  0  0  0
 76154  1  0  0  0
 77 80  1  0  0  0
 77 83  1  0  0  0
 77155  1  0  0  0
 77156  1  0  0  0
 78 79  1  0  0  0
 78157  1  0  0  0
 78158  1  0  0  0
 78 84  1  0  0  0
 79159  1  0  0  0
 79160  1  0  0  0
 80161  1  0  0  0
 81 84  1  0  0  0
 84162  1  0  0  0
M  CHG  1  84   1
M  ISO  4   1 100  68 101  79 101  83 100
M  END
> <chiral flag>
0

> <version>
0

> <s_m_source_file>
/data/baiqing/PycharmProjects/Reinvent-master-3.2/result/LINK_invent/BTK/process_docking_weight1_custom_sum_contain_oxygen_bond_distance_aromatic_linkinvent_7_9_3/rearranged_h_0055.sdf

> <i_m_source_file_index>
69

> <r_mmod_Potential_Energy-OPLS-2005>
20722.587890625

> <r_mmod_Stretch_Energy-OPLS-2005>
10714.0888671875

> <r_mmod_Bend_Energy-OPLS-2005>
2967.34594726562

> <r_mmod_Torsional_Energy-OPLS-2005>
483.16796875

> <r_mmod_Improper_Torsional_Energy-OPLS-2005>
60.9887237548828

> <r_mmod_Van_der_Waal_Energy-OPLS-2005>
3686.15185546875

> <r_mmod_Electrostatic_Energy-OPLS-2005>
-310.951812744141

> <r_mmod_Solvation_Energy-OPLS-2005>
-369.346740722656

> <b_mmod_Minimization_Converged-OPLS-2005>
0

> <r_mmod_RMS_Derivative-OPLS-2005>
13.6712970733643

$$$$
69
                    3D
 Structure written by MMmdl.
156164  0  0  1  0            999 V2000
  -29.9496  -16.9856   19.9793 C   0  0  0  0  0  0
  -30.2753  -14.0944   19.3414 C   0  0  0  0  0  0
  -29.5523  -13.0464   18.3767 C   0  0  0  0  0  0
  -28.2883  -12.4345   18.9758 C   0  0  0  0  0  0
  -27.5925  -13.5203   19.7968 C   0  0  2  0  0  0
  -28.5579  -14.4230   20.7013 C   0  0  0  0  0  0
  -25.2238  -13.8797   20.6174 C   0  0  0  0  0  0
  -24.1833  -13.0594   20.9457 C   0  0  0  0  0  0
  -24.6846  -11.7221   20.8729 C   0  0  0  0  0  0
  -23.9542  -10.4438   21.0293 C   0  0  0  0  0  0
  -24.3922   -9.4326   21.9145 C   0  0  0  0  0  0
  -23.6509   -8.2386   22.0767 C   0  0  0  0  0  0
  -22.4485   -8.0424   21.3540 C   0  0  0  0  0  0
  -22.0218   -9.0416   20.4596 C   0  0  0  0  0  0
  -22.7659  -10.2255   20.2980 C   0  0  0  0  0  0
  -21.6924   -6.0861   22.5292 C   0  0  0  0  0  0
  -21.4078   -6.5733   23.8240 C   0  0  0  0  0  0
  -21.3707   -5.6845   24.9169 C   0  0  0  0  0  0
  -21.6045   -4.3108   24.7169 C   0  0  0  0  0  0
  -21.8791   -3.8235   23.4272 C   0  0  0  0  0  0
  -21.9195   -4.7080   22.3361 C   0  0  0  0  0  0
  -22.7735  -13.5035   21.2024 C   0  0  0  0  0  0
  -22.1658   -4.2299   21.0920 F   0  0  0  0  0  0
  -21.5609   -3.4562   25.7650 F   0  0  0  0  0  0
  -29.4641  -15.4051   19.8638 N   0  0  0  0  0  0
  -26.3114  -13.0667   20.3769 N   0  0  0  0  0  0
  -25.9899  -11.7441   20.5658 N   0  0  0  0  0  0
  -22.0519  -12.7852   22.0535 N   0  0  0  0  0  0
  -25.3286  -15.2577   20.4600 N   0  0  0  0  0  0
  -31.1590  -16.5665   20.1660 O   0  0  0  0  0  0
  -21.6763   -6.9054   21.4275 O   0  0  0  0  0  0
  -22.3270  -14.5292   20.6895 O   0  0  0  0  0  0
  -24.9193  -31.6122   22.8525 C   0  0  0  0  0  0
  -26.0464  -32.3794   23.6471 C   0  0  1  0  0  0
  -26.5685  -25.4288   21.4326 C   0  0  0  0  0  0
  -25.5987  -33.7460   24.0452 N   0  0  0  0  0  0
  -23.7358  -30.2291   21.2499 C   0  0  2  0  0  0
  -25.1408  -28.4157   19.6947 C   0  0  0  0  0  0
  -22.8519  -29.4179   22.3105 C   0  0  0  0  0  0
  -18.0670  -28.1452   22.8432 C   0  0  0  0  0  0
  -24.1469  -36.6645   23.2730 C   0  0  0  0  0  0
  -26.3529  -30.2892   20.7002 C   0  0  0  0  0  0
  -26.8039  -28.6548   19.9040 C   0  0  0  0  0  0
  -27.7661  -26.4080   21.3033 C   0  0  0  0  0  0
  -25.0472  -25.7473   20.8580 C   0  0  0  0  0  0
  -24.4588  -27.0401   20.0793 C   0  0  0  0  0  0
  -23.9604  -29.4937   19.8589 C   0  0  0  0  0  0
  -25.4174  -36.2276   24.0135 C   0  0  1  0  0  0
  -20.6464  -28.4276   23.0543 C   0  0  2  0  0  0
  -20.7252  -26.9698   22.5343 C   0  0  0  0  0  0
  -19.6138  -26.6317   21.5348 C   0  0  0  0  0  0
  -18.2322  -26.7891   22.1789 C   0  0  0  0  0  0
  -19.1945  -28.9151   23.2495 C   0  0  0  0  0  0
  -18.9663  -30.1685   23.8570 C   0  0  0  0  0  0
  -17.6585  -30.6605   24.0435 C   0  0  0  0  0  0
  -25.9298  -34.8884   23.4302 C   0  0  0  0  0  0
  -16.5524  -29.8917   23.6418 C   0  0  0  0  0  0
  -16.7579  -28.6371   23.0430 C   0  0  0  0  0  0
  -26.4913  -31.6603   24.9866 C   0  0  0  0  0  0
  -25.3694  -31.4386   26.0386 C   0  0  0  0  0  0
  -27.1284  -30.3229   24.6176 C   0  0  0  0  0  0
  -27.5892  -32.4834   25.6959 C   0  0  0  0  0  0
  -27.5506  -37.1361   24.8420 C   0  0  0  0  0  0
  -21.4947  -29.3281   22.2248 N   0  0  0  0  0  0
  -26.4081  -37.3282   23.9534 N   0  0  0  0  0  0
  -25.0878  -30.7153   21.7266 N   0  0  0  0  0  0
  -23.4326  -28.8571   23.2355 O   0  0  0  0  0  0
  -27.0729  -25.0545   22.5255 O   0  0  0  0  0  0
  -26.6307  -34.8937   22.4186 O   0  0  0  0  0  0
  -23.7897  -31.9058   23.3330 O   0  0  0  0  0  0
  -29.0135  -28.2455   20.8026 C   0  0  0  0  0  0
  -28.1972  -25.6950   19.1562 C   0  0  0  0  0  0
  -26.2253  -27.7588   21.7323 C   0  0  0  0  0  0
  -30.3153  -28.6572   21.4559 C   0  0  0  0  0  0
  -30.8260  -19.1583   19.0015 C   0  0  0  0  0  0
  -28.6793  -23.3798   19.0924 C   0  0  0  0  0  0
  -25.7125  -27.1192   23.1169 C   0  0  0  0  0  0
  -28.9289  -20.9590   19.7882 C   0  0  0  0  0  0
  -26.5803  -25.8939   23.6226 C   0  0  0  0  0  0
  -29.1626  -27.0318   19.5692 N   0  0  0  0  0  0
  -27.7877  -28.5526   21.9869 N   0  0  0  0  0  0
  -26.7295  -26.5278   19.4385 N   0  0  0  0  0  0
  -29.5373  -18.7913   19.6033 N   0  0  0  0  0  0
  -31.0943  -14.4846   18.7418 H   0  0  0  0  0  0
  -30.7973  -13.5996   20.1601 H   0  0  0  0  0  0
  -30.2313  -12.2477   18.0681 H   0  0  0  0  0  0
  -29.2751  -13.5744   17.4640 H   0  0  0  0  0  0
  -28.5593  -11.6037   19.6352 H   0  0  0  0  0  0
  -27.6258  -12.0378   18.2068 H   0  0  0  0  0  0
  -27.2761  -14.2297   19.0283 H   0  0  0  0  0  0
  -29.1064  -13.8160   21.4266 H   0  0  0  0  0  0
  -27.9502  -15.0866   21.3117 H   0  0  0  0  0  0
  -25.3026   -9.5814   22.4778 H   0  0  0  0  0  0
  -24.0222   -7.4806   22.7522 H   0  0  0  0  0  0
  -21.1192   -8.8946   19.8837 H   0  0  0  0  0  0
  -22.4161  -10.9784   19.6071 H   0  0  0  0  0  0
  -21.2136   -7.6258   23.9797 H   0  0  0  0  0  0
  -21.1559   -6.0556   25.9087 H   0  0  0  0  0  0
  -22.0522   -2.7710   23.2679 H   0  0  0  0  0  0
  -22.4314  -11.9533   22.4803 H   0  0  0  0  0  0
  -21.1087  -13.0619   22.2810 H   0  0  0  0  0  0
  -24.5097  -15.8497   20.5489 H   0  0  0  0  0  0
  -26.1432  -15.7624   20.1316 H   0  0  0  0  0  0
  -26.9131  -32.4537   22.9846 H   0  0  0  0  0  0
  -24.9554  -33.7964   24.8210 H   0  0  0  0  0  0
  -23.1522  -31.1154   21.0013 H   0  0  0  0  0  0
  -23.3868  -35.8841   23.2954 H   0  0  0  0  0  0
  -24.3495  -36.8874   22.2269 H   0  0  0  0  0  0
  -23.7113  -37.5497   23.7297 H   0  0  0  0  0  0
  -26.1807  -30.9404   19.8399 H   0  0  0  0  0  0
  -27.2616  -30.7416   21.0912 H   0  0  0  0  0  0
  -28.6813  -26.2536   21.8907 H   0  0  0  0  0  0
  -24.2953  -24.9958   21.1013 H   0  0  0  0  0  0
  -23.3936  -26.9431   19.8956 H   0  0  0  0  0  0
  -24.0209  -30.2011   19.0337 H   0  0  0  0  0  0
  -23.0074  -29.0005   19.6388 H   0  0  0  0  0  0
  -25.1576  -36.0496   25.0601 H   0  0  0  0  0  0
  -21.0806  -28.4247   24.0565 H   0  0  0  0  0  0
  -20.6240  -26.2884   23.3808 H   0  0  0  0  0  0
  -21.7064  -26.7474   22.1118 H   0  0  0  0  0  0
  -19.7368  -25.6126   21.1667 H   0  0  0  0  0  0
  -19.7008  -27.2903   20.6697 H   0  0  0  0  0  0
  -17.4572  -26.6416   21.4255 H   0  0  0  0  0  0
  -18.0807  -26.0100   22.9296 H   0  0  0  0  0  0
  -19.8047  -30.7713   24.1735 H   0  0  0  0  0  0
  -17.5020  -31.6278   24.5047 H   0  0  0  0  0  0
  -15.5478  -30.2634   23.7964 H   0  0  0  0  0  0
  -15.9003  -28.0549   22.7329 H   0  0  0  0  0  0
  -24.5138  -30.8885   25.6470 H   0  0  0  0  0  0
  -24.9953  -32.3986   26.4045 H   0  0  0  0  0  0
  -25.7491  -30.8926   26.9043 H   0  0  0  0  0  0
  -26.3741  -29.5926   24.3975 H   0  0  0  0  0  0
  -27.7539  -29.9093   25.4052 H   0  0  0  0  0  0
  -27.7655  -30.4374   23.7424 H   0  0  0  0  0  0
  -27.2035  -33.4184   26.0976 H   0  0  0  0  0  0
  -28.3960  -32.7437   25.0133 H   0  0  0  0  0  0
  -28.0261  -31.9458   26.5370 H   0  0  0  0  0  0
  -28.2188  -37.9951   24.7857 H   0  0  0  0  0  0
  -28.1332  -36.2545   24.5713 H   0  0  0  0  0  0
  -27.2373  -37.0300   25.8817 H   0  0  0  0  0  0
  -21.0118  -29.8449   21.5017 H   0  0  0  0  0  0
  -25.9639  -38.2124   24.1830 H   0  0  0  0  0  0
  -30.3059  -28.1323   22.4164 H   0  0  0  0  0  0
  -30.3662  -29.7172   21.7053 H   0  0  0  0  0  0
  -31.2057  -28.3416   20.9200 H   0  0  0  0  0  0
  -30.8412  -20.1693   18.5967 H   0  0  0  0  0  0
  -31.0984  -18.4855   18.1860 H   0  0  0  0  0  0
  -31.6182  -19.1035   19.7509 H   0  0  0  0  0  0
  -29.7137  -23.5147   18.7589 H   0  0  0  0  0  0
  -28.1171  -23.2171   18.1691 H   0  0  0  0  0  0
  -24.6700  -26.8037   23.0525 H   0  0  0  0  0  0
  -25.7089  -27.8354   23.9202 H   0  0  0  0  0  0
  -27.8697  -20.7695   19.9699 H   0  0  0  0  0  0
  -29.3239  -21.1214   20.7921 H   0  0  0  0  0  0
  -26.0610  -25.3119   24.3955 H   0  0  0  0  0  0
  -27.4534  -26.2777   24.1629 H   0  0  0  0  0  0
  1 25  1  0  0  0
  1 30  2  0  0  0
  1 83  1  0  0  0
  2  3  1  0  0  0
  2 25  1  0  0  0
  2 84  1  0  0  0
  2 85  1  0  0  0
  3  4  1  0  0  0
  3 86  1  0  0  0
  3 87  1  0  0  0
  4  5  1  0  0  0
  4 88  1  0  0  0
  4 89  1  0  0  0
  5  6  1  0  0  0
  5 26  1  0  0  0
  5 90  1  0  0  0
  6 25  1  0  0  0
  6 91  1  0  0  0
  6 92  1  0  0  0
  7  8  2  0  0  0
  7 26  1  0  0  0
  7 29  1  0  0  0
  8  9  1  0  0  0
  8 22  1  0  0  0
  9 10  1  0  0  0
  9 27  2  0  0  0
 10 11  2  0  0  0
 10 15  1  0  0  0
 11 12  1  0  0  0
 11 93  1  0  0  0
 12 13  2  0  0  0
 12 94  1  0  0  0
 13 14  1  0  0  0
 13 31  1  0  0  0
 14 15  2  0  0  0
 14 95  1  0  0  0
 15 96  1  0  0  0
 16 17  2  0  0  0
 16 21  1  0  0  0
 16 31  1  0  0  0
 17 18  1  0  0  0
 17 97  1  0  0  0
 18 19  2  0  0  0
 18 98  1  0  0  0
 19 20  1  0  0  0
 19 24  1  0  0  0
 20 21  2  0  0  0
 20 99  1  0  0  0
 21 23  1  0  0  0
 22 28  1  0  0  0
 22 32  2  0  0  0
 26 27  1  0  0  0
 28100  1  0  0  0
 28101  1  0  0  0
 29102  1  0  0  0
 29103  1  0  0  0
 33 34  1  0  0  0
 33 66  1  0  0  0
 33 70  2  0  0  0
 34 36  1  0  0  0
 34 59  1  0  0  0
 34104  1  0  0  0
 35 44  2  0  0  0
 35 45  1  0  0  0
 35 68  1  0  0  0
 36 56  1  0  0  0
 36105  1  0  0  0
 37 39  1  0  0  0
 37 47  1  0  0  0
 37 66  1  0  0  0
 37106  1  0  0  0
 38 43  2  0  0  0
 38 46  1  0  0  0
 38 47  1  0  0  0
 39 64  1  0  0  0
 39 67  2  0  0  0
 40 52  1  0  0  0
 40 53  2  0  0  0
 40 58  1  0  0  0
 41107  1  0  0  0
 41108  1  0  0  0
 41109  1  0  0  0
 41 48  1  0  0  0
 42 43  1  0  0  0
 42 66  1  0  0  0
 42110  1  0  0  0
 42111  1  0  0  0
 43 44  1  0  0  0
 44112  1  0  0  0
 45 46  2  0  0  0
 45113  1  0  0  0
 46114  1  0  0  0
 47115  1  0  0  0
 47116  1  0  0  0
 48 56  1  0  0  0
 48 65  1  0  0  0
 48117  1  0  0  0
 49 50  1  0  0  0
 49 53  1  0  0  0
 49 64  1  0  0  0
 49118  1  0  0  0
 50 51  1  0  0  0
 50119  1  0  0  0
 50120  1  0  0  0
 51 52  1  0  0  0
 51121  1  0  0  0
 51122  1  0  0  0
 52123  1  0  0  0
 52124  1  0  0  0
 53 54  1  0  0  0
 54 55  2  0  0  0
 54125  1  0  0  0
 55 57  1  0  0  0
 55126  1  0  0  0
 56 69  2  0  0  0
 57 58  2  0  0  0
 57127  1  0  0  0
 58128  1  0  0  0
 59 60  1  0  0  0
 59 61  1  0  0  0
 59 62  1  0  0  0
 60129  1  0  0  0
 60130  1  0  0  0
 60131  1  0  0  0
 61132  1  0  0  0
 61133  1  0  0  0
 61134  1  0  0  0
 62135  1  0  0  0
 62136  1  0  0  0
 62137  1  0  0  0
 63 65  1  0  0  0
 63138  1  0  0  0
 63139  1  0  0  0
 63140  1  0  0  0
 64141  1  0  0  0
 65142  1  0  0  0
 68 79  1  0  0  0
 71 74  1  0  0  0
 71 80  2  0  0  0
 71 81  1  0  0  0
 72 76  1  0  0  0
 72 80  1  0  0  0
 72 82  2  0  0  0
 73 77  1  0  0  0
 73 81  2  0  0  0
 73 82  1  0  0  0
 74143  1  0  0  0
 74144  1  0  0  0
 74145  1  0  0  0
 75 83  1  0  0  0
 75146  1  0  0  0
 75147  1  0  0  0
 75148  1  0  0  0
 76 78  1  0  0  0
 76149  1  0  0  0
 76150  1  0  0  0
 77 79  1  0  0  0
 77151  1  0  0  0
 77152  1  0  0  0
 78 83  1  0  0  0
 78153  1  0  0  0
 78154  1  0  0  0
 79155  1  0  0  0
 79156  1  0  0  0
M  ISO  4   1 100  68 101  79 101  83 100
M  END
> <chiral flag>
0

> <version>
0

> <s_m_source_file>
/data/baiqing/PycharmProjects/Reinvent-master-3.2/result/LINK_invent/BTK/process_docking_weight1_custom_sum_contain_oxygen_bond_distance_aromatic_linkinvent_7_9_3/rearranged_h_0055.sdf

> <i_m_source_file_index>
70

> <r_mmod_Potential_Energy-OPLS-2005>
25976.33203125

> <r_mmod_Stretch_Energy-OPLS-2005>
14223.9384765625

> <r_mmod_Bend_Energy-OPLS-2005>
1847.91687011719

> <r_mmod_Torsional_Energy-OPLS-2005>
611.178894042969

> <r_mmod_Improper_Torsional_Energy-OPLS-2005>
117.668357849121

> <r_mmod_Van_der_Waal_Energy-OPLS-2005>
4365.296875

> <r_mmod_Electrostatic_Energy-OPLS-2005>
-741.9287109375

> <r_mmod_Solvation_Energy-OPLS-2005>
-303.065856933594

> <b_mmod_Minimization_Converged-OPLS-2005>
0

> <r_mmod_RMS_Derivative-OPLS-2005>
31.6783466339111

$$$$
70
                    3D
 Structure written by MMmdl.
163171  0  0  1  0            999 V2000
  -30.6148  -14.7155   20.5444 C   0  0  0  0  0  0
  -30.4151  -12.4539   19.4607 C   0  0  0  0  0  0
  -29.4885  -12.5626   18.2300 C   0  0  0  0  0  0
  -28.0152  -12.3751   18.6412 C   0  0  0  0  0  0
  -27.6392  -13.2284   19.8807 C   0  0  2  0  0  0
  -28.6859  -13.0427   20.9926 C   0  0  0  0  0  0
  -25.2447  -13.8182   20.5756 C   0  0  0  0  0  0
  -24.1729  -13.0454   20.9268 C   0  0  0  0  0  0
  -24.6331  -11.6909   20.8792 C   0  0  0  0  0  0
  -23.9042  -10.4283   21.0442 C   0  0  0  0  0  0
  -24.3622   -9.4228   21.9222 C   0  0  0  0  0  0
  -23.6321   -8.2258   22.0771 C   0  0  0  0  0  0
  -22.4290   -8.0302   21.3567 C   0  0  0  0  0  0
  -21.9926   -9.0259   20.4643 C   0  0  0  0  0  0
  -22.7238  -10.2146   20.3062 C   0  0  0  0  0  0
  -21.6867   -6.0714   22.5279 C   0  0  0  0  0  0
  -21.4012   -6.5620   23.8223 C   0  0  0  0  0  0
  -21.3678   -5.6789   24.9188 C   0  0  0  0  0  0
  -21.6084   -4.3051   24.7248 C   0  0  0  0  0  0
  -21.8824   -3.8121   23.4354 C   0  0  0  0  0  0
  -21.9191   -4.6935   22.3399 C   0  0  0  0  0  0
  -22.7775  -13.5227   21.1904 C   0  0  0  0  0  0
  -22.1658   -4.2104   21.0988 F   0  0  0  0  0  0
  -21.5669   -3.4532   25.7751 F   0  0  0  0  0  0
  -29.9795  -13.4826   20.4403 N   0  0  0  0  0  0
  -26.2889  -12.9383   20.3449 N   0  0  0  0  0  0
  -25.9271  -11.6527   20.5871 N   0  0  0  0  0  0
  -22.0401  -12.8225   22.0455 N   0  0  0  0  0  0
  -25.4156  -15.1863   20.4117 N   0  0  0  0  0  0
  -31.7584  -14.8263   20.0815 O   0  0  0  0  0  0
  -21.6712   -6.8859   21.4231 O   0  0  0  0  0  0
  -22.3428  -14.5546   20.6740 O   0  0  0  0  0  0
  -24.6267  -31.8592   23.2001 C   0  0  0  0  0  0
  -25.9112  -32.4794   23.8334 C   0  0  1  0  0  0
  -27.2271  -27.3062   20.1177 C   0  0  0  0  0  0
  -25.5940  -33.8586   24.2284 N   0  0  0  0  0  0
  -23.4226  -30.4782   21.5455 C   0  0  2  0  0  0
  -24.8696  -28.9260   20.1158 C   0  0  0  0  0  0
  -22.7464  -29.4630   22.4980 C   0  0  0  0  0  0
  -18.0292  -28.1361   22.8493 C   0  0  0  0  0  0
  -24.1506  -36.7284   23.2633 C   0  0  0  0  0  0
  -25.9635  -30.7858   21.3710 C   0  0  0  0  0  0
  -26.0397  -29.4094   20.7172 C   0  0  0  0  0  0
  -27.2268  -28.6150   20.7001 C   0  0  0  0  0  0
  -26.0367  -26.8731   19.5013 C   0  0  0  0  0  0
  -24.8713  -27.6638   19.4980 C   0  0  0  0  0  0
  -23.6364  -29.8063   20.1626 C   0  0  0  0  0  0
  -25.4140  -36.3106   24.0332 C   0  0  1  0  0  0
  -20.5889  -28.3679   23.1288 C   0  0  2  0  0  0
  -20.6794  -26.9414   22.5395 C   0  0  0  0  0  0
  -19.5768  -26.6377   21.5207 C   0  0  0  0  0  0
  -18.1943  -26.7916   22.1609 C   0  0  0  0  0  0
  -19.1537  -28.8843   23.2894 C   0  0  0  0  0  0
  -18.9453  -30.1437   23.8916 C   0  0  0  0  0  0
  -17.6452  -30.6581   24.0541 C   0  0  0  0  0  0
  -25.9059  -34.9474   23.5119 C   0  0  0  0  0  0
  -16.5351  -29.9069   23.6323 C   0  0  0  0  0  0
  -16.7270  -28.6473   23.0383 C   0  0  0  0  0  0
  -26.4462  -31.6603   25.0712 C   0  0  0  0  0  0
  -25.3661  -31.3699   26.1405 C   0  0  0  0  0  0
  -27.0289  -30.3049   24.6122 C   0  0  0  0  0  0
  -27.6076  -32.4272   25.7464 C   0  0  0  0  0  0
  -27.5603  -37.1800   24.8462 C   0  0  0  0  0  0
  -21.4190  -29.3047   22.3701 N   0  0  0  0  0  0
  -26.4318  -37.3801   23.9399 N   0  0  0  0  0  0
  -24.6912  -31.0549   22.0980 N   0  0  0  0  0  0
  -23.4171  -28.8194   23.3091 O   0  0  0  0  0  0
  -28.3466  -26.4582   20.0963 O   0  0  0  0  0  0
  -26.5605  -34.8944   22.4669 O   0  0  0  0  0  0
  -23.5427  -32.1418   23.7299 O   0  0  0  0  0  0
  -29.0668  -21.1574   19.8722 C   0  0  0  0  0  0
  -29.3132  -22.4774   20.3949 C   0  0  0  0  0  0
  -29.6063  -19.9916   20.5340 C   0  0  0  0  0  0
  -30.5427  -21.4609   22.0612 C   0  0  0  0  0  0
  -31.4583  -21.6708   23.2526 C   0  0  0  0  0  0
  -29.1739  -18.2976   18.6373 C   0  0  0  0  0  0
  -27.8507  -18.1908   20.7527 C   0  0  0  0  0  0
  -29.2538  -15.8262   22.2650 C   0  0  0  0  0  0
  -28.9556  -23.8658   19.7112 C   0  0  0  0  0  0
  -30.3350  -17.3209   20.6653 C   0  0  0  0  0  0
  -28.2056  -25.0330   20.5247 C   0  0  0  0  0  0
  -29.2630  -18.4619   20.1772 C   0  0  0  0  0  0
  -30.0913  -22.5735   21.4863 N   0  0  0  0  0  0
  -30.3158  -20.2075   21.6653 N   0  0  0  0  0  0
  -29.9164  -15.8635   20.9509 N   0  0  0  0  0  0
  -31.4610  -12.5650   19.1778 H   0  0  0  0  0  0
  -30.3382  -11.4478   19.8844 H   0  0  0  0  0  0
  -29.7642  -11.8256   17.4771 H   0  0  0  0  0  0
  -29.6101  -13.5373   17.7569 H   0  0  0  0  0  0
  -27.8612  -11.3172   18.8561 H   0  0  0  0  0  0
  -27.3503  -12.6046   17.8077 H   0  0  0  0  0  0
  -27.6684  -14.2716   19.5740 H   0  0  0  0  0  0
  -28.7245  -11.9905   21.2726 H   0  0  0  0  0  0
  -28.3890  -13.5252   21.9152 H   0  0  0  0  0  0
  -25.2759   -9.5730   22.4838 H   0  0  0  0  0  0
  -24.0051   -7.4628   22.7450 H   0  0  0  0  0  0
  -21.0896   -8.8760   19.8870 H   0  0  0  0  0  0
  -22.3730  -10.9712   19.6176 H   0  0  0  0  0  0
  -21.2003   -7.6129   23.9714 H   0  0  0  0  0  0
  -21.1522   -6.0523   25.9111 H   0  0  0  0  0  0
  -22.0574   -2.7557   23.2909 H   0  0  0  0  0  0
  -22.4040  -11.9919   22.4882 H   0  0  0  0  0  0
  -21.0998  -13.1190   22.2587 H   0  0  0  0  0  0
  -24.6459  -15.8402   20.5173 H   0  0  0  0  0  0
  -26.2784  -15.6136   20.1011 H   0  0  0  0  0  0
  -26.7178  -32.5451   23.1068 H   0  0  0  0  0  0
  -25.0142  -33.9725   25.0474 H   0  0  0  0  0  0
  -22.7209  -31.3023   21.3969 H   0  0  0  0  0  0
  -23.3807  -35.9572   23.3273 H   0  0  0  0  0  0
  -24.3620  -36.8908   22.2054 H   0  0  0  0  0  0
  -23.7200  -37.6461   23.6647 H   0  0  0  0  0  0
  -26.0888  -31.5465   20.5992 H   0  0  0  0  0  0
  -26.8467  -30.8404   21.9962 H   0  0  0  0  0  0
  -28.1343  -28.9905   21.1558 H   0  0  0  0  0  0
  -26.0096  -25.9087   19.0140 H   0  0  0  0  0  0
  -23.9800  -27.2887   19.0141 H   0  0  0  0  0  0
  -23.7490  -30.5812   19.4021 H   0  0  0  0  0  0
  -22.7574  -29.2280   19.8678 H   0  0  0  0  0  0
  -25.1324  -36.1976   25.0821 H   0  0  0  0  0  0
  -20.9972  -28.3235   24.1409 H   0  0  0  0  0  0
  -20.5726  -26.2277   23.3583 H   0  0  0  0  0  0
  -21.6655  -26.7476   22.1159 H   0  0  0  0  0  0
  -19.6934  -25.6280   21.1259 H   0  0  0  0  0  0
  -19.6733  -27.3166   20.6724 H   0  0  0  0  0  0
  -17.4233  -26.6696   21.3996 H   0  0  0  0  0  0
  -18.0350  -26.0036   22.8984 H   0  0  0  0  0  0
  -19.7929  -30.7239   24.2336 H   0  0  0  0  0  0
  -17.5006  -31.6286   24.5087 H   0  0  0  0  0  0
  -15.5348  -30.2967   23.7637 H   0  0  0  0  0  0
  -15.8681  -28.0758   22.7141 H   0  0  0  0  0  0
  -24.5908  -30.6990   25.7680 H   0  0  0  0  0  0
  -24.8746  -32.2831   26.4785 H   0  0  0  0  0  0
  -25.7953  -30.8897   27.0212 H   0  0  0  0  0  0
  -26.2840  -29.6832   24.1154 H   0  0  0  0  0  0
  -27.4027  -29.7285   25.4589 H   0  0  0  0  0  0
  -27.8696  -30.4383   23.9316 H   0  0  0  0  0  0
  -27.2788  -33.3605   26.2051 H   0  0  0  0  0  0
  -28.3888  -32.6758   25.0267 H   0  0  0  0  0  0
  -28.0740  -31.8358   26.5349 H   0  0  0  0  0  0
  -28.2604  -38.0117   24.7568 H   0  0  0  0  0  0
  -28.1125  -36.2654   24.6246 H   0  0  0  0  0  0
  -27.2308  -37.1387   25.8857 H   0  0  0  0  0  0
  -20.9388  -29.8705   21.6851 H   0  0  0  0  0  0
  -26.0219  -38.2877   24.1411 H   0  0  0  0  0  0
  -28.4648  -21.0460   18.9822 H   0  0  0  0  0  0
  -31.1972  -22.5819   23.7933 H   0  0  0  0  0  0
  -32.4901  -21.7775   22.9189 H   0  0  0  0  0  0
  -31.4054  -20.8418   23.9567 H   0  0  0  0  0  0
  -28.4464  -18.9719   18.1869 H   0  0  0  0  0  0
  -28.8614  -17.2913   18.3569 H   0  0  0  0  0  0
  -30.1327  -18.4883   18.1487 H   0  0  0  0  0  0
  -27.1125  -18.8866   20.3497 H   0  0  0  0  0  0
  -27.8193  -18.3118   21.8367 H   0  0  0  0  0  0
  -27.4912  -17.1915   20.5132 H   0  0  0  0  0  0
  -29.3251  -16.7583   22.8300 H   0  0  0  0  0  0
  -29.7006  -15.0731   22.9112 H   0  0  0  0  0  0
  -28.1883  -15.6199   22.1527 H   0  0  0  0  0  0
  -28.3959  -23.6562   18.8007 H   0  0  0  0  0  0
  -29.9057  -24.2767   19.3684 H   0  0  0  0  0  0
  -30.8154  -17.6782   21.5779 H   0  0  0  0  0  0
  -31.1586  -17.3219   19.9515 H   0  0  0  0  0  0
  -28.6085  -25.0259   21.5373 H   0  0  0  0  0  0
  -27.1589  -24.7508   20.6436 H   0  0  0  0  0  0
  1 25  1  0  0  0
  1 30  2  0  0  0
  1 85  1  0  0  0
  2  3  1  0  0  0
  2 25  1  0  0  0
  2 86  1  0  0  0
  2 87  1  0  0  0
  3  4  1  0  0  0
  3 88  1  0  0  0
  3 89  1  0  0  0
  4  5  1  0  0  0
  4 90  1  0  0  0
  4 91  1  0  0  0
  5  6  1  0  0  0
  5 26  1  0  0  0
  5 92  1  0  0  0
  6 25  1  0  0  0
  6 93  1  0  0  0
  6 94  1  0  0  0
  7  8  2  0  0  0
  7 26  1  0  0  0
  7 29  1  0  0  0
  8  9  1  0  0  0
  8 22  1  0  0  0
  9 10  1  0  0  0
  9 27  2  0  0  0
 10 11  2  0  0  0
 10 15  1  0  0  0
 11 12  1  0  0  0
 11 95  1  0  0  0
 12 13  2  0  0  0
 12 96  1  0  0  0
 13 14  1  0  0  0
 13 31  1  0  0  0
 14 15  2  0  0  0
 14 97  1  0  0  0
 15 98  1  0  0  0
 16 17  2  0  0  0
 16 21  1  0  0  0
 16 31  1  0  0  0
 17 18  1  0  0  0
 17 99  1  0  0  0
 18 19  2  0  0  0
 18100  1  0  0  0
 19 20  1  0  0  0
 19 24  1  0  0  0
 20 21  2  0  0  0
 20101  1  0  0  0
 21 23  1  0  0  0
 22 28  1  0  0  0
 22 32  2  0  0  0
 26 27  1  0  0  0
 28102  1  0  0  0
 28103  1  0  0  0
 29104  1  0  0  0
 29105  1  0  0  0
 33 34  1  0  0  0
 33 66  1  0  0  0
 33 70  2  0  0  0
 34 36  1  0  0  0
 34 59  1  0  0  0
 34106  1  0  0  0
 35 44  2  0  0  0
 35 45  1  0  0  0
 35 68  1  0  0  0
 36 56  1  0  0  0
 36107  1  0  0  0
 37 39  1  0  0  0
 37 47  1  0  0  0
 37 66  1  0  0  0
 37108  1  0  0  0
 38 43  2  0  0  0
 38 46  1  0  0  0
 38 47  1  0  0  0
 39 64  1  0  0  0
 39 67  2  0  0  0
 40 52  1  0  0  0
 40 53  2  0  0  0
 40 58  1  0  0  0
 41109  1  0  0  0
 41110  1  0  0  0
 41111  1  0  0  0
 41 48  1  0  0  0
 42 43  1  0  0  0
 42 66  1  0  0  0
 42112  1  0  0  0
 42113  1  0  0  0
 43 44  1  0  0  0
 44114  1  0  0  0
 45 46  2  0  0  0
 45115  1  0  0  0
 46116  1  0  0  0
 47117  1  0  0  0
 47118  1  0  0  0
 48 56  1  0  0  0
 48 65  1  0  0  0
 48119  1  0  0  0
 49 50  1  0  0  0
 49 53  1  0  0  0
 49 64  1  0  0  0
 49120  1  0  0  0
 50 51  1  0  0  0
 50121  1  0  0  0
 50122  1  0  0  0
 51 52  1  0  0  0
 51123  1  0  0  0
 51124  1  0  0  0
 52125  1  0  0  0
 52126  1  0  0  0
 53 54  1  0  0  0
 54 55  2  0  0  0
 54127  1  0  0  0
 55 57  1  0  0  0
 55128  1  0  0  0
 56 69  2  0  0  0
 57 58  2  0  0  0
 57129  1  0  0  0
 58130  1  0  0  0
 59 60  1  0  0  0
 59 61  1  0  0  0
 59 62  1  0  0  0
 60131  1  0  0  0
 60132  1  0  0  0
 60133  1  0  0  0
 61134  1  0  0  0
 61135  1  0  0  0
 61136  1  0  0  0
 62137  1  0  0  0
 62138  1  0  0  0
 62139  1  0  0  0
 63 65  1  0  0  0
 63140  1  0  0  0
 63141  1  0  0  0
 63142  1  0  0  0
 64143  1  0  0  0
 65144  1  0  0  0
 68 81  1  0  0  0
 71 72  2  0  0  0
 71 73  1  0  0  0
 71145  1  0  0  0
 72 79  1  0  0  0
 72 83  1  0  0  0
 73 82  1  0  0  0
 73 84  2  0  0  0
 74 75  1  0  0  0
 74 83  2  0  0  0
 74 84  1  0  0  0
 75146  1  0  0  0
 75147  1  0  0  0
 75148  1  0  0  0
 76149  1  0  0  0
 76150  1  0  0  0
 76151  1  0  0  0
 76 82  1  0  0  0
 77 82  1  0  0  0
 77152  1  0  0  0
 77153  1  0  0  0
 77154  1  0  0  0
 78 85  1  0  0  0
 78155  1  0  0  0
 78156  1  0  0  0
 78157  1  0  0  0
 79 81  1  0  0  0
 79158  1  0  0  0
 79159  1  0  0  0
 80 82  1  0  0  0
 80 85  1  0  0  0
 80160  1  0  0  0
 80161  1  0  0  0
 81162  1  0  0  0
 81163  1  0  0  0
M  ISO  4   1 100  68 101  81 101  85 100
M  END
> <chiral flag>
0

> <version>
0

> <s_m_source_file>
/data/baiqing/PycharmProjects/Reinvent-master-3.2/result/LINK_invent/BTK/process_docking_weight1_custom_sum_contain_oxygen_bond_distance_aromatic_linkinvent_7_9_3/rearranged_h_0055.sdf

> <i_m_source_file_index>
71

> <r_mmod_Potential_Energy-OPLS-2005>
-149.624099731445

> <r_mmod_Stretch_Energy-OPLS-2005>
126.199241638184

> <r_mmod_Bend_Energy-OPLS-2005>
184.253295898438

> <r_mmod_Torsional_Energy-OPLS-2005>
282.556091308594

> <r_mmod_Improper_Torsional_Energy-OPLS-2005>
9.35085010528564

> <r_mmod_Van_der_Waal_Energy-OPLS-2005>
158.938201904297

> <r_mmod_Electrostatic_Energy-OPLS-2005>
-754.409729003906

> <r_mmod_Solvation_Energy-OPLS-2005>
-215.085311889648

> <b_mmod_Minimization_Converged-OPLS-2005>
0

> <r_mmod_RMS_Derivative-OPLS-2005>
5.76634693145752

$$$$
71
                    3D
 Structure written by MMmdl.
162170  0  0  1  0            999 V2000
  -30.6137  -14.8148   20.3807 C   0  0  0  0  0  0
  -30.4450  -12.4856   19.4764 C   0  0  0  0  0  0
  -29.5252  -12.4516   18.2369 C   0  0  0  0  0  0
  -28.0491  -12.2769   18.6571 C   0  0  0  0  0  0
  -27.6274  -13.1990   19.8334 C   0  0  2  0  0  0
  -28.6866  -13.2419   20.9569 C   0  0  0  0  0  0
  -25.2544  -13.8070   20.5736 C   0  0  0  0  0  0
  -24.1798  -13.0373   20.9220 C   0  0  0  0  0  0
  -24.6358  -11.6839   20.8811 C   0  0  0  0  0  0
  -23.9037  -10.4253   21.0472 C   0  0  0  0  0  0
  -24.3609   -9.4163   21.9213 C   0  0  0  0  0  0
  -23.6305   -8.2195   22.0774 C   0  0  0  0  0  0
  -22.4280   -8.0258   21.3555 C   0  0  0  0  0  0
  -21.9910   -9.0225   20.4664 C   0  0  0  0  0  0
  -22.7238  -10.2102   20.3082 C   0  0  0  0  0  0
  -21.6834   -6.0738   22.5296 C   0  0  0  0  0  0
  -21.3980   -6.5643   23.8231 C   0  0  0  0  0  0
  -21.3661   -5.6790   24.9187 C   0  0  0  0  0  0
  -21.6055   -4.3055   24.7222 C   0  0  0  0  0  0
  -21.8816   -3.8158   23.4341 C   0  0  0  0  0  0
  -21.9187   -4.6969   22.3403 C   0  0  0  0  0  0
  -22.7844  -13.5220   21.1837 C   0  0  0  0  0  0
  -22.1656   -4.2168   21.0980 F   0  0  0  0  0  0
  -21.5666   -3.4528   25.7733 F   0  0  0  0  0  0
  -29.9724  -13.5915   20.3421 N   0  0  0  0  0  0
  -26.2906  -12.9171   20.3309 N   0  0  0  0  0  0
  -25.9275  -11.6366   20.5824 N   0  0  0  0  0  0
  -22.0440  -12.8276   22.0392 N   0  0  0  0  0  0
  -25.4284  -15.1799   20.4189 N   0  0  0  0  0  0
  -31.8389  -14.8436   20.2397 O   0  0  0  0  0  0
  -21.6629   -6.8872   21.4249 O   0  0  0  0  0  0
  -22.3565  -14.5523   20.6651 O   0  0  0  0  0  0
  -24.6310  -31.8518   23.1956 C   0  0  0  0  0  0
  -25.9123  -32.4726   23.8304 C   0  0  1  0  0  0
  -27.2242  -27.2605   20.1208 C   0  0  0  0  0  0
  -25.5918  -33.8526   24.2241 N   0  0  0  0  0  0
  -23.4279  -30.4769   21.5357 C   0  0  2  0  0  0
  -24.8766  -28.9218   20.1029 C   0  0  0  0  0  0
  -22.7491  -29.4615   22.4876 C   0  0  0  0  0  0
  -18.0283  -28.1394   22.8480 C   0  0  0  0  0  0
  -24.1487  -36.7273   23.2644 C   0  0  0  0  0  0
  -25.9733  -30.7669   21.3751 C   0  0  0  0  0  0
  -26.0444  -29.3882   20.7179 C   0  0  0  0  0  0
  -27.2153  -28.5665   20.7222 C   0  0  0  0  0  0
  -26.0286  -26.8548   19.4856 C   0  0  0  0  0  0
  -24.8747  -27.6661   19.4748 C   0  0  0  0  0  0
  -23.6461  -29.8100   20.1503 C   0  0  0  0  0  0
  -25.4089  -36.3044   24.0355 C   0  0  1  0  0  0
  -20.5884  -28.3701   23.1275 C   0  0  2  0  0  0
  -20.6762  -26.9425   22.5407 C   0  0  0  0  0  0
  -19.5760  -26.6394   21.5199 C   0  0  0  0  0  0
  -18.1934  -26.7940   22.1609 C   0  0  0  0  0  0
  -19.1527  -28.8859   23.2888 C   0  0  0  0  0  0
  -18.9462  -30.1446   23.8932 C   0  0  0  0  0  0
  -17.6460  -30.6614   24.0547 C   0  0  0  0  0  0
  -25.9029  -34.9414   23.5103 C   0  0  0  0  0  0
  -16.5346  -29.9110   23.6331 C   0  0  0  0  0  0
  -16.7258  -28.6514   23.0373 C   0  0  0  0  0  0
  -26.4503  -31.6534   25.0677 C   0  0  0  0  0  0
  -25.3757  -31.3704   26.1430 C   0  0  0  0  0  0
  -27.0315  -30.2936   24.6142 C   0  0  0  0  0  0
  -27.6062  -32.4261   25.7443 C   0  0  0  0  0  0
  -27.5589  -37.1760   24.8452 C   0  0  0  0  0  0
  -21.4188  -29.3054   22.3656 N   0  0  0  0  0  0
  -26.4248  -37.3753   23.9464 N   0  0  0  0  0  0
  -24.6961  -31.0514   22.0913 N   0  0  0  0  0  0
  -23.4197  -28.8170   23.2977 O   0  0  0  0  0  0
  -28.3331  -26.3897   20.2268 O   0  0  0  0  0  0
  -26.5610  -34.8905   22.4671 O   0  0  0  0  0  0
  -23.5463  -32.1323   23.7271 O   0  0  0  0  0  0
  -29.3829  -22.5293   19.7326 C   0  0  0  0  0  0
  -28.4838  -23.6538   19.9783 C   0  0  0  0  0  0
  -28.7871  -21.3342   20.1430 C   0  0  0  0  0  0
  -30.4453  -19.5355   22.0873 C   0  0  0  0  0  0
  -28.3302  -18.2711   21.8731 C   0  0  0  0  0  0
  -26.4144  -21.0265   21.0744 C   0  0  0  0  0  0
  -29.0004  -16.2280   19.1842 C   0  0  0  0  0  0
  -28.5200  -25.1461   19.4089 C   0  0  0  0  0  0
  -29.1692  -19.7939   19.9270 C   0  0  0  0  0  0
  -30.4629  -17.3893   20.7076 C   0  0  0  0  0  0
  -29.5799  -18.7284   21.0937 C   0  0  0  0  0  0
  -27.4011  -23.1553   20.5662 N   0  0  0  0  0  0
  -27.5589  -21.7932   20.6252 N   0  0  0  0  0  0
  -29.8765  -16.0191   20.3458 N   0  0  0  0  0  0
  -31.4843  -12.6183   19.1693 H   0  0  0  0  0  0
  -30.4151  -11.5360   20.0141 H   0  0  0  0  0  0
  -29.8265  -11.6329   17.5802 H   0  0  0  0  0  0
  -29.6488  -13.3646   17.6540 H   0  0  0  0  0  0
  -27.9237  -11.2343   18.9501 H   0  0  0  0  0  0
  -27.3958  -12.4294   17.7972 H   0  0  0  0  0  0
  -27.5420  -14.1798   19.3963 H   0  0  0  0  0  0
  -28.7549  -12.2834   21.4726 H   0  0  0  0  0  0
  -28.4164  -13.9886   21.7065 H   0  0  0  0  0  0
  -25.2771   -9.5633   22.4764 H   0  0  0  0  0  0
  -24.0031   -7.4563   22.7466 H   0  0  0  0  0  0
  -21.0847   -8.8735   19.8961 H   0  0  0  0  0  0
  -22.3731  -10.9632   19.6178 H   0  0  0  0  0  0
  -21.1926   -7.6139   23.9732 H   0  0  0  0  0  0
  -21.1515   -6.0519   25.9095 H   0  0  0  0  0  0
  -22.0598   -2.7622   23.2825 H   0  0  0  0  0  0
  -22.4044  -12.0000   22.4891 H   0  0  0  0  0  0
  -21.1054  -13.1343   22.2501 H   0  0  0  0  0  0
  -24.6691  -15.8416   20.5385 H   0  0  0  0  0  0
  -26.3015  -15.6184   20.1614 H   0  0  0  0  0  0
  -26.7185  -32.5397   23.1043 H   0  0  0  0  0  0
  -25.0057  -33.9636   25.0387 H   0  0  0  0  0  0
  -22.7268  -31.3010   21.3891 H   0  0  0  0  0  0
  -23.3763  -35.9585   23.3199 H   0  0  0  0  0  0
  -24.3638  -36.8973   22.2080 H   0  0  0  0  0  0
  -23.7186  -37.6429   23.6710 H   0  0  0  0  0  0
  -26.1128  -31.5285   20.6059 H   0  0  0  0  0  0
  -26.8502  -30.8162   22.0078 H   0  0  0  0  0  0
  -28.1067  -28.9148   21.2259 H   0  0  0  0  0  0
  -25.9407  -25.8791   19.0314 H   0  0  0  0  0  0
  -23.9779  -27.3080   18.9878 H   0  0  0  0  0  0
  -23.7719  -30.5884   19.3960 H   0  0  0  0  0  0
  -22.7635  -29.2448   19.8441 H   0  0  0  0  0  0
  -25.1261  -36.1868   25.0846 H   0  0  0  0  0  0
  -20.9986  -28.3249   24.1389 H   0  0  0  0  0  0
  -20.5640  -26.2304   23.3595 H   0  0  0  0  0  0
  -21.6629  -26.7444   22.1209 H   0  0  0  0  0  0
  -19.6925  -25.6301   21.1246 H   0  0  0  0  0  0
  -19.6727  -27.3176   20.6712 H   0  0  0  0  0  0
  -17.4204  -26.6674   21.4010 H   0  0  0  0  0  0
  -18.0364  -26.0085   22.9015 H   0  0  0  0  0  0
  -19.7936  -30.7237   24.2342 H   0  0  0  0  0  0
  -17.5027  -31.6314   24.5107 H   0  0  0  0  0  0
  -15.5349  -30.3029   23.7663 H   0  0  0  0  0  0
  -15.8649  -28.0836   22.7111 H   0  0  0  0  0  0
  -24.5937  -30.7025   25.7799 H   0  0  0  0  0  0
  -24.8952  -32.2885   26.4822 H   0  0  0  0  0  0
  -25.8122  -30.8931   27.0212 H   0  0  0  0  0  0
  -26.2868  -29.6688   24.1191 H   0  0  0  0  0  0
  -27.4011  -29.7189   25.4641 H   0  0  0  0  0  0
  -27.8758  -30.4173   23.9354 H   0  0  0  0  0  0
  -27.2656  -33.3557   26.2012 H   0  0  0  0  0  0
  -28.3880  -32.6803   25.0277 H   0  0  0  0  0  0
  -28.0713  -31.8375   26.5356 H   0  0  0  0  0  0
  -28.2509  -38.0148   24.7606 H   0  0  0  0  0  0
  -28.1185  -36.2693   24.6112 H   0  0  0  0  0  0
  -27.2379  -37.1196   25.8864 H   0  0  0  0  0  0
  -20.9358  -29.8774   21.6873 H   0  0  0  0  0  0
  -26.0129  -38.2817   24.1498 H   0  0  0  0  0  0
  -30.3206  -22.5898   19.1983 H   0  0  0  0  0  0
  -29.9314  -20.4278   22.4470 H   0  0  0  0  0  0
  -31.3780  -19.8619   21.6256 H   0  0  0  0  0  0
  -30.7045  -18.9514   22.9716 H   0  0  0  0  0  0
  -27.8379  -19.1073   22.3651 H   0  0  0  0  0  0
  -28.5879  -17.5591   22.6579 H   0  0  0  0  0  0
  -27.5911  -17.7938   21.2329 H   0  0  0  0  0  0
  -26.4357  -20.0228   20.6533 H   0  0  0  0  0  0
  -25.4905  -21.5024   20.7439 H   0  0  0  0  0  0
  -26.4092  -20.9742   22.1622 H   0  0  0  0  0  0
  -27.9807  -16.4452   19.4985 H   0  0  0  0  0  0
  -28.9797  -15.3826   18.5001 H   0  0  0  0  0  0
  -29.3387  -17.0609   18.5655 H   0  0  0  0  0  0
  -27.8896  -25.1875   18.5227 H   0  0  0  0  0  0
  -29.5172  -25.2825   18.9905 H   0  0  0  0  0  0
  -29.9998  -19.7941   19.2206 H   0  0  0  0  0  0
  -28.3653  -19.3388   19.3492 H   0  0  0  0  0  0
  -31.0841  -17.1664   21.5774 H   0  0  0  0  0  0
  -31.1901  -17.6594   19.9401 H   0  0  0  0  0  0
  1 25  1  0  0  0
  1 30  2  0  0  0
  1 84  1  0  0  0
  2  3  1  0  0  0
  2 25  1  0  0  0
  2 85  1  0  0  0
  2 86  1  0  0  0
  3  4  1  0  0  0
  3 87  1  0  0  0
  3 88  1  0  0  0
  4  5  1  0  0  0
  4 89  1  0  0  0
  4 90  1  0  0  0
  5  6  1  0  0  0
  5 26  1  0  0  0
  5 91  1  0  0  0
  6 25  1  0  0  0
  6 92  1  0  0  0
  6 93  1  0  0  0
  7  8  2  0  0  0
  7 26  1  0  0  0
  7 29  1  0  0  0
  8  9  1  0  0  0
  8 22  1  0  0  0
  9 10  1  0  0  0
  9 27  2  0  0  0
 10 11  2  0  0  0
 10 15  1  0  0  0
 11 12  1  0  0  0
 11 94  1  0  0  0
 12 13  2  0  0  0
 12 95  1  0  0  0
 13 14  1  0  0  0
 13 31  1  0  0  0
 14 15  2  0  0  0
 14 96  1  0  0  0
 15 97  1  0  0  0
 16 17  2  0  0  0
 16 21  1  0  0  0
 16 31  1  0  0  0
 17 18  1  0  0  0
 17 98  1  0  0  0
 18 19  2  0  0  0
 18 99  1  0  0  0
 19 20  1  0  0  0
 19 24  1  0  0  0
 20 21  2  0  0  0
 20100  1  0  0  0
 21 23  1  0  0  0
 22 28  1  0  0  0
 22 32  2  0  0  0
 26 27  1  0  0  0
 28101  1  0  0  0
 28102  1  0  0  0
 29103  1  0  0  0
 29104  1  0  0  0
 33 34  1  0  0  0
 33 66  1  0  0  0
 33 70  2  0  0  0
 34 36  1  0  0  0
 34 59  1  0  0  0
 34105  1  0  0  0
 35 44  2  0  0  0
 35 45  1  0  0  0
 35 68  1  0  0  0
 36 56  1  0  0  0
 36106  1  0  0  0
 37 39  1  0  0  0
 37 47  1  0  0  0
 37 66  1  0  0  0
 37107  1  0  0  0
 38 43  2  0  0  0
 38 46  1  0  0  0
 38 47  1  0  0  0
 39 64  1  0  0  0
 39 67  2  0  0  0
 40 52  1  0  0  0
 40 53  2  0  0  0
 40 58  1  0  0  0
 41108  1  0  0  0
 41109  1  0  0  0
 41110  1  0  0  0
 41 48  1  0  0  0
 42 43  1  0  0  0
 42 66  1  0  0  0
 42111  1  0  0  0
 42112  1  0  0  0
 43 44  1  0  0  0
 44113  1  0  0  0
 45 46  2  0  0  0
 45114  1  0  0  0
 46115  1  0  0  0
 47116  1  0  0  0
 47117  1  0  0  0
 48 56  1  0  0  0
 48 65  1  0  0  0
 48118  1  0  0  0
 49 50  1  0  0  0
 49 53  1  0  0  0
 49 64  1  0  0  0
 49119  1  0  0  0
 50 51  1  0  0  0
 50120  1  0  0  0
 50121  1  0  0  0
 51 52  1  0  0  0
 51122  1  0  0  0
 51123  1  0  0  0
 52124  1  0  0  0
 52125  1  0  0  0
 53 54  1  0  0  0
 54 55  2  0  0  0
 54126  1  0  0  0
 55 57  1  0  0  0
 55127  1  0  0  0
 56 69  2  0  0  0
 57 58  2  0  0  0
 57128  1  0  0  0
 58129  1  0  0  0
 59 60  1  0  0  0
 59 61  1  0  0  0
 59 62  1  0  0  0
 60130  1  0  0  0
 60131  1  0  0  0
 60132  1  0  0  0
 61133  1  0  0  0
 61134  1  0  0  0
 61135  1  0  0  0
 62136  1  0  0  0
 62137  1  0  0  0
 62138  1  0  0  0
 63 65  1  0  0  0
 63139  1  0  0  0
 63140  1  0  0  0
 63141  1  0  0  0
 64142  1  0  0  0
 65143  1  0  0  0
 68 78  1  0  0  0
 71 72  1  0  0  0
 71 73  2  0  0  0
 71144  1  0  0  0
 72 78  1  0  0  0
 72 82  2  0  0  0
 73 79  1  0  0  0
 73 83  1  0  0  0
 74145  1  0  0  0
 74146  1  0  0  0
 74147  1  0  0  0
 74 81  1  0  0  0
 75 81  1  0  0  0
 75148  1  0  0  0
 75149  1  0  0  0
 75150  1  0  0  0
 76 83  1  0  0  0
 76151  1  0  0  0
 76152  1  0  0  0
 76153  1  0  0  0
 77 84  1  0  0  0
 77154  1  0  0  0
 77155  1  0  0  0
 77156  1  0  0  0
 78157  1  0  0  0
 78158  1  0  0  0
 79 81  1  0  0  0
 79159  1  0  0  0
 79160  1  0  0  0
 80 81  1  0  0  0
 80 84  1  0  0  0
 80161  1  0  0  0
 80162  1  0  0  0
 82 83  1  0  0  0
M  ISO  4   1 100  68 101  78 101  84 100
M  END
> <chiral flag>
0

> <version>
0

> <s_m_source_file>
/data/baiqing/PycharmProjects/Reinvent-master-3.2/result/LINK_invent/BTK/process_docking_weight1_custom_sum_contain_oxygen_bond_distance_aromatic_linkinvent_7_9_3/rearranged_h_0055.sdf

> <i_m_source_file_index>
72

> <r_mmod_Potential_Energy-OPLS-2005>
417.653625488281

> <r_mmod_Stretch_Energy-OPLS-2005>
140.930145263672

> <r_mmod_Bend_Energy-OPLS-2005>
222.33349609375

> <r_mmod_Torsional_Energy-OPLS-2005>
316.686614990234

> <r_mmod_Improper_Torsional_Energy-OPLS-2005>
11.4827499389648

> <r_mmod_Van_der_Waal_Energy-OPLS-2005>
118.604759216309

> <r_mmod_Electrostatic_Energy-OPLS-2005>
-293.967895507812

> <r_mmod_Solvation_Energy-OPLS-2005>
-210.979095458984

> <b_mmod_Minimization_Converged-OPLS-2005>
0

> <r_mmod_RMS_Derivative-OPLS-2005>
3.65234518051147

$$$$
72
                    3D
 Structure written by MMmdl.
162170  0  0  1  0            999 V2000
  -30.6789  -14.5713   20.5608 C   0  0  0  0  0  0
  -30.4252  -12.3646   19.4483 C   0  0  0  0  0  0
  -29.5043  -12.5159   18.2190 C   0  0  0  0  0  0
  -28.0243  -12.3628   18.6229 C   0  0  0  0  0  0
  -27.6539  -13.2179   19.8642 C   0  0  2  0  0  0
  -28.6918  -13.0435   20.9921 C   0  0  0  0  0  0
  -25.2560  -13.8177   20.5683 C   0  0  0  0  0  0
  -24.1820  -13.0444   20.9172 C   0  0  0  0  0  0
  -24.6381  -11.6911   20.8710 C   0  0  0  0  0  0
  -23.9043  -10.4291   21.0386 C   0  0  0  0  0  0
  -24.3601   -9.4215   21.9172 C   0  0  0  0  0  0
  -23.6295   -8.2242   22.0743 C   0  0  0  0  0  0
  -22.4276   -8.0269   21.3538 C   0  0  0  0  0  0
  -21.9897   -9.0233   20.4639 C   0  0  0  0  0  0
  -22.7212  -10.2121   20.3046 C   0  0  0  0  0  0
  -21.6855   -6.0736   22.5283 C   0  0  0  0  0  0
  -21.4009   -6.5633   23.8215 C   0  0  0  0  0  0
  -21.3660   -5.6785   24.9176 C   0  0  0  0  0  0
  -21.6051   -4.3049   24.7222 C   0  0  0  0  0  0
  -21.8821   -3.8140   23.4342 C   0  0  0  0  0  0
  -21.9189   -4.6961   22.3404 C   0  0  0  0  0  0
  -22.7844  -13.5237   21.1853 C   0  0  0  0  0  0
  -22.1669   -4.2148   21.0982 F   0  0  0  0  0  0
  -21.5634   -3.4530   25.7737 F   0  0  0  0  0  0
  -30.0162  -13.3775   20.4429 N   0  0  0  0  0  0
  -26.2982  -12.9363   20.3296 N   0  0  0  0  0  0
  -25.9305  -11.6511   20.5704 N   0  0  0  0  0  0
  -22.0480  -12.8227   22.0414 N   0  0  0  0  0  0
  -25.4293  -15.1901   20.4146 N   0  0  0  0  0  0
  -31.7993  -14.7288   20.0638 O   0  0  0  0  0  0
  -21.6640   -6.8869   21.4241 O   0  0  0  0  0  0
  -22.3525  -14.5536   20.6699 O   0  0  0  0  0  0
  -24.6231  -31.8622   23.2051 C   0  0  0  0  0  0
  -25.9096  -32.4790   23.8374 C   0  0  1  0  0  0
  -27.2299  -27.3634   20.0862 C   0  0  0  0  0  0
  -25.5927  -33.8590   24.2299 N   0  0  0  0  0  0
  -23.4143  -30.4882   21.5470 C   0  0  2  0  0  0
  -24.8587  -28.9463   20.1097 C   0  0  0  0  0  0
  -22.7454  -29.4644   22.4945 C   0  0  0  0  0  0
  -18.0283  -28.1397   22.8485 C   0  0  0  0  0  0
  -24.1485  -36.7296   23.2644 C   0  0  0  0  0  0
  -25.9525  -30.8031   21.3709 C   0  0  0  0  0  0
  -26.0254  -29.4334   20.7123 C   0  0  0  0  0  0
  -27.2108  -28.6474   20.7032 C   0  0  0  0  0  0
  -26.0322  -26.9040   19.4930 C   0  0  0  0  0  0
  -24.8599  -27.6829   19.4984 C   0  0  0  0  0  0
  -23.6255  -29.8240   20.1611 C   0  0  0  0  0  0
  -25.4111  -36.3091   24.0339 C   0  0  1  0  0  0
  -20.5881  -28.3695   23.1288 C   0  0  2  0  0  0
  -20.6771  -26.9425   22.5404 C   0  0  0  0  0  0
  -19.5744  -26.6392   21.5212 C   0  0  0  0  0  0
  -18.1925  -26.7937   22.1627 C   0  0  0  0  0  0
  -19.1535  -28.8862   23.2881 C   0  0  0  0  0  0
  -18.9460  -30.1464   23.8896 C   0  0  0  0  0  0
  -17.6461  -30.6591   24.0570 C   0  0  0  0  0  0
  -25.9054  -34.9458   23.5120 C   0  0  0  0  0  0
  -16.5351  -29.9097   23.6333 C   0  0  0  0  0  0
  -16.7268  -28.6517   23.0345 C   0  0  0  0  0  0
  -26.4491  -31.6594   25.0732 C   0  0  0  0  0  0
  -25.3740  -31.3712   26.1472 C   0  0  0  0  0  0
  -27.0341  -30.3026   24.6169 C   0  0  0  0  0  0
  -27.6058  -32.4330   25.7490 C   0  0  0  0  0  0
  -27.5578  -37.1806   24.8468 C   0  0  0  0  0  0
  -21.4174  -29.3047   22.3677 N   0  0  0  0  0  0
  -26.4288  -37.3783   23.9415 N   0  0  0  0  0  0
  -24.6822  -31.0668   22.0985 N   0  0  0  0  0  0
  -23.4193  -28.8189   23.3013 O   0  0  0  0  0  0
  -28.3578  -26.5430   20.1270 O   0  0  0  0  0  0
  -26.5615  -34.8925   22.4683 O   0  0  0  0  0  0
  -23.5405  -32.1411   23.7400 O   0  0  0  0  0  0
  -29.4230  -23.4552   18.0138 C   0  0  0  0  0  0
  -28.9682  -24.2219   19.0578 C   0  0  0  0  0  0
  -29.2874  -22.0695   19.7586 C   0  0  0  0  0  0
  -30.1823  -21.0815   17.6546 C   0  0  0  0  0  0
  -29.8237  -15.8095   22.4712 C   0  0  0  0  0  0
  -27.7997  -19.3059   19.7165 C   0  0  0  0  0  0
  -28.6669  -25.7312   18.9605 C   0  0  0  0  0  0
  -29.4291  -20.8062   20.6497 C   0  0  0  0  0  0
  -29.8239  -16.9141   20.2049 C   0  0  0  0  0  0
  -29.6164  -18.3077   20.9406 C   0  0  0  0  0  0
  -29.6336  -22.1767   18.4625 N   0  0  0  0  0  0
  -28.8793  -23.3211   20.1169 N   0  3  0  0  0  0
  -29.9704  -15.6544   21.0198 N   0  0  0  0  0  0
  -29.2170  -19.4450   20.0586 N   0  0  0  0  0  0
  -31.4704  -12.4662   19.1518 H   0  0  0  0  0  0
  -30.3381  -11.3625   19.8717 H   0  0  0  0  0  0
  -29.7637  -11.7762   17.4605 H   0  0  0  0  0  0
  -29.6606  -13.4929   17.7586 H   0  0  0  0  0  0
  -27.8443  -11.3074   18.8314 H   0  0  0  0  0  0
  -27.3765  -12.6198   17.7835 H   0  0  0  0  0  0
  -27.6828  -14.2605   19.5458 H   0  0  0  0  0  0
  -28.6896  -12.0149   21.3573 H   0  0  0  0  0  0
  -28.4213  -13.6590   21.8482 H   0  0  0  0  0  0
  -25.2748   -9.5709   22.4736 H   0  0  0  0  0  0
  -24.0023   -7.4627   22.7448 H   0  0  0  0  0  0
  -21.0837   -8.8719   19.8940 H   0  0  0  0  0  0
  -22.3653  -10.9641   19.6143 H   0  0  0  0  0  0
  -21.1989   -7.6143   23.9721 H   0  0  0  0  0  0
  -21.1495   -6.0513   25.9082 H   0  0  0  0  0  0
  -22.0599   -2.7603   23.2834 H   0  0  0  0  0  0
  -22.4096  -11.9902   22.4826 H   0  0  0  0  0  0
  -21.1082  -13.1224   22.2579 H   0  0  0  0  0  0
  -24.6693  -15.8500   20.5369 H   0  0  0  0  0  0
  -26.2970  -15.6269   20.1311 H   0  0  0  0  0  0
  -26.7159  -32.5464   23.1123 H   0  0  0  0  0  0
  -25.0080  -33.9742   25.0446 H   0  0  0  0  0  0
  -22.7071  -31.3086   21.4077 H   0  0  0  0  0  0
  -23.3751  -35.9624   23.3303 H   0  0  0  0  0  0
  -24.3578  -36.8913   22.2059 H   0  0  0  0  0  0
  -23.7228  -37.6499   23.6656 H   0  0  0  0  0  0
  -26.0841  -31.5687   20.6046 H   0  0  0  0  0  0
  -26.8335  -30.8472   21.9997 H   0  0  0  0  0  0
  -28.1081  -29.0193   21.1776 H   0  0  0  0  0  0
  -25.9745  -25.9211   19.0479 H   0  0  0  0  0  0
  -23.9596  -27.2958   19.0406 H   0  0  0  0  0  0
  -23.7422  -30.6028   19.4064 H   0  0  0  0  0  0
  -22.7445  -29.2547   19.8591 H   0  0  0  0  0  0
  -25.1286  -36.1951   25.0831 H   0  0  0  0  0  0
  -20.9985  -28.3270   24.1407 H   0  0  0  0  0  0
  -20.5689  -26.2310   23.3603 H   0  0  0  0  0  0
  -21.6636  -26.7461   22.1195 H   0  0  0  0  0  0
  -19.6912  -25.6302   21.1241 H   0  0  0  0  0  0
  -19.6686  -27.3201   20.6743 H   0  0  0  0  0  0
  -17.4201  -26.6685   21.4023 H   0  0  0  0  0  0
  -18.0330  -26.0078   22.9026 H   0  0  0  0  0  0
  -19.7938  -30.7278   24.2257 H   0  0  0  0  0  0
  -17.5019  -31.6270   24.5178 H   0  0  0  0  0  0
  -15.5354  -30.3001   23.7655 H   0  0  0  0  0  0
  -15.8669  -28.0842   22.7051 H   0  0  0  0  0  0
  -24.5909  -30.7067   25.7798 H   0  0  0  0  0  0
  -24.8939  -32.2870   26.4929 H   0  0  0  0  0  0
  -25.8084  -30.8868   27.0226 H   0  0  0  0  0  0
  -26.2908  -29.6766   24.1218 H   0  0  0  0  0  0
  -27.4079  -29.7289   25.4660 H   0  0  0  0  0  0
  -27.8754  -30.4323   23.9357 H   0  0  0  0  0  0
  -27.2673  -33.3629   26.2067 H   0  0  0  0  0  0
  -28.3857  -32.6897   25.0309 H   0  0  0  0  0  0
  -28.0740  -31.8465   26.5404 H   0  0  0  0  0  0
  -28.2599  -38.0100   24.7515 H   0  0  0  0  0  0
  -28.1069  -36.2635   24.6285 H   0  0  0  0  0  0
  -27.2302  -37.1438   25.8872 H   0  0  0  0  0  0
  -20.9352  -29.8762   21.6883 H   0  0  0  0  0  0
  -26.0175  -38.2860   24.1415 H   0  0  0  0  0  0
  -29.6351  -23.7457   16.9942 H   0  0  0  0  0  0
  -30.6062  -21.4801   16.7326 H   0  0  0  0  0  0
  -29.3864  -20.3791   17.4058 H   0  0  0  0  0  0
  -30.9692  -20.5722   18.2110 H   0  0  0  0  0  0
  -28.8179  -16.1457   22.7238 H   0  0  0  0  0  0
  -30.5398  -16.5345   22.8591 H   0  0  0  0  0  0
  -29.9980  -14.8769   23.0127 H   0  0  0  0  0  0
  -27.4722  -20.0946   19.0383 H   0  0  0  0  0  0
  -27.1679  -19.3516   20.6057 H   0  0  0  0  0  0
  -27.5937  -18.3600   19.2159 H   0  0  0  0  0  0
  -27.9539  -25.8720   18.1491 H   0  0  0  0  0  0
  -29.5772  -26.1821   18.5653 H   0  0  0  0  0  0
  -28.7745  -20.9527   21.5096 H   0  0  0  0  0  0
  -30.4500  -20.8600   21.0284 H   0  0  0  0  0  0
  -30.6901  -17.0162   19.5486 H   0  0  0  0  0  0
  -28.9865  -16.7244   19.5350 H   0  0  0  0  0  0
  -30.5612  -18.5638   21.4234 H   0  0  0  0  0  0
  -28.8864  -18.2176   21.7465 H   0  0  0  0  0  0
  -28.5736  -23.5720   21.0489 H   0  0  0  0  0  0
  1 25  1  0  0  0
  1 30  2  0  0  0
  1 83  1  0  0  0
  2  3  1  0  0  0
  2 25  1  0  0  0
  2 85  1  0  0  0
  2 86  1  0  0  0
  3  4  1  0  0  0
  3 87  1  0  0  0
  3 88  1  0  0  0
  4  5  1  0  0  0
  4 89  1  0  0  0
  4 90  1  0  0  0
  5  6  1  0  0  0
  5 26  1  0  0  0
  5 91  1  0  0  0
  6 25  1  0  0  0
  6 92  1  0  0  0
  6 93  1  0  0  0
  7  8  2  0  0  0
  7 26  1  0  0  0
  7 29  1  0  0  0
  8  9  1  0  0  0
  8 22  1  0  0  0
  9 10  1  0  0  0
  9 27  2  0  0  0
 10 11  2  0  0  0
 10 15  1  0  0  0
 11 12  1  0  0  0
 11 94  1  0  0  0
 12 13  2  0  0  0
 12 95  1  0  0  0
 13 14  1  0  0  0
 13 31  1  0  0  0
 14 15  2  0  0  0
 14 96  1  0  0  0
 15 97  1  0  0  0
 16 17  2  0  0  0
 16 21  1  0  0  0
 16 31  1  0  0  0
 17 18  1  0  0  0
 17 98  1  0  0  0
 18 19  2  0  0  0
 18 99  1  0  0  0
 19 20  1  0  0  0
 19 24  1  0  0  0
 20 21  2  0  0  0
 20100  1  0  0  0
 21 23  1  0  0  0
 22 28  1  0  0  0
 22 32  2  0  0  0
 26 27  1  0  0  0
 28101  1  0  0  0
 28102  1  0  0  0
 29103  1  0  0  0
 29104  1  0  0  0
 33 34  1  0  0  0
 33 66  1  0  0  0
 33 70  2  0  0  0
 34 36  1  0  0  0
 34 59  1  0  0  0
 34105  1  0  0  0
 35 44  2  0  0  0
 35 45  1  0  0  0
 35 68  1  0  0  0
 36 56  1  0  0  0
 36106  1  0  0  0
 37 39  1  0  0  0
 37 47  1  0  0  0
 37 66  1  0  0  0
 37107  1  0  0  0
 38 43  2  0  0  0
 38 46  1  0  0  0
 38 47  1  0  0  0
 39 64  1  0  0  0
 39 67  2  0  0  0
 40 52  1  0  0  0
 40 53  2  0  0  0
 40 58  1  0  0  0
 41108  1  0  0  0
 41109  1  0  0  0
 41110  1  0  0  0
 41 48  1  0  0  0
 42 43  1  0  0  0
 42 66  1  0  0  0
 42111  1  0  0  0
 42112  1  0  0  0
 43 44  1  0  0  0
 44113  1  0  0  0
 45 46  2  0  0  0
 45114  1  0  0  0
 46115  1  0  0  0
 47116  1  0  0  0
 47117  1  0  0  0
 48 56  1  0  0  0
 48 65  1  0  0  0
 48118  1  0  0  0
 49 50  1  0  0  0
 49 53  1  0  0  0
 49 64  1  0  0  0
 49119  1  0  0  0
 50 51  1  0  0  0
 50120  1  0  0  0
 50121  1  0  0  0
 51 52  1  0  0  0
 51122  1  0  0  0
 51123  1  0  0  0
 52124  1  0  0  0
 52125  1  0  0  0
 53 54  1  0  0  0
 54 55  2  0  0  0
 54126  1  0  0  0
 55 57  1  0  0  0
 55127  1  0  0  0
 56 69  2  0  0  0
 57 58  2  0  0  0
 57128  1  0  0  0
 58129  1  0  0  0
 59 60  1  0  0  0
 59 61  1  0  0  0
 59 62  1  0  0  0
 60130  1  0  0  0
 60131  1  0  0  0
 60132  1  0  0  0
 61133  1  0  0  0
 61134  1  0  0  0
 61135  1  0  0  0
 62136  1  0  0  0
 62137  1  0  0  0
 62138  1  0  0  0
 63 65  1  0  0  0
 63139  1  0  0  0
 63140  1  0  0  0
 63141  1  0  0  0
 64142  1  0  0  0
 65143  1  0  0  0
 68 77  1  0  0  0
 71 72  2  0  0  0
 71 81  1  0  0  0
 71144  1  0  0  0
 72 77  1  0  0  0
 72 82  1  0  0  0
 73 78  1  0  0  0
 73 81  1  0  0  0
 73 82  2  0  0  0
 74 81  1  0  0  0
 74145  1  0  0  0
 74146  1  0  0  0
 74147  1  0  0  0
 75 83  1  0  0  0
 75148  1  0  0  0
 75149  1  0  0  0
 75150  1  0  0  0
 76 84  1  0  0  0
 76151  1  0  0  0
 76152  1  0  0  0
 76153  1  0  0  0
 77154  1  0  0  0
 77155  1  0  0  0
 78 84  1  0  0  0
 78156  1  0  0  0
 78157  1  0  0  0
 79 80  1  0  0  0
 79 83  1  0  0  0
 79158  1  0  0  0
 79159  1  0  0  0
 80 84  1  0  0  0
 80160  1  0  0  0
 80161  1  0  0  0
 82162  1  0  0  0
M  CHG  1  82   1
M  ISO  4   1 100  68 101  77 101  83 100
M  END
> <chiral flag>
0

> <version>
0

> <s_m_source_file>
/data/baiqing/PycharmProjects/Reinvent-master-3.2/result/LINK_invent/BTK/process_docking_weight1_custom_sum_contain_oxygen_bond_distance_aromatic_linkinvent_7_9_3/rearranged_h_0055.sdf

> <i_m_source_file_index>
73

> <r_mmod_Potential_Energy-OPLS-2005>
122.049926757812

> <r_mmod_Stretch_Energy-OPLS-2005>
69.3677978515625

> <r_mmod_Bend_Energy-OPLS-2005>
145.565124511719

> <r_mmod_Torsional_Energy-OPLS-2005>
299.863677978516

> <r_mmod_Improper_Torsional_Energy-OPLS-2005>
7.21388864517212

> <r_mmod_Van_der_Waal_Energy-OPLS-2005>
132.49919128418

> <r_mmod_Electrostatic_Energy-OPLS-2005>
-158.978485107422

> <r_mmod_Solvation_Energy-OPLS-2005>
-403.223999023438

> <b_mmod_Minimization_Converged-OPLS-2005>
0

> <r_mmod_RMS_Derivative-OPLS-2005>
1.41992795467377

$$$$
73
                    3D
 Structure written by MMmdl.
162170  0  0  1  0            999 V2000
  -30.6916  -14.5150   20.6003 C   0  0  0  0  0  0
  -30.4343  -12.3418   19.4342 C   0  0  0  0  0  0
  -29.5030  -12.5119   18.2161 C   0  0  0  0  0  0
  -28.0257  -12.3531   18.6265 C   0  0  0  0  0  0
  -27.6622  -13.2052   19.8710 C   0  0  2  0  0  0
  -28.6996  -12.9980   20.9950 C   0  0  0  0  0  0
  -25.2610  -13.8151   20.5661 C   0  0  0  0  0  0
  -24.1861  -13.0433   20.9174 C   0  0  0  0  0  0
  -24.6410  -11.6899   20.8728 C   0  0  0  0  0  0
  -23.9068  -10.4290   21.0409 C   0  0  0  0  0  0
  -24.3618   -9.4200   21.9185 C   0  0  0  0  0  0
  -23.6293   -8.2239   22.0749 C   0  0  0  0  0  0
  -22.4275   -8.0281   21.3542 C   0  0  0  0  0  0
  -21.9912   -9.0258   20.4638 C   0  0  0  0  0  0
  -22.7243  -10.2135   20.3051 C   0  0  0  0  0  0
  -21.6852   -6.0739   22.5279 C   0  0  0  0  0  0
  -21.4015   -6.5642   23.8214 C   0  0  0  0  0  0
  -21.3654   -5.6791   24.9175 C   0  0  0  0  0  0
  -21.6040   -4.3053   24.7217 C   0  0  0  0  0  0
  -21.8821   -3.8147   23.4340 C   0  0  0  0  0  0
  -21.9196   -4.6971   22.3397 C   0  0  0  0  0  0
  -22.7886  -13.5252   21.1824 C   0  0  0  0  0  0
  -22.1669   -4.2154   21.0975 F   0  0  0  0  0  0
  -21.5617   -3.4535   25.7731 F   0  0  0  0  0  0
  -30.0325  -13.3252   20.4552 N   0  0  0  0  0  0
  -26.3037  -12.9313   20.3339 N   0  0  0  0  0  0
  -25.9337  -11.6473   20.5746 N   0  0  0  0  0  0
  -22.0520  -12.8248   22.0379 N   0  0  0  0  0  0
  -25.4345  -15.1863   20.4062 N   0  0  0  0  0  0
  -31.7675  -14.7475   20.0398 O   0  0  0  0  0  0
  -21.6636   -6.8881   21.4235 O   0  0  0  0  0  0
  -22.3571  -14.5552   20.6665 O   0  0  0  0  0  0
  -24.6205  -31.8654   23.2065 C   0  0  0  0  0  0
  -25.9075  -32.4821   23.8384 C   0  0  1  0  0  0
  -27.2336  -27.3990   20.0996 C   0  0  0  0  0  0
  -25.5903  -33.8616   24.2299 N   0  0  0  0  0  0
  -23.4111  -30.4872   21.5489 C   0  0  2  0  0  0
  -24.8590  -28.9470   20.1149 C   0  0  0  0  0  0
  -22.7451  -29.4663   22.4994 C   0  0  0  0  0  0
  -18.0287  -28.1386   22.8498 C   0  0  0  0  0  0
  -24.1488  -36.7305   23.2634 C   0  0  0  0  0  0
  -25.9435  -30.8182   21.3678 C   0  0  0  0  0  0
  -26.0227  -29.4501   20.7120 C   0  0  0  0  0  0
  -27.2181  -28.6852   20.6972 C   0  0  0  0  0  0
  -26.0558  -26.9215   19.4898 C   0  0  0  0  0  0
  -24.8725  -27.6840   19.4977 C   0  0  0  0  0  0
  -23.6202  -29.8144   20.1660 C   0  0  0  0  0  0
  -25.4111  -36.3106   24.0326 C   0  0  1  0  0  0
  -20.5878  -28.3685   23.1301 C   0  0  2  0  0  0
  -20.6785  -26.9423   22.5407 C   0  0  0  0  0  0
  -19.5752  -26.6396   21.5217 C   0  0  0  0  0  0
  -18.1929  -26.7937   22.1625 C   0  0  0  0  0  0
  -19.1539  -28.8851   23.2891 C   0  0  0  0  0  0
  -18.9465  -30.1450   23.8917 C   0  0  0  0  0  0
  -17.6467  -30.6598   24.0565 C   0  0  0  0  0  0
  -25.9037  -34.9477   23.5109 C   0  0  0  0  0  0
  -16.5354  -29.9095   23.6334 C   0  0  0  0  0  0
  -16.7273  -28.6507   23.0357 C   0  0  0  0  0  0
  -26.4474  -31.6621   25.0738 C   0  0  0  0  0  0
  -25.3716  -31.3725   26.1467 C   0  0  0  0  0  0
  -27.0317  -30.3059   24.6146 C   0  0  0  0  0  0
  -27.6030  -32.4362   25.7499 C   0  0  0  0  0  0
  -27.5586  -37.1799   24.8461 C   0  0  0  0  0  0
  -21.4170  -29.3048   22.3717 N   0  0  0  0  0  0
  -26.4304  -37.3789   23.9401 N   0  0  0  0  0  0
  -24.6770  -31.0712   22.0988 N   0  0  0  0  0  0
  -23.4202  -28.8225   23.3073 O   0  0  0  0  0  0
  -28.3547  -26.5885   20.0978 O   0  0  0  0  0  0
  -26.5616  -34.8939   22.4683 O   0  0  0  0  0  0
  -23.5375  -32.1433   23.7416 O   0  0  0  0  0  0
  -29.2980  -23.0045   21.2328 C   0  0  0  0  0  0
  -28.7349  -24.0793   20.4704 C   0  0  0  0  0  0
  -29.5014  -21.9587   20.3624 C   0  0  0  0  0  0
  -28.9999  -21.7338   17.8592 C   0  0  0  0  0  0
  -30.0549  -15.5224   22.7274 C   0  0  0  0  0  0
  -27.9950  -19.4829   21.1371 C   0  0  0  0  0  0
  -28.2586  -25.4471   20.9921 C   0  0  0  0  0  0
  -30.1573  -20.5893   20.6053 C   0  0  0  0  0  0
  -29.4408  -16.7107   20.6068 C   0  0  0  0  0  0
  -30.0663  -18.1044   20.9926 C   0  0  0  0  0  0
  -28.5720  -23.7017   19.2062 N   0  0  0  0  0  0
  -29.0394  -22.4238   19.1368 N   0  0  0  0  0  0
  -30.0239  -15.5016   21.2611 N   0  0  0  0  0  0
  -29.3298  -19.3333   20.5020 N   0  3  1  0  0  0
  -31.4759  -12.4604   19.1306 H   0  0  0  0  0  0
  -30.3589  -11.3320   19.8403 H   0  0  0  0  0  0
  -29.7566  -11.7824   17.4452 H   0  0  0  0  0  0
  -29.6553  -13.4955   17.7690 H   0  0  0  0  0  0
  -27.8549  -11.2966   18.8414 H   0  0  0  0  0  0
  -27.3722  -12.6028   17.7897 H   0  0  0  0  0  0
  -27.7032  -14.2506   19.5641 H   0  0  0  0  0  0
  -28.6872  -11.9632   21.3407 H   0  0  0  0  0  0
  -28.4246  -13.5930   21.8651 H   0  0  0  0  0  0
  -25.2768   -9.5674   22.4760 H   0  0  0  0  0  0
  -23.9999   -7.4628   22.7475 H   0  0  0  0  0  0
  -21.0844   -8.8781   19.8949 H   0  0  0  0  0  0
  -22.3712  -10.9673   19.6156 H   0  0  0  0  0  0
  -21.2013   -7.6151   23.9718 H   0  0  0  0  0  0
  -21.1472   -6.0521   25.9078 H   0  0  0  0  0  0
  -22.0605   -2.7612   23.2837 H   0  0  0  0  0  0
  -22.4144  -11.9922   22.4779 H   0  0  0  0  0  0
  -21.1136  -13.1268   22.2547 H   0  0  0  0  0  0
  -24.6661  -15.8413   20.5016 H   0  0  0  0  0  0
  -26.2836  -15.6162   20.0647 H   0  0  0  0  0  0
  -26.7157  -32.5525   23.1155 H   0  0  0  0  0  0
  -25.0046  -33.9773   25.0439 H   0  0  0  0  0  0
  -22.7019  -31.3046   21.4068 H   0  0  0  0  0  0
  -23.3764  -35.9634   23.3307 H   0  0  0  0  0  0
  -24.3571  -36.8918   22.2049 H   0  0  0  0  0  0
  -23.7241  -37.6504   23.6663 H   0  0  0  0  0  0
  -26.0614  -31.5859   20.6013 H   0  0  0  0  0  0
  -26.8279  -30.8694   21.9916 H   0  0  0  0  0  0
  -28.1186  -29.0645   21.1614 H   0  0  0  0  0  0
  -26.0515  -25.9492   19.0163 H   0  0  0  0  0  0
  -23.9780  -27.2915   19.0316 H   0  0  0  0  0  0
  -23.7263  -30.5852   19.4026 H   0  0  0  0  0  0
  -22.7441  -29.2304   19.8780 H   0  0  0  0  0  0
  -25.1288  -36.1968   25.0822 H   0  0  0  0  0  0
  -20.9951  -28.3281   24.1428 H   0  0  0  0  0  0
  -20.5712  -26.2301   23.3609 H   0  0  0  0  0  0
  -21.6650  -26.7489   22.1177 H   0  0  0  0  0  0
  -19.6913  -25.6310   21.1243 H   0  0  0  0  0  0
  -19.6684  -27.3219   20.6763 H   0  0  0  0  0  0
  -17.4195  -26.6704   21.4029 H   0  0  0  0  0  0
  -18.0315  -26.0077   22.9016 H   0  0  0  0  0  0
  -19.7942  -30.7254   24.2305 H   0  0  0  0  0  0
  -17.5026  -31.6280   24.5170 H   0  0  0  0  0  0
  -15.5352  -30.2994   23.7659 H   0  0  0  0  0  0
  -15.8672  -28.0824   22.7067 H   0  0  0  0  0  0
  -24.5894  -30.7076   25.7776 H   0  0  0  0  0  0
  -24.8896  -32.2881   26.4918 H   0  0  0  0  0  0
  -25.8040  -30.8883   27.0231 H   0  0  0  0  0  0
  -26.2880  -29.6815   24.1185 H   0  0  0  0  0  0
  -27.4050  -29.7302   25.4621 H   0  0  0  0  0  0
  -27.8735  -30.4354   23.9336 H   0  0  0  0  0  0
  -27.2645  -33.3663   26.2076 H   0  0  0  0  0  0
  -28.3841  -32.6926   25.0329 H   0  0  0  0  0  0
  -28.0720  -31.8506   26.5414 H   0  0  0  0  0  0
  -28.2585  -38.0110   24.7528 H   0  0  0  0  0  0
  -28.1097  -36.2643   24.6278 H   0  0  0  0  0  0
  -27.2297  -37.1429   25.8858 H   0  0  0  0  0  0
  -20.9370  -29.8746   21.6892 H   0  0  0  0  0  0
  -26.0196  -38.2862   24.1422 H   0  0  0  0  0  0
  -29.5365  -23.0142   22.2874 H   0  0  0  0  0  0
  -29.9384  -21.2062   17.6874 H   0  0  0  0  0  0
  -28.8467  -22.4408   17.0420 H   0  0  0  0  0  0
  -28.1808  -21.0140   17.8538 H   0  0  0  0  0  0
  -29.1494  -15.9726   23.1376 H   0  0  0  0  0  0
  -30.9142  -16.0920   23.0834 H   0  0  0  0  0  0
  -30.1408  -14.5202   23.1533 H   0  0  0  0  0  0
  -27.4527  -20.3418   20.7405 H   0  0  0  0  0  0
  -28.0860  -19.6127   22.2161 H   0  0  0  0  0  0
  -27.3583  -18.6187   20.9545 H   0  0  0  0  0  0
  -28.8412  -25.7034   21.8771 H   0  0  0  0  0  0
  -27.2406  -25.3294   21.3664 H   0  0  0  0  0  0
  -30.5880  -20.6097   21.6071 H   0  0  0  0  0  0
  -31.0121  -20.4890   19.9355 H   0  0  0  0  0  0
  -29.4959  -16.5907   19.5229 H   0  0  0  0  0  0
  -28.3792  -16.6886   20.8500 H   0  0  0  0  0  0
  -31.0850  -18.1303   20.6032 H   0  0  0  0  0  0
  -30.1607  -18.1845   22.0758 H   0  0  0  0  0  0
  -29.1625  -19.2013   19.5155 H   0  0  0  0  0  0
  1 25  1  0  0  0
  1 30  2  0  0  0
  1 83  1  0  0  0
  2  3  1  0  0  0
  2 25  1  0  0  0
  2 85  1  0  0  0
  2 86  1  0  0  0
  3  4  1  0  0  0
  3 87  1  0  0  0
  3 88  1  0  0  0
  4  5  1  0  0  0
  4 89  1  0  0  0
  4 90  1  0  0  0
  5  6  1  0  0  0
  5 26  1  0  0  0
  5 91  1  0  0  0
  6 25  1  0  0  0
  6 92  1  0  0  0
  6 93  1  0  0  0
  7  8  2  0  0  0
  7 26  1  0  0  0
  7 29  1  0  0  0
  8  9  1  0  0  0
  8 22  1  0  0  0
  9 10  1  0  0  0
  9 27  2  0  0  0
 10 11  2  0  0  0
 10 15  1  0  0  0
 11 12  1  0  0  0
 11 94  1  0  0  0
 12 13  2  0  0  0
 12 95  1  0  0  0
 13 14  1  0  0  0
 13 31  1  0  0  0
 14 15  2  0  0  0
 14 96  1  0  0  0
 15 97  1  0  0  0
 16 17  2  0  0  0
 16 21  1  0  0  0
 16 31  1  0  0  0
 17 18  1  0  0  0
 17 98  1  0  0  0
 18 19  2  0  0  0
 18 99  1  0  0  0
 19 20  1  0  0  0
 19 24  1  0  0  0
 20 21  2  0  0  0
 20100  1  0  0  0
 21 23  1  0  0  0
 22 28  1  0  0  0
 22 32  2  0  0  0
 26 27  1  0  0  0
 28101  1  0  0  0
 28102  1  0  0  0
 29103  1  0  0  0
 29104  1  0  0  0
 33 34  1  0  0  0
 33 66  1  0  0  0
 33 70  2  0  0  0
 34 36  1  0  0  0
 34 59  1  0  0  0
 34105  1  0  0  0
 35 44  2  0  0  0
 35 45  1  0  0  0
 35 68  1  0  0  0
 36 56  1  0  0  0
 36106  1  0  0  0
 37 39  1  0  0  0
 37 47  1  0  0  0
 37 66  1  0  0  0
 37107  1  0  0  0
 38 43  2  0  0  0
 38 46  1  0  0  0
 38 47  1  0  0  0
 39 64  1  0  0  0
 39 67  2  0  0  0
 40 52  1  0  0  0
 40 53  2  0  0  0
 40 58  1  0  0  0
 41108  1  0  0  0
 41109  1  0  0  0
 41110  1  0  0  0
 41 48  1  0  0  0
 42 43  1  0  0  0
 42 66  1  0  0  0
 42111  1  0  0  0
 42112  1  0  0  0
 43 44  1  0  0  0
 44113  1  0  0  0
 45 46  2  0  0  0
 45114  1  0  0  0
 46115  1  0  0  0
 47116  1  0  0  0
 47117  1  0  0  0
 48 56  1  0  0  0
 48 65  1  0  0  0
 48118  1  0  0  0
 49 50  1  0  0  0
 49 53  1  0  0  0
 49 64  1  0  0  0
 49119  1  0  0  0
 50 51  1  0  0  0
 50120  1  0  0  0
 50121  1  0  0  0
 51 52  1  0  0  0
 51122  1  0  0  0
 51123  1  0  0  0
 52124  1  0  0  0
 52125  1  0  0  0
 53 54  1  0  0  0
 54 55  2  0  0  0
 54126  1  0  0  0
 55 57  1  0  0  0
 55127  1  0  0  0
 56 69  2  0  0  0
 57 58  2  0  0  0
 57128  1  0  0  0
 58129  1  0  0  0
 59 60  1  0  0  0
 59 61  1  0  0  0
 59 62  1  0  0  0
 60130  1  0  0  0
 60131  1  0  0  0
 60132  1  0  0  0
 61133  1  0  0  0
 61134  1  0  0  0
 61135  1  0  0  0
 62136  1  0  0  0
 62137  1  0  0  0
 62138  1  0  0  0
 63 65  1  0  0  0
 63139  1  0  0  0
 63140  1  0  0  0
 63141  1  0  0  0
 64142  1  0  0  0
 65143  1  0  0  0
 68 77  1  0  0  0
 71 72  1  0  0  0
 71 73  2  0  0  0
 71144  1  0  0  0
 72 77  1  0  0  0
 72 81  2  0  0  0
 73 78  1  0  0  0
 73 82  1  0  0  0
 74 82  1  0  0  0
 74145  1  0  0  0
 74146  1  0  0  0
 74147  1  0  0  0
 75 83  1  0  0  0
 75148  1  0  0  0
 75149  1  0  0  0
 75150  1  0  0  0
 76151  1  0  0  0
 76152  1  0  0  0
 76153  1  0  0  0
 76 84  1  0  0  0
 77154  1  0  0  0
 77155  1  0  0  0
 78 84  1  0  0  0
 78156  1  0  0  0
 78157  1  0  0  0
 79 80  1  0  0  0
 79 83  1  0  0  0
 79158  1  0  0  0
 79159  1  0  0  0
 80 84  1  0  0  0
 80160  1  0  0  0
 80161  1  0  0  0
 81 82  1  0  0  0
 84162  1  0  0  0
M  CHG  1  84   1
M  ISO  4   1 100  68 101  77 101  83 100
M  END
> <chiral flag>
0

> <version>
0

> <s_m_source_file>
/data/baiqing/PycharmProjects/Reinvent-master-3.2/result/LINK_invent/BTK/process_docking_weight1_custom_sum_contain_oxygen_bond_distance_aromatic_linkinvent_7_9_3/rearranged_h_0055.sdf

> <i_m_source_file_index>
74

> <r_mmod_Potential_Energy-OPLS-2005>
-47.1344032287598

> <r_mmod_Stretch_Energy-OPLS-2005>
52.9045181274414

> <r_mmod_Bend_Energy-OPLS-2005>
110.971809387207

> <r_mmod_Torsional_Energy-OPLS-2005>
322.603729248047

> <r_mmod_Improper_Torsional_Energy-OPLS-2005>
4.18377304077148

> <r_mmod_Van_der_Waal_Energy-OPLS-2005>
118.855895996094

> <r_mmod_Electrostatic_Energy-OPLS-2005>
-200.745574951172

> <r_mmod_Solvation_Energy-OPLS-2005>
-475.085296630859

> <b_mmod_Minimization_Converged-OPLS-2005>
0

> <r_mmod_RMS_Derivative-OPLS-2005>
1.92948222160339

$$$$
74
                    3D
 Structure written by MMmdl.
159167  0  0  1  0            999 V2000
  -30.6667  -14.5097   20.5461 C   0  0  0  0  0  0
  -30.4317  -12.3298   19.4144 C   0  0  0  0  0  0
  -29.4958  -12.5098   18.2011 C   0  0  0  0  0  0
  -28.0153  -12.3620   18.6112 C   0  0  0  0  0  0
  -27.6555  -13.2036   19.8638 C   0  0  2  0  0  0
  -28.7007  -12.9938   20.9824 C   0  0  0  0  0  0
  -25.2568  -13.8162   20.5655 C   0  0  0  0  0  0
  -24.1813  -13.0456   20.9181 C   0  0  0  0  0  0
  -24.6358  -11.6920   20.8731 C   0  0  0  0  0  0
  -23.9019  -10.4312   21.0412 C   0  0  0  0  0  0
  -24.3588   -9.4224   21.9180 C   0  0  0  0  0  0
  -23.6287   -8.2246   22.0748 C   0  0  0  0  0  0
  -22.4265   -8.0279   21.3549 C   0  0  0  0  0  0
  -21.9885   -9.0245   20.4650 C   0  0  0  0  0  0
  -22.7199  -10.2132   20.3062 C   0  0  0  0  0  0
  -21.6847   -6.0726   22.5276 C   0  0  0  0  0  0
  -21.4007   -6.5631   23.8208 C   0  0  0  0  0  0
  -21.3674   -5.6780   24.9169 C   0  0  0  0  0  0
  -21.6042   -4.3041   24.7220 C   0  0  0  0  0  0
  -21.8821   -3.8139   23.4341 C   0  0  0  0  0  0
  -21.9195   -4.6954   22.3396 C   0  0  0  0  0  0
  -22.7838  -13.5266   21.1843 C   0  0  0  0  0  0
  -22.1658   -4.2143   21.0974 F   0  0  0  0  0  0
  -21.5646   -3.4525   25.7734 F   0  0  0  0  0  0
  -30.0257  -13.3158   20.4249 N   0  0  0  0  0  0
  -26.2977  -12.9312   20.3293 N   0  0  0  0  0  0
  -25.9271  -11.6485   20.5720 N   0  0  0  0  0  0
  -22.0446  -12.8281   22.0394 N   0  0  0  0  0  0
  -25.4326  -15.1883   20.4049 N   0  0  0  0  0  0
  -31.8348  -14.6773   20.1917 O   0  0  0  0  0  0
  -21.6638   -6.8874   21.4244 O   0  0  0  0  0  0
  -22.3526  -14.5571   20.6679 O   0  0  0  0  0  0
  -24.6217  -31.8671   23.2073 C   0  0  0  0  0  0
  -25.9112  -32.4810   23.8381 C   0  0  1  0  0  0
  -27.2258  -27.3819   20.0719 C   0  0  0  0  0  0
  -25.5963  -33.8605   24.2326 N   0  0  0  0  0  0
  -23.4111  -30.4955   21.5479 C   0  0  2  0  0  0
  -24.8551  -28.9637   20.1073 C   0  0  0  0  0  0
  -22.7452  -29.4664   22.4921 C   0  0  0  0  0  0
  -18.0272  -28.1385   22.8495 C   0  0  0  0  0  0
  -24.1482  -36.7314   23.2627 C   0  0  0  0  0  0
  -25.9494  -30.8111   21.3742 C   0  0  0  0  0  0
  -26.0225  -29.4441   20.7132 C   0  0  0  0  0  0
  -27.2085  -28.6607   20.6971 C   0  0  0  0  0  0
  -26.0308  -26.9511   19.4417 C   0  0  0  0  0  0
  -24.8569  -27.7184   19.4683 C   0  0  0  0  0  0
  -23.6242  -29.8389   20.1586 C   0  0  0  0  0  0
  -25.4095  -36.3102   24.0344 C   0  0  1  0  0  0
  -20.5880  -28.3701   23.1282 C   0  0  2  0  0  0
  -20.6764  -26.9438   22.5392 C   0  0  0  0  0  0
  -19.5735  -26.6400   21.5205 C   0  0  0  0  0  0
  -18.1920  -26.7931   22.1639 C   0  0  0  0  0  0
  -19.1528  -28.8861   23.2890 C   0  0  0  0  0  0
  -18.9455  -30.1464   23.8890 C   0  0  0  0  0  0
  -17.6456  -30.6593   24.0586 C   0  0  0  0  0  0
  -25.9045  -34.9466   23.5126 C   0  0  0  0  0  0
  -16.5353  -29.9097   23.6322 C   0  0  0  0  0  0
  -16.7266  -28.6528   23.0334 C   0  0  0  0  0  0
  -26.4493  -31.6589   25.0723 C   0  0  0  0  0  0
  -25.3751  -31.3732   26.1468 C   0  0  0  0  0  0
  -27.0313  -30.3004   24.6160 C   0  0  0  0  0  0
  -27.6059  -32.4292   25.7507 C   0  0  0  0  0  0
  -27.5590  -37.1789   24.8449 C   0  0  0  0  0  0
  -21.4175  -29.3076   22.3686 N   0  0  0  0  0  0
  -26.4273  -37.3806   23.9438 N   0  0  0  0  0  0
  -24.6788  -31.0722   22.1008 N   0  0  0  0  0  0
  -23.4225  -28.8203   23.2975 O   0  0  0  0  0  0
  -28.3702  -26.5789   20.0903 O   0  0  0  0  0  0
  -26.5585  -34.8925   22.4667 O   0  0  0  0  0  0
  -23.5389  -32.1453   23.7426 O   0  0  0  0  0  0
  -29.7277  -20.2825   19.2548 C   0  0  0  0  0  0
  -30.2254  -20.0067   21.3349 C   0  0  0  0  0  0
  -29.4949  -21.4700   19.9283 C   0  0  0  0  0  0
  -29.9741  -17.3984   18.6157 C   0  0  0  0  0  0
  -32.1083  -17.9188   19.8580 C   0  0  0  0  0  0
  -28.8189  -22.7309   19.4099 C   0  0  0  0  0  0
  -29.2565  -24.1176   19.9935 C   0  0  0  0  0  0
  -30.0987  -16.9803   21.1372 C   0  0  0  0  0  0
  -28.2050  -25.2071   19.6294 C   0  0  0  0  0  0
  -30.5696  -17.9062   19.9482 C   0  0  0  0  0  0
  -29.8072  -21.2736   21.2709 N   0  0  0  0  0  0
  -30.1604  -19.3197   20.1815 N   0  0  0  0  0  0
  -29.8624  -15.5307   20.9056 N   0  0  0  0  0  0
  -31.4733  -12.4517   19.1092 H   0  0  0  0  0  0
  -30.3536  -11.3189   19.8184 H   0  0  0  0  0  0
  -29.7435  -11.7868   17.4241 H   0  0  0  0  0  0
  -29.6544  -13.4946   17.7588 H   0  0  0  0  0  0
  -27.8277  -11.3071   18.8067 H   0  0  0  0  0  0
  -27.3672  -12.6324   17.7763 H   0  0  0  0  0  0
  -27.6932  -14.2474   19.5551 H   0  0  0  0  0  0
  -28.6841  -11.9584   21.3282 H   0  0  0  0  0  0
  -28.4618  -13.5973   21.8594 H   0  0  0  0  0  0
  -25.2737   -9.5705   22.4742 H   0  0  0  0  0  0
  -24.0007   -7.4636   22.7453 H   0  0  0  0  0  0
  -21.0831   -8.8764   19.8943 H   0  0  0  0  0  0
  -22.3676  -10.9667   19.6161 H   0  0  0  0  0  0
  -21.1983   -7.6136   23.9718 H   0  0  0  0  0  0
  -21.1497   -6.0500   25.9074 H   0  0  0  0  0  0
  -22.0592   -2.7606   23.2834 H   0  0  0  0  0  0
  -22.4035  -11.9970   22.4851 H   0  0  0  0  0  0
  -21.1064  -13.1339   22.2565 H   0  0  0  0  0  0
  -24.6701  -15.8503   20.5030 H   0  0  0  0  0  0
  -26.2821  -15.6167   20.0599 H   0  0  0  0  0  0
  -26.7202  -32.5528   23.1155 H   0  0  0  0  0  0
  -25.0140  -33.9728   25.0496 H   0  0  0  0  0  0
  -22.7026  -31.3149   21.4107 H   0  0  0  0  0  0
  -23.3739  -35.9648   23.3242 H   0  0  0  0  0  0
  -24.3578  -36.8946   22.2042 H   0  0  0  0  0  0
  -23.7211  -37.6511   23.6646 H   0  0  0  0  0  0
  -26.0722  -31.5767   20.6065 H   0  0  0  0  0  0
  -26.8328  -30.8574   21.9993 H   0  0  0  0  0  0
  -28.1080  -29.0235   21.1742 H   0  0  0  0  0  0
  -25.9596  -26.0146   18.9085 H   0  0  0  0  0  0
  -23.9648  -27.3481   18.9841 H   0  0  0  0  0  0
  -23.7458  -30.6186   19.4065 H   0  0  0  0  0  0
  -22.7461  -29.2699   19.8522 H   0  0  0  0  0  0
  -25.1235  -36.1950   25.0835 H   0  0  0  0  0  0
  -20.9980  -28.3265   24.1402 H   0  0  0  0  0  0
  -20.5657  -26.2317   23.3584 H   0  0  0  0  0  0
  -21.6629  -26.7457   22.1202 H   0  0  0  0  0  0
  -19.6889  -25.6305   21.1233 H   0  0  0  0  0  0
  -19.6648  -27.3199   20.6730 H   0  0  0  0  0  0
  -17.4180  -26.6670   21.4057 H   0  0  0  0  0  0
  -18.0357  -26.0057   22.9038 H   0  0  0  0  0  0
  -19.7926  -30.7307   24.2242 H   0  0  0  0  0  0
  -17.5002  -31.6256   24.5219 H   0  0  0  0  0  0
  -15.5349  -30.3016   23.7625 H   0  0  0  0  0  0
  -15.8672  -28.0868   22.7013 H   0  0  0  0  0  0
  -24.5955  -30.7021   25.7831 H   0  0  0  0  0  0
  -24.8922  -32.2908   26.4852 H   0  0  0  0  0  0
  -25.8112  -30.8982   27.0269 H   0  0  0  0  0  0
  -26.2878  -29.6768   24.1182 H   0  0  0  0  0  0
  -27.3989  -29.7225   25.4647 H   0  0  0  0  0  0
  -27.8761  -30.4230   23.9371 H   0  0  0  0  0  0
  -27.2684  -33.3589   26.2082 H   0  0  0  0  0  0
  -28.3905  -32.6830   25.0375 H   0  0  0  0  0  0
  -28.0701  -31.8420   26.5436 H   0  0  0  0  0  0
  -28.2539  -38.0158   24.7591 H   0  0  0  0  0  0
  -28.1149  -36.2684   24.6132 H   0  0  0  0  0  0
  -27.2333  -37.1270   25.8858 H   0  0  0  0  0  0
  -20.9320  -29.8875   21.6975 H   0  0  0  0  0  0
  -26.0146  -38.2872   24.1490 H   0  0  0  0  0  0
  -29.5695  -20.0481   18.2114 H   0  0  0  0  0  0
  -30.5766  -19.5622   22.2541 H   0  0  0  0  0  0
  -30.2877  -16.3812   18.3873 H   0  0  0  0  0  0
  -30.3020  -18.0000   17.7692 H   0  0  0  0  0  0
  -28.8843  -17.4114   18.6417 H   0  0  0  0  0  0
  -32.5307  -16.9356   19.6730 H   0  0  0  0  0  0
  -32.5472  -18.2949   20.7825 H   0  0  0  0  0  0
  -32.4580  -18.5620   19.0502 H   0  0  0  0  0  0
  -27.7441  -22.6115   19.5555 H   0  0  0  0  0  0
  -28.9414  -22.7760   18.3259 H   0  0  0  0  0  0
  -30.2502  -24.3847   19.6320 H   0  0  0  0  0  0
  -29.3197  -24.0512   21.0789 H   0  0  0  0  0  0
  -29.1188  -17.3469   21.4496 H   0  0  0  0  0  0
  -30.7367  -17.1012   22.0129 H   0  0  0  0  0  0
  -27.2766  -24.8147   20.0446 H   0  0  0  0  0  0
  -28.0938  -25.2266   18.5434 H   0  0  0  0  0  0
  -28.9223  -15.2261   21.1063 H   0  0  0  0  0  0
  1 25  1  0  0  0
  1 30  2  0  0  0
  1 83  1  0  0  0
  2  3  1  0  0  0
  2 25  1  0  0  0
  2 84  1  0  0  0
  2 85  1  0  0  0
  3  4  1  0  0  0
  3 86  1  0  0  0
  3 87  1  0  0  0
  4  5  1  0  0  0
  4 88  1  0  0  0
  4 89  1  0  0  0
  5  6  1  0  0  0
  5 26  1  0  0  0
  5 90  1  0  0  0
  6 25  1  0  0  0
  6 91  1  0  0  0
  6 92  1  0  0  0
  7  8  2  0  0  0
  7 26  1  0  0  0
  7 29  1  0  0  0
  8  9  1  0  0  0
  8 22  1  0  0  0
  9 10  1  0  0  0
  9 27  2  0  0  0
 10 11  2  0  0  0
 10 15  1  0  0  0
 11 12  1  0  0  0
 11 93  1  0  0  0
 12 13  2  0  0  0
 12 94  1  0  0  0
 13 14  1  0  0  0
 13 31  1  0  0  0
 14 15  2  0  0  0
 14 95  1  0  0  0
 15 96  1  0  0  0
 16 17  2  0  0  0
 16 21  1  0  0  0
 16 31  1  0  0  0
 17 18  1  0  0  0
 17 97  1  0  0  0
 18 19  2  0  0  0
 18 98  1  0  0  0
 19 20  1  0  0  0
 19 24  1  0  0  0
 20 21  2  0  0  0
 20 99  1  0  0  0
 21 23  1  0  0  0
 22 28  1  0  0  0
 22 32  2  0  0  0
 26 27  1  0  0  0
 28100  1  0  0  0
 28101  1  0  0  0
 29102  1  0  0  0
 29103  1  0  0  0
 33 34  1  0  0  0
 33 66  1  0  0  0
 33 70  2  0  0  0
 34 36  1  0  0  0
 34 59  1  0  0  0
 34104  1  0  0  0
 35 44  2  0  0  0
 35 45  1  0  0  0
 35 68  1  0  0  0
 36 56  1  0  0  0
 36105  1  0  0  0
 37 39  1  0  0  0
 37 47  1  0  0  0
 37 66  1  0  0  0
 37106  1  0  0  0
 38 43  2  0  0  0
 38 46  1  0  0  0
 38 47  1  0  0  0
 39 64  1  0  0  0
 39 67  2  0  0  0
 40 52  1  0  0  0
 40 53  2  0  0  0
 40 58  1  0  0  0
 41107  1  0  0  0
 41108  1  0  0  0
 41109  1  0  0  0
 41 48  1  0  0  0
 42 43  1  0  0  0
 42 66  1  0  0  0
 42110  1  0  0  0
 42111  1  0  0  0
 43 44  1  0  0  0
 44112  1  0  0  0
 45 46  2  0  0  0
 45113  1  0  0  0
 46114  1  0  0  0
 47115  1  0  0  0
 47116  1  0  0  0
 48 56  1  0  0  0
 48 65  1  0  0  0
 48117  1  0  0  0
 49 50  1  0  0  0
 49 53  1  0  0  0
 49 64  1  0  0  0
 49118  1  0  0  0
 50 51  1  0  0  0
 50119  1  0  0  0
 50120  1  0  0  0
 51 52  1  0  0  0
 51121  1  0  0  0
 51122  1  0  0  0
 52123  1  0  0  0
 52124  1  0  0  0
 53 54  1  0  0  0
 54 55  2  0  0  0
 54125  1  0  0  0
 55 57  1  0  0  0
 55126  1  0  0  0
 56 69  2  0  0  0
 57 58  2  0  0  0
 57127  1  0  0  0
 58128  1  0  0  0
 59 60  1  0  0  0
 59 61  1  0  0  0
 59 62  1  0  0  0
 60129  1  0  0  0
 60130  1  0  0  0
 60131  1  0  0  0
 61132  1  0  0  0
 61133  1  0  0  0
 61134  1  0  0  0
 62135  1  0  0  0
 62136  1  0  0  0
 62137  1  0  0  0
 63 65  1  0  0  0
 63138  1  0  0  0
 63139  1  0  0  0
 63140  1  0  0  0
 64141  1  0  0  0
 65142  1  0  0  0
 68 79  1  0  0  0
 71 73  2  0  0  0
 71 82  1  0  0  0
 71143  1  0  0  0
 72 81  2  0  0  0
 72 82  1  0  0  0
 72144  1  0  0  0
 73 76  1  0  0  0
 73 81  1  0  0  0
 74145  1  0  0  0
 74146  1  0  0  0
 74147  1  0  0  0
 74 80  1  0  0  0
 75 80  1  0  0  0
 75148  1  0  0  0
 75149  1  0  0  0
 75150  1  0  0  0
 76 77  1  0  0  0
 76151  1  0  0  0
 76152  1  0  0  0
 77 79  1  0  0  0
 77153  1  0  0  0
 77154  1  0  0  0
 78 80  1  0  0  0
 78 83  1  0  0  0
 78155  1  0  0  0
 78156  1  0  0  0
 79157  1  0  0  0
 79158  1  0  0  0
 80 82  1  0  0  0
 83159  1  0  0  0
M  ISO  4   1 100  68 101  79 101  83 100
M  END
> <chiral flag>
0

> <version>
0

> <s_m_source_file>
/data/baiqing/PycharmProjects/Reinvent-master-3.2/result/LINK_invent/BTK/process_docking_weight1_custom_sum_contain_oxygen_bond_distance_aromatic_linkinvent_7_9_3/rearranged_h_0055.sdf

> <i_m_source_file_index>
75

> <r_mmod_Potential_Energy-OPLS-2005>
-73.6084747314453

> <r_mmod_Stretch_Energy-OPLS-2005>
49.7429466247559

> <r_mmod_Bend_Energy-OPLS-2005>
135.790588378906

> <r_mmod_Torsional_Energy-OPLS-2005>
243.031631469727

> <r_mmod_Improper_Torsional_Energy-OPLS-2005>
5.22686290740967

> <r_mmod_Van_der_Waal_Energy-OPLS-2005>
139.842514038086

> <r_mmod_Electrostatic_Energy-OPLS-2005>
-446.025634765625

> <r_mmod_Solvation_Energy-OPLS-2005>
-225.189147949219

> <b_mmod_Minimization_Converged-OPLS-2005>
0

> <r_mmod_RMS_Derivative-OPLS-2005>
3.52783513069153

$$$$
75
                    3D
 Structure written by MMmdl.
145153  0  0  1  0            999 V2000
  -30.2377  -15.7084   20.3316 C   0  0  0  0  0  0
  -30.4327  -13.1207   19.5617 C   0  0  0  0  0  0
  -29.5645  -12.6870   18.3404 C   0  0  0  0  0  0
  -28.1367  -12.3138   18.7690 C   0  0  0  0  0  0
  -27.5981  -13.3168   19.8117 C   0  0  2  0  0  0
  -28.6057  -13.6552   20.9346 C   0  0  0  0  0  0
  -25.2333  -13.8301   20.5786 C   0  0  0  0  0  0
  -24.1726  -13.0437   20.9269 C   0  0  0  0  0  0
  -24.6434  -11.6953   20.8734 C   0  0  0  0  0  0
  -23.9132  -10.4299   21.0383 C   0  0  0  0  0  0
  -24.3665   -9.4212   21.9172 C   0  0  0  0  0  0
  -23.6322   -8.2252   22.0751 C   0  0  0  0  0  0
  -22.4299   -8.0291   21.3548 C   0  0  0  0  0  0
  -21.9949   -9.0264   20.4643 C   0  0  0  0  0  0
  -22.7293  -10.2135   20.3043 C   0  0  0  0  0  0
  -21.6863   -6.0743   22.5280 C   0  0  0  0  0  0
  -21.4026   -6.5646   23.8215 C   0  0  0  0  0  0
  -21.3664   -5.6794   24.9175 C   0  0  0  0  0  0
  -21.6046   -4.3055   24.7222 C   0  0  0  0  0  0
  -21.8821   -3.8151   23.4343 C   0  0  0  0  0  0
  -21.9197   -4.6970   22.3400 C   0  0  0  0  0  0
  -22.7736  -13.5158   21.1918 C   0  0  0  0  0  0
  -22.1659   -4.2159   21.0979 F   0  0  0  0  0  0
  -21.5625   -3.4535   25.7734 F   0  0  0  0  0  0
  -29.7891  -14.3005   20.3104 N   0  0  0  0  0  0
  -26.2787  -12.9647   20.3194 N   0  0  0  0  0  0
  -25.9383  -11.6707   20.5651 N   0  0  0  0  0  0
  -22.0404  -12.8135   22.0476 N   0  0  0  0  0  0
  -25.3926  -15.2049   20.4284 N   0  0  0  0  0  0
  -31.4622  -15.6676   20.0880 O   0  0  0  0  0  0
  -21.6654   -6.8894   21.4244 O   0  0  0  0  0  0
  -22.3405  -14.5454   20.6756 O   0  0  0  0  0  0
  -24.6899  -31.7929   23.1464 C   0  0  0  0  0  0
  -25.9449  -32.4431   23.8034 C   0  0  1  0  0  0
  -27.2311  -26.6429   20.2185 C   0  0  0  0  0  0
  -25.6003  -33.8260   24.1917 N   0  0  0  0  0  0
  -23.5192  -30.3918   21.5015 C   0  0  2  0  0  0
  -24.9784  -28.7211   20.1197 C   0  0  0  0  0  0
  -22.7797  -29.4273   22.4687 C   0  0  0  0  0  0
  -18.0347  -28.1422   22.8449 C   0  0  0  0  0  0
  -24.1499  -36.7141   23.2654 C   0  0  0  0  0  0
  -26.1026  -30.5071   21.4180 C   0  0  0  0  0  0
  -26.1695  -29.0651   20.7698 C   0  0  0  0  0  0
  -27.2790  -28.0565   20.7834 C   0  0  0  0  0  0
  -26.0055  -26.5253   19.5093 C   0  0  0  0  0  0
  -24.9389  -27.4781   19.4651 C   0  0  0  0  0  0
  -23.7772  -29.6837   20.1398 C   0  0  0  0  0  0
  -25.4153  -36.2874   24.0273 C   0  0  1  0  0  0
  -20.5982  -28.3791   23.1132 C   0  0  2  0  0  0
  -20.6810  -26.9442   22.5410 C   0  0  0  0  0  0
  -19.5789  -26.6365   21.5220 C   0  0  0  0  0  0
  -18.1969  -26.7946   22.1619 C   0  0  0  0  0  0
  -19.1611  -28.8933   23.2767 C   0  0  0  0  0  0
  -18.9514  -30.1510   23.8821 C   0  0  0  0  0  0
  -17.6503  -30.6603   24.0546 C   0  0  0  0  0  0
  -25.9133  -34.9265   23.4937 C   0  0  0  0  0  0
  -16.5393  -29.9084   23.6346 C   0  0  0  0  0  0
  -16.7324  -28.6506   23.0365 C   0  0  0  0  0  0
  -26.4610  -31.6487   25.0680 C   0  0  0  0  0  0
  -25.3659  -31.3816   26.1282 C   0  0  0  0  0  0
  -27.0543  -30.2821   24.6606 C   0  0  0  0  0  0
  -27.6049  -32.4355   25.7501 C   0  0  0  0  0  0
  -27.5557  -37.1732   24.8468 C   0  0  0  0  0  0
  -21.4436  -29.3024   22.3443 N   0  0  0  0  0  0
  -26.4274  -37.3640   23.9397 N   0  0  0  0  0  0
  -24.7947  -30.9314   22.0747 N   0  0  0  0  0  0
  -23.4212  -28.7872   23.3049 O   0  0  0  0  0  0
  -28.1810  -25.3906   20.2880 O   0  0  0  0  0  0
  -26.5775  -34.8854   22.4556 O   0  0  0  0  0  0
  -23.5905  -32.1023   23.6388 O   0  0  0  0  0  0
  -30.1400  -21.4199   20.3537 C   0  0  0  0  0  0
  -28.3815  -20.4186   20.2778 C   0  0  0  0  0  0
  -28.7572  -21.8910   20.2706 C   0  0  0  0  0  0
  -29.0197  -17.3151   22.1141 C   0  0  0  0  0  0
  -27.9038  -23.6295   20.1717 C   0  0  0  0  0  0
  -29.3357  -17.3729   20.6091 C   0  0  2  0  0  0
  -30.4488  -20.0440   20.4186 N   0  0  0  0  0  0
  -29.3590  -19.1869   20.3347 N   0  0  0  0  0  0
  -31.4255  -13.3902   19.2012 H   0  0  0  0  0  0
  -30.5987  -12.2759   20.2324 H   0  0  0  0  0  0
  -30.0317  -11.8530   17.8159 H   0  0  0  0  0  0
  -29.5215  -13.5125   17.6281 H   0  0  0  0  0  0
  -28.1657  -11.3144   19.2048 H   0  0  0  0  0  0
  -27.4753  -12.2572   17.9035 H   0  0  0  0  0  0
  -27.4585  -14.2390   19.2452 H   0  0  0  0  0  0
  -28.8666  -12.7738   21.5226 H   0  0  0  0  0  0
  -28.1498  -14.3577   21.6320 H   0  0  0  0  0  0
  -25.2805   -9.5685   22.4759 H   0  0  0  0  0  0
  -24.0026   -7.4648   22.7481 H   0  0  0  0  0  0
  -21.0875   -8.8797   19.8950 H   0  0  0  0  0  0
  -22.3753  -10.9677   19.6154 H   0  0  0  0  0  0
  -21.2022   -7.6154   23.9722 H   0  0  0  0  0  0
  -21.1482   -6.0522   25.9080 H   0  0  0  0  0  0
  -22.0594   -2.7614   23.2840 H   0  0  0  0  0  0
  -22.4046  -11.9816   22.4881 H   0  0  0  0  0  0
  -21.1010  -13.1137   22.2668 H   0  0  0  0  0  0
  -24.6219  -15.8529   20.5513 H   0  0  0  0  0  0
  -26.2382  -15.6536   20.1027 H   0  0  0  0  0  0
  -26.7532  -32.4889   23.0740 H   0  0  0  0  0  0
  -25.0057  -33.9286   25.0010 H   0  0  0  0  0  0
  -22.8477  -31.2306   21.3061 H   0  0  0  0  0  0
  -23.3767  -35.9465   23.3280 H   0  0  0  0  0  0
  -24.3560  -36.8842   22.2074 H   0  0  0  0  0  0
  -23.7255  -37.6310   23.6758 H   0  0  0  0  0  0
  -26.3092  -31.2277   20.6255 H   0  0  0  0  0  0
  -26.9522  -30.5806   22.0843 H   0  0  0  0  0  0
  -28.1750  -28.3303   21.3223 H   0  0  0  0  0  0
  -25.8265  -25.5889   19.0007 H   0  0  0  0  0  0
  -24.0414  -27.2066   18.9264 H   0  0  0  0  0  0
  -23.9579  -30.4408   19.3760 H   0  0  0  0  0  0
  -22.8811  -29.1529   19.8140 H   0  0  0  0  0  0
  -25.1365  -36.1628   25.0763 H   0  0  0  0  0  0
  -21.0063  -28.3417   24.1261 H   0  0  0  0  0  0
  -20.5669  -26.2410   23.3675 H   0  0  0  0  0  0
  -21.6668  -26.7371   22.1228 H   0  0  0  0  0  0
  -19.6944  -25.6254   21.1303 H   0  0  0  0  0  0
  -19.6735  -27.3129   20.6710 H   0  0  0  0  0  0
  -17.4238  -26.6684   21.4022 H   0  0  0  0  0  0
  -18.0356  -26.0112   22.9037 H   0  0  0  0  0  0
  -19.7988  -30.7344   24.2161 H   0  0  0  0  0  0
  -17.5052  -31.6275   24.5161 H   0  0  0  0  0  0
  -15.5390  -30.2962   23.7714 H   0  0  0  0  0  0
  -15.8722  -28.0798   22.7126 H   0  0  0  0  0  0
  -24.5882  -30.7127   25.7574 H   0  0  0  0  0  0
  -24.8810  -32.3044   26.4481 H   0  0  0  0  0  0
  -25.7831  -30.9127   27.0204 H   0  0  0  0  0  0
  -26.3270  -29.6424   24.1600 H   0  0  0  0  0  0
  -27.3952  -29.7279   25.5358 H   0  0  0  0  0  0
  -27.9256  -30.3928   24.0150 H   0  0  0  0  0  0
  -27.2590  -33.3735   26.1854 H   0  0  0  0  0  0
  -28.3982  -32.6788   25.0421 H   0  0  0  0  0  0
  -28.0583  -31.8634   26.5603 H   0  0  0  0  0  0
  -28.2553  -38.0043   24.7490 H   0  0  0  0  0  0
  -28.1072  -36.2563   24.6334 H   0  0  0  0  0  0
  -27.2265  -37.1412   25.8869 H   0  0  0  0  0  0
  -20.9756  -29.8676   21.6496 H   0  0  0  0  0  0
  -26.0092  -38.2687   24.1402 H   0  0  0  0  0  0
  -30.9983  -22.0769   20.3890 H   0  0  0  0  0  0
  -27.3465  -20.1057   20.2622 H   0  0  0  0  0  0
  -29.7493  -17.8954   22.6790 H   0  0  0  0  0  0
  -29.0312  -16.3043   22.5200 H   0  0  0  0  0  0
  -28.0350  -17.7344   22.3211 H   0  0  0  0  0  0
  -27.3798  -23.6008   19.2159 H   0  0  0  0  0  0
  -27.0842  -23.5462   20.8858 H   0  0  0  0  0  0
  -28.4090  -17.1017   20.1040 H   0  0  0  0  0  0
  1 25  1  0  0  0
  1 30  2  0  0  0
  1 76  1  0  0  0
  2  3  1  0  0  0
  2 25  1  0  0  0
  2 79  1  0  0  0
  2 80  1  0  0  0
  3  4  1  0  0  0
  3 81  1  0  0  0
  3 82  1  0  0  0
  4  5  1  0  0  0
  4 83  1  0  0  0
  4 84  1  0  0  0
  5  6  1  0  0  0
  5 26  1  0  0  0
  5 85  1  0  0  0
  6 25  1  0  0  0
  6 86  1  0  0  0
  6 87  1  0  0  0
  7  8  2  0  0  0
  7 26  1  0  0  0
  7 29  1  0  0  0
  8  9  1  0  0  0
  8 22  1  0  0  0
  9 10  1  0  0  0
  9 27  2  0  0  0
 10 11  2  0  0  0
 10 15  1  0  0  0
 11 12  1  0  0  0
 11 88  1  0  0  0
 12 13  2  0  0  0
 12 89  1  0  0  0
 13 14  1  0  0  0
 13 31  1  0  0  0
 14 15  2  0  0  0
 14 90  1  0  0  0
 15 91  1  0  0  0
 16 17  2  0  0  0
 16 21  1  0  0  0
 16 31  1  0  0  0
 17 18  1  0  0  0
 17 92  1  0  0  0
 18 19  2  0  0  0
 18 93  1  0  0  0
 19 20  1  0  0  0
 19 24  1  0  0  0
 20 21  2  0  0  0
 20 94  1  0  0  0
 21 23  1  0  0  0
 22 28  1  0  0  0
 22 32  2  0  0  0
 26 27  1  0  0  0
 28 95  1  0  0  0
 28 96  1  0  0  0
 29 97  1  0  0  0
 29 98  1  0  0  0
 33 34  1  0  0  0
 33 66  1  0  0  0
 33 70  2  0  0  0
 34 36  1  0  0  0
 34 59  1  0  0  0
 34 99  1  0  0  0
 35 44  2  0  0  0
 35 45  1  0  0  0
 35 68  1  0  0  0
 36 56  1  0  0  0
 36100  1  0  0  0
 37 39  1  0  0  0
 37 47  1  0  0  0
 37 66  1  0  0  0
 37101  1  0  0  0
 38 43  2  0  0  0
 38 46  1  0  0  0
 38 47  1  0  0  0
 39 64  1  0  0  0
 39 67  2  0  0  0
 40 52  1  0  0  0
 40 53  2  0  0  0
 40 58  1  0  0  0
 41102  1  0  0  0
 41103  1  0  0  0
 41104  1  0  0  0
 41 48  1  0  0  0
 42 43  1  0  0  0
 42 66  1  0  0  0
 42105  1  0  0  0
 42106  1  0  0  0
 43 44  1  0  0  0
 44107  1  0  0  0
 45 46  2  0  0  0
 45108  1  0  0  0
 46109  1  0  0  0
 47110  1  0  0  0
 47111  1  0  0  0
 48 56  1  0  0  0
 48 65  1  0  0  0
 48112  1  0  0  0
 49 50  1  0  0  0
 49 53  1  0  0  0
 49 64  1  0  0  0
 49113  1  0  0  0
 50 51  1  0  0  0
 50114  1  0  0  0
 50115  1  0  0  0
 51 52  1  0  0  0
 51116  1  0  0  0
 51117  1  0  0  0
 52118  1  0  0  0
 52119  1  0  0  0
 53 54  1  0  0  0
 54 55  2  0  0  0
 54120  1  0  0  0
 55 57  1  0  0  0
 55121  1  0  0  0
 56 69  2  0  0  0
 57 58  2  0  0  0
 57122  1  0  0  0
 58123  1  0  0  0
 59 60  1  0  0  0
 59 61  1  0  0  0
 59 62  1  0  0  0
 60124  1  0  0  0
 60125  1  0  0  0
 60126  1  0  0  0
 61127  1  0  0  0
 61128  1  0  0  0
 61129  1  0  0  0
 62130  1  0  0  0
 62131  1  0  0  0
 62132  1  0  0  0
 63 65  1  0  0  0
 63133  1  0  0  0
 63134  1  0  0  0
 63135  1  0  0  0
 64136  1  0  0  0
 65137  1  0  0  0
 68 75  1  0  0  0
 71 73  1  0  0  0
 71 77  2  0  0  0
 71138  1  0  0  0
 72 73  2  0  0  0
 72 78  1  0  0  0
 72139  1  0  0  0
 73 75  1  0  0  0
 74140  1  0  0  0
 74141  1  0  0  0
 74142  1  0  0  0
 74 76  1  0  0  0
 75143  1  0  0  0
 75144  1  0  0  0
 76 78  1  0  0  0
 76145  1  0  0  0
 77 78  1  0  0  0
M  ISO  4   1 100  68 101  75 101  76 100
M  END
> <chiral flag>
0

> <version>
0

> <s_m_source_file>
/data/baiqing/PycharmProjects/Reinvent-master-3.2/result/LINK_invent/BTK/process_docking_weight1_custom_sum_contain_oxygen_bond_distance_aromatic_linkinvent_7_9_3/rearranged_h_0055.sdf

> <i_m_source_file_index>
76

> <r_mmod_Potential_Energy-OPLS-2005>
2768.26025390625

> <r_mmod_Stretch_Energy-OPLS-2005>
1203.76440429688

> <r_mmod_Bend_Energy-OPLS-2005>
712.644226074219

> <r_mmod_Torsional_Energy-OPLS-2005>
217.603393554688

> <r_mmod_Improper_Torsional_Energy-OPLS-2005>
2.79831981658936

> <r_mmod_Van_der_Waal_Energy-OPLS-2005>
105.59595489502

> <r_mmod_Electrostatic_Energy-OPLS-2005>
-267.602233886719

> <r_mmod_Solvation_Energy-OPLS-2005>
-226.62483215332

> <b_mmod_Minimization_Converged-OPLS-2005>
0

> <r_mmod_RMS_Derivative-OPLS-2005>
0.947213351726532

$$$$
77
                    3D
 Structure written by MMmdl.
159167  0  0  1  0            999 V2000
  -30.5348  -15.0485   20.3749 C   0  0  0  0  0  0
  -30.4395  -12.6588   19.4811 C   0  0  0  0  0  0
  -29.5216  -12.5316   18.2438 C   0  0  0  0  0  0
  -28.0569  -12.3029   18.6671 C   0  0  0  0  0  0
  -27.6154  -13.2457   19.8188 C   0  0  2  0  0  0
  -28.6662  -13.3503   20.9433 C   0  0  0  0  0  0
  -25.2453  -13.8169   20.5753 C   0  0  0  0  0  0
  -24.1755  -13.0389   20.9243 C   0  0  0  0  0  0
  -24.6382  -11.6881   20.8747 C   0  0  0  0  0  0
  -23.9070  -10.4252   21.0404 C   0  0  0  0  0  0
  -24.3617   -9.4160   21.9178 C   0  0  0  0  0  0
  -23.6279   -8.2198   22.0743 C   0  0  0  0  0  0
  -22.4257   -8.0248   21.3540 C   0  0  0  0  0  0
  -21.9909   -9.0213   20.4628 C   0  0  0  0  0  0
  -22.7244  -10.2089   20.3040 C   0  0  0  0  0  0
  -21.6842   -6.0711   22.5281 C   0  0  0  0  0  0
  -21.4011   -6.5622   23.8214 C   0  0  0  0  0  0
  -21.3678   -5.6780   24.9183 C   0  0  0  0  0  0
  -21.6059   -4.3042   24.7233 C   0  0  0  0  0  0
  -21.8815   -3.8125   23.4355 C   0  0  0  0  0  0
  -21.9183   -4.6939   22.3408 C   0  0  0  0  0  0
  -22.7789  -13.5180   21.1886 C   0  0  0  0  0  0
  -22.1651   -4.2127   21.0983 F   0  0  0  0  0  0
  -21.5639   -3.4522   25.7752 F   0  0  0  0  0  0
  -29.9219  -13.7860   20.3129 N   0  0  0  0  0  0
  -26.2847  -12.9376   20.3219 N   0  0  0  0  0  0
  -25.9307  -11.6516   20.5704 N   0  0  0  0  0  0
  -22.0451  -12.8170   22.0465 N   0  0  0  0  0  0
  -25.4154  -15.1887   20.4240 N   0  0  0  0  0  0
  -31.7696  -15.0501   20.3027 O   0  0  0  0  0  0
  -21.6622   -6.8842   21.4236 O   0  0  0  0  0  0
  -22.3471  -14.5478   20.6725 O   0  0  0  0  0  0
  -24.6507  -31.8370   23.1849 C   0  0  0  0  0  0
  -25.9250  -32.4648   23.8286 C   0  0  1  0  0  0
  -27.2345  -27.0988   20.1652 C   0  0  0  0  0  0
  -25.6001  -33.8465   24.2188 N   0  0  0  0  0  0
  -23.4598  -30.4552   21.5245 C   0  0  2  0  0  0
  -24.9168  -28.8729   20.1065 C   0  0  0  0  0  0
  -22.7613  -29.4519   22.4780 C   0  0  0  0  0  0
  -18.0328  -28.1463   22.8428 C   0  0  0  0  0  0
  -24.1507  -36.7259   23.2638 C   0  0  0  0  0  0
  -26.0173  -30.7025   21.3880 C   0  0  0  0  0  0
  -26.0919  -29.3086   20.7314 C   0  0  0  0  0  0
  -27.2506  -28.4399   20.7368 C   0  0  0  0  0  0
  -26.0322  -26.7711   19.4993 C   0  0  0  0  0  0
  -24.9054  -27.6233   19.4672 C   0  0  0  0  0  0
  -23.6960  -29.7812   20.1439 C   0  0  0  0  0  0
  -25.4134  -36.2992   24.0305 C   0  0  1  0  0  0
  -20.5939  -28.3797   23.1200 C   0  0  2  0  0  0
  -20.6812  -26.9494   22.5387 C   0  0  0  0  0  0
  -19.5794  -26.6417   21.5200 C   0  0  0  0  0  0
  -18.1974  -26.7993   22.1600 C   0  0  0  0  0  0
  -19.1582  -28.8944   23.2815 C   0  0  0  0  0  0
  -18.9491  -30.1527   23.8858 C   0  0  0  0  0  0
  -17.6482  -30.6627   24.0580 C   0  0  0  0  0  0
  -25.9081  -34.9369   23.5037 C   0  0  0  0  0  0
  -16.5378  -29.9123   23.6338 C   0  0  0  0  0  0
  -16.7309  -28.6568   23.0312 C   0  0  0  0  0  0
  -26.4566  -31.6558   25.0756 C   0  0  0  0  0  0
  -25.3752  -31.3748   26.1459 C   0  0  0  0  0  0
  -27.0453  -30.2953   24.6367 C   0  0  0  0  0  0
  -27.6085  -32.4356   25.7537 C   0  0  0  0  0  0
  -27.5563  -37.1808   24.8467 C   0  0  0  0  0  0
  -21.4298  -29.3104   22.3551 N   0  0  0  0  0  0
  -26.4286  -37.3715   23.9390 N   0  0  0  0  0  0
  -24.7290  -31.0201   22.0884 N   0  0  0  0  0  0
  -23.4223  -28.8041   23.2944 O   0  0  0  0  0  0
  -28.2830  -26.1006   20.2632 O   0  0  0  0  0  0
  -26.5624  -34.8848   22.4590 O   0  0  0  0  0  0
  -23.5608  -32.1251   23.7034 O   0  0  0  0  0  0
  -28.9244  -20.9972   19.0079 C   0  0  0  0  0  0
  -29.0629  -21.6359   20.2295 C   0  0  0  0  0  0
  -29.5238  -19.2491   20.3222 C   0  0  0  0  0  0
  -27.3426  -21.2143   17.0512 C   0  0  0  0  0  0
  -29.8278  -20.5648   22.4425 C   0  0  0  0  0  0
  -29.0693  -16.4411   18.9908 C   0  0  0  0  0  0
  -28.6714  -21.6417   17.6769 C   0  0  0  0  0  0
  -29.0423  -23.2646   20.6135 C   0  0  0  0  0  0
  -30.0823  -17.7550   20.8456 C   0  0  0  0  0  0
  -28.0687  -24.5536   20.0490 C   0  0  0  0  0  0
  -29.1791  -19.5956   19.0750 N   0  0  0  0  0  0
  -29.4645  -20.4701   21.0399 N   0  0  0  0  0  0
  -29.7946  -16.2910   20.2546 N   0  0  0  0  0  0
  -31.4670  -12.8384   19.1594 H   0  0  0  0  0  0
  -30.4536  -11.7275   20.0509 H   0  0  0  0  0  0
  -29.8583  -11.7148   17.6055 H   0  0  0  0  0  0
  -29.5948  -13.4347   17.6370 H   0  0  0  0  0  0
  -27.9677  -11.2653   18.9891 H   0  0  0  0  0  0
  -27.3934  -12.4109   17.8076 H   0  0  0  0  0  0
  -27.5323  -14.2265   19.3630 H   0  0  0  0  0  0
  -28.7855  -12.3980   21.4613 H   0  0  0  0  0  0
  -28.3463  -14.0792   21.6900 H   0  0  0  0  0  0
  -25.2767   -9.5616   22.4745 H   0  0  0  0  0  0
  -23.9986   -7.4580   22.7460 H   0  0  0  0  0  0
  -21.0847   -8.8724   19.8921 H   0  0  0  0  0  0
  -22.3715  -10.9617   19.6130 H   0  0  0  0  0  0
  -21.2002   -7.6133   23.9720 H   0  0  0  0  0  0
  -21.1522   -6.0512   25.9096 H   0  0  0  0  0  0
  -22.0582   -2.7586   23.2866 H   0  0  0  0  0  0
  -22.4116  -11.9875   22.4883 H   0  0  0  0  0  0
  -21.1048  -13.1140   22.2634 H   0  0  0  0  0  0
  -24.6541  -15.8480   20.5443 H   0  0  0  0  0  0
  -26.2818  -15.6270   20.1377 H   0  0  0  0  0  0
  -26.7303  -32.5209   23.1010 H   0  0  0  0  0  0
  -25.0255  -33.9610   25.0399 H   0  0  0  0  0  0
  -22.7690  -31.2842   21.3627 H   0  0  0  0  0  0
  -23.3721  -35.9643   23.3321 H   0  0  0  0  0  0
  -24.3564  -36.8877   22.2044 H   0  0  0  0  0  0
  -23.7329  -37.6489   23.6663 H   0  0  0  0  0  0
  -26.1738  -31.4540   20.6128 H   0  0  0  0  0  0
  -26.8858  -30.7588   22.0319 H   0  0  0  0  0  0
  -28.1459  -28.7707   21.2453 H   0  0  0  0  0  0
  -25.9310  -25.8075   19.0223 H   0  0  0  0  0  0
  -24.0152  -27.2927   18.9524 H   0  0  0  0  0  0
  -23.8524  -30.5589   19.3968 H   0  0  0  0  0  0
  -22.8110  -29.2369   19.8078 H   0  0  0  0  0  0
  -25.1326  -36.1811   25.0795 H   0  0  0  0  0  0
  -21.0046  -28.3404   24.1319 H   0  0  0  0  0  0
  -20.5750  -26.2413   23.3622 H   0  0  0  0  0  0
  -21.6675  -26.7520   22.1171 H   0  0  0  0  0  0
  -19.6977  -25.6308   21.1284 H   0  0  0  0  0  0
  -19.6745  -27.3171   20.6688 H   0  0  0  0  0  0
  -17.4249  -26.6729   21.3997 H   0  0  0  0  0  0
  -18.0387  -26.0169   22.9035 H   0  0  0  0  0  0
  -19.7960  -30.7366   24.2214 H   0  0  0  0  0  0
  -17.5029  -31.6276   24.5244 H   0  0  0  0  0  0
  -15.5379  -30.3019   23.7696 H   0  0  0  0  0  0
  -15.8711  -28.0894   22.7017 H   0  0  0  0  0  0
  -24.5917  -30.7114   25.7778 H   0  0  0  0  0  0
  -24.8965  -32.2933   26.4867 H   0  0  0  0  0  0
  -25.8052  -30.8926   27.0251 H   0  0  0  0  0  0
  -26.3084  -29.6665   24.1363 H   0  0  0  0  0  0
  -27.4048  -29.7263   25.4954 H   0  0  0  0  0  0
  -27.8991  -30.4190   23.9704 H   0  0  0  0  0  0
  -27.2663  -33.3672   26.2061 H   0  0  0  0  0  0
  -28.3926  -32.6926   25.0397 H   0  0  0  0  0  0
  -28.0736  -31.8542   26.5515 H   0  0  0  0  0  0
  -28.2600  -38.0076   24.7404 H   0  0  0  0  0  0
  -28.1042  -36.2599   24.6425 H   0  0  0  0  0  0
  -27.2269  -37.1605   25.8868 H   0  0  0  0  0  0
  -20.9562  -29.8843   21.6709 H   0  0  0  0  0  0
  -26.0141  -38.2782   24.1341 H   0  0  0  0  0  0
  -27.2043  -21.6764   16.0741 H   0  0  0  0  0  0
  -26.5052  -21.5052   17.6849 H   0  0  0  0  0  0
  -27.3075  -20.1346   16.9090 H   0  0  0  0  0  0
  -29.2295  -19.8748   23.0384 H   0  0  0  0  0  0
  -29.6549  -21.5678   22.8245 H   0  0  0  0  0  0
  -30.8854  -20.3315   22.5654 H   0  0  0  0  0  0
  -28.0729  -16.8525   19.1538 H   0  0  0  0  0  0
  -28.9682  -15.5194   18.4211 H   0  0  0  0  0  0
  -29.6160  -17.1210   18.3357 H   0  0  0  0  0  0
  -29.4899  -21.4161   16.9922 H   0  0  0  0  0  0
  -28.6678  -22.7246   17.7808 H   0  0  0  0  0  0
  -30.0582  -23.6028   20.4092 H   0  0  0  0  0  0
  -28.9787  -23.3312   21.6985 H   0  0  0  0  0  0
  -29.7997  -17.6908   21.8953 H   0  0  0  0  0  0
  -31.1698  -17.8422   20.8765 H   0  0  0  0  0  0
  -27.9928  -24.4529   18.9679 H   0  0  0  0  0  0
  -27.0647  -24.3351   20.4172 H   0  0  0  0  0  0
  1 25  1  0  0  0
  1 30  2  0  0  0
  1 83  1  0  0  0
  2  3  1  0  0  0
  2 25  1  0  0  0
  2 84  1  0  0  0
  2 85  1  0  0  0
  3  4  1  0  0  0
  3 86  1  0  0  0
  3 87  1  0  0  0
  4  5  1  0  0  0
  4 88  1  0  0  0
  4 89  1  0  0  0
  5  6  1  0  0  0
  5 26  1  0  0  0
  5 90  1  0  0  0
  6 25  1  0  0  0
  6 91  1  0  0  0
  6 92  1  0  0  0
  7  8  2  0  0  0
  7 26  1  0  0  0
  7 29  1  0  0  0
  8  9  1  0  0  0
  8 22  1  0  0  0
  9 10  1  0  0  0
  9 27  2  0  0  0
 10 11  2  0  0  0
 10 15  1  0  0  0
 11 12  1  0  0  0
 11 93  1  0  0  0
 12 13  2  0  0  0
 12 94  1  0  0  0
 13 14  1  0  0  0
 13 31  1  0  0  0
 14 15  2  0  0  0
 14 95  1  0  0  0
 15 96  1  0  0  0
 16 17  2  0  0  0
 16 21  1  0  0  0
 16 31  1  0  0  0
 17 18  1  0  0  0
 17 97  1  0  0  0
 18 19  2  0  0  0
 18 98  1  0  0  0
 19 20  1  0  0  0
 19 24  1  0  0  0
 20 21  2  0  0  0
 20 99  1  0  0  0
 21 23  1  0  0  0
 22 28  1  0  0  0
 22 32  2  0  0  0
 26 27  1  0  0  0
 28100  1  0  0  0
 28101  1  0  0  0
 29102  1  0  0  0
 29103  1  0  0  0
 33 34  1  0  0  0
 33 66  1  0  0  0
 33 70  2  0  0  0
 34 36  1  0  0  0
 34 59  1  0  0  0
 34104  1  0  0  0
 35 44  2  0  0  0
 35 45  1  0  0  0
 35 68  1  0  0  0
 36 56  1  0  0  0
 36105  1  0  0  0
 37 39  1  0  0  0
 37 47  1  0  0  0
 37 66  1  0  0  0
 37106  1  0  0  0
 38 43  2  0  0  0
 38 46  1  0  0  0
 38 47  1  0  0  0
 39 64  1  0  0  0
 39 67  2  0  0  0
 40 52  1  0  0  0
 40 53  2  0  0  0
 40 58  1  0  0  0
 41107  1  0  0  0
 41108  1  0  0  0
 41109  1  0  0  0
 41 48  1  0  0  0
 42 43  1  0  0  0
 42 66  1  0  0  0
 42110  1  0  0  0
 42111  1  0  0  0
 43 44  1  0  0  0
 44112  1  0  0  0
 45 46  2  0  0  0
 45113  1  0  0  0
 46114  1  0  0  0
 47115  1  0  0  0
 47116  1  0  0  0
 48 56  1  0  0  0
 48 65  1  0  0  0
 48117  1  0  0  0
 49 50  1  0  0  0
 49 53  1  0  0  0
 49 64  1  0  0  0
 49118  1  0  0  0
 50 51  1  0  0  0
 50119  1  0  0  0
 50120  1  0  0  0
 51 52  1  0  0  0
 51121  1  0  0  0
 51122  1  0  0  0
 52123  1  0  0  0
 52124  1  0  0  0
 53 54  1  0  0  0
 54 55  2  0  0  0
 54125  1  0  0  0
 55 57  1  0  0  0
 55126  1  0  0  0
 56 69  2  0  0  0
 57 58  2  0  0  0
 57127  1  0  0  0
 58128  1  0  0  0
 59 60  1  0  0  0
 59 61  1  0  0  0
 59 62  1  0  0  0
 60129  1  0  0  0
 60130  1  0  0  0
 60131  1  0  0  0
 61132  1  0  0  0
 61133  1  0  0  0
 61134  1  0  0  0
 62135  1  0  0  0
 62136  1  0  0  0
 62137  1  0  0  0
 63 65  1  0  0  0
 63138  1  0  0  0
 63139  1  0  0  0
 63140  1  0  0  0
 64141  1  0  0  0
 65142  1  0  0  0
 68 80  1  0  0  0
 71 72  2  0  0  0
 71 77  1  0  0  0
 71 81  1  0  0  0
 72 78  1  0  0  0
 72 82  1  0  0  0
 73 79  1  0  0  0
 73 81  2  0  0  0
 73 82  1  0  0  0
 74 77  1  0  0  0
 74143  1  0  0  0
 74144  1  0  0  0
 74145  1  0  0  0
 75 82  1  0  0  0
 75146  1  0  0  0
 75147  1  0  0  0
 75148  1  0  0  0
 76 83  1  0  0  0
 76149  1  0  0  0
 76150  1  0  0  0
 76151  1  0  0  0
 77152  1  0  0  0
 77153  1  0  0  0
 78 80  1  0  0  0
 78154  1  0  0  0
 78155  1  0  0  0
 79 83  1  0  0  0
 79156  1  0  0  0
 79157  1  0  0  0
 80158  1  0  0  0
 80159  1  0  0  0
M  ISO  4   1 100  68 101  80 101  83 100
M  END
> <chiral flag>
0

> <version>
0

> <s_m_source_file>
/data/baiqing/PycharmProjects/Reinvent-master-3.2/result/LINK_invent/BTK/process_docking_weight1_custom_sum_contain_oxygen_bond_distance_aromatic_linkinvent_7_9_3/rearranged_h_0055.sdf

> <i_m_source_file_index>
77

> <r_mmod_Potential_Energy-OPLS-2005>
687.430114746094

> <r_mmod_Stretch_Energy-OPLS-2005>
323.154846191406

> <r_mmod_Bend_Energy-OPLS-2005>
306.875610351562

> <r_mmod_Torsional_Energy-OPLS-2005>
274.157012939453

> <r_mmod_Improper_Torsional_Energy-OPLS-2005>
9.64882373809814

> <r_mmod_Van_der_Waal_Energy-OPLS-2005>
107.998550415039

> <r_mmod_Electrostatic_Energy-OPLS-2005>
-376.223937988281

> <r_mmod_Solvation_Energy-OPLS-2005>
-215.464859008789

> <b_mmod_Minimization_Converged-OPLS-2005>
0

> <r_mmod_RMS_Derivative-OPLS-2005>
3.3953104019165

$$$$
78
                    3D
 Structure written by MMmdl.
156164  0  0  1  0            999 V2000
  -30.5243  -15.0162   20.4716 C   0  0  0  0  0  0
  -30.4411  -12.6474   19.5070 C   0  0  0  0  0  0
  -29.5275  -12.5725   18.2594 C   0  0  0  0  0  0
  -28.0592  -12.3359   18.6652 C   0  0  0  0  0  0
  -27.6285  -13.2472   19.8431 C   0  0  2  0  0  0
  -28.6699  -13.2340   20.9793 C   0  0  0  0  0  0
  -25.2423  -13.8191   20.5651 C   0  0  0  0  0  0
  -24.1753  -13.0417   20.9204 C   0  0  0  0  0  0
  -24.6373  -11.6904   20.8732 C   0  0  0  0  0  0
  -23.9057  -10.4279   21.0392 C   0  0  0  0  0  0
  -24.3611   -9.4205   21.9173 C   0  0  0  0  0  0
  -23.6287   -8.2241   22.0749 C   0  0  0  0  0  0
  -22.4270   -8.0274   21.3541 C   0  0  0  0  0  0
  -21.9901   -9.0244   20.4645 C   0  0  0  0  0  0
  -22.7226  -10.2121   20.3047 C   0  0  0  0  0  0
  -21.6854   -6.0728   22.5280 C   0  0  0  0  0  0
  -21.4017   -6.5632   23.8215 C   0  0  0  0  0  0
  -21.3658   -5.6782   24.9177 C   0  0  0  0  0  0
  -21.6045   -4.3044   24.7227 C   0  0  0  0  0  0
  -21.8818   -3.8137   23.4348 C   0  0  0  0  0  0
  -21.9192   -4.6955   22.3406 C   0  0  0  0  0  0
  -22.7784  -13.5209   21.1875 C   0  0  0  0  0  0
  -22.1666   -4.2146   21.0986 F   0  0  0  0  0  0
  -21.5622   -3.4529   25.7737 F   0  0  0  0  0  0
  -29.9299  -13.7391   20.4011 N   0  0  0  0  0  0
  -26.2858  -12.9424   20.3209 N   0  0  0  0  0  0
  -25.9307  -11.6555   20.5705 N   0  0  0  0  0  0
  -22.0434  -12.8207   22.0437 N   0  0  0  0  0  0
  -25.4030  -15.1915   20.4013 N   0  0  0  0  0  0
  -31.7066  -15.0575   20.1036 O   0  0  0  0  0  0
  -21.6638   -6.8871   21.4241 O   0  0  0  0  0  0
  -22.3480  -14.5526   20.6730 O   0  0  0  0  0  0
  -24.6480  -31.8376   23.1817 C   0  0  0  0  0  0
  -25.9240  -32.4656   23.8219 C   0  0  1  0  0  0
  -27.2169  -27.0835   20.1664 C   0  0  0  0  0  0
  -25.5964  -33.8458   24.2134 N   0  0  0  0  0  0
  -23.4533  -30.4559   21.5276 C   0  0  2  0  0  0
  -24.9038  -28.8713   20.1110 C   0  0  0  0  0  0
  -22.7584  -29.4516   22.4823 C   0  0  0  0  0  0
  -18.0308  -28.1385   22.8482 C   0  0  0  0  0  0
  -24.1488  -36.7238   23.2639 C   0  0  0  0  0  0
  -26.0122  -30.6981   21.3860 C   0  0  0  0  0  0
  -26.0838  -29.3032   20.7308 C   0  0  0  0  0  0
  -27.2409  -28.4283   20.7350 C   0  0  0  0  0  0
  -26.0081  -26.7637   19.5090 C   0  0  0  0  0  0
  -24.8822  -27.6172   19.4828 C   0  0  0  0  0  0
  -23.6823  -29.7792   20.1494 C   0  0  0  0  0  0
  -25.4118  -36.2998   24.0303 C   0  0  1  0  0  0
  -20.5924  -28.3715   23.1219 C   0  0  2  0  0  0
  -20.6783  -26.9410   22.5403 C   0  0  0  0  0  0
  -19.5753  -26.6371   21.5211 C   0  0  0  0  0  0
  -18.1939  -26.7923   22.1627 C   0  0  0  0  0  0
  -19.1568  -28.8865   23.2844 C   0  0  0  0  0  0
  -18.9482  -30.1464   23.8869 C   0  0  0  0  0  0
  -17.6477  -30.6582   24.0556 C   0  0  0  0  0  0
  -25.9074  -34.9385   23.5023 C   0  0  0  0  0  0
  -16.5367  -29.9075   23.6337 C   0  0  0  0  0  0
  -16.7292  -28.6491   23.0362 C   0  0  0  0  0  0
  -26.4540  -31.6544   25.0685 C   0  0  0  0  0  0
  -25.3713  -31.3795   26.1379 C   0  0  0  0  0  0
  -27.0398  -30.2914   24.6327 C   0  0  0  0  0  0
  -27.6045  -32.4333   25.7489 C   0  0  0  0  0  0
  -27.5564  -37.1767   24.8458 C   0  0  0  0  0  0
  -21.4274  -29.3037   22.3581 N   0  0  0  0  0  0
  -26.4270  -37.3724   23.9408 N   0  0  0  0  0  0
  -24.7248  -31.0201   22.0865 N   0  0  0  0  0  0
  -23.4208  -28.8080   23.3001 O   0  0  0  0  0  0
  -28.2657  -26.0765   20.2268 O   0  0  0  0  0  0
  -26.5670  -34.8901   22.4611 O   0  0  0  0  0  0
  -23.5592  -32.1269   23.7013 O   0  0  0  0  0  0
  -27.8280  -20.7798   20.7297 C   0  0  0  0  0  0
  -28.9162  -21.5687   20.3859 C   0  0  0  0  0  0
  -29.4081  -19.1897   20.4150 C   0  0  0  0  0  0
  -26.4629  -21.2570   21.1121 C   0  0  0  0  0  0
  -31.2851  -20.7547   19.8262 C   0  0  0  0  0  0
  -28.8164  -16.3045   21.7742 C   0  0  0  0  0  0
  -29.1263  -23.2275   20.2890 C   0  0  0  0  0  0
  -30.2339  -17.7398   20.2657 C   0  0  0  0  0  0
  -27.9972  -24.5149   20.2198 C   0  0  0  0  0  0
  -28.1188  -19.3807   20.7255 N   0  0  0  0  0  0
  -29.9078  -20.4964   20.2017 N   0  0  0  0  0  0
  -29.8013  -16.2569   20.6915 N   0  0  0  0  0  0
  -31.4715  -12.8169   19.1940 H   0  0  0  0  0  0
  -30.4580  -11.6895   20.0304 H   0  0  0  0  0  0
  -29.8656  -11.7859   17.5839 H   0  0  0  0  0  0
  -29.6055  -13.5082   17.7020 H   0  0  0  0  0  0
  -27.9615  -11.2894   18.9553 H   0  0  0  0  0  0
  -27.3982  -12.4777   17.8091 H   0  0  0  0  0  0
  -27.5987  -14.2597   19.4399 H   0  0  0  0  0  0
  -28.7904  -12.2247   21.3752 H   0  0  0  0  0  0
  -28.3237  -13.8120   21.8289 H   0  0  0  0  0  0
  -25.2756   -9.5697   22.4740 H   0  0  0  0  0  0
  -24.0003   -7.4642   22.7472 H   0  0  0  0  0  0
  -21.0825   -8.8748   19.8967 H   0  0  0  0  0  0
  -22.3665  -10.9648   19.6152 H   0  0  0  0  0  0
  -21.2014   -7.6135   23.9721 H   0  0  0  0  0  0
  -21.1479   -6.0508   25.9081 H   0  0  0  0  0  0
  -22.0597   -2.7598   23.2845 H   0  0  0  0  0  0
  -22.4038  -11.9869   22.4833 H   0  0  0  0  0  0
  -21.1058  -13.1245   22.2648 H   0  0  0  0  0  0
  -24.6314  -15.8398   20.5145 H   0  0  0  0  0  0
  -26.2456  -15.6339   20.0576 H   0  0  0  0  0  0
  -26.7307  -32.5253   23.0942 H   0  0  0  0  0  0
  -25.0090  -33.9551   25.0269 H   0  0  0  0  0  0
  -22.7584  -31.2830   21.3677 H   0  0  0  0  0  0
  -23.3745  -35.9575   23.3276 H   0  0  0  0  0  0
  -24.3574  -36.8899   22.2058 H   0  0  0  0  0  0
  -23.7257  -37.6430   23.6698 H   0  0  0  0  0  0
  -26.1731  -31.4496   20.6114 H   0  0  0  0  0  0
  -26.8788  -30.7493   22.0335 H   0  0  0  0  0  0
  -28.1406  -28.7558   21.2371 H   0  0  0  0  0  0
  -25.8990  -25.8081   19.0209 H   0  0  0  0  0  0
  -23.9825  -27.2814   18.9849 H   0  0  0  0  0  0
  -23.8207  -30.5481   19.3884 H   0  0  0  0  0  0
  -22.7960  -29.2211   19.8425 H   0  0  0  0  0  0
  -25.1317  -36.1797   25.0796 H   0  0  0  0  0  0
  -21.0029  -28.3315   24.1332 H   0  0  0  0  0  0
  -20.5640  -26.2342   23.3633 H   0  0  0  0  0  0
  -21.6654  -26.7385   22.1224 H   0  0  0  0  0  0
  -19.6907  -25.6274   21.1256 H   0  0  0  0  0  0
  -19.6687  -27.3168   20.6727 H   0  0  0  0  0  0
  -17.4210  -26.6666   21.4032 H   0  0  0  0  0  0
  -18.0339  -26.0066   22.9024 H   0  0  0  0  0  0
  -19.7957  -30.7290   24.2220 H   0  0  0  0  0  0
  -17.5026  -31.6262   24.5159 H   0  0  0  0  0  0
  -15.5361  -30.2964   23.7659 H   0  0  0  0  0  0
  -15.8701  -28.0793   22.7087 H   0  0  0  0  0  0
  -24.5885  -30.7138   25.7726 H   0  0  0  0  0  0
  -24.8917  -32.3010   26.4689 H   0  0  0  0  0  0
  -25.7981  -30.9058   27.0227 H   0  0  0  0  0  0
  -26.3028  -29.6630   24.1309 H   0  0  0  0  0  0
  -27.3933  -29.7234   25.4943 H   0  0  0  0  0  0
  -27.8976  -30.4093   23.9701 H   0  0  0  0  0  0
  -27.2592  -33.3639   26.2004 H   0  0  0  0  0  0
  -28.3894  -32.6881   25.0357 H   0  0  0  0  0  0
  -28.0670  -31.8510   26.5466 H   0  0  0  0  0  0
  -28.2568  -38.0074   24.7502 H   0  0  0  0  0  0
  -28.1073  -36.2602   24.6281 H   0  0  0  0  0  0
  -27.2291  -37.1419   25.8864 H   0  0  0  0  0  0
  -20.9473  -29.8765   21.6780 H   0  0  0  0  0  0
  -26.0121  -38.2782   24.1428 H   0  0  0  0  0  0
  -25.9837  -21.7815   20.2859 H   0  0  0  0  0  0
  -26.5129  -21.9469   21.9546 H   0  0  0  0  0  0
  -25.8119  -20.4336   21.4062 H   0  0  0  0  0  0
  -31.4001  -20.6302   18.7496 H   0  0  0  0  0  0
  -31.9546  -20.0633   20.3381 H   0  0  0  0  0  0
  -31.5695  -21.7700   20.1012 H   0  0  0  0  0  0
  -28.7318  -17.2928   22.2211 H   0  0  0  0  0  0
  -29.0947  -15.6506   22.6020 H   0  0  0  0  0  0
  -27.8294  -16.0265   21.4093 H   0  0  0  0  0  0
  -29.7746  -23.3918   19.4283 H   0  0  0  0  0  0
  -29.7616  -23.4818   21.1374 H   0  0  0  0  0  0
  -31.1844  -17.8935   20.7769 H   0  0  0  0  0  0
  -30.5079  -17.6670   19.2132 H   0  0  0  0  0  0
  -27.3124  -24.3563   21.0531 H   0  0  0  0  0  0
  -27.4060  -24.3103   19.3290 H   0  0  0  0  0  0
  1 25  1  0  0  0
  1 30  2  0  0  0
  1 82  1  0  0  0
  2  3  1  0  0  0
  2 25  1  0  0  0
  2 83  1  0  0  0
  2 84  1  0  0  0
  3  4  1  0  0  0
  3 85  1  0  0  0
  3 86  1  0  0  0
  4  5  1  0  0  0
  4 87  1  0  0  0
  4 88  1  0  0  0
  5  6  1  0  0  0
  5 26  1  0  0  0
  5 89  1  0  0  0
  6 25  1  0  0  0
  6 90  1  0  0  0
  6 91  1  0  0  0
  7  8  2  0  0  0
  7 26  1  0  0  0
  7 29  1  0  0  0
  8  9  1  0  0  0
  8 22  1  0  0  0
  9 10  1  0  0  0
  9 27  2  0  0  0
 10 11  2  0  0  0
 10 15  1  0  0  0
 11 12  1  0  0  0
 11 92  1  0  0  0
 12 13  2  0  0  0
 12 93  1  0  0  0
 13 14  1  0  0  0
 13 31  1  0  0  0
 14 15  2  0  0  0
 14 94  1  0  0  0
 15 95  1  0  0  0
 16 17  2  0  0  0
 16 21  1  0  0  0
 16 31  1  0  0  0
 17 18  1  0  0  0
 17 96  1  0  0  0
 18 19  2  0  0  0
 18 97  1  0  0  0
 19 20  1  0  0  0
 19 24  1  0  0  0
 20 21  2  0  0  0
 20 98  1  0  0  0
 21 23  1  0  0  0
 22 28  1  0  0  0
 22 32  2  0  0  0
 26 27  1  0  0  0
 28 99  1  0  0  0
 28100  1  0  0  0
 29101  1  0  0  0
 29102  1  0  0  0
 33 34  1  0  0  0
 33 66  1  0  0  0
 33 70  2  0  0  0
 34 36  1  0  0  0
 34 59  1  0  0  0
 34103  1  0  0  0
 35 44  2  0  0  0
 35 45  1  0  0  0
 35 68  1  0  0  0
 36 56  1  0  0  0
 36104  1  0  0  0
 37 39  1  0  0  0
 37 47  1  0  0  0
 37 66  1  0  0  0
 37105  1  0  0  0
 38 43  2  0  0  0
 38 46  1  0  0  0
 38 47  1  0  0  0
 39 64  1  0  0  0
 39 67  2  0  0  0
 40 52  1  0  0  0
 40 53  2  0  0  0
 40 58  1  0  0  0
 41106  1  0  0  0
 41107  1  0  0  0
 41108  1  0  0  0
 41 48  1  0  0  0
 42 43  1  0  0  0
 42 66  1  0  0  0
 42109  1  0  0  0
 42110  1  0  0  0
 43 44  1  0  0  0
 44111  1  0  0  0
 45 46  2  0  0  0
 45112  1  0  0  0
 46113  1  0  0  0
 47114  1  0  0  0
 47115  1  0  0  0
 48 56  1  0  0  0
 48 65  1  0  0  0
 48116  1  0  0  0
 49 50  1  0  0  0
 49 53  1  0  0  0
 49 64  1  0  0  0
 49117  1  0  0  0
 50 51  1  0  0  0
 50118  1  0  0  0
 50119  1  0  0  0
 51 52  1  0  0  0
 51120  1  0  0  0
 51121  1  0  0  0
 52122  1  0  0  0
 52123  1  0  0  0
 53 54  1  0  0  0
 54 55  2  0  0  0
 54124  1  0  0  0
 55 57  1  0  0  0
 55125  1  0  0  0
 56 69  2  0  0  0
 57 58  2  0  0  0
 57126  1  0  0  0
 58127  1  0  0  0
 59 60  1  0  0  0
 59 61  1  0  0  0
 59 62  1  0  0  0
 60128  1  0  0  0
 60129  1  0  0  0
 60130  1  0  0  0
 61131  1  0  0  0
 61132  1  0  0  0
 61133  1  0  0  0
 62134  1  0  0  0
 62135  1  0  0  0
 62136  1  0  0  0
 63 65  1  0  0  0
 63137  1  0  0  0
 63138  1  0  0  0
 63139  1  0  0  0
 64140  1  0  0  0
 65141  1  0  0  0
 68 79  1  0  0  0
 71 72  2  0  0  0
 71 74  1  0  0  0
 71 80  1  0  0  0
 72 77  1  0  0  0
 72 81  1  0  0  0
 73 78  1  0  0  0
 73 80  2  0  0  0
 73 81  1  0  0  0
 74142  1  0  0  0
 74143  1  0  0  0
 74144  1  0  0  0
 75 81  1  0  0  0
 75145  1  0  0  0
 75146  1  0  0  0
 75147  1  0  0  0
 76 82  1  0  0  0
 76148  1  0  0  0
 76149  1  0  0  0
 76150  1  0  0  0
 77 79  1  0  0  0
 77151  1  0  0  0
 77152  1  0  0  0
 78 82  1  0  0  0
 78153  1  0  0  0
 78154  1  0  0  0
 79155  1  0  0  0
 79156  1  0  0  0
M  ISO  4   1 100  68 101  79 101  82 100
M  END
> <chiral flag>
0

> <version>
0

> <s_m_source_file>
/data/baiqing/PycharmProjects/Reinvent-master-3.2/result/LINK_invent/BTK/process_docking_weight1_custom_sum_contain_oxygen_bond_distance_aromatic_linkinvent_7_9_3/rearranged_h_0055.sdf

> <i_m_source_file_index>
78

> <r_mmod_Potential_Energy-OPLS-2005>
647.320434570312

> <r_mmod_Stretch_Energy-OPLS-2005>
330.317474365234

> <r_mmod_Bend_Energy-OPLS-2005>
312.818939208984

> <r_mmod_Torsional_Energy-OPLS-2005>
243.395477294922

> <r_mmod_Improper_Torsional_Energy-OPLS-2005>
6.973548412323

> <r_mmod_Van_der_Waal_Energy-OPLS-2005>
114.261627197266

> <r_mmod_Electrostatic_Energy-OPLS-2005>
-376.878479003906

> <r_mmod_Solvation_Energy-OPLS-2005>
-215.184020996094

> <b_mmod_Minimization_Converged-OPLS-2005>
0

> <r_mmod_RMS_Derivative-OPLS-2005>
1.6446727514267

$$$$
79
                    3D
 Structure written by MMmdl.
160168  0  0  1  0            999 V2000
  -30.5205  -15.0611   20.3250 C   0  0  0  0  0  0
  -30.4471  -12.6522   19.4895 C   0  0  0  0  0  0
  -29.5254  -12.4716   18.2598 C   0  0  0  0  0  0
  -28.0600  -12.2510   18.6880 C   0  0  0  0  0  0
  -27.6119  -13.2122   19.8173 C   0  0  2  0  0  0
  -28.6669  -13.3656   20.9346 C   0  0  0  0  0  0
  -25.2488  -13.8087   20.5783 C   0  0  0  0  0  0
  -24.1761  -13.0370   20.9246 C   0  0  0  0  0  0
  -24.6333  -11.6840   20.8786 C   0  0  0  0  0  0
  -23.9010  -10.4250   21.0431 C   0  0  0  0  0  0
  -24.3571   -9.4172   21.9192 C   0  0  0  0  0  0
  -23.6259   -8.2211   22.0744 C   0  0  0  0  0  0
  -22.4249   -8.0252   21.3527 C   0  0  0  0  0  0
  -21.9878   -9.0229   20.4646 C   0  0  0  0  0  0
  -22.7191  -10.2112   20.3067 C   0  0  0  0  0  0
  -21.6847   -6.0719   22.5269 C   0  0  0  0  0  0
  -21.4017   -6.5627   23.8204 C   0  0  0  0  0  0
  -21.3644   -5.6777   24.9167 C   0  0  0  0  0  0
  -21.6039   -4.3042   24.7214 C   0  0  0  0  0  0
  -21.8829   -3.8136   23.4342 C   0  0  0  0  0  0
  -21.9191   -4.6946   22.3394 C   0  0  0  0  0  0
  -22.7800  -13.5198   21.1859 C   0  0  0  0  0  0
  -22.1662   -4.2128   21.0974 F   0  0  0  0  0  0
  -21.5612   -3.4530   25.7735 F   0  0  0  0  0  0
  -29.9213  -13.7909   20.2966 N   0  0  0  0  0  0
  -26.2831  -12.9213   20.3281 N   0  0  0  0  0  0
  -25.9250  -11.6394   20.5788 N   0  0  0  0  0  0
  -22.0431  -12.8236   22.0431 N   0  0  0  0  0  0
  -25.4227  -15.1816   20.4267 N   0  0  0  0  0  0
  -31.7561  -15.0731   20.2677 O   0  0  0  0  0  0
  -21.6615   -6.8855   21.4232 O   0  0  0  0  0  0
  -22.3508  -14.5494   20.6660 O   0  0  0  0  0  0
  -24.6478  -31.8411   23.1866 C   0  0  0  0  0  0
  -25.9233  -32.4675   23.8270 C   0  0  1  0  0  0
  -27.2190  -27.0979   20.1572 C   0  0  0  0  0  0
  -25.5968  -33.8485   24.2177 N   0  0  0  0  0  0
  -23.4532  -30.4607   21.5343 C   0  0  2  0  0  0
  -24.9037  -28.8830   20.1119 C   0  0  0  0  0  0
  -22.7588  -29.4540   22.4859 C   0  0  0  0  0  0
  -18.0305  -28.1400   22.8479 C   0  0  0  0  0  0
  -24.1488  -36.7248   23.2647 C   0  0  0  0  0  0
  -26.0132  -30.7007   21.3940 C   0  0  0  0  0  0
  -26.0837  -29.3092   20.7348 C   0  0  0  0  0  0
  -27.2423  -28.4372   20.7362 C   0  0  0  0  0  0
  -26.0102  -26.7871   19.4918 C   0  0  0  0  0  0
  -24.8837  -27.6364   19.4713 C   0  0  0  0  0  0
  -23.6821  -29.7900   20.1538 C   0  0  0  0  0  0
  -25.4122  -36.3028   24.0319 C   0  0  1  0  0  0
  -20.5922  -28.3739   23.1222 C   0  0  2  0  0  0
  -20.6790  -26.9437   22.5405 C   0  0  0  0  0  0
  -19.5760  -26.6381   21.5219 C   0  0  0  0  0  0
  -18.1943  -26.7936   22.1627 C   0  0  0  0  0  0
  -19.1566  -28.8889   23.2839 C   0  0  0  0  0  0
  -18.9479  -30.1482   23.8868 C   0  0  0  0  0  0
  -17.6476  -30.6594   24.0561 C   0  0  0  0  0  0
  -25.9084  -34.9401   23.5060 C   0  0  0  0  0  0
  -16.5366  -29.9086   23.6339 C   0  0  0  0  0  0
  -16.7292  -28.6506   23.0359 C   0  0  0  0  0  0
  -26.4525  -31.6556   25.0734 C   0  0  0  0  0  0
  -25.3692  -31.3767   26.1422 C   0  0  0  0  0  0
  -27.0399  -30.2938   24.6365 C   0  0  0  0  0  0
  -27.6041  -32.4337   25.7522 C   0  0  0  0  0  0
  -27.5573  -37.1785   24.8463 C   0  0  0  0  0  0
  -21.4282  -29.3056   22.3595 N   0  0  0  0  0  0
  -26.4280  -37.3749   23.9413 N   0  0  0  0  0  0
  -24.7247  -31.0233   22.0924 N   0  0  0  0  0  0
  -23.4211  -28.8090   23.3032 O   0  0  0  0  0  0
  -28.2629  -26.0879   20.2019 O   0  0  0  0  0  0
  -26.5679  -34.8906   22.4645 O   0  0  0  0  0  0
  -23.5587  -32.1314   23.7060 O   0  0  0  0  0  0
  -30.7018  -21.1139   19.6957 C   0  0  0  0  0  0
  -30.9986  -22.4643   19.4155 C   0  0  0  0  0  0
  -29.4659  -20.7819   20.2596 C   0  0  0  0  0  0
  -28.9497  -23.2378   20.1777 C   0  0  0  0  0  0
  -32.3243  -22.8451   18.7906 C   0  0  0  0  0  0
  -27.7288  -18.9424   19.9487 C   0  0  0  0  0  0
  -28.9002  -19.1183   22.1286 C   0  0  0  0  0  0
  -28.8817  -16.2233   18.9611 C   0  0  0  0  0  0
  -27.9236  -24.5476   20.2965 C   0  0  0  0  0  0
  -30.1454  -17.8498   20.2678 C   0  0  0  0  0  0
  -29.1006  -19.1850   20.6040 C   0  0  0  0  0  0
  -30.1453  -23.4896   19.6503 N   0  0  0  0  0  0
  -28.6118  -21.9044   20.4844 N   0  0  0  0  0  0
  -29.7593  -16.2882   20.1434 N   0  0  0  0  0  0
  -31.4699  -12.8359   19.1568 H   0  0  0  0  0  0
  -30.4857  -11.7424   20.0918 H   0  0  0  0  0  0
  -29.8692  -11.6264   17.6624 H   0  0  0  0  0  0
  -29.5933  -13.3414   17.6071 H   0  0  0  0  0  0
  -27.9699  -11.2201   19.0320 H   0  0  0  0  0  0
  -27.3977  -12.3398   17.8258 H   0  0  0  0  0  0
  -27.4983  -14.1558   19.3099 H   0  0  0  0  0  0
  -28.7989  -12.4365   21.4905 H   0  0  0  0  0  0
  -28.3477  -14.1242   21.6510 H   0  0  0  0  0  0
  -25.2718   -9.5647   22.4761 H   0  0  0  0  0  0
  -23.9960   -7.4600   22.7460 H   0  0  0  0  0  0
  -21.0801   -8.8767   19.8955 H   0  0  0  0  0  0
  -22.3659  -10.9658   19.6184 H   0  0  0  0  0  0
  -21.2039   -7.6137   23.9717 H   0  0  0  0  0  0
  -21.1438   -6.0497   25.9064 H   0  0  0  0  0  0
  -22.0628   -2.7596   23.2852 H   0  0  0  0  0  0
  -22.4025  -11.9914   22.4859 H   0  0  0  0  0  0
  -21.1055  -13.1297   22.2609 H   0  0  0  0  0  0
  -24.6651  -15.8431   20.5582 H   0  0  0  0  0  0
  -26.2938  -15.6219   20.1641 H   0  0  0  0  0  0
  -26.7304  -32.5260   23.1000 H   0  0  0  0  0  0
  -25.0072  -33.9590   25.0294 H   0  0  0  0  0  0
  -22.7581  -31.2888   21.3795 H   0  0  0  0  0  0
  -23.3763  -35.9566   23.3282 H   0  0  0  0  0  0
  -24.3578  -36.8907   22.2067 H   0  0  0  0  0  0
  -23.7218  -37.6428   23.6698 H   0  0  0  0  0  0
  -26.1794  -31.4528   20.6218 H   0  0  0  0  0  0
  -26.8793  -30.7473   22.0423 H   0  0  0  0  0  0
  -28.1409  -28.7653   21.2402 H   0  0  0  0  0  0
  -25.8930  -25.8480   18.9759 H   0  0  0  0  0  0
  -23.9902  -27.3080   18.9589 H   0  0  0  0  0  0
  -23.8226  -30.5657   19.4000 H   0  0  0  0  0  0
  -22.7940  -29.2377   19.8410 H   0  0  0  0  0  0
  -25.1307  -36.1860   25.0813 H   0  0  0  0  0  0
  -21.0012  -28.3340   24.1345 H   0  0  0  0  0  0
  -20.5684  -26.2364   23.3639 H   0  0  0  0  0  0
  -21.6654  -26.7442   22.1203 H   0  0  0  0  0  0
  -19.6920  -25.6286   21.1266 H   0  0  0  0  0  0
  -19.6681  -27.3175   20.6735 H   0  0  0  0  0  0
  -17.4215  -26.6691   21.4027 H   0  0  0  0  0  0
  -18.0329  -26.0079   22.9021 H   0  0  0  0  0  0
  -19.7961  -30.7305   24.2216 H   0  0  0  0  0  0
  -17.5034  -31.6271   24.5170 H   0  0  0  0  0  0
  -15.5365  -30.2977   23.7682 H   0  0  0  0  0  0
  -15.8693  -28.0815   22.7082 H   0  0  0  0  0  0
  -24.5868  -30.7118   25.7737 H   0  0  0  0  0  0
  -24.8888  -32.2960   26.4786 H   0  0  0  0  0  0
  -25.7960  -30.8973   27.0243 H   0  0  0  0  0  0
  -26.3039  -29.6650   24.1346 H   0  0  0  0  0  0
  -27.3945  -29.7254   25.4974 H   0  0  0  0  0  0
  -27.8975  -30.4139   23.9742 H   0  0  0  0  0  0
  -27.2617  -33.3658   26.2030 H   0  0  0  0  0  0
  -28.3889  -32.6869   25.0381 H   0  0  0  0  0  0
  -28.0675  -31.8519   26.5502 H   0  0  0  0  0  0
  -28.2580  -38.0093   24.7527 H   0  0  0  0  0  0
  -28.1080  -36.2627   24.6264 H   0  0  0  0  0  0
  -27.2304  -37.1401   25.8869 H   0  0  0  0  0  0
  -20.9508  -29.8768   21.6763 H   0  0  0  0  0  0
  -26.0147  -38.2819   24.1409 H   0  0  0  0  0  0
  -31.4229  -20.3376   19.4760 H   0  0  0  0  0  0
  -33.1117  -22.1518   19.0852 H   0  0  0  0  0  0
  -32.6291  -23.8455   19.0979 H   0  0  0  0  0  0
  -32.2467  -22.8308   17.7035 H   0  0  0  0  0  0
  -27.0261  -19.7361   20.1996 H   0  0  0  0  0  0
  -27.2686  -18.0229   20.3018 H   0  0  0  0  0  0
  -27.8031  -18.9166   18.8622 H   0  0  0  0  0  0
  -28.1492  -19.8319   22.4690 H   0  0  0  0  0  0
  -29.8290  -19.3510   22.6499 H   0  0  0  0  0  0
  -28.5798  -18.1259   22.4480 H   0  0  0  0  0  0
  -27.8367  -16.2404   19.2560 H   0  0  0  0  0  0
  -29.0430  -15.3488   18.3334 H   0  0  0  0  0  0
  -29.0308  -17.0535   18.2717 H   0  0  0  0  0  0
  -27.3928  -24.4197   21.2408 H   0  0  0  0  0  0
  -27.1885  -24.3249   19.5271 H   0  0  0  0  0  0
  -30.9623  -17.8969   20.9884 H   0  0  0  0  0  0
  -30.6460  -18.0946   19.3301 H   0  0  0  0  0  0
  1 25  1  0  0  0
  1 30  2  0  0  0
  1 84  1  0  0  0
  2  3  1  0  0  0
  2 25  1  0  0  0
  2 85  1  0  0  0
  2 86  1  0  0  0
  3  4  1  0  0  0
  3 87  1  0  0  0
  3 88  1  0  0  0
  4  5  1  0  0  0
  4 89  1  0  0  0
  4 90  1  0  0  0
  5  6  1  0  0  0
  5 26  1  0  0  0
  5 91  1  0  0  0
  6 25  1  0  0  0
  6 92  1  0  0  0
  6 93  1  0  0  0
  7  8  2  0  0  0
  7 26  1  0  0  0
  7 29  1  0  0  0
  8  9  1  0  0  0
  8 22  1  0  0  0
  9 10  1  0  0  0
  9 27  2  0  0  0
 10 11  2  0  0  0
 10 15  1  0  0  0
 11 12  1  0  0  0
 11 94  1  0  0  0
 12 13  2  0  0  0
 12 95  1  0  0  0
 13 14  1  0  0  0
 13 31  1  0  0  0
 14 15  2  0  0  0
 14 96  1  0  0  0
 15 97  1  0  0  0
 16 17  2  0  0  0
 16 21  1  0  0  0
 16 31  1  0  0  0
 17 18  1  0  0  0
 17 98  1  0  0  0
 18 19  2  0  0  0
 18 99  1  0  0  0
 19 20  1  0  0  0
 19 24  1  0  0  0
 20 21  2  0  0  0
 20100  1  0  0  0
 21 23  1  0  0  0
 22 28  1  0  0  0
 22 32  2  0  0  0
 26 27  1  0  0  0
 28101  1  0  0  0
 28102  1  0  0  0
 29103  1  0  0  0
 29104  1  0  0  0
 33 34  1  0  0  0
 33 66  1  0  0  0
 33 70  2  0  0  0
 34 36  1  0  0  0
 34 59  1  0  0  0
 34105  1  0  0  0
 35 44  2  0  0  0
 35 45  1  0  0  0
 35 68  1  0  0  0
 36 56  1  0  0  0
 36106  1  0  0  0
 37 39  1  0  0  0
 37 47  1  0  0  0
 37 66  1  0  0  0
 37107  1  0  0  0
 38 43  2  0  0  0
 38 46  1  0  0  0
 38 47  1  0  0  0
 39 64  1  0  0  0
 39 67  2  0  0  0
 40 52  1  0  0  0
 40 53  2  0  0  0
 40 58  1  0  0  0
 41108  1  0  0  0
 41109  1  0  0  0
 41110  1  0  0  0
 41 48  1  0  0  0
 42 43  1  0  0  0
 42 66  1  0  0  0
 42111  1  0  0  0
 42112  1  0  0  0
 43 44  1  0  0  0
 44113  1  0  0  0
 45 46  2  0  0  0
 45114  1  0  0  0
 46115  1  0  0  0
 47116  1  0  0  0
 47117  1  0  0  0
 48 56  1  0  0  0
 48 65  1  0  0  0
 48118  1  0  0  0
 49 50  1  0  0  0
 49 53  1  0  0  0
 49 64  1  0  0  0
 49119  1  0  0  0
 50 51  1  0  0  0
 50120  1  0  0  0
 50121  1  0  0  0
 51 52  1  0  0  0
 51122  1  0  0  0
 51123  1  0  0  0
 52124  1  0  0  0
 52125  1  0  0  0
 53 54  1  0  0  0
 54 55  2  0  0  0
 54126  1  0  0  0
 55 57  1  0  0  0
 55127  1  0  0  0
 56 69  2  0  0  0
 57 58  2  0  0  0
 57128  1  0  0  0
 58129  1  0  0  0
 59 60  1  0  0  0
 59 61  1  0  0  0
 59 62  1  0  0  0
 60130  1  0  0  0
 60131  1  0  0  0
 60132  1  0  0  0
 61133  1  0  0  0
 61134  1  0  0  0
 61135  1  0  0  0
 62136  1  0  0  0
 62137  1  0  0  0
 62138  1  0  0  0
 63 65  1  0  0  0
 63139  1  0  0  0
 63140  1  0  0  0
 63141  1  0  0  0
 64142  1  0  0  0
 65143  1  0  0  0
 68 79  1  0  0  0
 71 72  2  0  0  0
 71 73  1  0  0  0
 71144  1  0  0  0
 72 75  1  0  0  0
 72 82  1  0  0  0
 73 81  1  0  0  0
 73 83  2  0  0  0
 74 79  1  0  0  0
 74 82  2  0  0  0
 74 83  1  0  0  0
 75145  1  0  0  0
 75146  1  0  0  0
 75147  1  0  0  0
 76148  1  0  0  0
 76149  1  0  0  0
 76150  1  0  0  0
 76 81  1  0  0  0
 77 81  1  0  0  0
 77151  1  0  0  0
 77152  1  0  0  0
 77153  1  0  0  0
 78 84  1  0  0  0
 78154  1  0  0  0
 78155  1  0  0  0
 78156  1  0  0  0
 79157  1  0  0  0
 79158  1  0  0  0
 80 81  1  0  0  0
 80 84  1  0  0  0
 80159  1  0  0  0
 80160  1  0  0  0
M  ISO  4   1 100  68 101  79 101  84 100
M  END
> <chiral flag>
0

> <version>
0

> <s_m_source_file>
/data/baiqing/PycharmProjects/Reinvent-master-3.2/result/LINK_invent/BTK/process_docking_weight1_custom_sum_contain_oxygen_bond_distance_aromatic_linkinvent_7_9_3/rearranged_h_0055.sdf

> <i_m_source_file_index>
79

> <r_mmod_Potential_Energy-OPLS-2005>
397.304168701172

> <r_mmod_Stretch_Energy-OPLS-2005>
323.578369140625

> <r_mmod_Bend_Energy-OPLS-2005>
294.211242675781

> <r_mmod_Torsional_Energy-OPLS-2005>
293.657531738281

> <r_mmod_Improper_Torsional_Energy-OPLS-2005>
10.0174007415771

> <r_mmod_Van_der_Waal_Energy-OPLS-2005>
149.397079467773

> <r_mmod_Electrostatic_Energy-OPLS-2005>
-710.979125976562

> <r_mmod_Solvation_Energy-OPLS-2005>
-227.584426879883

> <b_mmod_Minimization_Converged-OPLS-2005>
0

> <r_mmod_RMS_Derivative-OPLS-2005>
1.73237800598145

$$$$
80
                    3D
 Structure written by MMmdl.
154162  0  0  1  0            999 V2000
  -30.5091  -15.0797   20.3480 C   0  0  0  0  0  0
  -30.4555  -12.6867   19.4731 C   0  0  0  0  0  0
  -29.5246  -12.5197   18.2484 C   0  0  0  0  0  0
  -28.0693  -12.2726   18.6815 C   0  0  0  0  0  0
  -27.6232  -13.2387   19.8053 C   0  0  2  0  0  0
  -28.6712  -13.3043   20.9345 C   0  0  0  0  0  0
  -25.2470  -13.8172   20.5578 C   0  0  0  0  0  0
  -24.1797  -13.0446   20.9224 C   0  0  0  0  0  0
  -24.6402  -11.6916   20.8755 C   0  0  0  0  0  0
  -23.9037  -10.4308   21.0389 C   0  0  0  0  0  0
  -24.3591   -9.4224   21.9147 C   0  0  0  0  0  0
  -23.6283   -8.2256   22.0727 C   0  0  0  0  0  0
  -22.4249   -8.0295   21.3529 C   0  0  0  0  0  0
  -21.9888   -9.0238   20.4600 C   0  0  0  0  0  0
  -22.7227  -10.2126   20.3010 C   0  0  0  0  0  0
  -21.6841   -6.0743   22.5272 C   0  0  0  0  0  0
  -21.3996   -6.5632   23.8217 C   0  0  0  0  0  0
  -21.3654   -5.6773   24.9175 C   0  0  0  0  0  0
  -21.6043   -4.3035   24.7212 C   0  0  0  0  0  0
  -21.8826   -3.8136   23.4335 C   0  0  0  0  0  0
  -21.9199   -4.6970   22.3392 C   0  0  0  0  0  0
  -22.7816  -13.5253   21.1897 C   0  0  0  0  0  0
  -22.1674   -4.2165   21.0968 F   0  0  0  0  0  0
  -21.5621   -3.4516   25.7718 F   0  0  0  0  0  0
  -29.9210  -13.7996   20.3237 N   0  0  0  0  0  0
  -26.2868  -12.9371   20.3071 N   0  0  0  0  0  0
  -25.9306  -11.6511   20.5642 N   0  0  0  0  0  0
  -22.0434  -12.8215   22.0407 N   0  0  0  0  0  0
  -25.4119  -15.1868   20.3892 N   0  0  0  0  0  0
  -31.7085  -15.1078   20.0462 O   0  0  0  0  0  0
  -21.6620   -6.8887   21.4235 O   0  0  0  0  0  0
  -22.3502  -14.5569   20.6774 O   0  0  0  0  0  0
  -24.6532  -31.8368   23.1829 C   0  0  0  0  0  0
  -25.9247  -32.4682   23.8283 C   0  0  1  0  0  0
  -27.2262  -27.1128   20.1146 C   0  0  0  0  0  0
  -25.5990  -33.8468   24.2254 N   0  0  0  0  0  0
  -23.4611  -30.4487   21.5325 C   0  0  2  0  0  0
  -24.9088  -28.8805   20.1015 C   0  0  0  0  0  0
  -22.7673  -29.4419   22.4878 C   0  0  0  0  0  0
  -18.0278  -28.1323   22.8429 C   0  0  0  0  0  0
  -24.1495  -36.7235   23.2654 C   0  0  0  0  0  0
  -26.0159  -30.6986   21.3885 C   0  0  0  0  0  0
  -26.0883  -29.3085   20.7298 C   0  0  0  0  0  0
  -27.2464  -28.4379   20.7229 C   0  0  0  0  0  0
  -26.0229  -26.8003   19.4489 C   0  0  0  0  0  0
  -24.8880  -27.6435   19.4451 C   0  0  0  0  0  0
  -23.6853  -29.7801   20.1514 C   0  0  0  0  0  0
  -25.4109  -36.3060   24.0393 C   0  0  1  0  0  0
  -20.5929  -28.3605   23.1258 C   0  0  2  0  0  0
  -20.6764  -26.9315   22.5400 C   0  0  0  0  0  0
  -19.5754  -26.6331   21.5185 C   0  0  0  0  0  0
  -18.1905  -26.7851   22.1583 C   0  0  0  0  0  0
  -19.1553  -28.8795   23.2787 C   0  0  0  0  0  0
  -18.9474  -30.1378   23.8834 C   0  0  0  0  0  0
  -17.6466  -30.6510   24.0501 C   0  0  0  0  0  0
  -25.9064  -34.9424   23.5146 C   0  0  0  0  0  0
  -16.5345  -29.9003   23.6329 C   0  0  0  0  0  0
  -16.7260  -28.6422   23.0364 C   0  0  0  0  0  0
  -26.4515  -31.6534   25.0719 C   0  0  0  0  0  0
  -25.3694  -31.3588   26.1423 C   0  0  0  0  0  0
  -27.0430  -30.2985   24.6255 C   0  0  0  0  0  0
  -27.6130  -32.4266   25.7432 C   0  0  0  0  0  0
  -27.5595  -37.1763   24.8500 C   0  0  0  0  0  0
  -21.4354  -29.2951   22.3687 N   0  0  0  0  0  0
  -26.4309  -37.3788   23.9479 N   0  0  0  0  0  0
  -24.7278  -31.0224   22.0885 N   0  0  0  0  0  0
  -23.4311  -28.7896   23.2970 O   0  0  0  0  0  0
  -28.2807  -26.1183   20.1018 O   0  0  0  0  0  0
  -26.5637  -34.8914   22.4717 O   0  0  0  0  0  0
  -23.5635  -32.1271   23.7013 O   0  0  0  0  0  0
  -29.7000  -20.9482   18.2941 C   0  0  0  0  0  0
  -29.2505  -20.7700   19.6211 C   0  0  0  0  0  0
  -29.3055  -23.2831   18.3236 C   0  0  0  0  0  0
  -28.7698  -23.2609   19.6459 C   0  0  0  0  0  0
  -29.4259  -24.5343   17.4607 C   0  0  0  0  0  0
  -28.7530  -16.4285   21.4942 C   0  0  0  0  0  0
  -29.2016  -19.2381   20.2756 C   0  0  0  0  0  0
  -27.9896  -24.5880   20.2997 C   0  0  0  0  0  0
  -29.9393  -17.7729   19.7560 C   0  0  0  0  0  0
  -29.7416  -22.1604   17.6769 N   0  0  0  0  0  0
  -28.7710  -21.9613   20.2620 N   0  0  0  0  0  0
  -29.7439  -16.3197   20.4231 N   0  0  0  0  0  0
  -31.4685  -12.8931   19.1213 H   0  0  0  0  0  0
  -30.5282  -11.7651   20.0485 H   0  0  0  0  0  0
  -29.8784  -11.6974   17.6237 H   0  0  0  0  0  0
  -29.5706  -13.4108   17.6240 H   0  0  0  0  0  0
  -28.0122  -11.2471   19.0430 H   0  0  0  0  0  0
  -27.3997  -12.3223   17.8222 H   0  0  0  0  0  0
  -27.5663  -14.2209   19.3342 H   0  0  0  0  0  0
  -28.8132  -12.3239   21.3876 H   0  0  0  0  0  0
  -28.3149  -13.9382   21.7392 H   0  0  0  0  0  0
  -25.2733   -9.5721   22.4732 H   0  0  0  0  0  0
  -23.9992   -7.4639   22.7451 H   0  0  0  0  0  0
  -21.0823   -8.8760   19.8885 H   0  0  0  0  0  0
  -22.3677  -10.9664   19.6105 H   0  0  0  0  0  0
  -21.1968   -7.6125   23.9736 H   0  0  0  0  0  0
  -21.1455   -6.0478   25.9084 H   0  0  0  0  0  0
  -22.0600   -2.7604   23.2818 H   0  0  0  0  0  0
  -22.3996  -11.9888   22.4874 H   0  0  0  0  0  0
  -21.1023  -13.1203   22.2489 H   0  0  0  0  0  0
  -24.6458  -15.8479   20.4771 H   0  0  0  0  0  0
  -26.2583  -15.6104   20.0282 H   0  0  0  0  0  0
  -26.7319  -32.5279   23.1013 H   0  0  0  0  0  0
  -25.0291  -33.9535   25.0533 H   0  0  0  0  0  0
  -22.7638  -31.2739   21.3812 H   0  0  0  0  0  0
  -23.3819  -35.9500   23.3255 H   0  0  0  0  0  0
  -24.3599  -36.8905   22.2082 H   0  0  0  0  0  0
  -23.7114  -37.6380   23.6658 H   0  0  0  0  0  0
  -26.1799  -31.4460   20.6096 H   0  0  0  0  0  0
  -26.8840  -30.7488   22.0337 H   0  0  0  0  0  0
  -28.1478  -28.7502   21.2371 H   0  0  0  0  0  0
  -25.9321  -25.8676   18.9134 H   0  0  0  0  0  0
  -23.9976  -27.3275   18.9153 H   0  0  0  0  0  0
  -23.8074  -30.5514   19.3879 H   0  0  0  0  0  0
  -22.8056  -29.2091   19.8540 H   0  0  0  0  0  0
  -25.1243  -36.1972   25.0885 H   0  0  0  0  0  0
  -20.9926  -28.3118   24.1414 H   0  0  0  0  0  0
  -20.5684  -26.2179   23.3594 H   0  0  0  0  0  0
  -21.6618  -26.7355   22.1177 H   0  0  0  0  0  0
  -19.6939  -25.6257   21.1184 H   0  0  0  0  0  0
  -19.6700  -27.3193   20.6751 H   0  0  0  0  0  0
  -17.4214  -26.6635   21.3905 H   0  0  0  0  0  0
  -18.0187  -25.9976   22.8974 H   0  0  0  0  0  0
  -19.7972  -30.7130   24.2279 H   0  0  0  0  0  0
  -17.5040  -31.6227   24.5037 H   0  0  0  0  0  0
  -15.5334  -30.2867   23.7692 H   0  0  0  0  0  0
  -15.8676  -28.0685   22.7188 H   0  0  0  0  0  0
  -24.6071  -30.6723   25.7689 H   0  0  0  0  0  0
  -24.8593  -32.2643   26.4752 H   0  0  0  0  0  0
  -25.8013  -30.8876   27.0274 H   0  0  0  0  0  0
  -26.3067  -29.6673   24.1277 H   0  0  0  0  0  0
  -27.4139  -29.7311   25.4795 H   0  0  0  0  0  0
  -27.8906  -30.4303   23.9519 H   0  0  0  0  0  0
  -27.2961  -33.3796   26.1684 H   0  0  0  0  0  0
  -28.4006  -32.6447   25.0189 H   0  0  0  0  0  0
  -28.0687  -31.8548   26.5537 H   0  0  0  0  0  0
  -28.2599  -38.0086   24.7675 H   0  0  0  0  0  0
  -28.1119  -36.2648   24.6195 H   0  0  0  0  0  0
  -27.2330  -37.1243   25.8904 H   0  0  0  0  0  0
  -20.9657  -29.8763   21.6899 H   0  0  0  0  0  0
  -26.0216  -38.2879   24.1487 H   0  0  0  0  0  0
  -30.0030  -20.1092   17.6849 H   0  0  0  0  0  0
  -28.8160  -24.4388   16.5615 H   0  0  0  0  0  0
  -30.4597  -24.6545   17.1319 H   0  0  0  0  0  0
  -29.1417  -25.4580   17.9570 H   0  0  0  0  0  0
  -27.7831  -16.1186   21.1194 H   0  0  0  0  0  0
  -28.6360  -17.4304   21.8952 H   0  0  0  0  0  0
  -29.0270  -15.8311   22.3639 H   0  0  0  0  0  0
  -28.1337  -19.0316   20.3303 H   0  0  0  0  0  0
  -29.5248  -19.3808   21.3040 H   0  0  0  0  0  0
  -28.0109  -24.4410   21.3798 H   0  0  0  0  0  0
  -26.9499  -24.3998   20.0467 H   0  0  0  0  0  0
  -31.0154  -17.9458   19.7148 H   0  0  0  0  0  0
  -29.6522  -17.6412   18.7102 H   0  0  0  0  0  0
  1 25  1  0  0  0
  1 30  2  0  0  0
  1 82  1  0  0  0
  2  3  1  0  0  0
  2 25  1  0  0  0
  2 83  1  0  0  0
  2 84  1  0  0  0
  3  4  1  0  0  0
  3 85  1  0  0  0
  3 86  1  0  0  0
  4  5  1  0  0  0
  4 87  1  0  0  0
  4 88  1  0  0  0
  5  6  1  0  0  0
  5 26  1  0  0  0
  5 89  1  0  0  0
  6 25  1  0  0  0
  6 90  1  0  0  0
  6 91  1  0  0  0
  7  8  2  0  0  0
  7 26  1  0  0  0
  7 29  1  0  0  0
  8  9  1  0  0  0
  8 22  1  0  0  0
  9 10  1  0  0  0
  9 27  2  0  0  0
 10 11  2  0  0  0
 10 15  1  0  0  0
 11 12  1  0  0  0
 11 92  1  0  0  0
 12 13  2  0  0  0
 12 93  1  0  0  0
 13 14  1  0  0  0
 13 31  1  0  0  0
 14 15  2  0  0  0
 14 94  1  0  0  0
 15 95  1  0  0  0
 16 17  2  0  0  0
 16 21  1  0  0  0
 16 31  1  0  0  0
 17 18  1  0  0  0
 17 96  1  0  0  0
 18 19  2  0  0  0
 18 97  1  0  0  0
 19 20  1  0  0  0
 19 24  1  0  0  0
 20 21  2  0  0  0
 20 98  1  0  0  0
 21 23  1  0  0  0
 22 28  1  0  0  0
 22 32  2  0  0  0
 26 27  1  0  0  0
 28 99  1  0  0  0
 28100  1  0  0  0
 29101  1  0  0  0
 29102  1  0  0  0
 33 34  1  0  0  0
 33 66  1  0  0  0
 33 70  2  0  0  0
 34 36  1  0  0  0
 34 59  1  0  0  0
 34103  1  0  0  0
 35 44  2  0  0  0
 35 45  1  0  0  0
 35 68  1  0  0  0
 36 56  1  0  0  0
 36104  1  0  0  0
 37 39  1  0  0  0
 37 47  1  0  0  0
 37 66  1  0  0  0
 37105  1  0  0  0
 38 43  2  0  0  0
 38 46  1  0  0  0
 38 47  1  0  0  0
 39 64  1  0  0  0
 39 67  2  0  0  0
 40 52  1  0  0  0
 40 53  2  0  0  0
 40 58  1  0  0  0
 41106  1  0  0  0
 41107  1  0  0  0
 41108  1  0  0  0
 41 48  1  0  0  0
 42 43  1  0  0  0
 42 66  1  0  0  0
 42109  1  0  0  0
 42110  1  0  0  0
 43 44  1  0  0  0
 44111  1  0  0  0
 45 46  2  0  0  0
 45112  1  0  0  0
 46113  1  0  0  0
 47114  1  0  0  0
 47115  1  0  0  0
 48 56  1  0  0  0
 48 65  1  0  0  0
 48116  1  0  0  0
 49 50  1  0  0  0
 49 53  1  0  0  0
 49 64  1  0  0  0
 49117  1  0  0  0
 50 51  1  0  0  0
 50118  1  0  0  0
 50119  1  0  0  0
 51 52  1  0  0  0
 51120  1  0  0  0
 51121  1  0  0  0
 52122  1  0  0  0
 52123  1  0  0  0
 53 54  1  0  0  0
 54 55  2  0  0  0
 54124  1  0  0  0
 55 57  1  0  0  0
 55125  1  0  0  0
 56 69  2  0  0  0
 57 58  2  0  0  0
 57126  1  0  0  0
 58127  1  0  0  0
 59 60  1  0  0  0
 59 61  1  0  0  0
 59 62  1  0  0  0
 60128  1  0  0  0
 60129  1  0  0  0
 60130  1  0  0  0
 61131  1  0  0  0
 61132  1  0  0  0
 61133  1  0  0  0
 62134  1  0  0  0
 62135  1  0  0  0
 62136  1  0  0  0
 63 65  1  0  0  0
 63137  1  0  0  0
 63138  1  0  0  0
 63139  1  0  0  0
 64140  1  0  0  0
 65141  1  0  0  0
 68 78  1  0  0  0
 71 72  2  0  0  0
 71 80  1  0  0  0
 71142  1  0  0  0
 72 77  1  0  0  0
 72 81  1  0  0  0
 73 74  1  0  0  0
 73 75  1  0  0  0
 73 80  2  0  0  0
 74 78  1  0  0  0
 74 81  2  0  0  0
 75143  1  0  0  0
 75144  1  0  0  0
 75145  1  0  0  0
 76 82  1  0  0  0
 76146  1  0  0  0
 76147  1  0  0  0
 76148  1  0  0  0
 77 79  1  0  0  0
 77149  1  0  0  0
 77150  1  0  0  0
 78151  1  0  0  0
 78152  1  0  0  0
 79 82  1  0  0  0
 79153  1  0  0  0
 79154  1  0  0  0
M  ISO  4   1 100  68 101  78 101  82 100
M  END
> <chiral flag>
0

> <version>
0

> <s_m_source_file>
/data/baiqing/PycharmProjects/Reinvent-master-3.2/result/LINK_invent/BTK/process_docking_weight1_custom_sum_contain_oxygen_bond_distance_aromatic_linkinvent_7_9_3/rearranged_h_0055.sdf

> <i_m_source_file_index>
80

> <r_mmod_Potential_Energy-OPLS-2005>
875.292785644531

> <r_mmod_Stretch_Energy-OPLS-2005>
327.178161621094

> <r_mmod_Bend_Energy-OPLS-2005>
293.320831298828

> <r_mmod_Torsional_Energy-OPLS-2005>
287.214813232422

> <r_mmod_Improper_Torsional_Energy-OPLS-2005>
8.38306427001953

> <r_mmod_Van_der_Waal_Energy-OPLS-2005>
142.673461914062

> <r_mmod_Electrostatic_Energy-OPLS-2005>
-219.11083984375

> <r_mmod_Solvation_Energy-OPLS-2005>
-219.628326416016

> <b_mmod_Minimization_Converged-OPLS-2005>
0

> <r_mmod_RMS_Derivative-OPLS-2005>
7.51442337036133

$$$$
81
                    3D
 Structure written by MMmdl.
146154  0  0  1  0            999 V2000
  -30.3935  -15.5192   20.3158 C   0  0  0  0  0  0
  -30.4185  -12.9787   19.5667 C   0  0  0  0  0  0
  -29.5515  -12.6372   18.3240 C   0  0  0  0  0  0
  -28.1113  -12.3087   18.7428 C   0  0  0  0  0  0
  -27.5946  -13.3081   19.8059 C   0  0  2  0  0  0
  -28.6064  -13.6149   20.9330 C   0  0  0  0  0  0
  -25.2326  -13.8297   20.5782 C   0  0  0  0  0  0
  -24.1705  -13.0447   20.9270 C   0  0  0  0  0  0
  -24.6390  -11.6952   20.8722 C   0  0  0  0  0  0
  -23.9089  -10.4297   21.0364 C   0  0  0  0  0  0
  -24.3634   -9.4222   21.9154 C   0  0  0  0  0  0
  -23.6312   -8.2256   22.0735 C   0  0  0  0  0  0
  -22.4294   -8.0284   21.3535 C   0  0  0  0  0  0
  -21.9928   -9.0242   20.4619 C   0  0  0  0  0  0
  -22.7251  -10.2126   20.3022 C   0  0  0  0  0  0
  -21.6864   -6.0732   22.5280 C   0  0  0  0  0  0
  -21.4022   -6.5628   23.8213 C   0  0  0  0  0  0
  -21.3673   -5.6781   24.9176 C   0  0  0  0  0  0
  -21.6058   -4.3044   24.7220 C   0  0  0  0  0  0
  -21.8818   -3.8139   23.4337 C   0  0  0  0  0  0
  -21.9191   -4.6953   22.3393 C   0  0  0  0  0  0
  -22.7716  -13.5178   21.1910 C   0  0  0  0  0  0
  -22.1654   -4.2146   21.0970 F   0  0  0  0  0  0
  -21.5643   -3.4523   25.7729 F   0  0  0  0  0  0
  -29.8196  -14.1800   20.3051 N   0  0  0  0  0  0
  -26.2750  -12.9625   20.3158 N   0  0  0  0  0  0
  -25.9330  -11.6694   20.5632 N   0  0  0  0  0  0
  -22.0367  -12.8165   22.0466 N   0  0  0  0  0  0
  -25.3970  -15.2041   20.4284 N   0  0  0  0  0  0
  -31.6195  -15.3817   20.1328 O   0  0  0  0  0  0
  -21.6659   -6.8881   21.4243 O   0  0  0  0  0  0
  -22.3385  -14.5462   20.6727 O   0  0  0  0  0  0
  -24.6792  -31.8056   23.1552 C   0  0  0  0  0  0
  -25.9405  -32.4487   23.8075 C   0  0  1  0  0  0
  -27.2189  -26.7593   20.2029 C   0  0  0  0  0  0
  -25.6011  -33.8312   24.1973 N   0  0  0  0  0  0
  -23.5006  -30.4090   21.5100 C   0  0  2  0  0  0
  -24.9538  -28.7617   20.1129 C   0  0  0  0  0  0
  -22.7740  -29.4343   22.4752 C   0  0  0  0  0  0
  -18.0332  -28.1423   22.8462 C   0  0  0  0  0  0
  -24.1498  -36.7173   23.2643 C   0  0  0  0  0  0
  -26.0771  -30.5552   21.4091 C   0  0  0  0  0  0
  -26.1407  -29.1270   20.7585 C   0  0  0  0  0  0
  -27.2601  -28.1517   20.7735 C   0  0  0  0  0  0
  -26.0009  -26.5860   19.5012 C   0  0  0  0  0  0
  -24.9196  -27.5162   19.4609 C   0  0  0  0  0  0
  -23.7476  -29.7111   20.1421 C   0  0  0  0  0  0
  -25.4149  -36.2913   24.0280 C   0  0  1  0  0  0
  -20.5964  -28.3771   23.1183 C   0  0  2  0  0  0
  -20.6809  -26.9440   22.5419 C   0  0  0  0  0  0
  -19.5783  -26.6376   21.5235 C   0  0  0  0  0  0
  -18.1961  -26.7953   22.1626 C   0  0  0  0  0  0
  -19.1597  -28.8924   23.2798 C   0  0  0  0  0  0
  -18.9496  -30.1515   23.8828 C   0  0  0  0  0  0
  -17.6487  -30.6606   24.0556 C   0  0  0  0  0  0
  -25.9131  -34.9300   23.4961 C   0  0  0  0  0  0
  -16.5377  -29.9084   23.6353 C   0  0  0  0  0  0
  -16.7314  -28.6514   23.0360 C   0  0  0  0  0  0
  -26.4593  -31.6487   25.0671 C   0  0  0  0  0  0
  -25.3673  -31.3809   26.1303 C   0  0  0  0  0  0
  -27.0500  -30.2823   24.6514 C   0  0  0  0  0  0
  -27.6043  -32.4332   25.7491 C   0  0  0  0  0  0
  -27.5577  -37.1746   24.8460 C   0  0  0  0  0  0
  -21.4397  -29.3025   22.3512 N   0  0  0  0  0  0
  -26.4282  -37.3671   23.9408 N   0  0  0  0  0  0
  -24.7754  -30.9555   22.0776 N   0  0  0  0  0  0
  -23.4215  -28.7947   23.3081 O   0  0  0  0  0  0
  -28.1965  -25.5757   20.2963 O   0  0  0  0  0  0
  -26.5762  -34.8875   22.4572 O   0  0  0  0  0  0
  -23.5829  -32.1113   23.6549 O   0  0  0  0  0  0
  -28.7284  -17.9440   20.9637 C   0  0  0  0  0  0
  -29.8187  -17.1880   20.2871 C   0  0  0  0  0  0
  -30.2153  -19.6730   19.6200 C   0  0  0  0  0  0
  -29.1205  -20.4358   20.2722 C   0  0  0  0  0  0
  -31.2636  -20.4623   18.8611 C   0  0  0  0  0  0
  -29.0020  -22.2665   20.5148 C   0  0  0  0  0  0
  -28.0526  -23.8593   20.0679 C   0  0  0  0  0  0
  -28.4300  -19.3874   20.9599 N   0  0  0  0  0  0
  -30.5058  -18.2475   19.6316 N   0  0  0  0  0  0
  -31.4374  -13.1756   19.2330 H   0  0  0  0  0  0
  -30.5077  -12.1112   20.2244 H   0  0  0  0  0  0
  -29.9849  -11.8036   17.7700 H   0  0  0  0  0  0
  -29.5487  -13.4930   17.6460 H   0  0  0  0  0  0
  -28.1078  -11.2988   19.1546 H   0  0  0  0  0  0
  -27.4535  -12.2916   17.8728 H   0  0  0  0  0  0
  -27.4689  -14.2398   19.2529 H   0  0  0  0  0  0
  -28.8228  -12.7281   21.5308 H   0  0  0  0  0  0
  -28.1895  -14.3520   21.6204 H   0  0  0  0  0  0
  -25.2769   -9.5720   22.4740 H   0  0  0  0  0  0
  -24.0023   -7.4658   22.7460 H   0  0  0  0  0  0
  -21.0867   -8.8732   19.8921 H   0  0  0  0  0  0
  -22.3681  -10.9651   19.6133 H   0  0  0  0  0  0
  -21.2010   -7.6139   23.9718 H   0  0  0  0  0  0
  -21.1513   -6.0507   25.9082 H   0  0  0  0  0  0
  -22.0586   -2.7597   23.2829 H   0  0  0  0  0  0
  -22.3991  -11.9869   22.4929 H   0  0  0  0  0  0
  -21.0955  -13.1156   22.2599 H   0  0  0  0  0  0
  -24.6345  -15.8583   20.5664 H   0  0  0  0  0  0
  -26.2425  -15.6479   20.0946 H   0  0  0  0  0  0
  -26.7486  -32.4963   23.0784 H   0  0  0  0  0  0
  -25.0084  -33.9362   25.0076 H   0  0  0  0  0  0
  -22.8219  -31.2451   21.3284 H   0  0  0  0  0  0
  -23.3779  -35.9482   23.3252 H   0  0  0  0  0  0
  -24.3564  -36.8889   22.2067 H   0  0  0  0  0  0
  -23.7242  -37.6334   23.6754 H   0  0  0  0  0  0
  -26.2740  -31.2821   20.6201 H   0  0  0  0  0  0
  -26.9319  -30.6195   22.0700 H   0  0  0  0  0  0
  -28.1536  -28.4342   21.3113 H   0  0  0  0  0  0
  -25.8445  -25.6381   19.0054 H   0  0  0  0  0  0
  -24.0231  -27.2297   18.9289 H   0  0  0  0  0  0
  -23.9143  -30.4743   19.3815 H   0  0  0  0  0  0
  -22.8521  -29.1756   19.8217 H   0  0  0  0  0  0
  -25.1351  -36.1678   25.0770 H   0  0  0  0  0  0
  -21.0035  -28.3385   24.1317 H   0  0  0  0  0  0
  -20.5698  -26.2389   23.3669 H   0  0  0  0  0  0
  -21.6670  -26.7409   22.1223 H   0  0  0  0  0  0
  -19.6939  -25.6270   21.1310 H   0  0  0  0  0  0
  -19.6735  -27.3153   20.6742 H   0  0  0  0  0  0
  -17.4240  -26.6712   21.4016 H   0  0  0  0  0  0
  -18.0327  -26.0107   22.9027 H   0  0  0  0  0  0
  -19.7971  -30.7359   24.2153 H   0  0  0  0  0  0
  -17.5032  -31.6279   24.5173 H   0  0  0  0  0  0
  -15.5373  -30.2956   23.7728 H   0  0  0  0  0  0
  -15.8717  -28.0817   22.7092 H   0  0  0  0  0  0
  -24.5857  -30.7156   25.7622 H   0  0  0  0  0  0
  -24.8869  -32.3041   26.4549 H   0  0  0  0  0  0
  -25.7861  -30.9087   27.0199 H   0  0  0  0  0  0
  -26.3195  -29.6463   24.1502 H   0  0  0  0  0  0
  -27.3956  -29.7228   25.5219 H   0  0  0  0  0  0
  -27.9169  -30.3959   24.0001 H   0  0  0  0  0  0
  -27.2571  -33.3686   26.1894 H   0  0  0  0  0  0
  -28.3945  -32.6812   25.0390 H   0  0  0  0  0  0
  -28.0611  -31.8578   26.5554 H   0  0  0  0  0  0
  -28.2550  -38.0083   24.7525 H   0  0  0  0  0  0
  -28.1122  -36.2610   24.6260 H   0  0  0  0  0  0
  -27.2304  -37.1344   25.8865 H   0  0  0  0  0  0
  -20.9692  -29.8662   21.6569 H   0  0  0  0  0  0
  -26.0110  -38.2725   24.1413 H   0  0  0  0  0  0
  -28.0623  -17.3717   21.5916 H   0  0  0  0  0  0
  -30.8030  -21.2595   18.2780 H   0  0  0  0  0  0
  -31.8245  -19.8313   18.1708 H   0  0  0  0  0  0
  -31.9714  -20.9093   19.5593 H   0  0  0  0  0  0
  -30.0161  -22.5547   20.2442 H   0  0  0  0  0  0
  -29.0159  -22.3144   21.6026 H   0  0  0  0  0  0
  -27.0352  -23.6601   20.4062 H   0  0  0  0  0  0
  -27.9791  -23.7995   18.9818 H   0  0  0  0  0  0
  1 25  1  0  0  0
  1 30  2  0  0  0
  1 72  1  0  0  0
  2  3  1  0  0  0
  2 25  1  0  0  0
  2 80  1  0  0  0
  2 81  1  0  0  0
  3  4  1  0  0  0
  3 82  1  0  0  0
  3 83  1  0  0  0
  4  5  1  0  0  0
  4 84  1  0  0  0
  4 85  1  0  0  0
  5  6  1  0  0  0
  5 26  1  0  0  0
  5 86  1  0  0  0
  6 25  1  0  0  0
  6 87  1  0  0  0
  6 88  1  0  0  0
  7  8  2  0  0  0
  7 26  1  0  0  0
  7 29  1  0  0  0
  8  9  1  0  0  0
  8 22  1  0  0  0
  9 10  1  0  0  0
  9 27  2  0  0  0
 10 11  2  0  0  0
 10 15  1  0  0  0
 11 12  1  0  0  0
 11 89  1  0  0  0
 12 13  2  0  0  0
 12 90  1  0  0  0
 13 14  1  0  0  0
 13 31  1  0  0  0
 14 15  2  0  0  0
 14 91  1  0  0  0
 15 92  1  0  0  0
 16 17  2  0  0  0
 16 21  1  0  0  0
 16 31  1  0  0  0
 17 18  1  0  0  0
 17 93  1  0  0  0
 18 19  2  0  0  0
 18 94  1  0  0  0
 19 20  1  0  0  0
 19 24  1  0  0  0
 20 21  2  0  0  0
 20 95  1  0  0  0
 21 23  1  0  0  0
 22 28  1  0  0  0
 22 32  2  0  0  0
 26 27  1  0  0  0
 28 96  1  0  0  0
 28 97  1  0  0  0
 29 98  1  0  0  0
 29 99  1  0  0  0
 33 34  1  0  0  0
 33 66  1  0  0  0
 33 70  2  0  0  0
 34 36  1  0  0  0
 34 59  1  0  0  0
 34100  1  0  0  0
 35 44  2  0  0  0
 35 45  1  0  0  0
 35 68  1  0  0  0
 36 56  1  0  0  0
 36101  1  0  0  0
 37 39  1  0  0  0
 37 47  1  0  0  0
 37 66  1  0  0  0
 37102  1  0  0  0
 38 43  2  0  0  0
 38 46  1  0  0  0
 38 47  1  0  0  0
 39 64  1  0  0  0
 39 67  2  0  0  0
 40 52  1  0  0  0
 40 53  2  0  0  0
 40 58  1  0  0  0
 41103  1  0  0  0
 41104  1  0  0  0
 41105  1  0  0  0
 41 48  1  0  0  0
 42 43  1  0  0  0
 42 66  1  0  0  0
 42106  1  0  0  0
 42107  1  0  0  0
 43 44  1  0  0  0
 44108  1  0  0  0
 45 46  2  0  0  0
 45109  1  0  0  0
 46110  1  0  0  0
 47111  1  0  0  0
 47112  1  0  0  0
 48 56  1  0  0  0
 48 65  1  0  0  0
 48113  1  0  0  0
 49 50  1  0  0  0
 49 53  1  0  0  0
 49 64  1  0  0  0
 49114  1  0  0  0
 50 51  1  0  0  0
 50115  1  0  0  0
 50116  1  0  0  0
 51 52  1  0  0  0
 51117  1  0  0  0
 51118  1  0  0  0
 52119  1  0  0  0
 52120  1  0  0  0
 53 54  1  0  0  0
 54 55  2  0  0  0
 54121  1  0  0  0
 55 57  1  0  0  0
 55122  1  0  0  0
 56 69  2  0  0  0
 57 58  2  0  0  0
 57123  1  0  0  0
 58124  1  0  0  0
 59 60  1  0  0  0
 59 61  1  0  0  0
 59 62  1  0  0  0
 60125  1  0  0  0
 60126  1  0  0  0
 60127  1  0  0  0
 61128  1  0  0  0
 61129  1  0  0  0
 61130  1  0  0  0
 62131  1  0  0  0
 62132  1  0  0  0
 62133  1  0  0  0
 63 65  1  0  0  0
 63134  1  0  0  0
 63135  1  0  0  0
 63136  1  0  0  0
 64137  1  0  0  0
 65138  1  0  0  0
 68 77  1  0  0  0
 71 72  2  0  0  0
 71 78  1  0  0  0
 71139  1  0  0  0
 72 79  1  0  0  0
 73 74  1  0  0  0
 73 75  1  0  0  0
 73 79  2  0  0  0
 74 76  1  0  0  0
 74 78  2  0  0  0
 75140  1  0  0  0
 75141  1  0  0  0
 75142  1  0  0  0
 76 77  1  0  0  0
 76143  1  0  0  0
 76144  1  0  0  0
 77145  1  0  0  0
 77146  1  0  0  0
M  ISO  4   1 100  68 101  72 100  77 101
M  END
> <chiral flag>
0

> <version>
0

> <s_m_source_file>
/data/baiqing/PycharmProjects/Reinvent-master-3.2/result/LINK_invent/BTK/process_docking_weight1_custom_sum_contain_oxygen_bond_distance_aromatic_linkinvent_7_9_3/rearranged_h_0055.sdf

> <i_m_source_file_index>
81

> <r_mmod_Potential_Energy-OPLS-2005>
2189.29541015625

> <r_mmod_Stretch_Energy-OPLS-2005>
886.763305664062

> <r_mmod_Bend_Energy-OPLS-2005>
642.812927246094

> <r_mmod_Torsional_Energy-OPLS-2005>
194.538848876953

> <r_mmod_Improper_Torsional_Energy-OPLS-2005>
7.80698680877686

> <r_mmod_Van_der_Waal_Energy-OPLS-2005>
132.827667236328

> <r_mmod_Electrostatic_Energy-OPLS-2005>
-196.108474731445

> <r_mmod_Solvation_Energy-OPLS-2005>
-222.461715698242

> <b_mmod_Minimization_Converged-OPLS-2005>
0

> <r_mmod_RMS_Derivative-OPLS-2005>
1.74874925613403

$$$$
82
                    3D
 Structure written by MMmdl.
160168  0  0  1  0            999 V2000
  -30.6869  -14.5819   20.4239 C   0  0  0  0  0  0
  -30.4237  -12.3440   19.4324 C   0  0  0  0  0  0
  -29.4849  -12.4333   18.2108 C   0  0  0  0  0  0
  -28.0105  -12.3067   18.6392 C   0  0  0  0  0  0
  -27.6405  -13.2022   19.8529 C   0  0  2  0  0  0
  -28.7014  -13.1140   20.9716 C   0  0  0  0  0  0
  -25.2546  -13.8132   20.5753 C   0  0  0  0  0  0
  -24.1795  -13.0420   20.9229 C   0  0  0  0  0  0
  -24.6350  -11.6886   20.8791 C   0  0  0  0  0  0
  -23.9026  -10.4280   21.0436 C   0  0  0  0  0  0
  -24.3591   -9.4196   21.9200 C   0  0  0  0  0  0
  -23.6274   -8.2230   22.0756 C   0  0  0  0  0  0
  -22.4259   -8.0270   21.3543 C   0  0  0  0  0  0
  -21.9890   -9.0245   20.4652 C   0  0  0  0  0  0
  -22.7211  -10.2127   20.3073 C   0  0  0  0  0  0
  -21.6847   -6.0731   22.5283 C   0  0  0  0  0  0
  -21.4012   -6.5637   23.8217 C   0  0  0  0  0  0
  -21.3655   -5.6787   24.9178 C   0  0  0  0  0  0
  -21.6043   -4.3051   24.7224 C   0  0  0  0  0  0
  -21.8817   -3.8144   23.4344 C   0  0  0  0  0  0
  -21.9193   -4.6962   22.3404 C   0  0  0  0  0  0
  -22.7827  -13.5238   21.1855 C   0  0  0  0  0  0
  -22.1659   -4.2153   21.0980 F   0  0  0  0  0  0
  -21.5628   -3.4533   25.7734 F   0  0  0  0  0  0
  -30.0112  -13.3988   20.3689 N   0  0  0  0  0  0
  -26.2943  -12.9275   20.3389 N   0  0  0  0  0  0
  -25.9278  -11.6452   20.5846 N   0  0  0  0  0  0
  -22.0438  -12.8256   22.0406 N   0  0  0  0  0  0
  -25.4286  -15.1853   20.4174 N   0  0  0  0  0  0
  -31.9027  -14.6479   20.2503 O   0  0  0  0  0  0
  -21.6624   -6.8870   21.4243 O   0  0  0  0  0  0
  -22.3545  -14.5544   20.6682 O   0  0  0  0  0  0
  -24.6174  -31.8652   23.2088 C   0  0  0  0  0  0
  -25.9061  -32.4807   23.8388 C   0  0  1  0  0  0
  -27.2321  -27.3984   20.1010 C   0  0  0  0  0  0
  -25.5909  -33.8609   24.2325 N   0  0  0  0  0  0
  -23.4052  -30.4890   21.5501 C   0  0  2  0  0  0
  -24.8511  -28.9494   20.1128 C   0  0  0  0  0  0
  -22.7414  -29.4655   22.5001 C   0  0  0  0  0  0
  -18.0264  -28.1366   22.8500 C   0  0  0  0  0  0
  -24.1480  -36.7307   23.2640 C   0  0  0  0  0  0
  -25.9376  -30.8184   21.3671 C   0  0  0  0  0  0
  -26.0115  -29.4496   20.7148 C   0  0  0  0  0  0
  -27.1998  -28.6790   20.7103 C   0  0  0  0  0  0
  -26.0500  -26.9248   19.4843 C   0  0  0  0  0  0
  -24.8666  -27.6869   19.4963 C   0  0  0  0  0  0
  -23.6141  -29.8186   20.1652 C   0  0  0  0  0  0
  -25.4104  -36.3105   24.0343 C   0  0  1  0  0  0
  -20.5856  -28.3656   23.1312 C   0  0  2  0  0  0
  -20.6757  -26.9389   22.5418 C   0  0  0  0  0  0
  -19.5738  -26.6372   21.5211 C   0  0  0  0  0  0
  -18.1915  -26.7918   22.1620 C   0  0  0  0  0  0
  -19.1519  -28.8828   23.2898 C   0  0  0  0  0  0
  -18.9453  -30.1436   23.8910 C   0  0  0  0  0  0
  -17.6457  -30.6579   24.0562 C   0  0  0  0  0  0
  -25.9032  -34.9467   23.5133 C   0  0  0  0  0  0
  -16.5344  -29.9083   23.6324 C   0  0  0  0  0  0
  -16.7257  -28.6489   23.0362 C   0  0  0  0  0  0
  -26.4492  -31.6592   25.0726 C   0  0  0  0  0  0
  -25.3769  -31.3695   26.1485 C   0  0  0  0  0  0
  -27.0346  -30.3038   24.6115 C   0  0  0  0  0  0
  -27.6057  -32.4327   25.7491 C   0  0  0  0  0  0
  -27.5581  -37.1809   24.8471 C   0  0  0  0  0  0
  -21.4142  -29.3028   22.3735 N   0  0  0  0  0  0
  -26.4290  -37.3793   23.9417 N   0  0  0  0  0  0
  -24.6720  -31.0728   22.1000 N   0  0  0  0  0  0
  -23.4173  -28.8199   23.3051 O   0  0  0  0  0  0
  -28.4049  -26.6577   20.1549 O   0  0  0  0  0  0
  -26.5585  -34.8926   22.4689 O   0  0  0  0  0  0
  -23.5364  -32.1418   23.7474 O   0  0  0  0  0  0
  -30.4759  -20.1475   20.0172 C   0  0  0  0  0  0
  -28.9100  -20.2787   21.7795 C   0  0  0  0  0  0
  -29.6622  -20.9730   20.8137 C   0  0  0  0  0  0
  -29.7980  -18.2429   21.1261 C   0  0  0  0  0  0
  -29.7631  -22.5183   20.6652 C   0  0  0  0  0  0
  -29.9648  -16.7232   21.4077 C   0  0  0  0  0  0
  -29.6217  -16.1784   18.9348 C   0  0  0  0  0  0
  -27.8540  -24.1401   20.1011 C   0  0  0  0  0  0
  -28.5337  -25.3959   19.4568 C   0  0  0  0  0  0
  -30.8340  -16.3445   17.9818 C   0  0  0  0  0  0
  -30.5493  -18.8077   20.1891 N   0  0  0  0  0  0
  -28.9738  -18.9292   21.9181 N   0  0  0  0  0  0
  -29.9343  -15.7099   20.3080 N   0  0  0  0  0  0
  -28.6484  -23.4026   21.1348 N   0  3  0  0  0  0
  -31.2566  -15.1674   17.5259 F   0  0  0  0  0  0
  -30.4328  -17.0540   16.9281 F   0  0  0  0  0  0
  -31.8620  -16.9788   18.5391 F   0  0  0  0  0  0
  -31.4629  -12.4523   19.1148 H   0  0  0  0  0  0
  -30.3511  -11.3651   19.9096 H   0  0  0  0  0  0
  -29.7304  -11.6464   17.4962 H   0  0  0  0  0  0
  -29.6295  -13.3707   17.6789 H   0  0  0  0  0  0
  -27.8418  -11.2600   18.8941 H   0  0  0  0  0  0
  -27.3521  -12.5204   17.7963 H   0  0  0  0  0  0
  -27.6205  -14.2233   19.4899 H   0  0  0  0  0  0
  -28.7043  -12.1226   21.4262 H   0  0  0  0  0  0
  -28.4743  -13.8237   21.7698 H   0  0  0  0  0  0
  -25.2730   -9.5678   22.4779 H   0  0  0  0  0  0
  -23.9992   -7.4619   22.7462 H   0  0  0  0  0  0
  -21.0828   -8.8763   19.8949 H   0  0  0  0  0  0
  -22.3675  -10.9673   19.6186 H   0  0  0  0  0  0
  -21.2004   -7.6144   23.9727 H   0  0  0  0  0  0
  -21.1478   -6.0512   25.9085 H   0  0  0  0  0  0
  -22.0599   -2.7608   23.2840 H   0  0  0  0  0  0
  -22.4018  -11.9929   22.4846 H   0  0  0  0  0  0
  -21.1053  -13.1318   22.2563 H   0  0  0  0  0  0
  -24.6627  -15.8401   20.5332 H   0  0  0  0  0  0
  -26.2876  -15.6297   20.1227 H   0  0  0  0  0  0
  -26.7139  -32.5498   23.1152 H   0  0  0  0  0  0
  -25.0125  -33.9768   25.0519 H   0  0  0  0  0  0
  -22.6945  -31.3062   21.4101 H   0  0  0  0  0  0
  -23.3743  -35.9641   23.3313 H   0  0  0  0  0  0
  -24.3577  -36.8904   22.2050 H   0  0  0  0  0  0
  -23.7226  -37.6519   23.6642 H   0  0  0  0  0  0
  -26.0537  -31.5809   20.5953 H   0  0  0  0  0  0
  -26.8255  -30.8718   21.9860 H   0  0  0  0  0  0
  -28.0932  -29.0607   21.1853 H   0  0  0  0  0  0
  -26.0067  -25.9599   19.0026 H   0  0  0  0  0  0
  -23.9722  -27.2926   19.0326 H   0  0  0  0  0  0
  -23.7223  -30.5911   19.4035 H   0  0  0  0  0  0
  -22.7368  -29.2392   19.8724 H   0  0  0  0  0  0
  -25.1275  -36.1979   25.0837 H   0  0  0  0  0  0
  -20.9944  -28.3218   24.1431 H   0  0  0  0  0  0
  -20.5643  -26.2267   23.3608 H   0  0  0  0  0  0
  -21.6632  -26.7425   22.1222 H   0  0  0  0  0  0
  -19.6897  -25.6283   21.1235 H   0  0  0  0  0  0
  -19.6678  -27.3191   20.6747 H   0  0  0  0  0  0
  -17.4189  -26.6675   21.4013 H   0  0  0  0  0  0
  -18.0307  -26.0045   22.8995 H   0  0  0  0  0  0
  -19.7932  -30.7237   24.2292 H   0  0  0  0  0  0
  -17.5016  -31.6265   24.5154 H   0  0  0  0  0  0
  -15.5348  -30.2990   23.7641 H   0  0  0  0  0  0
  -15.8653  -28.0802   22.7094 H   0  0  0  0  0  0
  -24.5938  -30.7043   25.7842 H   0  0  0  0  0  0
  -24.8976  -32.2848   26.4959 H   0  0  0  0  0  0
  -25.8140  -30.8861   27.0227 H   0  0  0  0  0  0
  -26.2898  -29.6773   24.1193 H   0  0  0  0  0  0
  -27.4153  -29.7296   25.4573 H   0  0  0  0  0  0
  -27.8712  -30.4375   23.9257 H   0  0  0  0  0  0
  -27.2667  -33.3615   26.2100 H   0  0  0  0  0  0
  -28.3854  -32.6912   25.0316 H   0  0  0  0  0  0
  -28.0746  -31.8440   26.5385 H   0  0  0  0  0  0
  -28.2613  -38.0092   24.7509 H   0  0  0  0  0  0
  -28.1057  -36.2622   24.6305 H   0  0  0  0  0  0
  -27.2296  -37.1475   25.8873 H   0  0  0  0  0  0
  -20.9305  -29.8763   21.6970 H   0  0  0  0  0  0
  -26.0179  -38.2875   24.1408 H   0  0  0  0  0  0
  -31.1200  -20.5671   19.2585 H   0  0  0  0  0  0
  -28.2715  -20.8045   22.4737 H   0  0  0  0  0  0
  -29.9973  -22.7571   19.6271 H   0  0  0  0  0  0
  -30.6474  -22.8188   21.2295 H   0  0  0  0  0  0
  -29.1881  -16.4299   22.1149 H   0  0  0  0  0  0
  -30.9036  -16.6251   21.9561 H   0  0  0  0  0  0
  -28.9431  -15.4815   18.4506 H   0  0  0  0  0  0
  -29.0455  -17.1007   18.9600 H   0  0  0  0  0  0
  -27.5952  -23.4308   19.3135 H   0  0  0  0  0  0
  -26.9065  -24.4348   20.5503 H   0  0  0  0  0  0
  -28.1544  -25.5295   18.4424 H   0  0  0  0  0  0
  -29.5975  -25.2028   19.3205 H   0  0  0  0  0  0
  -28.0052  -22.8747   21.6994 H   0  0  0  0  0  0
  -29.0478  -24.0974   21.7503 H   0  0  0  0  0  0
  1 25  1  0  0  0
  1 30  2  0  0  0
  1 83  1  0  0  0
  2  3  1  0  0  0
  2 25  1  0  0  0
  2 88  1  0  0  0
  2 89  1  0  0  0
  3  4  1  0  0  0
  3 90  1  0  0  0
  3 91  1  0  0  0
  4  5  1  0  0  0
  4 92  1  0  0  0
  4 93  1  0  0  0
  5  6  1  0  0  0
  5 26  1  0  0  0
  5 94  1  0  0  0
  6 25  1  0  0  0
  6 95  1  0  0  0
  6 96  1  0  0  0
  7  8  2  0  0  0
  7 26  1  0  0  0
  7 29  1  0  0  0
  8  9  1  0  0  0
  8 22  1  0  0  0
  9 10  1  0  0  0
  9 27  2  0  0  0
 10 11  2  0  0  0
 10 15  1  0  0  0
 11 12  1  0  0  0
 11 97  1  0  0  0
 12 13  2  0  0  0
 12 98  1  0  0  0
 13 14  1  0  0  0
 13 31  1  0  0  0
 14 15  2  0  0  0
 14 99  1  0  0  0
 15100  1  0  0  0
 16 17  2  0  0  0
 16 21  1  0  0  0
 16 31  1  0  0  0
 17 18  1  0  0  0
 17101  1  0  0  0
 18 19  2  0  0  0
 18102  1  0  0  0
 19 20  1  0  0  0
 19 24  1  0  0  0
 20 21  2  0  0  0
 20103  1  0  0  0
 21 23  1  0  0  0
 22 28  1  0  0  0
 22 32  2  0  0  0
 26 27  1  0  0  0
 28104  1  0  0  0
 28105  1  0  0  0
 29106  1  0  0  0
 29107  1  0  0  0
 33 34  1  0  0  0
 33 66  1  0  0  0
 33 70  2  0  0  0
 34 36  1  0  0  0
 34 59  1  0  0  0
 34108  1  0  0  0
 35 44  2  0  0  0
 35 45  1  0  0  0
 35 68  1  0  0  0
 36 56  1  0  0  0
 36109  1  0  0  0
 37 39  1  0  0  0
 37 47  1  0  0  0
 37 66  1  0  0  0
 37110  1  0  0  0
 38 43  2  0  0  0
 38 46  1  0  0  0
 38 47  1  0  0  0
 39 64  1  0  0  0
 39 67  2  0  0  0
 40 52  1  0  0  0
 40 53  2  0  0  0
 40 58  1  0  0  0
 41111  1  0  0  0
 41112  1  0  0  0
 41113  1  0  0  0
 41 48  1  0  0  0
 42 43  1  0  0  0
 42 66  1  0  0  0
 42114  1  0  0  0
 42115  1  0  0  0
 43 44  1  0  0  0
 44116  1  0  0  0
 45 46  2  0  0  0
 45117  1  0  0  0
 46118  1  0  0  0
 47119  1  0  0  0
 47120  1  0  0  0
 48 56  1  0  0  0
 48 65  1  0  0  0
 48121  1  0  0  0
 49 50  1  0  0  0
 49 53  1  0  0  0
 49 64  1  0  0  0
 49122  1  0  0  0
 50 51  1  0  0  0
 50123  1  0  0  0
 50124  1  0  0  0
 51 52  1  0  0  0
 51125  1  0  0  0
 51126  1  0  0  0
 52127  1  0  0  0
 52128  1  0  0  0
 53 54  1  0  0  0
 54 55  2  0  0  0
 54129  1  0  0  0
 55 57  1  0  0  0
 55130  1  0  0  0
 56 69  2  0  0  0
 57 58  2  0  0  0
 57131  1  0  0  0
 58132  1  0  0  0
 59 60  1  0  0  0
 59 61  1  0  0  0
 59 62  1  0  0  0
 60133  1  0  0  0
 60134  1  0  0  0
 60135  1  0  0  0
 61136  1  0  0  0
 61137  1  0  0  0
 61138  1  0  0  0
 62139  1  0  0  0
 62140  1  0  0  0
 62141  1  0  0  0
 63 65  1  0  0  0
 63142  1  0  0  0
 63143  1  0  0  0
 63144  1  0  0  0
 64145  1  0  0  0
 65146  1  0  0  0
 68 79  1  0  0  0
 71 73  2  0  0  0
 71 81  1  0  0  0
 71147  1  0  0  0
 72 73  1  0  0  0
 72 82  2  0  0  0
 72148  1  0  0  0
 73 75  1  0  0  0
 74 76  1  0  0  0
 74 81  2  0  0  0
 74 82  1  0  0  0
 75 84  1  0  0  0
 75149  1  0  0  0
 75150  1  0  0  0
 76 83  1  0  0  0
 76151  1  0  0  0
 76152  1  0  0  0
 77 80  1  0  0  0
 77 83  1  0  0  0
 77153  1  0  0  0
 77154  1  0  0  0
 78 79  1  0  0  0
 78 84  1  0  0  0
 78155  1  0  0  0
 78156  1  0  0  0
 79157  1  0  0  0
 79158  1  0  0  0
 80 85  1  0  0  0
 80 86  1  0  0  0
 80 87  1  0  0  0
 84159  1  0  0  0
 84160  1  0  0  0
M  CHG  1  84   1
M  ISO  4   1 100  68 101  79 101  83 100
M  END
> <chiral flag>
0

> <version>
0

> <s_m_source_file>
/data/baiqing/PycharmProjects/Reinvent-master-3.2/result/LINK_invent/BTK/process_docking_weight1_custom_sum_contain_oxygen_bond_distance_aromatic_linkinvent_7_9_3/rearranged_h_0055.sdf

> <i_m_source_file_index>
82

> <r_mmod_Potential_Energy-OPLS-2005>
-535.947692871094

> <r_mmod_Stretch_Energy-OPLS-2005>
50.3953971862793

> <r_mmod_Bend_Energy-OPLS-2005>
142.947479248047

> <r_mmod_Torsional_Energy-OPLS-2005>
314.509918212891

> <r_mmod_Improper_Torsional_Energy-OPLS-2005>
11.6963119506836

> <r_mmod_Van_der_Waal_Energy-OPLS-2005>
159.238693237305

> <r_mmod_Electrostatic_Energy-OPLS-2005>
-785.119506835938

> <r_mmod_Solvation_Energy-OPLS-2005>
-468.151245117188

> <b_mmod_Minimization_Converged-OPLS-2005>
0

> <r_mmod_RMS_Derivative-OPLS-2005>
1.36777865886688

$$$$
83
                    3D
 Structure written by MMmdl.
162170  0  0  1  0            999 V2000
  -30.7818  -14.4515   20.6917 C   0  0  0  0  0  0
  -30.4121  -12.3205   19.4709 C   0  0  0  0  0  0
  -29.5173  -12.5009   18.2308 C   0  0  0  0  0  0
  -28.0345  -12.3567   18.6172 C   0  0  0  0  0  0
  -27.6562  -13.2190   19.8484 C   0  0  2  0  0  0
  -28.6760  -13.0656   20.9907 C   0  0  0  0  0  0
  -25.2579  -13.8192   20.5637 C   0  0  0  0  0  0
  -24.1852  -13.0450   20.9165 C   0  0  0  0  0  0
  -24.6428  -11.6927   20.8702 C   0  0  0  0  0  0
  -23.9078  -10.4295   21.0393 C   0  0  0  0  0  0
  -24.3622   -9.4207   21.9174 C   0  0  0  0  0  0
  -23.6282   -8.2252   22.0751 C   0  0  0  0  0  0
  -22.4258   -8.0296   21.3552 C   0  0  0  0  0  0
  -21.9900   -9.0272   20.4656 C   0  0  0  0  0  0
  -22.7244  -10.2133   20.3051 C   0  0  0  0  0  0
  -21.6845   -6.0726   22.5273 C   0  0  0  0  0  0
  -21.4035   -6.5633   23.8213 C   0  0  0  0  0  0
  -21.3665   -5.6790   24.9176 C   0  0  0  0  0  0
  -21.6053   -4.3053   24.7231 C   0  0  0  0  0  0
  -21.8819   -3.8141   23.4345 C   0  0  0  0  0  0
  -21.9188   -4.6960   22.3397 C   0  0  0  0  0  0
  -22.7868  -13.5250   21.1830 C   0  0  0  0  0  0
  -22.1656   -4.2149   21.0979 F   0  0  0  0  0  0
  -21.5614   -3.4541   25.7737 F   0  0  0  0  0  0
  -30.0314  -13.3282   20.4808 N   0  0  0  0  0  0
  -26.2995  -12.9375   20.3156 N   0  0  0  0  0  0
  -25.9340  -11.6520   20.5649 N   0  0  0  0  0  0
  -22.0478  -12.8266   22.0399 N   0  0  0  0  0  0
  -25.4262  -15.1906   20.4091 N   0  0  0  0  0  0
  -31.8341  -14.6446   20.0690 O   0  0  0  0  0  0
  -21.6644   -6.8871   21.4229 O   0  0  0  0  0  0
  -22.3548  -14.5538   20.6642 O   0  0  0  0  0  0
  -24.6223  -31.8671   23.2071 C   0  0  0  0  0  0
  -25.9091  -32.4818   23.8361 C   0  0  1  0  0  0
  -27.2169  -27.3925   20.0908 C   0  0  0  0  0  0
  -25.5915  -33.8624   24.2309 N   0  0  0  0  0  0
  -23.4067  -30.4988   21.5491 C   0  0  2  0  0  0
  -24.8483  -28.9691   20.1091 C   0  0  0  0  0  0
  -22.7435  -29.4698   22.4947 C   0  0  0  0  0  0
  -18.0298  -28.1438   22.8503 C   0  0  0  0  0  0
  -24.1455  -36.7292   23.2628 C   0  0  0  0  0  0
  -25.9431  -30.8189   21.3648 C   0  0  0  0  0  0
  -26.0158  -29.4521   20.7129 C   0  0  0  0  0  0
  -27.2021  -28.6731   20.7029 C   0  0  0  0  0  0
  -26.0253  -26.9560   19.4575 C   0  0  0  0  0  0
  -24.8507  -27.7211   19.4769 C   0  0  0  0  0  0
  -23.6153  -29.8416   20.1611 C   0  0  0  0  0  0
  -25.4071  -36.3115   24.0345 C   0  0  1  0  0  0
  -20.5890  -28.3714   23.1318 C   0  0  2  0  0  0
  -20.6793  -26.9458   22.5417 C   0  0  0  0  0  0
  -19.5760  -26.6438   21.5228 C   0  0  0  0  0  0
  -18.1939  -26.7984   22.1640 C   0  0  0  0  0  0
  -19.1553  -28.8886   23.2905 C   0  0  0  0  0  0
  -18.9474  -30.1480   23.8934 C   0  0  0  0  0  0
  -17.6485  -30.6636   24.0604 C   0  0  0  0  0  0
  -25.9021  -34.9484   23.5122 C   0  0  0  0  0  0
  -16.5370  -29.9163   23.6351 C   0  0  0  0  0  0
  -16.7292  -28.6583   23.0365 C   0  0  0  0  0  0
  -26.4492  -31.6613   25.0713 C   0  0  0  0  0  0
  -25.3749  -31.3774   26.1461 C   0  0  0  0  0  0
  -27.0292  -30.3047   24.6090 C   0  0  0  0  0  0
  -27.6039  -32.4337   25.7514 C   0  0  0  0  0  0
  -27.5550  -37.1788   24.8479 C   0  0  0  0  0  0
  -21.4158  -29.3082   22.3691 N   0  0  0  0  0  0
  -26.4257  -37.3808   23.9433 N   0  0  0  0  0  0
  -24.6765  -31.0763   22.0978 N   0  0  0  0  0  0
  -23.4211  -28.8229   23.2986 O   0  0  0  0  0  0
  -28.3559  -26.5838   20.1374 O   0  0  0  0  0  0
  -26.5592  -34.8963   22.4694 O   0  0  0  0  0  0
  -23.5405  -32.1427   23.7470 O   0  0  0  0  0  0
  -30.3898  -20.8937   19.8325 C   0  0  0  0  0  0
  -28.7062  -20.3256   21.1057 C   0  0  0  0  0  0
  -29.1605  -21.3865   20.3598 C   0  0  0  0  0  0
  -30.2158  -14.0258   23.6725 C   0  0  0  0  0  0
  -31.7991  -15.9550   23.4677 C   0  0  0  0  0  0
  -28.4228  -22.6899   20.0679 C   0  0  0  0  0  0
  -29.1172  -24.0709   20.2963 C   0  0  0  0  0  0
  -29.4974  -17.9336   21.5824 C   0  0  0  0  0  0
  -30.3619  -16.8162   20.9166 C   0  0  0  0  0  0
  -28.1196  -25.1796   19.8604 C   0  0  0  0  0  0
  -30.4390  -15.3980   22.9886 C   0  0  0  0  0  0
  -30.6437  -19.6387   20.2013 N   0  0  0  0  0  0
  -29.5899  -19.2688   20.9654 N   0  0  0  0  0  0
  -30.2803  -15.4366   21.4989 N   0  0  0  0  0  0
  -31.4637  -12.3882   19.1916 H   0  0  0  0  0  0
  -30.2877  -11.3225   19.8960 H   0  0  0  0  0  0
  -29.7783  -11.7629   17.4731 H   0  0  0  0  0  0
  -29.6998  -13.4759   17.7768 H   0  0  0  0  0  0
  -27.8519  -11.3028   18.8333 H   0  0  0  0  0  0
  -27.4010  -12.6075   17.7671 H   0  0  0  0  0  0
  -27.6879  -14.2590   19.5200 H   0  0  0  0  0  0
  -28.6289  -12.0702   21.4340 H   0  0  0  0  0  0
  -28.3816  -13.7666   21.7652 H   0  0  0  0  0  0
  -25.2759   -9.5686   22.4759 H   0  0  0  0  0  0
  -23.9988   -7.4641   22.7466 H   0  0  0  0  0  0
  -21.0820   -8.8800   19.8965 H   0  0  0  0  0  0
  -22.3698  -10.9674   19.6172 H   0  0  0  0  0  0
  -21.2044   -7.6147   23.9731 H   0  0  0  0  0  0
  -21.1483   -6.0508   25.9079 H   0  0  0  0  0  0
  -22.0582   -2.7599   23.2854 H   0  0  0  0  0  0
  -22.4065  -11.9976   22.4900 H   0  0  0  0  0  0
  -21.1103  -13.1326   22.2546 H   0  0  0  0  0  0
  -24.6562  -15.8423   20.5204 H   0  0  0  0  0  0
  -26.2772  -15.6312   20.0834 H   0  0  0  0  0  0
  -26.7167  -32.5516   23.1113 H   0  0  0  0  0  0
  -25.0100  -33.9784   25.0475 H   0  0  0  0  0  0
  -22.6959  -31.3174   21.4124 H   0  0  0  0  0  0
  -23.3738  -35.9601   23.3311 H   0  0  0  0  0  0
  -24.3539  -36.8874   22.2031 H   0  0  0  0  0  0
  -23.7211  -37.6502   23.6638 H   0  0  0  0  0  0
  -26.0565  -31.5804   20.5906 H   0  0  0  0  0  0
  -26.8318  -30.8750   21.9800 H   0  0  0  0  0  0
  -28.0946  -29.0388   21.1889 H   0  0  0  0  0  0
  -25.9575  -26.0150   18.9324 H   0  0  0  0  0  0
  -23.9613  -27.3476   18.9903 H   0  0  0  0  0  0
  -23.7308  -30.6207   19.4052 H   0  0  0  0  0  0
  -22.7347  -29.2706   19.8606 H   0  0  0  0  0  0
  -25.1257  -36.1922   25.0839 H   0  0  0  0  0  0
  -20.9993  -28.3293   24.1436 H   0  0  0  0  0  0
  -20.5704  -26.2346   23.3610 H   0  0  0  0  0  0
  -21.6659  -26.7526   22.1177 H   0  0  0  0  0  0
  -19.6916  -25.6351   21.1257 H   0  0  0  0  0  0
  -19.6681  -27.3260   20.6763 H   0  0  0  0  0  0
  -17.4195  -26.6737   21.4062 H   0  0  0  0  0  0
  -18.0322  -26.0144   22.9048 H   0  0  0  0  0  0
  -19.7947  -30.7284   24.2317 H   0  0  0  0  0  0
  -17.5067  -31.6320   24.5194 H   0  0  0  0  0  0
  -15.5386  -30.3104   23.7656 H   0  0  0  0  0  0
  -15.8678  -28.0936   22.7068 H   0  0  0  0  0  0
  -24.5927  -30.7100   25.7835 H   0  0  0  0  0  0
  -24.8940  -32.2963   26.4833 H   0  0  0  0  0  0
  -25.8084  -30.9029   27.0269 H   0  0  0  0  0  0
  -26.2846  -29.6856   24.1078 H   0  0  0  0  0  0
  -27.3986  -29.7232   25.4537 H   0  0  0  0  0  0
  -27.8728  -30.4347   23.9312 H   0  0  0  0  0  0
  -27.2627  -33.3630   26.2090 H   0  0  0  0  0  0
  -28.3884  -32.6879   25.0385 H   0  0  0  0  0  0
  -28.0675  -31.8464   26.5443 H   0  0  0  0  0  0
  -28.2599  -38.0057   24.7518 H   0  0  0  0  0  0
  -28.1023  -36.2593   24.6309 H   0  0  0  0  0  0
  -27.2297  -37.1459   25.8898 H   0  0  0  0  0  0
  -20.9318  -29.8785   21.6890 H   0  0  0  0  0  0
  -26.0134  -38.2878   24.1460 H   0  0  0  0  0  0
  -31.0721  -21.3871   19.1542 H   0  0  0  0  0  0
  -27.8031  -20.2111   21.6923 H   0  0  0  0  0  0
  -30.5620  -14.0483   24.7064 H   0  0  0  0  0  0
  -30.7601  -13.2082   23.1999 H   0  0  0  0  0  0
  -29.1632  -13.7566   23.7422 H   0  0  0  0  0  0
  -32.6288  -15.3050   23.1934 H   0  0  0  0  0  0
  -31.8074  -16.0421   24.5571 H   0  0  0  0  0  0
  -32.0154  -16.9503   23.0822 H   0  0  0  0  0  0
  -28.0776  -22.6635   19.0339 H   0  0  0  0  0  0
  -27.5062  -22.6985   20.6573 H   0  0  0  0  0  0
  -30.0379  -24.1482   19.7169 H   0  0  0  0  0  0
  -29.3819  -24.1862   21.3476 H   0  0  0  0  0  0
  -29.7628  -18.0653   22.6305 H   0  0  0  0  0  0
  -28.4512  -17.6309   21.5641 H   0  0  0  0  0  0
  -30.0632  -16.7634   19.8674 H   0  0  0  0  0  0
  -31.4081  -17.1266   20.9022 H   0  0  0  0  0  0
  -27.1908  -24.9026   20.3597 H   0  0  0  0  0  0
  -27.9602  -25.0766   18.7851 H   0  0  0  0  0  0
  -29.6646  -16.0385   23.4107 H   0  0  0  0  0  0
  1 25  1  0  0  0
  1 30  2  0  0  0
  1 84  1  0  0  0
  2  3  1  0  0  0
  2 25  1  0  0  0
  2 85  1  0  0  0
  2 86  1  0  0  0
  3  4  1  0  0  0
  3 87  1  0  0  0
  3 88  1  0  0  0
  4  5  1  0  0  0
  4 89  1  0  0  0
  4 90  1  0  0  0
  5  6  1  0  0  0
  5 26  1  0  0  0
  5 91  1  0  0  0
  6 25  1  0  0  0
  6 92  1  0  0  0
  6 93  1  0  0  0
  7  8  2  0  0  0
  7 26  1  0  0  0
  7 29  1  0  0  0
  8  9  1  0  0  0
  8 22  1  0  0  0
  9 10  1  0  0  0
  9 27  2  0  0  0
 10 11  2  0  0  0
 10 15  1  0  0  0
 11 12  1  0  0  0
 11 94  1  0  0  0
 12 13  2  0  0  0
 12 95  1  0  0  0
 13 14  1  0  0  0
 13 31  1  0  0  0
 14 15  2  0  0  0
 14 96  1  0  0  0
 15 97  1  0  0  0
 16 17  2  0  0  0
 16 21  1  0  0  0
 16 31  1  0  0  0
 17 18  1  0  0  0
 17 98  1  0  0  0
 18 19  2  0  0  0
 18 99  1  0  0  0
 19 20  1  0  0  0
 19 24  1  0  0  0
 20 21  2  0  0  0
 20100  1  0  0  0
 21 23  1  0  0  0
 22 28  1  0  0  0
 22 32  2  0  0  0
 26 27  1  0  0  0
 28101  1  0  0  0
 28102  1  0  0  0
 29103  1  0  0  0
 29104  1  0  0  0
 33 34  1  0  0  0
 33 66  1  0  0  0
 33 70  2  0  0  0
 34 36  1  0  0  0
 34 59  1  0  0  0
 34105  1  0  0  0
 35 44  2  0  0  0
 35 45  1  0  0  0
 35 68  1  0  0  0
 36 56  1  0  0  0
 36106  1  0  0  0
 37 39  1  0  0  0
 37 47  1  0  0  0
 37 66  1  0  0  0
 37107  1  0  0  0
 38 43  2  0  0  0
 38 46  1  0  0  0
 38 47  1  0  0  0
 39 64  1  0  0  0
 39 67  2  0  0  0
 40 52  1  0  0  0
 40 53  2  0  0  0
 40 58  1  0  0  0
 41108  1  0  0  0
 41109  1  0  0  0
 41110  1  0  0  0
 41 48  1  0  0  0
 42 43  1  0  0  0
 42 66  1  0  0  0
 42111  1  0  0  0
 42112  1  0  0  0
 43 44  1  0  0  0
 44113  1  0  0  0
 45 46  2  0  0  0
 45114  1  0  0  0
 46115  1  0  0  0
 47116  1  0  0  0
 47117  1  0  0  0
 48 56  1  0  0  0
 48 65  1  0  0  0
 48118  1  0  0  0
 49 50  1  0  0  0
 49 53  1  0  0  0
 49 64  1  0  0  0
 49119  1  0  0  0
 50 51  1  0  0  0
 50120  1  0  0  0
 50121  1  0  0  0
 51 52  1  0  0  0
 51122  1  0  0  0
 51123  1  0  0  0
 52124  1  0  0  0
 52125  1  0  0  0
 53 54  1  0  0  0
 54 55  2  0  0  0
 54126  1  0  0  0
 55 57  1  0  0  0
 55127  1  0  0  0
 56 69  2  0  0  0
 57 58  2  0  0  0
 57128  1  0  0  0
 58129  1  0  0  0
 59 60  1  0  0  0
 59 61  1  0  0  0
 59 62  1  0  0  0
 60130  1  0  0  0
 60131  1  0  0  0
 60132  1  0  0  0
 61133  1  0  0  0
 61134  1  0  0  0
 61135  1  0  0  0
 62136  1  0  0  0
 62137  1  0  0  0
 62138  1  0  0  0
 63 65  1  0  0  0
 63139  1  0  0  0
 63140  1  0  0  0
 63141  1  0  0  0
 64142  1  0  0  0
 65143  1  0  0  0
 68 80  1  0  0  0
 71 73  1  0  0  0
 71 82  2  0  0  0
 71144  1  0  0  0
 72 73  2  0  0  0
 72 83  1  0  0  0
 72145  1  0  0  0
 73 76  1  0  0  0
 74146  1  0  0  0
 74147  1  0  0  0
 74148  1  0  0  0
 74 81  1  0  0  0
 75 81  1  0  0  0
 75149  1  0  0  0
 75150  1  0  0  0
 75151  1  0  0  0
 76 77  1  0  0  0
 76152  1  0  0  0
 76153  1  0  0  0
 77 80  1  0  0  0
 77154  1  0  0  0
 77155  1  0  0  0
 78 79  1  0  0  0
 78 83  1  0  0  0
 78156  1  0  0  0
 78157  1  0  0  0
 79 84  1  0  0  0
 79158  1  0  0  0
 79159  1  0  0  0
 80160  1  0  0  0
 80161  1  0  0  0
 81 84  1  0  0  0
 81162  1  0  0  0
 82 83  1  0  0  0
M  ISO  4   1 100  68 101  80 101  84 100
M  END
> <chiral flag>
0

> <version>
0

> <s_m_source_file>
/data/baiqing/PycharmProjects/Reinvent-master-3.2/result/LINK_invent/BTK/process_docking_weight1_custom_sum_contain_oxygen_bond_distance_aromatic_linkinvent_7_9_3/rearranged_h_0055.sdf

> <i_m_source_file_index>
83

> <r_mmod_Potential_Energy-OPLS-2005>
202.271347045898

> <r_mmod_Stretch_Energy-OPLS-2005>
51.6267623901367

> <r_mmod_Bend_Energy-OPLS-2005>
135.312774658203

> <r_mmod_Torsional_Energy-OPLS-2005>
294.615814208984

> <r_mmod_Improper_Torsional_Energy-OPLS-2005>
6.57387256622314

> <r_mmod_Van_der_Waal_Energy-OPLS-2005>
150.012878417969

> <r_mmod_Electrostatic_Energy-OPLS-2005>
-251.531784057617

> <r_mmod_Solvation_Energy-OPLS-2005>
-205.016815185547

> <b_mmod_Minimization_Converged-OPLS-2005>
0

> <r_mmod_RMS_Derivative-OPLS-2005>
4.42217206954956

$$$$
84
                    3D
 Structure written by MMmdl.
151159  0  0  1  0            999 V2000
  -30.3967  -15.3961   20.3809 C   0  0  0  0  0  0
  -30.4389  -12.9070   19.5365 C   0  0  0  0  0  0
  -29.5402  -12.6172   18.3029 C   0  0  0  0  0  0
  -28.0951  -12.3095   18.7315 C   0  0  0  0  0  0
  -27.6108  -13.2821   19.8331 C   0  0  2  0  0  0
  -28.6464  -13.4666   20.9664 C   0  0  0  0  0  0
  -25.2324  -13.8216   20.5698 C   0  0  0  0  0  0
  -24.1709  -13.0399   20.9254 C   0  0  0  0  0  0
  -24.6391  -11.6906   20.8765 C   0  0  0  0  0  0
  -23.9088  -10.4274   21.0403 C   0  0  0  0  0  0
  -24.3632   -9.4190   21.9183 C   0  0  0  0  0  0
  -23.6292   -8.2234   22.0766 C   0  0  0  0  0  0
  -22.4276   -8.0278   21.3553 C   0  0  0  0  0  0
  -21.9914   -9.0250   20.4653 C   0  0  0  0  0  0
  -22.7257  -10.2117   20.3052 C   0  0  0  0  0  0
  -21.6858   -6.0724   22.5272 C   0  0  0  0  0  0
  -21.4016   -6.5623   23.8208 C   0  0  0  0  0  0
  -21.3661   -5.6782   24.9166 C   0  0  0  0  0  0
  -21.6042   -4.3048   24.7225 C   0  0  0  0  0  0
  -21.8818   -3.8134   23.4349 C   0  0  0  0  0  0
  -21.9192   -4.6949   22.3398 C   0  0  0  0  0  0
  -22.7736  -13.5163   21.1888 C   0  0  0  0  0  0
  -22.1669   -4.2128   21.0982 F   0  0  0  0  0  0
  -21.5625   -3.4539   25.7743 F   0  0  0  0  0  0
  -29.8532  -14.0563   20.3442 N   0  0  0  0  0  0
  -26.2806  -12.9526   20.3260 N   0  0  0  0  0  0
  -25.9349  -11.6618   20.5755 N   0  0  0  0  0  0
  -22.0399  -12.8172   22.0456 N   0  0  0  0  0  0
  -25.3807  -15.1941   20.3978 N   0  0  0  0  0  0
  -31.6007  -15.3750   20.0700 O   0  0  0  0  0  0
  -21.6643   -6.8873   21.4236 O   0  0  0  0  0  0
  -22.3421  -14.5453   20.6706 O   0  0  0  0  0  0
  -24.6695  -31.8161   23.1653 C   0  0  0  0  0  0
  -25.9345  -32.4549   23.8135 C   0  0  1  0  0  0
  -27.2237  -26.8563   20.1908 C   0  0  0  0  0  0
  -25.5987  -33.8366   24.2044 N   0  0  0  0  0  0
  -23.4884  -30.4248   21.5142 C   0  0  2  0  0  0
  -24.9459  -28.7987   20.1105 C   0  0  0  0  0  0
  -22.7714  -29.4395   22.4744 C   0  0  0  0  0  0
  -18.0340  -28.1402   22.8473 C   0  0  0  0  0  0
  -24.1495  -36.7187   23.2647 C   0  0  0  0  0  0
  -26.0612  -30.5980   21.4085 C   0  0  0  0  0  0
  -26.1294  -29.1801   20.7543 C   0  0  0  0  0  0
  -27.2578  -28.2300   20.7717 C   0  0  0  0  0  0
  -26.0146  -26.6524   19.4843 C   0  0  0  0  0  0
  -24.9192  -27.5582   19.4532 C   0  0  0  0  0  0
  -23.7350  -29.7355   20.1427 C   0  0  0  0  0  0
  -25.4138  -36.2945   24.0296 C   0  0  1  0  0  0
  -20.5973  -28.3758   23.1178 C   0  0  2  0  0  0
  -20.6811  -26.9425   22.5412 C   0  0  0  0  0  0
  -19.5784  -26.6365   21.5223 C   0  0  0  0  0  0
  -18.1969  -26.7934   22.1633 C   0  0  0  0  0  0
  -19.1600  -28.8906   23.2817 C   0  0  0  0  0  0
  -18.9502  -30.1494   23.8853 C   0  0  0  0  0  0
  -17.6488  -30.6592   24.0555 C   0  0  0  0  0  0
  -25.9105  -34.9326   23.4996 C   0  0  0  0  0  0
  -16.5382  -29.9073   23.6335 C   0  0  0  0  0  0
  -16.7325  -28.6494   23.0366 C   0  0  0  0  0  0
  -26.4576  -31.6518   25.0690 C   0  0  0  0  0  0
  -25.3685  -31.3781   26.1334 C   0  0  0  0  0  0
  -27.0486  -30.2882   24.6467 C   0  0  0  0  0  0
  -27.6058  -32.4342   25.7494 C   0  0  0  0  0  0
  -27.5571  -37.1754   24.8471 C   0  0  0  0  0  0
  -21.4376  -29.3037   22.3513 N   0  0  0  0  0  0
  -26.4280  -37.3690   23.9411 N   0  0  0  0  0  0
  -24.7612  -30.9752   22.0825 N   0  0  0  0  0  0
  -23.4232  -28.7976   23.3020 O   0  0  0  0  0  0
  -28.1950  -25.7004   20.3021 O   0  0  0  0  0  0
  -26.5718  -34.8870   22.4594 O   0  0  0  0  0  0
  -23.5743  -32.1161   23.6700 O   0  0  0  0  0  0
  -29.3785  -20.6516   21.6633 C   0  0  0  0  0  0
  -29.2998  -19.9850   20.4423 C   0  0  0  0  0  0
  -28.6487  -22.4698   20.3602 C   0  0  0  0  0  0
  -28.5113  -21.1360   18.2514 C   0  0  0  0  0  0
  -28.5443  -16.7169   21.4732 C   0  0  0  0  0  0
  -29.8120  -18.3281   19.9784 C   0  0  0  0  0  0
  -27.9420  -24.0734   19.9493 C   0  0  0  0  0  0
  -28.8216  -21.1929   19.6815 N   0  0  0  0  0  0
  -29.0153  -22.0245   21.5846 N   0  3  0  0  0  0
  -29.6517  -16.7189   20.5248 N   0  0  0  0  0  0
  -31.4460  -13.1337   19.1860 H   0  0  0  0  0  0
  -30.5537  -12.0128   20.1503 H   0  0  0  0  0  0
  -29.9449  -11.7908   17.7167 H   0  0  0  0  0  0
  -29.5415  -13.4857   17.6434 H   0  0  0  0  0  0
  -28.0714  -11.2871   19.1084 H   0  0  0  0  0  0
  -27.4247  -12.3359   17.8728 H   0  0  0  0  0  0
  -27.5191  -14.2458   19.3313 H   0  0  0  0  0  0
  -28.2526  -14.1104   21.7493 H   0  0  0  0  0  0
  -28.8587  -12.5188   21.4625 H   0  0  0  0  0  0
  -25.2768   -9.5671   22.4754 H   0  0  0  0  0  0
  -23.9980   -7.4635   22.7502 H   0  0  0  0  0  0
  -21.0832   -8.8779   19.8970 H   0  0  0  0  0  0
  -22.3715  -10.9658   19.6157 H   0  0  0  0  0  0
  -21.2023   -7.6140   23.9706 H   0  0  0  0  0  0
  -21.1480   -6.0512   25.9066 H   0  0  0  0  0  0
  -22.0594   -2.7595   23.2853 H   0  0  0  0  0  0
  -22.4033  -11.9837   22.4834 H   0  0  0  0  0  0
  -21.1018  -13.1199   22.2663 H   0  0  0  0  0  0
  -24.6017  -15.8345   20.5042 H   0  0  0  0  0  0
  -26.2088  -15.6384   20.0228 H   0  0  0  0  0  0
  -26.7416  -32.5072   23.0840 H   0  0  0  0  0  0
  -25.0091  -33.9430   25.0165 H   0  0  0  0  0  0
  -22.8044  -31.2574   21.3370 H   0  0  0  0  0  0
  -23.3769  -35.9507   23.3276 H   0  0  0  0  0  0
  -24.3569  -36.8870   22.2070 H   0  0  0  0  0  0
  -23.7237  -37.6357   23.6727 H   0  0  0  0  0  0
  -26.2496  -31.3338   20.6252 H   0  0  0  0  0  0
  -26.9177  -30.6595   22.0680 H   0  0  0  0  0  0
  -28.1465  -28.5185   21.3153 H   0  0  0  0  0  0
  -25.8735  -25.7090   18.9777 H   0  0  0  0  0  0
  -24.0250  -27.2634   18.9209 H   0  0  0  0  0  0
  -23.8994  -30.5009   19.3826 H   0  0  0  0  0  0
  -22.8441  -29.1927   19.8205 H   0  0  0  0  0  0
  -25.1340  -36.1734   25.0788 H   0  0  0  0  0  0
  -21.0068  -28.3374   24.1303 H   0  0  0  0  0  0
  -20.5676  -26.2381   23.3669 H   0  0  0  0  0  0
  -21.6678  -26.7385   22.1231 H   0  0  0  0  0  0
  -19.6936  -25.6265   21.1282 H   0  0  0  0  0  0
  -19.6714  -27.3152   20.6733 H   0  0  0  0  0  0
  -17.4245  -26.6694   21.4033 H   0  0  0  0  0  0
  -18.0354  -26.0084   22.9032 H   0  0  0  0  0  0
  -19.7971  -30.7329   24.2203 H   0  0  0  0  0  0
  -17.5031  -31.6262   24.5169 H   0  0  0  0  0  0
  -15.5376  -30.2954   23.7672 H   0  0  0  0  0  0
  -15.8733  -28.0783   22.7103 H   0  0  0  0  0  0
  -24.5885  -30.7121   25.7628 H   0  0  0  0  0  0
  -24.8855  -32.2985   26.4625 H   0  0  0  0  0  0
  -25.7896  -30.9026   27.0200 H   0  0  0  0  0  0
  -26.3168  -29.6536   24.1459 H   0  0  0  0  0  0
  -27.3984  -29.7274   25.5141 H   0  0  0  0  0  0
  -27.9122  -30.4050   23.9920 H   0  0  0  0  0  0
  -27.2624  -33.3691   26.1927 H   0  0  0  0  0  0
  -28.3935  -32.6822   25.0371 H   0  0  0  0  0  0
  -28.0651  -31.8567   26.5525 H   0  0  0  0  0  0
  -28.2569  -38.0066   24.7513 H   0  0  0  0  0  0
  -28.1081  -36.2589   24.6304 H   0  0  0  0  0  0
  -27.2283  -37.1405   25.8871 H   0  0  0  0  0  0
  -20.9647  -29.8720   21.6628 H   0  0  0  0  0  0
  -26.0120  -38.2746   24.1414 H   0  0  0  0  0  0
  -29.7080  -20.2432   22.6091 H   0  0  0  0  0  0
  -27.5948  -21.6894   18.0489 H   0  0  0  0  0  0
  -28.3698  -20.1008   17.9455 H   0  0  0  0  0  0
  -29.3358  -21.5711   17.6872 H   0  0  0  0  0  0
  -28.1933  -17.7228   21.7059 H   0  0  0  0  0  0
  -28.8357  -16.2522   22.4155 H   0  0  0  0  0  0
  -27.6977  -16.1757   21.0623 H   0  0  0  0  0  0
  -30.8961  -18.4186   19.8990 H   0  0  0  0  0  0
  -29.4995  -18.2409   18.9381 H   0  0  0  0  0  0
  -26.9031  -23.9169   20.2394 H   0  0  0  0  0  0
  -27.9197  -24.0472   18.8602 H   0  0  0  0  0  0
  -29.0121  -22.6316   22.3953 H   0  0  0  0  0  0
  1 25  1  0  0  0
  1 30  2  0  0  0
  1 80  1  0  0  0
  2  3  1  0  0  0
  2 25  1  0  0  0
  2 81  1  0  0  0
  2 82  1  0  0  0
  3  4  1  0  0  0
  3 83  1  0  0  0
  3 84  1  0  0  0
  4  5  1  0  0  0
  4 85  1  0  0  0
  4 86  1  0  0  0
  5  6  1  0  0  0
  5 26  1  0  0  0
  5 87  1  0  0  0
  6 25  1  0  0  0
  6 88  1  0  0  0
  6 89  1  0  0  0
  7  8  2  0  0  0
  7 26  1  0  0  0
  7 29  1  0  0  0
  8  9  1  0  0  0
  8 22  1  0  0  0
  9 10  1  0  0  0
  9 27  2  0  0  0
 10 11  2  0  0  0
 10 15  1  0  0  0
 11 12  1  0  0  0
 11 90  1  0  0  0
 12 13  2  0  0  0
 12 91  1  0  0  0
 13 14  1  0  0  0
 13 31  1  0  0  0
 14 15  2  0  0  0
 14 92  1  0  0  0
 15 93  1  0  0  0
 16 17  2  0  0  0
 16 21  1  0  0  0
 16 31  1  0  0  0
 17 18  1  0  0  0
 17 94  1  0  0  0
 18 19  2  0  0  0
 18 95  1  0  0  0
 19 20  1  0  0  0
 19 24  1  0  0  0
 20 21  2  0  0  0
 20 96  1  0  0  0
 21 23  1  0  0  0
 22 28  1  0  0  0
 22 32  2  0  0  0
 26 27  1  0  0  0
 28 97  1  0  0  0
 28 98  1  0  0  0
 29 99  1  0  0  0
 29100  1  0  0  0
 33 34  1  0  0  0
 33 66  1  0  0  0
 33 70  2  0  0  0
 34 36  1  0  0  0
 34 59  1  0  0  0
 34101  1  0  0  0
 35 44  2  0  0  0
 35 45  1  0  0  0
 35 68  1  0  0  0
 36 56  1  0  0  0
 36102  1  0  0  0
 37 39  1  0  0  0
 37 47  1  0  0  0
 37 66  1  0  0  0
 37103  1  0  0  0
 38 43  2  0  0  0
 38 46  1  0  0  0
 38 47  1  0  0  0
 39 64  1  0  0  0
 39 67  2  0  0  0
 40 52  1  0  0  0
 40 53  2  0  0  0
 40 58  1  0  0  0
 41104  1  0  0  0
 41105  1  0  0  0
 41106  1  0  0  0
 41 48  1  0  0  0
 42 43  1  0  0  0
 42 66  1  0  0  0
 42107  1  0  0  0
 42108  1  0  0  0
 43 44  1  0  0  0
 44109  1  0  0  0
 45 46  2  0  0  0
 45110  1  0  0  0
 46111  1  0  0  0
 47112  1  0  0  0
 47113  1  0  0  0
 48 56  1  0  0  0
 48 65  1  0  0  0
 48114  1  0  0  0
 49 50  1  0  0  0
 49 53  1  0  0  0
 49 64  1  0  0  0
 49115  1  0  0  0
 50 51  1  0  0  0
 50116  1  0  0  0
 50117  1  0  0  0
 51 52  1  0  0  0
 51118  1  0  0  0
 51119  1  0  0  0
 52120  1  0  0  0
 52121  1  0  0  0
 53 54  1  0  0  0
 54 55  2  0  0  0
 54122  1  0  0  0
 55 57  1  0  0  0
 55123  1  0  0  0
 56 69  2  0  0  0
 57 58  2  0  0  0
 57124  1  0  0  0
 58125  1  0  0  0
 59 60  1  0  0  0
 59 61  1  0  0  0
 59 62  1  0  0  0
 60126  1  0  0  0
 60127  1  0  0  0
 60128  1  0  0  0
 61129  1  0  0  0
 61130  1  0  0  0
 61131  1  0  0  0
 62132  1  0  0  0
 62133  1  0  0  0
 62134  1  0  0  0
 63 65  1  0  0  0
 63135  1  0  0  0
 63136  1  0  0  0
 63137  1  0  0  0
 64138  1  0  0  0
 65139  1  0  0  0
 68 77  1  0  0  0
 71 72  2  0  0  0
 71 79  1  0  0  0
 71140  1  0  0  0
 72 76  1  0  0  0
 72 78  1  0  0  0
 73 77  1  0  0  0
 73 78  1  0  0  0
 73 79  2  0  0  0
 74 78  1  0  0  0
 74141  1  0  0  0
 74142  1  0  0  0
 74143  1  0  0  0
 75 80  1  0  0  0
 75144  1  0  0  0
 75145  1  0  0  0
 75146  1  0  0  0
 76 80  1  0  0  0
 76147  1  0  0  0
 76148  1  0  0  0
 77149  1  0  0  0
 77150  1  0  0  0
 79151  1  0  0  0
M  CHG  1  79   1
M  ISO  4   1 100  68 101  77 101  80 100
M  END
> <chiral flag>
0

> <version>
0

> <s_m_source_file>
/data/baiqing/PycharmProjects/Reinvent-master-3.2/result/LINK_invent/BTK/process_docking_weight1_custom_sum_contain_oxygen_bond_distance_aromatic_linkinvent_7_9_3/rearranged_h_0055.sdf

> <i_m_source_file_index>
84

> <r_mmod_Potential_Energy-OPLS-2005>
1536.48303222656

> <r_mmod_Stretch_Energy-OPLS-2005>
718.8466796875

> <r_mmod_Bend_Energy-OPLS-2005>
478.968444824219

> <r_mmod_Torsional_Energy-OPLS-2005>
251.220306396484

> <r_mmod_Improper_Torsional_Energy-OPLS-2005>
6.42413091659546

> <r_mmod_Van_der_Waal_Energy-OPLS-2005>
110.576950073242

> <r_mmod_Electrostatic_Energy-OPLS-2005>
-182.739303588867

> <r_mmod_Solvation_Energy-OPLS-2005>
-432.502227783203

> <b_mmod_Minimization_Converged-OPLS-2005>
0

> <r_mmod_RMS_Derivative-OPLS-2005>
1.90233957767487

$$$$
85
                    3D
 Structure written by MMmdl.
151159  0  0  1  0            999 V2000
  -30.5737  -14.8930   20.4750 C   0  0  0  0  0  0
  -30.4417  -12.5641   19.4836 C   0  0  0  0  0  0
  -29.5168  -12.5412   18.2438 C   0  0  0  0  0  0
  -28.0444  -12.3399   18.6546 C   0  0  0  0  0  0
  -27.6366  -13.2383   19.8521 C   0  0  2  0  0  0
  -28.6856  -13.1705   20.9804 C   0  0  0  0  0  0
  -25.2455  -13.8187   20.5664 C   0  0  0  0  0  0
  -24.1775  -13.0423   20.9204 C   0  0  0  0  0  0
  -24.6392  -11.6909   20.8761 C   0  0  0  0  0  0
  -23.9075  -10.4288   21.0419 C   0  0  0  0  0  0
  -24.3623   -9.4202   21.9194 C   0  0  0  0  0  0
  -23.6294   -8.2240   22.0761 C   0  0  0  0  0  0
  -22.4276   -8.0284   21.3549 C   0  0  0  0  0  0
  -21.9915   -9.0258   20.4651 C   0  0  0  0  0  0
  -22.7248  -10.2133   20.3063 C   0  0  0  0  0  0
  -21.6852   -6.0741   22.5283 C   0  0  0  0  0  0
  -21.4015   -6.5644   23.8218 C   0  0  0  0  0  0
  -21.3661   -5.6794   24.9179 C   0  0  0  0  0  0
  -21.6045   -4.3056   24.7228 C   0  0  0  0  0  0
  -21.8815   -3.8151   23.4346 C   0  0  0  0  0  0
  -21.9188   -4.6970   22.3404 C   0  0  0  0  0  0
  -22.7793  -13.5202   21.1858 C   0  0  0  0  0  0
  -22.1654   -4.2158   21.0978 F   0  0  0  0  0  0
  -21.5629   -3.4535   25.7739 F   0  0  0  0  0  0
  -29.9561  -13.6391   20.4007 N   0  0  0  0  0  0
  -26.2907  -12.9413   20.3288 N   0  0  0  0  0  0
  -25.9329  -11.6550   20.5768 N   0  0  0  0  0  0
  -22.0441  -12.8209   22.0425 N   0  0  0  0  0  0
  -25.4055  -15.1911   20.4007 N   0  0  0  0  0  0
  -31.7541  -14.9417   20.1068 O   0  0  0  0  0  0
  -21.6635   -6.8885   21.4246 O   0  0  0  0  0  0
  -22.3477  -14.5504   20.6698 O   0  0  0  0  0  0
  -24.6399  -31.8467   23.1903 C   0  0  0  0  0  0
  -25.9185  -32.4709   23.8283 C   0  0  1  0  0  0
  -27.2204  -27.1729   20.1398 C   0  0  0  0  0  0
  -25.5946  -33.8515   24.2205 N   0  0  0  0  0  0
  -23.4420  -30.4664   21.5348 C   0  0  2  0  0  0
  -24.8907  -28.8971   20.1098 C   0  0  0  0  0  0
  -22.7549  -29.4559   22.4867 C   0  0  0  0  0  0
  -18.0302  -28.1390   22.8477 C   0  0  0  0  0  0
  -24.1492  -36.7264   23.2642 C   0  0  0  0  0  0
  -25.9951  -30.7306   21.3845 C   0  0  0  0  0  0
  -26.0664  -29.3455   20.7247 C   0  0  0  0  0  0
  -27.2327  -28.4985   20.7231 C   0  0  0  0  0  0
  -26.0183  -26.8140   19.4919 C   0  0  0  0  0  0
  -24.8771  -27.6434   19.4797 C   0  0  0  0  0  0
  -23.6663  -29.7956   20.1536 C   0  0  0  0  0  0
  -25.4122  -36.3042   24.0320 C   0  0  1  0  0  0
  -20.5912  -28.3715   23.1240 C   0  0  2  0  0  0
  -20.6789  -26.9422   22.5402 C   0  0  0  0  0  0
  -19.5764  -26.6378   21.5209 C   0  0  0  0  0  0
  -18.1944  -26.7930   22.1620 C   0  0  0  0  0  0
  -19.1557  -28.8870   23.2852 C   0  0  0  0  0  0
  -18.9476  -30.1465   23.8880 C   0  0  0  0  0  0
  -17.6474  -30.6589   24.0558 C   0  0  0  0  0  0
  -25.9070  -34.9415   23.5071 C   0  0  0  0  0  0
  -16.5364  -29.9082   23.6333 C   0  0  0  0  0  0
  -16.7288  -28.6498   23.0360 C   0  0  0  0  0  0
  -26.4518  -31.6567   25.0714 C   0  0  0  0  0  0
  -25.3714  -31.3752   26.1420 C   0  0  0  0  0  0
  -27.0380  -30.2966   24.6277 C   0  0  0  0  0  0
  -27.6051  -32.4331   25.7497 C   0  0  0  0  0  0
  -27.5580  -37.1788   24.8462 C   0  0  0  0  0  0
  -21.4245  -29.3048   22.3617 N   0  0  0  0  0  0
  -26.4289  -37.3751   23.9410 N   0  0  0  0  0  0
  -24.7118  -31.0350   22.0919 N   0  0  0  0  0  0
  -23.4206  -28.8109   23.3008 O   0  0  0  0  0  0
  -28.2915  -26.2211   20.2044 O   0  0  0  0  0  0
  -26.5652  -34.8908   22.4648 O   0  0  0  0  0  0
  -23.5525  -32.1327   23.7143 O   0  0  0  0  0  0
  -29.4576  -19.8715   19.1120 C   0  0  0  0  0  0
  -29.6549  -19.0214   20.2591 C   0  0  0  0  0  0
  -29.1078  -21.9052   20.3469 C   0  0  0  0  0  0
  -29.2654  -21.0526   21.5020 C   0  0  0  0  0  0
  -28.8439  -16.2325   21.7113 C   0  0  0  0  0  0
  -29.1896  -23.5475   20.4237 C   0  0  0  0  0  0
  -30.3338  -17.5223   20.1493 C   0  0  0  0  0  0
  -28.0565  -24.7007   20.0428 C   0  0  0  0  0  0
  -29.2049  -21.2429   19.1449 N   0  0  0  0  0  0
  -29.5335  -19.6831   21.4582 N   0  0  0  0  0  0
  -29.8567  -16.1179   20.6610 N   0  0  0  0  0  0
  -29.2292  -21.6193   22.7307 F   0  0  0  0  0  0
  -31.4743  -12.7185   19.1671 H   0  0  0  0  0  0
  -30.4399  -11.5939   19.9834 H   0  0  0  0  0  0
  -29.8252  -11.7540   17.5542 H   0  0  0  0  0  0
  -29.6183  -13.4810   17.6986 H   0  0  0  0  0  0
  -27.9180  -11.2905   18.9234 H   0  0  0  0  0  0
  -27.3853  -12.5175   17.8042 H   0  0  0  0  0  0
  -27.6245  -14.2607   19.4733 H   0  0  0  0  0  0
  -28.7783  -12.1456   21.3430 H   0  0  0  0  0  0
  -28.3785  -13.7368   21.8539 H   0  0  0  0  0  0
  -25.2768   -9.5677   22.4770 H   0  0  0  0  0  0
  -24.0005   -7.4629   22.7478 H   0  0  0  0  0  0
  -21.0848   -8.8777   19.8952 H   0  0  0  0  0  0
  -22.3712  -10.9674   19.6173 H   0  0  0  0  0  0
  -21.2012   -7.6154   23.9727 H   0  0  0  0  0  0
  -21.1485   -6.0523   25.9082 H   0  0  0  0  0  0
  -22.0593   -2.7614   23.2842 H   0  0  0  0  0  0
  -22.4049  -11.9885   22.4847 H   0  0  0  0  0  0
  -21.1062  -13.1249   22.2623 H   0  0  0  0  0  0
  -24.6308  -15.8375   20.5046 H   0  0  0  0  0  0
  -26.2496  -15.6353   20.0634 H   0  0  0  0  0  0
  -26.7250  -32.5322   23.1014 H   0  0  0  0  0  0
  -25.0081  -33.9634   25.0344 H   0  0  0  0  0  0
  -22.7430  -31.2914   21.3814 H   0  0  0  0  0  0
  -23.3760  -35.9589   23.3285 H   0  0  0  0  0  0
  -24.3582  -36.8913   22.2060 H   0  0  0  0  0  0
  -23.7240  -37.6454   23.6687 H   0  0  0  0  0  0
  -26.1490  -31.4873   20.6141 H   0  0  0  0  0  0
  -26.8665  -30.7777   22.0264 H   0  0  0  0  0  0
  -28.1299  -28.8360   21.2225 H   0  0  0  0  0  0
  -25.9310  -25.8550   19.0037 H   0  0  0  0  0  0
  -23.9784  -27.2951   18.9891 H   0  0  0  0  0  0
  -23.8022  -30.5697   19.3976 H   0  0  0  0  0  0
  -22.7818  -29.2363   19.8434 H   0  0  0  0  0  0
  -25.1310  -36.1873   25.0812 H   0  0  0  0  0  0
  -21.0003  -28.3304   24.1361 H   0  0  0  0  0  0
  -20.5682  -26.2331   23.3620 H   0  0  0  0  0  0
  -21.6657  -26.7434   22.1203 H   0  0  0  0  0  0
  -19.6929  -25.6282   21.1259 H   0  0  0  0  0  0
  -19.6702  -27.3173   20.6726 H   0  0  0  0  0  0
  -17.4214  -26.6672   21.4022 H   0  0  0  0  0  0
  -18.0346  -26.0073   22.9018 H   0  0  0  0  0  0
  -19.7952  -30.7283   24.2246 H   0  0  0  0  0  0
  -17.5028  -31.6270   24.5160 H   0  0  0  0  0  0
  -15.5364  -30.2982   23.7666 H   0  0  0  0  0  0
  -15.8687  -28.0809   22.7093 H   0  0  0  0  0  0
  -24.5862  -30.7143   25.7732 H   0  0  0  0  0  0
  -24.8946  -32.2938   26.4844 H   0  0  0  0  0  0
  -25.7997  -30.8903   27.0201 H   0  0  0  0  0  0
  -26.2988  -29.6690   24.1285 H   0  0  0  0  0  0
  -27.4002  -29.7264   25.4843 H   0  0  0  0  0  0
  -27.8894  -30.4211   23.9583 H   0  0  0  0  0  0
  -27.2637  -33.3630   26.2057 H   0  0  0  0  0  0
  -28.3869  -32.6898   25.0335 H   0  0  0  0  0  0
  -28.0716  -31.8475   26.5430 H   0  0  0  0  0  0
  -28.2584  -38.0098   24.7521 H   0  0  0  0  0  0
  -28.1092  -36.2630   24.6273 H   0  0  0  0  0  0
  -27.2303  -37.1416   25.8866 H   0  0  0  0  0  0
  -20.9451  -29.8757   21.6797 H   0  0  0  0  0  0
  -26.0158  -38.2821   24.1412 H   0  0  0  0  0  0
  -29.5968  -19.4581   18.1233 H   0  0  0  0  0  0
  -28.6990  -17.2559   22.0494 H   0  0  0  0  0  0
  -29.1324  -15.6656   22.5977 H   0  0  0  0  0  0
  -27.8779  -15.8788   21.3599 H   0  0  0  0  0  0
  -30.0769  -23.8018   19.8446 H   0  0  0  0  0  0
  -29.4802  -23.7626   21.4514 H   0  0  0  0  0  0
  -31.3315  -17.6482   20.5706 H   0  0  0  0  0  0
  -30.5181  -17.3753   19.0843 H   0  0  0  0  0  0
  -27.1593  -24.4594   20.6137 H   0  0  0  0  0  0
  -27.7913  -24.5390   18.9975 H   0  0  0  0  0  0
  1 25  1  0  0  0
  1 30  2  0  0  0
  1 81  1  0  0  0
  2  3  1  0  0  0
  2 25  1  0  0  0
  2 83  1  0  0  0
  2 84  1  0  0  0
  3  4  1  0  0  0
  3 85  1  0  0  0
  3 86  1  0  0  0
  4  5  1  0  0  0
  4 87  1  0  0  0
  4 88  1  0  0  0
  5  6  1  0  0  0
  5 26  1  0  0  0
  5 89  1  0  0  0
  6 25  1  0  0  0
  6 90  1  0  0  0
  6 91  1  0  0  0
  7  8  2  0  0  0
  7 26  1  0  0  0
  7 29  1  0  0  0
  8  9  1  0  0  0
  8 22  1  0  0  0
  9 10  1  0  0  0
  9 27  2  0  0  0
 10 11  2  0  0  0
 10 15  1  0  0  0
 11 12  1  0  0  0
 11 92  1  0  0  0
 12 13  2  0  0  0
 12 93  1  0  0  0
 13 14  1  0  0  0
 13 31  1  0  0  0
 14 15  2  0  0  0
 14 94  1  0  0  0
 15 95  1  0  0  0
 16 17  2  0  0  0
 16 21  1  0  0  0
 16 31  1  0  0  0
 17 18  1  0  0  0
 17 96  1  0  0  0
 18 19  2  0  0  0
 18 97  1  0  0  0
 19 20  1  0  0  0
 19 24  1  0  0  0
 20 21  2  0  0  0
 20 98  1  0  0  0
 21 23  1  0  0  0
 22 28  1  0  0  0
 22 32  2  0  0  0
 26 27  1  0  0  0
 28 99  1  0  0  0
 28100  1  0  0  0
 29101  1  0  0  0
 29102  1  0  0  0
 33 34  1  0  0  0
 33 66  1  0  0  0
 33 70  2  0  0  0
 34 36  1  0  0  0
 34 59  1  0  0  0
 34103  1  0  0  0
 35 44  2  0  0  0
 35 45  1  0  0  0
 35 68  1  0  0  0
 36 56  1  0  0  0
 36104  1  0  0  0
 37 39  1  0  0  0
 37 47  1  0  0  0
 37 66  1  0  0  0
 37105  1  0  0  0
 38 43  2  0  0  0
 38 46  1  0  0  0
 38 47  1  0  0  0
 39 64  1  0  0  0
 39 67  2  0  0  0
 40 52  1  0  0  0
 40 53  2  0  0  0
 40 58  1  0  0  0
 41106  1  0  0  0
 41107  1  0  0  0
 41108  1  0  0  0
 41 48  1  0  0  0
 42 43  1  0  0  0
 42 66  1  0  0  0
 42109  1  0  0  0
 42110  1  0  0  0
 43 44  1  0  0  0
 44111  1  0  0  0
 45 46  2  0  0  0
 45112  1  0  0  0
 46113  1  0  0  0
 47114  1  0  0  0
 47115  1  0  0  0
 48 56  1  0  0  0
 48 65  1  0  0  0
 48116  1  0  0  0
 49 50  1  0  0  0
 49 53  1  0  0  0
 49 64  1  0  0  0
 49117  1  0  0  0
 50 51  1  0  0  0
 50118  1  0  0  0
 50119  1  0  0  0
 51 52  1  0  0  0
 51120  1  0  0  0
 51121  1  0  0  0
 52122  1  0  0  0
 52123  1  0  0  0
 53 54  1  0  0  0
 54 55  2  0  0  0
 54124  1  0  0  0
 55 57  1  0  0  0
 55125  1  0  0  0
 56 69  2  0  0  0
 57 58  2  0  0  0
 57126  1  0  0  0
 58127  1  0  0  0
 59 60  1  0  0  0
 59 61  1  0  0  0
 59 62  1  0  0  0
 60128  1  0  0  0
 60129  1  0  0  0
 60130  1  0  0  0
 61131  1  0  0  0
 61132  1  0  0  0
 61133  1  0  0  0
 62134  1  0  0  0
 62135  1  0  0  0
 62136  1  0  0  0
 63 65  1  0  0  0
 63137  1  0  0  0
 63138  1  0  0  0
 63139  1  0  0  0
 64140  1  0  0  0
 65141  1  0  0  0
 68 78  1  0  0  0
 71 72  2  0  0  0
 71 79  1  0  0  0
 71142  1  0  0  0
 72 77  1  0  0  0
 72 80  1  0  0  0
 73 74  1  0  0  0
 73 76  1  0  0  0
 73 79  2  0  0  0
 74 80  2  0  0  0
 74 82  1  0  0  0
 75 81  1  0  0  0
 75143  1  0  0  0
 75144  1  0  0  0
 75145  1  0  0  0
 76 78  1  0  0  0
 76146  1  0  0  0
 76147  1  0  0  0
 77 81  1  0  0  0
 77148  1  0  0  0
 77149  1  0  0  0
 78150  1  0  0  0
 78151  1  0  0  0
M  ISO  4   1 100  68 101  78 101  81 100
M  END
> <chiral flag>
0

> <version>
0

> <s_m_source_file>
/data/baiqing/PycharmProjects/Reinvent-master-3.2/result/LINK_invent/BTK/process_docking_weight1_custom_sum_contain_oxygen_bond_distance_aromatic_linkinvent_7_9_3/rearranged_h_0055.sdf

> <i_m_source_file_index>
85

> <r_mmod_Potential_Energy-OPLS-2005>
554.770385742188

> <r_mmod_Stretch_Energy-OPLS-2005>
218.969802856445

> <r_mmod_Bend_Energy-OPLS-2005>
254.523300170898

> <r_mmod_Torsional_Energy-OPLS-2005>
248.857376098633

> <r_mmod_Improper_Torsional_Energy-OPLS-2005>
12.4832859039307

> <r_mmod_Van_der_Waal_Energy-OPLS-2005>
145.027053833008

> <r_mmod_Electrostatic_Energy-OPLS-2005>
-262.144622802734

> <r_mmod_Solvation_Energy-OPLS-2005>
-211.302856445312

> <b_mmod_Minimization_Converged-OPLS-2005>
0

> <r_mmod_RMS_Derivative-OPLS-2005>
0.62211811542511

$$$$
86
                    3D
 Structure written by MMmdl.
162170  0  0  1  0            999 V2000
  -30.6420  -14.7519   20.4098 C   0  0  0  0  0  0
  -30.4219  -12.4549   19.4669 C   0  0  0  0  0  0
  -29.5043  -12.4846   18.2277 C   0  0  0  0  0  0
  -28.0326  -12.3147   18.6485 C   0  0  0  0  0  0
  -27.6330  -13.2313   19.8380 C   0  0  2  0  0  0
  -28.6828  -13.2211   20.9681 C   0  0  0  0  0  0
  -25.2494  -13.8200   20.5704 C   0  0  0  0  0  0
  -24.1788  -13.0452   20.9225 C   0  0  0  0  0  0
  -24.6385  -11.6934   20.8768 C   0  0  0  0  0  0
  -23.9054  -10.4319   21.0416 C   0  0  0  0  0  0
  -24.3616   -9.4234   21.9182 C   0  0  0  0  0  0
  -23.6302   -8.2264   22.0749 C   0  0  0  0  0  0
  -22.4286   -8.0287   21.3536 C   0  0  0  0  0  0
  -21.9916   -9.0258   20.4642 C   0  0  0  0  0  0
  -22.7237  -10.2145   20.3056 C   0  0  0  0  0  0
  -21.6864   -6.0740   22.5284 C   0  0  0  0  0  0
  -21.4027   -6.5635   23.8221 C   0  0  0  0  0  0
  -21.3671   -5.6778   24.9173 C   0  0  0  0  0  0
  -21.6037   -4.3042   24.7217 C   0  0  0  0  0  0
  -21.8818   -3.8143   23.4341 C   0  0  0  0  0  0
  -21.9199   -4.6966   22.3401 C   0  0  0  0  0  0
  -22.7817  -13.5233   21.1866 C   0  0  0  0  0  0
  -22.1661   -4.2156   21.0976 F   0  0  0  0  0  0
  -21.5638   -3.4525   25.7728 F   0  0  0  0  0  0
  -29.9741  -13.5494   20.3563 N   0  0  0  0  0  0
  -26.2905  -12.9407   20.3259 N   0  0  0  0  0  0
  -25.9309  -11.6552   20.5756 N   0  0  0  0  0  0
  -22.0436  -12.8246   22.0430 N   0  0  0  0  0  0
  -25.4206  -15.1932   20.4151 N   0  0  0  0  0  0
  -31.8667  -14.7530   20.2616 O   0  0  0  0  0  0
  -21.6650   -6.8887   21.4248 O   0  0  0  0  0  0
  -22.3518  -14.5514   20.6671 O   0  0  0  0  0  0
  -24.6328  -31.8550   23.2030 C   0  0  0  0  0  0
  -25.9157  -32.4755   23.8363 C   0  0  1  0  0  0
  -27.2037  -27.2631   20.1128 C   0  0  0  0  0  0
  -25.5956  -33.8564   24.2272 N   0  0  0  0  0  0
  -23.4280  -30.4831   21.5479 C   0  0  2  0  0  0
  -24.8690  -28.9387   20.1100 C   0  0  0  0  0  0
  -22.7513  -29.4594   22.4926 C   0  0  0  0  0  0
  -18.0289  -28.1386   22.8474 C   0  0  0  0  0  0
  -24.1483  -36.7272   23.2641 C   0  0  0  0  0  0
  -25.9788  -30.7652   21.3874 C   0  0  0  0  0  0
  -26.0471  -29.3935   20.7186 C   0  0  0  0  0  0
  -27.2186  -28.5689   20.7084 C   0  0  0  0  0  0
  -26.0013  -26.8844   19.4697 C   0  0  0  0  0  0
  -24.8522  -27.6916   19.4751 C   0  0  0  0  0  0
  -23.6450  -29.8286   20.1611 C   0  0  0  0  0  0
  -25.4110  -36.3059   24.0328 C   0  0  1  0  0  0
  -20.5895  -28.3683   23.1271 C   0  0  2  0  0  0
  -20.6783  -26.9407   22.5404 C   0  0  0  0  0  0
  -19.5754  -26.6375   21.5216 C   0  0  0  0  0  0
  -18.1935  -26.7931   22.1618 C   0  0  0  0  0  0
  -19.1548  -28.8856   23.2863 C   0  0  0  0  0  0
  -18.9466  -30.1460   23.8870 C   0  0  0  0  0  0
  -17.6465  -30.6594   24.0559 C   0  0  0  0  0  0
  -25.9055  -34.9436   23.5090 C   0  0  0  0  0  0
  -16.5354  -29.9086   23.6335 C   0  0  0  0  0  0
  -16.7276  -28.6508   23.0347 C   0  0  0  0  0  0
  -26.4512  -31.6593   25.0766 C   0  0  0  0  0  0
  -25.3743  -31.3751   26.1491 C   0  0  0  0  0  0
  -27.0380  -30.3011   24.6297 C   0  0  0  0  0  0
  -27.6053  -32.4367   25.7528 C   0  0  0  0  0  0
  -27.5578  -37.1787   24.8464 C   0  0  0  0  0  0
  -21.4226  -29.3028   22.3666 N   0  0  0  0  0  0
  -26.4282  -37.3771   23.9413 N   0  0  0  0  0  0
  -24.6998  -31.0517   22.1010 N   0  0  0  0  0  0
  -23.4224  -28.8120   23.3020 O   0  0  0  0  0  0
  -28.2817  -26.3447   20.1777 O   0  0  0  0  0  0
  -26.5622  -34.8901   22.4661 O   0  0  0  0  0  0
  -23.5479  -32.1376   23.7318 O   0  0  0  0  0  0
  -28.5382  -19.4474   20.1225 C   0  0  0  0  0  0
  -29.0180  -20.8014   20.3547 C   0  0  0  0  0  0
  -29.4210  -18.5360   20.7002 C   0  0  0  0  0  0
  -28.8193  -16.6228   17.8730 C   0  0  0  0  0  0
  -31.2301  -17.3877   18.3667 C   0  0  0  0  0  0
  -31.5367  -19.0048   22.0407 C   0  0  0  0  0  0
  -28.3524  -22.1800   19.9485 C   0  0  0  0  0  0
  -29.3863  -16.9687   20.9561 C   0  0  0  0  0  0
  -28.9246  -23.6447   20.3313 C   0  0  0  0  0  0
  -27.9700  -24.8897   19.9576 C   0  0  0  0  0  0
  -30.1413  -16.3185   18.5983 C   0  0  0  0  0  0
  -30.1587  -20.7173   21.0264 N   0  0  0  0  0  0
  -30.3860  -19.3809   21.2453 N   0  0  0  0  0  0
  -29.9519  -15.9046   20.0164 N   0  0  0  0  0  0
  -31.4665  -12.5613   19.1671 H   0  0  0  0  0  0
  -30.3513  -11.4934   19.9754 H   0  0  0  0  0  0
  -29.7885  -11.6976   17.5290 H   0  0  0  0  0  0
  -29.6260  -13.4225   17.6885 H   0  0  0  0  0  0
  -27.8961  -11.2697   18.9260 H   0  0  0  0  0  0
  -27.3747  -12.4924   17.7968 H   0  0  0  0  0  0
  -27.6075  -14.2426   19.4424 H   0  0  0  0  0  0
  -28.7216  -12.2518   21.4659 H   0  0  0  0  0  0
  -28.4216  -13.9608   21.7280 H   0  0  0  0  0  0
  -25.2773   -9.5721   22.4740 H   0  0  0  0  0  0
  -24.0026   -7.4659   22.7455 H   0  0  0  0  0  0
  -21.0859   -8.8769   19.8938 H   0  0  0  0  0  0
  -22.3698  -10.9673   19.6160 H   0  0  0  0  0  0
  -21.2017   -7.6145   23.9730 H   0  0  0  0  0  0
  -21.1496   -6.0504   25.9076 H   0  0  0  0  0  0
  -22.0588   -2.7607   23.2833 H   0  0  0  0  0  0
  -22.4057  -11.9949   22.4888 H   0  0  0  0  0  0
  -21.1035  -13.1272   22.2544 H   0  0  0  0  0  0
  -24.6532  -15.8458   20.5290 H   0  0  0  0  0  0
  -26.2704  -15.6352   20.0899 H   0  0  0  0  0  0
  -26.7232  -32.5379   23.1100 H   0  0  0  0  0  0
  -25.0124  -33.9701   25.0433 H   0  0  0  0  0  0
  -22.7246  -31.3070   21.4086 H   0  0  0  0  0  0
  -23.3760  -35.9597   23.3290 H   0  0  0  0  0  0
  -24.3574  -36.8906   22.2061 H   0  0  0  0  0  0
  -23.7219  -37.6461   23.6674 H   0  0  0  0  0  0
  -26.1343  -31.5317   20.6272 H   0  0  0  0  0  0
  -26.8513  -30.7970   22.0286 H   0  0  0  0  0  0
  -28.1181  -28.9108   21.2014 H   0  0  0  0  0  0
  -25.8998  -25.9361   18.9663 H   0  0  0  0  0  0
  -23.9515  -27.3381   18.9913 H   0  0  0  0  0  0
  -23.7802  -30.6119   19.4145 H   0  0  0  0  0  0
  -22.7595  -29.2723   19.8456 H   0  0  0  0  0  0
  -25.1292  -36.1910   25.0830 H   0  0  0  0  0  0
  -20.9983  -28.3266   24.1393 H   0  0  0  0  0  0
  -20.5684  -26.2304   23.3611 H   0  0  0  0  0  0
  -21.6653  -26.7430   22.1196 H   0  0  0  0  0  0
  -19.6912  -25.6284   21.1251 H   0  0  0  0  0  0
  -19.6703  -27.3182   20.6748 H   0  0  0  0  0  0
  -17.4211  -26.6679   21.4018 H   0  0  0  0  0  0
  -18.0320  -26.0084   22.9017 H   0  0  0  0  0  0
  -19.7943  -30.7290   24.2235 H   0  0  0  0  0  0
  -17.5013  -31.6266   24.5166 H   0  0  0  0  0  0
  -15.5349  -30.2971   23.7682 H   0  0  0  0  0  0
  -15.8674  -28.0820   22.7062 H   0  0  0  0  0  0
  -24.5897  -30.7117   25.7818 H   0  0  0  0  0  0
  -24.8962  -32.2928   26.4938 H   0  0  0  0  0  0
  -25.8064  -30.8906   27.0258 H   0  0  0  0  0  0
  -26.2992  -29.6743   24.1288 H   0  0  0  0  0  0
  -27.4001  -29.7285   25.4844 H   0  0  0  0  0  0
  -27.8891  -30.4265   23.9603 H   0  0  0  0  0  0
  -27.2640  -33.3662   26.2099 H   0  0  0  0  0  0
  -28.3857  -32.6955   25.0360 H   0  0  0  0  0  0
  -28.0745  -31.8525   26.5449 H   0  0  0  0  0  0
  -28.2581  -38.0094   24.7534 H   0  0  0  0  0  0
  -28.1082  -36.2629   24.6265 H   0  0  0  0  0  0
  -27.2296  -37.1407   25.8864 H   0  0  0  0  0  0
  -20.9429  -29.8769   21.6870 H   0  0  0  0  0  0
  -26.0149  -38.2840   24.1449 H   0  0  0  0  0  0
  -27.6150  -19.1841   19.6252 H   0  0  0  0  0  0
  -28.9876  -16.7517   16.8029 H   0  0  0  0  0  0
  -28.3555  -17.5385   18.2282 H   0  0  0  0  0  0
  -28.0968  -15.8188   17.9888 H   0  0  0  0  0  0
  -31.5521  -17.3793   17.3238 H   0  0  0  0  0  0
  -32.1154  -17.2101   18.9772 H   0  0  0  0  0  0
  -30.8803  -18.3994   18.5656 H   0  0  0  0  0  0
  -32.1055  -18.2269   21.5297 H   0  0  0  0  0  0
  -31.2027  -18.6228   23.0060 H   0  0  0  0  0  0
  -32.1855  -19.8651   22.2122 H   0  0  0  0  0  0
  -27.3257  -22.1518   20.3152 H   0  0  0  0  0  0
  -28.2395  -22.1703   18.8642 H   0  0  0  0  0  0
  -28.3409  -16.6939   21.0929 H   0  0  0  0  0  0
  -29.8313  -16.7834   21.9341 H   0  0  0  0  0  0
  -29.8894  -23.7807   19.8414 H   0  0  0  0  0  0
  -29.1264  -23.6728   21.4017 H   0  0  0  0  0  0
  -27.0389  -24.6828   20.4874 H   0  0  0  0  0  0
  -27.7442  -24.7811   18.8957 H   0  0  0  0  0  0
  -30.5285  -15.4480   18.0626 H   0  0  0  0  0  0
  1 25  1  0  0  0
  1 30  2  0  0  0
  1 84  1  0  0  0
  2  3  1  0  0  0
  2 25  1  0  0  0
  2 85  1  0  0  0
  2 86  1  0  0  0
  3  4  1  0  0  0
  3 87  1  0  0  0
  3 88  1  0  0  0
  4  5  1  0  0  0
  4 89  1  0  0  0
  4 90  1  0  0  0
  5  6  1  0  0  0
  5 26  1  0  0  0
  5 91  1  0  0  0
  6 25  1  0  0  0
  6 92  1  0  0  0
  6 93  1  0  0  0
  7  8  2  0  0  0
  7 26  1  0  0  0
  7 29  1  0  0  0
  8  9  1  0  0  0
  8 22  1  0  0  0
  9 10  1  0  0  0
  9 27  2  0  0  0
 10 11  2  0  0  0
 10 15  1  0  0  0
 11 12  1  0  0  0
 11 94  1  0  0  0
 12 13  2  0  0  0
 12 95  1  0  0  0
 13 14  1  0  0  0
 13 31  1  0  0  0
 14 15  2  0  0  0
 14 96  1  0  0  0
 15 97  1  0  0  0
 16 17  2  0  0  0
 16 21  1  0  0  0
 16 31  1  0  0  0
 17 18  1  0  0  0
 17 98  1  0  0  0
 18 19  2  0  0  0
 18 99  1  0  0  0
 19 20  1  0  0  0
 19 24  1  0  0  0
 20 21  2  0  0  0
 20100  1  0  0  0
 21 23  1  0  0  0
 22 28  1  0  0  0
 22 32  2  0  0  0
 26 27  1  0  0  0
 28101  1  0  0  0
 28102  1  0  0  0
 29103  1  0  0  0
 29104  1  0  0  0
 33 34  1  0  0  0
 33 66  1  0  0  0
 33 70  2  0  0  0
 34 36  1  0  0  0
 34 59  1  0  0  0
 34105  1  0  0  0
 35 44  2  0  0  0
 35 45  1  0  0  0
 35 68  1  0  0  0
 36 56  1  0  0  0
 36106  1  0  0  0
 37 39  1  0  0  0
 37 47  1  0  0  0
 37 66  1  0  0  0
 37107  1  0  0  0
 38 43  2  0  0  0
 38 46  1  0  0  0
 38 47  1  0  0  0
 39 64  1  0  0  0
 39 67  2  0  0  0
 40 52  1  0  0  0
 40 53  2  0  0  0
 40 58  1  0  0  0
 41108  1  0  0  0
 41109  1  0  0  0
 41110  1  0  0  0
 41 48  1  0  0  0
 42 43  1  0  0  0
 42 66  1  0  0  0
 42111  1  0  0  0
 42112  1  0  0  0
 43 44  1  0  0  0
 44113  1  0  0  0
 45 46  2  0  0  0
 45114  1  0  0  0
 46115  1  0  0  0
 47116  1  0  0  0
 47117  1  0  0  0
 48 56  1  0  0  0
 48 65  1  0  0  0
 48118  1  0  0  0
 49 50  1  0  0  0
 49 53  1  0  0  0
 49 64  1  0  0  0
 49119  1  0  0  0
 50 51  1  0  0  0
 50120  1  0  0  0
 50121  1  0  0  0
 51 52  1  0  0  0
 51122  1  0  0  0
 51123  1  0  0  0
 52124  1  0  0  0
 52125  1  0  0  0
 53 54  1  0  0  0
 54 55  2  0  0  0
 54126  1  0  0  0
 55 57  1  0  0  0
 55127  1  0  0  0
 56 69  2  0  0  0
 57 58  2  0  0  0
 57128  1  0  0  0
 58129  1  0  0  0
 59 60  1  0  0  0
 59 61  1  0  0  0
 59 62  1  0  0  0
 60130  1  0  0  0
 60131  1  0  0  0
 60132  1  0  0  0
 61133  1  0  0  0
 61134  1  0  0  0
 61135  1  0  0  0
 62136  1  0  0  0
 62137  1  0  0  0
 62138  1  0  0  0
 63 65  1  0  0  0
 63139  1  0  0  0
 63140  1  0  0  0
 63141  1  0  0  0
 64142  1  0  0  0
 65143  1  0  0  0
 68 80  1  0  0  0
 71 72  1  0  0  0
 71 73  2  0  0  0
 71144  1  0  0  0
 72 77  1  0  0  0
 72 82  2  0  0  0
 73 78  1  0  0  0
 73 83  1  0  0  0
 74145  1  0  0  0
 74146  1  0  0  0
 74147  1  0  0  0
 74 81  1  0  0  0
 75 81  1  0  0  0
 75148  1  0  0  0
 75149  1  0  0  0
 75150  1  0  0  0
 76 83  1  0  0  0
 76151  1  0  0  0
 76152  1  0  0  0
 76153  1  0  0  0
 77 79  1  0  0  0
 77154  1  0  0  0
 77155  1  0  0  0
 78 84  1  0  0  0
 78156  1  0  0  0
 78157  1  0  0  0
 79 80  1  0  0  0
 79158  1  0  0  0
 79159  1  0  0  0
 80160  1  0  0  0
 80161  1  0  0  0
 81 84  1  0  0  0
 81162  1  0  0  0
 82 83  1  0  0  0
M  ISO  4   1 100  68 101  80 101  84 100
M  END
> <chiral flag>
0

> <version>
0

> <s_m_source_file>
/data/baiqing/PycharmProjects/Reinvent-master-3.2/result/LINK_invent/BTK/process_docking_weight1_custom_sum_contain_oxygen_bond_distance_aromatic_linkinvent_7_9_3/rearranged_h_0055.sdf

> <i_m_source_file_index>
86

> <r_mmod_Potential_Energy-OPLS-2005>
318.916748046875

> <r_mmod_Stretch_Energy-OPLS-2005>
117.958686828613

> <r_mmod_Bend_Energy-OPLS-2005>
185.776321411133

> <r_mmod_Torsional_Energy-OPLS-2005>
323.760650634766

> <r_mmod_Improper_Torsional_Energy-OPLS-2005>
23.0663642883301

> <r_mmod_Van_der_Waal_Energy-OPLS-2005>
114.475509643555

> <r_mmod_Electrostatic_Energy-OPLS-2005>
-335.884643554688

> <r_mmod_Solvation_Energy-OPLS-2005>
-208.454925537109

> <b_mmod_Minimization_Converged-OPLS-2005>
0

> <r_mmod_RMS_Derivative-OPLS-2005>
2.72456455230713

$$$$
87
                    3D
 Structure written by MMmdl.
153161  0  0  1  0            999 V2000
  -30.5219  -15.0357   20.4534 C   0  0  0  0  0  0
  -30.4397  -12.6553   19.5061 C   0  0  0  0  0  0
  -29.5170  -12.5624   18.2648 C   0  0  0  0  0  0
  -28.0532  -12.3286   18.6802 C   0  0  0  0  0  0
  -27.6260  -13.2543   19.8462 C   0  0  2  0  0  0
  -28.6695  -13.2584   20.9801 C   0  0  0  0  0  0
  -25.2427  -13.8228   20.5752 C   0  0  0  0  0  0
  -24.1749  -13.0435   20.9239 C   0  0  0  0  0  0
  -24.6388  -11.6925   20.8765 C   0  0  0  0  0  0
  -23.9093  -10.4297   21.0424 C   0  0  0  0  0  0
  -24.3629   -9.4195   21.9204 C   0  0  0  0  0  0
  -23.6288   -8.2230   22.0765 C   0  0  0  0  0  0
  -22.4272   -8.0273   21.3549 C   0  0  0  0  0  0
  -21.9926   -9.0256   20.4657 C   0  0  0  0  0  0
  -22.7261  -10.2138   20.3067 C   0  0  0  0  0  0
  -21.6856   -6.0728   22.5276 C   0  0  0  0  0  0
  -21.4024   -6.5635   23.8208 C   0  0  0  0  0  0
  -21.3651   -5.6787   24.9178 C   0  0  0  0  0  0
  -21.6036   -4.3048   24.7225 C   0  0  0  0  0  0
  -21.8814   -3.8142   23.4345 C   0  0  0  0  0  0
  -21.9192   -4.6960   22.3405 C   0  0  0  0  0  0
  -22.7762  -13.5191   21.1881 C   0  0  0  0  0  0
  -22.1650   -4.2149   21.0977 F   0  0  0  0  0  0
  -21.5629   -3.4534   25.7735 F   0  0  0  0  0  0
  -29.9306  -13.7552   20.3939 N   0  0  0  0  0  0
  -26.2861  -12.9470   20.3298 N   0  0  0  0  0  0
  -25.9323  -11.6591   20.5766 N   0  0  0  0  0  0
  -22.0424  -12.8184   22.0447 N   0  0  0  0  0  0
  -25.4119  -15.1955   20.4179 N   0  0  0  0  0  0
  -31.7011  -15.0764   20.0752 O   0  0  0  0  0  0
  -21.6623   -6.8872   21.4241 O   0  0  0  0  0  0
  -22.3437  -14.5505   20.6749 O   0  0  0  0  0  0
  -24.6505  -31.8325   23.1819 C   0  0  0  0  0  0
  -25.9205  -32.4649   23.8249 C   0  0  1  0  0  0
  -27.2098  -27.0660   20.1693 C   0  0  0  0  0  0
  -25.5922  -33.8470   24.2140 N   0  0  0  0  0  0
  -23.4598  -30.4511   21.5277 C   0  0  2  0  0  0
  -24.9078  -28.8645   20.1107 C   0  0  0  0  0  0
  -22.7624  -29.4499   22.4859 C   0  0  0  0  0  0
  -18.0313  -28.1401   22.8463 C   0  0  0  0  0  0
  -24.1486  -36.7261   23.2650 C   0  0  0  0  0  0
  -26.0193  -30.6881   21.3856 C   0  0  0  0  0  0
  -26.0882  -29.2926   20.7335 C   0  0  0  0  0  0
  -27.2395  -28.4084   20.7447 C   0  0  0  0  0  0
  -26.0039  -26.7574   19.5036 C   0  0  0  0  0  0
  -24.8826  -27.6136   19.4811 C   0  0  0  0  0  0
  -23.6906  -29.7759   20.1499 C   0  0  0  0  0  0
  -25.4126  -36.3018   24.0292 C   0  0  1  0  0  0
  -20.5940  -28.3727   23.1253 C   0  0  2  0  0  0
  -20.6815  -26.9430   22.5436 C   0  0  0  0  0  0
  -19.5773  -26.6382   21.5259 C   0  0  0  0  0  0
  -18.1940  -26.7951   22.1633 C   0  0  0  0  0  0
  -19.1573  -28.8881   23.2846 C   0  0  0  0  0  0
  -18.9498  -30.1485   23.8863 C   0  0  0  0  0  0
  -17.6495  -30.6601   24.0557 C   0  0  0  0  0  0
  -25.9074  -34.9387   23.5034 C   0  0  0  0  0  0
  -16.5383  -29.9076   23.6370 C   0  0  0  0  0  0
  -16.7303  -28.6514   23.0350 C   0  0  0  0  0  0
  -26.4508  -31.6564   25.0723 C   0  0  0  0  0  0
  -25.3658  -31.3766   26.1408 C   0  0  0  0  0  0
  -27.0371  -30.2960   24.6324 C   0  0  0  0  0  0
  -27.6006  -32.4351   25.7499 C   0  0  0  0  0  0
  -27.5553  -37.1793   24.8456 C   0  0  0  0  0  0
  -21.4304  -29.3046   22.3629 N   0  0  0  0  0  0
  -26.4278  -37.3751   23.9392 N   0  0  0  0  0  0
  -24.7315  -31.0136   22.0872 N   0  0  0  0  0  0
  -23.4245  -28.8066   23.3043 O   0  0  0  0  0  0
  -28.2365  -26.0364   20.2344 O   0  0  0  0  0  0
  -26.5707  -34.8898   22.4645 O   0  0  0  0  0  0
  -23.5596  -32.1207   23.7005 O   0  0  0  0  0  0
  -27.8974  -19.4520   20.7911 C   0  0  0  0  0  0
  -29.2615  -19.2169   20.4140 C   0  0  0  0  0  0
  -27.6270  -20.8222   20.7663 C   0  0  0  0  0  0
  -26.3280  -21.4806   21.1048 C   0  0  0  0  0  0
  -28.9569  -16.3393   21.8830 C   0  0  0  0  0  0
  -30.1271  -17.7793   20.2197 C   0  0  0  0  0  0
  -29.0280  -23.1551   20.3057 C   0  0  0  0  0  0
  -27.9368  -24.4784   20.1618 C   0  0  0  0  0  0
  -29.7294  -20.5243   20.1798 N   0  0  0  0  0  0
  -28.7496  -21.5632   20.3753 N   0  0  0  0  0  0
  -29.7954  -16.2759   20.6856 N   0  0  0  0  0  0
  -31.4671  -12.8286   19.1781 H   0  0  0  0  0  0
  -30.4679  -11.7031   20.0387 H   0  0  0  0  0  0
  -29.8526  -11.7701   17.5954 H   0  0  0  0  0  0
  -29.5838  -13.4922   17.7012 H   0  0  0  0  0  0
  -27.9569  -11.2869   18.9880 H   0  0  0  0  0  0
  -27.3882  -12.4539   17.8267 H   0  0  0  0  0  0
  -27.5939  -14.2646   19.4360 H   0  0  0  0  0  0
  -28.7895  -12.2549   21.3894 H   0  0  0  0  0  0
  -28.3129  -13.8569   21.8120 H   0  0  0  0  0  0
  -25.2766   -9.5656   22.4794 H   0  0  0  0  0  0
  -23.9980   -7.4619   22.7500 H   0  0  0  0  0  0
  -21.0852   -8.8793   19.8965 H   0  0  0  0  0  0
  -22.3724  -10.9684   19.6185 H   0  0  0  0  0  0
  -21.2025   -7.6138   23.9731 H   0  0  0  0  0  0
  -21.1482   -6.0506   25.9081 H   0  0  0  0  0  0
  -22.0609   -2.7608   23.2846 H   0  0  0  0  0  0
  -22.4017  -11.9789   22.4744 H   0  0  0  0  0  0
  -21.1072  -13.1260   22.2750 H   0  0  0  0  0  0
  -24.6508  -15.8551   20.5425 H   0  0  0  0  0  0
  -26.2665  -15.6323   20.0964 H   0  0  0  0  0  0
  -26.7219  -32.5226   23.0914 H   0  0  0  0  0  0
  -25.0060  -33.9584   25.0269 H   0  0  0  0  0  0
  -22.7693  -31.2810   21.3626 H   0  0  0  0  0  0
  -23.3753  -35.9596   23.3310 H   0  0  0  0  0  0
  -24.3598  -36.8924   22.2074 H   0  0  0  0  0  0
  -23.7218  -37.6434   23.6724 H   0  0  0  0  0  0
  -26.1794  -31.4319   20.6054 H   0  0  0  0  0  0
  -26.8908  -30.7448   22.0270 H   0  0  0  0  0  0
  -28.1338  -28.7244   21.2636 H   0  0  0  0  0  0
  -25.8917  -25.8026   19.0132 H   0  0  0  0  0  0
  -23.9823  -27.2751   18.9888 H   0  0  0  0  0  0
  -23.8434  -30.5481   19.3947 H   0  0  0  0  0  0
  -22.8019  -29.2254   19.8341 H   0  0  0  0  0  0
  -25.1303  -36.1872   25.0784 H   0  0  0  0  0  0
  -20.9984  -28.3288   24.1393 H   0  0  0  0  0  0
  -20.5796  -26.2309   23.3634 H   0  0  0  0  0  0
  -21.6652  -26.7490   22.1151 H   0  0  0  0  0  0
  -19.6963  -25.6310   21.1240 H   0  0  0  0  0  0
  -19.6707  -27.3237   20.6827 H   0  0  0  0  0  0
  -17.4227  -26.6738   21.4001 H   0  0  0  0  0  0
  -18.0271  -26.0106   22.9040 H   0  0  0  0  0  0
  -19.7985  -30.7296   24.2197 H   0  0  0  0  0  0
  -17.5057  -31.6282   24.5162 H   0  0  0  0  0  0
  -15.5383  -30.2944   23.7741 H   0  0  0  0  0  0
  -15.8707  -28.0818   22.7058 H   0  0  0  0  0  0
  -24.5897  -30.7019   25.7740 H   0  0  0  0  0  0
  -24.8768  -32.2925   26.4712 H   0  0  0  0  0  0
  -25.7931  -30.9039   27.0252 H   0  0  0  0  0  0
  -26.2977  -29.6696   24.1305 H   0  0  0  0  0  0
  -27.3934  -29.7263   25.4922 H   0  0  0  0  0  0
  -27.8917  -30.4204   23.9667 H   0  0  0  0  0  0
  -27.2613  -33.3734   26.1890 H   0  0  0  0  0  0
  -28.3910  -32.6772   25.0379 H   0  0  0  0  0  0
  -28.0545  -31.8577   26.5553 H   0  0  0  0  0  0
  -28.2537  -38.0121   24.7519 H   0  0  0  0  0  0
  -28.1064  -36.2635   24.6258 H   0  0  0  0  0  0
  -27.2274  -37.1402   25.8862 H   0  0  0  0  0  0
  -20.9555  -29.8767   21.6795 H   0  0  0  0  0  0
  -26.0136  -38.2807   24.1451 H   0  0  0  0  0  0
  -27.1763  -18.6906   21.0550 H   0  0  0  0  0  0
  -25.6281  -20.7639   21.5389 H   0  0  0  0  0  0
  -25.8570  -21.9003   20.2154 H   0  0  0  0  0  0
  -26.4609  -22.2815   21.8314 H   0  0  0  0  0  0
  -27.9060  -16.1967   21.6318 H   0  0  0  0  0  0
  -29.0574  -17.2973   22.3920 H   0  0  0  0  0  0
  -29.2534  -15.6012   22.6279 H   0  0  0  0  0  0
  -31.1231  -17.9654   20.6262 H   0  0  0  0  0  0
  -30.3085  -17.6810   19.1493 H   0  0  0  0  0  0
  -29.6086  -23.3691   21.2040 H   0  0  0  0  0  0
  -29.7388  -23.2785   19.4879 H   0  0  0  0  0  0
  -27.1516  -24.3123   20.8996 H   0  0  0  0  0  0
  -27.4440  -24.3190   19.2031 H   0  0  0  0  0  0
  1 25  1  0  0  0
  1 30  2  0  0  0
  1 81  1  0  0  0
  2  3  1  0  0  0
  2 25  1  0  0  0
  2 82  1  0  0  0
  2 83  1  0  0  0
  3  4  1  0  0  0
  3 84  1  0  0  0
  3 85  1  0  0  0
  4  5  1  0  0  0
  4 86  1  0  0  0
  4 87  1  0  0  0
  5  6  1  0  0  0
  5 26  1  0  0  0
  5 88  1  0  0  0
  6 25  1  0  0  0
  6 89  1  0  0  0
  6 90  1  0  0  0
  7  8  2  0  0  0
  7 26  1  0  0  0
  7 29  1  0  0  0
  8  9  1  0  0  0
  8 22  1  0  0  0
  9 10  1  0  0  0
  9 27  2  0  0  0
 10 11  2  0  0  0
 10 15  1  0  0  0
 11 12  1  0  0  0
 11 91  1  0  0  0
 12 13  2  0  0  0
 12 92  1  0  0  0
 13 14  1  0  0  0
 13 31  1  0  0  0
 14 15  2  0  0  0
 14 93  1  0  0  0
 15 94  1  0  0  0
 16 17  2  0  0  0
 16 21  1  0  0  0
 16 31  1  0  0  0
 17 18  1  0  0  0
 17 95  1  0  0  0
 18 19  2  0  0  0
 18 96  1  0  0  0
 19 20  1  0  0  0
 19 24  1  0  0  0
 20 21  2  0  0  0
 20 97  1  0  0  0
 21 23  1  0  0  0
 22 28  1  0  0  0
 22 32  2  0  0  0
 26 27  1  0  0  0
 28 98  1  0  0  0
 28 99  1  0  0  0
 29100  1  0  0  0
 29101  1  0  0  0
 33 34  1  0  0  0
 33 66  1  0  0  0
 33 70  2  0  0  0
 34 36  1  0  0  0
 34 59  1  0  0  0
 34102  1  0  0  0
 35 44  2  0  0  0
 35 45  1  0  0  0
 35 68  1  0  0  0
 36 56  1  0  0  0
 36103  1  0  0  0
 37 39  1  0  0  0
 37 47  1  0  0  0
 37 66  1  0  0  0
 37104  1  0  0  0
 38 43  2  0  0  0
 38 46  1  0  0  0
 38 47  1  0  0  0
 39 64  1  0  0  0
 39 67  2  0  0  0
 40 52  1  0  0  0
 40 53  2  0  0  0
 40 58  1  0  0  0
 41105  1  0  0  0
 41106  1  0  0  0
 41107  1  0  0  0
 41 48  1  0  0  0
 42 43  1  0  0  0
 42 66  1  0  0  0
 42108  1  0  0  0
 42109  1  0  0  0
 43 44  1  0  0  0
 44110  1  0  0  0
 45 46  2  0  0  0
 45111  1  0  0  0
 46112  1  0  0  0
 47113  1  0  0  0
 47114  1  0  0  0
 48 56  1  0  0  0
 48 65  1  0  0  0
 48115  1  0  0  0
 49 50  1  0  0  0
 49 53  1  0  0  0
 49 64  1  0  0  0
 49116  1  0  0  0
 50 51  1  0  0  0
 50117  1  0  0  0
 50118  1  0  0  0
 51 52  1  0  0  0
 51119  1  0  0  0
 51120  1  0  0  0
 52121  1  0  0  0
 52122  1  0  0  0
 53 54  1  0  0  0
 54 55  2  0  0  0
 54123  1  0  0  0
 55 57  1  0  0  0
 55124  1  0  0  0
 56 69  2  0  0  0
 57 58  2  0  0  0
 57125  1  0  0  0
 58126  1  0  0  0
 59 60  1  0  0  0
 59 61  1  0  0  0
 59 62  1  0  0  0
 60127  1  0  0  0
 60128  1  0  0  0
 60129  1  0  0  0
 61130  1  0  0  0
 61131  1  0  0  0
 61132  1  0  0  0
 62133  1  0  0  0
 62134  1  0  0  0
 62135  1  0  0  0
 63 65  1  0  0  0
 63136  1  0  0  0
 63137  1  0  0  0
 63138  1  0  0  0
 64139  1  0  0  0
 65140  1  0  0  0
 68 78  1  0  0  0
 71 72  1  0  0  0
 71 73  2  0  0  0
 71141  1  0  0  0
 72 76  1  0  0  0
 72 79  2  0  0  0
 73 74  1  0  0  0
 73 80  1  0  0  0
 74142  1  0  0  0
 74143  1  0  0  0
 74144  1  0  0  0
 75 81  1  0  0  0
 75145  1  0  0  0
 75146  1  0  0  0
 75147  1  0  0  0
 76 81  1  0  0  0
 76148  1  0  0  0
 76149  1  0  0  0
 77 78  1  0  0  0
 77 80  1  0  0  0
 77150  1  0  0  0
 77151  1  0  0  0
 78152  1  0  0  0
 78153  1  0  0  0
 79 80  1  0  0  0
M  ISO  4   1 100  68 101  78 101  81 100
M  END
> <chiral flag>
0

> <version>
0

> <s_m_source_file>
/data/baiqing/PycharmProjects/Reinvent-master-3.2/result/LINK_invent/BTK/process_docking_weight1_custom_sum_contain_oxygen_bond_distance_aromatic_linkinvent_7_9_3/rearranged_h_0055.sdf

> <i_m_source_file_index>
87

> <r_mmod_Potential_Energy-OPLS-2005>
704.309631347656

> <r_mmod_Stretch_Energy-OPLS-2005>
343.430389404297

> <r_mmod_Bend_Energy-OPLS-2005>
315.5966796875

> <r_mmod_Torsional_Energy-OPLS-2005>
256.693572998047

> <r_mmod_Improper_Torsional_Energy-OPLS-2005>
7.32242155075073

> <r_mmod_Van_der_Waal_Energy-OPLS-2005>
113.667381286621

> <r_mmod_Electrostatic_Energy-OPLS-2005>
-361.379943847656

> <r_mmod_Solvation_Energy-OPLS-2005>
-223.214752197266

> <b_mmod_Minimization_Converged-OPLS-2005>
0

> <r_mmod_RMS_Derivative-OPLS-2005>
3.92885947227478

$$$$
88
                    3D
 Structure written by MMmdl.
160168  0  0  1  0            999 V2000
  -29.1498  -18.1415   20.4665 C   0  0  0  0  0  0
  -29.9421  -14.9954   19.6147 C   0  0  0  0  0  0
  -29.5225  -13.7101   18.6211 C   0  0  0  0  0  0
  -28.4013  -12.8009   19.1216 C   0  0  0  0  0  0
  -27.5418  -13.7723   19.9231 C   0  0  2  0  0  0
  -28.2619  -14.9405   20.8794 C   0  0  0  0  0  0
  -25.1598  -13.9148   20.6164 C   0  0  0  0  0  0
  -24.1516  -13.0637   20.9388 C   0  0  0  0  0  0
  -24.6907  -11.7406   20.8674 C   0  0  0  0  0  0
  -23.9699  -10.4484   21.0181 C   0  0  0  0  0  0
  -24.4018   -9.4356   21.9060 C   0  0  0  0  0  0
  -23.6537   -8.2443   22.0735 C   0  0  0  0  0  0
  -22.4500   -8.0459   21.3549 C   0  0  0  0  0  0
  -22.0268   -9.0455   20.4607 C   0  0  0  0  0  0
  -22.7766  -10.2262   20.2924 C   0  0  0  0  0  0
  -21.6953   -6.0843   22.5274 C   0  0  0  0  0  0
  -21.4091   -6.5705   23.8217 C   0  0  0  0  0  0
  -21.3681   -5.6829   24.9160 C   0  0  0  0  0  0
  -21.6045   -4.3091   24.7195 C   0  0  0  0  0  0
  -21.8805   -3.8208   23.4304 C   0  0  0  0  0  0
  -21.9221   -4.7050   22.3377 C   0  0  0  0  0  0
  -22.7390  -13.4900   21.1929 C   0  0  0  0  0  0
  -22.1673   -4.2226   21.0955 F   0  0  0  0  0  0
  -21.5608   -3.4561   25.7697 F   0  0  0  0  0  0
  -28.9570  -16.3093   20.2328 N   0  0  0  0  0  0
  -26.2841  -13.1612   20.4131 N   0  0  0  0  0  0
  -26.0082  -11.8134   20.5734 N   0  0  0  0  0  0
  -22.0248  -12.7750   22.0513 N   0  0  0  0  0  0
  -25.2075  -15.2925   20.4407 N   0  0  0  0  0  0
  -30.3985  -17.6665   20.4145 O   0  0  0  0  0  0
  -21.6793   -6.9059   21.4265 O   0  0  0  0  0  0
  -22.2864  -14.5125   20.6780 O   0  0  0  0  0  0
  -24.8086  -31.4357   23.2476 C   0  0  0  0  0  0
  -25.9732  -32.3058   23.8501 C   0  0  1  0  0  0
  -28.2164  -25.7436   19.1572 C   0  0  0  0  0  0
  -25.5474  -33.7230   24.1128 N   0  0  0  0  0  0
  -23.5877  -29.6928   21.6329 C   0  0  2  0  0  0
  -25.2680  -27.2497   19.7598 C   0  0  0  0  0  0
  -22.6599  -29.2032   22.6730 C   0  0  0  0  0  0
  -17.9746  -28.1364   22.8377 C   0  0  0  0  0  0
  -24.1477  -36.6667   23.2640 C   0  0  0  0  0  0
  -26.6922  -29.3836   22.5132 C   0  0  0  0  0  0
  -27.2021  -27.9107   21.2826 C   0  0  0  0  0  0
  -28.6675  -27.0031   20.6452 C   0  0  0  0  0  0
  -26.7976  -25.7371   18.2847 C   0  0  0  0  0  0
  -25.4192  -26.4670   18.5338 C   0  0  0  0  0  0
  -23.5805  -28.3281   20.1494 C   0  0  0  0  0  0
  -25.4147  -36.2198   24.0130 C   0  0  1  0  0  0
  -20.4991  -28.3180   23.1713 C   0  0  2  0  0  0
  -20.5940  -26.8888   22.5889 C   0  0  0  0  0  0
  -19.5303  -26.6196   21.5273 C   0  0  0  0  0  0
  -18.1381  -26.7926   22.1429 C   0  0  0  0  0  0
  -19.0949  -28.8714   23.2914 C   0  0  0  0  0  0
  -18.9124  -30.1352   23.8908 C   0  0  0  0  0  0
  -17.6201  -30.6625   24.0535 C   0  0  0  0  0  0
  -25.9116  -34.8493   23.4666 C   0  0  0  0  0  0
  -16.5045  -29.9205   23.6272 C   0  0  0  0  0  0
  -16.6817  -28.6617   23.0237 C   0  0  0  0  0  0
  -26.4829  -31.7181   25.2229 C   0  0  0  0  0  0
  -25.3385  -31.5303   26.2448 C   0  0  0  0  0  0
  -27.1559  -30.3544   25.1515 C   0  0  0  0  0  0
  -27.5823  -32.6239   25.8173 C   0  0  0  0  0  0
  -27.5449  -37.1427   24.8454 C   0  0  0  0  0  0
  -21.3604  -29.2062   22.4204 N   0  0  0  0  0  0
  -26.4193  -37.3092   23.9310 N   0  0  0  0  0  0
  -25.0226  -30.1957   22.5954 N   0  0  0  0  0  0
  -23.1647  -28.7048   23.6734 O   0  0  0  0  0  0
  -27.0707  -24.5998   19.0962 O   0  0  0  0  0  0
  -26.6254  -34.8281   22.4627 O   0  0  0  0  0  0
  -23.6725  -31.9135   23.4427 O   0  0  0  0  0  0
  -25.6309  -29.2873   20.4900 C   0  0  0  0  0  0
  -25.0474  -27.4976   21.9170 C   0  0  0  0  0  0
  -27.2892  -27.8414   19.1138 C   0  0  0  0  0  0
  -26.8625  -25.6923   20.9164 C   0  0  0  0  0  0
  -28.2678  -28.1164   17.9090 C   0  0  0  0  0  0
  -29.4985  -20.8033   22.8583 C   0  0  0  0  0  0
  -30.5450  -21.7031   20.6261 C   0  0  0  0  0  0
  -24.4574  -25.6661   21.3188 C   0  0  0  0  0  0
  -27.8706  -22.9501   20.8578 C   0  0  0  0  0  0
  -25.2992  -24.3799   19.9075 C   0  0  0  0  0  0
  -29.6967  -20.6283   21.3408 C   0  0  0  0  0  0
  -26.6104  -29.1998   19.3279 N   0  0  0  0  0  0
  -25.8665  -26.1431   22.0279 N   0  0  0  0  0  0
  -28.4266  -20.2551   20.6456 N   0  0  0  0  0  0
  -30.6734  -15.5315   19.0075 H   0  0  0  0  0  0
  -30.5921  -14.6155   20.4097 H   0  0  0  0  0  0
  -30.4053  -13.1082   18.4019 H   0  0  0  0  0  0
  -29.2105  -14.1254   17.6599 H   0  0  0  0  0  0
  -28.7974  -12.0227   19.7765 H   0  0  0  0  0  0
  -27.8607  -12.3183   18.3050 H   0  0  0  0  0  0
  -27.1730  -14.3924   19.1028 H   0  0  0  0  0  0
  -28.8840  -14.4678   21.6436 H   0  0  0  0  0  0
  -27.4897  -15.3593   21.5213 H   0  0  0  0  0  0
  -25.3112   -9.5793   22.4730 H   0  0  0  0  0  0
  -24.0172   -7.4869   22.7542 H   0  0  0  0  0  0
  -21.1177   -8.9053   19.8919 H   0  0  0  0  0  0
  -22.4213  -10.9783   19.6027 H   0  0  0  0  0  0
  -21.2121   -7.6218   23.9745 H   0  0  0  0  0  0
  -21.1503   -6.0551   25.9063 H   0  0  0  0  0  0
  -22.0550   -2.7671   23.2785 H   0  0  0  0  0  0
  -22.4098  -11.9543   22.4953 H   0  0  0  0  0  0
  -21.0782  -13.0517   22.2688 H   0  0  0  0  0  0
  -24.3766  -15.8701   20.5128 H   0  0  0  0  0  0
  -26.0283  -15.8038   20.1414 H   0  0  0  0  0  0
  -26.7943  -32.3077   23.1329 H   0  0  0  0  0  0
  -24.8989  -33.8314   24.8785 H   0  0  0  0  0  0
  -23.1465  -30.6039   21.2220 H   0  0  0  0  0  0
  -23.3710  -35.9016   23.3165 H   0  0  0  0  0  0
  -24.3508  -36.8530   22.2080 H   0  0  0  0  0  0
  -23.7296  -37.5785   23.6922 H   0  0  0  0  0  0
  -27.4652  -30.1457   22.4140 H   0  0  0  0  0  0
  -26.8665  -28.7692   23.3831 H   0  0  0  0  0  0
  -29.6773  -27.2067   20.9692 H   0  0  0  0  0  0
  -26.8482  -25.3475   17.2559 H   0  0  0  0  0  0
  -24.6136  -26.3858   17.8198 H   0  0  0  0  0  0
  -23.3546  -28.8619   19.2235 H   0  0  0  0  0  0
  -22.7130  -27.6796   20.2615 H   0  0  0  0  0  0
  -25.1411  -36.0838   25.0620 H   0  0  0  0  0  0
  -20.8414  -28.2626   24.2080 H   0  0  0  0  0  0
  -20.4292  -26.1799   23.4020 H   0  0  0  0  0  0
  -21.5914  -26.6571   22.2163 H   0  0  0  0  0  0
  -19.6387  -25.6127   21.1230 H   0  0  0  0  0  0
  -19.6599  -27.3086   20.6913 H   0  0  0  0  0  0
  -17.3789  -26.6855   21.3664 H   0  0  0  0  0  0
  -17.9492  -26.0032   22.8720 H   0  0  0  0  0  0
  -19.7689  -30.6996   24.2347 H   0  0  0  0  0  0
  -17.4843  -31.6307   24.5152 H   0  0  0  0  0  0
  -15.5088  -30.3213   23.7577 H   0  0  0  0  0  0
  -15.8152  -28.1062   22.6905 H   0  0  0  0  0  0
  -24.6001  -30.7927   25.9264 H   0  0  0  0  0  0
  -24.8052  -32.4633   26.4266 H   0  0  0  0  0  0
  -25.7165  -31.1963   27.2121 H   0  0  0  0  0  0
  -26.4114  -29.5637   25.0918 H   0  0  0  0  0  0
  -27.6278  -30.1230   26.1077 H   0  0  0  0  0  0
  -27.9835  -30.3007   24.4485 H   0  0  0  0  0  0
  -27.2044  -33.6125   26.0791 H   0  0  0  0  0  0
  -28.4044  -32.7663   25.1146 H   0  0  0  0  0  0
  -28.0066  -32.2204   26.7379 H   0  0  0  0  0  0
  -28.2392  -37.9774   24.7386 H   0  0  0  0  0  0
  -28.1018  -36.2253   24.6470 H   0  0  0  0  0  0
  -27.2107  -37.1227   25.8844 H   0  0  0  0  0  0
  -20.9982  -29.6378   21.5810 H   0  0  0  0  0  0
  -25.9895  -38.2107   24.1195 H   0  0  0  0  0  0
  -25.3571  -30.3352   20.3978 H   0  0  0  0  0  0
  -29.2547  -27.6658   18.0150 H   0  0  0  0  0  0
  -28.4619  -29.1846   17.7980 H   0  0  0  0  0  0
  -27.8322  -27.7855   16.9671 H   0  0  0  0  0  0
  -28.7271  -21.5208   23.1301 H   0  0  0  0  0  0
  -30.4299  -21.1106   23.3382 H   0  0  0  0  0  0
  -29.2084  -19.8519   23.3074 H   0  0  0  0  0  0
  -30.4896  -22.6825   21.1007 H   0  0  0  0  0  0
  -30.2816  -21.7842   19.5677 H   0  0  0  0  0  0
  -31.6047  -21.4433   20.6590 H   0  0  0  0  0  0
  -23.4784  -25.8322   20.8758 H   0  0  0  0  0  0
  -24.0295  -25.0537   22.1415 H   0  0  0  0  0  0
  -28.5930  -23.1879   20.0847 H   0  0  0  0  0  0
  -28.3883  -23.1071   21.7987 H   0  0  0  0  0  0
  -25.3186  -23.4016   20.3882 H   0  0  0  0  0  0
  -24.5651  -24.1996   19.1186 H   0  0  0  0  0  0
  -30.4352  -19.8374   21.3319 H   0  0  0  0  0  0
  1 25  1  0  0  0
  1 30  2  0  0  0
  1 84  1  0  0  0
  2  3  1  0  0  0
  2 25  1  0  0  0
  2 85  1  0  0  0
  2 86  1  0  0  0
  3  4  1  0  0  0
  3 87  1  0  0  0
  3 88  1  0  0  0
  4  5  1  0  0  0
  4 89  1  0  0  0
  4 90  1  0  0  0
  5  6  1  0  0  0
  5 26  1  0  0  0
  5 91  1  0  0  0
  6 25  1  0  0  0
  6 92  1  0  0  0
  6 93  1  0  0  0
  7  8  2  0  0  0
  7 26  1  0  0  0
  7 29  1  0  0  0
  8  9  1  0  0  0
  8 22  1  0  0  0
  9 10  1  0  0  0
  9 27  2  0  0  0
 10 11  2  0  0  0
 10 15  1  0  0  0
 11 12  1  0  0  0
 11 94  1  0  0  0
 12 13  2  0  0  0
 12 95  1  0  0  0
 13 14  1  0  0  0
 13 31  1  0  0  0
 14 15  2  0  0  0
 14 96  1  0  0  0
 15 97  1  0  0  0
 16 17  2  0  0  0
 16 21  1  0  0  0
 16 31  1  0  0  0
 17 18  1  0  0  0
 17 98  1  0  0  0
 18 19  2  0  0  0
 18 99  1  0  0  0
 19 20  1  0  0  0
 19 24  1  0  0  0
 20 21  2  0  0  0
 20100  1  0  0  0
 21 23  1  0  0  0
 22 28  1  0  0  0
 22 32  2  0  0  0
 26 27  1  0  0  0
 28101  1  0  0  0
 28102  1  0  0  0
 29103  1  0  0  0
 29104  1  0  0  0
 33 34  1  0  0  0
 33 66  1  0  0  0
 33 70  2  0  0  0
 34 36  1  0  0  0
 34 59  1  0  0  0
 34105  1  0  0  0
 35 44  2  0  0  0
 35 45  1  0  0  0
 35 68  1  0  0  0
 36 56  1  0  0  0
 36106  1  0  0  0
 37 39  1  0  0  0
 37 47  1  0  0  0
 37 66  1  0  0  0
 37107  1  0  0  0
 38 43  2  0  0  0
 38 46  1  0  0  0
 38 47  1  0  0  0
 39 64  1  0  0  0
 39 67  2  0  0  0
 40 52  1  0  0  0
 40 53  2  0  0  0
 40 58  1  0  0  0
 41108  1  0  0  0
 41109  1  0  0  0
 41110  1  0  0  0
 41 48  1  0  0  0
 42 43  1  0  0  0
 42 66  1  0  0  0
 42111  1  0  0  0
 42112  1  0  0  0
 43 44  1  0  0  0
 44113  1  0  0  0
 45 46  2  0  0  0
 45114  1  0  0  0
 46115  1  0  0  0
 47116  1  0  0  0
 47117  1  0  0  0
 48 56  1  0  0  0
 48 65  1  0  0  0
 48118  1  0  0  0
 49 50  1  0  0  0
 49 53  1  0  0  0
 49 64  1  0  0  0
 49119  1  0  0  0
 50 51  1  0  0  0
 50120  1  0  0  0
 50121  1  0  0  0
 51 52  1  0  0  0
 51122  1  0  0  0
 51123  1  0  0  0
 52124  1  0  0  0
 52125  1  0  0  0
 53 54  1  0  0  0
 54 55  2  0  0  0
 54126  1  0  0  0
 55 57  1  0  0  0
 55127  1  0  0  0
 56 69  2  0  0  0
 57 58  2  0  0  0
 57128  1  0  0  0
 58129  1  0  0  0
 59 60  1  0  0  0
 59 61  1  0  0  0
 59 62  1  0  0  0
 60130  1  0  0  0
 60131  1  0  0  0
 60132  1  0  0  0
 61133  1  0  0  0
 61134  1  0  0  0
 61135  1  0  0  0
 62136  1  0  0  0
 62137  1  0  0  0
 62138  1  0  0  0
 63 65  1  0  0  0
 63139  1  0  0  0
 63140  1  0  0  0
 63141  1  0  0  0
 64142  1  0  0  0
 65143  1  0  0  0
 68 80  1  0  0  0
 71 72  2  0  0  0
 71 82  1  0  0  0
 71144  1  0  0  0
 72 78  1  0  0  0
 72 83  1  0  0  0
 73 74  1  0  0  0
 73 75  1  0  0  0
 73 82  2  0  0  0
 74 79  1  0  0  0
 74 83  2  0  0  0
 75145  1  0  0  0
 75146  1  0  0  0
 75147  1  0  0  0
 76148  1  0  0  0
 76149  1  0  0  0
 76150  1  0  0  0
 76 81  1  0  0  0
 77 81  1  0  0  0
 77151  1  0  0  0
 77152  1  0  0  0
 77153  1  0  0  0
 78 80  1  0  0  0
 78154  1  0  0  0
 78155  1  0  0  0
 79 84  1  0  0  0
 79156  1  0  0  0
 79157  1  0  0  0
 80158  1  0  0  0
 80159  1  0  0  0
 81 84  1  0  0  0
 81160  1  0  0  0
M  ISO  4   1 100  68 101  80 101  84 100
M  END
> <chiral flag>
0

> <version>
0

> <s_m_source_file>
/data/baiqing/PycharmProjects/Reinvent-master-3.2/result/LINK_invent/BTK/process_docking_weight1_custom_sum_contain_oxygen_bond_distance_aromatic_linkinvent_7_9_3/rearranged_h_0055.sdf

> <i_m_source_file_index>
88

> <r_mmod_Potential_Energy-OPLS-2005>
38384.4296875

> <r_mmod_Stretch_Energy-OPLS-2005>
20325.966796875

> <r_mmod_Bend_Energy-OPLS-2005>
2705.89282226562

> <r_mmod_Torsional_Energy-OPLS-2005>
503.180358886719

> <r_mmod_Improper_Torsional_Energy-OPLS-2005>
73.6512145996094

> <r_mmod_Van_der_Waal_Energy-OPLS-2005>
5843.359375

> <r_mmod_Electrostatic_Energy-OPLS-2005>
-264.196105957031

> <r_mmod_Solvation_Energy-OPLS-2005>
-241.982711791992

> <b_mmod_Minimization_Converged-OPLS-2005>
0

> <r_mmod_RMS_Derivative-OPLS-2005>
4.49109220504761

$$$$
89
                    3D
 Structure written by MMmdl.
150158  0  0  1  0            999 V2000
  -30.4976  -14.9992   20.4154 C   0  0  0  0  0  0
  -30.4498  -12.6201   19.5040 C   0  0  0  0  0  0
  -29.5287  -12.5399   18.2624 C   0  0  0  0  0  0
  -28.0625  -12.3144   18.6792 C   0  0  0  0  0  0
  -27.6312  -13.2475   19.8400 C   0  0  2  0  0  0
  -28.6728  -13.2792   20.9791 C   0  0  0  0  0  0
  -25.2469  -13.8209   20.5705 C   0  0  0  0  0  0
  -24.1786  -13.0436   20.9230 C   0  0  0  0  0  0
  -24.6399  -11.6921   20.8753 C   0  0  0  0  0  0
  -23.9080  -10.4292   21.0408 C   0  0  0  0  0  0
  -24.3627   -9.4206   21.9186 C   0  0  0  0  0  0
  -23.6298   -8.2243   22.0755 C   0  0  0  0  0  0
  -22.4280   -8.0282   21.3545 C   0  0  0  0  0  0
  -21.9919   -9.0257   20.4647 C   0  0  0  0  0  0
  -22.7251  -10.2134   20.3057 C   0  0  0  0  0  0
  -21.6854   -6.0736   22.5279 C   0  0  0  0  0  0
  -21.4015   -6.5640   23.8213 C   0  0  0  0  0  0
  -21.3660   -5.6792   24.9174 C   0  0  0  0  0  0
  -21.6044   -4.3055   24.7225 C   0  0  0  0  0  0
  -21.8819   -3.8147   23.4347 C   0  0  0  0  0  0
  -21.9193   -4.6964   22.3402 C   0  0  0  0  0  0
  -22.7805  -13.5209   21.1882 C   0  0  0  0  0  0
  -22.1661   -4.2149   21.0980 F   0  0  0  0  0  0
  -21.5629   -3.4539   25.7738 F   0  0  0  0  0  0
  -29.9446  -13.7146   20.3851 N   0  0  0  0  0  0
  -26.2893  -12.9437   20.3239 N   0  0  0  0  0  0
  -25.9331  -11.6569   20.5733 N   0  0  0  0  0  0
  -22.0452  -12.8198   22.0437 N   0  0  0  0  0  0
  -25.4127  -15.1939   20.4110 N   0  0  0  0  0  0
  -31.6966  -15.0990   20.1283 O   0  0  0  0  0  0
  -21.6642   -6.8880   21.4241 O   0  0  0  0  0  0
  -22.3490  -14.5511   20.6722 O   0  0  0  0  0  0
  -24.6468  -31.8403   23.1855 C   0  0  0  0  0  0
  -25.9225  -32.4674   23.8256 C   0  0  1  0  0  0
  -27.2147  -27.0915   20.1718 C   0  0  0  0  0  0
  -25.5958  -33.8482   24.2169 N   0  0  0  0  0  0
  -23.4533  -30.4576   21.5316 C   0  0  2  0  0  0
  -24.9050  -28.8755   20.1137 C   0  0  0  0  0  0
  -22.7589  -29.4522   22.4848 C   0  0  0  0  0  0
  -18.0310  -28.1397   22.8476 C   0  0  0  0  0  0
  -24.1493  -36.7247   23.2643 C   0  0  0  0  0  0
  -26.0119  -30.6987   21.3937 C   0  0  0  0  0  0
  -26.0824  -29.3038   20.7412 C   0  0  0  0  0  0
  -27.2388  -28.4289   20.7524 C   0  0  0  0  0  0
  -26.0230  -26.7883   19.4798 C   0  0  0  0  0  0
  -24.8901  -27.6315   19.4657 C   0  0  0  0  0  0
  -23.6838  -29.7834   20.1528 C   0  0  0  0  0  0
  -25.4126  -36.3019   24.0312 C   0  0  1  0  0  0
  -20.5925  -28.3726   23.1228 C   0  0  2  0  0  0
  -20.6793  -26.9425   22.5404 C   0  0  0  0  0  0
  -19.5766  -26.6379   21.5214 C   0  0  0  0  0  0
  -18.1948  -26.7934   22.1624 C   0  0  0  0  0  0
  -19.1567  -28.8880   23.2842 C   0  0  0  0  0  0
  -18.9481  -30.1475   23.8869 C   0  0  0  0  0  0
  -17.6477  -30.6592   24.0558 C   0  0  0  0  0  0
  -25.9078  -34.9395   23.5051 C   0  0  0  0  0  0
  -16.5368  -29.9084   23.6338 C   0  0  0  0  0  0
  -16.7293  -28.6503   23.0358 C   0  0  0  0  0  0
  -26.4533  -31.6557   25.0715 C   0  0  0  0  0  0
  -25.3705  -31.3760   26.1400 C   0  0  0  0  0  0
  -27.0409  -30.2946   24.6333 C   0  0  0  0  0  0
  -27.6052  -32.4337   25.7506 C   0  0  0  0  0  0
  -27.5575  -37.1781   24.8465 C   0  0  0  0  0  0
  -21.4276  -29.3046   22.3596 N   0  0  0  0  0  0
  -26.4286  -37.3737   23.9407 N   0  0  0  0  0  0
  -24.7238  -31.0217   22.0915 N   0  0  0  0  0  0
  -23.4211  -28.8074   23.3017 O   0  0  0  0  0  0
  -28.2584  -26.0790   20.1840 O   0  0  0  0  0  0
  -26.5669  -34.8899   22.4633 O   0  0  0  0  0  0
  -23.5577  -32.1301   23.7047 O   0  0  0  0  0  0
  -30.8423  -18.5509   20.1318 C   0  0  0  0  0  0
  -28.7395  -18.6844   20.5901 C   0  0  0  0  0  0
  -29.7406  -17.6874   20.4540 C   0  0  0  0  0  0
  -26.6667  -24.3231   21.2180 C   0  0  0  0  0  0
  -28.8374  -23.0946   20.2596 C   0  0  0  0  0  0
  -28.3738  -21.4253   20.2544 C   0  0  0  0  0  0
  -28.1099  -24.6001   20.7384 C   0  0  1  0  0  0
  -30.5227  -19.8836   20.0679 N   0  0  0  0  0  0
  -29.1944  -20.0478   20.3645 N   0  0  0  0  0  0
  -29.6521  -16.1413   20.5885 N   0  0  0  0  0  0
  -31.4795  -12.7982   19.1900 H   0  0  0  0  0  0
  -30.4626  -11.6697   20.0401 H   0  0  0  0  0  0
  -29.8569  -11.7402   17.5971 H   0  0  0  0  0  0
  -29.6072  -13.4658   17.6905 H   0  0  0  0  0  0
  -27.9660  -11.2736   18.9906 H   0  0  0  0  0  0
  -27.3991  -12.4387   17.8225 H   0  0  0  0  0  0
  -27.5921  -14.2481   19.4087 H   0  0  0  0  0  0
  -28.7712  -12.2999   21.4497 H   0  0  0  0  0  0
  -28.3617  -13.9682   21.7660 H   0  0  0  0  0  0
  -25.2770   -9.5682   22.4764 H   0  0  0  0  0  0
  -24.0005   -7.4635   22.7476 H   0  0  0  0  0  0
  -21.0849   -8.8778   19.8953 H   0  0  0  0  0  0
  -22.3709  -10.9674   19.6168 H   0  0  0  0  0  0
  -21.2008   -7.6148   23.9716 H   0  0  0  0  0  0
  -21.1483   -6.0522   25.9077 H   0  0  0  0  0  0
  -22.0597   -2.7609   23.2846 H   0  0  0  0  0  0
  -22.4073  -11.9866   22.4832 H   0  0  0  0  0  0
  -21.1066  -13.1218   22.2636 H   0  0  0  0  0  0
  -24.6359  -15.8387   20.5093 H   0  0  0  0  0  0
  -26.2403  -15.6306   20.0272 H   0  0  0  0  0  0
  -26.7290  -32.5269   23.0981 H   0  0  0  0  0  0
  -25.0076  -33.9591   25.0297 H   0  0  0  0  0  0
  -22.7579  -31.2845   21.3733 H   0  0  0  0  0  0
  -23.3760  -35.9573   23.3288 H   0  0  0  0  0  0
  -24.3575  -36.8899   22.2061 H   0  0  0  0  0  0
  -23.7244  -37.6435   23.6695 H   0  0  0  0  0  0
  -26.1730  -31.4480   20.6174 H   0  0  0  0  0  0
  -26.8801  -30.7521   22.0386 H   0  0  0  0  0  0
  -28.1360  -28.7542   21.2599 H   0  0  0  0  0  0
  -25.9508  -25.8449   18.9590 H   0  0  0  0  0  0
  -23.9982  -27.3034   18.9500 H   0  0  0  0  0  0
  -23.8251  -30.5560   19.3961 H   0  0  0  0  0  0
  -22.7979  -29.2276   19.8403 H   0  0  0  0  0  0
  -25.1318  -36.1840   25.0804 H   0  0  0  0  0  0
  -21.0015  -28.3318   24.1350 H   0  0  0  0  0  0
  -20.5686  -26.2340   23.3627 H   0  0  0  0  0  0
  -21.6659  -26.7426   22.1204 H   0  0  0  0  0  0
  -19.6927  -25.6283   21.1262 H   0  0  0  0  0  0
  -19.6704  -27.3174   20.6731 H   0  0  0  0  0  0
  -17.4217  -26.6678   21.4028 H   0  0  0  0  0  0
  -18.0347  -26.0083   22.9028 H   0  0  0  0  0  0
  -19.7957  -30.7300   24.2225 H   0  0  0  0  0  0
  -17.5030  -31.6269   24.5166 H   0  0  0  0  0  0
  -15.5367  -30.2975   23.7678 H   0  0  0  0  0  0
  -15.8694  -28.0812   22.7088 H   0  0  0  0  0  0
  -24.5895  -30.7096   25.7718 H   0  0  0  0  0  0
  -24.8882  -32.2946   26.4751 H   0  0  0  0  0  0
  -25.7976  -30.8982   27.0225 H   0  0  0  0  0  0
  -26.3041  -29.6655   24.1327 H   0  0  0  0  0  0
  -27.3988  -29.7263   25.4929 H   0  0  0  0  0  0
  -27.8963  -30.4167   23.9686 H   0  0  0  0  0  0
  -27.2634  -33.3661   26.2010 H   0  0  0  0  0  0
  -28.3901  -32.6859   25.0363 H   0  0  0  0  0  0
  -28.0677  -31.8512   26.5483 H   0  0  0  0  0  0
  -28.2583  -38.0086   24.7511 H   0  0  0  0  0  0
  -28.1081  -36.2614   24.6295 H   0  0  0  0  0  0
  -27.2290  -37.1429   25.8868 H   0  0  0  0  0  0
  -20.9496  -29.8755   21.6766 H   0  0  0  0  0  0
  -26.0148  -38.2803   24.1410 H   0  0  0  0  0  0
  -31.8632  -18.2624   19.9234 H   0  0  0  0  0  0
  -27.6917  -18.5364   20.8118 H   0  0  0  0  0  0
  -26.6333  -23.4542   21.8751 H   0  0  0  0  0  0
  -25.9935  -24.1156   20.3872 H   0  0  0  0  0  0
  -26.2598  -25.1548   21.7931 H   0  0  0  0  0  0
  -28.8594  -22.8894   21.3301 H   0  0  0  0  0  0
  -28.0458  -23.1861   19.5172 H   0  0  0  0  0  0
  -27.8137  -21.2666   19.3293 H   0  0  0  0  0  0
  -27.5885  -21.3247   21.0068 H   0  0  0  0  0  0
  -28.6269  -24.8078   21.6788 H   0  0  0  0  0  0
  -28.7194  -15.8317   20.8165 H   0  0  0  0  0  0
  1 25  1  0  0  0
  1 30  2  0  0  0
  1 80  1  0  0  0
  2  3  1  0  0  0
  2 25  1  0  0  0
  2 81  1  0  0  0
  2 82  1  0  0  0
  3  4  1  0  0  0
  3 83  1  0  0  0
  3 84  1  0  0  0
  4  5  1  0  0  0
  4 85  1  0  0  0
  4 86  1  0  0  0
  5  6  1  0  0  0
  5 26  1  0  0  0
  5 87  1  0  0  0
  6 25  1  0  0  0
  6 88  1  0  0  0
  6 89  1  0  0  0
  7  8  2  0  0  0
  7 26  1  0  0  0
  7 29  1  0  0  0
  8  9  1  0  0  0
  8 22  1  0  0  0
  9 10  1  0  0  0
  9 27  2  0  0  0
 10 11  2  0  0  0
 10 15  1  0  0  0
 11 12  1  0  0  0
 11 90  1  0  0  0
 12 13  2  0  0  0
 12 91  1  0  0  0
 13 14  1  0  0  0
 13 31  1  0  0  0
 14 15  2  0  0  0
 14 92  1  0  0  0
 15 93  1  0  0  0
 16 17  2  0  0  0
 16 21  1  0  0  0
 16 31  1  0  0  0
 17 18  1  0  0  0
 17 94  1  0  0  0
 18 19  2  0  0  0
 18 95  1  0  0  0
 19 20  1  0  0  0
 19 24  1  0  0  0
 20 21  2  0  0  0
 20 96  1  0  0  0
 21 23  1  0  0  0
 22 28  1  0  0  0
 22 32  2  0  0  0
 26 27  1  0  0  0
 28 97  1  0  0  0
 28 98  1  0  0  0
 29 99  1  0  0  0
 29100  1  0  0  0
 33 34  1  0  0  0
 33 66  1  0  0  0
 33 70  2  0  0  0
 34 36  1  0  0  0
 34 59  1  0  0  0
 34101  1  0  0  0
 35 44  2  0  0  0
 35 45  1  0  0  0
 35 68  1  0  0  0
 36 56  1  0  0  0
 36102  1  0  0  0
 37 39  1  0  0  0
 37 47  1  0  0  0
 37 66  1  0  0  0
 37103  1  0  0  0
 38 43  2  0  0  0
 38 46  1  0  0  0
 38 47  1  0  0  0
 39 64  1  0  0  0
 39 67  2  0  0  0
 40 52  1  0  0  0
 40 53  2  0  0  0
 40 58  1  0  0  0
 41104  1  0  0  0
 41105  1  0  0  0
 41106  1  0  0  0
 41 48  1  0  0  0
 42 43  1  0  0  0
 42 66  1  0  0  0
 42107  1  0  0  0
 42108  1  0  0  0
 43 44  1  0  0  0
 44109  1  0  0  0
 45 46  2  0  0  0
 45110  1  0  0  0
 46111  1  0  0  0
 47112  1  0  0  0
 47113  1  0  0  0
 48 56  1  0  0  0
 48 65  1  0  0  0
 48114  1  0  0  0
 49 50  1  0  0  0
 49 53  1  0  0  0
 49 64  1  0  0  0
 49115  1  0  0  0
 50 51  1  0  0  0
 50116  1  0  0  0
 50117  1  0  0  0
 51 52  1  0  0  0
 51118  1  0  0  0
 51119  1  0  0  0
 52120  1  0  0  0
 52121  1  0  0  0
 53 54  1  0  0  0
 54 55  2  0  0  0
 54122  1  0  0  0
 55 57  1  0  0  0
 55123  1  0  0  0
 56 69  2  0  0  0
 57 58  2  0  0  0
 57124  1  0  0  0
 58125  1  0  0  0
 59 60  1  0  0  0
 59 61  1  0  0  0
 59 62  1  0  0  0
 60126  1  0  0  0
 60127  1  0  0  0
 60128  1  0  0  0
 61129  1  0  0  0
 61130  1  0  0  0
 61131  1  0  0  0
 62132  1  0  0  0
 62133  1  0  0  0
 62134  1  0  0  0
 63 65  1  0  0  0
 63135  1  0  0  0
 63136  1  0  0  0
 63137  1  0  0  0
 64138  1  0  0  0
 65139  1  0  0  0
 68 77  1  0  0  0
 71 73  1  0  0  0
 71 78  2  0  0  0
 71140  1  0  0  0
 72 73  2  0  0  0
 72 79  1  0  0  0
 72141  1  0  0  0
 73 80  1  0  0  0
 74142  1  0  0  0
 74143  1  0  0  0
 74144  1  0  0  0
 74 77  1  0  0  0
 75 76  1  0  0  0
 75 77  1  0  0  0
 75145  1  0  0  0
 75146  1  0  0  0
 76 79  1  0  0  0
 76147  1  0  0  0
 76148  1  0  0  0
 77149  1  0  0  0
 78 79  1  0  0  0
 80150  1  0  0  0
M  ISO  4   1 100  68 101  77 101  80 100
M  END
> <chiral flag>
0

> <version>
0

> <s_m_source_file>
/data/baiqing/PycharmProjects/Reinvent-master-3.2/result/LINK_invent/BTK/process_docking_weight1_custom_sum_contain_oxygen_bond_distance_aromatic_linkinvent_7_9_3/rearranged_h_0055.sdf

> <i_m_source_file_index>
89

> <r_mmod_Potential_Energy-OPLS-2005>
864.193054199219

> <r_mmod_Stretch_Energy-OPLS-2005>
318.431304931641

> <r_mmod_Bend_Energy-OPLS-2005>
545.533752441406

> <r_mmod_Torsional_Energy-OPLS-2005>
254.86701965332

> <r_mmod_Improper_Torsional_Energy-OPLS-2005>
4.71373319625854

> <r_mmod_Van_der_Waal_Energy-OPLS-2005>
122.373474121094

> <r_mmod_Electrostatic_Energy-OPLS-2005>
-378.112152099609

> <r_mmod_Solvation_Energy-OPLS-2005>
-234.961624145508

> <b_mmod_Minimization_Converged-OPLS-2005>
0

> <r_mmod_RMS_Derivative-OPLS-2005>
0.1445701867342

$$$$
90
                    3D
 Structure written by MMmdl.
150158  0  0  1  0            999 V2000
  -30.4554  -15.1390   20.3459 C   0  0  0  0  0  0
  -30.4489  -12.7033   19.5230 C   0  0  0  0  0  0
  -29.5365  -12.5577   18.2774 C   0  0  0  0  0  0
  -28.0717  -12.3120   18.6891 C   0  0  0  0  0  0
  -27.6187  -13.2573   19.8294 C   0  0  2  0  0  0
  -28.6592  -13.3717   20.9614 C   0  0  0  0  0  0
  -25.2439  -13.8206   20.5748 C   0  0  0  0  0  0
  -24.1763  -13.0421   20.9240 C   0  0  0  0  0  0
  -24.6390  -11.6909   20.8760 C   0  0  0  0  0  0
  -23.9072  -10.4282   21.0411 C   0  0  0  0  0  0
  -24.3622   -9.4196   21.9185 C   0  0  0  0  0  0
  -23.6292   -8.2232   22.0756 C   0  0  0  0  0  0
  -22.4272   -8.0275   21.3551 C   0  0  0  0  0  0
  -21.9916   -9.0250   20.4650 C   0  0  0  0  0  0
  -22.7246  -10.2126   20.3058 C   0  0  0  0  0  0
  -21.6850   -6.0727   22.5281 C   0  0  0  0  0  0
  -21.4010   -6.5634   23.8214 C   0  0  0  0  0  0
  -21.3661   -5.6791   24.9178 C   0  0  0  0  0  0
  -21.6041   -4.3051   24.7231 C   0  0  0  0  0  0
  -21.8820   -3.8140   23.4353 C   0  0  0  0  0  0
  -21.9197   -4.6956   22.3407 C   0  0  0  0  0  0
  -22.7783  -13.5188   21.1894 C   0  0  0  0  0  0
  -22.1667   -4.2138   21.0985 F   0  0  0  0  0  0
  -21.5634   -3.4538   25.7746 F   0  0  0  0  0  0
  -29.9229  -13.8293   20.3640 N   0  0  0  0  0  0
  -26.2852  -12.9439   20.3246 N   0  0  0  0  0  0
  -25.9325  -11.6564   20.5730 N   0  0  0  0  0  0
  -22.0432  -12.8171   22.0445 N   0  0  0  0  0  0
  -25.4116  -15.1939   20.4205 N   0  0  0  0  0  0
  -31.6762  -15.1712   20.1426 O   0  0  0  0  0  0
  -21.6635   -6.8872   21.4244 O   0  0  0  0  0  0
  -22.3466  -14.5498   20.6747 O   0  0  0  0  0  0
  -24.6556  -31.8330   23.1790 C   0  0  0  0  0  0
  -25.9272  -32.4638   23.8218 C   0  0  1  0  0  0
  -27.2157  -27.0106   20.1686 C   0  0  0  0  0  0
  -25.5970  -33.8448   24.2125 N   0  0  0  0  0  0
  -23.4661  -30.4493   21.5271 C   0  0  2  0  0  0
  -24.9189  -28.8572   20.1103 C   0  0  0  0  0  0
  -22.7634  -29.4492   22.4814 C   0  0  0  0  0  0
  -18.0315  -28.1410   22.8472 C   0  0  0  0  0  0
  -24.1494  -36.7223   23.2647 C   0  0  0  0  0  0
  -26.0323  -30.6655   21.3998 C   0  0  0  0  0  0
  -26.1015  -29.2656   20.7398 C   0  0  0  0  0  0
  -27.2475  -28.3616   20.7489 C   0  0  0  0  0  0
  -26.0052  -26.7423   19.4878 C   0  0  0  0  0  0
  -24.8915  -27.6130   19.4656 C   0  0  0  0  0  0
  -23.7013  -29.7744   20.1496 C   0  0  0  0  0  0
  -25.4134  -36.2997   24.0306 C   0  0  1  0  0  0
  -20.5936  -28.3749   23.1207 C   0  0  2  0  0  0
  -20.6797  -26.9439   22.5407 C   0  0  0  0  0  0
  -19.5767  -26.6382   21.5223 C   0  0  0  0  0  0
  -18.1948  -26.7944   22.1629 C   0  0  0  0  0  0
  -19.1575  -28.8901   23.2828 C   0  0  0  0  0  0
  -18.9489  -30.1493   23.8861 C   0  0  0  0  0  0
  -17.6481  -30.6602   24.0559 C   0  0  0  0  0  0
  -25.9094  -34.9376   23.5032 C   0  0  0  0  0  0
  -16.5372  -29.9089   23.6347 C   0  0  0  0  0  0
  -16.7299  -28.6509   23.0365 C   0  0  0  0  0  0
  -26.4546  -31.6551   25.0714 C   0  0  0  0  0  0
  -25.3690  -31.3780   26.1382 C   0  0  0  0  0  0
  -27.0431  -30.2923   24.6405 C   0  0  0  0  0  0
  -27.6053  -32.4344   25.7508 C   0  0  0  0  0  0
  -27.5575  -37.1770   24.8467 C   0  0  0  0  0  0
  -21.4311  -29.3045   22.3559 N   0  0  0  0  0  0
  -26.4286  -37.3724   23.9407 N   0  0  0  0  0  0
  -24.7386  -31.0072   22.0888 N   0  0  0  0  0  0
  -23.4218  -28.8053   23.3023 O   0  0  0  0  0  0
  -28.2138  -25.9264   20.2583 O   0  0  0  0  0  0
  -26.5696  -34.8893   22.4623 O   0  0  0  0  0  0
  -23.5643  -32.1259   23.6934 O   0  0  0  0  0  0
  -28.7111  -22.1110   21.4726 C   0  0  0  0  0  0
  -29.1006  -20.6936   21.5732 C   0  0  0  0  0  0
  -28.9265  -21.9120   19.1911 C   0  0  0  0  0  0
  -28.5984  -22.8635   20.2436 C   0  0  0  0  0  0
  -29.4073  -19.8190   20.4634 C   0  0  0  0  0  0
  -28.8503  -16.6942   18.9484 C   0  0  0  0  0  0
  -27.8331  -24.3830   20.0113 C   0  0  0  0  0  0
  -30.1168  -18.2588   20.5931 C   0  0  0  0  0  0
  -29.5739  -16.6249   20.3086 C   0  0  2  0  0  0
  -29.3126  -20.5465   19.2838 N   0  0  0  0  0  0
  -31.4767  -12.8840   19.2041 H   0  0  0  0  0  0
  -30.4761  -11.7746   20.0952 H   0  0  0  0  0  0
  -29.8868  -11.7446   17.6404 H   0  0  0  0  0  0
  -29.5997  -13.4654   17.6750 H   0  0  0  0  0  0
  -27.9885  -11.2752   19.0161 H   0  0  0  0  0  0
  -27.4105  -12.4138   17.8272 H   0  0  0  0  0  0
  -27.5397  -14.2370   19.3684 H   0  0  0  0  0  0
  -28.7850  -12.4197   21.4788 H   0  0  0  0  0  0
  -28.3245  -14.0896   21.7115 H   0  0  0  0  0  0
  -25.2765   -9.5666   22.4764 H   0  0  0  0  0  0
  -24.0004   -7.4617   22.7466 H   0  0  0  0  0  0
  -21.0854   -8.8764   19.8947 H   0  0  0  0  0  0
  -22.3707  -10.9667   19.6165 H   0  0  0  0  0  0
  -21.1993   -7.6142   23.9709 H   0  0  0  0  0  0
  -21.1486   -6.0524   25.9081 H   0  0  0  0  0  0
  -22.0599   -2.7602   23.2854 H   0  0  0  0  0  0
  -22.4070  -11.9840   22.4833 H   0  0  0  0  0  0
  -21.1048  -13.1184   22.2650 H   0  0  0  0  0  0
  -24.6453  -15.8483   20.5341 H   0  0  0  0  0  0
  -26.2656  -15.6353   20.1050 H   0  0  0  0  0  0
  -26.7343  -32.5203   23.0941 H   0  0  0  0  0  0
  -25.0065  -33.9538   25.0238 H   0  0  0  0  0  0
  -22.7745  -31.2788   21.3646 H   0  0  0  0  0  0
  -23.3772  -35.9537   23.3282 H   0  0  0  0  0  0
  -24.3574  -36.8891   22.2066 H   0  0  0  0  0  0
  -23.7228  -37.6397   23.6714 H   0  0  0  0  0  0
  -26.2078  -31.4150   20.6269 H   0  0  0  0  0  0
  -26.8939  -30.7154   22.0536 H   0  0  0  0  0  0
  -28.1415  -28.6699   21.2724 H   0  0  0  0  0  0
  -25.8707  -25.7957   18.9878 H   0  0  0  0  0  0
  -23.9913  -27.2944   18.9576 H   0  0  0  0  0  0
  -23.8494  -30.5469   19.3941 H   0  0  0  0  0  0
  -22.8128  -29.2245   19.8352 H   0  0  0  0  0  0
  -25.1329  -36.1808   25.0798 H   0  0  0  0  0  0
  -21.0023  -28.3354   24.1332 H   0  0  0  0  0  0
  -20.5698  -26.2365   23.3639 H   0  0  0  0  0  0
  -21.6659  -26.7434   22.1203 H   0  0  0  0  0  0
  -19.6928  -25.6284   21.1278 H   0  0  0  0  0  0
  -19.6705  -27.3172   20.6737 H   0  0  0  0  0  0
  -17.4216  -26.6690   21.4031 H   0  0  0  0  0  0
  -18.0343  -26.0101   22.9041 H   0  0  0  0  0  0
  -19.7963  -30.7325   24.2207 H   0  0  0  0  0  0
  -17.5033  -31.6280   24.5167 H   0  0  0  0  0  0
  -15.5371  -30.2979   23.7697 H   0  0  0  0  0  0
  -15.8697  -28.0821   22.7098 H   0  0  0  0  0  0
  -24.5856  -30.7159   25.7677 H   0  0  0  0  0  0
  -24.8902  -32.2982   26.4742 H   0  0  0  0  0  0
  -25.7927  -30.8966   27.0205 H   0  0  0  0  0  0
  -26.3086  -29.6612   24.1391 H   0  0  0  0  0  0
  -27.3959  -29.7272   25.5043 H   0  0  0  0  0  0
  -27.9032  -30.4115   23.9811 H   0  0  0  0  0  0
  -27.2629  -33.3675   26.1993 H   0  0  0  0  0  0
  -28.3906  -32.6856   25.0366 H   0  0  0  0  0  0
  -28.0674  -31.8531   26.5497 H   0  0  0  0  0  0
  -28.2579  -38.0080   24.7521 H   0  0  0  0  0  0
  -28.1083  -36.2606   24.6289 H   0  0  0  0  0  0
  -27.2289  -37.1408   25.8868 H   0  0  0  0  0  0
  -20.9551  -29.8732   21.6695 H   0  0  0  0  0  0
  -26.0142  -38.2786   24.1414 H   0  0  0  0  0  0
  -28.4564  -22.6208   22.3903 H   0  0  0  0  0  0
  -29.1773  -20.2747   22.5681 H   0  0  0  0  0  0
  -28.8301  -22.2537   18.1712 H   0  0  0  0  0  0
  -27.8381  -17.0833   19.0623 H   0  0  0  0  0  0
  -28.7843  -15.7333   18.4415 H   0  0  0  0  0  0
  -29.3769  -17.3588   18.2632 H   0  0  0  0  0  0
  -26.8928  -24.2571   20.5492 H   0  0  0  0  0  0
  -27.5518  -24.3469   18.9590 H   0  0  0  0  0  0
  -30.5025  -18.2404   21.6124 H   0  0  0  0  0  0
  -31.0208  -18.3494   19.9912 H   0  0  0  0  0  0
  -28.8016  -16.4545   21.0581 H   0  0  0  0  0  0
  1 25  1  0  0  0
  1 30  2  0  0  0
  1 79  1  0  0  0
  2  3  1  0  0  0
  2 25  1  0  0  0
  2 81  1  0  0  0
  2 82  1  0  0  0
  3  4  1  0  0  0
  3 83  1  0  0  0
  3 84  1  0  0  0
  4  5  1  0  0  0
  4 85  1  0  0  0
  4 86  1  0  0  0
  5  6  1  0  0  0
  5 26  1  0  0  0
  5 87  1  0  0  0
  6 25  1  0  0  0
  6 88  1  0  0  0
  6 89  1  0  0  0
  7  8  2  0  0  0
  7 26  1  0  0  0
  7 29  1  0  0  0
  8  9  1  0  0  0
  8 22  1  0  0  0
  9 10  1  0  0  0
  9 27  2  0  0  0
 10 11  2  0  0  0
 10 15  1  0  0  0
 11 12  1  0  0  0
 11 90  1  0  0  0
 12 13  2  0  0  0
 12 91  1  0  0  0
 13 14  1  0  0  0
 13 31  1  0  0  0
 14 15  2  0  0  0
 14 92  1  0  0  0
 15 93  1  0  0  0
 16 17  2  0  0  0
 16 21  1  0  0  0
 16 31  1  0  0  0
 17 18  1  0  0  0
 17 94  1  0  0  0
 18 19  2  0  0  0
 18 95  1  0  0  0
 19 20  1  0  0  0
 19 24  1  0  0  0
 20 21  2  0  0  0
 20 96  1  0  0  0
 21 23  1  0  0  0
 22 28  1  0  0  0
 22 32  2  0  0  0
 26 27  1  0  0  0
 28 97  1  0  0  0
 28 98  1  0  0  0
 29 99  1  0  0  0
 29100  1  0  0  0
 33 34  1  0  0  0
 33 66  1  0  0  0
 33 70  2  0  0  0
 34 36  1  0  0  0
 34 59  1  0  0  0
 34101  1  0  0  0
 35 44  2  0  0  0
 35 45  1  0  0  0
 35 68  1  0  0  0
 36 56  1  0  0  0
 36102  1  0  0  0
 37 39  1  0  0  0
 37 47  1  0  0  0
 37 66  1  0  0  0
 37103  1  0  0  0
 38 43  2  0  0  0
 38 46  1  0  0  0
 38 47  1  0  0  0
 39 64  1  0  0  0
 39 67  2  0  0  0
 40 52  1  0  0  0
 40 53  2  0  0  0
 40 58  1  0  0  0
 41104  1  0  0  0
 41105  1  0  0  0
 41106  1  0  0  0
 41 48  1  0  0  0
 42 43  1  0  0  0
 42 66  1  0  0  0
 42107  1  0  0  0
 42108  1  0  0  0
 43 44  1  0  0  0
 44109  1  0  0  0
 45 46  2  0  0  0
 45110  1  0  0  0
 46111  1  0  0  0
 47112  1  0  0  0
 47113  1  0  0  0
 48 56  1  0  0  0
 48 65  1  0  0  0
 48114  1  0  0  0
 49 50  1  0  0  0
 49 53  1  0  0  0
 49 64  1  0  0  0
 49115  1  0  0  0
 50 51  1  0  0  0
 50116  1  0  0  0
 50117  1  0  0  0
 51 52  1  0  0  0
 51118  1  0  0  0
 51119  1  0  0  0
 52120  1  0  0  0
 52121  1  0  0  0
 53 54  1  0  0  0
 54 55  2  0  0  0
 54122  1  0  0  0
 55 57  1  0  0  0
 55123  1  0  0  0
 56 69  2  0  0  0
 57 58  2  0  0  0
 57124  1  0  0  0
 58125  1  0  0  0
 59 60  1  0  0  0
 59 61  1  0  0  0
 59 62  1  0  0  0
 60126  1  0  0  0
 60127  1  0  0  0
 60128  1  0  0  0
 61129  1  0  0  0
 61130  1  0  0  0
 61131  1  0  0  0
 62132  1  0  0  0
 62133  1  0  0  0
 62134  1  0  0  0
 63 65  1  0  0  0
 63135  1  0  0  0
 63136  1  0  0  0
 63137  1  0  0  0
 64138  1  0  0  0
 65139  1  0  0  0
 68 77  1  0  0  0
 71 72  2  0  0  0
 71 74  1  0  0  0
 71140  1  0  0  0
 72 75  1  0  0  0
 72141  1  0  0  0
 73 74  2  0  0  0
 73 80  1  0  0  0
 73142  1  0  0  0
 74 77  1  0  0  0
 75 78  1  0  0  0
 75 80  2  0  0  0
 76143  1  0  0  0
 76144  1  0  0  0
 76145  1  0  0  0
 76 79  1  0  0  0
 77146  1  0  0  0
 77147  1  0  0  0
 78 79  1  0  0  0
 78148  1  0  0  0
 78149  1  0  0  0
 79150  1  0  0  0
M  ISO  4   1 100  68 101  77 101  79 100
M  END
> <chiral flag>
0

> <version>
0

> <s_m_source_file>
/data/baiqing/PycharmProjects/Reinvent-master-3.2/result/LINK_invent/BTK/process_docking_weight1_custom_sum_contain_oxygen_bond_distance_aromatic_linkinvent_7_9_3/rearranged_h_0055.sdf

> <i_m_source_file_index>
90

> <r_mmod_Potential_Energy-OPLS-2005>
807.0087890625

> <r_mmod_Stretch_Energy-OPLS-2005>
411.228790283203

> <r_mmod_Bend_Energy-OPLS-2005>
376.239990234375

> <r_mmod_Torsional_Energy-OPLS-2005>
208.435287475586

> <r_mmod_Improper_Torsional_Energy-OPLS-2005>
10.308159828186

> <r_mmod_Van_der_Waal_Energy-OPLS-2005>
130.575561523438

> <r_mmod_Electrostatic_Energy-OPLS-2005>
-460.742218017578

> <r_mmod_Solvation_Energy-OPLS-2005>
-211.267990112305

> <b_mmod_Minimization_Converged-OPLS-2005>
0

> <r_mmod_RMS_Derivative-OPLS-2005>
0.88361257314682

$$$$
91
                    3D
 Structure written by MMmdl.
150158  0  0  1  0            999 V2000
  -30.6021  -14.8821   20.3995 C   0  0  0  0  0  0
  -30.4212  -12.5362   19.5097 C   0  0  0  0  0  0
  -29.5167  -12.5114   18.2577 C   0  0  0  0  0  0
  -28.0464  -12.3154   18.6678 C   0  0  0  0  0  0
  -27.6242  -13.2545   19.8286 C   0  0  2  0  0  0
  -28.6609  -13.2961   20.9683 C   0  0  0  0  0  0
  -25.2444  -13.8241   20.5710 C   0  0  0  0  0  0
  -24.1767  -13.0449   20.9215 C   0  0  0  0  0  0
  -24.6393  -11.6937   20.8741 C   0  0  0  0  0  0
  -23.9085  -10.4300   21.0399 C   0  0  0  0  0  0
  -24.3633   -9.4215   21.9178 C   0  0  0  0  0  0
  -23.6306   -8.2250   22.0752 C   0  0  0  0  0  0
  -22.4286   -8.0286   21.3545 C   0  0  0  0  0  0
  -21.9923   -9.0259   20.4646 C   0  0  0  0  0  0
  -22.7254  -10.2137   20.3053 C   0  0  0  0  0  0
  -21.6858   -6.0740   22.5281 C   0  0  0  0  0  0
  -21.4018   -6.5644   23.8213 C   0  0  0  0  0  0
  -21.3659   -5.6796   24.9175 C   0  0  0  0  0  0
  -21.6044   -4.3058   24.7226 C   0  0  0  0  0  0
  -21.8818   -3.8150   23.4347 C   0  0  0  0  0  0
  -21.9194   -4.6967   22.3403 C   0  0  0  0  0  0
  -22.7789  -13.5210   21.1885 C   0  0  0  0  0  0
  -22.1662   -4.2152   21.0981 F   0  0  0  0  0  0
  -21.5627   -3.4543   25.7738 F   0  0  0  0  0  0
  -29.9539  -13.6527   20.3792 N   0  0  0  0  0  0
  -26.2859  -12.9485   20.3202 N   0  0  0  0  0  0
  -25.9323  -11.6608   20.5715 N   0  0  0  0  0  0
  -22.0454  -12.8185   22.0441 N   0  0  0  0  0  0
  -25.4130  -15.1973   20.4191 N   0  0  0  0  0  0
  -31.8169  -14.8640   20.1709 O   0  0  0  0  0  0
  -21.6648   -6.8883   21.4242 O   0  0  0  0  0  0
  -22.3463  -14.5513   20.6737 O   0  0  0  0  0  0
  -24.6399  -31.8475   23.1911 C   0  0  0  0  0  0
  -25.9189  -32.4711   23.8287 C   0  0  1  0  0  0
  -27.2106  -27.1711   20.1540 C   0  0  0  0  0  0
  -25.5949  -33.8516   24.2206 N   0  0  0  0  0  0
  -23.4409  -30.4680   21.5361 C   0  0  2  0  0  0
  -24.8884  -28.8977   20.1133 C   0  0  0  0  0  0
  -22.7546  -29.4567   22.4878 C   0  0  0  0  0  0
  -18.0302  -28.1392   22.8482 C   0  0  0  0  0  0
  -24.1491  -36.7264   23.2642 C   0  0  0  0  0  0
  -25.9936  -30.7331   21.3835 C   0  0  0  0  0  0
  -26.0651  -29.3464   20.7279 C   0  0  0  0  0  0
  -27.2314  -28.4996   20.7285 C   0  0  0  0  0  0
  -26.0133  -26.8146   19.4991 C   0  0  0  0  0  0
  -24.8727  -27.6439   19.4833 C   0  0  0  0  0  0
  -23.6648  -29.7973   20.1551 C   0  0  0  0  0  0
  -25.4123  -36.3040   24.0318 C   0  0  1  0  0  0
  -20.5911  -28.3717   23.1251 C   0  0  2  0  0  0
  -20.6788  -26.9419   22.5422 C   0  0  0  0  0  0
  -19.5767  -26.6375   21.5223 C   0  0  0  0  0  0
  -18.1943  -26.7931   22.1626 C   0  0  0  0  0  0
  -19.1557  -28.8872   23.2859 C   0  0  0  0  0  0
  -18.9472  -30.1472   23.8877 C   0  0  0  0  0  0
  -17.6469  -30.6593   24.0555 C   0  0  0  0  0  0
  -25.9072  -34.9415   23.5069 C   0  0  0  0  0  0
  -16.5360  -29.9083   23.6333 C   0  0  0  0  0  0
  -16.7286  -28.6501   23.0357 C   0  0  0  0  0  0
  -26.4522  -31.6568   25.0715 C   0  0  0  0  0  0
  -25.3716  -31.3748   26.1415 C   0  0  0  0  0  0
  -27.0386  -30.2969   24.6269 C   0  0  0  0  0  0
  -27.6052  -32.4331   25.7501 C   0  0  0  0  0  0
  -27.5577  -37.1788   24.8465 C   0  0  0  0  0  0
  -21.4243  -29.3046   22.3622 N   0  0  0  0  0  0
  -26.4287  -37.3752   23.9407 N   0  0  0  0  0  0
  -24.7110  -31.0367   22.0923 N   0  0  0  0  0  0
  -23.4207  -28.8119   23.3019 O   0  0  0  0  0  0
  -28.2740  -26.2131   20.1756 O   0  0  0  0  0  0
  -26.5653  -34.8909   22.4646 O   0  0  0  0  0  0
  -23.5528  -32.1332   23.7158 O   0  0  0  0  0  0
  -29.8981  -17.0831   19.1416 C   0  0  0  0  0  0
  -29.9288  -16.3360   20.3643 C   0  0  0  0  0  0
  -29.3553  -18.4841   21.3636 C   0  0  0  0  0  0
  -29.3630  -19.2206   20.1195 C   0  0  0  0  0  0
  -29.0821  -19.1961   22.6710 C   0  0  0  0  0  0
  -28.7966  -23.3869   19.9671 C   0  0  0  0  0  0
  -28.0196  -24.7380   20.5617 C   0  0  0  0  0  0
  -28.6816  -21.8311   20.5833 C   0  0  0  0  0  0
  -29.6306  -18.4398   19.0250 N   0  0  0  0  0  0
  -29.6404  -17.1124   21.4766 N   0  0  0  0  0  0
  -29.2162  -20.6383   19.8008 O   0  0  0  0  0  0
  -31.4642  -12.6457   19.2089 H   0  0  0  0  0  0
  -30.3676  -11.5867   20.0450 H   0  0  0  0  0  0
  -29.8261  -11.7131   17.5821 H   0  0  0  0  0  0
  -29.6254  -13.4444   17.7024 H   0  0  0  0  0  0
  -27.9315  -11.2754   18.9755 H   0  0  0  0  0  0
  -27.3884  -12.4520   17.8088 H   0  0  0  0  0  0
  -27.5857  -14.2546   19.3959 H   0  0  0  0  0  0
  -28.7205  -12.3364   21.4839 H   0  0  0  0  0  0
  -28.3735  -14.0364   21.7168 H   0  0  0  0  0  0
  -25.2775   -9.5696   22.4756 H   0  0  0  0  0  0
  -24.0016   -7.4643   22.7474 H   0  0  0  0  0  0
  -21.0854   -8.8778   19.8953 H   0  0  0  0  0  0
  -22.3708  -10.9675   19.6165 H   0  0  0  0  0  0
  -21.2012   -7.6153   23.9718 H   0  0  0  0  0  0
  -21.1482   -6.0527   25.9077 H   0  0  0  0  0  0
  -22.0596   -2.7613   23.2847 H   0  0  0  0  0  0
  -22.4091  -11.9848   22.4820 H   0  0  0  0  0  0
  -21.1070  -13.1191   22.2658 H   0  0  0  0  0  0
  -24.6508  -15.8535   20.5513 H   0  0  0  0  0  0
  -26.2756  -15.6448   20.1365 H   0  0  0  0  0  0
  -26.7253  -32.5324   23.1018 H   0  0  0  0  0  0
  -25.0069  -33.9635   25.0333 H   0  0  0  0  0  0
  -22.7417  -31.2927   21.3837 H   0  0  0  0  0  0
  -23.3755  -35.9595   23.3292 H   0  0  0  0  0  0
  -24.3579  -36.8907   22.2059 H   0  0  0  0  0  0
  -23.7244  -37.6457   23.6685 H   0  0  0  0  0  0
  -26.1436  -31.4881   20.6105 H   0  0  0  0  0  0
  -26.8667  -30.7837   22.0225 H   0  0  0  0  0  0
  -28.1324  -28.8400   21.2196 H   0  0  0  0  0  0
  -25.9437  -25.8583   19.0009 H   0  0  0  0  0  0
  -23.9756  -27.2980   18.9882 H   0  0  0  0  0  0
  -23.8000  -30.5712   19.3988 H   0  0  0  0  0  0
  -22.7799  -29.2382   19.8457 H   0  0  0  0  0  0
  -25.1310  -36.1872   25.0810 H   0  0  0  0  0  0
  -21.0002  -28.3312   24.1374 H   0  0  0  0  0  0
  -20.5671  -26.2328   23.3640 H   0  0  0  0  0  0
  -21.6658  -26.7429   22.1227 H   0  0  0  0  0  0
  -19.6928  -25.6277   21.1274 H   0  0  0  0  0  0
  -19.6712  -27.3172   20.6744 H   0  0  0  0  0  0
  -17.4217  -26.6676   21.4023 H   0  0  0  0  0  0
  -18.0336  -26.0076   22.9023 H   0  0  0  0  0  0
  -19.7946  -30.7301   24.2230 H   0  0  0  0  0  0
  -17.5022  -31.6275   24.5150 H   0  0  0  0  0  0
  -15.5357  -30.2977   23.7665 H   0  0  0  0  0  0
  -15.8690  -28.0809   22.7082 H   0  0  0  0  0  0
  -24.5903  -30.7087   25.7739 H   0  0  0  0  0  0
  -24.8898  -32.2927   26.4791 H   0  0  0  0  0  0
  -25.8008  -30.8956   27.0223 H   0  0  0  0  0  0
  -26.2994  -29.6694   24.1274 H   0  0  0  0  0  0
  -27.4011  -29.7263   25.4829 H   0  0  0  0  0  0
  -27.8896  -30.4216   23.9570 H   0  0  0  0  0  0
  -27.2642  -33.3645   26.2033 H   0  0  0  0  0  0
  -28.3889  -32.6868   25.0351 H   0  0  0  0  0  0
  -28.0691  -31.8486   26.5457 H   0  0  0  0  0  0
  -28.2586  -38.0091   24.7511 H   0  0  0  0  0  0
  -28.1079  -36.2619   24.6293 H   0  0  0  0  0  0
  -27.2293  -37.1437   25.8868 H   0  0  0  0  0  0
  -20.9442  -29.8760   21.6810 H   0  0  0  0  0  0
  -26.0154  -38.2820   24.1409 H   0  0  0  0  0  0
  -30.1714  -16.5915   18.2188 H   0  0  0  0  0  0
  -28.1385  -19.7389   22.6167 H   0  0  0  0  0  0
  -29.8795  -19.9075   22.8848 H   0  0  0  0  0  0
  -29.0189  -18.4963   23.5044 H   0  0  0  0  0  0
  -29.8598  -23.6257   19.9475 H   0  0  0  0  0  0
  -28.5134  -23.3216   18.9165 H   0  0  0  0  0  0
  -28.1930  -24.7225   21.6377 H   0  0  0  0  0  0
  -26.9534  -24.5338   20.4745 H   0  0  0  0  0  0
  -27.6275  -21.6243   20.7683 H   0  0  0  0  0  0
  -29.1566  -21.8277   21.5635 H   0  0  0  0  0  0
  1 25  1  0  0  0
  1 30  2  0  0  0
  1 72  1  0  0  0
  2  3  1  0  0  0
  2 25  1  0  0  0
  2 82  1  0  0  0
  2 83  1  0  0  0
  3  4  1  0  0  0
  3 84  1  0  0  0
  3 85  1  0  0  0
  4  5  1  0  0  0
  4 86  1  0  0  0
  4 87  1  0  0  0
  5  6  1  0  0  0
  5 26  1  0  0  0
  5 88  1  0  0  0
  6 25  1  0  0  0
  6 89  1  0  0  0
  6 90  1  0  0  0
  7  8  2  0  0  0
  7 26  1  0  0  0
  7 29  1  0  0  0
  8  9  1  0  0  0
  8 22  1  0  0  0
  9 10  1  0  0  0
  9 27  2  0  0  0
 10 11  2  0  0  0
 10 15  1  0  0  0
 11 12  1  0  0  0
 11 91  1  0  0  0
 12 13  2  0  0  0
 12 92  1  0  0  0
 13 14  1  0  0  0
 13 31  1  0  0  0
 14 15  2  0  0  0
 14 93  1  0  0  0
 15 94  1  0  0  0
 16 17  2  0  0  0
 16 21  1  0  0  0
 16 31  1  0  0  0
 17 18  1  0  0  0
 17 95  1  0  0  0
 18 19  2  0  0  0
 18 96  1  0  0  0
 19 20  1  0  0  0
 19 24  1  0  0  0
 20 21  2  0  0  0
 20 97  1  0  0  0
 21 23  1  0  0  0
 22 28  1  0  0  0
 22 32  2  0  0  0
 26 27  1  0  0  0
 28 98  1  0  0  0
 28 99  1  0  0  0
 29100  1  0  0  0
 29101  1  0  0  0
 33 34  1  0  0  0
 33 66  1  0  0  0
 33 70  2  0  0  0
 34 36  1  0  0  0
 34 59  1  0  0  0
 34102  1  0  0  0
 35 44  2  0  0  0
 35 45  1  0  0  0
 35 68  1  0  0  0
 36 56  1  0  0  0
 36103  1  0  0  0
 37 39  1  0  0  0
 37 47  1  0  0  0
 37 66  1  0  0  0
 37104  1  0  0  0
 38 43  2  0  0  0
 38 46  1  0  0  0
 38 47  1  0  0  0
 39 64  1  0  0  0
 39 67  2  0  0  0
 40 52  1  0  0  0
 40 53  2  0  0  0
 40 58  1  0  0  0
 41105  1  0  0  0
 41106  1  0  0  0
 41107  1  0  0  0
 41 48  1  0  0  0
 42 43  1  0  0  0
 42 66  1  0  0  0
 42108  1  0  0  0
 42109  1  0  0  0
 43 44  1  0  0  0
 44110  1  0  0  0
 45 46  2  0  0  0
 45111  1  0  0  0
 46112  1  0  0  0
 47113  1  0  0  0
 47114  1  0  0  0
 48 56  1  0  0  0
 48 65  1  0  0  0
 48115  1  0  0  0
 49 50  1  0  0  0
 49 53  1  0  0  0
 49 64  1  0  0  0
 49116  1  0  0  0
 50 51  1  0  0  0
 50117  1  0  0  0
 50118  1  0  0  0
 51 52  1  0  0  0
 51119  1  0  0  0
 51120  1  0  0  0
 52121  1  0  0  0
 52122  1  0  0  0
 53 54  1  0  0  0
 54 55  2  0  0  0
 54123  1  0  0  0
 55 57  1  0  0  0
 55124  1  0  0  0
 56 69  2  0  0  0
 57 58  2  0  0  0
 57125  1  0  0  0
 58126  1  0  0  0
 59 60  1  0  0  0
 59 61  1  0  0  0
 59 62  1  0  0  0
 60127  1  0  0  0
 60128  1  0  0  0
 60129  1  0  0  0
 61130  1  0  0  0
 61131  1  0  0  0
 61132  1  0  0  0
 62133  1  0  0  0
 62134  1  0  0  0
 62135  1  0  0  0
 63 65  1  0  0  0
 63136  1  0  0  0
 63137  1  0  0  0
 63138  1  0  0  0
 64139  1  0  0  0
 65140  1  0  0  0
 68 77  1  0  0  0
 71 72  2  0  0  0
 71 79  1  0  0  0
 71141  1  0  0  0
 72 80  1  0  0  0
 73 74  1  0  0  0
 73 75  1  0  0  0
 73 80  2  0  0  0
 74 79  2  0  0  0
 74 81  1  0  0  0
 75142  1  0  0  0
 75143  1  0  0  0
 75144  1  0  0  0
 76 77  1  0  0  0
 76 78  1  0  0  0
 76145  1  0  0  0
 76146  1  0  0  0
 77147  1  0  0  0
 77148  1  0  0  0
 78 81  1  0  0  0
 78149  1  0  0  0
 78150  1  0  0  0
M  ISO  4   1 100  68 101  72 100  77 101
M  END
> <chiral flag>
0

> <version>
0

> <s_m_source_file>
/data/baiqing/PycharmProjects/Reinvent-master-3.2/result/LINK_invent/BTK/process_docking_weight1_custom_sum_contain_oxygen_bond_distance_aromatic_linkinvent_7_9_3/rearranged_h_0055.sdf

> <i_m_source_file_index>
91

> <r_mmod_Potential_Energy-OPLS-2005>
596.928039550781

> <r_mmod_Stretch_Energy-OPLS-2005>
208.011535644531

> <r_mmod_Bend_Energy-OPLS-2005>
268.628845214844

> <r_mmod_Torsional_Energy-OPLS-2005>
235.268768310547

> <r_mmod_Improper_Torsional_Energy-OPLS-2005>
9.53386211395264

> <r_mmod_Van_der_Waal_Energy-OPLS-2005>
130.002944946289

> <r_mmod_Electrostatic_Energy-OPLS-2005>
-201.766082763672

> <r_mmod_Solvation_Energy-OPLS-2005>
-208.69905090332

> <b_mmod_Minimization_Converged-OPLS-2005>
0

> <r_mmod_RMS_Derivative-OPLS-2005>
0.565248787403107

$$$$
92
                    3D
 Structure written by MMmdl.
145153  0  0  1  0            999 V2000
  -30.2266  -15.7146   20.3347 C   0  0  0  0  0  0
  -30.4344  -13.1272   19.5635 C   0  0  0  0  0  0
  -29.5674  -12.6836   18.3436 C   0  0  0  0  0  0
  -28.1398  -12.3086   18.7723 C   0  0  0  0  0  0
  -27.5982  -13.3139   19.8104 C   0  0  2  0  0  0
  -28.6045  -13.6474   20.9345 C   0  0  0  0  0  0
  -25.2336  -13.8291   20.5780 C   0  0  0  0  0  0
  -24.1725  -13.0433   20.9266 C   0  0  0  0  0  0
  -24.6431  -11.6946   20.8737 C   0  0  0  0  0  0
  -23.9131  -10.4293   21.0382 C   0  0  0  0  0  0
  -24.3661   -9.4209   21.9171 C   0  0  0  0  0  0
  -23.6318   -8.2252   22.0753 C   0  0  0  0  0  0
  -22.4298   -8.0291   21.3544 C   0  0  0  0  0  0
  -21.9946   -9.0266   20.4642 C   0  0  0  0  0  0
  -22.7293  -10.2134   20.3041 C   0  0  0  0  0  0
  -21.6860   -6.0744   22.5278 C   0  0  0  0  0  0
  -21.4019   -6.5645   23.8213 C   0  0  0  0  0  0
  -21.3661   -5.6795   24.9173 C   0  0  0  0  0  0
  -21.6043   -4.3058   24.7222 C   0  0  0  0  0  0
  -21.8818   -3.8152   23.4343 C   0  0  0  0  0  0
  -21.9194   -4.6971   22.3400 C   0  0  0  0  0  0
  -22.7736  -13.5160   21.1916 C   0  0  0  0  0  0
  -22.1661   -4.2156   21.0978 F   0  0  0  0  0  0
  -21.5628   -3.4541   25.7734 F   0  0  0  0  0  0
  -29.7847  -14.3039   20.3133 N   0  0  0  0  0  0
  -26.2785  -12.9630   20.3183 N   0  0  0  0  0  0
  -25.9379  -11.6696   20.5650 N   0  0  0  0  0  0
  -22.0410  -12.8131   22.0472 N   0  0  0  0  0  0
  -25.3937  -15.2038   20.4276 N   0  0  0  0  0  0
  -31.4525  -15.6811   20.0977 O   0  0  0  0  0  0
  -21.6651   -6.8894   21.4244 O   0  0  0  0  0  0
  -22.3401  -14.5457   20.6759 O   0  0  0  0  0  0
  -24.6901  -31.7929   23.1460 C   0  0  0  0  0  0
  -25.9453  -32.4431   23.8029 C   0  0  1  0  0  0
  -27.2308  -26.6394   20.2216 C   0  0  0  0  0  0
  -25.6009  -33.8257   24.1915 N   0  0  0  0  0  0
  -23.5192  -30.3921   21.5015 C   0  0  2  0  0  0
  -24.9778  -28.7197   20.1212 C   0  0  0  0  0  0
  -22.7795  -29.4280   22.4690 C   0  0  0  0  0  0
  -18.0344  -28.1429   22.8454 C   0  0  0  0  0  0
  -24.1497  -36.7132   23.2654 C   0  0  0  0  0  0
  -26.1029  -30.5055   21.4198 C   0  0  0  0  0  0
  -26.1689  -29.0628   20.7716 C   0  0  0  0  0  0
  -27.2782  -28.0536   20.7860 C   0  0  0  0  0  0
  -26.0043  -26.5223   19.5141 C   0  0  0  0  0  0
  -24.9383  -27.4755   19.4683 C   0  0  0  0  0  0
  -23.7771  -29.6829   20.1401 C   0  0  0  0  0  0
  -25.4150  -36.2871   24.0278 C   0  0  1  0  0  0
  -20.5983  -28.3793   23.1129 C   0  0  2  0  0  0
  -20.6809  -26.9445   22.5406 C   0  0  0  0  0  0
  -19.5785  -26.6373   21.5220 C   0  0  0  0  0  0
  -18.1967  -26.7956   22.1621 C   0  0  0  0  0  0
  -19.1612  -28.8935   23.2771 C   0  0  0  0  0  0
  -18.9516  -30.1518   23.8820 C   0  0  0  0  0  0
  -17.6505  -30.6609   24.0550 C   0  0  0  0  0  0
  -25.9133  -34.9263   23.4936 C   0  0  0  0  0  0
  -16.5393  -29.9089   23.6354 C   0  0  0  0  0  0
  -16.7323  -28.6513   23.0370 C   0  0  0  0  0  0
  -26.4610  -31.6488   25.0675 C   0  0  0  0  0  0
  -25.3662  -31.3823   26.1278 C   0  0  0  0  0  0
  -27.0549  -30.2819   24.6619 C   0  0  0  0  0  0
  -27.6049  -32.4360   25.7497 C   0  0  0  0  0  0
  -27.5558  -37.1729   24.8472 C   0  0  0  0  0  0
  -21.4436  -29.3024   22.3437 N   0  0  0  0  0  0
  -26.4272  -37.3637   23.9402 N   0  0  0  0  0  0
  -24.7949  -30.9313   22.0747 N   0  0  0  0  0  0
  -23.4209  -28.7894   23.3068 O   0  0  0  0  0  0
  -28.1823  -25.3871   20.2832 O   0  0  0  0  0  0
  -26.5774  -34.8854   22.4554 O   0  0  0  0  0  0
  -23.5908  -32.1029   23.6377 O   0  0  0  0  0  0
  -28.3705  -20.4209   20.4941 C   0  0  0  0  0  0
  -30.3170  -20.1040   19.9633 C   0  0  0  0  0  0
  -28.7321  -21.8913   20.2620 C   0  0  0  0  0  0
  -28.8628  -17.2992   22.0532 C   0  0  0  0  0  0
  -27.8965  -23.6233   20.2063 C   0  0  0  0  0  0
  -29.3083  -17.3764   20.5824 C   0  0  1  0  0  0
  -30.0633  -21.4881   19.9031 N   0  0  0  0  0  0
  -29.3524  -19.1923   20.3314 N   0  0  0  0  0  0
  -31.4239  -13.4043   19.1992 H   0  0  0  0  0  0
  -30.6112  -12.2855   20.2356 H   0  0  0  0  0  0
  -30.0373  -11.8470   17.8251 H   0  0  0  0  0  0
  -29.5233  -13.5038   17.6259 H   0  0  0  0  0  0
  -28.1716  -11.3119   19.2139 H   0  0  0  0  0  0
  -27.4785  -12.2439   17.9072 H   0  0  0  0  0  0
  -27.4608  -14.2355   19.2434 H   0  0  0  0  0  0
  -28.8704  -12.7606   21.5121 H   0  0  0  0  0  0
  -28.1414  -14.3338   21.6412 H   0  0  0  0  0  0
  -25.2803   -9.5682   22.4753 H   0  0  0  0  0  0
  -24.0015   -7.4649   22.7483 H   0  0  0  0  0  0
  -21.0874   -8.8793   19.8951 H   0  0  0  0  0  0
  -22.3752  -10.9672   19.6150 H   0  0  0  0  0  0
  -21.2014   -7.6153   23.9718 H   0  0  0  0  0  0
  -21.1482   -6.0525   25.9076 H   0  0  0  0  0  0
  -22.0595   -2.7614   23.2840 H   0  0  0  0  0  0
  -22.4059  -11.9805   22.4857 H   0  0  0  0  0  0
  -21.1018  -13.1120   22.2680 H   0  0  0  0  0  0
  -24.6252  -15.8530   20.5558 H   0  0  0  0  0  0
  -26.2421  -15.6525   20.1085 H   0  0  0  0  0  0
  -26.7539  -32.4888   23.0742 H   0  0  0  0  0  0
  -25.0074  -33.9287   25.0016 H   0  0  0  0  0  0
  -22.8479  -31.2309   21.3059 H   0  0  0  0  0  0
  -23.3771  -35.9451   23.3286 H   0  0  0  0  0  0
  -24.3559  -36.8822   22.2074 H   0  0  0  0  0  0
  -23.7254  -37.6304   23.6750 H   0  0  0  0  0  0
  -26.3115  -31.2260   20.6277 H   0  0  0  0  0  0
  -26.9519  -30.5770   22.0873 H   0  0  0  0  0  0
  -28.1732  -28.3270   21.3265 H   0  0  0  0  0  0
  -25.8240  -25.5853   19.0068 H   0  0  0  0  0  0
  -24.0412  -27.2024   18.9298 H   0  0  0  0  0  0
  -23.9576  -30.4400   19.3760 H   0  0  0  0  0  0
  -22.8805  -29.1526   19.8145 H   0  0  0  0  0  0
  -25.1367  -36.1625   25.0768 H   0  0  0  0  0  0
  -21.0065  -28.3426   24.1257 H   0  0  0  0  0  0
  -20.5667  -26.2419   23.3677 H   0  0  0  0  0  0
  -21.6669  -26.7377   22.1229 H   0  0  0  0  0  0
  -19.6939  -25.6262   21.1303 H   0  0  0  0  0  0
  -19.6732  -27.3138   20.6714 H   0  0  0  0  0  0
  -17.4238  -26.6699   21.4023 H   0  0  0  0  0  0
  -18.0351  -26.0118   22.9035 H   0  0  0  0  0  0
  -19.7990  -30.7356   24.2155 H   0  0  0  0  0  0
  -17.5054  -31.6281   24.5168 H   0  0  0  0  0  0
  -15.5391  -30.2968   23.7723 H   0  0  0  0  0  0
  -15.8725  -28.0805   22.7130 H   0  0  0  0  0  0
  -24.5884  -30.7128   25.7582 H   0  0  0  0  0  0
  -24.8807  -32.3047   26.4472 H   0  0  0  0  0  0
  -25.7830  -30.9145   27.0206 H   0  0  0  0  0  0
  -26.3277  -29.6417   24.1613 H   0  0  0  0  0  0
  -27.3951  -29.7286   25.5383 H   0  0  0  0  0  0
  -27.9269  -30.3928   24.0172 H   0  0  0  0  0  0
  -27.2587  -33.3742   26.1844 H   0  0  0  0  0  0
  -28.3980  -32.6789   25.0412 H   0  0  0  0  0  0
  -28.0585  -31.8642   26.5603 H   0  0  0  0  0  0
  -28.2563  -38.0033   24.7488 H   0  0  0  0  0  0
  -28.1066  -36.2553   24.6344 H   0  0  0  0  0  0
  -27.2266  -37.1417   25.8873 H   0  0  0  0  0  0
  -20.9754  -29.8659   21.6477 H   0  0  0  0  0  0
  -26.0093  -38.2685   24.1399 H   0  0  0  0  0  0
  -27.3730  -20.1269   20.7940 H   0  0  0  0  0  0
  -31.3059  -19.7391   19.7228 H   0  0  0  0  0  0
  -27.8732  -17.7379   22.1829 H   0  0  0  0  0  0
  -29.5533  -17.8517   22.6905 H   0  0  0  0  0  0
  -28.8180  -16.2834   22.4404 H   0  0  0  0  0  0
  -27.1240  -23.5419   20.9707 H   0  0  0  0  0  0
  -27.3183  -23.5804   19.2835 H   0  0  0  0  0  0
  -28.4270  -17.1152   19.9967 H   0  0  0  0  0  0
  1 25  1  0  0  0
  1 30  2  0  0  0
  1 76  1  0  0  0
  2  3  1  0  0  0
  2 25  1  0  0  0
  2 79  1  0  0  0
  2 80  1  0  0  0
  3  4  1  0  0  0
  3 81  1  0  0  0
  3 82  1  0  0  0
  4  5  1  0  0  0
  4 83  1  0  0  0
  4 84  1  0  0  0
  5  6  1  0  0  0
  5 26  1  0  0  0
  5 85  1  0  0  0
  6 25  1  0  0  0
  6 86  1  0  0  0
  6 87  1  0  0  0
  7  8  2  0  0  0
  7 26  1  0  0  0
  7 29  1  0  0  0
  8  9  1  0  0  0
  8 22  1  0  0  0
  9 10  1  0  0  0
  9 27  2  0  0  0
 10 11  2  0  0  0
 10 15  1  0  0  0
 11 12  1  0  0  0
 11 88  1  0  0  0
 12 13  2  0  0  0
 12 89  1  0  0  0
 13 14  1  0  0  0
 13 31  1  0  0  0
 14 15  2  0  0  0
 14 90  1  0  0  0
 15 91  1  0  0  0
 16 17  2  0  0  0
 16 21  1  0  0  0
 16 31  1  0  0  0
 17 18  1  0  0  0
 17 92  1  0  0  0
 18 19  2  0  0  0
 18 93  1  0  0  0
 19 20  1  0  0  0
 19 24  1  0  0  0
 20 21  2  0  0  0
 20 94  1  0  0  0
 21 23  1  0  0  0
 22 28  1  0  0  0
 22 32  2  0  0  0
 26 27  1  0  0  0
 28 95  1  0  0  0
 28 96  1  0  0  0
 29 97  1  0  0  0
 29 98  1  0  0  0
 33 34  1  0  0  0
 33 66  1  0  0  0
 33 70  2  0  0  0
 34 36  1  0  0  0
 34 59  1  0  0  0
 34 99  1  0  0  0
 35 44  2  0  0  0
 35 45  1  0  0  0
 35 68  1  0  0  0
 36 56  1  0  0  0
 36100  1  0  0  0
 37 39  1  0  0  0
 37 47  1  0  0  0
 37 66  1  0  0  0
 37101  1  0  0  0
 38 43  2  0  0  0
 38 46  1  0  0  0
 38 47  1  0  0  0
 39 64  1  0  0  0
 39 67  2  0  0  0
 40 52  1  0  0  0
 40 53  2  0  0  0
 40 58  1  0  0  0
 41102  1  0  0  0
 41103  1  0  0  0
 41104  1  0  0  0
 41 48  1  0  0  0
 42 43  1  0  0  0
 42 66  1  0  0  0
 42105  1  0  0  0
 42106  1  0  0  0
 43 44  1  0  0  0
 44107  1  0  0  0
 45 46  2  0  0  0
 45108  1  0  0  0
 46109  1  0  0  0
 47110  1  0  0  0
 47111  1  0  0  0
 48 56  1  0  0  0
 48 65  1  0  0  0
 48112  1  0  0  0
 49 50  1  0  0  0
 49 53  1  0  0  0
 49 64  1  0  0  0
 49113  1  0  0  0
 50 51  1  0  0  0
 50114  1  0  0  0
 50115  1  0  0  0
 51 52  1  0  0  0
 51116  1  0  0  0
 51117  1  0  0  0
 52118  1  0  0  0
 52119  1  0  0  0
 53 54  1  0  0  0
 54 55  2  0  0  0
 54120  1  0  0  0
 55 57  1  0  0  0
 55121  1  0  0  0
 56 69  2  0  0  0
 57 58  2  0  0  0
 57122  1  0  0  0
 58123  1  0  0  0
 59 60  1  0  0  0
 59 61  1  0  0  0
 59 62  1  0  0  0
 60124  1  0  0  0
 60125  1  0  0  0
 60126  1  0  0  0
 61127  1  0  0  0
 61128  1  0  0  0
 61129  1  0  0  0
 62130  1  0  0  0
 62131  1  0  0  0
 62132  1  0  0  0
 63 65  1  0  0  0
 63133  1  0  0  0
 63134  1  0  0  0
 63135  1  0  0  0
 64136  1  0  0  0
 65137  1  0  0  0
 68 75  1  0  0  0
 71 73  2  0  0  0
 71 78  1  0  0  0
 71138  1  0  0  0
 72 77  2  0  0  0
 72 78  1  0  0  0
 72139  1  0  0  0
 73 75  1  0  0  0
 73 77  1  0  0  0
 74140  1  0  0  0
 74141  1  0  0  0
 74142  1  0  0  0
 74 76  1  0  0  0
 75143  1  0  0  0
 75144  1  0  0  0
 76 78  1  0  0  0
 76145  1  0  0  0
M  ISO  4   1 100  68 101  75 101  76 100
M  END
> <chiral flag>
0

> <version>
0

> <s_m_source_file>
/data/baiqing/PycharmProjects/Reinvent-master-3.2/result/LINK_invent/BTK/process_docking_weight1_custom_sum_contain_oxygen_bond_distance_aromatic_linkinvent_7_9_3/rearranged_h_0055.sdf

> <i_m_source_file_index>
92

> <r_mmod_Potential_Energy-OPLS-2005>
2776.29028320312

> <r_mmod_Stretch_Energy-OPLS-2005>
1210.43530273438

> <r_mmod_Bend_Energy-OPLS-2005>
718.688720703125

> <r_mmod_Torsional_Energy-OPLS-2005>
213.409057617188

> <r_mmod_Improper_Torsional_Energy-OPLS-2005>
1.97652876377106

> <r_mmod_Van_der_Waal_Energy-OPLS-2005>
105.922714233398

> <r_mmod_Electrostatic_Energy-OPLS-2005>
-275.726379394531

> <r_mmod_Solvation_Energy-OPLS-2005>
-228.438674926758

> <b_mmod_Minimization_Converged-OPLS-2005>
0

> <r_mmod_RMS_Derivative-OPLS-2005>
0.40779834985733

$$$$
93
                    3D
 Structure written by MMmdl.
163171  0  0  1  0            999 V2000
  -30.7283  -14.6498   20.4437 C   0  0  0  0  0  0
  -30.3900  -12.4062   19.4389 C   0  0  0  0  0  0
  -29.4647  -12.4596   18.2112 C   0  0  0  0  0  0
  -28.0038  -12.2749   18.6439 C   0  0  0  0  0  0
  -27.6149  -13.2287   19.8058 C   0  0  2  0  0  0
  -28.6683  -13.2119   20.9326 C   0  0  0  0  0  0
  -25.2393  -13.8215   20.5666 C   0  0  0  0  0  0
  -24.1679  -13.0444   20.9234 C   0  0  0  0  0  0
  -24.6264  -11.6941   20.8744 C   0  0  0  0  0  0
  -23.8993  -10.4303   21.0391 C   0  0  0  0  0  0
  -24.3564   -9.4230   21.9161 C   0  0  0  0  0  0
  -23.6265   -8.2232   22.0734 C   0  0  0  0  0  0
  -22.4247   -8.0256   21.3491 C   0  0  0  0  0  0
  -21.9867   -9.0219   20.4607 C   0  0  0  0  0  0
  -22.7171  -10.2122   20.3047 C   0  0  0  0  0  0
  -21.6808   -6.0762   22.5301 C   0  0  0  0  0  0
  -21.3980   -6.5671   23.8237 C   0  0  0  0  0  0
  -21.3646   -5.6827   24.9197 C   0  0  0  0  0  0
  -21.6035   -4.3083   24.7244 C   0  0  0  0  0  0
  -21.8789   -3.8183   23.4360 C   0  0  0  0  0  0
  -21.9175   -4.7003   22.3424 C   0  0  0  0  0  0
  -22.7717  -13.5226   21.1947 C   0  0  0  0  0  0
  -22.1633   -4.2183   21.0993 F   0  0  0  0  0  0
  -21.5627   -3.4569   25.7747 F   0  0  0  0  0  0
  -29.9750  -13.5062   20.3307 N   0  0  0  0  0  0
  -26.2768  -12.9397   20.3130 N   0  0  0  0  0  0
  -25.9156  -11.6533   20.5671 N   0  0  0  0  0  0
  -22.0366  -12.8187   22.0540 N   0  0  0  0  0  0
  -25.4227  -15.1887   20.4127 N   0  0  0  0  0  0
  -31.9504  -14.5608   20.3145 O   0  0  0  0  0  0
  -21.6570   -6.8878   21.4238 O   0  0  0  0  0  0
  -22.3432  -14.5522   20.6866 O   0  0  0  0  0  0
  -24.6254  -31.8516   23.1929 C   0  0  0  0  0  0
  -25.9058  -32.4742   23.8300 C   0  0  1  0  0  0
  -27.2773  -27.3144   20.0955 C   0  0  0  0  0  0
  -25.5832  -33.8563   24.2208 N   0  0  0  0  0  0
  -23.4283  -30.4627   21.5297 C   0  0  2  0  0  0
  -24.8931  -28.9081   20.1041 C   0  0  0  0  0  0
  -22.7536  -29.4548   22.4911 C   0  0  0  0  0  0
  -18.0324  -28.1343   22.8437 C   0  0  0  0  0  0
  -24.1527  -36.7350   23.2646 C   0  0  0  0  0  0
  -25.9660  -30.7816   21.3658 C   0  0  0  0  0  0
  -26.0543  -29.4048   20.7081 C   0  0  0  0  0  0
  -27.2419  -28.6136   20.7021 C   0  0  0  0  0  0
  -26.0946  -26.8737   19.4653 C   0  0  0  0  0  0
  -24.9148  -27.6484   19.4790 C   0  0  0  0  0  0
  -23.6482  -29.7697   20.1531 C   0  0  0  0  0  0
  -25.4120  -36.3094   24.0326 C   0  0  1  0  0  0
  -20.5922  -28.3779   23.1361 C   0  0  2  0  0  0
  -20.6899  -26.9494   22.5467 C   0  0  0  0  0  0
  -19.5904  -26.6519   21.5180 C   0  0  0  0  0  0
  -18.2076  -26.7889   22.1590 C   0  0  0  0  0  0
  -19.1553  -28.8868   23.2853 C   0  0  0  0  0  0
  -18.9388  -30.1478   23.8837 C   0  0  0  0  0  0
  -17.6371  -30.6571   24.0461 C   0  0  0  0  0  0
  -25.9025  -34.9452   23.5076 C   0  0  0  0  0  0
  -16.5295  -29.9027   23.6229 C   0  0  0  0  0  0
  -16.7282  -28.6440   23.0266 C   0  0  0  0  0  0
  -26.4421  -31.6558   25.0684 C   0  0  0  0  0  0
  -25.3670  -31.3741   26.1426 C   0  0  0  0  0  0
  -27.0211  -30.2943   24.6165 C   0  0  0  0  0  0
  -27.5978  -32.4302   25.7429 C   0  0  0  0  0  0
  -27.5581  -37.1830   24.8435 C   0  0  0  0  0  0
  -21.4226  -29.3114   22.3752 N   0  0  0  0  0  0
  -26.4303  -37.3760   23.9374 N   0  0  0  0  0  0
  -24.6892  -31.0488   22.0872 N   0  0  0  0  0  0
  -23.4285  -28.8071   23.2990 O   0  0  0  0  0  0
  -28.4182  -26.4963   20.1761 O   0  0  0  0  0  0
  -26.5670  -34.8883   22.4686 O   0  0  0  0  0  0
  -23.5402  -32.1302   23.7235 O   0  0  0  0  0  0
  -30.3913  -19.1767   20.7938 C   0  0  0  0  0  0
  -29.2674  -18.3188   20.7923 C   0  0  0  0  0  0
  -29.0764  -21.1494   20.5028 C   0  0  0  0  0  0
  -27.9290  -20.2805   20.5609 C   0  0  0  0  0  0
  -25.7522  -20.3361   21.8710 C   0  0  0  0  0  0
  -32.1691  -17.0499   18.8866 C   0  0  0  0  0  0
  -29.1848  -22.7462   20.4712 C   0  0  0  0  0  0
  -26.4766  -20.7345   20.5664 C   0  0  0  0  0  0
  -29.3384  -16.7425   20.9979 C   0  0  0  0  0  0
  -28.1445  -23.7727   19.8107 C   0  0  0  0  0  0
  -30.6832  -16.5478   18.8527 C   0  0  0  0  0  0
  -28.6252  -25.2539   19.3872 C   0  0  0  0  0  0
  -30.2967  -20.5356   20.6204 N   0  0  0  0  0  0
  -28.0447  -18.9051   20.6537 N   0  0  0  0  0  0
  -30.1632  -15.8613   20.0804 N   0  0  0  0  0  0
  -31.4263  -12.4772   19.1082 H   0  0  0  0  0  0
  -30.2980  -11.4416   19.9363 H   0  0  0  0  0  0
  -29.7273  -11.6773   17.5011 H   0  0  0  0  0  0
  -29.5837  -13.4160   17.7027 H   0  0  0  0  0  0
  -27.8885  -11.2402   18.9631 H   0  0  0  0  0  0
  -27.3252  -12.3925   17.7987 H   0  0  0  0  0  0
  -27.5946  -14.2268   19.3683 H   0  0  0  0  0  0
  -28.6726  -12.2302   21.4056 H   0  0  0  0  0  0
  -28.4107  -13.9304   21.7077 H   0  0  0  0  0  0
  -25.2695   -9.5718   22.4766 H   0  0  0  0  0  0
  -23.9964   -7.4634   22.7441 H   0  0  0  0  0  0
  -21.0838   -8.8711   19.8911 H   0  0  0  0  0  0
  -22.3575  -10.9655   19.6195 H   0  0  0  0  0  0
  -21.1916   -7.6168   23.9745 H   0  0  0  0  0  0
  -21.1514   -6.0560   25.9103 H   0  0  0  0  0  0
  -22.0566   -2.7656   23.2852 H   0  0  0  0  0  0
  -22.3982  -11.9814   22.4854 H   0  0  0  0  0  0
  -21.0968  -13.1186   22.2700 H   0  0  0  0  0  0
  -24.6694  -15.8576   20.5418 H   0  0  0  0  0  0
  -26.2877  -15.6145   20.1065 H   0  0  0  0  0  0
  -26.7133  -32.5395   23.1043 H   0  0  0  0  0  0
  -24.9789  -33.9723   25.0199 H   0  0  0  0  0  0
  -22.7277  -31.2836   21.3637 H   0  0  0  0  0  0
  -23.3748  -35.9722   23.3295 H   0  0  0  0  0  0
  -24.3635  -36.8996   22.2072 H   0  0  0  0  0  0
  -23.7338  -37.6565   23.6681 H   0  0  0  0  0  0
  -26.0994  -31.5544   20.6065 H   0  0  0  0  0  0
  -26.8481  -30.8380   21.9942 H   0  0  0  0  0  0
  -28.1335  -28.9952   21.1778 H   0  0  0  0  0  0
  -26.0753  -25.9163   18.9693 H   0  0  0  0  0  0
  -24.0303  -27.2636   18.9884 H   0  0  0  0  0  0
  -23.7372  -30.5284   19.3775 H   0  0  0  0  0  0
  -22.7804  -29.1736   19.8719 H   0  0  0  0  0  0
  -25.1321  -36.1944   25.0829 H   0  0  0  0  0  0
  -20.9999  -28.3474   24.1482 H   0  0  0  0  0  0
  -20.5720  -26.2432   23.3653 H   0  0  0  0  0  0
  -21.6795  -26.7631   22.1336 H   0  0  0  0  0  0
  -19.7126  -25.6508   21.1026 H   0  0  0  0  0  0
  -19.6694  -27.3463   20.6828 H   0  0  0  0  0  0
  -17.4399  -26.6467   21.3976 H   0  0  0  0  0  0
  -18.0629  -25.9980   22.8993 H   0  0  0  0  0  0
  -19.7793  -30.7356   24.2191 H   0  0  0  0  0  0
  -17.4842  -31.6270   24.4999 H   0  0  0  0  0  0
  -15.5268  -30.2876   23.7503 H   0  0  0  0  0  0
  -15.8676  -28.0732   22.6981 H   0  0  0  0  0  0
  -24.5845  -30.7060   25.7814 H   0  0  0  0  0  0
  -24.8842  -32.2930   26.4783 H   0  0  0  0  0  0
  -25.8018  -30.8997   27.0240 H   0  0  0  0  0  0
  -26.2809  -29.6783   24.1053 H   0  0  0  0  0  0
  -27.3710  -29.7100   25.4692 H   0  0  0  0  0  0
  -27.8770  -30.4140   23.9519 H   0  0  0  0  0  0
  -27.2541  -33.3582   26.1982 H   0  0  0  0  0  0
  -28.3757  -32.6877   25.0248 H   0  0  0  0  0  0
  -28.0641  -31.8431   26.5341 H   0  0  0  0  0  0
  -28.2564  -38.0156   24.7413 H   0  0  0  0  0  0
  -28.1105  -36.2659   24.6310 H   0  0  0  0  0  0
  -27.2292  -37.1536   25.8839 H   0  0  0  0  0  0
  -20.9417  -29.9001   21.7094 H   0  0  0  0  0  0
  -26.0201  -38.2850   24.1299 H   0  0  0  0  0  0
  -31.3845  -18.7804   20.9408 H   0  0  0  0  0  0
  -24.6682  -20.4389   21.7774 H   0  0  0  0  0  0
  -26.0870  -20.9505   22.7080 H   0  0  0  0  0  0
  -25.9434  -19.2976   22.1357 H   0  0  0  0  0  0
  -32.5850  -17.1864   19.8898 H   0  0  0  0  0  0
  -32.8308  -16.3461   18.3759 H   0  0  0  0  0  0
  -32.2879  -17.9977   18.3513 H   0  0  0  0  0  0
  -30.1395  -22.9425   19.9734 H   0  0  0  0  0  0
  -29.3446  -23.0648   21.4970 H   0  0  0  0  0  0
  -25.9788  -20.2605   19.7188 H   0  0  0  0  0  0
  -26.3813  -21.8043   20.4116 H   0  0  0  0  0  0
  -28.3223  -16.3367   20.9764 H   0  0  0  0  0  0
  -29.6793  -16.5720   22.0219 H   0  0  0  0  0  0
  -27.2370  -23.8686   20.3983 H   0  0  0  0  0  0
  -27.8384  -23.3053   18.8757 H   0  0  0  0  0  0
  -30.5633  -15.8845   17.9893 H   0  0  0  0  0  0
  -30.0461  -17.3883   18.5835 H   0  0  0  0  0  0
  -28.2594  -25.4708   18.3885 H   0  0  0  0  0  0
  -29.7088  -25.1972   19.2298 H   0  0  0  0  0  0
  1 25  1  0  0  0
  1 30  2  0  0  0
  1 85  1  0  0  0
  2  3  1  0  0  0
  2 25  1  0  0  0
  2 86  1  0  0  0
  2 87  1  0  0  0
  3  4  1  0  0  0
  3 88  1  0  0  0
  3 89  1  0  0  0
  4  5  1  0  0  0
  4 90  1  0  0  0
  4 91  1  0  0  0
  5  6  1  0  0  0
  5 26  1  0  0  0
  5 92  1  0  0  0
  6 25  1  0  0  0
  6 93  1  0  0  0
  6 94  1  0  0  0
  7  8  2  0  0  0
  7 26  1  0  0  0
  7 29  1  0  0  0
  8  9  1  0  0  0
  8 22  1  0  0  0
  9 10  1  0  0  0
  9 27  2  0  0  0
 10 11  2  0  0  0
 10 15  1  0  0  0
 11 12  1  0  0  0
 11 95  1  0  0  0
 12 13  2  0  0  0
 12 96  1  0  0  0
 13 14  1  0  0  0
 13 31  1  0  0  0
 14 15  2  0  0  0
 14 97  1  0  0  0
 15 98  1  0  0  0
 16 17  2  0  0  0
 16 21  1  0  0  0
 16 31  1  0  0  0
 17 18  1  0  0  0
 17 99  1  0  0  0
 18 19  2  0  0  0
 18100  1  0  0  0
 19 20  1  0  0  0
 19 24  1  0  0  0
 20 21  2  0  0  0
 20101  1  0  0  0
 21 23  1  0  0  0
 22 28  1  0  0  0
 22 32  2  0  0  0
 26 27  1  0  0  0
 28102  1  0  0  0
 28103  1  0  0  0
 29104  1  0  0  0
 29105  1  0  0  0
 33 34  1  0  0  0
 33 66  1  0  0  0
 33 70  2  0  0  0
 34 36  1  0  0  0
 34 59  1  0  0  0
 34106  1  0  0  0
 35 44  2  0  0  0
 35 45  1  0  0  0
 35 68  1  0  0  0
 36 56  1  0  0  0
 36107  1  0  0  0
 37 39  1  0  0  0
 37 47  1  0  0  0
 37 66  1  0  0  0
 37108  1  0  0  0
 38 43  2  0  0  0
 38 46  1  0  0  0
 38 47  1  0  0  0
 39 64  1  0  0  0
 39 67  2  0  0  0
 40 52  1  0  0  0
 40 53  2  0  0  0
 40 58  1  0  0  0
 41109  1  0  0  0
 41110  1  0  0  0
 41111  1  0  0  0
 41 48  1  0  0  0
 42 43  1  0  0  0
 42 66  1  0  0  0
 42112  1  0  0  0
 42113  1  0  0  0
 43 44  1  0  0  0
 44114  1  0  0  0
 45 46  2  0  0  0
 45115  1  0  0  0
 46116  1  0  0  0
 47117  1  0  0  0
 47118  1  0  0  0
 48 56  1  0  0  0
 48 65  1  0  0  0
 48119  1  0  0  0
 49 50  1  0  0  0
 49 53  1  0  0  0
 49 64  1  0  0  0
 49120  1  0  0  0
 50 51  1  0  0  0
 50121  1  0  0  0
 50122  1  0  0  0
 51 52  1  0  0  0
 51123  1  0  0  0
 51124  1  0  0  0
 52125  1  0  0  0
 52126  1  0  0  0
 53 54  1  0  0  0
 54 55  2  0  0  0
 54127  1  0  0  0
 55 57  1  0  0  0
 55128  1  0  0  0
 56 69  2  0  0  0
 57 58  2  0  0  0
 57129  1  0  0  0
 58130  1  0  0  0
 59 60  1  0  0  0
 59 61  1  0  0  0
 59 62  1  0  0  0
 60131  1  0  0  0
 60132  1  0  0  0
 60133  1  0  0  0
 61134  1  0  0  0
 61135  1  0  0  0
 61136  1  0  0  0
 62137  1  0  0  0
 62138  1  0  0  0
 62139  1  0  0  0
 63 65  1  0  0  0
 63140  1  0  0  0
 63141  1  0  0  0
 63142  1  0  0  0
 64143  1  0  0  0
 65144  1  0  0  0
 68 82  1  0  0  0
 71 72  2  0  0  0
 71 83  1  0  0  0
 71145  1  0  0  0
 72 79  1  0  0  0
 72 84  1  0  0  0
 73 74  1  0  0  0
 73 77  1  0  0  0
 73 83  2  0  0  0
 74 78  1  0  0  0
 74 84  2  0  0  0
 75 78  1  0  0  0
 75146  1  0  0  0
 75147  1  0  0  0
 75148  1  0  0  0
 76 81  1  0  0  0
 76149  1  0  0  0
 76150  1  0  0  0
 76151  1  0  0  0
 77 80  1  0  0  0
 77152  1  0  0  0
 77153  1  0  0  0
 78154  1  0  0  0
 78155  1  0  0  0
 79 85  1  0  0  0
 79156  1  0  0  0
 79157  1  0  0  0
 80 82  1  0  0  0
 80158  1  0  0  0
 80159  1  0  0  0
 81 85  1  0  0  0
 81160  1  0  0  0
 81161  1  0  0  0
 82162  1  0  0  0
 82163  1  0  0  0
M  ISO  4   1 100  68 101  82 101  85 100
M  END
> <chiral flag>
0

> <version>
0

> <s_m_source_file>
/data/baiqing/PycharmProjects/Reinvent-master-3.2/result/LINK_invent/BTK/process_docking_weight1_custom_sum_contain_oxygen_bond_distance_aromatic_linkinvent_7_9_3/rearranged_h_0055.sdf

> <i_m_source_file_index>
93

> <r_mmod_Potential_Energy-OPLS-2005>
384.769500732422

> <r_mmod_Stretch_Energy-OPLS-2005>
112.195846557617

> <r_mmod_Bend_Energy-OPLS-2005>
215.471878051758

> <r_mmod_Torsional_Energy-OPLS-2005>
288.284484863281

> <r_mmod_Improper_Torsional_Energy-OPLS-2005>
23.2515239715576

> <r_mmod_Van_der_Waal_Energy-OPLS-2005>
140.735321044922

> <r_mmod_Electrostatic_Energy-OPLS-2005>
-268.783935546875

> <r_mmod_Solvation_Energy-OPLS-2005>
-202.04231262207

> <b_mmod_Minimization_Converged-OPLS-2005>
0

> <r_mmod_RMS_Derivative-OPLS-2005>
10.5196895599365

$$$$
94
                    3D
 Structure written by MMmdl.
154162  0  0  1  0            999 V2000
  -30.5486  -15.0518   20.4060 C   0  0  0  0  0  0
  -30.4602  -12.6515   19.5403 C   0  0  0  0  0  0
  -29.5599  -12.5041   18.2922 C   0  0  0  0  0  0
  -28.0951  -12.2630   18.7081 C   0  0  0  0  0  0
  -27.6346  -13.2373   19.8228 C   0  0  2  0  0  0
  -28.6683  -13.3138   20.9692 C   0  0  0  0  0  0
  -25.2551  -13.8138   20.5617 C   0  0  0  0  0  0
  -24.1840  -13.0389   20.9175 C   0  0  0  0  0  0
  -24.6417  -11.6885   20.8674 C   0  0  0  0  0  0
  -23.9081  -10.4268   21.0400 C   0  0  0  0  0  0
  -24.3630   -9.4176   21.9161 C   0  0  0  0  0  0
  -23.6291   -8.2219   22.0734 C   0  0  0  0  0  0
  -22.4270   -8.0273   21.3528 C   0  0  0  0  0  0
  -21.9921   -9.0245   20.4630 C   0  0  0  0  0  0
  -22.7259  -10.2122   20.3049 C   0  0  0  0  0  0
  -21.6848   -6.0768   22.5286 C   0  0  0  0  0  0
  -21.4003   -6.5657   23.8219 C   0  0  0  0  0  0
  -21.3656   -5.6803   24.9165 C   0  0  0  0  0  0
  -21.6055   -4.3058   24.7213 C   0  0  0  0  0  0
  -21.8804   -3.8171   23.4314 C   0  0  0  0  0  0
  -21.9176   -4.7007   22.3382 C   0  0  0  0  0  0
  -22.7897  -13.5233   21.1806 C   0  0  0  0  0  0
  -22.1655   -4.2202   21.0956 F   0  0  0  0  0  0
  -21.5620   -3.4537   25.7712 F   0  0  0  0  0  0
  -29.9350  -13.7812   20.3764 N   0  0  0  0  0  0
  -26.2926  -12.9323   20.3094 N   0  0  0  0  0  0
  -25.9330  -11.6478   20.5599 N   0  0  0  0  0  0
  -22.0525  -12.8242   22.0381 N   0  0  0  0  0  0
  -25.4272  -15.1829   20.4006 N   0  0  0  0  0  0
  -31.7353  -15.0620   20.0600 O   0  0  0  0  0  0
  -21.6610   -6.8896   21.4244 O   0  0  0  0  0  0
  -22.3604  -14.5538   20.6651 O   0  0  0  0  0  0
  -24.6461  -31.8313   23.1774 C   0  0  0  0  0  0
  -25.9203  -32.4625   23.8222 C   0  0  1  0  0  0
  -27.2578  -27.0762   20.1527 C   0  0  0  0  0  0
  -25.5942  -33.8454   24.2125 N   0  0  0  0  0  0
  -23.4592  -30.4394   21.5218 C   0  0  2  0  0  0
  -24.9187  -28.8477   20.1064 C   0  0  0  0  0  0
  -22.7601  -29.4459   22.4813 C   0  0  0  0  0  0
  -18.0286  -28.1392   22.8434 C   0  0  0  0  0  0
  -24.1494  -36.7219   23.2665 C   0  0  0  0  0  0
  -26.0178  -30.6770   21.3959 C   0  0  0  0  0  0
  -26.0904  -29.2840   20.7357 C   0  0  0  0  0  0
  -27.2479  -28.4099   20.7473 C   0  0  0  0  0  0
  -26.0554  -26.7417   19.4910 C   0  0  0  0  0  0
  -24.9154  -27.5883   19.4772 C   0  0  0  0  0  0
  -23.6907  -29.7537   20.1455 C   0  0  0  0  0  0
  -25.4143  -36.2999   24.0312 C   0  0  1  0  0  0
  -20.5913  -28.3699   23.1203 C   0  0  2  0  0  0
  -20.6759  -26.9392   22.5411 C   0  0  0  0  0  0
  -19.5752  -26.6346   21.5201 C   0  0  0  0  0  0
  -18.1917  -26.7910   22.1594 C   0  0  0  0  0  0
  -19.1548  -28.8867   23.2790 C   0  0  0  0  0  0
  -18.9469  -30.1460   23.8821 C   0  0  0  0  0  0
  -17.6472  -30.6576   24.0535 C   0  0  0  0  0  0
  -25.9088  -34.9375   23.5033 C   0  0  0  0  0  0
  -16.5355  -29.9049   23.6377 C   0  0  0  0  0  0
  -16.7265  -28.6486   23.0355 C   0  0  0  0  0  0
  -26.4509  -31.6564   25.0735 C   0  0  0  0  0  0
  -25.3666  -31.3784   26.1415 C   0  0  0  0  0  0
  -27.0435  -30.2960   24.6444 C   0  0  0  0  0  0
  -27.5994  -32.4408   25.7482 C   0  0  0  0  0  0
  -27.5582  -37.1773   24.8473 C   0  0  0  0  0  0
  -21.4266  -29.3009   22.3575 N   0  0  0  0  0  0
  -26.4293  -37.3728   23.9418 N   0  0  0  0  0  0
  -24.7275  -31.0084   22.0862 N   0  0  0  0  0  0
  -23.4199  -28.8032   23.3024 O   0  0  0  0  0  0
  -28.3446  -26.1094   20.2714 O   0  0  0  0  0  0
  -26.5691  -34.8885   22.4627 O   0  0  0  0  0  0
  -23.5569  -32.1267   23.6931 O   0  0  0  0  0  0
  -30.6523  -21.5141   19.7881 C   0  0  0  0  0  0
  -29.3284  -21.6723   20.1415 C   0  0  0  0  0  0
  -29.9584  -19.3089   19.9630 C   0  0  0  0  0  0
  -32.3370  -19.7381   19.2564 C   0  0  0  0  0  0
  -28.8874  -16.4772   21.6324 C   0  0  0  0  0  0
  -28.5058  -23.0808   20.5219 C   0  0  0  0  0  0
  -29.9755  -17.6425   19.6284 C   0  0  0  0  0  0
  -28.5165  -24.6181   19.7378 C   0  0  0  0  0  0
  -30.9899  -20.1628   19.6816 N   0  0  0  0  0  0
  -28.9588  -20.2620   20.2377 N   0  3  0  0  0  0
  -29.8361  -16.3127   20.5243 N   0  0  0  0  0  0
  -31.4907  -12.8222   19.2237 H   0  0  0  0  0  0
  -30.4906  -11.7274   20.1198 H   0  0  0  0  0  0
  -29.9155  -11.6741   17.6810 H   0  0  0  0  0  0
  -29.6360  -13.4049   17.6793 H   0  0  0  0  0  0
  -28.0433  -11.2416   19.0841 H   0  0  0  0  0  0
  -27.4359  -12.2949   17.8394 H   0  0  0  0  0  0
  -27.5798  -14.2199   19.3503 H   0  0  0  0  0  0
  -28.7809  -12.3448   21.4536 H   0  0  0  0  0  0
  -28.3205  -13.9649   21.7639 H   0  0  0  0  0  0
  -25.2793   -9.5627   22.4710 H   0  0  0  0  0  0
  -24.0009   -7.4617   22.7451 H   0  0  0  0  0  0
  -21.0853   -8.8756   19.8938 H   0  0  0  0  0  0
  -22.3723  -10.9653   19.6147 H   0  0  0  0  0  0
  -21.1998   -7.6175   23.9739 H   0  0  0  0  0  0
  -21.1497   -6.0526   25.9075 H   0  0  0  0  0  0
  -22.0586   -2.7649   23.2778 H   0  0  0  0  0  0
  -22.4187  -11.9989   22.4889 H   0  0  0  0  0  0
  -21.1113  -13.1260   22.2440 H   0  0  0  0  0  0
  -24.6617  -15.8379   20.5078 H   0  0  0  0  0  0
  -26.2662  -15.6120   20.0326 H   0  0  0  0  0  0
  -26.7250  -32.5184   23.0924 H   0  0  0  0  0  0
  -25.0123  -33.9601   25.0285 H   0  0  0  0  0  0
  -22.7681  -31.2689   21.3591 H   0  0  0  0  0  0
  -23.3782  -35.9511   23.3280 H   0  0  0  0  0  0
  -24.3587  -36.8915   22.2096 H   0  0  0  0  0  0
  -23.7209  -37.6388   23.6721 H   0  0  0  0  0  0
  -26.2005  -31.4257   20.6251 H   0  0  0  0  0  0
  -26.8757  -30.7151   22.0571 H   0  0  0  0  0  0
  -28.1279  -28.7354   21.2842 H   0  0  0  0  0  0
  -25.9770  -25.7764   19.0149 H   0  0  0  0  0  0
  -24.0203  -27.2398   18.9806 H   0  0  0  0  0  0
  -23.8198  -30.5244   19.3853 H   0  0  0  0  0  0
  -22.8057  -29.1892   19.8418 H   0  0  0  0  0  0
  -25.1315  -36.1817   25.0795 H   0  0  0  0  0  0
  -20.9969  -28.3268   24.1337 H   0  0  0  0  0  0
  -20.5616  -26.2315   23.3643 H   0  0  0  0  0  0
  -21.6617  -26.7349   22.1247 H   0  0  0  0  0  0
  -19.6912  -25.6239   21.1274 H   0  0  0  0  0  0
  -19.6716  -27.3100   20.6699 H   0  0  0  0  0  0
  -17.4210  -26.6638   21.3989 H   0  0  0  0  0  0
  -18.0298  -26.0065   22.9014 H   0  0  0  0  0  0
  -19.7955  -30.7268   24.2168 H   0  0  0  0  0  0
  -17.5034  -31.6262   24.5105 H   0  0  0  0  0  0
  -15.5356  -30.2917   23.7761 H   0  0  0  0  0  0
  -15.8667  -28.0779   22.7120 H   0  0  0  0  0  0
  -24.5768  -30.7248   25.7709 H   0  0  0  0  0  0
  -24.8975  -32.2988   26.4894 H   0  0  0  0  0  0
  -25.7915  -30.8886   27.0180 H   0  0  0  0  0  0
  -26.3106  -29.6659   24.1424 H   0  0  0  0  0  0
  -27.3960  -29.7322   25.5094 H   0  0  0  0  0  0
  -27.9010  -30.4221   23.9834 H   0  0  0  0  0  0
  -27.2528  -33.3704   26.1978 H   0  0  0  0  0  0
  -28.3762  -32.7029   25.0295 H   0  0  0  0  0  0
  -28.0684  -31.8663   26.5474 H   0  0  0  0  0  0
  -28.2563  -38.0115   24.7538 H   0  0  0  0  0  0
  -28.1100  -36.2644   24.6205 H   0  0  0  0  0  0
  -27.2306  -37.1267   25.8880 H   0  0  0  0  0  0
  -20.9480  -29.8758   21.6771 H   0  0  0  0  0  0
  -26.0142  -38.2778   24.1447 H   0  0  0  0  0  0
  -31.3890  -22.2880   19.6085 H   0  0  0  0  0  0
  -32.9021  -19.3777   20.1138 H   0  0  0  0  0  0
  -32.8628  -20.5950   18.8257 H   0  0  0  0  0  0
  -32.2861  -18.9761   18.4832 H   0  0  0  0  0  0
  -29.3038  -16.0723   22.5585 H   0  0  0  0  0  0
  -28.6418  -17.5256   21.8050 H   0  0  0  0  0  0
  -27.9418  -15.9675   21.4420 H   0  0  0  0  0  0
  -28.8105  -23.2917   21.5472 H   0  0  0  0  0  0
  -27.4590  -22.8013   20.6204 H   0  0  0  0  0  0
  -30.8695  -17.4703   19.0315 H   0  0  0  0  0  0
  -29.1748  -17.5526   18.8914 H   0  0  0  0  0  0
  -29.5448  -24.6641   19.3709 H   0  0  0  0  0  0
  -27.9301  -24.5246   18.8260 H   0  0  0  0  0  0
  -28.0144  -19.9720   20.4586 H   0  0  0  0  0  0
  1 25  1  0  0  0
  1 30  2  0  0  0
  1 81  1  0  0  0
  2  3  1  0  0  0
  2 25  1  0  0  0
  2 82  1  0  0  0
  2 83  1  0  0  0
  3  4  1  0  0  0
  3 84  1  0  0  0
  3 85  1  0  0  0
  4  5  1  0  0  0
  4 86  1  0  0  0
  4 87  1  0  0  0
  5  6  1  0  0  0
  5 26  1  0  0  0
  5 88  1  0  0  0
  6 25  1  0  0  0
  6 89  1  0  0  0
  6 90  1  0  0  0
  7  8  2  0  0  0
  7 26  1  0  0  0
  7 29  1  0  0  0
  8  9  1  0  0  0
  8 22  1  0  0  0
  9 10  1  0  0  0
  9 27  2  0  0  0
 10 11  2  0  0  0
 10 15  1  0  0  0
 11 12  1  0  0  0
 11 91  1  0  0  0
 12 13  2  0  0  0
 12 92  1  0  0  0
 13 14  1  0  0  0
 13 31  1  0  0  0
 14 15  2  0  0  0
 14 93  1  0  0  0
 15 94  1  0  0  0
 16 17  2  0  0  0
 16 21  1  0  0  0
 16 31  1  0  0  0
 17 18  1  0  0  0
 17 95  1  0  0  0
 18 19  2  0  0  0
 18 96  1  0  0  0
 19 20  1  0  0  0
 19 24  1  0  0  0
 20 21  2  0  0  0
 20 97  1  0  0  0
 21 23  1  0  0  0
 22 28  1  0  0  0
 22 32  2  0  0  0
 26 27  1  0  0  0
 28 98  1  0  0  0
 28 99  1  0  0  0
 29100  1  0  0  0
 29101  1  0  0  0
 33 34  1  0  0  0
 33 66  1  0  0  0
 33 70  2  0  0  0
 34 36  1  0  0  0
 34 59  1  0  0  0
 34102  1  0  0  0
 35 44  2  0  0  0
 35 45  1  0  0  0
 35 68  1  0  0  0
 36 56  1  0  0  0
 36103  1  0  0  0
 37 39  1  0  0  0
 37 47  1  0  0  0
 37 66  1  0  0  0
 37104  1  0  0  0
 38 43  2  0  0  0
 38 46  1  0  0  0
 38 47  1  0  0  0
 39 64  1  0  0  0
 39 67  2  0  0  0
 40 52  1  0  0  0
 40 53  2  0  0  0
 40 58  1  0  0  0
 41105  1  0  0  0
 41106  1  0  0  0
 41107  1  0  0  0
 41 48  1  0  0  0
 42 43  1  0  0  0
 42 66  1  0  0  0
 42108  1  0  0  0
 42109  1  0  0  0
 43 44  1  0  0  0
 44110  1  0  0  0
 45 46  2  0  0  0
 45111  1  0  0  0
 46112  1  0  0  0
 47113  1  0  0  0
 47114  1  0  0  0
 48 56  1  0  0  0
 48 65  1  0  0  0
 48115  1  0  0  0
 49 50  1  0  0  0
 49 53  1  0  0  0
 49 64  1  0  0  0
 49116  1  0  0  0
 50 51  1  0  0  0
 50117  1  0  0  0
 50118  1  0  0  0
 51 52  1  0  0  0
 51119  1  0  0  0
 51120  1  0  0  0
 52121  1  0  0  0
 52122  1  0  0  0
 53 54  1  0  0  0
 54 55  2  0  0  0
 54123  1  0  0  0
 55 57  1  0  0  0
 55124  1  0  0  0
 56 69  2  0  0  0
 57 58  2  0  0  0
 57125  1  0  0  0
 58126  1  0  0  0
 59 60  1  0  0  0
 59 61  1  0  0  0
 59 62  1  0  0  0
 60127  1  0  0  0
 60128  1  0  0  0
 60129  1  0  0  0
 61130  1  0  0  0
 61131  1  0  0  0
 61132  1  0  0  0
 62133  1  0  0  0
 62134  1  0  0  0
 62135  1  0  0  0
 63 65  1  0  0  0
 63136  1  0  0  0
 63137  1  0  0  0
 63138  1  0  0  0
 64139  1  0  0  0
 65140  1  0  0  0
 68 78  1  0  0  0
 71 72  2  0  0  0
 71 79  1  0  0  0
 71141  1  0  0  0
 72 76  1  0  0  0
 72 80  1  0  0  0
 73 77  1  0  0  0
 73 79  1  0  0  0
 73 80  2  0  0  0
 74 79  1  0  0  0
 74142  1  0  0  0
 74143  1  0  0  0
 74144  1  0  0  0
 75 81  1  0  0  0
 75145  1  0  0  0
 75146  1  0  0  0
 75147  1  0  0  0
 76 78  1  0  0  0
 76148  1  0  0  0
 76149  1  0  0  0
 77 81  1  0  0  0
 77150  1  0  0  0
 77151  1  0  0  0
 78152  1  0  0  0
 78153  1  0  0  0
 80154  1  0  0  0
M  CHG  1  80   1
M  ISO  4   1 100  68 101  78 101  81 100
M  END
> <chiral flag>
0

> <version>
0

> <s_m_source_file>
/data/baiqing/PycharmProjects/Reinvent-master-3.2/result/LINK_invent/BTK/process_docking_weight1_custom_sum_contain_oxygen_bond_distance_aromatic_linkinvent_7_9_3/rearranged_h_0055.sdf

> <i_m_source_file_index>
94

> <r_mmod_Potential_Energy-OPLS-2005>
799.14697265625

> <r_mmod_Stretch_Energy-OPLS-2005>
360.519165039062

> <r_mmod_Bend_Energy-OPLS-2005>
379.221130371094

> <r_mmod_Torsional_Energy-OPLS-2005>
263.486572265625

> <r_mmod_Improper_Torsional_Energy-OPLS-2005>
9.99170780181885

> <r_mmod_Van_der_Waal_Energy-OPLS-2005>
113.974182128906

> <r_mmod_Electrostatic_Energy-OPLS-2005>
-166.093856811523

> <r_mmod_Solvation_Energy-OPLS-2005>
-417.846496582031

> <b_mmod_Minimization_Converged-OPLS-2005>
0

> <r_mmod_RMS_Derivative-OPLS-2005>
6.44262266159058

$$$$
95
                    3D
 Structure written by MMmdl.
162170  0  0  1  0            999 V2000
  -30.6587  -14.5586   20.5406 C   0  0  0  0  0  0
  -30.4360  -12.3588   19.4247 C   0  0  0  0  0  0
  -29.4990  -12.4933   18.2051 C   0  0  0  0  0  0
  -28.0188  -12.3640   18.6217 C   0  0  0  0  0  0
  -27.6558  -13.2117   19.8683 C   0  0  2  0  0  0
  -28.7017  -13.0237   20.9876 C   0  0  0  0  0  0
  -25.2572  -13.8129   20.5630 C   0  0  0  0  0  0
  -24.1805  -13.0408   20.9143 C   0  0  0  0  0  0
  -24.6354  -11.6900   20.8675 C   0  0  0  0  0  0
  -23.8988  -10.4304   21.0409 C   0  0  0  0  0  0
  -24.3570   -9.4225   21.9178 C   0  0  0  0  0  0
  -23.6270   -8.2243   22.0734 C   0  0  0  0  0  0
  -22.4246   -8.0259   21.3534 C   0  0  0  0  0  0
  -21.9880   -9.0206   20.4624 C   0  0  0  0  0  0
  -22.7169  -10.2114   20.3050 C   0  0  0  0  0  0
  -21.6854   -6.0703   22.5273 C   0  0  0  0  0  0
  -21.4009   -6.5626   23.8190 C   0  0  0  0  0  0
  -21.3654   -5.6794   24.9161 C   0  0  0  0  0  0
  -21.6045   -4.3050   24.7239 C   0  0  0  0  0  0
  -21.8817   -3.8130   23.4368 C   0  0  0  0  0  0
  -21.9193   -4.6931   22.3414 C   0  0  0  0  0  0
  -22.7853  -13.5225   21.1834 C   0  0  0  0  0  0
  -22.1670   -4.2114   21.0990 F   0  0  0  0  0  0
  -21.5645   -3.4538   25.7758 F   0  0  0  0  0  0
  -30.0196  -13.3596   20.4231 N   0  0  0  0  0  0
  -26.2995  -12.9301   20.3316 N   0  0  0  0  0  0
  -25.9290  -11.6474   20.5730 N   0  0  0  0  0  0
  -22.0499  -12.8212   22.0419 N   0  0  0  0  0  0
  -25.4309  -15.1817   20.4015 N   0  0  0  0  0  0
  -31.8145  -14.7274   20.1475 O   0  0  0  0  0  0
  -21.6638   -6.8834   21.4226 O   0  0  0  0  0  0
  -22.3564  -14.5533   20.6707 O   0  0  0  0  0  0
  -24.6226  -31.8649   23.2066 C   0  0  0  0  0  0
  -25.9098  -32.4808   23.8421 C   0  0  1  0  0  0
  -27.2600  -27.4203   20.1127 C   0  0  0  0  0  0
  -25.5981  -33.8598   24.2394 N   0  0  0  0  0  0
  -23.4129  -30.4899   21.5435 C   0  0  2  0  0  0
  -24.8637  -28.9476   20.1135 C   0  0  0  0  0  0
  -22.7472  -29.4692   22.4941 C   0  0  0  0  0  0
  -18.0288  -28.1441   22.8501 C   0  0  0  0  0  0
  -24.1456  -36.7249   23.2605 C   0  0  0  0  0  0
  -25.9360  -30.8439   21.3402 C   0  0  0  0  0  0
  -26.0205  -29.4678   20.7043 C   0  0  0  0  0  0
  -27.2155  -28.7132   20.6954 C   0  0  0  0  0  0
  -26.0808  -26.9119   19.5187 C   0  0  0  0  0  0
  -24.8904  -27.6732   19.5153 C   0  0  0  0  0  0
  -23.6220  -29.8136   20.1605 C   0  0  0  0  0  0
  -25.4073  -36.3073   24.0333 C   0  0  1  0  0  0
  -20.5887  -28.3719   23.1269 C   0  0  2  0  0  0
  -20.6769  -26.9441   22.5382 C   0  0  0  0  0  0
  -19.5730  -26.6418   21.5198 C   0  0  0  0  0  0
  -18.1907  -26.7994   22.1630 C   0  0  0  0  0  0
  -19.1541  -28.8886   23.2910 C   0  0  0  0  0  0
  -18.9471  -30.1482   23.8944 C   0  0  0  0  0  0
  -17.6451  -30.6617   24.0558 C   0  0  0  0  0  0
  -25.9015  -34.9441   23.5140 C   0  0  0  0  0  0
  -16.5351  -29.9135   23.6308 C   0  0  0  0  0  0
  -16.7266  -28.6552   23.0341 C   0  0  0  0  0  0
  -26.4532  -31.6579   25.0726 C   0  0  0  0  0  0
  -25.3749  -31.3676   26.1440 C   0  0  0  0  0  0
  -27.0398  -30.3053   24.6010 C   0  0  0  0  0  0
  -27.6138  -32.4321   25.7467 C   0  0  0  0  0  0
  -27.5561  -37.1751   24.8474 C   0  0  0  0  0  0
  -21.4178  -29.3083   22.3687 N   0  0  0  0  0  0
  -26.4262  -37.3771   23.9443 N   0  0  0  0  0  0
  -24.6790  -31.0779   22.0948 N   0  0  0  0  0  0
  -23.4239  -28.8183   23.2942 O   0  0  0  0  0  0
  -28.4612  -26.7306   20.1636 O   0  0  0  0  0  0
  -26.5485  -34.8875   22.4646 O   0  0  0  0  0  0
  -23.5410  -32.1411   23.7420 O   0  0  0  0  0  0
  -27.1531  -24.6755   21.9013 C   0  0  0  0  0  0
  -28.0831  -24.3772   20.9461 C   0  0  0  0  0  0
  -28.4300  -22.9957   21.2226 C   0  0  0  0  0  0
  -25.9721  -23.3800   23.7212 C   0  0  0  0  0  0
  -27.6806  -20.5224   19.7098 C   0  0  0  0  0  0
  -28.5786  -25.3235   19.8586 C   0  0  0  0  0  0
  -29.4625  -22.0842   20.5312 C   0  0  0  0  0  0
  -29.3921  -18.1169   20.5520 C   0  0  0  0  0  0
  -30.2958  -17.0106   21.2095 C   0  0  0  0  0  0
  -29.5052  -19.5792   21.1460 C   0  0  0  0  0  0
  -27.7257  -22.5235   22.2532 N   0  0  0  0  0  0
  -26.9318  -23.5457   22.6473 N   0  0  0  0  0  0
  -29.8882  -15.6000   20.9507 N   0  0  0  0  0  0
  -29.0740  -20.6671   20.1964 N   0  3  1  0  0  0
  -31.4739  -12.4933   19.1118 H   0  0  0  0  0  0
  -30.3784  -11.3580   19.8580 H   0  0  0  0  0  0
  -29.7464  -11.7326   17.4629 H   0  0  0  0  0  0
  -29.6546  -13.4549   17.7165 H   0  0  0  0  0  0
  -27.8242  -11.3090   18.8205 H   0  0  0  0  0  0
  -27.3711  -12.6304   17.7849 H   0  0  0  0  0  0
  -27.6876  -14.2555   19.5589 H   0  0  0  0  0  0
  -28.7048  -11.9896   21.3339 H   0  0  0  0  0  0
  -28.4563  -13.6243   21.8648 H   0  0  0  0  0  0
  -25.2716   -9.5720   22.4730 H   0  0  0  0  0  0
  -23.9981   -7.4646   22.7452 H   0  0  0  0  0  0
  -21.0806   -8.8700   19.8955 H   0  0  0  0  0  0
  -22.3580  -10.9629   19.6167 H   0  0  0  0  0  0
  -21.1999   -7.6127   23.9679 H   0  0  0  0  0  0
  -21.1479   -6.0534   25.9053 H   0  0  0  0  0  0
  -22.0602   -2.7586   23.2886 H   0  0  0  0  0  0
  -22.4158  -11.9899   22.4820 H   0  0  0  0  0  0
  -21.1111  -13.1243   22.2553 H   0  0  0  0  0  0
  -24.6763  -15.8488   20.5226 H   0  0  0  0  0  0
  -26.2814  -15.6077   20.0560 H   0  0  0  0  0  0
  -26.7187  -32.5503   23.1231 H   0  0  0  0  0  0
  -25.0414  -33.9798   25.0725 H   0  0  0  0  0  0
  -22.7089  -31.3106   21.3960 H   0  0  0  0  0  0
  -23.3744  -35.9555   23.3232 H   0  0  0  0  0  0
  -24.3585  -36.8879   22.2031 H   0  0  0  0  0  0
  -23.7162  -37.6432   23.6621 H   0  0  0  0  0  0
  -26.0008  -31.5991   20.5563 H   0  0  0  0  0  0
  -26.8430  -30.9356   21.9249 H   0  0  0  0  0  0
  -28.1149  -29.1167   21.1425 H   0  0  0  0  0  0
  -26.0643  -25.9314   19.0669 H   0  0  0  0  0  0
  -23.9963  -27.2709   19.0598 H   0  0  0  0  0  0
  -23.7201  -30.5858   19.3937 H   0  0  0  0  0  0
  -22.7487  -29.2271   19.8734 H   0  0  0  0  0  0
  -25.1221  -36.1935   25.0824 H   0  0  0  0  0  0
  -21.0018  -28.3256   24.1364 H   0  0  0  0  0  0
  -20.5627  -26.2347   23.3576 H   0  0  0  0  0  0
  -21.6637  -26.7450   22.1186 H   0  0  0  0  0  0
  -19.6876  -25.6320   21.1266 H   0  0  0  0  0  0
  -19.6661  -27.3187   20.6676 H   0  0  0  0  0  0
  -17.4181  -26.6747   21.4010 H   0  0  0  0  0  0
  -18.0301  -26.0156   22.9038 H   0  0  0  0  0  0
  -19.7925  -30.7290   24.2389 H   0  0  0  0  0  0
  -17.4993  -31.6291   24.5163 H   0  0  0  0  0  0
  -15.5361  -30.3031   23.7597 H   0  0  0  0  0  0
  -15.8683  -28.0851   22.7063 H   0  0  0  0  0  0
  -24.5936  -30.7038   25.7720 H   0  0  0  0  0  0
  -24.8900  -32.2825   26.4853 H   0  0  0  0  0  0
  -25.7989  -30.8847   27.0245 H   0  0  0  0  0  0
  -26.2928  -29.6772   24.1148 H   0  0  0  0  0  0
  -27.4383  -29.7311   25.4387 H   0  0  0  0  0  0
  -27.8627  -30.4469   23.8996 H   0  0  0  0  0  0
  -27.2829  -33.3662   26.2022 H   0  0  0  0  0  0
  -28.3931  -32.6857   25.0256 H   0  0  0  0  0  0
  -28.0854  -31.8479   26.5386 H   0  0  0  0  0  0
  -28.2568  -38.0054   24.7586 H   0  0  0  0  0  0
  -28.1057  -36.2607   24.6236 H   0  0  0  0  0  0
  -27.2279  -37.1301   25.8865 H   0  0  0  0  0  0
  -20.9356  -29.8868   21.6925 H   0  0  0  0  0  0
  -26.0131  -38.2825   24.1526 H   0  0  0  0  0  0
  -26.6164  -25.5951   22.0958 H   0  0  0  0  0  0
  -26.4018  -23.7217   24.6649 H   0  0  0  0  0  0
  -25.6858  -22.3331   23.8137 H   0  0  0  0  0  0
  -25.0705  -23.9619   23.5090 H   0  0  0  0  0  0
  -26.9840  -20.4033   20.5374 H   0  0  0  0  0  0
  -27.5904  -19.6447   19.0727 H   0  0  0  0  0  0
  -27.3618  -21.3880   19.1249 H   0  0  0  0  0  0
  -28.1353  -25.1001   18.8882 H   0  0  0  0  0  0
  -29.6452  -25.1505   19.7158 H   0  0  0  0  0  0
  -30.4100  -22.1009   21.0690 H   0  0  0  0  0  0
  -29.7023  -22.5414   19.5716 H   0  0  0  0  0  0
  -28.3442  -17.8134   20.6040 H   0  0  0  0  0  0
  -29.6390  -18.1458   19.4893 H   0  0  0  0  0  0
  -31.3289  -17.1634   20.8950 H   0  0  0  0  0  0
  -30.2952  -17.1470   22.2908 H   0  0  0  0  0  0
  -30.5355  -19.7617   21.4632 H   0  0  0  0  0  0
  -28.9058  -19.6491   22.0542 H   0  0  0  0  0  0
  -28.9261  -15.3724   21.1480 H   0  0  0  0  0  0
  -29.6547  -20.4988   19.3858 H   0  0  0  0  0  0
  1 25  1  0  0  0
  1 30  2  0  0  0
  1 83  1  0  0  0
  2  3  1  0  0  0
  2 25  1  0  0  0
  2 85  1  0  0  0
  2 86  1  0  0  0
  3  4  1  0  0  0
  3 87  1  0  0  0
  3 88  1  0  0  0
  4  5  1  0  0  0
  4 89  1  0  0  0
  4 90  1  0  0  0
  5  6  1  0  0  0
  5 26  1  0  0  0
  5 91  1  0  0  0
  6 25  1  0  0  0
  6 92  1  0  0  0
  6 93  1  0  0  0
  7  8  2  0  0  0
  7 26  1  0  0  0
  7 29  1  0  0  0
  8  9  1  0  0  0
  8 22  1  0  0  0
  9 10  1  0  0  0
  9 27  2  0  0  0
 10 11  2  0  0  0
 10 15  1  0  0  0
 11 12  1  0  0  0
 11 94  1  0  0  0
 12 13  2  0  0  0
 12 95  1  0  0  0
 13 14  1  0  0  0
 13 31  1  0  0  0
 14 15  2  0  0  0
 14 96  1  0  0  0
 15 97  1  0  0  0
 16 17  2  0  0  0
 16 21  1  0  0  0
 16 31  1  0  0  0
 17 18  1  0  0  0
 17 98  1  0  0  0
 18 19  2  0  0  0
 18 99  1  0  0  0
 19 20  1  0  0  0
 19 24  1  0  0  0
 20 21  2  0  0  0
 20100  1  0  0  0
 21 23  1  0  0  0
 22 28  1  0  0  0
 22 32  2  0  0  0
 26 27  1  0  0  0
 28101  1  0  0  0
 28102  1  0  0  0
 29103  1  0  0  0
 29104  1  0  0  0
 33 34  1  0  0  0
 33 66  1  0  0  0
 33 70  2  0  0  0
 34 36  1  0  0  0
 34 59  1  0  0  0
 34105  1  0  0  0
 35 44  2  0  0  0
 35 45  1  0  0  0
 35 68  1  0  0  0
 36 56  1  0  0  0
 36106  1  0  0  0
 37 39  1  0  0  0
 37 47  1  0  0  0
 37 66  1  0  0  0
 37107  1  0  0  0
 38 43  2  0  0  0
 38 46  1  0  0  0
 38 47  1  0  0  0
 39 64  1  0  0  0
 39 67  2  0  0  0
 40 52  1  0  0  0
 40 53  2  0  0  0
 40 58  1  0  0  0
 41108  1  0  0  0
 41109  1  0  0  0
 41110  1  0  0  0
 41 48  1  0  0  0
 42 43  1  0  0  0
 42 66  1  0  0  0
 42111  1  0  0  0
 42112  1  0  0  0
 43 44  1  0  0  0
 44113  1  0  0  0
 45 46  2  0  0  0
 45114  1  0  0  0
 46115  1  0  0  0
 47116  1  0  0  0
 47117  1  0  0  0
 48 56  1  0  0  0
 48 65  1  0  0  0
 48118  1  0  0  0
 49 50  1  0  0  0
 49 53  1  0  0  0
 49 64  1  0  0  0
 49119  1  0  0  0
 50 51  1  0  0  0
 50120  1  0  0  0
 50121  1  0  0  0
 51 52  1  0  0  0
 51122  1  0  0  0
 51123  1  0  0  0
 52124  1  0  0  0
 52125  1  0  0  0
 53 54  1  0  0  0
 54 55  2  0  0  0
 54126  1  0  0  0
 55 57  1  0  0  0
 55127  1  0  0  0
 56 69  2  0  0  0
 57 58  2  0  0  0
 57128  1  0  0  0
 58129  1  0  0  0
 59 60  1  0  0  0
 59 61  1  0  0  0
 59 62  1  0  0  0
 60130  1  0  0  0
 60131  1  0  0  0
 60132  1  0  0  0
 61133  1  0  0  0
 61134  1  0  0  0
 61135  1  0  0  0
 62136  1  0  0  0
 62137  1  0  0  0
 62138  1  0  0  0
 63 65  1  0  0  0
 63139  1  0  0  0
 63140  1  0  0  0
 63141  1  0  0  0
 64142  1  0  0  0
 65143  1  0  0  0
 68 76  1  0  0  0
 71 72  2  0  0  0
 71 82  1  0  0  0
 71144  1  0  0  0
 72 73  1  0  0  0
 72 76  1  0  0  0
 73 77  1  0  0  0
 73 81  2  0  0  0
 74 82  1  0  0  0
 74145  1  0  0  0
 74146  1  0  0  0
 74147  1  0  0  0
 75148  1  0  0  0
 75149  1  0  0  0
 75150  1  0  0  0
 75 84  1  0  0  0
 76151  1  0  0  0
 76152  1  0  0  0
 77 84  1  0  0  0
 77153  1  0  0  0
 77154  1  0  0  0
 78 79  1  0  0  0
 78 80  1  0  0  0
 78155  1  0  0  0
 78156  1  0  0  0
 79 83  1  0  0  0
 79157  1  0  0  0
 79158  1  0  0  0
 80 84  1  0  0  0
 80159  1  0  0  0
 80160  1  0  0  0
 81 82  1  0  0  0
 83161  1  0  0  0
 84162  1  0  0  0
M  CHG  1  84   1
M  ISO  4   1 100  68 101  76 101  83 100
M  END
> <chiral flag>
0

> <version>
0

> <s_m_source_file>
/data/baiqing/PycharmProjects/Reinvent-master-3.2/result/LINK_invent/BTK/process_docking_weight1_custom_sum_contain_oxygen_bond_distance_aromatic_linkinvent_7_9_3/rearranged_h_0055.sdf

> <i_m_source_file_index>
95

> <r_mmod_Potential_Energy-OPLS-2005>
-239.129592895508

> <r_mmod_Stretch_Energy-OPLS-2005>
52.0432815551758

> <r_mmod_Bend_Energy-OPLS-2005>
128.733825683594

> <r_mmod_Torsional_Energy-OPLS-2005>
210.191497802734

> <r_mmod_Improper_Torsional_Energy-OPLS-2005>
3.80498576164246

> <r_mmod_Van_der_Waal_Energy-OPLS-2005>
117.571746826172

> <r_mmod_Electrostatic_Energy-OPLS-2005>
-319.658386230469

> <r_mmod_Solvation_Energy-OPLS-2005>
-454.865356445312

> <b_mmod_Minimization_Converged-OPLS-2005>
0

> <r_mmod_RMS_Derivative-OPLS-2005>
5.6590690612793

$$$$
