0
                    3D
 Structure written by MMmdl.
155164  0  0  1  0            999 V2000
  -30.4903  -15.2365   20.3001 C   0  0  0  0  0  0
  -30.4177  -12.7665   19.4657 C   0  0  0  0  0  0
  -29.4991  -12.5147   18.2482 C   0  0  0  0  0  0
  -28.0536  -12.2556   18.7028 C   0  0  0  0  0  0
  -27.6136  -13.2390   19.8146 C   0  0  2  0  0  0
  -28.6655  -13.4649   20.9212 C   0  0  0  0  0  0
  -25.2493  -13.8089   20.5907 C   0  0  0  0  0  0
  -24.1774  -13.0373   20.9443 C   0  0  0  0  0  0
  -24.6346  -11.6856   20.8927 C   0  0  0  0  0  0
  -23.8993  -10.4258   21.0501 C   0  0  0  0  0  0
  -24.3532   -9.4183   21.9286 C   0  0  0  0  0  0
  -23.6241   -8.2179   22.0787 C   0  0  0  0  0  0
  -22.4241   -8.0242   21.3533 C   0  0  0  0  0  0
  -21.9874   -9.0228   20.4613 C   0  0  0  0  0  0
  -22.7162  -10.2133   20.3101 C   0  0  0  0  0  0
  -21.6851   -6.0731   22.5303 C   0  0  0  0  0  0
  -21.4025   -6.5645   23.8239 C   0  0  0  0  0  0
  -21.3666   -5.6786   24.9190 C   0  0  0  0  0  0
  -21.6050   -4.3042   24.7236 C   0  0  0  0  0  0
  -21.8784   -3.8147   23.4341 C   0  0  0  0  0  0
  -21.9180   -4.6971   22.3407 C   0  0  0  0  0  0
  -22.7769  -13.5185   21.1941 C   0  0  0  0  0  0
  -22.1649   -4.2125   21.0992 F   0  0  0  0  0  0
  -21.5617   -3.4561   25.7755 F   0  0  0  0  0  0
  -29.8854  -13.9449   20.2483 N   0  0  0  0  0  0
  -26.2862  -12.9324   20.3383 N   0  0  0  0  0  0
  -25.9305  -11.6460   20.6015 N   0  0  0  0  0  0
  -22.0341  -12.8250   22.0495 N   0  0  0  0  0  0
  -25.4172  -15.1797   20.4298 N   0  0  0  0  0  0
  -31.7272  -15.1783   20.2775 O   0  0  0  0  0  0
  -21.6597   -6.8843   21.4230 O   0  0  0  0  0  0
  -22.3512  -14.5453   20.6677 O   0  0  0  0  0  0
  -24.6605  -31.8240   23.1685 C   0  0  0  0  0  0
  -25.9292  -32.4601   23.8166 C   0  0  1  0  0  0
  -27.2538  -26.9508   20.1714 C   0  0  0  0  0  0
  -25.5933  -33.8411   24.2071 N   0  0  0  0  0  0
  -23.4734  -30.4371   21.5127 C   0  0  2  0  0  0
  -24.9330  -28.8128   20.1188 C   0  0  0  0  0  0
  -22.7610  -29.4492   22.4742 C   0  0  0  0  0  0
  -18.0346  -28.1318   22.8387 C   0  0  0  0  0  0
  -24.1457  -36.7240   23.2632 C   0  0  0  0  0  0
  -26.0408  -30.6418   21.3907 C   0  0  0  0  0  0
  -26.1172  -29.2281   20.7472 C   0  0  0  0  0  0
  -27.2625  -28.3125   20.7480 C   0  0  0  0  0  0
  -26.0368  -26.6785   19.5006 C   0  0  0  0  0  0
  -24.9165  -27.5594   19.4859 C   0  0  0  0  0  0
  -23.7146  -29.7338   20.1455 C   0  0  0  0  0  0
  -25.4121  -36.2981   24.0288 C   0  0  1  0  0  0
  -20.5988  -28.3658   23.1134 C   0  0  2  0  0  0
  -20.6797  -26.9383   22.5367 C   0  0  0  0  0  0
  -19.5800  -26.6305   21.5167 C   0  0  0  0  0  0
  -18.1923  -26.7855   22.1519 C   0  0  0  0  0  0
  -19.1636  -28.8792   23.2791 C   0  0  0  0  0  0
  -18.9627  -30.1380   23.8775 C   0  0  0  0  0  0
  -17.6594  -30.6499   24.0509 C   0  0  0  0  0  0
  -25.9121  -34.9374   23.5018 C   0  0  0  0  0  0
  -16.5512  -29.9027   23.6310 C   0  0  0  0  0  0
  -16.7363  -28.6431   23.0296 C   0  0  0  0  0  0
  -26.4534  -31.6574   25.0732 C   0  0  0  0  0  0
  -25.3640  -31.3874   26.1374 C   0  0  0  0  0  0
  -27.0424  -30.2951   24.6447 C   0  0  0  0  0  0
  -27.5994  -32.4406   25.7552 C   0  0  0  0  0  0
  -27.5564  -37.1741   24.8442 C   0  0  0  0  0  0
  -21.4300  -29.2928   22.3378 N   0  0  0  0  0  0
  -26.4239  -37.3754   23.9423 N   0  0  0  0  0  0
  -24.7457  -30.9913   22.0817 N   0  0  0  0  0  0
  -23.4119  -28.8144   23.3073 O   0  0  0  0  0  0
  -28.3432  -25.9250   20.1829 O   0  0  0  0  0  0
  -26.5692  -34.8882   22.4600 O   0  0  0  0  0  0
  -23.5682  -32.1170   23.6791 O   0  0  0  0  0  0
  -27.6220  -23.2920   19.6930 C   0  0  0  0  0  0
  -29.8891  -22.3936   20.7785 C   0  0  0  0  0  0
  -29.0510  -21.3005   20.2993 C   0  0  0  0  0  0
  -28.4550  -24.3900   20.2004 C   0  0  0  0  0  0
  -29.2484  -17.8958   18.0669 C   0  0  0  0  0  0
  -30.5079  -18.4637   18.7164 C   0  0  0  0  0  0
  -29.0405  -16.5465   18.8031 C   0  0  0  0  0  0
  -30.1560  -18.1816   20.1711 C   0  0  1  0  0  0
  -31.1306  -22.0235   21.5674 C   0  0  0  0  0  0
  -29.1134  -19.5796   20.6157 C   0  0  0  0  0  0
  -27.9051  -21.8917   19.7394 N   0  0  0  0  0  0
  -29.6306  -23.7983   20.7010 N   0  0  0  0  0  0
  -29.7846  -16.5486   20.0980 N   0  0  0  0  0  0
  -31.4345  -12.9456   19.1175 H   0  0  0  0  0  0
  -30.4756  -11.8651   20.0782 H   0  0  0  0  0  0
  -29.8447  -11.6571   17.6641 H   0  0  0  0  0  0
  -29.5353  -13.3765   17.5815 H   0  0  0  0  0  0
  -27.9893  -11.2279   19.0601 H   0  0  0  0  0  0
  -27.3662  -12.3224   17.8557 H   0  0  0  0  0  0
  -27.5315  -14.1862   19.2860 H   0  0  0  0  0  0
  -28.8510  -12.5785   21.5321 H   0  0  0  0  0  0
  -28.3176  -14.2382   21.6093 H   0  0  0  0  0  0
  -25.2662   -9.5669   22.4896 H   0  0  0  0  0  0
  -23.9952   -7.4553   22.7501 H   0  0  0  0  0  0
  -21.0847   -8.8746   19.8872 H   0  0  0  0  0  0
  -22.3668  -10.9700   19.6221 H   0  0  0  0  0  0
  -21.2031   -7.6165   23.9750 H   0  0  0  0  0  0
  -21.1545   -6.0531   25.9098 H   0  0  0  0  0  0
  -22.0549   -2.7613   23.2875 H   0  0  0  0  0  0
  -22.3915  -11.9948   22.4971 H   0  0  0  0  0  0
  -21.0943  -13.1311   22.2582 H   0  0  0  0  0  0
  -24.6529  -15.8313   20.5605 H   0  0  0  0  0  0
  -26.2616  -15.6281   20.1044 H   0  0  0  0  0  0
  -26.7392  -32.5149   23.0895 H   0  0  0  0  0  0
  -25.0029  -33.9508   25.0171 H   0  0  0  0  0  0
  -22.7875  -31.2700   21.3252 H   0  0  0  0  0  0
  -23.3749  -35.9531   23.3228 H   0  0  0  0  0  0
  -24.3531  -36.8967   22.2056 H   0  0  0  0  0  0
  -23.7165  -37.6387   23.6764 H   0  0  0  0  0  0
  -26.2017  -31.3749   20.5981 H   0  0  0  0  0  0
  -26.9098  -30.7187   22.0369 H   0  0  0  0  0  0
  -28.1738  -28.6390   21.2356 H   0  0  0  0  0  0
  -25.9278  -25.7327   18.9908 H   0  0  0  0  0  0
  -24.0129  -27.2446   18.9820 H   0  0  0  0  0  0
  -23.8433  -30.4889   19.3707 H   0  0  0  0  0  0
  -22.8346  -29.1609   19.8467 H   0  0  0  0  0  0
  -25.1293  -36.1776   25.0776 H   0  0  0  0  0  0
  -21.0168  -28.3263   24.1212 H   0  0  0  0  0  0
  -20.5604  -26.2260   23.3496 H   0  0  0  0  0  0
  -21.6653  -26.7439   22.1126 H   0  0  0  0  0  0
  -19.7063  -25.6241   21.1160 H   0  0  0  0  0  0
  -19.6733  -27.3102   20.6717 H   0  0  0  0  0  0
  -17.4243  -26.6560   21.3903 H   0  0  0  0  0  0
  -18.0271  -26.0051   22.8950 H   0  0  0  0  0  0
  -19.8153  -30.7147   24.2036 H   0  0  0  0  0  0
  -17.5342  -31.6145   24.5186 H   0  0  0  0  0  0
  -15.5532  -30.2970   23.7621 H   0  0  0  0  0  0
  -15.8735  -28.0731   22.7102 H   0  0  0  0  0  0
  -24.5799  -30.7254   25.7683 H   0  0  0  0  0  0
  -24.8864  -32.3125   26.4638 H   0  0  0  0  0  0
  -25.7845  -30.9133   27.0260 H   0  0  0  0  0  0
  -26.3115  -29.6647   24.1407 H   0  0  0  0  0  0
  -27.3907  -29.7299   25.5099 H   0  0  0  0  0  0
  -27.9061  -30.4128   23.9913 H   0  0  0  0  0  0
  -27.2523  -33.3726   26.2018 H   0  0  0  0  0  0
  -28.3891  -32.6943   25.0477 H   0  0  0  0  0  0
  -28.0585  -31.8632   26.5557 H   0  0  0  0  0  0
  -28.2512  -38.0103   24.7602 H   0  0  0  0  0  0
  -28.1114  -36.2643   24.6135 H   0  0  0  0  0  0
  -27.2297  -37.1249   25.8837 H   0  0  0  0  0  0
  -20.9554  -29.8270   21.6233 H   0  0  0  0  0  0
  -26.0086  -38.2787   24.1523 H   0  0  0  0  0  0
  -26.6855  -23.5251   19.2180 H   0  0  0  0  0  0
  -28.3641  -18.4987   18.2880 H   0  0  0  0  0  0
  -29.2612  -17.8867   16.9669 H   0  0  0  0  0  0
  -31.4079  -17.9359   18.3767 H   0  0  0  0  0  0
  -30.6717  -19.5238   18.5275 H   0  0  0  0  0  0
  -29.4289  -15.7583   18.1314 H   0  0  0  0  0  0
  -27.9652  -16.4293   18.9956 H   0  0  0  0  0  0
  -31.0601  -18.2568   20.7886 H   0  0  0  0  0  0
  -30.8091  -21.4009   22.4037 H   0  0  0  0  0  0
  -31.6501  -22.8924   21.9638 H   0  0  0  0  0  0
  -31.8271  -21.4389   20.9639 H   0  0  0  0  0  0
  -28.9109  -19.4544   21.6787 H   0  0  0  0  0  0
  -28.1323  -19.3287   20.2281 H   0  0  0  0  0  0
  1 25  1  0  0  0
  1 30  2  0  0  0
  1 83  1  0  0  0
  2  3  1  0  0  0
  2 25  1  0  0  0
  2 84  1  0  0  0
  2 85  1  0  0  0
  3  4  1  0  0  0
  3 86  1  0  0  0
  3 87  1  0  0  0
  4  5  1  0  0  0
  4 88  1  0  0  0
  4 89  1  0  0  0
  5  6  1  0  0  0
  5 26  1  0  0  0
  5 90  1  0  0  0
  6 25  1  0  0  0
  6 91  1  0  0  0
  6 92  1  0  0  0
  7  8  2  0  0  0
  7 26  1  0  0  0
  7 29  1  0  0  0
  8  9  1  0  0  0
  8 22  1  0  0  0
  9 10  1  0  0  0
  9 27  2  0  0  0
 10 11  2  0  0  0
 10 15  1  0  0  0
 11 12  1  0  0  0
 11 93  1  0  0  0
 12 13  2  0  0  0
 12 94  1  0  0  0
 13 14  1  0  0  0
 13 31  1  0  0  0
 14 15  2  0  0  0
 14 95  1  0  0  0
 15 96  1  0  0  0
 16 17  2  0  0  0
 16 21  1  0  0  0
 16 31  1  0  0  0
 17 18  1  0  0  0
 17 97  1  0  0  0
 18 19  2  0  0  0
 18 98  1  0  0  0
 19 20  1  0  0  0
 19 24  1  0  0  0
 20 21  2  0  0  0
 20 99  1  0  0  0
 21 23  1  0  0  0
 22 28  1  0  0  0
 22 32  2  0  0  0
 26 27  1  0  0  0
 28100  1  0  0  0
 28101  1  0  0  0
 29102  1  0  0  0
 29103  1  0  0  0
 33 34  1  0  0  0
 33 66  1  0  0  0
 33 70  2  0  0  0
 34 36  1  0  0  0
 34 59  1  0  0  0
 34104  1  0  0  0
 35 44  2  0  0  0
 35 45  1  0  0  0
 35 68  1  0  0  0
 36 56  1  0  0  0
 36105  1  0  0  0
 37 39  1  0  0  0
 37 47  1  0  0  0
 37 66  1  0  0  0
 37106  1  0  0  0
 38 43  2  0  0  0
 38 46  1  0  0  0
 38 47  1  0  0  0
 39 64  1  0  0  0
 39 67  2  0  0  0
 40 52  1  0  0  0
 40 53  2  0  0  0
 40 58  1  0  0  0
 41107  1  0  0  0
 41108  1  0  0  0
 41109  1  0  0  0
 41 48  1  0  0  0
 42 43  1  0  0  0
 42 66  1  0  0  0
 42110  1  0  0  0
 42111  1  0  0  0
 43 44  1  0  0  0
 44112  1  0  0  0
 45 46  2  0  0  0
 45113  1  0  0  0
 46114  1  0  0  0
 47115  1  0  0  0
 47116  1  0  0  0
 48 56  1  0  0  0
 48 65  1  0  0  0
 48117  1  0  0  0
 49 50  1  0  0  0
 49 53  1  0  0  0
 49 64  1  0  0  0
 49118  1  0  0  0
 50 51  1  0  0  0
 50119  1  0  0  0
 50120  1  0  0  0
 51 52  1  0  0  0
 51121  1  0  0  0
 51122  1  0  0  0
 52123  1  0  0  0
 52124  1  0  0  0
 53 54  1  0  0  0
 54 55  2  0  0  0
 54125  1  0  0  0
 55 57  1  0  0  0
 55126  1  0  0  0
 56 69  2  0  0  0
 57 58  2  0  0  0
 57127  1  0  0  0
 58128  1  0  0  0
 59 60  1  0  0  0
 59 61  1  0  0  0
 59 62  1  0  0  0
 60129  1  0  0  0
 60130  1  0  0  0
 60131  1  0  0  0
 61132  1  0  0  0
 61133  1  0  0  0
 61134  1  0  0  0
 62135  1  0  0  0
 62136  1  0  0  0
 62137  1  0  0  0
 63 65  1  0  0  0
 63138  1  0  0  0
 63139  1  0  0  0
 63140  1  0  0  0
 64141  1  0  0  0
 65142  1  0  0  0
 68 74  1  0  0  0
 71 74  2  0  0  0
 71 81  1  0  0  0
 71143  1  0  0  0
 72 73  1  0  0  0
 72 79  1  0  0  0
 72 82  2  0  0  0
 73 80  1  0  0  0
 73 81  2  0  0  0
 74 82  1  0  0  0
 75 76  1  0  0  0
 75 77  1  0  0  0
 75144  1  0  0  0
 75145  1  0  0  0
 76 78  1  0  0  0
 76146  1  0  0  0
 76147  1  0  0  0
 77 83  1  0  0  0
 77148  1  0  0  0
 77149  1  0  0  0
 78 80  1  0  0  0
 78 83  1  0  0  0
 78150  1  0  0  0
 79151  1  0  0  0
 79152  1  0  0  0
 79153  1  0  0  0
 80154  1  0  0  0
 80155  1  0  0  0
M  ISO  4   1 100  68 101  74 101  83 100
M  END
> <chiral flag>
0

> <version>
0

> <s_m_source_file>
/data/baiqing/PycharmProjects/Reinvent-master-3.2/result/LINK_invent/BTK/process_docking_weight1_custom_sum_contain_oxygen_bond_distance_aromatic_linkinvent_7_9_3/rearranged_h_0178.sdf

> <i_m_source_file_index>
1

> <r_mmod_Potential_Energy-OPLS-2005>
1532.34643554688

> <r_mmod_Stretch_Energy-OPLS-2005>
534.484924316406

> <r_mmod_Bend_Energy-OPLS-2005>
507.515167236328

> <r_mmod_Torsional_Energy-OPLS-2005>
343.754760742188

> <r_mmod_Improper_Torsional_Energy-OPLS-2005>
13.6141767501831

> <r_mmod_Van_der_Waal_Energy-OPLS-2005>
124.611000061035

> <r_mmod_Electrostatic_Energy-OPLS-2005>
-191.53547668457

> <r_mmod_Solvation_Energy-OPLS-2005>
-215.029006958008

> <b_mmod_Minimization_Converged-OPLS-2005>
0

> <r_mmod_RMS_Derivative-OPLS-2005>
14.5102043151855

$$$$
1
                    3D
 Structure written by MMmdl.
151160  0  0  1  0            999 V2000
  -30.4151  -15.4139   20.3469 C   0  0  0  0  0  0
  -30.4171  -12.9189   19.5338 C   0  0  0  0  0  0
  -29.5304  -12.6056   18.3011 C   0  0  0  0  0  0
  -28.0908  -12.2990   18.7383 C   0  0  0  0  0  0
  -27.5977  -13.2940   19.8159 C   0  0  2  0  0  0
  -28.6227  -13.5546   20.9423 C   0  0  0  0  0  0
  -25.2333  -13.8284   20.5797 C   0  0  0  0  0  0
  -24.1704  -13.0445   20.9277 C   0  0  0  0  0  0
  -24.6384  -11.6950   20.8770 C   0  0  0  0  0  0
  -23.9091  -10.4295   21.0401 C   0  0  0  0  0  0
  -24.3639   -9.4209   21.9173 C   0  0  0  0  0  0
  -23.6308   -8.2241   22.0743 C   0  0  0  0  0  0
  -22.4288   -8.0281   21.3538 C   0  0  0  0  0  0
  -21.9930   -9.0252   20.4631 C   0  0  0  0  0  0
  -22.7264  -10.2128   20.3042 C   0  0  0  0  0  0
  -21.6859   -6.0736   22.5270 C   0  0  0  0  0  0
  -21.4017   -6.5642   23.8206 C   0  0  0  0  0  0
  -21.3662   -5.6801   24.9167 C   0  0  0  0  0  0
  -21.6045   -4.3058   24.7224 C   0  0  0  0  0  0
  -21.8820   -3.8151   23.4347 C   0  0  0  0  0  0
  -21.9195   -4.6965   22.3401 C   0  0  0  0  0  0
  -22.7719  -13.5170   21.1926 C   0  0  0  0  0  0
  -22.1663   -4.2147   21.0979 F   0  0  0  0  0  0
  -21.5629   -3.4545   25.7738 F   0  0  0  0  0  0
  -29.8309  -14.0984   20.2955 N   0  0  0  0  0  0
  -26.2756  -12.9583   20.3236 N   0  0  0  0  0  0
  -25.9323  -11.6670   20.5726 N   0  0  0  0  0  0
  -22.0401  -12.8124   22.0478 N   0  0  0  0  0  0
  -25.4000  -15.2018   20.4282 N   0  0  0  0  0  0
  -31.6429  -15.3320   20.1760 O   0  0  0  0  0  0
  -21.6649   -6.8878   21.4233 O   0  0  0  0  0  0
  -22.3379  -14.5472   20.6779 O   0  0  0  0  0  0
  -24.6708  -31.8163   23.1617 C   0  0  0  0  0  0
  -25.9364  -32.4557   23.8112 C   0  0  1  0  0  0
  -27.2225  -26.8340   20.2063 C   0  0  0  0  0  0
  -25.6002  -33.8369   24.2037 N   0  0  0  0  0  0
  -23.4888  -30.4221   21.5123 C   0  0  2  0  0  0
  -24.9437  -28.7825   20.1192 C   0  0  0  0  0  0
  -22.7689  -29.4411   22.4747 C   0  0  0  0  0  0
  -18.0324  -28.1436   22.8472 C   0  0  0  0  0  0
  -24.1482  -36.7175   23.2644 C   0  0  0  0  0  0
  -26.0602  -30.5904   21.4058 C   0  0  0  0  0  0
  -26.1260  -29.1657   20.7625 C   0  0  0  0  0  0
  -27.2539  -28.2138   20.7798 C   0  0  0  0  0  0
  -26.0134  -26.6267   19.5039 C   0  0  0  0  0  0
  -24.9166  -27.5355   19.4694 C   0  0  0  0  0  0
  -23.7355  -29.7244   20.1447 C   0  0  0  0  0  0
  -25.4127  -36.2940   24.0293 C   0  0  1  0  0  0
  -20.5955  -28.3792   23.1166 C   0  0  2  0  0  0
  -20.6794  -26.9463   22.5404 C   0  0  0  0  0  0
  -19.5764  -26.6401   21.5215 C   0  0  0  0  0  0
  -18.1951  -26.7970   22.1629 C   0  0  0  0  0  0
  -19.1593  -28.8934   23.2806 C   0  0  0  0  0  0
  -18.9501  -30.1514   23.8856 C   0  0  0  0  0  0
  -17.6494  -30.6620   24.0566 C   0  0  0  0  0  0
  -25.9105  -34.9331   23.4986 C   0  0  0  0  0  0
  -16.5384  -29.9116   23.6351 C   0  0  0  0  0  0
  -16.7304  -28.6534   23.0369 C   0  0  0  0  0  0
  -26.4579  -31.6527   25.0675 C   0  0  0  0  0  0
  -25.3681  -31.3817   26.1322 C   0  0  0  0  0  0
  -27.0493  -30.2889   24.6454 C   0  0  0  0  0  0
  -27.6068  -32.4335   25.7492 C   0  0  0  0  0  0
  -27.5561  -37.1737   24.8458 C   0  0  0  0  0  0
  -21.4355  -29.3058   22.3488 N   0  0  0  0  0  0
  -26.4252  -37.3701   23.9425 N   0  0  0  0  0  0
  -24.7618  -30.9726   22.0809 N   0  0  0  0  0  0
  -23.4189  -28.7994   23.3033 O   0  0  0  0  0  0
  -28.2632  -25.7327   20.2236 O   0  0  0  0  0  0
  -26.5715  -34.8879   22.4580 O   0  0  0  0  0  0
  -23.5761  -32.1183   23.6655 O   0  0  0  0  0  0
  -28.8838  -20.9671   20.3405 C   0  0  0  0  0  0
  -27.4306  -23.0697   20.6766 C   0  0  0  0  0  0
  -29.7670  -22.0601   19.8909 C   0  0  0  0  0  0
  -28.3238  -24.1567   20.2291 C   0  0  0  0  0  0
  -28.8504  -17.7657   19.7071 C   0  0  0  0  0  0
  -30.4420  -18.1773   20.8414 C   0  0  0  0  0  0
  -29.1695  -19.1814   20.5234 C   0  0  0  0  0  0
  -26.0551  -23.4552   21.1785 C   0  0  0  0  0  0
  -27.6931  -21.6398   20.7178 N   0  0  0  0  0  0
  -29.5101  -23.4804   19.8544 N   0  0  0  0  0  0
  -29.7746  -16.7880   20.5232 N   0  0  0  0  0  0
  -31.0348  -21.7283   19.4343 N   0  0  0  0  0  0
  -31.4312  -13.1262   19.1909 H   0  0  0  0  0  0
  -30.5059  -12.0428   20.1786 H   0  0  0  0  0  0
  -29.9389  -11.7663   17.7365 H   0  0  0  0  0  0
  -29.5306  -13.4626   17.6258 H   0  0  0  0  0  0
  -28.0777  -11.2870   19.1447 H   0  0  0  0  0  0
  -27.4181  -12.2959   17.8790 H   0  0  0  0  0  0
  -27.4841  -14.2377   19.2801 H   0  0  0  0  0  0
  -28.8278  -12.6528   21.5213 H   0  0  0  0  0  0
  -28.2314  -14.2941   21.6430 H   0  0  0  0  0  0
  -25.2774   -9.5688   22.4763 H   0  0  0  0  0  0
  -24.0018   -7.4630   22.7464 H   0  0  0  0  0  0
  -21.0864   -8.8774   19.8930 H   0  0  0  0  0  0
  -22.3720  -10.9673   19.6159 H   0  0  0  0  0  0
  -21.2012   -7.6151   23.9702 H   0  0  0  0  0  0
  -21.1484   -6.0532   25.9069 H   0  0  0  0  0  0
  -22.0599   -2.7611   23.2848 H   0  0  0  0  0  0
  -22.4062  -11.9799   22.4856 H   0  0  0  0  0  0
  -21.0999  -13.1088   22.2691 H   0  0  0  0  0  0
  -24.6424  -15.8635   20.5567 H   0  0  0  0  0  0
  -26.2649  -15.6401   20.1409 H   0  0  0  0  0  0
  -26.7441  -32.5092   23.0827 H   0  0  0  0  0  0
  -25.0104  -33.9426   25.0156 H   0  0  0  0  0  0
  -22.8062  -31.2557   21.3308 H   0  0  0  0  0  0
  -23.3759  -35.9488   23.3276 H   0  0  0  0  0  0
  -24.3546  -36.8855   22.2061 H   0  0  0  0  0  0
  -23.7211  -37.6343   23.6721 H   0  0  0  0  0  0
  -26.2408  -31.3186   20.6139 H   0  0  0  0  0  0
  -26.9188  -30.6642   22.0611 H   0  0  0  0  0  0
  -28.1532  -28.5118   21.2992 H   0  0  0  0  0  0
  -25.8889  -25.6838   18.9921 H   0  0  0  0  0  0
  -24.0233  -27.2380   18.9368 H   0  0  0  0  0  0
  -23.9004  -30.4852   19.3805 H   0  0  0  0  0  0
  -22.8434  -29.1825   19.8268 H   0  0  0  0  0  0
  -25.1317  -36.1716   25.0779 H   0  0  0  0  0  0
  -21.0050  -28.3424   24.1290 H   0  0  0  0  0  0
  -20.5655  -26.2421   23.3657 H   0  0  0  0  0  0
  -21.6655  -26.7418   22.1223 H   0  0  0  0  0  0
  -19.6913  -25.6296   21.1293 H   0  0  0  0  0  0
  -19.6709  -27.3165   20.6706 H   0  0  0  0  0  0
  -17.4216  -26.6718   21.4034 H   0  0  0  0  0  0
  -18.0343  -26.0121   22.9033 H   0  0  0  0  0  0
  -19.7967  -30.7345   24.2216 H   0  0  0  0  0  0
  -17.5045  -31.6296   24.5173 H   0  0  0  0  0  0
  -15.5386  -30.3013   23.7698 H   0  0  0  0  0  0
  -15.8697  -28.0839   22.7130 H   0  0  0  0  0  0
  -24.5908  -30.7105   25.7646 H   0  0  0  0  0  0
  -24.8816  -32.3034   26.4534 H   0  0  0  0  0  0
  -25.7902  -30.9154   27.0235 H   0  0  0  0  0  0
  -26.3190  -29.6550   24.1422 H   0  0  0  0  0  0
  -27.3967  -29.7275   25.5134 H   0  0  0  0  0  0
  -27.9141  -30.4057   23.9922 H   0  0  0  0  0  0
  -27.2649  -33.3692   26.1926 H   0  0  0  0  0  0
  -28.3971  -32.6804   25.0388 H   0  0  0  0  0  0
  -28.0633  -31.8550   26.5539 H   0  0  0  0  0  0
  -28.2533  -38.0078   24.7557 H   0  0  0  0  0  0
  -28.1106  -36.2612   24.6219 H   0  0  0  0  0  0
  -27.2292  -37.1290   25.8862 H   0  0  0  0  0  0
  -20.9625  -29.8734   21.6595 H   0  0  0  0  0  0
  -26.0091  -38.2742   24.1491 H   0  0  0  0  0  0
  -29.1427  -17.8337   18.6576 H   0  0  0  0  0  0
  -27.7934  -17.5036   19.7506 H   0  0  0  0  0  0
  -30.7861  -18.2676   21.8722 H   0  0  0  0  0  0
  -31.2915  -18.3870   20.1874 H   0  0  0  0  0  0
  -28.5633  -19.0707   21.4221 H   0  0  0  0  0  0
  -26.0903  -24.4105   21.7045 H   0  0  0  0  0  0
  -25.6546  -22.7081   21.8640 H   0  0  0  0  0  0
  -25.3673  -23.5547   20.3388 H   0  0  0  0  0  0
  -31.2045  -20.7655   19.1644 H   0  0  0  0  0  0
  -31.5248  -22.4049   18.8603 H   0  0  0  0  0  0
  1 25  1  0  0  0
  1 30  2  0  0  0
  1 81  1  0  0  0
  2  3  1  0  0  0
  2 25  1  0  0  0
  2 83  1  0  0  0
  2 84  1  0  0  0
  3  4  1  0  0  0
  3 85  1  0  0  0
  3 86  1  0  0  0
  4  5  1  0  0  0
  4 87  1  0  0  0
  4 88  1  0  0  0
  5  6  1  0  0  0
  5 26  1  0  0  0
  5 89  1  0  0  0
  6 25  1  0  0  0
  6 90  1  0  0  0
  6 91  1  0  0  0
  7  8  2  0  0  0
  7 26  1  0  0  0
  7 29  1  0  0  0
  8  9  1  0  0  0
  8 22  1  0  0  0
  9 10  1  0  0  0
  9 27  2  0  0  0
 10 11  2  0  0  0
 10 15  1  0  0  0
 11 12  1  0  0  0
 11 92  1  0  0  0
 12 13  2  0  0  0
 12 93  1  0  0  0
 13 14  1  0  0  0
 13 31  1  0  0  0
 14 15  2  0  0  0
 14 94  1  0  0  0
 15 95  1  0  0  0
 16 17  2  0  0  0
 16 21  1  0  0  0
 16 31  1  0  0  0
 17 18  1  0  0  0
 17 96  1  0  0  0
 18 19  2  0  0  0
 18 97  1  0  0  0
 19 20  1  0  0  0
 19 24  1  0  0  0
 20 21  2  0  0  0
 20 98  1  0  0  0
 21 23  1  0  0  0
 22 28  1  0  0  0
 22 32  2  0  0  0
 26 27  1  0  0  0
 28 99  1  0  0  0
 28100  1  0  0  0
 29101  1  0  0  0
 29102  1  0  0  0
 33 34  1  0  0  0
 33 66  1  0  0  0
 33 70  2  0  0  0
 34 36  1  0  0  0
 34 59  1  0  0  0
 34103  1  0  0  0
 35 44  2  0  0  0
 35 45  1  0  0  0
 35 68  1  0  0  0
 36 56  1  0  0  0
 36104  1  0  0  0
 37 39  1  0  0  0
 37 47  1  0  0  0
 37 66  1  0  0  0
 37105  1  0  0  0
 38 43  2  0  0  0
 38 46  1  0  0  0
 38 47  1  0  0  0
 39 64  1  0  0  0
 39 67  2  0  0  0
 40 52  1  0  0  0
 40 53  2  0  0  0
 40 58  1  0  0  0
 41106  1  0  0  0
 41107  1  0  0  0
 41108  1  0  0  0
 41 48  1  0  0  0
 42 43  1  0  0  0
 42 66  1  0  0  0
 42109  1  0  0  0
 42110  1  0  0  0
 43 44  1  0  0  0
 44111  1  0  0  0
 45 46  2  0  0  0
 45112  1  0  0  0
 46113  1  0  0  0
 47114  1  0  0  0
 47115  1  0  0  0
 48 56  1  0  0  0
 48 65  1  0  0  0
 48116  1  0  0  0
 49 50  1  0  0  0
 49 53  1  0  0  0
 49 64  1  0  0  0
 49117  1  0  0  0
 50 51  1  0  0  0
 50118  1  0  0  0
 50119  1  0  0  0
 51 52  1  0  0  0
 51120  1  0  0  0
 51121  1  0  0  0
 52122  1  0  0  0
 52123  1  0  0  0
 53 54  1  0  0  0
 54 55  2  0  0  0
 54124  1  0  0  0
 55 57  1  0  0  0
 55125  1  0  0  0
 56 69  2  0  0  0
 57 58  2  0  0  0
 57126  1  0  0  0
 58127  1  0  0  0
 59 60  1  0  0  0
 59 61  1  0  0  0
 59 62  1  0  0  0
 60128  1  0  0  0
 60129  1  0  0  0
 60130  1  0  0  0
 61131  1  0  0  0
 61132  1  0  0  0
 61133  1  0  0  0
 62134  1  0  0  0
 62135  1  0  0  0
 62136  1  0  0  0
 63 65  1  0  0  0
 63137  1  0  0  0
 63138  1  0  0  0
 63139  1  0  0  0
 64140  1  0  0  0
 65141  1  0  0  0
 68 74  1  0  0  0
 71 73  1  0  0  0
 71 79  2  0  0  0
 71 77  1  0  0  0
 72 74  2  0  0  0
 72 78  1  0  0  0
 72 79  1  0  0  0
 73 80  2  0  0  0
 73 82  1  0  0  0
 74 80  1  0  0  0
 75 77  1  0  0  0
 75 81  1  0  0  0
 75142  1  0  0  0
 75143  1  0  0  0
 76 77  1  0  0  0
 76 81  1  0  0  0
 76144  1  0  0  0
 76145  1  0  0  0
 77146  1  0  0  0
 78147  1  0  0  0
 78148  1  0  0  0
 78149  1  0  0  0
 82150  1  0  0  0
 82151  1  0  0  0
M  ISO  4   1 100  68 101  74 101  81 100
M  END
> <chiral flag>
0

> <version>
0

> <s_m_source_file>
/data/baiqing/PycharmProjects/Reinvent-master-3.2/result/LINK_invent/BTK/process_docking_weight1_custom_sum_contain_oxygen_bond_distance_aromatic_linkinvent_7_9_3/rearranged_h_0178.sdf

> <i_m_source_file_index>
2

> <r_mmod_Potential_Energy-OPLS-2005>
1598.55407714844

> <r_mmod_Stretch_Energy-OPLS-2005>
606.209777832031

> <r_mmod_Bend_Energy-OPLS-2005>
558.614074707031

> <r_mmod_Torsional_Energy-OPLS-2005>
259.148956298828

> <r_mmod_Improper_Torsional_Energy-OPLS-2005>
10.8406600952148

> <r_mmod_Van_der_Waal_Energy-OPLS-2005>
123.704788208008

> <r_mmod_Electrostatic_Energy-OPLS-2005>
-329.322448730469

> <r_mmod_Solvation_Energy-OPLS-2005>
-233.589569091797

> <b_mmod_Minimization_Converged-OPLS-2005>
0

> <r_mmod_RMS_Derivative-OPLS-2005>
1.68242239952087

$$$$
2
                    3D
 Structure written by MMmdl.
158167  0  0  1  0            999 V2000
  -30.6169  -14.7025   20.4702 C   0  0  0  0  0  0
  -30.4333  -12.4284   19.4665 C   0  0  0  0  0  0
  -29.5092  -12.5006   18.2306 C   0  0  0  0  0  0
  -28.0330  -12.3347   18.6436 C   0  0  0  0  0  0
  -27.6451  -13.2265   19.8532 C   0  0  2  0  0  0
  -28.6894  -13.1360   20.9881 C   0  0  0  0  0  0
  -25.2533  -13.8196   20.5705 C   0  0  0  0  0  0
  -24.1812  -13.0444   20.9206 C   0  0  0  0  0  0
  -24.6394  -11.6922   20.8745 C   0  0  0  0  0  0
  -23.9071  -10.4294   21.0413 C   0  0  0  0  0  0
  -24.3622   -9.4205   21.9187 C   0  0  0  0  0  0
  -23.6299   -8.2239   22.0754 C   0  0  0  0  0  0
  -22.4280   -8.0280   21.3543 C   0  0  0  0  0  0
  -21.9913   -9.0256   20.4647 C   0  0  0  0  0  0
  -22.7244  -10.2135   20.3059 C   0  0  0  0  0  0
  -21.6850   -6.0733   22.5277 C   0  0  0  0  0  0
  -21.4017   -6.5638   23.8215 C   0  0  0  0  0  0
  -21.3662   -5.6786   24.9172 C   0  0  0  0  0  0
  -21.6043   -4.3050   24.7224 C   0  0  0  0  0  0
  -21.8821   -3.8144   23.4341 C   0  0  0  0  0  0
  -21.9193   -4.6964   22.3403 C   0  0  0  0  0  0
  -22.7831  -13.5230   21.1858 C   0  0  0  0  0  0
  -22.1665   -4.2150   21.0981 F   0  0  0  0  0  0
  -21.5625   -3.4536   25.7734 F   0  0  0  0  0  0
  -29.9946  -13.4794   20.4103 N   0  0  0  0  0  0
  -26.2952  -12.9387   20.3283 N   0  0  0  0  0  0
  -25.9319  -11.6533   20.5744 N   0  0  0  0  0  0
  -22.0474  -12.8224   22.0414 N   0  0  0  0  0  0
  -25.4208  -15.1923   20.4138 N   0  0  0  0  0  0
  -31.7969  -14.8185   20.1295 O   0  0  0  0  0  0
  -21.6640   -6.8880   21.4243 O   0  0  0  0  0  0
  -22.3509  -14.5528   20.6690 O   0  0  0  0  0  0
  -24.6295  -31.8555   23.1977 C   0  0  0  0  0  0
  -25.9128  -32.4750   23.8313 C   0  0  1  0  0  0
  -27.2196  -27.2805   20.1157 C   0  0  0  0  0  0
  -25.5928  -33.8551   24.2250 N   0  0  0  0  0  0
  -23.4240  -30.4789   21.5405 C   0  0  2  0  0  0
  -24.8697  -28.9281   20.1063 C   0  0  0  0  0  0
  -22.7486  -29.4602   22.4902 C   0  0  0  0  0  0
  -18.0289  -28.1389   22.8494 C   0  0  0  0  0  0
  -24.1489  -36.7289   23.2637 C   0  0  0  0  0  0
  -25.9667  -30.7757   21.3711 C   0  0  0  0  0  0
  -26.0388  -29.3991   20.7145 C   0  0  0  0  0  0
  -27.2137  -28.5866   20.7092 C   0  0  0  0  0  0
  -26.0232  -26.8682   19.4865 C   0  0  0  0  0  0
  -24.8660  -27.6705   19.4837 C   0  0  0  0  0  0
  -23.6398  -29.8124   20.1560 C   0  0  0  0  0  0
  -25.4114  -36.3062   24.0323 C   0  0  1  0  0  0
  -20.5891  -28.3697   23.1279 C   0  0  2  0  0  0
  -20.6772  -26.9416   22.5412 C   0  0  0  0  0  0
  -19.5744  -26.6388   21.5215 C   0  0  0  0  0  0
  -18.1925  -26.7933   22.1628 C   0  0  0  0  0  0
  -19.1544  -28.8859   23.2884 C   0  0  0  0  0  0
  -18.9462  -30.1457   23.8901 C   0  0  0  0  0  0
  -17.6462  -30.6586   24.0566 C   0  0  0  0  0  0
  -25.9058  -34.9435   23.5088 C   0  0  0  0  0  0
  -16.5354  -29.9087   23.6327 C   0  0  0  0  0  0
  -16.7278  -28.6505   23.0353 C   0  0  0  0  0  0
  -26.4514  -31.6563   25.0689 C   0  0  0  0  0  0
  -25.3753  -31.3705   26.1419 C   0  0  0  0  0  0
  -27.0354  -30.2979   24.6148 C   0  0  0  0  0  0
  -27.6064  -32.4302   25.7475 C   0  0  0  0  0  0
  -27.5578  -37.1797   24.8465 C   0  0  0  0  0  0
  -21.4193  -29.3045   22.3660 N   0  0  0  0  0  0
  -26.4290  -37.3762   23.9410 N   0  0  0  0  0  0
  -24.6926  -31.0544   22.0934 N   0  0  0  0  0  0
  -23.4203  -28.8145   23.2989 O   0  0  0  0  0  0
  -28.3407  -26.4289   20.2043 O   0  0  0  0  0  0
  -26.5626  -34.8915   22.4655 O   0  0  0  0  0  0
  -23.5454  -32.1362   23.7295 O   0  0  0  0  0  0
  -27.9546  -21.3756   21.9788 C   0  0  0  0  0  0
  -27.4887  -23.6535   21.7057 C   0  0  0  0  0  0
  -28.7550  -21.3456   20.8003 C   0  0  0  0  0  0
  -28.2795  -23.7207   20.5298 C   0  0  0  0  0  0
  -30.0277  -18.0106   21.9339 C   0  0  0  0  0  0
  -29.2515  -18.5457   20.7555 C   0  0  2  0  0  0
  -30.2162  -17.2606   20.6431 C   0  0  2  0  0  0
  -27.7267  -20.1835   22.8876 C   0  0  0  0  0  0
  -26.7363  -24.8390   22.2768 C   0  0  0  0  0  0
  -29.5449  -20.0515   20.2842 C   0  0  0  0  0  0
  -28.3941  -25.0406   19.6404 C   0  0  0  0  0  0
  -27.3380  -22.5045   22.4072 N   0  0  0  0  0  0
  -28.8980  -22.5440   20.0986 N   0  0  0  0  0  0
  -29.8392  -15.8150   20.7277 N   0  0  0  0  0  0
  -31.4761  -12.5494   19.1674 H   0  0  0  0  0  0
  -30.3707  -11.4475   19.9398 H   0  0  0  0  0  0
  -29.7822  -11.7293   17.5095 H   0  0  0  0  0  0
  -29.6442  -13.4571   17.7222 H   0  0  0  0  0  0
  -27.8781  -11.2844   18.8954 H   0  0  0  0  0  0
  -27.3785  -12.5416   17.7960 H   0  0  0  0  0  0
  -27.6475  -14.2524   19.4852 H   0  0  0  0  0  0
  -28.7142  -12.1328   21.4147 H   0  0  0  0  0  0
  -28.4321  -13.8082   21.8085 H   0  0  0  0  0  0
  -25.2773   -9.5670   22.4760 H   0  0  0  0  0  0
  -23.9996   -7.4626   22.7477 H   0  0  0  0  0  0
  -21.0837   -8.8786   19.8958 H   0  0  0  0  0  0
  -22.3716  -10.9674   19.6163 H   0  0  0  0  0  0
  -21.2014   -7.6144   23.9721 H   0  0  0  0  0  0
  -21.1481   -6.0511   25.9076 H   0  0  0  0  0  0
  -22.0601   -2.7606   23.2840 H   0  0  0  0  0  0
  -22.4091  -11.9895   22.4815 H   0  0  0  0  0  0
  -21.1093  -13.1251   22.2631 H   0  0  0  0  0  0
  -24.6482  -15.8401   20.5262 H   0  0  0  0  0  0
  -26.2586  -15.6355   20.0596 H   0  0  0  0  0  0
  -26.7184  -32.5413   23.1048 H   0  0  0  0  0  0
  -25.0065  -33.9683   25.0389 H   0  0  0  0  0  0
  -22.7192  -31.2999   21.3949 H   0  0  0  0  0  0
  -23.3744  -35.9631   23.3295 H   0  0  0  0  0  0
  -24.3579  -36.8919   22.2053 H   0  0  0  0  0  0
  -23.7258  -37.6494   23.6673 H   0  0  0  0  0  0
  -26.0960  -31.5353   20.5986 H   0  0  0  0  0  0
  -26.8487  -30.8290   21.9980 H   0  0  0  0  0  0
  -28.1107  -28.9439   21.1950 H   0  0  0  0  0  0
  -25.9312  -25.8995   19.0221 H   0  0  0  0  0  0
  -23.9682  -27.3010   19.0081 H   0  0  0  0  0  0
  -23.7625  -30.5871   19.3984 H   0  0  0  0  0  0
  -22.7598  -29.2432   19.8526 H   0  0  0  0  0  0
  -25.1297  -36.1897   25.0817 H   0  0  0  0  0  0
  -21.0000  -28.3272   24.1395 H   0  0  0  0  0  0
  -20.5659  -26.2310   23.3615 H   0  0  0  0  0  0
  -21.6639  -26.7423   22.1213 H   0  0  0  0  0  0
  -19.6900  -25.6298   21.1239 H   0  0  0  0  0  0
  -19.6678  -27.3203   20.6748 H   0  0  0  0  0  0
  -17.4197  -26.6694   21.4027 H   0  0  0  0  0  0
  -18.0319  -26.0067   22.9018 H   0  0  0  0  0  0
  -19.7940  -30.7273   24.2273 H   0  0  0  0  0  0
  -17.5017  -31.6268   24.5164 H   0  0  0  0  0  0
  -15.5355  -30.2992   23.7641 H   0  0  0  0  0  0
  -15.8681  -28.0822   22.7065 H   0  0  0  0  0  0
  -24.5943  -30.7028   25.7761 H   0  0  0  0  0  0
  -24.8932  -32.2874   26.4822 H   0  0  0  0  0  0
  -25.8094  -30.8909   27.0201 H   0  0  0  0  0  0
  -26.2915  -29.6715   24.1206 H   0  0  0  0  0  0
  -27.4083  -29.7245   25.4646 H   0  0  0  0  0  0
  -27.8777  -30.4252   23.9342 H   0  0  0  0  0  0
  -27.2659  -33.3607   26.2033 H   0  0  0  0  0  0
  -28.3898  -32.6848   25.0322 H   0  0  0  0  0  0
  -28.0703  -31.8430   26.5411 H   0  0  0  0  0  0
  -28.2587  -38.0099   24.7502 H   0  0  0  0  0  0
  -28.1074  -36.2626   24.6294 H   0  0  0  0  0  0
  -27.2294  -37.1453   25.8867 H   0  0  0  0  0  0
  -20.9364  -29.8783   21.6887 H   0  0  0  0  0  0
  -26.0156  -38.2831   24.1417 H   0  0  0  0  0  0
  -29.4478  -17.5366   22.7240 H   0  0  0  0  0  0
  -30.8829  -18.5824   22.2884 H   0  0  0  0  0  0
  -28.2009  -18.2796   20.6644 H   0  0  0  0  0  0
  -31.1429  -17.4566   20.1051 H   0  0  0  0  0  0
  -27.2209  -19.3779   22.3594 H   0  0  0  0  0  0
  -27.0976  -20.4450   23.7389 H   0  0  0  0  0  0
  -28.6735  -19.8283   23.2890 H   0  0  0  0  0  0
  -26.2956  -24.6003   23.2449 H   0  0  0  0  0  0
  -25.9246  -25.1325   21.6131 H   0  0  0  0  0  0
  -27.4035  -25.6859   22.4304 H   0  0  0  0  0  0
  -30.6007  -20.2489   20.4685 H   0  0  0  0  0  0
  -29.4463  -20.0526   19.1987 H   0  0  0  0  0  0
  -27.7386  -24.9271   18.7807 H   0  0  0  0  0  0
  -29.3874  -24.9854   19.1945 H   0  0  0  0  0  0
  -28.8749  -15.6187   20.9482 H   0  0  0  0  0  0
  1 25  1  0  0  0
  1 30  2  0  0  0
  1 84  1  0  0  0
  2  3  1  0  0  0
  2 25  1  0  0  0
  2 85  1  0  0  0
  2 86  1  0  0  0
  3  4  1  0  0  0
  3 87  1  0  0  0
  3 88  1  0  0  0
  4  5  1  0  0  0
  4 89  1  0  0  0
  4 90  1  0  0  0
  5  6  1  0  0  0
  5 26  1  0  0  0
  5 91  1  0  0  0
  6 25  1  0  0  0
  6 92  1  0  0  0
  6 93  1  0  0  0
  7  8  2  0  0  0
  7 26  1  0  0  0
  7 29  1  0  0  0
  8  9  1  0  0  0
  8 22  1  0  0  0
  9 10  1  0  0  0
  9 27  2  0  0  0
 10 11  2  0  0  0
 10 15  1  0  0  0
 11 12  1  0  0  0
 11 94  1  0  0  0
 12 13  2  0  0  0
 12 95  1  0  0  0
 13 14  1  0  0  0
 13 31  1  0  0  0
 14 15  2  0  0  0
 14 96  1  0  0  0
 15 97  1  0  0  0
 16 17  2  0  0  0
 16 21  1  0  0  0
 16 31  1  0  0  0
 17 18  1  0  0  0
 17 98  1  0  0  0
 18 19  2  0  0  0
 18 99  1  0  0  0
 19 20  1  0  0  0
 19 24  1  0  0  0
 20 21  2  0  0  0
 20100  1  0  0  0
 21 23  1  0  0  0
 22 28  1  0  0  0
 22 32  2  0  0  0
 26 27  1  0  0  0
 28101  1  0  0  0
 28102  1  0  0  0
 29103  1  0  0  0
 29104  1  0  0  0
 33 34  1  0  0  0
 33 66  1  0  0  0
 33 70  2  0  0  0
 34 36  1  0  0  0
 34 59  1  0  0  0
 34105  1  0  0  0
 35 44  2  0  0  0
 35 45  1  0  0  0
 35 68  1  0  0  0
 36 56  1  0  0  0
 36106  1  0  0  0
 37 39  1  0  0  0
 37 47  1  0  0  0
 37 66  1  0  0  0
 37107  1  0  0  0
 38 43  2  0  0  0
 38 46  1  0  0  0
 38 47  1  0  0  0
 39 64  1  0  0  0
 39 67  2  0  0  0
 40 52  1  0  0  0
 40 53  2  0  0  0
 40 58  1  0  0  0
 41108  1  0  0  0
 41109  1  0  0  0
 41110  1  0  0  0
 41 48  1  0  0  0
 42 43  1  0  0  0
 42 66  1  0  0  0
 42111  1  0  0  0
 42112  1  0  0  0
 43 44  1  0  0  0
 44113  1  0  0  0
 45 46  2  0  0  0
 45114  1  0  0  0
 46115  1  0  0  0
 47116  1  0  0  0
 47117  1  0  0  0
 48 56  1  0  0  0
 48 65  1  0  0  0
 48118  1  0  0  0
 49 50  1  0  0  0
 49 53  1  0  0  0
 49 64  1  0  0  0
 49119  1  0  0  0
 50 51  1  0  0  0
 50120  1  0  0  0
 50121  1  0  0  0
 51 52  1  0  0  0
 51122  1  0  0  0
 51123  1  0  0  0
 52124  1  0  0  0
 52125  1  0  0  0
 53 54  1  0  0  0
 54 55  2  0  0  0
 54126  1  0  0  0
 55 57  1  0  0  0
 55127  1  0  0  0
 56 69  2  0  0  0
 57 58  2  0  0  0
 57128  1  0  0  0
 58129  1  0  0  0
 59 60  1  0  0  0
 59 61  1  0  0  0
 59 62  1  0  0  0
 60130  1  0  0  0
 60131  1  0  0  0
 60132  1  0  0  0
 61133  1  0  0  0
 61134  1  0  0  0
 61135  1  0  0  0
 62136  1  0  0  0
 62137  1  0  0  0
 62138  1  0  0  0
 63 65  1  0  0  0
 63139  1  0  0  0
 63140  1  0  0  0
 63141  1  0  0  0
 64142  1  0  0  0
 65143  1  0  0  0
 68 81  1  0  0  0
 71 73  2  0  0  0
 71 78  1  0  0  0
 71 82  1  0  0  0
 72 74  1  0  0  0
 72 79  1  0  0  0
 72 82  2  0  0  0
 73 80  1  0  0  0
 73 83  1  0  0  0
 74 81  1  0  0  0
 74 83  2  0  0  0
 75 76  1  0  0  0
 75 77  1  0  0  0
 75144  1  0  0  0
 75145  1  0  0  0
 76 77  1  0  0  0
 76 80  1  0  0  0
 76146  1  0  0  0
 77 84  1  0  0  0
 77147  1  0  0  0
 78148  1  0  0  0
 78149  1  0  0  0
 78150  1  0  0  0
 79151  1  0  0  0
 79152  1  0  0  0
 79153  1  0  0  0
 80154  1  0  0  0
 80155  1  0  0  0
 81156  1  0  0  0
 81157  1  0  0  0
 84158  1  0  0  0
M  ISO  4   1 100  68 101  81 101  84 100
M  END
> <chiral flag>
0

> <version>
0

> <s_m_source_file>
/data/baiqing/PycharmProjects/Reinvent-master-3.2/result/LINK_invent/BTK/process_docking_weight1_custom_sum_contain_oxygen_bond_distance_aromatic_linkinvent_7_9_3/rearranged_h_0178.sdf

> <i_m_source_file_index>
3

> <r_mmod_Potential_Energy-OPLS-2005>
244.010330200195

> <r_mmod_Stretch_Energy-OPLS-2005>
122.861419677734

> <r_mmod_Bend_Energy-OPLS-2005>
180.488616943359

> <r_mmod_Torsional_Energy-OPLS-2005>
263.837554931641

> <r_mmod_Improper_Torsional_Energy-OPLS-2005>
4.64758014678955

> <r_mmod_Van_der_Waal_Energy-OPLS-2005>
142.489349365234

> <r_mmod_Electrostatic_Energy-OPLS-2005>
-317.768463134766

> <r_mmod_Solvation_Energy-OPLS-2005>
-222.239273071289

> <b_mmod_Minimization_Converged-OPLS-2005>
0

> <r_mmod_RMS_Derivative-OPLS-2005>
1.36615777015686

$$$$
3
                    3D
 Structure written by MMmdl.
145153  0  0  1  0            999 V2000
  -30.4243  -15.2169   20.3758 C   0  0  0  0  0  0
  -30.4470  -12.7690   19.5262 C   0  0  0  0  0  0
  -29.5381  -12.5729   18.2856 C   0  0  0  0  0  0
  -28.0820  -12.3055   18.7075 C   0  0  0  0  0  0
  -27.6185  -13.2672   19.8299 C   0  0  2  0  0  0
  -28.6536  -13.3985   20.9680 C   0  0  0  0  0  0
  -25.2415  -13.8234   20.5728 C   0  0  0  0  0  0
  -24.1760  -13.0436   20.9258 C   0  0  0  0  0  0
  -24.6402  -11.6929   20.8763 C   0  0  0  0  0  0
  -23.9091  -10.4292   21.0408 C   0  0  0  0  0  0
  -24.3635   -9.4205   21.9185 C   0  0  0  0  0  0
  -23.6303   -8.2243   22.0755 C   0  0  0  0  0  0
  -22.4284   -8.0283   21.3545 C   0  0  0  0  0  0
  -21.9926   -9.0259   20.4646 C   0  0  0  0  0  0
  -22.7262  -10.2134   20.3056 C   0  0  0  0  0  0
  -21.6856   -6.0738   22.5279 C   0  0  0  0  0  0
  -21.4016   -6.5641   23.8212 C   0  0  0  0  0  0
  -21.3660   -5.6793   24.9174 C   0  0  0  0  0  0
  -21.6044   -4.3056   24.7224 C   0  0  0  0  0  0
  -21.8819   -3.8148   23.4345 C   0  0  0  0  0  0
  -21.9193   -4.6965   22.3402 C   0  0  0  0  0  0
  -22.7777  -13.5195   21.1902 C   0  0  0  0  0  0
  -22.1661   -4.2150   21.0979 F   0  0  0  0  0  0
  -21.5628   -3.4539   25.7737 F   0  0  0  0  0  0
  -29.8962  -13.8982   20.3571 N   0  0  0  0  0  0
  -26.2840  -12.9493   20.3218 N   0  0  0  0  0  0
  -25.9337  -11.6608   20.5722 N   0  0  0  0  0  0
  -22.0430  -12.8178   22.0454 N   0  0  0  0  0  0
  -25.4047  -15.1967   20.4127 N   0  0  0  0  0  0
  -31.6356  -15.2655   20.1121 O   0  0  0  0  0  0
  -21.6644   -6.8883   21.4241 O   0  0  0  0  0  0
  -22.3460  -14.5496   20.6740 O   0  0  0  0  0  0
  -24.6596  -31.8261   23.1720 C   0  0  0  0  0  0
  -25.9290  -32.4601   23.8177 C   0  0  1  0  0  0
  -27.2230  -26.9607   20.1812 C   0  0  0  0  0  0
  -25.5969  -33.8414   24.2084 N   0  0  0  0  0  0
  -23.4730  -30.4375   21.5204 C   0  0  2  0  0  0
  -24.9270  -28.8283   20.1109 C   0  0  0  0  0  0
  -22.7651  -29.4451   22.4792 C   0  0  0  0  0  0
  -18.0319  -28.1408   22.8468 C   0  0  0  0  0  0
  -24.1492  -36.7213   23.2647 C   0  0  0  0  0  0
  -26.0394  -30.6435   21.3967 C   0  0  0  0  0  0
  -26.1087  -29.2361   20.7417 C   0  0  0  0  0  0
  -27.2515  -28.3225   20.7521 C   0  0  0  0  0  0
  -26.0132  -26.6949   19.5026 C   0  0  0  0  0  0
  -24.9025  -27.5775   19.4715 C   0  0  0  0  0  0
  -23.7109  -29.7521   20.1463 C   0  0  0  0  0  0
  -25.4133  -36.2975   24.0301 C   0  0  1  0  0  0
  -20.5942  -28.3748   23.1197 C   0  0  2  0  0  0
  -20.6796  -26.9433   22.5405 C   0  0  0  0  0  0
  -19.5770  -26.6378   21.5215 C   0  0  0  0  0  0
  -18.1952  -26.7941   22.1623 C   0  0  0  0  0  0
  -19.1580  -28.8899   23.2820 C   0  0  0  0  0  0
  -18.9491  -30.1489   23.8854 C   0  0  0  0  0  0
  -17.6485  -30.6598   24.0556 C   0  0  0  0  0  0
  -25.9096  -34.9357   23.5014 C   0  0  0  0  0  0
  -16.5375  -29.9086   23.6343 C   0  0  0  0  0  0
  -16.7301  -28.6507   23.0361 C   0  0  0  0  0  0
  -26.4553  -31.6538   25.0695 C   0  0  0  0  0  0
  -25.3688  -31.3780   26.1357 C   0  0  0  0  0  0
  -27.0449  -30.2910   24.6407 C   0  0  0  0  0  0
  -27.6047  -32.4345   25.7498 C   0  0  0  0  0  0
  -27.5570  -37.1763   24.8466 C   0  0  0  0  0  0
  -21.4323  -29.3041   22.3545 N   0  0  0  0  0  0
  -26.4280  -37.3709   23.9408 N   0  0  0  0  0  0
  -24.7450  -30.9953   22.0838 N   0  0  0  0  0  0
  -23.4212  -28.8023   23.3025 O   0  0  0  0  0  0
  -28.2408  -25.8834   20.2718 O   0  0  0  0  0  0
  -26.5706  -34.8889   22.4610 O   0  0  0  0  0  0
  -23.5673  -32.1216   23.6834 O   0  0  0  0  0  0
  -30.2159  -20.3550   19.8132 C   0  0  0  0  0  0
  -28.4088  -18.8064   20.9330 C   0  0  0  0  0  0
  -29.0806  -21.1312   20.3220 C   0  0  0  0  0  0
  -29.5421  -18.0211   20.4282 C   0  0  0  0  0  0
  -29.0455  -22.8662   20.5347 C   0  0  0  0  0  0
  -28.0440  -24.2670   20.0626 C   0  0  0  0  0  0
  -28.2004  -20.2211   20.9090 N   0  0  0  0  0  0
  -30.4281  -18.9399   19.8564 N   0  0  0  0  0  0
  -29.5823  -16.4137   20.5411 N   0  0  0  0  0  0
  -31.4674  -12.9740   19.1996 H   0  0  0  0  0  0
  -30.5071  -11.8502   20.1118 H   0  0  0  0  0  0
  -29.9075  -11.7530   17.6682 H   0  0  0  0  0  0
  -29.5779  -13.4679   17.6627 H   0  0  0  0  0  0
  -28.0257  -11.2758   19.0626 H   0  0  0  0  0  0
  -27.4155  -12.3693   17.8465 H   0  0  0  0  0  0
  -27.5470  -14.2445   19.3515 H   0  0  0  0  0  0
  -28.8066  -12.4465   21.4785 H   0  0  0  0  0  0
  -28.3013  -14.1005   21.7254 H   0  0  0  0  0  0
  -25.2777   -9.5679   22.4765 H   0  0  0  0  0  0
  -24.0008   -7.4634   22.7476 H   0  0  0  0  0  0
  -21.0857   -8.8783   19.8951 H   0  0  0  0  0  0
  -22.3721  -10.9676   19.6168 H   0  0  0  0  0  0
  -21.2010   -7.6149   23.9716 H   0  0  0  0  0  0
  -21.1482   -6.0523   25.9077 H   0  0  0  0  0  0
  -22.0597   -2.7610   23.2845 H   0  0  0  0  0  0
  -22.4059  -11.9847   22.4847 H   0  0  0  0  0  0
  -21.1041  -13.1187   22.2653 H   0  0  0  0  0  0
  -24.6221  -15.8358   20.5034 H   0  0  0  0  0  0
  -26.2178  -15.6277   19.9943 H   0  0  0  0  0  0
  -26.7358  -32.5150   23.0893 H   0  0  0  0  0  0
  -25.0064  -33.9496   25.0200 H   0  0  0  0  0  0
  -22.7846  -31.2680   21.3506 H   0  0  0  0  0  0
  -23.3766  -35.9532   23.3280 H   0  0  0  0  0  0
  -24.3569  -36.8888   22.2067 H   0  0  0  0  0  0
  -23.7239  -37.6390   23.6721 H   0  0  0  0  0  0
  -26.2149  -31.3864   20.6176 H   0  0  0  0  0  0
  -26.9012  -30.7004   22.0498 H   0  0  0  0  0  0
  -28.1466  -28.6318   21.2733 H   0  0  0  0  0  0
  -25.8951  -25.7370   19.0170 H   0  0  0  0  0  0
  -24.0036  -27.2596   18.9613 H   0  0  0  0  0  0
  -23.8627  -30.5202   19.3871 H   0  0  0  0  0  0
  -22.8216  -29.2035   19.8309 H   0  0  0  0  0  0
  -25.1330  -36.1774   25.0792 H   0  0  0  0  0  0
  -21.0030  -28.3354   24.1320 H   0  0  0  0  0  0
  -20.5677  -26.2366   23.3642 H   0  0  0  0  0  0
  -21.6659  -26.7412   22.1211 H   0  0  0  0  0  0
  -19.6930  -25.6277   21.1273 H   0  0  0  0  0  0
  -19.6709  -27.3164   20.6726 H   0  0  0  0  0  0
  -17.4221  -26.6685   21.4027 H   0  0  0  0  0  0
  -18.0347  -26.0095   22.9030 H   0  0  0  0  0  0
  -19.7967  -30.7317   24.2204 H   0  0  0  0  0  0
  -17.5037  -31.6273   24.5166 H   0  0  0  0  0  0
  -15.5374  -30.2974   23.7692 H   0  0  0  0  0  0
  -15.8702  -28.0810   22.7101 H   0  0  0  0  0  0
  -24.5885  -30.7113   25.7668 H   0  0  0  0  0  0
  -24.8860  -32.2978   26.4666 H   0  0  0  0  0  0
  -25.7927  -30.9026   27.0211 H   0  0  0  0  0  0
  -26.3111  -29.6589   24.1395 H   0  0  0  0  0  0
  -27.3976  -29.7270   25.5052 H   0  0  0  0  0  0
  -27.9051  -30.4102   23.9817 H   0  0  0  0  0  0
  -27.2614  -33.3686   26.1957 H   0  0  0  0  0  0
  -28.3919  -32.6843   25.0373 H   0  0  0  0  0  0
  -28.0646  -31.8552   26.5514 H   0  0  0  0  0  0
  -28.2569  -38.0076   24.7513 H   0  0  0  0  0  0
  -28.1084  -36.2602   24.6293 H   0  0  0  0  0  0
  -27.2286  -37.1405   25.8868 H   0  0  0  0  0  0
  -20.9573  -29.8728   21.6675 H   0  0  0  0  0  0
  -26.0130  -38.2768   24.1417 H   0  0  0  0  0  0
  -31.0445  -20.9032   19.3889 H   0  0  0  0  0  0
  -27.6047  -18.2655   21.4104 H   0  0  0  0  0  0
  -30.0369  -23.1475   20.1803 H   0  0  0  0  0  0
  -29.1286  -22.9636   21.6167 H   0  0  0  0  0  0
  -27.0573  -24.0595   20.4772 H   0  0  0  0  0  0
  -27.9090  -24.1654   18.9857 H   0  0  0  0  0  0
  -28.6710  -16.0836   20.8177 H   0  0  0  0  0  0
  1 25  1  0  0  0
  1 30  2  0  0  0
  1 79  1  0  0  0
  2  3  1  0  0  0
  2 25  1  0  0  0
  2 80  1  0  0  0
  2 81  1  0  0  0
  3  4  1  0  0  0
  3 82  1  0  0  0
  3 83  1  0  0  0
  4  5  1  0  0  0
  4 84  1  0  0  0
  4 85  1  0  0  0
  5  6  1  0  0  0
  5 26  1  0  0  0
  5 86  1  0  0  0
  6 25  1  0  0  0
  6 87  1  0  0  0
  6 88  1  0  0  0
  7  8  2  0  0  0
  7 26  1  0  0  0
  7 29  1  0  0  0
  8  9  1  0  0  0
  8 22  1  0  0  0
  9 10  1  0  0  0
  9 27  2  0  0  0
 10 11  2  0  0  0
 10 15  1  0  0  0
 11 12  1  0  0  0
 11 89  1  0  0  0
 12 13  2  0  0  0
 12 90  1  0  0  0
 13 14  1  0  0  0
 13 31  1  0  0  0
 14 15  2  0  0  0
 14 91  1  0  0  0
 15 92  1  0  0  0
 16 17  2  0  0  0
 16 21  1  0  0  0
 16 31  1  0  0  0
 17 18  1  0  0  0
 17 93  1  0  0  0
 18 19  2  0  0  0
 18 94  1  0  0  0
 19 20  1  0  0  0
 19 24  1  0  0  0
 20 21  2  0  0  0
 20 95  1  0  0  0
 21 23  1  0  0  0
 22 28  1  0  0  0
 22 32  2  0  0  0
 26 27  1  0  0  0
 28 96  1  0  0  0
 28 97  1  0  0  0
 29 98  1  0  0  0
 29 99  1  0  0  0
 33 34  1  0  0  0
 33 66  1  0  0  0
 33 70  2  0  0  0
 34 36  1  0  0  0
 34 59  1  0  0  0
 34100  1  0  0  0
 35 44  2  0  0  0
 35 45  1  0  0  0
 35 68  1  0  0  0
 36 56  1  0  0  0
 36101  1  0  0  0
 37 39  1  0  0  0
 37 47  1  0  0  0
 37 66  1  0  0  0
 37102  1  0  0  0
 38 43  2  0  0  0
 38 46  1  0  0  0
 38 47  1  0  0  0
 39 64  1  0  0  0
 39 67  2  0  0  0
 40 52  1  0  0  0
 40 53  2  0  0  0
 40 58  1  0  0  0
 41103  1  0  0  0
 41104  1  0  0  0
 41105  1  0  0  0
 41 48  1  0  0  0
 42 43  1  0  0  0
 42 66  1  0  0  0
 42106  1  0  0  0
 42107  1  0  0  0
 43 44  1  0  0  0
 44108  1  0  0  0
 45 46  2  0  0  0
 45109  1  0  0  0
 46110  1  0  0  0
 47111  1  0  0  0
 47112  1  0  0  0
 48 56  1  0  0  0
 48 65  1  0  0  0
 48113  1  0  0  0
 49 50  1  0  0  0
 49 53  1  0  0  0
 49 64  1  0  0  0
 49114  1  0  0  0
 50 51  1  0  0  0
 50115  1  0  0  0
 50116  1  0  0  0
 51 52  1  0  0  0
 51117  1  0  0  0
 51118  1  0  0  0
 52119  1  0  0  0
 52120  1  0  0  0
 53 54  1  0  0  0
 54 55  2  0  0  0
 54121  1  0  0  0
 55 57  1  0  0  0
 55122  1  0  0  0
 56 69  2  0  0  0
 57 58  2  0  0  0
 57123  1  0  0  0
 58124  1  0  0  0
 59 60  1  0  0  0
 59 61  1  0  0  0
 59 62  1  0  0  0
 60125  1  0  0  0
 60126  1  0  0  0
 60127  1  0  0  0
 61128  1  0  0  0
 61129  1  0  0  0
 61130  1  0  0  0
 62131  1  0  0  0
 62132  1  0  0  0
 62133  1  0  0  0
 63 65  1  0  0  0
 63134  1  0  0  0
 63135  1  0  0  0
 63136  1  0  0  0
 64137  1  0  0  0
 65138  1  0  0  0
 68 76  1  0  0  0
 71 73  2  0  0  0
 71 78  1  0  0  0
 71139  1  0  0  0
 72 74  1  0  0  0
 72 77  2  0  0  0
 72140  1  0  0  0
 73 75  1  0  0  0
 73 77  1  0  0  0
 74 78  2  0  0  0
 74 79  1  0  0  0
 75 76  1  0  0  0
 75141  1  0  0  0
 75142  1  0  0  0
 76143  1  0  0  0
 76144  1  0  0  0
 79145  1  0  0  0
M  ISO  4   1 100  68 101  76 101  79 100
M  END
> <chiral flag>
0

> <version>
0

> <s_m_source_file>
/data/baiqing/PycharmProjects/Reinvent-master-3.2/result/LINK_invent/BTK/process_docking_weight1_custom_sum_contain_oxygen_bond_distance_aromatic_linkinvent_7_9_3/rearranged_h_0178.sdf

> <i_m_source_file_index>
4

> <r_mmod_Potential_Energy-OPLS-2005>
1099.77917480469

> <r_mmod_Stretch_Energy-OPLS-2005>
492.672668457031

> <r_mmod_Bend_Energy-OPLS-2005>
421.544982910156

> <r_mmod_Torsional_Energy-OPLS-2005>
200.695877075195

> <r_mmod_Improper_Torsional_Energy-OPLS-2005>
5.68316268920898

> <r_mmod_Van_der_Waal_Energy-OPLS-2005>
130.611862182617

> <r_mmod_Electrostatic_Energy-OPLS-2005>
-319.384155273438

> <r_mmod_Solvation_Energy-OPLS-2005>
-241.363510131836

> <b_mmod_Minimization_Converged-OPLS-2005>
0

> <r_mmod_RMS_Derivative-OPLS-2005>
0.0565877817571163

$$$$
4
                    3D
 Structure written by MMmdl.
153162  0  0  1  0            999 V2000
  -30.4525  -15.2858   20.3821 C   0  0  0  0  0  0
  -30.4317  -12.8301   19.5207 C   0  0  0  0  0  0
  -29.5293  -12.5899   18.2851 C   0  0  0  0  0  0
  -28.0781  -12.3119   18.7115 C   0  0  0  0  0  0
  -27.6078  -13.2793   19.8263 C   0  0  2  0  0  0
  -28.6465  -13.4483   20.9563 C   0  0  0  0  0  0
  -25.2342  -13.8223   20.5791 C   0  0  0  0  0  0
  -24.1707  -13.0402   20.9269 C   0  0  0  0  0  0
  -24.6388  -11.6912   20.8770 C   0  0  0  0  0  0
  -23.9094  -10.4276   21.0406 C   0  0  0  0  0  0
  -24.3639   -9.4191   21.9185 C   0  0  0  0  0  0
  -23.6308   -8.2231   22.0755 C   0  0  0  0  0  0
  -22.4279   -8.0276   21.3556 C   0  0  0  0  0  0
  -21.9933   -9.0246   20.4645 C   0  0  0  0  0  0
  -22.7266  -10.2120   20.3057 C   0  0  0  0  0  0
  -21.6853   -6.0738   22.5288 C   0  0  0  0  0  0
  -21.4011   -6.5646   23.8223 C   0  0  0  0  0  0
  -21.3660   -5.6799   24.9187 C   0  0  0  0  0  0
  -21.6046   -4.3060   24.7235 C   0  0  0  0  0  0
  -21.8820   -3.8154   23.4352 C   0  0  0  0  0  0
  -21.9192   -4.6968   22.3408 C   0  0  0  0  0  0
  -22.7719  -13.5141   21.1920 C   0  0  0  0  0  0
  -22.1659   -4.2158   21.0984 F   0  0  0  0  0  0
  -21.5633   -3.4538   25.7745 F   0  0  0  0  0  0
  -29.8662  -13.9822   20.3228 N   0  0  0  0  0  0
  -26.2794  -12.9534   20.3257 N   0  0  0  0  0  0
  -25.9330  -11.6629   20.5745 N   0  0  0  0  0  0
  -22.0385  -12.8127   22.0470 N   0  0  0  0  0  0
  -25.3918  -15.1964   20.4274 N   0  0  0  0  0  0
  -31.6733  -15.2441   20.1575 O   0  0  0  0  0  0
  -21.6635   -6.8878   21.4249 O   0  0  0  0  0  0
  -22.3396  -14.5442   20.6759 O   0  0  0  0  0  0
  -24.6595  -31.8248   23.1695 C   0  0  0  0  0  0
  -25.9288  -32.4591   23.8155 C   0  0  1  0  0  0
  -27.2237  -26.9295   20.1946 C   0  0  0  0  0  0
  -25.5969  -33.8408   24.2062 N   0  0  0  0  0  0
  -23.4745  -30.4322   21.5185 C   0  0  2  0  0  0
  -24.9284  -28.8112   20.1161 C   0  0  0  0  0  0
  -22.7645  -29.4432   22.4794 C   0  0  0  0  0  0
  -18.0315  -28.1411   22.8479 C   0  0  0  0  0  0
  -24.1489  -36.7198   23.2646 C   0  0  0  0  0  0
  -26.0403  -30.6296   21.3997 C   0  0  0  0  0  0
  -26.1077  -29.2155   20.7527 C   0  0  0  0  0  0
  -27.2459  -28.2933   20.7701 C   0  0  0  0  0  0
  -26.0177  -26.6720   19.5076 C   0  0  0  0  0  0
  -24.9075  -27.5599   19.4748 C   0  0  0  0  0  0
  -23.7141  -29.7402   20.1468 C   0  0  0  0  0  0
  -25.4133  -36.2964   24.0295 C   0  0  1  0  0  0
  -20.5933  -28.3751   23.1205 C   0  0  2  0  0  0
  -20.6791  -26.9435   22.5412 C   0  0  0  0  0  0
  -19.5764  -26.6383   21.5225 C   0  0  0  0  0  0
  -18.1947  -26.7947   22.1631 C   0  0  0  0  0  0
  -19.1575  -28.8904   23.2826 C   0  0  0  0  0  0
  -18.9491  -30.1494   23.8858 C   0  0  0  0  0  0
  -17.6488  -30.6607   24.0555 C   0  0  0  0  0  0
  -25.9104  -34.9355   23.5001 C   0  0  0  0  0  0
  -16.5377  -29.9089   23.6352 C   0  0  0  0  0  0
  -16.7298  -28.6504   23.0381 C   0  0  0  0  0  0
  -26.4547  -31.6537   25.0679 C   0  0  0  0  0  0
  -25.3687  -31.3798   26.1349 C   0  0  0  0  0  0
  -27.0437  -30.2907   24.6396 C   0  0  0  0  0  0
  -27.6047  -32.4339   25.7475 C   0  0  0  0  0  0
  -27.5577  -37.1746   24.8455 C   0  0  0  0  0  0
  -21.4317  -29.3035   22.3546 N   0  0  0  0  0  0
  -26.4268  -37.3713   23.9423 N   0  0  0  0  0  0
  -24.7458  -30.9910   22.0828 N   0  0  0  0  0  0
  -23.4199  -28.8029   23.3052 O   0  0  0  0  0  0
  -28.2779  -25.8783   20.2408 O   0  0  0  0  0  0
  -26.5718  -34.8890   22.4600 O   0  0  0  0  0  0
  -23.5668  -32.1216   23.6791 O   0  0  0  0  0  0
  -28.0403  -23.4193   19.1366 C   0  0  0  0  0  0
  -28.8673  -23.4297   21.2455 C   0  0  0  0  0  0
  -28.2776  -21.9487   19.1012 C   0  0  0  0  0  0
  -28.2990  -24.3349   20.2338 C   0  0  0  0  0  0
  -28.8290  -21.1286   20.1814 C   0  0  0  0  0  0
  -28.1039  -18.4919   21.1441 C   0  0  0  0  0  0
  -28.3715  -16.9261   20.8845 C   0  0  0  0  0  0
  -30.1820  -18.1567   20.1647 C   0  0  0  0  0  0
  -28.9566  -19.3567   20.1886 C   0  0  2  0  0  0
  -27.9054  -21.2493   17.8051 C   0  0  0  0  0  0
  -29.0911  -22.0072   21.2386 N   0  0  0  0  0  0
  -29.7548  -16.6162   20.4305 N   0  0  0  0  0  0
  -31.4488  -13.0320   19.1813 H   0  0  0  0  0  0
  -30.5095  -11.9279   20.1289 H   0  0  0  0  0  0
  -29.9121  -11.7624   17.6859 H   0  0  0  0  0  0
  -29.5568  -13.4725   17.6454 H   0  0  0  0  0  0
  -28.0326  -11.2850   19.0740 H   0  0  0  0  0  0
  -27.4115  -12.3671   17.8504 H   0  0  0  0  0  0
  -27.5203  -14.2471   19.3329 H   0  0  0  0  0  0
  -28.8264  -12.5041   21.4733 H   0  0  0  0  0  0
  -28.2810  -14.1366   21.7169 H   0  0  0  0  0  0
  -25.2780   -9.5668   22.4760 H   0  0  0  0  0  0
  -24.0022   -7.4620   22.7464 H   0  0  0  0  0  0
  -21.0878   -8.8762   19.8938 H   0  0  0  0  0  0
  -22.3728  -10.9662   19.6174 H   0  0  0  0  0  0
  -21.2000   -7.6158   23.9728 H   0  0  0  0  0  0
  -21.1481   -6.0532   25.9095 H   0  0  0  0  0  0
  -22.0598   -2.7617   23.2848 H   0  0  0  0  0  0
  -22.4029  -11.9807   22.4883 H   0  0  0  0  0  0
  -21.0999  -13.1140   22.2667 H   0  0  0  0  0  0
  -24.6250  -15.8448   20.5651 H   0  0  0  0  0  0
  -26.2434  -15.6471   20.1247 H   0  0  0  0  0  0
  -26.7354  -32.5135   23.0867 H   0  0  0  0  0  0
  -25.0072  -33.9486   25.0183 H   0  0  0  0  0  0
  -22.7860  -31.2620   21.3454 H   0  0  0  0  0  0
  -23.3779  -35.9497   23.3251 H   0  0  0  0  0  0
  -24.3571  -36.8909   22.2071 H   0  0  0  0  0  0
  -23.7206  -37.6355   23.6739 H   0  0  0  0  0  0
  -26.2177  -31.3661   20.6147 H   0  0  0  0  0  0
  -26.9021  -30.6917   22.0519 H   0  0  0  0  0  0
  -28.1407  -28.6046   21.2901 H   0  0  0  0  0  0
  -25.9102  -25.7156   19.0164 H   0  0  0  0  0  0
  -24.0103  -27.2453   18.9591 H   0  0  0  0  0  0
  -23.8664  -30.5051   19.3842 H   0  0  0  0  0  0
  -22.8241  -29.1904   19.8347 H   0  0  0  0  0  0
  -25.1325  -36.1754   25.0781 H   0  0  0  0  0  0
  -21.0017  -28.3364   24.1330 H   0  0  0  0  0  0
  -20.5696  -26.2365   23.3647 H   0  0  0  0  0  0
  -21.6658  -26.7424   22.1212 H   0  0  0  0  0  0
  -19.6927  -25.6283   21.1284 H   0  0  0  0  0  0
  -19.6706  -27.3168   20.6736 H   0  0  0  0  0  0
  -17.4216  -26.6698   21.4027 H   0  0  0  0  0  0
  -18.0331  -26.0093   22.9032 H   0  0  0  0  0  0
  -19.7971  -30.7323   24.2202 H   0  0  0  0  0  0
  -17.5044  -31.6286   24.5164 H   0  0  0  0  0  0
  -15.5376  -30.2985   23.7701 H   0  0  0  0  0  0
  -15.8696  -28.0808   22.7132 H   0  0  0  0  0  0
  -24.5797  -30.7245   25.7641 H   0  0  0  0  0  0
  -24.8971  -32.3024   26.4752 H   0  0  0  0  0  0
  -25.7907  -30.8933   27.0156 H   0  0  0  0  0  0
  -26.3095  -29.6592   24.1380 H   0  0  0  0  0  0
  -27.3959  -29.7253   25.5040 H   0  0  0  0  0  0
  -27.9042  -30.4098   23.9806 H   0  0  0  0  0  0
  -27.2610  -33.3661   26.1973 H   0  0  0  0  0  0
  -28.3894  -32.6880   25.0332 H   0  0  0  0  0  0
  -28.0680  -31.8529   26.5463 H   0  0  0  0  0  0
  -28.2532  -38.0105   24.7584 H   0  0  0  0  0  0
  -28.1133  -36.2639   24.6173 H   0  0  0  0  0  0
  -27.2307  -37.1257   25.8857 H   0  0  0  0  0  0
  -20.9567  -29.8688   21.6649 H   0  0  0  0  0  0
  -26.0109  -38.2753   24.1505 H   0  0  0  0  0  0
  -27.6552  -23.8752   18.2359 H   0  0  0  0  0  0
  -29.2109  -23.8933   22.1585 H   0  0  0  0  0  0
  -28.3824  -18.7412   22.1688 H   0  0  0  0  0  0
  -27.0431  -18.7291   21.0474 H   0  0  0  0  0  0
  -27.7090  -16.5903   20.0885 H   0  0  0  0  0  0
  -28.1173  -16.3561   21.7785 H   0  0  0  0  0  0
  -30.9184  -18.4079   20.9285 H   0  0  0  0  0  0
  -30.7147  -18.2092   19.2142 H   0  0  0  0  0  0
  -28.4826  -19.1556   19.2306 H   0  0  0  0  0  0
  -27.7257  -21.9577   16.9965 H   0  0  0  0  0  0
  -26.9991  -20.6572   17.9393 H   0  0  0  0  0  0
  -28.7087  -20.5876   17.4774 H   0  0  0  0  0  0
  1 25  1  0  0  0
  1 30  2  0  0  0
  1 82  1  0  0  0
  2  3  1  0  0  0
  2 25  1  0  0  0
  2 83  1  0  0  0
  2 84  1  0  0  0
  3  4  1  0  0  0
  3 85  1  0  0  0
  3 86  1  0  0  0
  4  5  1  0  0  0
  4 87  1  0  0  0
  4 88  1  0  0  0
  5  6  1  0  0  0
  5 26  1  0  0  0
  5 89  1  0  0  0
  6 25  1  0  0  0
  6 90  1  0  0  0
  6 91  1  0  0  0
  7  8  2  0  0  0
  7 26  1  0  0  0
  7 29  1  0  0  0
  8  9  1  0  0  0
  8 22  1  0  0  0
  9 10  1  0  0  0
  9 27  2  0  0  0
 10 11  2  0  0  0
 10 15  1  0  0  0
 11 12  1  0  0  0
 11 92  1  0  0  0
 12 13  2  0  0  0
 12 93  1  0  0  0
 13 14  1  0  0  0
 13 31  1  0  0  0
 14 15  2  0  0  0
 14 94  1  0  0  0
 15 95  1  0  0  0
 16 17  2  0  0  0
 16 21  1  0  0  0
 16 31  1  0  0  0
 17 18  1  0  0  0
 17 96  1  0  0  0
 18 19  2  0  0  0
 18 97  1  0  0  0
 19 20  1  0  0  0
 19 24  1  0  0  0
 20 21  2  0  0  0
 20 98  1  0  0  0
 21 23  1  0  0  0
 22 28  1  0  0  0
 22 32  2  0  0  0
 26 27  1  0  0  0
 28 99  1  0  0  0
 28100  1  0  0  0
 29101  1  0  0  0
 29102  1  0  0  0
 33 34  1  0  0  0
 33 66  1  0  0  0
 33 70  2  0  0  0
 34 36  1  0  0  0
 34 59  1  0  0  0
 34103  1  0  0  0
 35 44  2  0  0  0
 35 45  1  0  0  0
 35 68  1  0  0  0
 36 56  1  0  0  0
 36104  1  0  0  0
 37 39  1  0  0  0
 37 47  1  0  0  0
 37 66  1  0  0  0
 37105  1  0  0  0
 38 43  2  0  0  0
 38 46  1  0  0  0
 38 47  1  0  0  0
 39 64  1  0  0  0
 39 67  2  0  0  0
 40 52  1  0  0  0
 40 53  2  0  0  0
 40 58  1  0  0  0
 41106  1  0  0  0
 41107  1  0  0  0
 41108  1  0  0  0
 41 48  1  0  0  0
 42 43  1  0  0  0
 42 66  1  0  0  0
 42109  1  0  0  0
 42110  1  0  0  0
 43 44  1  0  0  0
 44111  1  0  0  0
 45 46  2  0  0  0
 45112  1  0  0  0
 46113  1  0  0  0
 47114  1  0  0  0
 47115  1  0  0  0
 48 56  1  0  0  0
 48 65  1  0  0  0
 48116  1  0  0  0
 49 50  1  0  0  0
 49 53  1  0  0  0
 49 64  1  0  0  0
 49117  1  0  0  0
 50 51  1  0  0  0
 50118  1  0  0  0
 50119  1  0  0  0
 51 52  1  0  0  0
 51120  1  0  0  0
 51121  1  0  0  0
 52122  1  0  0  0
 52123  1  0  0  0
 53 54  1  0  0  0
 54 55  2  0  0  0
 54124  1  0  0  0
 55 57  1  0  0  0
 55125  1  0  0  0
 56 69  2  0  0  0
 57 58  2  0  0  0
 57126  1  0  0  0
 58127  1  0  0  0
 59 60  1  0  0  0
 59 61  1  0  0  0
 59 62  1  0  0  0
 60128  1  0  0  0
 60129  1  0  0  0
 60130  1  0  0  0
 61131  1  0  0  0
 61132  1  0  0  0
 61133  1  0  0  0
 62134  1  0  0  0
 62135  1  0  0  0
 62136  1  0  0  0
 63 65  1  0  0  0
 63137  1  0  0  0
 63138  1  0  0  0
 63139  1  0  0  0
 64140  1  0  0  0
 65141  1  0  0  0
 68 74  1  0  0  0
 71 73  2  0  0  0
 71 74  1  0  0  0
 71142  1  0  0  0
 72 74  2  0  0  0
 72 81  1  0  0  0
 72143  1  0  0  0
 73 75  1  0  0  0
 73 80  1  0  0  0
 75 81  2  0  0  0
 75 79  1  0  0  0
 76 77  1  0  0  0
 76 79  1  0  0  0
 76144  1  0  0  0
 76145  1  0  0  0
 77 82  1  0  0  0
 77146  1  0  0  0
 77147  1  0  0  0
 78 79  1  0  0  0
 78 82  1  0  0  0
 78148  1  0  0  0
 78149  1  0  0  0
 79150  1  0  0  0
 80151  1  0  0  0
 80152  1  0  0  0
 80153  1  0  0  0
M  ISO  4   1 100  68 101  74 101  82 100
M  END
> <chiral flag>
0

> <version>
0

> <s_m_source_file>
/data/baiqing/PycharmProjects/Reinvent-master-3.2/result/LINK_invent/BTK/process_docking_weight1_custom_sum_contain_oxygen_bond_distance_aromatic_linkinvent_7_9_3/rearranged_h_0178.sdf

> <i_m_source_file_index>
5

> <r_mmod_Potential_Energy-OPLS-2005>
1237.95153808594

> <r_mmod_Stretch_Energy-OPLS-2005>
482.311340332031

> <r_mmod_Bend_Energy-OPLS-2005>
493.099426269531

> <r_mmod_Torsional_Energy-OPLS-2005>
291.335052490234

> <r_mmod_Improper_Torsional_Energy-OPLS-2005>
7.35158157348633

> <r_mmod_Van_der_Waal_Energy-OPLS-2005>
125.488983154297

> <r_mmod_Electrostatic_Energy-OPLS-2005>
-384.026275634766

> <r_mmod_Solvation_Energy-OPLS-2005>
-229.672897338867

> <b_mmod_Minimization_Converged-OPLS-2005>
0

> <r_mmod_RMS_Derivative-OPLS-2005>
1.50317394733429

$$$$
5
                    3D
 Structure written by MMmdl.
153162  0  0  1  0            999 V2000
  -30.4662  -15.2150   20.3827 C   0  0  0  0  0  0
  -30.4379  -12.7765   19.5175 C   0  0  0  0  0  0
  -29.5321  -12.5704   18.2786 C   0  0  0  0  0  0
  -28.0781  -12.3045   18.7062 C   0  0  0  0  0  0
  -27.6136  -13.2727   19.8233 C   0  0  2  0  0  0
  -28.6502  -13.4286   20.9561 C   0  0  0  0  0  0
  -25.2397  -13.8240   20.5734 C   0  0  0  0  0  0
  -24.1747  -13.0434   20.9255 C   0  0  0  0  0  0
  -24.6402  -11.6933   20.8763 C   0  0  0  0  0  0
  -23.9099  -10.4293   21.0405 C   0  0  0  0  0  0
  -24.3643   -9.4205   21.9185 C   0  0  0  0  0  0
  -23.6305   -8.2244   22.0758 C   0  0  0  0  0  0
  -22.4285   -8.0285   21.3545 C   0  0  0  0  0  0
  -21.9931   -9.0262   20.4646 C   0  0  0  0  0  0
  -22.7270  -10.2134   20.3053 C   0  0  0  0  0  0
  -21.6857   -6.0741   22.5279 C   0  0  0  0  0  0
  -21.4015   -6.5645   23.8212 C   0  0  0  0  0  0
  -21.3657   -5.6797   24.9174 C   0  0  0  0  0  0
  -21.6041   -4.3059   24.7222 C   0  0  0  0  0  0
  -21.8819   -3.8152   23.4343 C   0  0  0  0  0  0
  -21.9195   -4.6969   22.3402 C   0  0  0  0  0  0
  -22.7765  -13.5188   21.1900 C   0  0  0  0  0  0
  -22.1662   -4.2155   21.0977 F   0  0  0  0  0  0
  -21.5628   -3.4539   25.7731 F   0  0  0  0  0  0
  -29.8868  -13.9200   20.3287 N   0  0  0  0  0  0
  -26.2826  -12.9516   20.3215 N   0  0  0  0  0  0
  -25.9339  -11.6623   20.5721 N   0  0  0  0  0  0
  -22.0424  -12.8167   22.0449 N   0  0  0  0  0  0
  -25.4024  -15.1974   20.4150 N   0  0  0  0  0  0
  -31.6889  -15.2093   20.1831 O   0  0  0  0  0  0
  -21.6644   -6.8886   21.4239 O   0  0  0  0  0  0
  -22.3444  -14.5491   20.6743 O   0  0  0  0  0  0
  -24.6622  -31.8273   23.1745 C   0  0  0  0  0  0
  -25.9319  -32.4606   23.8192 C   0  0  1  0  0  0
  -27.2115  -26.9530   20.1795 C   0  0  0  0  0  0
  -25.6003  -33.8419   24.2105 N   0  0  0  0  0  0
  -23.4749  -30.4424   21.5236 C   0  0  2  0  0  0
  -24.9263  -28.8394   20.1127 C   0  0  0  0  0  0
  -22.7665  -29.4467   22.4795 C   0  0  0  0  0  0
  -18.0322  -28.1416   22.8481 C   0  0  0  0  0  0
  -24.1481  -36.7191   23.2642 C   0  0  0  0  0  0
  -26.0439  -30.6435   21.4007 C   0  0  0  0  0  0
  -26.1117  -29.2362   20.7448 C   0  0  0  0  0  0
  -27.2511  -28.3148   20.7542 C   0  0  0  0  0  0
  -25.9968  -26.7107   19.4958 C   0  0  0  0  0  0
  -24.8936  -27.5962   19.4674 C   0  0  0  0  0  0
  -23.7127  -29.7644   20.1478 C   0  0  0  0  0  0
  -25.4123  -36.2971   24.0307 C   0  0  1  0  0  0
  -20.5948  -28.3756   23.1193 C   0  0  2  0  0  0
  -20.6799  -26.9441   22.5405 C   0  0  0  0  0  0
  -19.5768  -26.6389   21.5221 C   0  0  0  0  0  0
  -18.1951  -26.7954   22.1631 C   0  0  0  0  0  0
  -19.1585  -28.8910   23.2821 C   0  0  0  0  0  0
  -18.9496  -30.1500   23.8858 C   0  0  0  0  0  0
  -17.6487  -30.6606   24.0564 C   0  0  0  0  0  0
  -25.9098  -34.9359   23.5018 C   0  0  0  0  0  0
  -16.5376  -29.9098   23.6350 C   0  0  0  0  0  0
  -16.7304  -28.6514   23.0375 C   0  0  0  0  0  0
  -26.4576  -31.6535   25.0704 C   0  0  0  0  0  0
  -25.3715  -31.3802   26.1374 C   0  0  0  0  0  0
  -27.0456  -30.2900   24.6417 C   0  0  0  0  0  0
  -27.6088  -32.4326   25.7499 C   0  0  0  0  0  0
  -27.5561  -37.1747   24.8472 C   0  0  0  0  0  0
  -21.4338  -29.3047   22.3539 N   0  0  0  0  0  0
  -26.4262  -37.3713   23.9431 N   0  0  0  0  0  0
  -24.7483  -30.9973   22.0864 N   0  0  0  0  0  0
  -23.4225  -28.8024   23.3015 O   0  0  0  0  0  0
  -28.1993  -25.8406   20.2458 O   0  0  0  0  0  0
  -26.5687  -34.8895   22.4602 O   0  0  0  0  0  0
  -23.5698  -32.1226   23.6855 O   0  0  0  0  0  0
  -29.4223  -22.0670   21.2241 C   0  0  0  0  0  0
  -29.7880  -20.6286   21.2283 C   0  0  0  0  0  0
  -29.3448  -19.6236   20.3179 C   0  0  0  0  0  0
  -28.5621  -22.6948   20.2308 C   0  0  0  0  0  0
  -28.5010  -20.3033   19.3524 C   0  0  0  0  0  0
  -30.7615  -19.9638   22.1801 C   0  0  0  0  0  0
  -30.8020  -18.4232   21.8568 C   0  0  0  0  0  0
  -30.1153  -18.0972   20.4969 C   0  0  1  0  0  0
  -27.9325  -19.5041   18.2001 C   0  0  0  0  0  0
  -27.7807  -24.2591   20.2012 C   0  0  0  0  0  0
  -28.1451  -21.6855   19.3437 N   0  0  0  0  0  0
  -29.7189  -16.4881   20.4617 N   0  0  0  0  0  0
  -31.4595  -12.9716   19.1889 H   0  0  0  0  0  0
  -30.4921  -11.8651   20.1154 H   0  0  0  0  0  0
  -29.9037  -11.7462   17.6683 H   0  0  0  0  0  0
  -29.5710  -13.4604   17.6488 H   0  0  0  0  0  0
  -28.0252  -11.2772   19.0680 H   0  0  0  0  0  0
  -27.4099  -12.3601   17.8461 H   0  0  0  0  0  0
  -27.5345  -14.2450   19.3355 H   0  0  0  0  0  0
  -28.8069  -12.4885   21.4876 H   0  0  0  0  0  0
  -28.2993  -14.1511   21.6947 H   0  0  0  0  0  0
  -25.2783   -9.5679   22.4768 H   0  0  0  0  0  0
  -24.0011   -7.4633   22.7479 H   0  0  0  0  0  0
  -21.0866   -8.8782   19.8947 H   0  0  0  0  0  0
  -22.3729  -10.9674   19.6163 H   0  0  0  0  0  0
  -21.2007   -7.6153   23.9715 H   0  0  0  0  0  0
  -21.1476   -6.0526   25.9076 H   0  0  0  0  0  0
  -22.0600   -2.7613   23.2838 H   0  0  0  0  0  0
  -22.4055  -11.9835   22.4838 H   0  0  0  0  0  0
  -21.1034  -13.1171   22.2651 H   0  0  0  0  0  0
  -24.6285  -15.8445   20.5190 H   0  0  0  0  0  0
  -26.2399  -15.6375   20.0581 H   0  0  0  0  0  0
  -26.7386  -32.5157   23.0905 H   0  0  0  0  0  0
  -25.0165  -33.9500   25.0266 H   0  0  0  0  0  0
  -22.7872  -31.2741   21.3572 H   0  0  0  0  0  0
  -23.3769  -35.9495   23.3279 H   0  0  0  0  0  0
  -24.3560  -36.8858   22.2062 H   0  0  0  0  0  0
  -23.7207  -37.6365   23.6701 H   0  0  0  0  0  0
  -26.2217  -31.3864   20.6219 H   0  0  0  0  0  0
  -26.9049  -30.6992   22.0548 H   0  0  0  0  0  0
  -28.1477  -28.6176   21.2768 H   0  0  0  0  0  0
  -25.8507  -25.7714   18.9870 H   0  0  0  0  0  0
  -23.9953  -27.2881   18.9500 H   0  0  0  0  0  0
  -23.8674  -30.5361   19.3929 H   0  0  0  0  0  0
  -22.8231  -29.2194   19.8279 H   0  0  0  0  0  0
  -25.1312  -36.1764   25.0795 H   0  0  0  0  0  0
  -21.0030  -28.3356   24.1318 H   0  0  0  0  0  0
  -20.5688  -26.2378   23.3645 H   0  0  0  0  0  0
  -21.6660  -26.7425   22.1201 H   0  0  0  0  0  0
  -19.6929  -25.6291   21.1274 H   0  0  0  0  0  0
  -19.6706  -27.3181   20.6735 H   0  0  0  0  0  0
  -17.4222  -26.6714   21.4030 H   0  0  0  0  0  0
  -18.0334  -26.0103   22.9030 H   0  0  0  0  0  0
  -19.7967  -30.7333   24.2205 H   0  0  0  0  0  0
  -17.5042  -31.6283   24.5173 H   0  0  0  0  0  0
  -15.5375  -30.2989   23.7701 H   0  0  0  0  0  0
  -15.8702  -28.0818   22.7117 H   0  0  0  0  0  0
  -24.5906  -30.7123   25.7713 H   0  0  0  0  0  0
  -24.8886  -32.3011   26.4649 H   0  0  0  0  0  0
  -25.7959  -30.9087   27.0245 H   0  0  0  0  0  0
  -26.3112  -29.6599   24.1386 H   0  0  0  0  0  0
  -27.3957  -29.7243   25.5060 H   0  0  0  0  0  0
  -27.9074  -30.4082   23.9846 H   0  0  0  0  0  0
  -27.2691  -33.3715   26.1884 H   0  0  0  0  0  0
  -28.4003  -32.6732   25.0388 H   0  0  0  0  0  0
  -28.0629  -31.8561   26.5570 H   0  0  0  0  0  0
  -28.2552  -38.0066   24.7533 H   0  0  0  0  0  0
  -28.1071  -36.2594   24.6262 H   0  0  0  0  0  0
  -27.2291  -37.1352   25.8877 H   0  0  0  0  0  0
  -20.9585  -29.8742   21.6679 H   0  0  0  0  0  0
  -26.0105  -38.2764   24.1470 H   0  0  0  0  0  0
  -29.8076  -22.6946   22.0168 H   0  0  0  0  0  0
  -30.4734  -20.1456   23.2161 H   0  0  0  0  0  0
  -31.7460  -20.4077   22.0306 H   0  0  0  0  0  0
  -30.2315  -17.9239   22.6406 H   0  0  0  0  0  0
  -31.8128  -18.0184   21.9180 H   0  0  0  0  0  0
  -30.8906  -18.1549   19.7314 H   0  0  0  0  0  0
  -28.5603  -18.6415   17.9776 H   0  0  0  0  0  0
  -27.8642  -20.1102   17.2964 H   0  0  0  0  0  0
  -26.9340  -19.1448   18.4486 H   0  0  0  0  0  0
  -27.0334  -24.1738   20.9904 H   0  0  0  0  0  0
  -27.2087  -24.1778   19.2797 H   0  0  0  0  0  0
  -28.7264  -16.3288   20.5478 H   0  0  0  0  0  0
  1 25  1  0  0  0
  1 30  2  0  0  0
  1 82  1  0  0  0
  2  3  1  0  0  0
  2 25  1  0  0  0
  2 83  1  0  0  0
  2 84  1  0  0  0
  3  4  1  0  0  0
  3 85  1  0  0  0
  3 86  1  0  0  0
  4  5  1  0  0  0
  4 87  1  0  0  0
  4 88  1  0  0  0
  5  6  1  0  0  0
  5 26  1  0  0  0
  5 89  1  0  0  0
  6 25  1  0  0  0
  6 90  1  0  0  0
  6 91  1  0  0  0
  7  8  2  0  0  0
  7 26  1  0  0  0
  7 29  1  0  0  0
  8  9  1  0  0  0
  8 22  1  0  0  0
  9 10  1  0  0  0
  9 27  2  0  0  0
 10 11  2  0  0  0
 10 15  1  0  0  0
 11 12  1  0  0  0
 11 92  1  0  0  0
 12 13  2  0  0  0
 12 93  1  0  0  0
 13 14  1  0  0  0
 13 31  1  0  0  0
 14 15  2  0  0  0
 14 94  1  0  0  0
 15 95  1  0  0  0
 16 17  2  0  0  0
 16 21  1  0  0  0
 16 31  1  0  0  0
 17 18  1  0  0  0
 17 96  1  0  0  0
 18 19  2  0  0  0
 18 97  1  0  0  0
 19 20  1  0  0  0
 19 24  1  0  0  0
 20 21  2  0  0  0
 20 98  1  0  0  0
 21 23  1  0  0  0
 22 28  1  0  0  0
 22 32  2  0  0  0
 26 27  1  0  0  0
 28 99  1  0  0  0
 28100  1  0  0  0
 29101  1  0  0  0
 29102  1  0  0  0
 33 34  1  0  0  0
 33 66  1  0  0  0
 33 70  2  0  0  0
 34 36  1  0  0  0
 34 59  1  0  0  0
 34103  1  0  0  0
 35 44  2  0  0  0
 35 45  1  0  0  0
 35 68  1  0  0  0
 36 56  1  0  0  0
 36104  1  0  0  0
 37 39  1  0  0  0
 37 47  1  0  0  0
 37 66  1  0  0  0
 37105  1  0  0  0
 38 43  2  0  0  0
 38 46  1  0  0  0
 38 47  1  0  0  0
 39 64  1  0  0  0
 39 67  2  0  0  0
 40 52  1  0  0  0
 40 53  2  0  0  0
 40 58  1  0  0  0
 41106  1  0  0  0
 41107  1  0  0  0
 41108  1  0  0  0
 41 48  1  0  0  0
 42 43  1  0  0  0
 42 66  1  0  0  0
 42109  1  0  0  0
 42110  1  0  0  0
 43 44  1  0  0  0
 44111  1  0  0  0
 45 46  2  0  0  0
 45112  1  0  0  0
 46113  1  0  0  0
 47114  1  0  0  0
 47115  1  0  0  0
 48 56  1  0  0  0
 48 65  1  0  0  0
 48116  1  0  0  0
 49 50  1  0  0  0
 49 53  1  0  0  0
 49 64  1  0  0  0
 49117  1  0  0  0
 50 51  1  0  0  0
 50118  1  0  0  0
 50119  1  0  0  0
 51 52  1  0  0  0
 51120  1  0  0  0
 51121  1  0  0  0
 52122  1  0  0  0
 52123  1  0  0  0
 53 54  1  0  0  0
 54 55  2  0  0  0
 54124  1  0  0  0
 55 57  1  0  0  0
 55125  1  0  0  0
 56 69  2  0  0  0
 57 58  2  0  0  0
 57126  1  0  0  0
 58127  1  0  0  0
 59 60  1  0  0  0
 59 61  1  0  0  0
 59 62  1  0  0  0
 60128  1  0  0  0
 60129  1  0  0  0
 60130  1  0  0  0
 61131  1  0  0  0
 61132  1  0  0  0
 61133  1  0  0  0
 62134  1  0  0  0
 62135  1  0  0  0
 62136  1  0  0  0
 63 65  1  0  0  0
 63137  1  0  0  0
 63138  1  0  0  0
 63139  1  0  0  0
 64140  1  0  0  0
 65141  1  0  0  0
 68 80  1  0  0  0
 71 72  2  0  0  0
 71 74  1  0  0  0
 71142  1  0  0  0
 72 73  1  0  0  0
 72 76  1  0  0  0
 73 75  2  0  0  0
 73 78  1  0  0  0
 74 80  1  0  0  0
 74 81  2  0  0  0
 75 79  1  0  0  0
 75 81  1  0  0  0
 76 77  1  0  0  0
 76143  1  0  0  0
 76144  1  0  0  0
 77 78  1  0  0  0
 77145  1  0  0  0
 77146  1  0  0  0
 78 82  1  0  0  0
 78147  1  0  0  0
 79148  1  0  0  0
 79149  1  0  0  0
 79150  1  0  0  0
 80151  1  0  0  0
 80152  1  0  0  0
 82153  1  0  0  0
M  ISO  4   1 100  68 101  80 101  82 100
M  END
> <chiral flag>
0

> <version>
0

> <s_m_source_file>
/data/baiqing/PycharmProjects/Reinvent-master-3.2/result/LINK_invent/BTK/process_docking_weight1_custom_sum_contain_oxygen_bond_distance_aromatic_linkinvent_7_9_3/rearranged_h_0178.sdf

> <i_m_source_file_index>
6

> <r_mmod_Potential_Energy-OPLS-2005>
1026.94592285156

> <r_mmod_Stretch_Energy-OPLS-2005>
465.542022705078

> <r_mmod_Bend_Energy-OPLS-2005>
485.920318603516

> <r_mmod_Torsional_Energy-OPLS-2005>
227.641723632812

> <r_mmod_Improper_Torsional_Energy-OPLS-2005>
7.30767679214478

> <r_mmod_Van_der_Waal_Energy-OPLS-2005>
126.809928894043

> <r_mmod_Electrostatic_Energy-OPLS-2005>
-473.044128417969

> <r_mmod_Solvation_Energy-OPLS-2005>
-228.444076538086

> <b_mmod_Minimization_Converged-OPLS-2005>
0

> <r_mmod_RMS_Derivative-OPLS-2005>
0.90168422460556

$$$$
6
                    3D
 Structure written by MMmdl.
157166  0  0  1  0            999 V2000
  -30.5537  -15.0391   20.3959 C   0  0  0  0  0  0
  -30.4293  -12.6532   19.4909 C   0  0  0  0  0  0
  -29.5177  -12.5453   18.2491 C   0  0  0  0  0  0
  -28.0570  -12.3069   18.6741 C   0  0  0  0  0  0
  -27.6206  -13.2511   19.8259 C   0  0  2  0  0  0
  -28.6698  -13.3153   20.9572 C   0  0  0  0  0  0
  -25.2415  -13.8198   20.5686 C   0  0  0  0  0  0
  -24.1755  -13.0415   20.9187 C   0  0  0  0  0  0
  -24.6362  -11.6911   20.8687 C   0  0  0  0  0  0
  -23.9053  -10.4288   21.0335 C   0  0  0  0  0  0
  -24.3612   -9.4231   21.9126 C   0  0  0  0  0  0
  -23.6289   -8.2265   22.0739 C   0  0  0  0  0  0
  -22.4275   -8.0275   21.3536 C   0  0  0  0  0  0
  -21.9896   -9.0235   20.4639 C   0  0  0  0  0  0
  -22.7206  -10.2119   20.3009 C   0  0  0  0  0  0
  -21.6876   -6.0709   22.5260 C   0  0  0  0  0  0
  -21.4028   -6.5616   23.8194 C   0  0  0  0  0  0
  -21.3674   -5.6772   24.9155 C   0  0  0  0  0  0
  -21.6045   -4.3035   24.7207 C   0  0  0  0  0  0
  -21.8829   -3.8113   23.4333 C   0  0  0  0  0  0
  -21.9203   -4.6938   22.3380 C   0  0  0  0  0  0
  -22.7780  -13.5199   21.1823 C   0  0  0  0  0  0
  -22.1671   -4.2126   21.0959 F   0  0  0  0  0  0
  -21.5637   -3.4513   25.7728 F   0  0  0  0  0  0
  -29.9209  -13.7816   20.3376 N   0  0  0  0  0  0
  -26.2839  -12.9447   20.3190 N   0  0  0  0  0  0
  -25.9300  -11.6571   20.5686 N   0  0  0  0  0  0
  -22.0424  -12.8233   22.0423 N   0  0  0  0  0  0
  -25.4033  -15.1920   20.4150 N   0  0  0  0  0  0
  -31.7687  -15.0138   20.1568 O   0  0  0  0  0  0
  -21.6662   -6.8854   21.4230 O   0  0  0  0  0  0
  -22.3493  -14.5487   20.6636 O   0  0  0  0  0  0
  -24.6479  -31.8383   23.1869 C   0  0  0  0  0  0
  -25.9266  -32.4648   23.8234 C   0  0  1  0  0  0
  -27.2209  -27.1073   20.1531 C   0  0  0  0  0  0
  -25.6023  -33.8458   24.2168 N   0  0  0  0  0  0
  -23.4500  -30.4569   21.5343 C   0  0  2  0  0  0
  -24.8998  -28.8747   20.1134 C   0  0  0  0  0  0
  -22.7575  -29.4528   22.4886 C   0  0  0  0  0  0
  -18.0298  -28.1366   22.8464 C   0  0  0  0  0  0
  -24.1502  -36.7244   23.2638 C   0  0  0  0  0  0
  -26.0080  -30.7026   21.3881 C   0  0  0  0  0  0
  -26.0780  -29.3094   20.7328 C   0  0  0  0  0  0
  -27.2406  -28.4449   20.7319 C   0  0  0  0  0  0
  -26.0175  -26.7829   19.4905 C   0  0  0  0  0  0
  -24.8834  -27.6250   19.4744 C   0  0  0  0  0  0
  -23.6769  -29.7805   20.1548 C   0  0  0  0  0  0
  -25.4132  -36.2999   24.0304 C   0  0  1  0  0  0
  -20.5910  -28.3710   23.1239 C   0  0  2  0  0  0
  -20.6807  -26.9422   22.5398 C   0  0  0  0  0  0
  -19.5796  -26.6362   21.5199 C   0  0  0  0  0  0
  -18.1964  -26.7916   22.1595 C   0  0  0  0  0  0
  -19.1556  -28.8866   23.2835 C   0  0  0  0  0  0
  -18.9470  -30.1455   23.8861 C   0  0  0  0  0  0
  -17.6470  -30.6576   24.0545 C   0  0  0  0  0  0
  -25.9093  -34.9376   23.5042 C   0  0  0  0  0  0
  -16.5357  -29.9051   23.6351 C   0  0  0  0  0  0
  -16.7286  -28.6466   23.0381 C   0  0  0  0  0  0
  -26.4587  -31.6523   25.0686 C   0  0  0  0  0  0
  -25.3779  -31.3700   26.1387 C   0  0  0  0  0  0
  -27.0479  -30.2924   24.6283 C   0  0  0  0  0  0
  -27.6122  -32.4282   25.7466 C   0  0  0  0  0  0
  -27.5579  -37.1771   24.8450 C   0  0  0  0  0  0
  -21.4264  -29.3031   22.3628 N   0  0  0  0  0  0
  -26.4280  -37.3720   23.9404 N   0  0  0  0  0  0
  -24.7213  -31.0218   22.0903 N   0  0  0  0  0  0
  -23.4201  -28.8100   23.3070 O   0  0  0  0  0  0
  -28.2734  -26.1105   20.1625 O   0  0  0  0  0  0
  -26.5659  -34.8884   22.4599 O   0  0  0  0  0  0
  -23.5618  -32.1278   23.7102 O   0  0  0  0  0  0
  -30.1709  -22.6296   21.7549 C   0  0  0  0  0  0
  -29.7651  -20.5474   20.9825 C   0  0  0  0  0  0
  -30.6452  -20.5679   22.0663 C   0  0  0  0  0  0
  -28.3697  -18.2197   21.1631 C   0  0  0  0  0  0
  -28.5028  -16.6802   20.8287 C   0  0  0  0  0  0
  -30.4351  -17.7716   20.1610 C   0  0  0  0  0  0
  -29.3795  -19.0584   20.3474 C   0  0  2  0  0  0
  -31.3411  -19.4605   22.8085 C   0  0  0  0  0  0
  -28.6068  -23.0949   19.9565 C   0  0  0  0  0  0
  -28.0185  -24.6047   20.5469 C   0  0  0  0  0  0
  -30.8980  -21.8479   22.5202 N   0  0  0  0  0  0
  -29.4121  -22.0345   20.8234 N   0  0  0  0  0  0
  -29.8840  -16.3322   20.4389 N   0  0  0  0  0  0
  -31.4610  -12.8005   19.1753 H   0  0  0  0  0  0
  -30.4292  -11.7128   20.0446 H   0  0  0  0  0  0
  -29.8644  -11.7420   17.5972 H   0  0  0  0  0  0
  -29.5830  -13.4640   17.6629 H   0  0  0  0  0  0
  -27.9705  -11.2675   18.9934 H   0  0  0  0  0  0
  -27.3912  -12.4113   17.8173 H   0  0  0  0  0  0
  -27.5723  -14.2427   19.3795 H   0  0  0  0  0  0
  -28.7942  -12.3367   21.4236 H   0  0  0  0  0  0
  -28.3552  -13.9811   21.7549 H   0  0  0  0  0  0
  -25.2740   -9.5755   22.4698 H   0  0  0  0  0  0
  -24.0010   -7.4687   22.7468 H   0  0  0  0  0  0
  -21.0812   -8.8697   19.8970 H   0  0  0  0  0  0
  -22.3581  -10.9630   19.6119 H   0  0  0  0  0  0
  -21.2030   -7.6129   23.9693 H   0  0  0  0  0  0
  -21.1487   -6.0495   25.9067 H   0  0  0  0  0  0
  -22.0602   -2.7574   23.2819 H   0  0  0  0  0  0
  -22.4069  -11.9950   22.4878 H   0  0  0  0  0  0
  -21.1015  -13.1247   22.2538 H   0  0  0  0  0  0
  -24.6318  -15.8373   20.5467 H   0  0  0  0  0  0
  -26.2522  -15.6455   20.1072 H   0  0  0  0  0  0
  -26.7318  -32.5241   23.0948 H   0  0  0  0  0  0
  -25.0216  -33.9529   25.0353 H   0  0  0  0  0  0
  -22.7530  -31.2830   21.3806 H   0  0  0  0  0  0
  -23.3762  -35.9579   23.3244 H   0  0  0  0  0  0
  -24.3600  -36.8939   22.2066 H   0  0  0  0  0  0
  -23.7265  -37.6421   23.6722 H   0  0  0  0  0  0
  -26.1677  -31.4537   20.6136 H   0  0  0  0  0  0
  -26.8765  -30.7514   22.0321 H   0  0  0  0  0  0
  -28.1410  -28.7802   21.2266 H   0  0  0  0  0  0
  -25.9383  -25.8332   18.9803 H   0  0  0  0  0  0
  -23.9891  -27.2904   18.9669 H   0  0  0  0  0  0
  -23.8156  -30.5531   19.3984 H   0  0  0  0  0  0
  -22.7893  -29.2246   19.8470 H   0  0  0  0  0  0
  -25.1334  -36.1785   25.0798 H   0  0  0  0  0  0
  -20.9985  -28.3290   24.1367 H   0  0  0  0  0  0
  -20.5715  -26.2314   23.3600 H   0  0  0  0  0  0
  -21.6674  -26.7450   22.1191 H   0  0  0  0  0  0
  -19.6971  -25.6262   21.1255 H   0  0  0  0  0  0
  -19.6749  -27.3147   20.6706 H   0  0  0  0  0  0
  -17.4253  -26.6660   21.3974 H   0  0  0  0  0  0
  -18.0364  -26.0029   22.8962 H   0  0  0  0  0  0
  -19.7940  -30.7278   24.2218 H   0  0  0  0  0  0
  -17.5016  -31.6258   24.5130 H   0  0  0  0  0  0
  -15.5359  -30.2942   23.7694 H   0  0  0  0  0  0
  -15.8676  -28.0751   22.7164 H   0  0  0  0  0  0
  -24.5949  -30.7063   25.7693 H   0  0  0  0  0  0
  -24.8991  -32.2880   26.4800 H   0  0  0  0  0  0
  -25.8075  -30.8859   27.0165 H   0  0  0  0  0  0
  -26.3106  -29.6585   24.1347 H   0  0  0  0  0  0
  -27.4165  -29.7281   25.4857 H   0  0  0  0  0  0
  -27.8979  -30.4160   23.9569 H   0  0  0  0  0  0
  -27.2727  -33.3589   26.2014 H   0  0  0  0  0  0
  -28.3958  -32.6811   25.0313 H   0  0  0  0  0  0
  -28.0772  -31.8417   26.5401 H   0  0  0  0  0  0
  -28.2570  -38.0094   24.7537 H   0  0  0  0  0  0
  -28.1109  -36.2634   24.6229 H   0  0  0  0  0  0
  -27.2309  -37.1353   25.8853 H   0  0  0  0  0  0
  -20.9501  -29.8712   21.6763 H   0  0  0  0  0  0
  -26.0134  -38.2780   24.1413 H   0  0  0  0  0  0
  -30.2012  -23.7019   21.8871 H   0  0  0  0  0  0
  -28.5877  -18.3435   22.2242 H   0  0  0  0  0  0
  -27.3491  -18.5808   21.0283 H   0  0  0  0  0  0
  -27.8594  -16.4489   19.9814 H   0  0  0  0  0  0
  -28.1562  -16.1003   21.6814 H   0  0  0  0  0  0
  -31.3317  -17.8945   20.7591 H   0  0  0  0  0  0
  -30.8051  -17.7907   19.1345 H   0  0  0  0  0  0
  -28.9234  -19.2393   19.3734 H   0  0  0  0  0  0
  -30.7526  -18.5485   22.8543 H   0  0  0  0  0  0
  -31.5402  -19.7349   23.8448 H   0  0  0  0  0  0
  -32.3068  -19.2282   22.3554 H   0  0  0  0  0  0
  -29.2170  -23.3077   19.0783 H   0  0  0  0  0  0
  -27.7438  -22.5601   19.5590 H   0  0  0  0  0  0
  -28.1736  -24.5993   21.6242 H   0  0  0  0  0  0
  -26.9374  -24.4869   20.4821 H   0  0  0  0  0  0
  1 25  1  0  0  0
  1 30  2  0  0  0
  1 83  1  0  0  0
  2  3  1  0  0  0
  2 25  1  0  0  0
  2 84  1  0  0  0
  2 85  1  0  0  0
  3  4  1  0  0  0
  3 86  1  0  0  0
  3 87  1  0  0  0
  4  5  1  0  0  0
  4 88  1  0  0  0
  4 89  1  0  0  0
  5  6  1  0  0  0
  5 26  1  0  0  0
  5 90  1  0  0  0
  6 25  1  0  0  0
  6 91  1  0  0  0
  6 92  1  0  0  0
  7  8  2  0  0  0
  7 26  1  0  0  0
  7 29  1  0  0  0
  8  9  1  0  0  0
  8 22  1  0  0  0
  9 10  1  0  0  0
  9 27  2  0  0  0
 10 11  2  0  0  0
 10 15  1  0  0  0
 11 12  1  0  0  0
 11 93  1  0  0  0
 12 13  2  0  0  0
 12 94  1  0  0  0
 13 14  1  0  0  0
 13 31  1  0  0  0
 14 15  2  0  0  0
 14 95  1  0  0  0
 15 96  1  0  0  0
 16 17  2  0  0  0
 16 21  1  0  0  0
 16 31  1  0  0  0
 17 18  1  0  0  0
 17 97  1  0  0  0
 18 19  2  0  0  0
 18 98  1  0  0  0
 19 20  1  0  0  0
 19 24  1  0  0  0
 20 21  2  0  0  0
 20 99  1  0  0  0
 21 23  1  0  0  0
 22 28  1  0  0  0
 22 32  2  0  0  0
 26 27  1  0  0  0
 28100  1  0  0  0
 28101  1  0  0  0
 29102  1  0  0  0
 29103  1  0  0  0
 33 34  1  0  0  0
 33 66  1  0  0  0
 33 70  2  0  0  0
 34 36  1  0  0  0
 34 59  1  0  0  0
 34104  1  0  0  0
 35 44  2  0  0  0
 35 45  1  0  0  0
 35 68  1  0  0  0
 36 56  1  0  0  0
 36105  1  0  0  0
 37 39  1  0  0  0
 37 47  1  0  0  0
 37 66  1  0  0  0
 37106  1  0  0  0
 38 43  2  0  0  0
 38 46  1  0  0  0
 38 47  1  0  0  0
 39 64  1  0  0  0
 39 67  2  0  0  0
 40 52  1  0  0  0
 40 53  2  0  0  0
 40 58  1  0  0  0
 41107  1  0  0  0
 41108  1  0  0  0
 41109  1  0  0  0
 41 48  1  0  0  0
 42 43  1  0  0  0
 42 66  1  0  0  0
 42110  1  0  0  0
 42111  1  0  0  0
 43 44  1  0  0  0
 44112  1  0  0  0
 45 46  2  0  0  0
 45113  1  0  0  0
 46114  1  0  0  0
 47115  1  0  0  0
 47116  1  0  0  0
 48 56  1  0  0  0
 48 65  1  0  0  0
 48117  1  0  0  0
 49 50  1  0  0  0
 49 53  1  0  0  0
 49 64  1  0  0  0
 49118  1  0  0  0
 50 51  1  0  0  0
 50119  1  0  0  0
 50120  1  0  0  0
 51 52  1  0  0  0
 51121  1  0  0  0
 51122  1  0  0  0
 52123  1  0  0  0
 52124  1  0  0  0
 53 54  1  0  0  0
 54 55  2  0  0  0
 54125  1  0  0  0
 55 57  1  0  0  0
 55126  1  0  0  0
 56 69  2  0  0  0
 57 58  2  0  0  0
 57127  1  0  0  0
 58128  1  0  0  0
 59 60  1  0  0  0
 59 61  1  0  0  0
 59 62  1  0  0  0
 60129  1  0  0  0
 60130  1  0  0  0
 60131  1  0  0  0
 61132  1  0  0  0
 61133  1  0  0  0
 61134  1  0  0  0
 62135  1  0  0  0
 62136  1  0  0  0
 62137  1  0  0  0
 63 65  1  0  0  0
 63138  1  0  0  0
 63139  1  0  0  0
 63140  1  0  0  0
 64141  1  0  0  0
 65142  1  0  0  0
 68 80  1  0  0  0
 71 81  2  0  0  0
 71 82  1  0  0  0
 71143  1  0  0  0
 72 73  2  0  0  0
 72 82  1  0  0  0
 72 77  1  0  0  0
 73 78  1  0  0  0
 73 81  1  0  0  0
 74 75  1  0  0  0
 74 77  1  0  0  0
 74144  1  0  0  0
 74145  1  0  0  0
 75 83  1  0  0  0
 75146  1  0  0  0
 75147  1  0  0  0
 76 77  1  0  0  0
 76 83  1  0  0  0
 76148  1  0  0  0
 76149  1  0  0  0
 77150  1  0  0  0
 78151  1  0  0  0
 78152  1  0  0  0
 78153  1  0  0  0
 79 80  1  0  0  0
 79 82  1  0  0  0
 79154  1  0  0  0
 79155  1  0  0  0
 80156  1  0  0  0
 80157  1  0  0  0
M  ISO  4   1 100  68 101  80 101  83 100
M  END
> <chiral flag>
0

> <version>
0

> <s_m_source_file>
/data/baiqing/PycharmProjects/Reinvent-master-3.2/result/LINK_invent/BTK/process_docking_weight1_custom_sum_contain_oxygen_bond_distance_aromatic_linkinvent_7_9_3/rearranged_h_0178.sdf

> <i_m_source_file_index>
7

> <r_mmod_Potential_Energy-OPLS-2005>
896.56787109375

> <r_mmod_Stretch_Energy-OPLS-2005>
340.889007568359

> <r_mmod_Bend_Energy-OPLS-2005>
393.579223632812

> <r_mmod_Torsional_Energy-OPLS-2005>
350.38330078125

> <r_mmod_Improper_Torsional_Energy-OPLS-2005>
6.63091039657593

> <r_mmod_Van_der_Waal_Energy-OPLS-2005>
110.469024658203

> <r_mmod_Electrostatic_Energy-OPLS-2005>
-314.871368408203

> <r_mmod_Solvation_Energy-OPLS-2005>
-224.092697143555

> <b_mmod_Minimization_Converged-OPLS-2005>
0

> <r_mmod_RMS_Derivative-OPLS-2005>
3.0183892250061

$$$$
7
                    3D
 Structure written by MMmdl.
157165  0  0  1  0            999 V2000
  -30.5603  -14.8780   20.4264 C   0  0  0  0  0  0
  -30.4429  -12.5369   19.4996 C   0  0  0  0  0  0
  -29.5248  -12.5162   18.2565 C   0  0  0  0  0  0
  -28.0534  -12.3202   18.6706 C   0  0  0  0  0  0
  -27.6376  -13.2422   19.8464 C   0  0  2  0  0  0
  -28.6799  -13.2342   20.9853 C   0  0  0  0  0  0
  -25.2499  -13.8224   20.5707 C   0  0  0  0  0  0
  -24.1807  -13.0451   20.9231 C   0  0  0  0  0  0
  -24.6419  -11.6937   20.8773 C   0  0  0  0  0  0
  -23.9095  -10.4308   21.0424 C   0  0  0  0  0  0
  -24.3638   -9.4211   21.9192 C   0  0  0  0  0  0
  -23.6307   -8.2243   22.0752 C   0  0  0  0  0  0
  -22.4283   -8.0292   21.3542 C   0  0  0  0  0  0
  -21.9931   -9.0272   20.4643 C   0  0  0  0  0  0
  -22.7271  -10.2149   20.3062 C   0  0  0  0  0  0
  -21.6852   -6.0753   22.5284 C   0  0  0  0  0  0
  -21.4017   -6.5648   23.8221 C   0  0  0  0  0  0
  -21.3662   -5.6793   24.9175 C   0  0  0  0  0  0
  -21.6035   -4.3056   24.7220 C   0  0  0  0  0  0
  -21.8818   -3.8156   23.4342 C   0  0  0  0  0  0
  -21.9197   -4.6982   22.3404 C   0  0  0  0  0  0
  -22.7822  -13.5230   21.1868 C   0  0  0  0  0  0
  -22.1659   -4.2170   21.0978 F   0  0  0  0  0  0
  -21.5630   -3.4532   25.7729 F   0  0  0  0  0  0
  -29.9676  -13.6232   20.3984 N   0  0  0  0  0  0
  -26.2924  -12.9440   20.3267 N   0  0  0  0  0  0
  -25.9348  -11.6574   20.5752 N   0  0  0  0  0  0
  -22.0455  -12.8229   22.0420 N   0  0  0  0  0  0
  -25.4174  -15.1947   20.4121 N   0  0  0  0  0  0
  -31.7484  -14.9680   20.0997 O   0  0  0  0  0  0
  -21.6638   -6.8894   21.4241 O   0  0  0  0  0  0
  -22.3512  -14.5531   20.6708 O   0  0  0  0  0  0
  -24.6410  -31.8484   23.1912 C   0  0  0  0  0  0
  -25.9197  -32.4725   23.8291 C   0  0  1  0  0  0
  -27.2150  -27.1693   20.1573 C   0  0  0  0  0  0
  -25.5964  -33.8526   24.2222 N   0  0  0  0  0  0
  -23.4431  -30.4704   21.5349 C   0  0  2  0  0  0
  -24.8951  -28.9064   20.1071 C   0  0  0  0  0  0
  -22.7562  -29.4578   22.4852 C   0  0  0  0  0  0
  -18.0310  -28.1385   22.8485 C   0  0  0  0  0  0
  -24.1493  -36.7263   23.2641 C   0  0  0  0  0  0
  -25.9979  -30.7335   21.3864 C   0  0  0  0  0  0
  -26.0708  -29.3474   20.7300 C   0  0  0  0  0  0
  -27.2356  -28.4958   20.7384 C   0  0  0  0  0  0
  -26.0228  -26.8327   19.4797 C   0  0  0  0  0  0
  -24.8839  -27.6625   19.4622 C   0  0  0  0  0  0
  -23.6678  -29.8019   20.1530 C   0  0  0  0  0  0
  -25.4124  -36.3051   24.0322 C   0  0  1  0  0  0
  -20.5923  -28.3717   23.1244 C   0  0  2  0  0  0
  -20.6795  -26.9422   22.5405 C   0  0  0  0  0  0
  -19.5763  -26.6379   21.5217 C   0  0  0  0  0  0
  -18.1944  -26.7929   22.1625 C   0  0  0  0  0  0
  -19.1565  -28.8865   23.2864 C   0  0  0  0  0  0
  -18.9479  -30.1464   23.8891 C   0  0  0  0  0  0
  -17.6474  -30.6585   24.0558 C   0  0  0  0  0  0
  -25.9072  -34.9423   23.5077 C   0  0  0  0  0  0
  -16.5366  -29.9079   23.6328 C   0  0  0  0  0  0
  -16.7299  -28.6490   23.0364 C   0  0  0  0  0  0
  -26.4526  -31.6569   25.0710 C   0  0  0  0  0  0
  -25.3721  -31.3742   26.1409 C   0  0  0  0  0  0
  -27.0373  -30.2971   24.6255 C   0  0  0  0  0  0
  -27.6068  -32.4326   25.7492 C   0  0  0  0  0  0
  -27.5581  -37.1789   24.8469 C   0  0  0  0  0  0
  -21.4253  -29.3053   22.3609 N   0  0  0  0  0  0
  -26.4292  -37.3757   23.9406 N   0  0  0  0  0  0
  -24.7133  -31.0375   22.0928 N   0  0  0  0  0  0
  -23.4222  -28.8121   23.2987 O   0  0  0  0  0  0
  -28.2465  -26.1712   20.2067 O   0  0  0  0  0  0
  -26.5648  -34.8912   22.4650 O   0  0  0  0  0  0
  -23.5536  -32.1344   23.7149 O   0  0  0  0  0  0
  -29.5544  -22.6539   21.2709 C   0  0  0  0  0  0
  -28.0928  -21.0295   19.7035 C   0  0  0  0  0  0
  -29.0721  -20.3873   20.5490 C   0  0  0  0  0  0
  -28.5423  -23.2914   20.4601 C   0  0  0  0  0  0
  -30.3946  -23.4552   22.2478 C   0  0  0  0  0  0
  -27.7024  -20.1528   17.3608 C   0  0  0  0  0  0
  -27.1709  -20.2268   18.7965 C   0  0  0  0  0  0
  -29.1126  -18.7771   20.9125 C   0  0  0  0  0  0
  -27.8564  -24.7683   20.7211 C   0  0  0  0  0  0
  -30.0283  -17.5506   20.2608 C   0  0  0  0  0  0
  -29.8095  -21.2795   21.2971 N   0  0  0  0  0  0
  -27.8603  -22.4023   19.6607 N   0  0  0  0  0  0
  -29.7749  -16.0363   20.6043 N   0  0  0  0  0  0
  -31.4799  -12.6852   19.1938 H   0  0  0  0  0  0
  -30.4183  -11.5759   20.0159 H   0  0  0  0  0  0
  -29.8309  -11.7204   17.5773 H   0  0  0  0  0  0
  -29.6318  -13.4508   17.7049 H   0  0  0  0  0  0
  -27.9326  -11.2766   18.9623 H   0  0  0  0  0  0
  -27.3962  -12.4734   17.8146 H   0  0  0  0  0  0
  -27.6142  -14.2513   19.4350 H   0  0  0  0  0  0
  -28.7457  -12.2497   21.4498 H   0  0  0  0  0  0
  -28.3928  -13.9285   21.7764 H   0  0  0  0  0  0
  -25.2784   -9.5679   22.4768 H   0  0  0  0  0  0
  -24.0018   -7.4630   22.7472 H   0  0  0  0  0  0
  -21.0862   -8.8807   19.8950 H   0  0  0  0  0  0
  -22.3743  -10.9692   19.6172 H   0  0  0  0  0  0
  -21.1999   -7.6151   23.9730 H   0  0  0  0  0  0
  -21.1481   -6.0516   25.9078 H   0  0  0  0  0  0
  -22.0594   -2.7619   23.2833 H   0  0  0  0  0  0
  -22.4076  -11.9918   22.4852 H   0  0  0  0  0  0
  -21.1059  -13.1246   22.2577 H   0  0  0  0  0  0
  -24.6442  -15.8425   20.5194 H   0  0  0  0  0  0
  -26.2481  -15.6299   20.0326 H   0  0  0  0  0  0
  -26.7261  -32.5345   23.1017 H   0  0  0  0  0  0
  -25.0096  -33.9656   25.0360 H   0  0  0  0  0  0
  -22.7442  -31.2956   21.3842 H   0  0  0  0  0  0
  -23.3767  -35.9584   23.3297 H   0  0  0  0  0  0
  -24.3581  -36.8895   22.2057 H   0  0  0  0  0  0
  -23.7237  -37.6456   23.6674 H   0  0  0  0  0  0
  -26.1502  -31.4891   20.6140 H   0  0  0  0  0  0
  -26.8715  -30.7843   22.0255 H   0  0  0  0  0  0
  -28.1300  -28.8307   21.2441 H   0  0  0  0  0  0
  -25.9478  -25.8839   18.9694 H   0  0  0  0  0  0
  -23.9931  -27.3271   18.9499 H   0  0  0  0  0  0
  -23.7949  -30.5785   19.3976 H   0  0  0  0  0  0
  -22.7844  -29.2385   19.8457 H   0  0  0  0  0  0
  -25.1307  -36.1883   25.0818 H   0  0  0  0  0  0
  -21.0036  -28.3301   24.1358 H   0  0  0  0  0  0
  -20.5695  -26.2325   23.3620 H   0  0  0  0  0  0
  -21.6655  -26.7424   22.1193 H   0  0  0  0  0  0
  -19.6921  -25.6290   21.1247 H   0  0  0  0  0  0
  -19.6693  -27.3185   20.6748 H   0  0  0  0  0  0
  -17.4217  -26.6693   21.4031 H   0  0  0  0  0  0
  -18.0339  -26.0072   22.9023 H   0  0  0  0  0  0
  -19.7951  -30.7286   24.2259 H   0  0  0  0  0  0
  -17.5022  -31.6269   24.5152 H   0  0  0  0  0  0
  -15.5363  -30.2974   23.7656 H   0  0  0  0  0  0
  -15.8701  -28.0801   22.7092 H   0  0  0  0  0  0
  -24.5910  -30.7085   25.7724 H   0  0  0  0  0  0
  -24.8898  -32.2917   26.4797 H   0  0  0  0  0  0
  -25.8015  -30.8934   27.0210 H   0  0  0  0  0  0
  -26.2965  -29.6712   24.1266 H   0  0  0  0  0  0
  -27.4007  -29.7252   25.4804 H   0  0  0  0  0  0
  -27.8873  -30.4220   23.9541 H   0  0  0  0  0  0
  -27.2670  -33.3646   26.2025 H   0  0  0  0  0  0
  -28.3897  -32.6860   25.0329 H   0  0  0  0  0  0
  -28.0715  -31.8476   26.5441 H   0  0  0  0  0  0
  -28.2592  -38.0093   24.7516 H   0  0  0  0  0  0
  -28.1080  -36.2622   24.6287 H   0  0  0  0  0  0
  -27.2296  -37.1425   25.8871 H   0  0  0  0  0  0
  -20.9454  -29.8764   21.6791 H   0  0  0  0  0  0
  -26.0163  -38.2829   24.1411 H   0  0  0  0  0  0
  -31.4322  -23.4811   21.9145 H   0  0  0  0  0  0
  -30.3697  -22.9996   23.2384 H   0  0  0  0  0  0
  -30.0521  -24.4837   22.3466 H   0  0  0  0  0  0
  -27.0230  -19.5844   16.7256 H   0  0  0  0  0  0
  -28.6797  -19.6694   17.3294 H   0  0  0  0  0  0
  -27.8067  -21.1476   16.9278 H   0  0  0  0  0  0
  -26.1844  -20.6935   18.7920 H   0  0  0  0  0  0
  -27.0080  -19.2218   19.1800 H   0  0  0  0  0  0
  -28.0788  -18.4396   20.8813 H   0  0  0  0  0  0
  -29.3370  -18.7526   21.9795 H   0  0  0  0  0  0
  -27.8365  -24.8782   21.8053 H   0  0  0  0  0  0
  -26.8080  -24.5986   20.4854 H   0  0  0  0  0  0
  -31.0783  -17.7644   20.4612 H   0  0  0  0  0  0
  -29.9273  -17.6214   19.1769 H   0  0  0  0  0  0
  -28.8271  -15.8312   20.8872 H   0  0  0  0  0  0
  1 25  1  0  0  0
  1 30  2  0  0  0
  1 83  1  0  0  0
  2  3  1  0  0  0
  2 25  1  0  0  0
  2 84  1  0  0  0
  2 85  1  0  0  0
  3  4  1  0  0  0
  3 86  1  0  0  0
  3 87  1  0  0  0
  4  5  1  0  0  0
  4 88  1  0  0  0
  4 89  1  0  0  0
  5  6  1  0  0  0
  5 26  1  0  0  0
  5 90  1  0  0  0
  6 25  1  0  0  0
  6 91  1  0  0  0
  6 92  1  0  0  0
  7  8  2  0  0  0
  7 26  1  0  0  0
  7 29  1  0  0  0
  8  9  1  0  0  0
  8 22  1  0  0  0
  9 10  1  0  0  0
  9 27  2  0  0  0
 10 11  2  0  0  0
 10 15  1  0  0  0
 11 12  1  0  0  0
 11 93  1  0  0  0
 12 13  2  0  0  0
 12 94  1  0  0  0
 13 14  1  0  0  0
 13 31  1  0  0  0
 14 15  2  0  0  0
 14 95  1  0  0  0
 15 96  1  0  0  0
 16 17  2  0  0  0
 16 21  1  0  0  0
 16 31  1  0  0  0
 17 18  1  0  0  0
 17 97  1  0  0  0
 18 19  2  0  0  0
 18 98  1  0  0  0
 19 20  1  0  0  0
 19 24  1  0  0  0
 20 21  2  0  0  0
 20 99  1  0  0  0
 21 23  1  0  0  0
 22 28  1  0  0  0
 22 32  2  0  0  0
 26 27  1  0  0  0
 28100  1  0  0  0
 28101  1  0  0  0
 29102  1  0  0  0
 29103  1  0  0  0
 33 34  1  0  0  0
 33 66  1  0  0  0
 33 70  2  0  0  0
 34 36  1  0  0  0
 34 59  1  0  0  0
 34104  1  0  0  0
 35 44  2  0  0  0
 35 45  1  0  0  0
 35 68  1  0  0  0
 36 56  1  0  0  0
 36105  1  0  0  0
 37 39  1  0  0  0
 37 47  1  0  0  0
 37 66  1  0  0  0
 37106  1  0  0  0
 38 43  2  0  0  0
 38 46  1  0  0  0
 38 47  1  0  0  0
 39 64  1  0  0  0
 39 67  2  0  0  0
 40 52  1  0  0  0
 40 53  2  0  0  0
 40 58  1  0  0  0
 41107  1  0  0  0
 41108  1  0  0  0
 41109  1  0  0  0
 41 48  1  0  0  0
 42 43  1  0  0  0
 42 66  1  0  0  0
 42110  1  0  0  0
 42111  1  0  0  0
 43 44  1  0  0  0
 44112  1  0  0  0
 45 46  2  0  0  0
 45113  1  0  0  0
 46114  1  0  0  0
 47115  1  0  0  0
 47116  1  0  0  0
 48 56  1  0  0  0
 48 65  1  0  0  0
 48117  1  0  0  0
 49 50  1  0  0  0
 49 53  1  0  0  0
 49 64  1  0  0  0
 49118  1  0  0  0
 50 51  1  0  0  0
 50119  1  0  0  0
 50120  1  0  0  0
 51 52  1  0  0  0
 51121  1  0  0  0
 51122  1  0  0  0
 52123  1  0  0  0
 52124  1  0  0  0
 53 54  1  0  0  0
 54 55  2  0  0  0
 54125  1  0  0  0
 55 57  1  0  0  0
 55126  1  0  0  0
 56 69  2  0  0  0
 57 58  2  0  0  0
 57127  1  0  0  0
 58128  1  0  0  0
 59 60  1  0  0  0
 59 61  1  0  0  0
 59 62  1  0  0  0
 60129  1  0  0  0
 60130  1  0  0  0
 60131  1  0  0  0
 61132  1  0  0  0
 61133  1  0  0  0
 61134  1  0  0  0
 62135  1  0  0  0
 62136  1  0  0  0
 62137  1  0  0  0
 63 65  1  0  0  0
 63138  1  0  0  0
 63139  1  0  0  0
 63140  1  0  0  0
 64141  1  0  0  0
 65142  1  0  0  0
 68 79  1  0  0  0
 71 74  2  0  0  0
 71 75  1  0  0  0
 71 81  1  0  0  0
 72 73  1  0  0  0
 72 77  1  0  0  0
 72 82  2  0  0  0
 73 78  1  0  0  0
 73 81  2  0  0  0
 74 79  1  0  0  0
 74 82  1  0  0  0
 75143  1  0  0  0
 75144  1  0  0  0
 75145  1  0  0  0
 76 77  1  0  0  0
 76146  1  0  0  0
 76147  1  0  0  0
 76148  1  0  0  0
 77149  1  0  0  0
 77150  1  0  0  0
 78 80  1  0  0  0
 78151  1  0  0  0
 78152  1  0  0  0
 79153  1  0  0  0
 79154  1  0  0  0
 80 83  1  0  0  0
 80155  1  0  0  0
 80156  1  0  0  0
 83157  1  0  0  0
M  ISO  4   1 100  68 101  79 101  83 100
M  END
> <chiral flag>
0

> <version>
0

> <s_m_source_file>
/data/baiqing/PycharmProjects/Reinvent-master-3.2/result/LINK_invent/BTK/process_docking_weight1_custom_sum_contain_oxygen_bond_distance_aromatic_linkinvent_7_9_3/rearranged_h_0178.sdf

> <i_m_source_file_index>
8

> <r_mmod_Potential_Energy-OPLS-2005>
451.832122802734

> <r_mmod_Stretch_Energy-OPLS-2005>
212.827453613281

> <r_mmod_Bend_Energy-OPLS-2005>
244.987533569336

> <r_mmod_Torsional_Energy-OPLS-2005>
231.783660888672

> <r_mmod_Improper_Torsional_Energy-OPLS-2005>
10.2424793243408

> <r_mmod_Van_der_Waal_Energy-OPLS-2005>
135.878189086914

> <r_mmod_Electrostatic_Energy-OPLS-2005>
-312.87158203125

> <r_mmod_Solvation_Energy-OPLS-2005>
-229.376205444336

> <b_mmod_Minimization_Converged-OPLS-2005>
0

> <r_mmod_RMS_Derivative-OPLS-2005>
1.69497835636139

$$$$
8
                    3D
 Structure written by MMmdl.
154163  0  0  1  0            999 V2000
  -30.6025  -14.7623   20.4178 C   0  0  0  0  0  0
  -30.4254  -12.4638   19.4673 C   0  0  0  0  0  0
  -29.5000  -12.4959   18.2333 C   0  0  0  0  0  0
  -28.0279  -12.3234   18.6546 C   0  0  0  0  0  0
  -27.6363  -13.2327   19.8495 C   0  0  2  0  0  0
  -28.6814  -13.1986   20.9850 C   0  0  0  0  0  0
  -25.2513  -13.8199   20.5698 C   0  0  0  0  0  0
  -24.1807  -13.0452   20.9226 C   0  0  0  0  0  0
  -24.6384  -11.6932   20.8763 C   0  0  0  0  0  0
  -23.9072  -10.4312   21.0438 C   0  0  0  0  0  0
  -24.3637   -9.4210   21.9197 C   0  0  0  0  0  0
  -23.6310   -8.2244   22.0759 C   0  0  0  0  0  0
  -22.4296   -8.0292   21.3539 C   0  0  0  0  0  0
  -21.9927   -9.0269   20.4643 C   0  0  0  0  0  0
  -22.7259  -10.2150   20.3063 C   0  0  0  0  0  0
  -21.6862   -6.0752   22.5275 C   0  0  0  0  0  0
  -21.4017   -6.5653   23.8207 C   0  0  0  0  0  0
  -21.3657   -5.6806   24.9168 C   0  0  0  0  0  0
  -21.6039   -4.3068   24.7218 C   0  0  0  0  0  0
  -21.8823   -3.8159   23.4342 C   0  0  0  0  0  0
  -21.9199   -4.6978   22.3397 C   0  0  0  0  0  0
  -22.7823  -13.5224   21.1841 C   0  0  0  0  0  0
  -22.1671   -4.2161   21.0972 F   0  0  0  0  0  0
  -21.5622   -3.4545   25.7726 F   0  0  0  0  0  0
  -29.9753  -13.5380   20.3854 N   0  0  0  0  0  0
  -26.2927  -12.9404   20.3309 N   0  0  0  0  0  0
  -25.9310  -11.6544   20.5775 N   0  0  0  0  0  0
  -22.0482  -12.8228   22.0424 N   0  0  0  0  0  0
  -25.4181  -15.1926   20.4065 N   0  0  0  0  0  0
  -31.8082  -14.8298   20.1660 O   0  0  0  0  0  0
  -21.6666   -6.8893   21.4237 O   0  0  0  0  0  0
  -22.3517  -14.5540   20.6703 O   0  0  0  0  0  0
  -24.6321  -31.8523   23.1946 C   0  0  0  0  0  0
  -25.9166  -32.4709   23.8269 C   0  0  1  0  0  0
  -27.2268  -27.2653   20.1442 C   0  0  0  0  0  0
  -25.5930  -33.8507   24.2201 N   0  0  0  0  0  0
  -23.4277  -30.4720   21.5350 C   0  0  2  0  0  0
  -24.8780  -28.9025   20.1272 C   0  0  0  0  0  0
  -22.7470  -29.4606   22.4879 C   0  0  0  0  0  0
  -18.0271  -28.1431   22.8442 C   0  0  0  0  0  0
  -24.1498  -36.7299   23.2615 C   0  0  0  0  0  0
  -25.9712  -30.7663   21.3755 C   0  0  0  0  0  0
  -26.0459  -29.3834   20.7321 C   0  0  0  0  0  0
  -27.2276  -28.5791   20.7236 C   0  0  0  0  0  0
  -26.0329  -26.8342   19.5375 C   0  0  0  0  0  0
  -24.8684  -27.6327   19.5273 C   0  0  0  0  0  0
  -23.6515  -29.7917   20.1599 C   0  0  0  0  0  0
  -25.4111  -36.3035   24.0300 C   0  0  1  0  0  0
  -20.5865  -28.3750   23.1265 C   0  0  2  0  0  0
  -20.6815  -26.9464   22.5450 C   0  0  0  0  0  0
  -19.5815  -26.6428   21.5247 C   0  0  0  0  0  0
  -18.1968  -26.7978   22.1586 C   0  0  0  0  0  0
  -19.1533  -28.8896   23.2840 C   0  0  0  0  0  0
  -18.9440  -30.1498   23.8862 C   0  0  0  0  0  0
  -17.6443  -30.6606   24.0590 C   0  0  0  0  0  0
  -25.9054  -34.9400   23.5049 C   0  0  0  0  0  0
  -16.5329  -29.9112   23.6341 C   0  0  0  0  0  0
  -16.7270  -28.6573   23.0273 C   0  0  0  0  0  0
  -26.4523  -31.6521   25.0666 C   0  0  0  0  0  0
  -25.3762  -31.3710   26.1417 C   0  0  0  0  0  0
  -27.0362  -30.2928   24.6163 C   0  0  0  0  0  0
  -27.6039  -32.4259   25.7492 C   0  0  0  0  0  0
  -27.5566  -37.1798   24.8432 C   0  0  0  0  0  0
  -21.4185  -29.3076   22.3656 N   0  0  0  0  0  0
  -26.4279  -37.3746   23.9383 N   0  0  0  0  0  0
  -24.6937  -31.0515   22.0908 N   0  0  0  0  0  0
  -23.4204  -28.8113   23.2948 O   0  0  0  0  0  0
  -28.3854  -26.4888   19.9745 O   0  0  0  0  0  0
  -26.5629  -34.8882   22.4637 O   0  0  0  0  0  0
  -23.5489  -32.1354   23.7300 O   0  0  0  0  0  0
  -28.5314  -19.0724   19.2344 C   0  0  0  0  0  0
  -30.0034  -19.8312   20.9407 C   0  0  0  0  0  0
  -28.0833  -20.4322   19.1617 C   0  0  0  0  0  0
  -29.5480  -18.7173   20.1621 C   0  0  0  0  0  0
  -28.5843  -21.4657   19.9732 C   0  0  0  0  0  0
  -27.6920  -23.8912   20.3878 C   0  0  0  0  0  0
  -27.0660  -20.9742   18.1961 C   0  0  0  0  0  0
  -26.9329  -22.4627   18.5900 C   0  0  0  0  0  0
  -30.3584  -17.3280   20.1434 C   0  0  0  0  0  0
  -28.6875  -25.1180   20.5223 C   0  0  0  0  0  0
  -29.5462  -21.1338   20.8753 N   0  0  0  0  0  0
  -27.9416  -22.7507   19.6305 N   0  0  0  0  0  0
  -29.8397  -15.9280   20.4637 N   0  0  0  0  0  0
  -26.6093  -24.0164   20.9714 O   0  0  0  0  0  0
  -31.4599  -12.5979   19.1509 H   0  0  0  0  0  0
  -30.3852  -11.4926   19.9613 H   0  0  0  0  0  0
  -29.7807  -11.7119   17.5276 H   0  0  0  0  0  0
  -29.6246  -13.4423   17.7033 H   0  0  0  0  0  0
  -27.8860  -11.2756   18.9222 H   0  0  0  0  0  0
  -27.3706  -12.5112   17.8053 H   0  0  0  0  0  0
  -27.6250  -14.2477   19.4536 H   0  0  0  0  0  0
  -28.7192  -12.2215   21.4693 H   0  0  0  0  0  0
  -28.4164  -13.9207   21.7590 H   0  0  0  0  0  0
  -25.2769   -9.5718   22.4786 H   0  0  0  0  0  0
  -24.0025   -7.4657   22.7488 H   0  0  0  0  0  0
  -21.0859   -8.8795   19.8952 H   0  0  0  0  0  0
  -22.3707  -10.9706   19.6193 H   0  0  0  0  0  0
  -21.2012   -7.6158   23.9712 H   0  0  0  0  0  0
  -21.1472   -6.0532   25.9071 H   0  0  0  0  0  0
  -22.0604   -2.7614   23.2831 H   0  0  0  0  0  0
  -22.4092  -11.9877   22.4804 H   0  0  0  0  0  0
  -21.1080  -13.1227   22.2586 H   0  0  0  0  0  0
  -24.6450  -15.8413   20.5104 H   0  0  0  0  0  0
  -26.2544  -15.6359   20.0474 H   0  0  0  0  0  0
  -26.7275  -32.5369   23.1046 H   0  0  0  0  0  0
  -25.0061  -33.9618   25.0341 H   0  0  0  0  0  0
  -22.7169  -31.2875   21.3766 H   0  0  0  0  0  0
  -23.3730  -35.9660   23.3260 H   0  0  0  0  0  0
  -24.3604  -36.8990   22.2036 H   0  0  0  0  0  0
  -23.7311  -37.6511   23.6680 H   0  0  0  0  0  0
  -26.1034  -31.5141   20.5919 H   0  0  0  0  0  0
  -26.8599  -30.8293   21.9937 H   0  0  0  0  0  0
  -28.1435  -28.9613   21.1602 H   0  0  0  0  0  0
  -25.9972  -25.8748   19.0424 H   0  0  0  0  0  0
  -23.9705  -27.2582   19.0526 H   0  0  0  0  0  0
  -23.7852  -30.5540   19.3903 H   0  0  0  0  0  0
  -22.7678  -29.2216   19.8604 H   0  0  0  0  0  0
  -25.1315  -36.1848   25.0799 H   0  0  0  0  0  0
  -20.9960  -28.3408   24.1382 H   0  0  0  0  0  0
  -20.5811  -26.2358   23.3664 H   0  0  0  0  0  0
  -21.6675  -26.7553   22.1178 H   0  0  0  0  0  0
  -19.6994  -25.6354   21.1268 H   0  0  0  0  0  0
  -19.6801  -27.3266   20.6800 H   0  0  0  0  0  0
  -17.4280  -26.6692   21.3968 H   0  0  0  0  0  0
  -18.0311  -26.0124   22.8966 H   0  0  0  0  0  0
  -19.7899  -30.7353   24.2213 H   0  0  0  0  0  0
  -17.4978  -31.6268   24.5238 H   0  0  0  0  0  0
  -15.5333  -30.2998   23.7742 H   0  0  0  0  0  0
  -15.8647  -28.0978   22.6872 H   0  0  0  0  0  0
  -24.5944  -30.7019   25.7840 H   0  0  0  0  0  0
  -24.8958  -32.2892   26.4777 H   0  0  0  0  0  0
  -25.8153  -30.8982   27.0220 H   0  0  0  0  0  0
  -26.2947  -29.6676   24.1182 H   0  0  0  0  0  0
  -27.4052  -29.7186   25.4672 H   0  0  0  0  0  0
  -27.8812  -30.4207   23.9403 H   0  0  0  0  0  0
  -27.2598  -33.3578   26.2002 H   0  0  0  0  0  0
  -28.3905  -32.6818   25.0375 H   0  0  0  0  0  0
  -28.0619  -31.8400   26.5483 H   0  0  0  0  0  0
  -28.2535  -38.0135   24.7474 H   0  0  0  0  0  0
  -28.1105  -36.2655   24.6250 H   0  0  0  0  0  0
  -27.2261  -37.1434   25.8828 H   0  0  0  0  0  0
  -20.9415  -29.8703   21.6748 H   0  0  0  0  0  0
  -26.0131  -38.2798   24.1461 H   0  0  0  0  0  0
  -28.1466  -18.3336   18.5461 H   0  0  0  0  0  0
  -30.8376  -19.6902   21.6077 H   0  0  0  0  0  0
  -26.1209  -20.4330   18.2875 H   0  0  0  0  0  0
  -27.4265  -20.8722   17.1700 H   0  0  0  0  0  0
  -25.9205  -22.6336   18.9601 H   0  0  0  0  0  0
  -27.0680  -23.1204   17.7292 H   0  0  0  0  0  0
  -31.2486  -17.4800   20.7555 H   0  0  0  0  0  0
  -30.7457  -17.2561   19.1257 H   0  0  0  0  0  0
  -29.6198  -24.8014   20.0552 H   0  0  0  0  0  0
  -28.9192  -25.2283   21.5802 H   0  0  0  0  0  0
  -28.8458  -15.8247   20.6035 H   0  0  0  0  0  0
  1 25  1  0  0  0
  1 30  2  0  0  0
  1 83  1  0  0  0
  2  3  1  0  0  0
  2 25  1  0  0  0
  2 85  1  0  0  0
  2 86  1  0  0  0
  3  4  1  0  0  0
  3 87  1  0  0  0
  3 88  1  0  0  0
  4  5  1  0  0  0
  4 89  1  0  0  0
  4 90  1  0  0  0
  5  6  1  0  0  0
  5 26  1  0  0  0
  5 91  1  0  0  0
  6 25  1  0  0  0
  6 92  1  0  0  0
  6 93  1  0  0  0
  7  8  2  0  0  0
  7 26  1  0  0  0
  7 29  1  0  0  0
  8  9  1  0  0  0
  8 22  1  0  0  0
  9 10  1  0  0  0
  9 27  2  0  0  0
 10 11  2  0  0  0
 10 15  1  0  0  0
 11 12  1  0  0  0
 11 94  1  0  0  0
 12 13  2  0  0  0
 12 95  1  0  0  0
 13 14  1  0  0  0
 13 31  1  0  0  0
 14 15  2  0  0  0
 14 96  1  0  0  0
 15 97  1  0  0  0
 16 17  2  0  0  0
 16 21  1  0  0  0
 16 31  1  0  0  0
 17 18  1  0  0  0
 17 98  1  0  0  0
 18 19  2  0  0  0
 18 99  1  0  0  0
 19 20  1  0  0  0
 19 24  1  0  0  0
 20 21  2  0  0  0
 20100  1  0  0  0
 21 23  1  0  0  0
 22 28  1  0  0  0
 22 32  2  0  0  0
 26 27  1  0  0  0
 28101  1  0  0  0
 28102  1  0  0  0
 29103  1  0  0  0
 29104  1  0  0  0
 33 34  1  0  0  0
 33 66  1  0  0  0
 33 70  2  0  0  0
 34 36  1  0  0  0
 34 59  1  0  0  0
 34105  1  0  0  0
 35 44  2  0  0  0
 35 45  1  0  0  0
 35 68  1  0  0  0
 36 56  1  0  0  0
 36106  1  0  0  0
 37 39  1  0  0  0
 37 47  1  0  0  0
 37 66  1  0  0  0
 37107  1  0  0  0
 38 43  2  0  0  0
 38 46  1  0  0  0
 38 47  1  0  0  0
 39 64  1  0  0  0
 39 67  2  0  0  0
 40 52  1  0  0  0
 40 53  2  0  0  0
 40 58  1  0  0  0
 41108  1  0  0  0
 41109  1  0  0  0
 41110  1  0  0  0
 41 48  1  0  0  0
 42 43  1  0  0  0
 42 66  1  0  0  0
 42111  1  0  0  0
 42112  1  0  0  0
 43 44  1  0  0  0
 44113  1  0  0  0
 45 46  2  0  0  0
 45114  1  0  0  0
 46115  1  0  0  0
 47116  1  0  0  0
 47117  1  0  0  0
 48 56  1  0  0  0
 48 65  1  0  0  0
 48118  1  0  0  0
 49 50  1  0  0  0
 49 53  1  0  0  0
 49 64  1  0  0  0
 49119  1  0  0  0
 50 51  1  0  0  0
 50120  1  0  0  0
 50121  1  0  0  0
 51 52  1  0  0  0
 51122  1  0  0  0
 51123  1  0  0  0
 52124  1  0  0  0
 52125  1  0  0  0
 53 54  1  0  0  0
 54 55  2  0  0  0
 54126  1  0  0  0
 55 57  1  0  0  0
 55127  1  0  0  0
 56 69  2  0  0  0
 57 58  2  0  0  0
 57128  1  0  0  0
 58129  1  0  0  0
 59 60  1  0  0  0
 59 61  1  0  0  0
 59 62  1  0  0  0
 60130  1  0  0  0
 60131  1  0  0  0
 60132  1  0  0  0
 61133  1  0  0  0
 61134  1  0  0  0
 61135  1  0  0  0
 62136  1  0  0  0
 62137  1  0  0  0
 62138  1  0  0  0
 63 65  1  0  0  0
 63139  1  0  0  0
 63140  1  0  0  0
 63141  1  0  0  0
 64142  1  0  0  0
 65143  1  0  0  0
 68 80  1  0  0  0
 71 73  2  0  0  0
 71 74  1  0  0  0
 71144  1  0  0  0
 72 74  2  0  0  0
 72 81  1  0  0  0
 72145  1  0  0  0
 73 75  1  0  0  0
 73 77  1  0  0  0
 74 79  1  0  0  0
 75 81  2  0  0  0
 75 82  1  0  0  0
 76 80  1  0  0  0
 76 82  1  0  0  0
 76 84  2  0  0  0
 77 78  1  0  0  0
 77146  1  0  0  0
 77147  1  0  0  0
 78 82  1  0  0  0
 78148  1  0  0  0
 78149  1  0  0  0
 79 83  1  0  0  0
 79150  1  0  0  0
 79151  1  0  0  0
 80152  1  0  0  0
 80153  1  0  0  0
 83154  1  0  0  0
M  ISO  4   1 100  68 101  80 101  83 100
M  END
> <chiral flag>
0

> <version>
0

> <s_m_source_file>
/data/baiqing/PycharmProjects/Reinvent-master-3.2/result/LINK_invent/BTK/process_docking_weight1_custom_sum_contain_oxygen_bond_distance_aromatic_linkinvent_7_9_3/rearranged_h_0178.sdf

> <i_m_source_file_index>
9

> <r_mmod_Potential_Energy-OPLS-2005>
205.994964599609

> <r_mmod_Stretch_Energy-OPLS-2005>
112.603317260742

> <r_mmod_Bend_Energy-OPLS-2005>
259.426910400391

> <r_mmod_Torsional_Energy-OPLS-2005>
324.751770019531

> <r_mmod_Improper_Torsional_Energy-OPLS-2005>
12.4096260070801

> <r_mmod_Van_der_Waal_Energy-OPLS-2005>
131.204895019531

> <r_mmod_Electrostatic_Energy-OPLS-2005>
-479.710968017578

> <r_mmod_Solvation_Energy-OPLS-2005>
-237.14501953125

> <b_mmod_Minimization_Converged-OPLS-2005>
0

> <r_mmod_RMS_Derivative-OPLS-2005>
6.05368041992188

$$$$
9
                    3D
 Structure written by MMmdl.
168177  0  0  1  0            999 V2000
  -30.6523  -14.7022   20.3948 C   0  0  0  0  0  0
  -30.4184  -12.4085   19.4569 C   0  0  0  0  0  0
  -29.4882  -12.4227   18.2236 C   0  0  0  0  0  0
  -28.0149  -12.2936   18.6498 C   0  0  0  0  0  0
  -27.6330  -13.2197   19.8367 C   0  0  2  0  0  0
  -28.6885  -13.1973   20.9617 C   0  0  0  0  0  0
  -25.2475  -13.8137   20.5778 C   0  0  0  0  0  0
  -24.1759  -13.0389   20.9242 C   0  0  0  0  0  0
  -24.6362  -11.6883   20.8775 C   0  0  0  0  0  0
  -23.9050  -10.4270   21.0422 C   0  0  0  0  0  0
  -24.3613   -9.4186   21.9191 C   0  0  0  0  0  0
  -23.6292   -8.2222   22.0749 C   0  0  0  0  0  0
  -22.4273   -8.0268   21.3537 C   0  0  0  0  0  0
  -21.9907   -9.0236   20.4638 C   0  0  0  0  0  0
  -22.7230  -10.2118   20.3060 C   0  0  0  0  0  0
  -21.6846   -6.0734   22.5281 C   0  0  0  0  0  0
  -21.4008   -6.5635   23.8215 C   0  0  0  0  0  0
  -21.3665   -5.6790   24.9178 C   0  0  0  0  0  0
  -21.6052   -4.3053   24.7228 C   0  0  0  0  0  0
  -21.8820   -3.8147   23.4349 C   0  0  0  0  0  0
  -21.9193   -4.6964   22.3405 C   0  0  0  0  0  0
  -22.7789  -13.5187   21.1892 C   0  0  0  0  0  0
  -22.1661   -4.2152   21.0980 F   0  0  0  0  0  0
  -21.5639   -3.4536   25.7744 F   0  0  0  0  0  0
  -29.9817  -13.5046   20.3446 N   0  0  0  0  0  0
  -26.2897  -12.9351   20.3311 N   0  0  0  0  0  0
  -25.9289  -11.6506   20.5805 N   0  0  0  0  0  0
  -22.0439  -12.8180   22.0451 N   0  0  0  0  0  0
  -25.4116  -15.1851   20.4325 N   0  0  0  0  0  0
  -31.8801  -14.7109   20.2788 O   0  0  0  0  0  0
  -21.6635   -6.8871   21.4239 O   0  0  0  0  0  0
  -22.3483  -14.5503   20.6751 O   0  0  0  0  0  0
  -24.6234  -31.8593   23.2006 C   0  0  0  0  0  0
  -25.9094  -32.4769   23.8339 C   0  0  1  0  0  0
  -27.2302  -27.3269   20.1283 C   0  0  0  0  0  0
  -25.5918  -33.8572   24.2273 N   0  0  0  0  0  0
  -23.4166  -30.4783   21.5432 C   0  0  2  0  0  0
  -24.8636  -28.9222   20.1181 C   0  0  0  0  0  0
  -22.7453  -29.4616   22.4957 C   0  0  0  0  0  0
  -18.0277  -28.1383   22.8489 C   0  0  0  0  0  0
  -24.1490  -36.7291   23.2642 C   0  0  0  0  0  0
  -25.9533  -30.7900   21.3706 C   0  0  0  0  0  0
  -26.0272  -29.4133   20.7235 C   0  0  0  0  0  0
  -27.2115  -28.6247   20.7207 C   0  0  0  0  0  0
  -26.0490  -26.8737   19.5077 C   0  0  0  0  0  0
  -24.8747  -27.6565   19.5045 C   0  0  0  0  0  0
  -23.6306  -29.8026   20.1613 C   0  0  0  0  0  0
  -25.4116  -36.3081   24.0329 C   0  0  1  0  0  0
  -20.5874  -28.3677   23.1294 C   0  0  2  0  0  0
  -20.6766  -26.9405   22.5414 C   0  0  0  0  0  0
  -19.5744  -26.6384   21.5210 C   0  0  0  0  0  0
  -18.1920  -26.7930   22.1620 C   0  0  0  0  0  0
  -19.1528  -28.8848   23.2889 C   0  0  0  0  0  0
  -18.9457  -30.1455   23.8898 C   0  0  0  0  0  0
  -17.6457  -30.6587   24.0562 C   0  0  0  0  0  0
  -25.9050  -34.9448   23.5103 C   0  0  0  0  0  0
  -16.5347  -29.9084   23.6336 C   0  0  0  0  0  0
  -16.7264  -28.6503   23.0354 C   0  0  0  0  0  0
  -26.4489  -31.6581   25.0710 C   0  0  0  0  0  0
  -25.3730  -31.3717   26.1444 C   0  0  0  0  0  0
  -27.0342  -30.3009   24.6165 C   0  0  0  0  0  0
  -27.6048  -32.4323   25.7477 C   0  0  0  0  0  0
  -27.5581  -37.1803   24.8467 C   0  0  0  0  0  0
  -21.4173  -29.3028   22.3691 N   0  0  0  0  0  0
  -26.4295  -37.3774   23.9402 N   0  0  0  0  0  0
  -24.6829  -31.0610   22.0947 N   0  0  0  0  0  0
  -23.4184  -28.8176   23.3051 O   0  0  0  0  0  0
  -28.3907  -26.5521   20.0955 O   0  0  0  0  0  0
  -26.5623  -34.8917   22.4673 O   0  0  0  0  0  0
  -23.5404  -32.1390   23.7345 O   0  0  0  0  0  0
  -28.4325  -24.5130   21.5023 C   0  0  0  0  0  0
  -28.7615  -23.1278   21.6382 C   0  0  0  0  0  0
  -28.4259  -25.1464   20.2356 C   0  0  0  0  0  0
  -29.0747  -22.3478   20.4875 C   0  0  0  0  0  0
  -28.6734  -24.2707   19.1436 C   0  0  0  0  0  0
  -28.1852  -17.1025   19.0857 C   0  0  0  0  0  0
  -30.2689  -16.0643   18.3987 C   0  0  0  0  0  0
  -28.9585  -16.6365   17.8462 C   0  0  2  0  0  0
  -29.1627  -16.9567   20.2679 C   0  0  2  0  0  0
  -28.8670  -22.5415   23.0365 C   0  0  0  0  0  0
  -28.6826  -24.8049   17.7248 C   0  0  0  0  0  0
  -29.1814  -17.7301   16.7937 C   0  0  0  0  0  0
  -29.8195  -20.9500   20.5429 C   0  0  0  0  0  0
  -29.9159  -18.3658   20.4810 C   0  0  0  0  0  0
  -28.9696  -22.9373   19.2656 N   0  0  0  0  0  0
  -29.9981  -15.7750   19.8087 N   0  0  0  0  0  0
  -29.0695  -19.6362   20.6050 N   0  3  0  0  0  0
  -31.4582  -12.5156   19.1455 H   0  0  0  0  0  0
  -30.3541  -11.4520   19.9785 H   0  0  0  0  0  0
  -29.7502  -11.6086   17.5465 H   0  0  0  0  0  0
  -29.6150  -13.3333   17.6455 H   0  0  0  0  0  0
  -27.8530  -11.2519   18.9282 H   0  0  0  0  0  0
  -27.3608  -12.4828   17.7972 H   0  0  0  0  0  0
  -27.6147  -14.2262   19.4259 H   0  0  0  0  0  0
  -28.7178  -12.2265   21.4582 H   0  0  0  0  0  0
  -28.4462  -13.9375   21.7266 H   0  0  0  0  0  0
  -25.2762   -9.5666   22.4758 H   0  0  0  0  0  0
  -24.0008   -7.4608   22.7452 H   0  0  0  0  0  0
  -21.0849   -8.8747   19.8930 H   0  0  0  0  0  0
  -22.3689  -10.9659   19.6173 H   0  0  0  0  0  0
  -21.1986   -7.6142   23.9720 H   0  0  0  0  0  0
  -21.1486   -6.0520   25.9081 H   0  0  0  0  0  0
  -22.0595   -2.7608   23.2852 H   0  0  0  0  0  0
  -22.4059  -11.9838   22.4834 H   0  0  0  0  0  0
  -21.1048  -13.1182   22.2641 H   0  0  0  0  0  0
  -24.6467  -15.8389   20.5585 H   0  0  0  0  0  0
  -26.2752  -15.6287   20.1552 H   0  0  0  0  0  0
  -26.7161  -32.5443   23.1085 H   0  0  0  0  0  0
  -25.0068  -33.9720   25.0419 H   0  0  0  0  0  0
  -22.7105  -31.2980   21.3965 H   0  0  0  0  0  0
  -23.3752  -35.9627   23.3313 H   0  0  0  0  0  0
  -24.3572  -36.8904   22.2056 H   0  0  0  0  0  0
  -23.7255  -37.6497   23.6657 H   0  0  0  0  0  0
  -26.0843  -31.5490   20.5980 H   0  0  0  0  0  0
  -26.8342  -30.8414   21.9990 H   0  0  0  0  0  0
  -28.1123  -29.0033   21.1828 H   0  0  0  0  0  0
  -26.0318  -25.9062   19.0267 H   0  0  0  0  0  0
  -23.9816  -27.2735   19.0304 H   0  0  0  0  0  0
  -23.7489  -30.5735   19.3988 H   0  0  0  0  0  0
  -22.7508  -29.2283   19.8652 H   0  0  0  0  0  0
  -25.1305  -36.1932   25.0824 H   0  0  0  0  0  0
  -20.9957  -28.3245   24.1418 H   0  0  0  0  0  0
  -20.5664  -26.2286   23.3609 H   0  0  0  0  0  0
  -21.6637  -26.7439   22.1211 H   0  0  0  0  0  0
  -19.6906  -25.6295   21.1237 H   0  0  0  0  0  0
  -19.6687  -27.3197   20.6742 H   0  0  0  0  0  0
  -17.4196  -26.6683   21.4016 H   0  0  0  0  0  0
  -18.0317  -26.0070   22.9012 H   0  0  0  0  0  0
  -19.7931  -30.7274   24.2264 H   0  0  0  0  0  0
  -17.5009  -31.6266   24.5166 H   0  0  0  0  0  0
  -15.5349  -30.2985   23.7663 H   0  0  0  0  0  0
  -15.8663  -28.0820   22.7074 H   0  0  0  0  0  0
  -24.5887  -30.7091   25.7766 H   0  0  0  0  0  0
  -24.8945  -32.2885   26.4896 H   0  0  0  0  0  0
  -25.8056  -30.8865   27.0202 H   0  0  0  0  0  0
  -26.2916  -29.6744   24.1211 H   0  0  0  0  0  0
  -27.4069  -29.7285   25.4669 H   0  0  0  0  0  0
  -27.8767  -30.4307   23.9369 H   0  0  0  0  0  0
  -27.2657  -33.3617   26.2062 H   0  0  0  0  0  0
  -28.3846  -32.6896   25.0297 H   0  0  0  0  0  0
  -28.0730  -31.8450   26.5385 H   0  0  0  0  0  0
  -28.2610  -38.0090   24.7501 H   0  0  0  0  0  0
  -28.1069  -36.2622   24.6312 H   0  0  0  0  0  0
  -27.2292  -37.1473   25.8869 H   0  0  0  0  0  0
  -20.9354  -29.8740   21.6891 H   0  0  0  0  0  0
  -26.0179  -38.2854   24.1387 H   0  0  0  0  0  0
  -28.2710  -25.1168   22.3835 H   0  0  0  0  0  0
  -27.3367  -16.4415   19.2292 H   0  0  0  0  0  0
  -27.7554  -18.0970   18.9705 H   0  0  0  0  0  0
  -31.0875  -16.7816   18.3285 H   0  0  0  0  0  0
  -30.5966  -15.1972   17.8281 H   0  0  0  0  0  0
  -28.3931  -15.8278   17.3783 H   0  0  0  0  0  0
  -28.6196  -16.6932   21.1767 H   0  0  0  0  0  0
  -28.4019  -23.1953   23.7760 H   0  0  0  0  0  0
  -29.9118  -22.4107   23.3212 H   0  0  0  0  0  0
  -28.3664  -21.5749   23.0957 H   0  0  0  0  0  0
  -28.9995  -25.8475   17.6954 H   0  0  0  0  0  0
  -27.6829  -24.7430   17.2961 H   0  0  0  0  0  0
  -29.3611  -24.2340   17.0908 H   0  0  0  0  0  0
  -29.7483  -18.5696   17.1967 H   0  0  0  0  0  0
  -28.2331  -18.1194   16.4219 H   0  0  0  0  0  0
  -29.7344  -17.3400   15.9391 H   0  0  0  0  0  0
  -30.5176  -20.9758   21.3792 H   0  0  0  0  0  0
  -30.4534  -20.9107   19.6563 H   0  0  0  0  0  0
  -30.5980  -18.5294   19.6474 H   0  0  0  0  0  0
  -30.5548  -18.2959   21.3620 H   0  0  0  0  0  0
  -28.4062  -19.6645   19.8488 H   0  0  0  0  0  0
  -28.5485  -19.6134   21.4650 H   0  0  0  0  0  0
  1 25  1  0  0  0
  1 30  2  0  0  0
  1 86  1  0  0  0
  2  3  1  0  0  0
  2 25  1  0  0  0
  2 88  1  0  0  0
  2 89  1  0  0  0
  3  4  1  0  0  0
  3 90  1  0  0  0
  3 91  1  0  0  0
  4  5  1  0  0  0
  4 92  1  0  0  0
  4 93  1  0  0  0
  5  6  1  0  0  0
  5 26  1  0  0  0
  5 94  1  0  0  0
  6 25  1  0  0  0
  6 95  1  0  0  0
  6 96  1  0  0  0
  7  8  2  0  0  0
  7 26  1  0  0  0
  7 29  1  0  0  0
  8  9  1  0  0  0
  8 22  1  0  0  0
  9 10  1  0  0  0
  9 27  2  0  0  0
 10 11  2  0  0  0
 10 15  1  0  0  0
 11 12  1  0  0  0
 11 97  1  0  0  0
 12 13  2  0  0  0
 12 98  1  0  0  0
 13 14  1  0  0  0
 13 31  1  0  0  0
 14 15  2  0  0  0
 14 99  1  0  0  0
 15100  1  0  0  0
 16 17  2  0  0  0
 16 21  1  0  0  0
 16 31  1  0  0  0
 17 18  1  0  0  0
 17101  1  0  0  0
 18 19  2  0  0  0
 18102  1  0  0  0
 19 20  1  0  0  0
 19 24  1  0  0  0
 20 21  2  0  0  0
 20103  1  0  0  0
 21 23  1  0  0  0
 22 28  1  0  0  0
 22 32  2  0  0  0
 26 27  1  0  0  0
 28104  1  0  0  0
 28105  1  0  0  0
 29106  1  0  0  0
 29107  1  0  0  0
 33 34  1  0  0  0
 33 66  1  0  0  0
 33 70  2  0  0  0
 34 36  1  0  0  0
 34 59  1  0  0  0
 34108  1  0  0  0
 35 44  2  0  0  0
 35 45  1  0  0  0
 35 68  1  0  0  0
 36 56  1  0  0  0
 36109  1  0  0  0
 37 39  1  0  0  0
 37 47  1  0  0  0
 37 66  1  0  0  0
 37110  1  0  0  0
 38 43  2  0  0  0
 38 46  1  0  0  0
 38 47  1  0  0  0
 39 64  1  0  0  0
 39 67  2  0  0  0
 40 52  1  0  0  0
 40 53  2  0  0  0
 40 58  1  0  0  0
 41111  1  0  0  0
 41112  1  0  0  0
 41113  1  0  0  0
 41 48  1  0  0  0
 42 43  1  0  0  0
 42 66  1  0  0  0
 42114  1  0  0  0
 42115  1  0  0  0
 43 44  1  0  0  0
 44116  1  0  0  0
 45 46  2  0  0  0
 45117  1  0  0  0
 46118  1  0  0  0
 47119  1  0  0  0
 47120  1  0  0  0
 48 56  1  0  0  0
 48 65  1  0  0  0
 48121  1  0  0  0
 49 50  1  0  0  0
 49 53  1  0  0  0
 49 64  1  0  0  0
 49122  1  0  0  0
 50 51  1  0  0  0
 50123  1  0  0  0
 50124  1  0  0  0
 51 52  1  0  0  0
 51125  1  0  0  0
 51126  1  0  0  0
 52127  1  0  0  0
 52128  1  0  0  0
 53 54  1  0  0  0
 54 55  2  0  0  0
 54129  1  0  0  0
 55 57  1  0  0  0
 55130  1  0  0  0
 56 69  2  0  0  0
 57 58  2  0  0  0
 57131  1  0  0  0
 58132  1  0  0  0
 59 60  1  0  0  0
 59 61  1  0  0  0
 59 62  1  0  0  0
 60133  1  0  0  0
 60134  1  0  0  0
 60135  1  0  0  0
 61136  1  0  0  0
 61137  1  0  0  0
 61138  1  0  0  0
 62139  1  0  0  0
 62140  1  0  0  0
 62141  1  0  0  0
 63 65  1  0  0  0
 63142  1  0  0  0
 63143  1  0  0  0
 63144  1  0  0  0
 64145  1  0  0  0
 65146  1  0  0  0
 68 73  1  0  0  0
 71 72  2  0  0  0
 71 73  1  0  0  0
 71147  1  0  0  0
 72 74  1  0  0  0
 72 80  1  0  0  0
 73 75  2  0  0  0
 74 83  1  0  0  0
 74 85  2  0  0  0
 75 81  1  0  0  0
 75 85  1  0  0  0
 76 78  1  0  0  0
 76 79  1  0  0  0
 76148  1  0  0  0
 76149  1  0  0  0
 77 78  1  0  0  0
 77 86  1  0  0  0
 77150  1  0  0  0
 77151  1  0  0  0
 78 82  1  0  0  0
 78152  1  0  0  0
 79 84  1  0  0  0
 79 86  1  0  0  0
 79153  1  0  0  0
 80154  1  0  0  0
 80155  1  0  0  0
 80156  1  0  0  0
 81157  1  0  0  0
 81158  1  0  0  0
 81159  1  0  0  0
 82160  1  0  0  0
 82161  1  0  0  0
 82162  1  0  0  0
 83 87  1  0  0  0
 83163  1  0  0  0
 83164  1  0  0  0
 84 87  1  0  0  0
 84165  1  0  0  0
 84166  1  0  0  0
 87167  1  0  0  0
 87168  1  0  0  0
M  CHG  1  87   1
M  ISO  4   1 100  68 101  73 101  86 100
M  END
> <chiral flag>
0

> <version>
0

> <s_m_source_file>
/data/baiqing/PycharmProjects/Reinvent-master-3.2/result/LINK_invent/BTK/process_docking_weight1_custom_sum_contain_oxygen_bond_distance_aromatic_linkinvent_7_9_3/rearranged_h_0178.sdf

> <i_m_source_file_index>
10

> <r_mmod_Potential_Energy-OPLS-2005>
13.2467308044434

> <r_mmod_Stretch_Energy-OPLS-2005>
83.9577255249023

> <r_mmod_Bend_Energy-OPLS-2005>
188.347320556641

> <r_mmod_Torsional_Energy-OPLS-2005>
400.815856933594

> <r_mmod_Improper_Torsional_Energy-OPLS-2005>
33.388313293457

> <r_mmod_Van_der_Waal_Energy-OPLS-2005>
124.833335876465

> <r_mmod_Electrostatic_Energy-OPLS-2005>
-421.580932617188

> <r_mmod_Solvation_Energy-OPLS-2005>
-464.308380126953

> <b_mmod_Minimization_Converged-OPLS-2005>
0

> <r_mmod_RMS_Derivative-OPLS-2005>
1.39766108989716

$$$$
10
                    3D
 Structure written by MMmdl.
165174  0  0  1  0            999 V2000
  -30.7152  -14.4138   20.5802 C   0  0  0  0  0  0
  -30.4186  -12.2705   19.4093 C   0  0  0  0  0  0
  -29.4915  -12.5102   18.1997 C   0  0  0  0  0  0
  -28.0122  -12.3769   18.6138 C   0  0  0  0  0  0
  -27.6684  -13.2011   19.8827 C   0  0  2  0  0  0
  -28.7088  -12.9406   20.9963 C   0  0  0  0  0  0
  -25.2608  -13.8161   20.5675 C   0  0  0  0  0  0
  -24.1846  -13.0443   20.9152 C   0  0  0  0  0  0
  -24.6383  -11.6908   20.8728 C   0  0  0  0  0  0
  -23.9049  -10.4294   21.0397 C   0  0  0  0  0  0
  -24.3598   -9.4208   21.9180 C   0  0  0  0  0  0
  -23.6269   -8.2245   22.0761 C   0  0  0  0  0  0
  -22.4245   -8.0289   21.3556 C   0  0  0  0  0  0
  -21.9871   -9.0263   20.4664 C   0  0  0  0  0  0
  -22.7209  -10.2136   20.3059 C   0  0  0  0  0  0
  -21.6849   -6.0721   22.5276 C   0  0  0  0  0  0
  -21.4017   -6.5627   23.8211 C   0  0  0  0  0  0
  -21.3662   -5.6780   24.9176 C   0  0  0  0  0  0
  -21.6040   -4.3043   24.7226 C   0  0  0  0  0  0
  -21.8818   -3.8142   23.4345 C   0  0  0  0  0  0
  -21.9183   -4.6954   22.3399 C   0  0  0  0  0  0
  -22.7867  -13.5259   21.1820 C   0  0  0  0  0  0
  -22.1660   -4.2146   21.0975 F   0  0  0  0  0  0
  -21.5626   -3.4527   25.7734 F   0  0  0  0  0  0
  -30.0501  -13.2347   20.4557 N   0  0  0  0  0  0
  -26.3052  -12.9316   20.3391 N   0  0  0  0  0  0
  -25.9308  -11.6483   20.5773 N   0  0  0  0  0  0
  -22.0480  -12.8285   22.0389 N   0  0  0  0  0  0
  -25.4363  -15.1878   20.4118 N   0  0  0  0  0  0
  -31.8219  -14.6183   20.0639 O   0  0  0  0  0  0
  -21.6634   -6.8869   21.4236 O   0  0  0  0  0  0
  -22.3554  -14.5556   20.6654 O   0  0  0  0  0  0
  -24.6113  -31.8701   23.2121 C   0  0  0  0  0  0
  -25.9012  -32.4847   23.8413 C   0  0  1  0  0  0
  -27.2326  -27.4557   20.0931 C   0  0  0  0  0  0
  -25.5880  -33.8637   24.2364 N   0  0  0  0  0  0
  -23.3993  -30.4948   21.5502 C   0  0  2  0  0  0
  -24.8466  -28.9645   20.1160 C   0  0  0  0  0  0
  -22.7396  -29.4665   22.4972 C   0  0  0  0  0  0
  -18.0266  -28.1384   22.8472 C   0  0  0  0  0  0
  -24.1484  -36.7329   23.2637 C   0  0  0  0  0  0
  -25.9241  -30.8452   21.3574 C   0  0  0  0  0  0
  -26.0052  -29.4771   20.7126 C   0  0  0  0  0  0
  -27.2035  -28.7293   20.7012 C   0  0  0  0  0  0
  -26.0610  -26.9621   19.4765 C   0  0  0  0  0  0
  -24.8677  -27.7042   19.4953 C   0  0  0  0  0  0
  -23.6094  -29.8304   20.1633 C   0  0  0  0  0  0
  -25.4102  -36.3130   24.0347 C   0  0  1  0  0  0
  -20.5851  -28.3669   23.1312 C   0  0  2  0  0  0
  -20.6749  -26.9407   22.5414 C   0  0  0  0  0  0
  -19.5743  -26.6394   21.5190 C   0  0  0  0  0  0
  -18.1919  -26.7933   22.1600 C   0  0  0  0  0  0
  -19.1514  -28.8838   23.2895 C   0  0  0  0  0  0
  -18.9451  -30.1434   23.8927 C   0  0  0  0  0  0
  -17.6459  -30.6582   24.0572 C   0  0  0  0  0  0
  -25.9022  -34.9493   23.5160 C   0  0  0  0  0  0
  -16.5349  -29.9101   23.6309 C   0  0  0  0  0  0
  -16.7256  -28.6515   23.0330 C   0  0  0  0  0  0
  -26.4472  -31.6593   25.0700 C   0  0  0  0  0  0
  -25.3782  -31.3647   26.1479 C   0  0  0  0  0  0
  -27.0268  -30.3059   24.5970 C   0  0  0  0  0  0
  -27.6089  -32.4271   25.7442 C   0  0  0  0  0  0
  -27.5583  -37.1822   24.8472 C   0  0  0  0  0  0
  -21.4121  -29.3053   22.3735 N   0  0  0  0  0  0
  -26.4297  -37.3808   23.9411 N   0  0  0  0  0  0
  -24.6637  -31.0833   22.1000 N   0  0  0  0  0  0
  -23.4191  -28.8181   23.2975 O   0  0  0  0  0  0
  -28.3914  -26.7137   20.0938 O   0  0  0  0  0  0
  -26.5587  -34.8937   22.4721 O   0  0  0  0  0  0
  -23.5312  -32.1425   23.7535 O   0  0  0  0  0  0
  -29.3393  -18.9563   21.7874 C   0  0  0  0  0  0
  -29.5358  -17.5785   22.0145 C   0  0  0  0  0  0
  -29.6140  -19.4406   20.4975 C   0  0  0  0  0  0
  -30.0310  -18.5491   19.5254 C   0  0  0  0  0  0
  -29.9859  -16.7369   20.9703 C   0  0  0  0  0  0
  -30.1481  -19.1953   18.1757 C   0  0  0  0  0  0
  -29.6644  -20.6475   18.4131 C   0  0  0  0  0  0
  -29.3616  -20.8303   19.9342 C   0  0  2  0  0  0
  -30.9578  -21.7109   21.8295 C   0  0  0  0  0  0
  -30.7194  -25.0890   21.1752 C   0  0  0  0  0  0
  -28.2407  -25.4086   20.6642 C   0  0  0  0  0  0
  -30.1243  -22.0417   20.5765 C   0  0  2  0  0  0
  -29.4846  -24.5205   20.4458 C   0  0  2  0  0  0
  -30.2257  -17.2326   19.7267 N   0  0  0  0  0  0
  -30.0683  -15.3563   21.2790 N   0  0  0  0  0  0
  -29.1550  -23.1271   20.8669 N   0  3  0  0  0  0
  -31.4664  -12.3490   19.1132 H   0  0  0  0  0  0
  -30.2951  -11.2529   19.7823 H   0  0  0  0  0  0
  -29.7202  -11.8072   17.3977 H   0  0  0  0  0  0
  -29.6708  -13.5053   17.7898 H   0  0  0  0  0  0
  -27.8129  -11.3202   18.7962 H   0  0  0  0  0  0
  -27.3627  -12.6729   17.7896 H   0  0  0  0  0  0
  -27.7269  -14.2538   19.6072 H   0  0  0  0  0  0
  -28.6682  -11.8950   21.3058 H   0  0  0  0  0  0
  -28.4726  -13.5107   21.8950 H   0  0  0  0  0  0
  -25.2738   -9.5687   22.4753 H   0  0  0  0  0  0
  -23.9982   -7.4627   22.7464 H   0  0  0  0  0  0
  -21.0802   -8.8785   19.8969 H   0  0  0  0  0  0
  -22.3670  -10.9672   19.6179 H   0  0  0  0  0  0
  -21.2031   -7.6136   23.9713 H   0  0  0  0  0  0
  -21.1483   -6.0517   25.9077 H   0  0  0  0  0  0
  -22.0595   -2.7601   23.2845 H   0  0  0  0  0  0
  -22.4061  -11.9965   22.4827 H   0  0  0  0  0  0
  -21.1112  -13.1390   22.2575 H   0  0  0  0  0  0
  -24.6739  -15.8476   20.5220 H   0  0  0  0  0  0
  -26.2982  -15.6259   20.1127 H   0  0  0  0  0  0
  -26.7082  -32.5589   23.1184 H   0  0  0  0  0  0
  -25.0049  -33.9808   25.0523 H   0  0  0  0  0  0
  -22.6863  -31.3094   21.4117 H   0  0  0  0  0  0
  -23.3736  -35.9673   23.3326 H   0  0  0  0  0  0
  -24.3586  -36.8910   22.2046 H   0  0  0  0  0  0
  -23.7251  -37.6552   23.6627 H   0  0  0  0  0  0
  -26.0171  -31.6020   20.5773 H   0  0  0  0  0  0
  -26.8206  -30.9179   21.9604 H   0  0  0  0  0  0
  -28.0982  -29.1190   21.1677 H   0  0  0  0  0  0
  -26.0586  -26.0116   18.9635 H   0  0  0  0  0  0
  -23.9814  -27.3083   19.0197 H   0  0  0  0  0  0
  -23.7246  -30.6070   19.4056 H   0  0  0  0  0  0
  -22.7334  -29.2532   19.8628 H   0  0  0  0  0  0
  -25.1273  -36.2008   25.0839 H   0  0  0  0  0  0
  -20.9941  -28.3234   24.1430 H   0  0  0  0  0  0
  -20.5596  -26.2291   23.3601 H   0  0  0  0  0  0
  -21.6634  -26.7418   22.1251 H   0  0  0  0  0  0
  -19.6911  -25.6303   21.1221 H   0  0  0  0  0  0
  -19.6692  -27.3195   20.6711 H   0  0  0  0  0  0
  -17.4183  -26.6652   21.4008 H   0  0  0  0  0  0
  -18.0344  -26.0074   22.8997 H   0  0  0  0  0  0
  -19.7930  -30.7229   24.2328 H   0  0  0  0  0  0
  -17.5022  -31.6262   24.5177 H   0  0  0  0  0  0
  -15.5355  -30.3029   23.7610 H   0  0  0  0  0  0
  -15.8648  -28.0850   22.7041 H   0  0  0  0  0  0
  -24.5963  -30.6977   25.7829 H   0  0  0  0  0  0
  -24.8956  -32.2770   26.4990 H   0  0  0  0  0  0
  -25.8184  -30.8790   27.0197 H   0  0  0  0  0  0
  -26.2737  -29.6828   24.1129 H   0  0  0  0  0  0
  -27.4212  -29.7276   25.4334 H   0  0  0  0  0  0
  -27.8506  -30.4427   23.8963 H   0  0  0  0  0  0
  -27.2770  -33.3577   26.2057 H   0  0  0  0  0  0
  -28.3881  -32.6806   25.0240 H   0  0  0  0  0  0
  -28.0776  -31.8351   26.5315 H   0  0  0  0  0  0
  -28.2628  -38.0092   24.7498 H   0  0  0  0  0  0
  -28.1055  -36.2632   24.6324 H   0  0  0  0  0  0
  -27.2312  -37.1514   25.8880 H   0  0  0  0  0  0
  -20.9260  -29.8866   21.7050 H   0  0  0  0  0  0
  -26.0195  -38.2889   24.1408 H   0  0  0  0  0  0
  -28.9617  -19.5971   22.5708 H   0  0  0  0  0  0
  -29.3201  -17.1707   22.9922 H   0  0  0  0  0  0
  -29.5306  -18.6742   17.4434 H   0  0  0  0  0  0
  -31.1842  -19.1676   17.8366 H   0  0  0  0  0  0
  -28.7587  -20.8355   17.8345 H   0  0  0  0  0  0
  -30.4109  -21.3453   18.0329 H   0  0  0  0  0  0
  -28.2859  -20.9746   20.0500 H   0  0  0  0  0  0
  -31.6471  -20.8886   21.6360 H   0  0  0  0  0  0
  -30.3316  -21.4364   22.6768 H   0  0  0  0  0  0
  -31.5634  -22.5607   22.1427 H   0  0  0  0  0  0
  -30.8515  -26.1485   20.9535 H   0  0  0  0  0  0
  -31.6369  -24.5859   20.8689 H   0  0  0  0  0  0
  -30.6295  -24.9992   22.2574 H   0  0  0  0  0  0
  -28.0368  -25.5129   21.7320 H   0  0  0  0  0  0
  -27.3827  -24.8893   20.2372 H   0  0  0  0  0  0
  -30.8380  -22.4227   19.8459 H   0  0  0  0  0  0
  -29.6916  -24.5066   19.3748 H   0  0  0  0  0  0
  -29.3405  -15.0093   21.8831 H   0  0  0  0  0  0
  -28.9157  -23.0972   21.8464 H   0  0  0  0  0  0
  -28.3189  -22.8711   20.3643 H   0  0  0  0  0  0
  1 25  1  0  0  0
  1 30  2  0  0  0
  1 85  1  0  0  0
  2  3  1  0  0  0
  2 25  1  0  0  0
  2 87  1  0  0  0
  2 88  1  0  0  0
  3  4  1  0  0  0
  3 89  1  0  0  0
  3 90  1  0  0  0
  4  5  1  0  0  0
  4 91  1  0  0  0
  4 92  1  0  0  0
  5  6  1  0  0  0
  5 26  1  0  0  0
  5 93  1  0  0  0
  6 25  1  0  0  0
  6 94  1  0  0  0
  6 95  1  0  0  0
  7  8  2  0  0  0
  7 26  1  0  0  0
  7 29  1  0  0  0
  8  9  1  0  0  0
  8 22  1  0  0  0
  9 10  1  0  0  0
  9 27  2  0  0  0
 10 11  2  0  0  0
 10 15  1  0  0  0
 11 12  1  0  0  0
 11 96  1  0  0  0
 12 13  2  0  0  0
 12 97  1  0  0  0
 13 14  1  0  0  0
 13 31  1  0  0  0
 14 15  2  0  0  0
 14 98  1  0  0  0
 15 99  1  0  0  0
 16 17  2  0  0  0
 16 21  1  0  0  0
 16 31  1  0  0  0
 17 18  1  0  0  0
 17100  1  0  0  0
 18 19  2  0  0  0
 18101  1  0  0  0
 19 20  1  0  0  0
 19 24  1  0  0  0
 20 21  2  0  0  0
 20102  1  0  0  0
 21 23  1  0  0  0
 22 28  1  0  0  0
 22 32  2  0  0  0
 26 27  1  0  0  0
 28103  1  0  0  0
 28104  1  0  0  0
 29105  1  0  0  0
 29106  1  0  0  0
 33 34  1  0  0  0
 33 66  1  0  0  0
 33 70  2  0  0  0
 34 36  1  0  0  0
 34 59  1  0  0  0
 34107  1  0  0  0
 35 44  2  0  0  0
 35 45  1  0  0  0
 35 68  1  0  0  0
 36 56  1  0  0  0
 36108  1  0  0  0
 37 39  1  0  0  0
 37 47  1  0  0  0
 37 66  1  0  0  0
 37109  1  0  0  0
 38 43  2  0  0  0
 38 46  1  0  0  0
 38 47  1  0  0  0
 39 64  1  0  0  0
 39 67  2  0  0  0
 40 52  1  0  0  0
 40 53  2  0  0  0
 40 58  1  0  0  0
 41110  1  0  0  0
 41111  1  0  0  0
 41112  1  0  0  0
 41 48  1  0  0  0
 42 43  1  0  0  0
 42 66  1  0  0  0
 42113  1  0  0  0
 42114  1  0  0  0
 43 44  1  0  0  0
 44115  1  0  0  0
 45 46  2  0  0  0
 45116  1  0  0  0
 46117  1  0  0  0
 47118  1  0  0  0
 47119  1  0  0  0
 48 56  1  0  0  0
 48 65  1  0  0  0
 48120  1  0  0  0
 49 50  1  0  0  0
 49 53  1  0  0  0
 49 64  1  0  0  0
 49121  1  0  0  0
 50 51  1  0  0  0
 50122  1  0  0  0
 50123  1  0  0  0
 51 52  1  0  0  0
 51124  1  0  0  0
 51125  1  0  0  0
 52126  1  0  0  0
 52127  1  0  0  0
 53 54  1  0  0  0
 54 55  2  0  0  0
 54128  1  0  0  0
 55 57  1  0  0  0
 55129  1  0  0  0
 56 69  2  0  0  0
 57 58  2  0  0  0
 57130  1  0  0  0
 58131  1  0  0  0
 59 60  1  0  0  0
 59 61  1  0  0  0
 59 62  1  0  0  0
 60132  1  0  0  0
 60133  1  0  0  0
 60134  1  0  0  0
 61135  1  0  0  0
 61136  1  0  0  0
 61137  1  0  0  0
 62138  1  0  0  0
 62139  1  0  0  0
 62140  1  0  0  0
 63 65  1  0  0  0
 63141  1  0  0  0
 63142  1  0  0  0
 63143  1  0  0  0
 64144  1  0  0  0
 65145  1  0  0  0
 68 81  1  0  0  0
 71 72  2  0  0  0
 71 73  1  0  0  0
 71146  1  0  0  0
 72 75  1  0  0  0
 72147  1  0  0  0
 73 74  2  0  0  0
 73 78  1  0  0  0
 74 76  1  0  0  0
 74 84  1  0  0  0
 75 84  2  0  0  0
 75 85  1  0  0  0
 76 77  1  0  0  0
 76148  1  0  0  0
 76149  1  0  0  0
 77150  1  0  0  0
 77151  1  0  0  0
 77 78  1  0  0  0
 78 82  1  0  0  0
 78152  1  0  0  0
 79153  1  0  0  0
 79154  1  0  0  0
 79155  1  0  0  0
 79 82  1  0  0  0
 80156  1  0  0  0
 80157  1  0  0  0
 80158  1  0  0  0
 80 83  1  0  0  0
 81 83  1  0  0  0
 81159  1  0  0  0
 81160  1  0  0  0
 82 86  1  0  0  0
 82161  1  0  0  0
 83 86  1  0  0  0
 83162  1  0  0  0
 85163  1  0  0  0
 86164  1  0  0  0
 86165  1  0  0  0
M  CHG  1  86   1
M  ISO  4   1 100  68 101  81 101  85 100
M  END
> <chiral flag>
0

> <version>
0

> <s_m_source_file>
/data/baiqing/PycharmProjects/Reinvent-master-3.2/result/LINK_invent/BTK/process_docking_weight1_custom_sum_contain_oxygen_bond_distance_aromatic_linkinvent_7_9_3/rearranged_h_0178.sdf

> <i_m_source_file_index>
11

> <r_mmod_Potential_Energy-OPLS-2005>
-241.36750793457

> <r_mmod_Stretch_Energy-OPLS-2005>
37.746883392334

> <r_mmod_Bend_Energy-OPLS-2005>
138.240600585938

> <r_mmod_Torsional_Energy-OPLS-2005>
288.656982421875

> <r_mmod_Improper_Torsional_Energy-OPLS-2005>
4.32033634185791

> <r_mmod_Van_der_Waal_Energy-OPLS-2005>
157.703353881836

> <r_mmod_Electrostatic_Energy-OPLS-2005>
-400.616729736328

> <r_mmod_Solvation_Energy-OPLS-2005>
-476.431884765625

> <b_mmod_Minimization_Converged-OPLS-2005>
0

> <r_mmod_RMS_Derivative-OPLS-2005>
2.27049612998962

$$$$
11
                    3D
 Structure written by MMmdl.
166176  0  0  1  0            999 V2000
  -30.5766  -14.7565   20.4339 C   0  0  0  0  0  0
  -30.4494  -12.4539   19.4710 C   0  0  0  0  0  0
  -29.5200  -12.4795   18.2349 C   0  0  0  0  0  0
  -28.0473  -12.2870   18.6631 C   0  0  0  0  0  0
  -27.6385  -13.2189   19.8352 C   0  0  2  0  0  0
  -28.6791  -13.1722   20.9730 C   0  0  0  0  0  0
  -25.2488  -13.8151   20.5652 C   0  0  0  0  0  0
  -24.1765  -13.0408   20.9180 C   0  0  0  0  0  0
  -24.6386  -11.6885   20.8776 C   0  0  0  0  0  0
  -23.9079  -10.4271   21.0433 C   0  0  0  0  0  0
  -24.3625   -9.4178   21.9204 C   0  0  0  0  0  0
  -23.6263   -8.2225   22.0794 C   0  0  0  0  0  0
  -22.4223   -8.0305   21.3588 C   0  0  0  0  0  0
  -21.9862   -9.0298   20.4680 C   0  0  0  0  0  0
  -22.7258  -10.2144   20.3084 C   0  0  0  0  0  0
  -21.6828   -6.0731   22.5271 C   0  0  0  0  0  0
  -21.4018   -6.5636   23.8219 C   0  0  0  0  0  0
  -21.3657   -5.6801   24.9194 C   0  0  0  0  0  0
  -21.6030   -4.3060   24.7233 C   0  0  0  0  0  0
  -21.8805   -3.8141   23.4359 C   0  0  0  0  0  0
  -21.9179   -4.6955   22.3422 C   0  0  0  0  0  0
  -22.7803  -13.5218   21.1838 C   0  0  0  0  0  0
  -22.1635   -4.2164   21.0994 F   0  0  0  0  0  0
  -21.5644   -3.4537   25.7739 F   0  0  0  0  0  0
  -29.9793  -13.5223   20.3785 N   0  0  0  0  0  0
  -26.2895  -12.9343   20.3189 N   0  0  0  0  0  0
  -25.9286  -11.6516   20.5713 N   0  0  0  0  0  0
  -22.0396  -12.8328   22.0440 N   0  0  0  0  0  0
  -25.4153  -15.1890   20.4080 N   0  0  0  0  0  0
  -31.7820  -14.8766   20.1975 O   0  0  0  0  0  0
  -21.6618   -6.8884   21.4240 O   0  0  0  0  0  0
  -22.3508  -14.5547   20.6677 O   0  0  0  0  0  0
  -24.6225  -31.8512   23.1956 C   0  0  0  0  0  0
  -25.9067  -32.4729   23.8303 C   0  0  1  0  0  0
  -27.2811  -27.2860   20.1263 C   0  0  0  0  0  0
  -25.5880  -33.8538   24.2202 N   0  0  0  0  0  0
  -23.4281  -30.4637   21.5324 C   0  0  2  0  0  0
  -24.8935  -28.8952   20.1253 C   0  0  0  0  0  0
  -22.7443  -29.4573   22.4879 C   0  0  0  0  0  0
  -18.0256  -28.1391   22.8440 C   0  0  0  0  0  0
  -24.1488  -36.7300   23.2636 C   0  0  0  0  0  0
  -25.9707  -30.7661   21.3793 C   0  0  0  0  0  0
  -26.0564  -29.3842   20.7309 C   0  0  0  0  0  0
  -27.2495  -28.5936   20.7164 C   0  0  0  0  0  0
  -26.0861  -26.8450   19.5140 C   0  0  0  0  0  0
  -24.9129  -27.6318   19.5046 C   0  0  0  0  0  0
  -23.6575  -29.7751   20.1574 C   0  0  0  0  0  0
  -25.4117  -36.3052   24.0275 C   0  0  1  0  0  0
  -20.5854  -28.3705   23.1241 C   0  0  2  0  0  0
  -20.6739  -26.9429   22.5377 C   0  0  0  0  0  0
  -19.5750  -26.6380   21.5149 C   0  0  0  0  0  0
  -18.1924  -26.7929   22.1557 C   0  0  0  0  0  0
  -19.1512  -28.8848   23.2845 C   0  0  0  0  0  0
  -18.9461  -30.1430   23.8902 C   0  0  0  0  0  0
  -17.6474  -30.6595   24.0552 C   0  0  0  0  0  0
  -25.9050  -34.9421   23.5059 C   0  0  0  0  0  0
  -16.5359  -29.9108   23.6330 C   0  0  0  0  0  0
  -16.7246  -28.6514   23.0368 C   0  0  0  0  0  0
  -26.4497  -31.6596   25.0710 C   0  0  0  0  0  0
  -25.3717  -31.3826   26.1437 C   0  0  0  0  0  0
  -27.0355  -30.2986   24.6285 C   0  0  0  0  0  0
  -27.6062  -32.4349   25.7467 C   0  0  0  0  0  0
  -27.5564  -37.1786   24.8435 C   0  0  0  0  0  0
  -21.4145  -29.3076   22.3636 N   0  0  0  0  0  0
  -26.4280  -37.3753   23.9378 N   0  0  0  0  0  0
  -24.6917  -31.0449   22.0937 N   0  0  0  0  0  0
  -23.4109  -28.8110   23.3003 O   0  0  0  0  0  0
  -28.4467  -26.4854   20.0559 O   0  0  0  0  0  0
  -26.5651  -34.8886   22.4643 O   0  0  0  0  0  0
  -23.5386  -32.1351   23.7237 O   0  0  0  0  0  0
  -29.7744  -20.7633   18.2006 C   0  0  0  0  0  0
  -29.5868  -21.0468   19.5673 C   0  0  0  0  0  0
  -29.5210  -19.9336   20.4444 C   0  0  0  0  0  0
  -29.8987  -19.4037   17.8139 C   0  0  0  0  0  0
  -29.7476  -18.5688   20.0094 C   0  0  0  0  0  0
  -29.2326  -20.4656   21.8345 C   0  0  0  0  0  0
  -28.8966  -21.9899   21.6350 C   0  0  0  0  0  0
  -31.4328  -18.4737   15.9175 C   0  0  0  0  0  0
  -30.9606  -19.8251   15.4410 C   0  0  0  0  0  0
  -29.5517  -22.4320   20.3043 C   0  0  2  0  0  0
  -30.0963  -19.0117   16.3786 C   0  0  0  0  0  0
  -30.4597  -24.3994   18.9229 C   0  0  0  0  0  0
  -30.0453  -17.3131   20.9443 C   0  0  0  0  0  0
  -28.4845  -25.0515   20.5013 C   0  0  0  0  0  0
  -29.1631  -23.8664   19.6062 C   0  0  2  0  0  0
  -29.9035  -18.3543   18.6836 N   0  0  0  0  0  0
  -29.7524  -15.8612   20.5724 N   0  0  0  0  0  0
  -31.4897  -12.6011   19.1697 H   0  0  0  0  0  0
  -30.4201  -11.4868   19.9778 H   0  0  0  0  0  0
  -29.8134  -11.6891   17.5431 H   0  0  0  0  0  0
  -29.6393  -13.4208   17.6941 H   0  0  0  0  0  0
  -27.9394  -11.2514   18.9849 H   0  0  0  0  0  0
  -27.3796  -12.4083   17.8093 H   0  0  0  0  0  0
  -27.6322  -14.2305   19.4289 H   0  0  0  0  0  0
  -28.7137  -12.1882   21.4400 H   0  0  0  0  0  0
  -28.4081  -13.8756   21.7649 H   0  0  0  0  0  0
  -25.2768   -9.5651   22.4791 H   0  0  0  0  0  0
  -23.9984   -7.4604   22.7501 H   0  0  0  0  0  0
  -21.0783   -8.8817   19.8997 H   0  0  0  0  0  0
  -22.3707  -10.9693   19.6206 H   0  0  0  0  0  0
  -21.2024   -7.6137   23.9738 H   0  0  0  0  0  0
  -21.1476   -6.0519   25.9110 H   0  0  0  0  0  0
  -22.0574   -2.7588   23.2837 H   0  0  0  0  0  0
  -22.3917  -12.0021   22.4960 H   0  0  0  0  0  0
  -21.1036  -13.1448   22.2575 H   0  0  0  0  0  0
  -24.6378  -15.8331   20.5132 H   0  0  0  0  0  0
  -26.2432  -15.6319   20.0281 H   0  0  0  0  0  0
  -26.7124  -32.5429   23.1041 H   0  0  0  0  0  0
  -24.9969  -33.9687   25.0306 H   0  0  0  0  0  0
  -22.7266  -31.2843   21.3673 H   0  0  0  0  0  0
  -23.3709  -35.9682   23.3310 H   0  0  0  0  0  0
  -24.3608  -36.8950   22.2068 H   0  0  0  0  0  0
  -23.7291  -37.6499   23.6705 H   0  0  0  0  0  0
  -26.1030  -31.5216   20.6025 H   0  0  0  0  0  0
  -26.8432  -30.8309   22.0162 H   0  0  0  0  0  0
  -28.1486  -28.9781   21.1793 H   0  0  0  0  0  0
  -26.0772  -25.8827   19.0233 H   0  0  0  0  0  0
  -24.0259  -27.2528   19.0154 H   0  0  0  0  0  0
  -23.7820  -30.5375   19.3867 H   0  0  0  0  0  0
  -22.7840  -29.1930   19.8571 H   0  0  0  0  0  0
  -25.1308  -36.1904   25.0762 H   0  0  0  0  0  0
  -20.9937  -28.3321   24.1362 H   0  0  0  0  0  0
  -20.5567  -26.2345   23.3588 H   0  0  0  0  0  0
  -21.6638  -26.7431   22.1248 H   0  0  0  0  0  0
  -19.6956  -25.6281   21.1218 H   0  0  0  0  0  0
  -19.6711  -27.3136   20.6648 H   0  0  0  0  0  0
  -17.4180  -26.6597   21.3987 H   0  0  0  0  0  0
  -18.0414  -26.0071   22.8965 H   0  0  0  0  0  0
  -19.7955  -30.7204   24.2316 H   0  0  0  0  0  0
  -17.5066  -31.6274   24.5149 H   0  0  0  0  0  0
  -15.5383  -30.3043   23.7664 H   0  0  0  0  0  0
  -15.8615  -28.0815   22.7176 H   0  0  0  0  0  0
  -24.5832  -30.7238   25.7796 H   0  0  0  0  0  0
  -24.8949  -32.3030   26.4823 H   0  0  0  0  0  0
  -25.7978  -30.9011   27.0239 H   0  0  0  0  0  0
  -26.2969  -29.6703   24.1273 H   0  0  0  0  0  0
  -27.3973  -29.7327   25.4890 H   0  0  0  0  0  0
  -27.8883  -30.4226   23.9595 H   0  0  0  0  0  0
  -27.2676  -33.3652   26.2048 H   0  0  0  0  0  0
  -28.3866  -32.6906   25.0286 H   0  0  0  0  0  0
  -28.0739  -31.8467   26.5375 H   0  0  0  0  0  0
  -28.2565  -38.0092   24.7464 H   0  0  0  0  0  0
  -28.1054  -36.2612   24.6261 H   0  0  0  0  0  0
  -27.2279  -37.1471   25.8836 H   0  0  0  0  0  0
  -20.9342  -29.8813   21.6832 H   0  0  0  0  0  0
  -26.0134  -38.2799   24.1434 H   0  0  0  0  0  0
  -29.8506  -21.5575   17.4718 H   0  0  0  0  0  0
  -30.1211  -20.3354   22.4494 H   0  0  0  0  0  0
  -28.4116  -19.9238   22.3076 H   0  0  0  0  0  0
  -29.2005  -22.6009   22.4843 H   0  0  0  0  0  0
  -27.8174  -22.0953   21.5260 H   0  0  0  0  0  0
  -32.2458  -18.4534   16.6433 H   0  0  0  0  0  0
  -31.4412  -17.6678   15.1866 H   0  0  0  0  0  0
  -30.6535  -19.8906   14.4028 H   0  0  0  0  0  0
  -31.4595  -20.7078   15.8376 H   0  0  0  0  0  0
  -30.5968  -22.5642   20.5929 H   0  0  0  0  0  0
  -29.1944  -18.5599   15.9626 H   0  0  0  0  0  0
  -30.8549  -23.6832   18.1988 H   0  0  0  0  0  0
  -31.2584  -24.5823   19.6463 H   0  0  0  0  0  0
  -30.3316  -25.3312   18.3720 H   0  0  0  0  0  0
  -29.5071  -17.4938   21.8738 H   0  0  0  0  0  0
  -31.1021  -17.3772   21.2023 H   0  0  0  0  0  0
  -29.0373  -25.0802   21.4446 H   0  0  0  0  0  0
  -27.4815  -24.7403   20.7938 H   0  0  0  0  0  0
  -28.4491  -23.6522   18.8090 H   0  0  0  0  0  0
  -28.7738  -15.6283   20.5677 H   0  0  0  0  0  0
  1 25  1  0  0  0
  1 30  2  0  0  0
  1 87  1  0  0  0
  2  3  1  0  0  0
  2 25  1  0  0  0
  2 88  1  0  0  0
  2 89  1  0  0  0
  3  4  1  0  0  0
  3 90  1  0  0  0
  3 91  1  0  0  0
  4  5  1  0  0  0
  4 92  1  0  0  0
  4 93  1  0  0  0
  5  6  1  0  0  0
  5 26  1  0  0  0
  5 94  1  0  0  0
  6 25  1  0  0  0
  6 95  1  0  0  0
  6 96  1  0  0  0
  7  8  2  0  0  0
  7 26  1  0  0  0
  7 29  1  0  0  0
  8  9  1  0  0  0
  8 22  1  0  0  0
  9 10  1  0  0  0
  9 27  2  0  0  0
 10 11  2  0  0  0
 10 15  1  0  0  0
 11 12  1  0  0  0
 11 97  1  0  0  0
 12 13  2  0  0  0
 12 98  1  0  0  0
 13 14  1  0  0  0
 13 31  1  0  0  0
 14 15  2  0  0  0
 14 99  1  0  0  0
 15100  1  0  0  0
 16 17  2  0  0  0
 16 21  1  0  0  0
 16 31  1  0  0  0
 17 18  1  0  0  0
 17101  1  0  0  0
 18 19  2  0  0  0
 18102  1  0  0  0
 19 20  1  0  0  0
 19 24  1  0  0  0
 20 21  2  0  0  0
 20103  1  0  0  0
 21 23  1  0  0  0
 22 28  1  0  0  0
 22 32  2  0  0  0
 26 27  1  0  0  0
 28104  1  0  0  0
 28105  1  0  0  0
 29106  1  0  0  0
 29107  1  0  0  0
 33 34  1  0  0  0
 33 66  1  0  0  0
 33 70  2  0  0  0
 34 36  1  0  0  0
 34 59  1  0  0  0
 34108  1  0  0  0
 35 44  2  0  0  0
 35 45  1  0  0  0
 35 68  1  0  0  0
 36 56  1  0  0  0
 36109  1  0  0  0
 37 39  1  0  0  0
 37 47  1  0  0  0
 37 66  1  0  0  0
 37110  1  0  0  0
 38 43  2  0  0  0
 38 46  1  0  0  0
 38 47  1  0  0  0
 39 64  1  0  0  0
 39 67  2  0  0  0
 40 52  1  0  0  0
 40 53  2  0  0  0
 40 58  1  0  0  0
 41111  1  0  0  0
 41112  1  0  0  0
 41113  1  0  0  0
 41 48  1  0  0  0
 42 43  1  0  0  0
 42 66  1  0  0  0
 42114  1  0  0  0
 42115  1  0  0  0
 43 44  1  0  0  0
 44116  1  0  0  0
 45 46  2  0  0  0
 45117  1  0  0  0
 46118  1  0  0  0
 47119  1  0  0  0
 47120  1  0  0  0
 48 56  1  0  0  0
 48 65  1  0  0  0
 48121  1  0  0  0
 49 50  1  0  0  0
 49 53  1  0  0  0
 49 64  1  0  0  0
 49122  1  0  0  0
 50 51  1  0  0  0
 50123  1  0  0  0
 50124  1  0  0  0
 51 52  1  0  0  0
 51125  1  0  0  0
 51126  1  0  0  0
 52127  1  0  0  0
 52128  1  0  0  0
 53 54  1  0  0  0
 54 55  2  0  0  0
 54129  1  0  0  0
 55 57  1  0  0  0
 55130  1  0  0  0
 56 69  2  0  0  0
 57 58  2  0  0  0
 57131  1  0  0  0
 58132  1  0  0  0
 59 60  1  0  0  0
 59 61  1  0  0  0
 59 62  1  0  0  0
 60133  1  0  0  0
 60134  1  0  0  0
 60135  1  0  0  0
 61136  1  0  0  0
 61137  1  0  0  0
 61138  1  0  0  0
 62139  1  0  0  0
 62140  1  0  0  0
 62141  1  0  0  0
 63 65  1  0  0  0
 63142  1  0  0  0
 63143  1  0  0  0
 63144  1  0  0  0
 64145  1  0  0  0
 65146  1  0  0  0
 68 84  1  0  0  0
 71 72  2  0  0  0
 71 74  1  0  0  0
 71147  1  0  0  0
 72 73  1  0  0  0
 72 80  1  0  0  0
 73 75  2  0  0  0
 73 76  1  0  0  0
 74 86  2  0  0  0
 74 81  1  0  0  0
 75 83  1  0  0  0
 75 86  1  0  0  0
 76 77  1  0  0  0
 76148  1  0  0  0
 76149  1  0  0  0
 77150  1  0  0  0
 77151  1  0  0  0
 77 80  1  0  0  0
 78 79  1  0  0  0
 78 81  1  0  0  0
 78152  1  0  0  0
 78153  1  0  0  0
 79 81  1  0  0  0
 79154  1  0  0  0
 79155  1  0  0  0
 80 85  1  0  0  0
 80156  1  0  0  0
 81157  1  0  0  0
 82158  1  0  0  0
 82159  1  0  0  0
 82160  1  0  0  0
 82 85  1  0  0  0
 83 87  1  0  0  0
 83161  1  0  0  0
 83162  1  0  0  0
 84 85  1  0  0  0
 84163  1  0  0  0
 84164  1  0  0  0
 85165  1  0  0  0
 87166  1  0  0  0
M  ISO  4   1 100  68 101  84 101  87 100
M  END
> <chiral flag>
0

> <version>
0

> <s_m_source_file>
/data/baiqing/PycharmProjects/Reinvent-master-3.2/result/LINK_invent/BTK/process_docking_weight1_custom_sum_contain_oxygen_bond_distance_aromatic_linkinvent_7_9_3/rearranged_h_0178.sdf

> <i_m_source_file_index>
12

> <r_mmod_Potential_Energy-OPLS-2005>
-3.75470113754272

> <r_mmod_Stretch_Energy-OPLS-2005>
120.344024658203

> <r_mmod_Bend_Energy-OPLS-2005>
246.41618347168

> <r_mmod_Torsional_Energy-OPLS-2005>
276.980651855469

> <r_mmod_Improper_Torsional_Energy-OPLS-2005>
5.75225830078125

> <r_mmod_Van_der_Waal_Energy-OPLS-2005>
121.684425354004

> <r_mmod_Electrostatic_Energy-OPLS-2005>
-631.117553710938

> <r_mmod_Solvation_Energy-OPLS-2005>
-226.41276550293

> <b_mmod_Minimization_Converged-OPLS-2005>
0

> <r_mmod_RMS_Derivative-OPLS-2005>
7.76410865783691

$$$$
12
                    3D
 Structure written by MMmdl.
156165  0  0  1  0            999 V2000
  -30.5704  -14.8785   20.4207 C   0  0  0  0  0  0
  -30.4287  -12.5372   19.4952 C   0  0  0  0  0  0
  -29.5140  -12.5202   18.2499 C   0  0  0  0  0  0
  -28.0436  -12.3239   18.6625 C   0  0  0  0  0  0
  -27.6294  -13.2461   19.8392 C   0  0  2  0  0  0
  -28.6700  -13.2515   20.9787 C   0  0  0  0  0  0
  -25.2458  -13.8213   20.5712 C   0  0  0  0  0  0
  -24.1782  -13.0440   20.9223 C   0  0  0  0  0  0
  -24.6394  -11.6922   20.8748 C   0  0  0  0  0  0
  -23.9078  -10.4291   21.0405 C   0  0  0  0  0  0
  -24.3627   -9.4206   21.9186 C   0  0  0  0  0  0
  -23.6299   -8.2240   22.0747 C   0  0  0  0  0  0
  -22.4277   -8.0281   21.3539 C   0  0  0  0  0  0
  -21.9920   -9.0255   20.4641 C   0  0  0  0  0  0
  -22.7249  -10.2132   20.3055 C   0  0  0  0  0  0
  -21.6854   -6.0743   22.5279 C   0  0  0  0  0  0
  -21.4024   -6.5645   23.8213 C   0  0  0  0  0  0
  -21.3661   -5.6794   24.9172 C   0  0  0  0  0  0
  -21.6034   -4.3055   24.7220 C   0  0  0  0  0  0
  -21.8821   -3.8152   23.4340 C   0  0  0  0  0  0
  -21.9198   -4.6972   22.3400 C   0  0  0  0  0  0
  -22.7805  -13.5211   21.1889 C   0  0  0  0  0  0
  -22.1666   -4.2158   21.0975 F   0  0  0  0  0  0
  -21.5623   -3.4538   25.7730 F   0  0  0  0  0  0
  -29.9554  -13.6345   20.3844 N   0  0  0  0  0  0
  -26.2875  -12.9444   20.3231 N   0  0  0  0  0  0
  -25.9323  -11.6570   20.5733 N   0  0  0  0  0  0
  -22.0458  -12.8193   22.0439 N   0  0  0  0  0  0
  -25.4112  -15.1947   20.4156 N   0  0  0  0  0  0
  -31.7718  -14.9303   20.1398 O   0  0  0  0  0  0
  -21.6639   -6.8883   21.4236 O   0  0  0  0  0  0
  -22.3484  -14.5515   20.6725 O   0  0  0  0  0  0
  -24.6419  -31.8442   23.1863 C   0  0  0  0  0  0
  -25.9205  -32.4689   23.8250 C   0  0  1  0  0  0
  -27.2213  -27.1553   20.1460 C   0  0  0  0  0  0
  -25.5960  -33.8496   24.2185 N   0  0  0  0  0  0
  -23.4435  -30.4638   21.5312 C   0  0  2  0  0  0
  -24.8914  -28.8874   20.1080 C   0  0  0  0  0  0
  -22.7555  -29.4557   22.4852 C   0  0  0  0  0  0
  -18.0306  -28.1402   22.8486 C   0  0  0  0  0  0
  -24.1491  -36.7245   23.2643 C   0  0  0  0  0  0
  -25.9965  -30.7237   21.3795 C   0  0  0  0  0  0
  -26.0656  -29.3354   20.7246 C   0  0  0  0  0  0
  -27.2279  -28.4840   20.7269 C   0  0  0  0  0  0
  -26.0205  -26.7959   19.4973 C   0  0  0  0  0  0
  -24.8799  -27.6306   19.4820 C   0  0  0  0  0  0
  -23.6675  -29.7885   20.1509 C   0  0  0  0  0  0
  -25.4123  -36.3029   24.0323 C   0  0  1  0  0  0
  -20.5917  -28.3727   23.1240 C   0  0  2  0  0  0
  -20.6793  -26.9432   22.5412 C   0  0  0  0  0  0
  -19.5766  -26.6393   21.5223 C   0  0  0  0  0  0
  -18.1944  -26.7939   22.1628 C   0  0  0  0  0  0
  -19.1562  -28.8883   23.2855 C   0  0  0  0  0  0
  -18.9478  -30.1478   23.8886 C   0  0  0  0  0  0
  -17.6475  -30.6599   24.0569 C   0  0  0  0  0  0
  -25.9079  -34.9406   23.5063 C   0  0  0  0  0  0
  -16.5366  -29.9099   23.6336 C   0  0  0  0  0  0
  -16.7289  -28.6515   23.0362 C   0  0  0  0  0  0
  -26.4532  -31.6545   25.0683 C   0  0  0  0  0  0
  -25.3719  -31.3726   26.1378 C   0  0  0  0  0  0
  -27.0393  -30.2946   24.6245 C   0  0  0  0  0  0
  -27.6070  -32.4294   25.7470 C   0  0  0  0  0  0
  -27.5575  -37.1782   24.8470 C   0  0  0  0  0  0
  -21.4250  -29.3044   22.3598 N   0  0  0  0  0  0
  -26.4284  -37.3745   23.9414 N   0  0  0  0  0  0
  -24.7139  -31.0326   22.0876 N   0  0  0  0  0  0
  -23.4208  -28.8130   23.3012 O   0  0  0  0  0  0
  -28.3147  -26.2291   20.2343 O   0  0  0  0  0  0
  -26.5668  -34.8911   22.4644 O   0  0  0  0  0  0
  -23.5550  -32.1309   23.7114 O   0  0  0  0  0  0
  -28.6581  -20.9017   21.6802 C   0  0  0  0  0  0
  -29.0325  -19.5108   21.5673 C   0  0  0  0  0  0
  -28.7583  -21.8937   20.6346 C   0  0  0  0  0  0
  -29.5525  -18.9709   20.3660 C   0  0  0  0  0  0
  -29.2519  -21.2365   19.4518 C   0  0  0  0  0  0
  -28.7643  -23.9680   22.3292 C   0  0  0  0  0  0
  -27.3219  -23.7074   22.0184 C   0  0  0  0  0  0
  -28.3733  -23.4903   20.9379 C   0  0  0  0  0  0
  -29.4244  -22.0270   18.1737 C   0  0  0  0  0  0
  -30.3007  -17.5179   20.2003 C   0  0  0  0  0  0
  -28.3344  -24.7225   19.8507 C   0  0  0  0  0  0
  -29.6245  -19.8919   19.3424 N   0  0  0  0  0  0
  -29.8236  -16.0707   20.5387 N   0  0  0  0  0  0
  -31.4674  -12.6698   19.1878 H   0  0  0  0  0  0
  -30.3925  -11.5783   20.0148 H   0  0  0  0  0  0
  -29.8196  -11.7292   17.5635 H   0  0  0  0  0  0
  -29.6198  -13.4590   17.7039 H   0  0  0  0  0  0
  -27.9229  -11.2806   18.9558 H   0  0  0  0  0  0
  -27.3843  -12.4782   17.8078 H   0  0  0  0  0  0
  -27.6015  -14.2543   19.4264 H   0  0  0  0  0  0
  -28.7336  -12.2743   21.4595 H   0  0  0  0  0  0
  -28.3813  -13.9616   21.7554 H   0  0  0  0  0  0
  -25.2772   -9.5688   22.4763 H   0  0  0  0  0  0
  -24.0012   -7.4635   22.7470 H   0  0  0  0  0  0
  -21.0850   -8.8773   19.8955 H   0  0  0  0  0  0
  -22.3705  -10.9670   19.6166 H   0  0  0  0  0  0
  -21.2023   -7.6153   23.9722 H   0  0  0  0  0  0
  -21.1476   -6.0520   25.9074 H   0  0  0  0  0  0
  -22.0601   -2.7615   23.2831 H   0  0  0  0  0  0
  -22.4078  -11.9854   22.4822 H   0  0  0  0  0  0
  -21.1073  -13.1200   22.2651 H   0  0  0  0  0  0
  -24.6383  -15.8419   20.5267 H   0  0  0  0  0  0
  -26.2513  -15.6377   20.0674 H   0  0  0  0  0  0
  -26.7275  -32.5299   23.0982 H   0  0  0  0  0  0
  -25.0082  -33.9598   25.0319 H   0  0  0  0  0  0
  -22.7448  -31.2887   21.3763 H   0  0  0  0  0  0
  -23.3760  -35.9567   23.3296 H   0  0  0  0  0  0
  -24.3571  -36.8883   22.2057 H   0  0  0  0  0  0
  -23.7241  -37.6442   23.6677 H   0  0  0  0  0  0
  -26.1502  -31.4759   20.6042 H   0  0  0  0  0  0
  -26.8686  -30.7731   22.0197 H   0  0  0  0  0  0
  -28.1238  -28.8230   21.2280 H   0  0  0  0  0  0
  -25.9251  -25.8347   19.0182 H   0  0  0  0  0  0
  -23.9810  -27.2794   18.9940 H   0  0  0  0  0  0
  -23.8021  -30.5598   19.3912 H   0  0  0  0  0  0
  -22.7820  -29.2287   19.8436 H   0  0  0  0  0  0
  -25.1307  -36.1851   25.0815 H   0  0  0  0  0  0
  -21.0018  -28.3332   24.1358 H   0  0  0  0  0  0
  -20.5693  -26.2345   23.3635 H   0  0  0  0  0  0
  -21.6658  -26.7445   22.1207 H   0  0  0  0  0  0
  -19.6927  -25.6302   21.1259 H   0  0  0  0  0  0
  -19.6706  -27.3199   20.6752 H   0  0  0  0  0  0
  -17.4217  -26.6698   21.4025 H   0  0  0  0  0  0
  -18.0336  -26.0084   22.9024 H   0  0  0  0  0  0
  -19.7951  -30.7300   24.2254 H   0  0  0  0  0  0
  -17.5027  -31.6275   24.5173 H   0  0  0  0  0  0
  -15.5365  -30.3002   23.7663 H   0  0  0  0  0  0
  -15.8687  -28.0832   22.7089 H   0  0  0  0  0  0
  -24.5936  -30.7027   25.7702 H   0  0  0  0  0  0
  -24.8861  -32.2900   26.4707 H   0  0  0  0  0  0
  -25.8006  -30.8978   27.0210 H   0  0  0  0  0  0
  -26.3001  -29.6663   24.1265 H   0  0  0  0  0  0
  -27.4038  -29.7244   25.4797 H   0  0  0  0  0  0
  -27.8889  -30.4190   23.9529 H   0  0  0  0  0  0
  -27.2688  -33.3632   26.1969 H   0  0  0  0  0  0
  -28.3926  -32.6782   25.0324 H   0  0  0  0  0  0
  -28.0680  -31.8457   26.5450 H   0  0  0  0  0  0
  -28.2589  -38.0083   24.7517 H   0  0  0  0  0  0
  -28.1075  -36.2612   24.6289 H   0  0  0  0  0  0
  -27.2291  -37.1417   25.8875 H   0  0  0  0  0  0
  -20.9465  -29.8727   21.6750 H   0  0  0  0  0  0
  -26.0147  -38.2812   24.1414 H   0  0  0  0  0  0
  -28.3079  -21.2083   22.6530 H   0  0  0  0  0  0
  -28.9733  -18.8745   22.4407 H   0  0  0  0  0  0
  -29.2762  -23.2782   22.9963 H   0  0  0  0  0  0
  -29.0572  -25.0097   22.4458 H   0  0  0  0  0  0
  -26.6780  -24.5812   21.9296 H   0  0  0  0  0  0
  -26.8393  -22.8404   22.4616 H   0  0  0  0  0  0
  -30.2450  -22.7378   18.2760 H   0  0  0  0  0  0
  -28.5092  -22.5702   17.9415 H   0  0  0  0  0  0
  -29.6426  -21.3785   17.3250 H   0  0  0  0  0  0
  -31.2427  -17.6383   20.7364 H   0  0  0  0  0  0
  -30.6009  -17.4684   19.1526 H   0  0  0  0  0  0
  -27.5527  -24.5010   19.1280 H   0  0  0  0  0  0
  -29.2571  -24.6329   19.2787 H   0  0  0  0  0  0
  -28.8418  -15.9689   20.7435 H   0  0  0  0  0  0
  1 25  1  0  0  0
  1 30  2  0  0  0
  1 83  1  0  0  0
  2  3  1  0  0  0
  2 25  1  0  0  0
  2 84  1  0  0  0
  2 85  1  0  0  0
  3  4  1  0  0  0
  3 86  1  0  0  0
  3 87  1  0  0  0
  4  5  1  0  0  0
  4 88  1  0  0  0
  4 89  1  0  0  0
  5  6  1  0  0  0
  5 26  1  0  0  0
  5 90  1  0  0  0
  6 25  1  0  0  0
  6 91  1  0  0  0
  6 92  1  0  0  0
  7  8  2  0  0  0
  7 26  1  0  0  0
  7 29  1  0  0  0
  8  9  1  0  0  0
  8 22  1  0  0  0
  9 10  1  0  0  0
  9 27  2  0  0  0
 10 11  2  0  0  0
 10 15  1  0  0  0
 11 12  1  0  0  0
 11 93  1  0  0  0
 12 13  2  0  0  0
 12 94  1  0  0  0
 13 14  1  0  0  0
 13 31  1  0  0  0
 14 15  2  0  0  0
 14 95  1  0  0  0
 15 96  1  0  0  0
 16 17  2  0  0  0
 16 21  1  0  0  0
 16 31  1  0  0  0
 17 18  1  0  0  0
 17 97  1  0  0  0
 18 19  2  0  0  0
 18 98  1  0  0  0
 19 20  1  0  0  0
 19 24  1  0  0  0
 20 21  2  0  0  0
 20 99  1  0  0  0
 21 23  1  0  0  0
 22 28  1  0  0  0
 22 32  2  0  0  0
 26 27  1  0  0  0
 28100  1  0  0  0
 28101  1  0  0  0
 29102  1  0  0  0
 29103  1  0  0  0
 33 34  1  0  0  0
 33 66  1  0  0  0
 33 70  2  0  0  0
 34 36  1  0  0  0
 34 59  1  0  0  0
 34104  1  0  0  0
 35 44  2  0  0  0
 35 45  1  0  0  0
 35 68  1  0  0  0
 36 56  1  0  0  0
 36105  1  0  0  0
 37 39  1  0  0  0
 37 47  1  0  0  0
 37 66  1  0  0  0
 37106  1  0  0  0
 38 43  2  0  0  0
 38 46  1  0  0  0
 38 47  1  0  0  0
 39 64  1  0  0  0
 39 67  2  0  0  0
 40 52  1  0  0  0
 40 53  2  0  0  0
 40 58  1  0  0  0
 41107  1  0  0  0
 41108  1  0  0  0
 41109  1  0  0  0
 41 48  1  0  0  0
 42 43  1  0  0  0
 42 66  1  0  0  0
 42110  1  0  0  0
 42111  1  0  0  0
 43 44  1  0  0  0
 44112  1  0  0  0
 45 46  2  0  0  0
 45113  1  0  0  0
 46114  1  0  0  0
 47115  1  0  0  0
 47116  1  0  0  0
 48 56  1  0  0  0
 48 65  1  0  0  0
 48117  1  0  0  0
 49 50  1  0  0  0
 49 53  1  0  0  0
 49 64  1  0  0  0
 49118  1  0  0  0
 50 51  1  0  0  0
 50119  1  0  0  0
 50120  1  0  0  0
 51 52  1  0  0  0
 51121  1  0  0  0
 51122  1  0  0  0
 52123  1  0  0  0
 52124  1  0  0  0
 53 54  1  0  0  0
 54 55  2  0  0  0
 54125  1  0  0  0
 55 57  1  0  0  0
 55126  1  0  0  0
 56 69  2  0  0  0
 57 58  2  0  0  0
 57127  1  0  0  0
 58128  1  0  0  0
 59 60  1  0  0  0
 59 61  1  0  0  0
 59 62  1  0  0  0
 60129  1  0  0  0
 60130  1  0  0  0
 60131  1  0  0  0
 61132  1  0  0  0
 61133  1  0  0  0
 61134  1  0  0  0
 62135  1  0  0  0
 62136  1  0  0  0
 62137  1  0  0  0
 63 65  1  0  0  0
 63138  1  0  0  0
 63139  1  0  0  0
 63140  1  0  0  0
 64141  1  0  0  0
 65142  1  0  0  0
 68 81  1  0  0  0
 71 72  2  0  0  0
 71 73  1  0  0  0
 71143  1  0  0  0
 72 74  1  0  0  0
 72144  1  0  0  0
 73 75  2  0  0  0
 73 78  1  0  0  0
 74 80  1  0  0  0
 74 82  2  0  0  0
 75 79  1  0  0  0
 75 82  1  0  0  0
 76 77  1  0  0  0
 76 78  1  0  0  0
 76145  1  0  0  0
 76146  1  0  0  0
 77 78  1  0  0  0
 77147  1  0  0  0
 77148  1  0  0  0
 78 81  1  0  0  0
 79149  1  0  0  0
 79150  1  0  0  0
 79151  1  0  0  0
 80 83  1  0  0  0
 80152  1  0  0  0
 80153  1  0  0  0
 81154  1  0  0  0
 81155  1  0  0  0
 83156  1  0  0  0
M  ISO  4   1 100  68 101  81 101  83 100
M  END
> <chiral flag>
0

> <version>
0

> <s_m_source_file>
/data/baiqing/PycharmProjects/Reinvent-master-3.2/result/LINK_invent/BTK/process_docking_weight1_custom_sum_contain_oxygen_bond_distance_aromatic_linkinvent_7_9_3/rearranged_h_0178.sdf

> <i_m_source_file_index>
13

> <r_mmod_Potential_Energy-OPLS-2005>
194.576812744141

> <r_mmod_Stretch_Energy-OPLS-2005>
218.858642578125

> <r_mmod_Bend_Energy-OPLS-2005>
274.126281738281

> <r_mmod_Torsional_Energy-OPLS-2005>
236.764404296875

> <r_mmod_Improper_Torsional_Energy-OPLS-2005>
6.6205587387085

> <r_mmod_Van_der_Waal_Energy-OPLS-2005>
135.163604736328

> <r_mmod_Electrostatic_Energy-OPLS-2005>
-611.679382324219

> <r_mmod_Solvation_Energy-OPLS-2005>
-221.044647216797

> <b_mmod_Minimization_Converged-OPLS-2005>
0

> <r_mmod_RMS_Derivative-OPLS-2005>
1.46364271640778

$$$$
13
                    3D
 Structure written by MMmdl.
160169  0  0  1  0            999 V2000
  -30.5694  -14.9191   20.3998 C   0  0  0  0  0  0
  -30.4395  -12.5711   19.4757 C   0  0  0  0  0  0
  -29.5109  -12.5147   18.2423 C   0  0  0  0  0  0
  -28.0490  -12.2972   18.6762 C   0  0  0  0  0  0
  -27.6273  -13.2336   19.8382 C   0  0  2  0  0  0
  -28.6800  -13.2814   20.9646 C   0  0  0  0  0  0
  -25.2492  -13.8175   20.5752 C   0  0  0  0  0  0
  -24.1782  -13.0418   20.9221 C   0  0  0  0  0  0
  -24.6383  -11.6896   20.8770 C   0  0  0  0  0  0
  -23.9063  -10.4279   21.0427 C   0  0  0  0  0  0
  -24.3611   -9.4194   21.9204 C   0  0  0  0  0  0
  -23.6279   -8.2236   22.0771 C   0  0  0  0  0  0
  -22.4263   -8.0278   21.3554 C   0  0  0  0  0  0
  -21.9905   -9.0253   20.4655 C   0  0  0  0  0  0
  -22.7242  -10.2127   20.3070 C   0  0  0  0  0  0
  -21.6850   -6.0731   22.5280 C   0  0  0  0  0  0
  -21.4019   -6.5640   23.8212 C   0  0  0  0  0  0
  -21.3653   -5.6794   24.9174 C   0  0  0  0  0  0
  -21.6038   -4.3057   24.7230 C   0  0  0  0  0  0
  -21.8817   -3.8147   23.4353 C   0  0  0  0  0  0
  -21.9193   -4.6959   22.3406 C   0  0  0  0  0  0
  -22.7808  -13.5207   21.1862 C   0  0  0  0  0  0
  -22.1661   -4.2145   21.0984 F   0  0  0  0  0  0
  -21.5620   -3.4543   25.7746 F   0  0  0  0  0  0
  -29.9515  -13.6744   20.3445 N   0  0  0  0  0  0
  -26.2895  -12.9369   20.3309 N   0  0  0  0  0  0
  -25.9313  -11.6515   20.5787 N   0  0  0  0  0  0
  -22.0453  -12.8202   22.0417 N   0  0  0  0  0  0
  -25.4207  -15.1908   20.4217 N   0  0  0  0  0  0
  -31.7965  -14.9548   20.2582 O   0  0  0  0  0  0
  -21.6631   -6.8876   21.4244 O   0  0  0  0  0  0
  -22.3500  -14.5511   20.6703 O   0  0  0  0  0  0
  -24.6423  -31.8480   23.1937 C   0  0  0  0  0  0
  -25.9201  -32.4719   23.8311 C   0  0  1  0  0  0
  -27.2105  -27.1523   20.1365 C   0  0  0  0  0  0
  -25.5966  -33.8525   24.2234 N   0  0  0  0  0  0
  -23.4446  -30.4714   21.5401 C   0  0  2  0  0  0
  -24.8929  -28.9105   20.1093 C   0  0  0  0  0  0
  -22.7560  -29.4574   22.4877 C   0  0  0  0  0  0
  -18.0307  -28.1400   22.8482 C   0  0  0  0  0  0
  -24.1492  -36.7261   23.2637 C   0  0  0  0  0  0
  -26.0017  -30.7253   21.3922 C   0  0  0  0  0  0
  -26.0720  -29.3393   20.7317 C   0  0  0  0  0  0
  -27.2314  -28.4752   20.7352 C   0  0  0  0  0  0
  -26.0055  -26.8395   19.4603 C   0  0  0  0  0  0
  -24.8721  -27.6726   19.4588 C   0  0  0  0  0  0
  -23.6694  -29.8099   20.1568 C   0  0  0  0  0  0
  -25.4124  -36.3048   24.0317 C   0  0  1  0  0  0
  -20.5918  -28.3730   23.1245 C   0  0  2  0  0  0
  -20.6797  -26.9438   22.5406 C   0  0  0  0  0  0
  -19.5769  -26.6392   21.5215 C   0  0  0  0  0  0
  -18.1949  -26.7942   22.1622 C   0  0  0  0  0  0
  -19.1560  -28.8882   23.2858 C   0  0  0  0  0  0
  -18.9474  -30.1475   23.8884 C   0  0  0  0  0  0
  -17.6469  -30.6599   24.0560 C   0  0  0  0  0  0
  -25.9072  -34.9419   23.5079 C   0  0  0  0  0  0
  -16.5362  -29.9090   23.6334 C   0  0  0  0  0  0
  -16.7289  -28.6507   23.0364 C   0  0  0  0  0  0
  -26.4537  -31.6562   25.0726 C   0  0  0  0  0  0
  -25.3721  -31.3723   26.1411 C   0  0  0  0  0  0
  -27.0397  -30.2969   24.6265 C   0  0  0  0  0  0
  -27.6089  -32.4302   25.7500 C   0  0  0  0  0  0
  -27.5584  -37.1786   24.8467 C   0  0  0  0  0  0
  -21.4256  -29.3063   22.3619 N   0  0  0  0  0  0
  -26.4295  -37.3756   23.9408 N   0  0  0  0  0  0
  -24.7161  -31.0348   22.0970 N   0  0  0  0  0  0
  -23.4206  -28.8101   23.3010 O   0  0  0  0  0  0
  -28.2389  -26.1400   20.2187 O   0  0  0  0  0  0
  -26.5651  -34.8906   22.4655 O   0  0  0  0  0  0
  -23.5545  -32.1353   23.7168 O   0  0  0  0  0  0
  -28.4806  -22.3716   21.3029 C   0  0  0  0  0  0
  -29.2067  -22.5246   19.0847 C   0  0  0  0  0  0
  -28.6229  -23.2438   20.1686 C   0  0  0  0  0  0
  -28.8711  -20.9569   21.3159 C   0  0  0  0  0  0
  -29.4310  -20.3401   20.1472 C   0  0  0  0  0  0
  -29.0563  -18.0412   18.8682 C   0  0  0  0  0  0
  -29.3930  -16.5179   18.9234 C   0  0  0  0  0  0
  -29.9147  -17.5138   20.9615 C   0  0  0  0  0  0
  -29.9161  -18.7681   19.9097 C   0  0  2  0  0  0
  -31.3791  -18.8517   19.4154 C   0  0  0  0  0  0
  -28.0330  -20.6614   23.5544 C   0  0  0  0  0  0
  -27.8293  -24.6693   19.9627 C   0  0  0  0  0  0
  -29.5747  -21.1889   19.0745 N   0  0  0  0  0  0
  -29.8028  -16.1160   20.2859 N   0  0  0  0  0  0
  -28.6984  -20.1378   22.4114 O   0  0  0  0  0  0
  -31.4699  -12.7327   19.1549 H   0  0  0  0  0  0
  -30.4344  -11.6224   20.0144 H   0  0  0  0  0  0
  -29.8231  -11.7173   17.5663 H   0  0  0  0  0  0
  -29.5912  -13.4444   17.6766 H   0  0  0  0  0  0
  -27.9559  -11.2580   18.9937 H   0  0  0  0  0  0
  -27.3764  -12.4172   17.8261 H   0  0  0  0  0  0
  -27.5720  -14.2266   19.4032 H   0  0  0  0  0  0
  -28.7687  -12.3174   21.4675 H   0  0  0  0  0  0
  -28.3901  -14.0090   21.7250 H   0  0  0  0  0  0
  -25.2754   -9.5660   22.4784 H   0  0  0  0  0  0
  -23.9977   -7.4625   22.7491 H   0  0  0  0  0  0
  -21.0840   -8.8778   19.8952 H   0  0  0  0  0  0
  -22.3713  -10.9670   19.6179 H   0  0  0  0  0  0
  -21.2024   -7.6149   23.9716 H   0  0  0  0  0  0
  -21.1470   -6.0529   25.9074 H   0  0  0  0  0  0
  -22.0602   -2.7610   23.2861 H   0  0  0  0  0  0
  -22.4063  -11.9847   22.4784 H   0  0  0  0  0  0
  -21.1081  -13.1248   22.2635 H   0  0  0  0  0  0
  -24.6610  -15.8494   20.5533 H   0  0  0  0  0  0
  -26.2861  -15.6349   20.1422 H   0  0  0  0  0  0
  -26.7258  -32.5339   23.1036 H   0  0  0  0  0  0
  -25.0116  -33.9651   25.0383 H   0  0  0  0  0  0
  -22.7451  -31.2970   21.3918 H   0  0  0  0  0  0
  -23.3767  -35.9581   23.3283 H   0  0  0  0  0  0
  -24.3583  -36.8908   22.2056 H   0  0  0  0  0  0
  -23.7227  -37.6445   23.6681 H   0  0  0  0  0  0
  -26.1544  -31.4797   20.6190 H   0  0  0  0  0  0
  -26.8740  -30.7775   22.0316 H   0  0  0  0  0  0
  -28.1236  -28.7941   21.2552 H   0  0  0  0  0  0
  -25.8807  -25.9080   18.9326 H   0  0  0  0  0  0
  -23.9758  -27.3436   18.9508 H   0  0  0  0  0  0
  -23.8040  -30.5892   19.4057 H   0  0  0  0  0  0
  -22.7846  -29.2525   19.8448 H   0  0  0  0  0  0
  -25.1306  -36.1891   25.0809 H   0  0  0  0  0  0
  -21.0012  -28.3319   24.1366 H   0  0  0  0  0  0
  -20.5719  -26.2333   23.3617 H   0  0  0  0  0  0
  -21.6659  -26.7468   22.1185 H   0  0  0  0  0  0
  -19.6936  -25.6298   21.1259 H   0  0  0  0  0  0
  -19.6710  -27.3189   20.6736 H   0  0  0  0  0  0
  -17.4222  -26.6694   21.4023 H   0  0  0  0  0  0
  -18.0346  -26.0087   22.9019 H   0  0  0  0  0  0
  -19.7943  -30.7299   24.2257 H   0  0  0  0  0  0
  -17.5017  -31.6275   24.5167 H   0  0  0  0  0  0
  -15.5362  -30.2989   23.7666 H   0  0  0  0  0  0
  -15.8686  -28.0816   22.7104 H   0  0  0  0  0  0
  -24.5949  -30.7019   25.7723 H   0  0  0  0  0  0
  -24.8847  -32.2884   26.4754 H   0  0  0  0  0  0
  -25.8005  -30.8960   27.0238 H   0  0  0  0  0  0
  -26.3004  -29.6692   24.1276 H   0  0  0  0  0  0
  -27.4047  -29.7257   25.4810 H   0  0  0  0  0  0
  -27.8896  -30.4234   23.9555 H   0  0  0  0  0  0
  -27.2730  -33.3643   26.2015 H   0  0  0  0  0  0
  -28.3933  -32.6785   25.0336 H   0  0  0  0  0  0
  -28.0712  -31.8448   26.5459 H   0  0  0  0  0  0
  -28.2590  -38.0096   24.7528 H   0  0  0  0  0  0
  -28.1095  -36.2626   24.6284 H   0  0  0  0  0  0
  -27.2298  -37.1412   25.8869 H   0  0  0  0  0  0
  -20.9460  -29.8769   21.6794 H   0  0  0  0  0  0
  -26.0167  -38.2825   24.1419 H   0  0  0  0  0  0
  -27.9919  -22.7986   22.1651 H   0  0  0  0  0  0
  -29.3086  -23.0216   18.1310 H   0  0  0  0  0  0
  -28.0056  -18.1770   19.1299 H   0  0  0  0  0  0
  -29.1802  -18.4545   17.8663 H   0  0  0  0  0  0
  -30.2103  -16.3081   18.2297 H   0  0  0  0  0  0
  -28.5438  -15.9382   18.5702 H   0  0  0  0  0  0
  -29.0384  -17.6061   21.6045 H   0  0  0  0  0  0
  -30.7758  -17.5558   21.6294 H   0  0  0  0  0  0
  -31.4597  -19.4265   18.4933 H   0  0  0  0  0  0
  -31.8142  -17.8722   19.2172 H   0  0  0  0  0  0
  -32.0076  -19.3393   20.1607 H   0  0  0  0  0  0
  -27.9405  -19.8766   24.3049 H   0  0  0  0  0  0
  -27.0247  -21.0003   23.3114 H   0  0  0  0  0  0
  -28.5935  -21.4798   24.0080 H   0  0  0  0  0  0
  -27.5724  -24.6382   18.9037 H   0  0  0  0  0  0
  -26.8910  -24.5166   20.4968 H   0  0  0  0  0  0
  1 25  1  0  0  0
  1 30  2  0  0  0
  1 84  1  0  0  0
  2  3  1  0  0  0
  2 25  1  0  0  0
  2 86  1  0  0  0
  2 87  1  0  0  0
  3  4  1  0  0  0
  3 88  1  0  0  0
  3 89  1  0  0  0
  4  5  1  0  0  0
  4 90  1  0  0  0
  4 91  1  0  0  0
  5  6  1  0  0  0
  5 26  1  0  0  0
  5 92  1  0  0  0
  6 25  1  0  0  0
  6 93  1  0  0  0
  6 94  1  0  0  0
  7  8  2  0  0  0
  7 26  1  0  0  0
  7 29  1  0  0  0
  8  9  1  0  0  0
  8 22  1  0  0  0
  9 10  1  0  0  0
  9 27  2  0  0  0
 10 11  2  0  0  0
 10 15  1  0  0  0
 11 12  1  0  0  0
 11 95  1  0  0  0
 12 13  2  0  0  0
 12 96  1  0  0  0
 13 14  1  0  0  0
 13 31  1  0  0  0
 14 15  2  0  0  0
 14 97  1  0  0  0
 15 98  1  0  0  0
 16 17  2  0  0  0
 16 21  1  0  0  0
 16 31  1  0  0  0
 17 18  1  0  0  0
 17 99  1  0  0  0
 18 19  2  0  0  0
 18100  1  0  0  0
 19 20  1  0  0  0
 19 24  1  0  0  0
 20 21  2  0  0  0
 20101  1  0  0  0
 21 23  1  0  0  0
 22 28  1  0  0  0
 22 32  2  0  0  0
 26 27  1  0  0  0
 28102  1  0  0  0
 28103  1  0  0  0
 29104  1  0  0  0
 29105  1  0  0  0
 33 34  1  0  0  0
 33 66  1  0  0  0
 33 70  2  0  0  0
 34 36  1  0  0  0
 34 59  1  0  0  0
 34106  1  0  0  0
 35 44  2  0  0  0
 35 45  1  0  0  0
 35 68  1  0  0  0
 36 56  1  0  0  0
 36107  1  0  0  0
 37 39  1  0  0  0
 37 47  1  0  0  0
 37 66  1  0  0  0
 37108  1  0  0  0
 38 43  2  0  0  0
 38 46  1  0  0  0
 38 47  1  0  0  0
 39 64  1  0  0  0
 39 67  2  0  0  0
 40 52  1  0  0  0
 40 53  2  0  0  0
 40 58  1  0  0  0
 41109  1  0  0  0
 41110  1  0  0  0
 41111  1  0  0  0
 41 48  1  0  0  0
 42 43  1  0  0  0
 42 66  1  0  0  0
 42112  1  0  0  0
 42113  1  0  0  0
 43 44  1  0  0  0
 44114  1  0  0  0
 45 46  2  0  0  0
 45115  1  0  0  0
 46116  1  0  0  0
 47117  1  0  0  0
 47118  1  0  0  0
 48 56  1  0  0  0
 48 65  1  0  0  0
 48119  1  0  0  0
 49 50  1  0  0  0
 49 53  1  0  0  0
 49 64  1  0  0  0
 49120  1  0  0  0
 50 51  1  0  0  0
 50121  1  0  0  0
 50122  1  0  0  0
 51 52  1  0  0  0
 51123  1  0  0  0
 51124  1  0  0  0
 52125  1  0  0  0
 52126  1  0  0  0
 53 54  1  0  0  0
 54 55  2  0  0  0
 54127  1  0  0  0
 55 57  1  0  0  0
 55128  1  0  0  0
 56 69  2  0  0  0
 57 58  2  0  0  0
 57129  1  0  0  0
 58130  1  0  0  0
 59 60  1  0  0  0
 59 61  1  0  0  0
 59 62  1  0  0  0
 60131  1  0  0  0
 60132  1  0  0  0
 60133  1  0  0  0
 61134  1  0  0  0
 61135  1  0  0  0
 61136  1  0  0  0
 62137  1  0  0  0
 62138  1  0  0  0
 62139  1  0  0  0
 63 65  1  0  0  0
 63140  1  0  0  0
 63141  1  0  0  0
 63142  1  0  0  0
 64143  1  0  0  0
 65144  1  0  0  0
 68 82  1  0  0  0
 71 73  2  0  0  0
 71 74  1  0  0  0
 71145  1  0  0  0
 72 73  1  0  0  0
 72 83  2  0  0  0
 72146  1  0  0  0
 73 82  1  0  0  0
 74 75  2  0  0  0
 74 85  1  0  0  0
 75 79  1  0  0  0
 75 83  1  0  0  0
 76 77  1  0  0  0
 76 79  1  0  0  0
 76147  1  0  0  0
 76148  1  0  0  0
 77 84  1  0  0  0
 77149  1  0  0  0
 77150  1  0  0  0
 78 79  1  0  0  0
 78 84  1  0  0  0
 78151  1  0  0  0
 78152  1  0  0  0
 79 80  1  0  0  0
 80153  1  0  0  0
 80154  1  0  0  0
 80155  1  0  0  0
 81 85  1  0  0  0
 81156  1  0  0  0
 81157  1  0  0  0
 81158  1  0  0  0
 82159  1  0  0  0
 82160  1  0  0  0
M  ISO  4   1 100  68 101  82 101  84 100
M  END
> <chiral flag>
0

> <version>
0

> <s_m_source_file>
/data/baiqing/PycharmProjects/Reinvent-master-3.2/result/LINK_invent/BTK/process_docking_weight1_custom_sum_contain_oxygen_bond_distance_aromatic_linkinvent_7_9_3/rearranged_h_0178.sdf

> <i_m_source_file_index>
14

> <r_mmod_Potential_Energy-OPLS-2005>
597.831726074219

> <r_mmod_Stretch_Energy-OPLS-2005>
212.414337158203

> <r_mmod_Bend_Energy-OPLS-2005>
300.0986328125

> <r_mmod_Torsional_Energy-OPLS-2005>
354.582336425781

> <r_mmod_Improper_Torsional_Energy-OPLS-2005>
15.7622365951538

> <r_mmod_Van_der_Waal_Energy-OPLS-2005>
141.078109741211

> <r_mmod_Electrostatic_Energy-OPLS-2005>
-401.369354248047

> <r_mmod_Solvation_Energy-OPLS-2005>
-209.625534057617

> <b_mmod_Minimization_Converged-OPLS-2005>
0

> <r_mmod_RMS_Derivative-OPLS-2005>
1.03645896911621

$$$$
14
                    3D
 Structure written by MMmdl.
149158  0  0  1  0            999 V2000
  -30.2784  -15.6299   20.3389 C   0  0  0  0  0  0
  -30.4271  -13.0718   19.5565 C   0  0  0  0  0  0
  -29.5550  -12.6585   18.3344 C   0  0  0  0  0  0
  -28.1271  -12.2987   18.7719 C   0  0  0  0  0  0
  -27.5985  -13.3038   19.8192 C   0  0  2  0  0  0
  -28.6088  -13.6249   20.9464 C   0  0  0  0  0  0
  -25.2326  -13.8285   20.5748 C   0  0  0  0  0  0
  -24.1722  -13.0442   20.9289 C   0  0  0  0  0  0
  -24.6415  -11.6949   20.8777 C   0  0  0  0  0  0
  -23.9106  -10.4301   21.0408 C   0  0  0  0  0  0
  -24.3643   -9.4212   21.9189 C   0  0  0  0  0  0
  -23.6307   -8.2251   22.0759 C   0  0  0  0  0  0
  -22.4287   -8.0294   21.3549 C   0  0  0  0  0  0
  -21.9934   -9.0268   20.4649 C   0  0  0  0  0  0
  -22.7274  -10.2141   20.3058 C   0  0  0  0  0  0
  -21.6860   -6.0744   22.5281 C   0  0  0  0  0  0
  -21.4024   -6.5643   23.8214 C   0  0  0  0  0  0
  -21.3663   -5.6793   24.9174 C   0  0  0  0  0  0
  -21.6038   -4.3057   24.7228 C   0  0  0  0  0  0
  -21.8817   -3.8149   23.4348 C   0  0  0  0  0  0
  -21.9196   -4.6967   22.3402 C   0  0  0  0  0  0
  -22.7737  -13.5184   21.1922 C   0  0  0  0  0  0
  -22.1657   -4.2150   21.0981 F   0  0  0  0  0  0
  -21.5626   -3.4539   25.7738 F   0  0  0  0  0  0
  -29.7903  -14.2487   20.3066 N   0  0  0  0  0  0
  -26.2773  -12.9601   20.3231 N   0  0  0  0  0  0
  -25.9361  -11.6679   20.5720 N   0  0  0  0  0  0
  -22.0390  -12.8171   22.0474 N   0  0  0  0  0  0
  -25.3908  -15.2015   20.4074 N   0  0  0  0  0  0
  -31.5076  -15.5979   20.1252 O   0  0  0  0  0  0
  -21.6647   -6.8891   21.4244 O   0  0  0  0  0  0
  -22.3427  -14.5489   20.6759 O   0  0  0  0  0  0
  -24.6863  -31.7975   23.1473 C   0  0  0  0  0  0
  -25.9438  -32.4444   23.8027 C   0  0  1  0  0  0
  -27.2258  -26.6866   20.2159 C   0  0  0  0  0  0
  -25.6011  -33.8271   24.1926 N   0  0  0  0  0  0
  -23.5125  -30.3997   21.5012 C   0  0  2  0  0  0
  -24.9700  -28.7382   20.1133 C   0  0  0  0  0  0
  -22.7777  -29.4320   22.4683 C   0  0  0  0  0  0
  -18.0346  -28.1450   22.8460 C   0  0  0  0  0  0
  -24.1483  -36.7134   23.2644 C   0  0  0  0  0  0
  -26.0939  -30.5259   21.4137 C   0  0  0  0  0  0
  -26.1580  -29.0893   20.7651 C   0  0  0  0  0  0
  -27.2689  -28.0903   20.7852 C   0  0  0  0  0  0
  -26.0075  -26.5507   19.5017 C   0  0  0  0  0  0
  -24.9348  -27.4944   19.4586 C   0  0  0  0  0  0
  -23.7651  -29.6947   20.1368 C   0  0  0  0  0  0
  -25.4133  -36.2873   24.0279 C   0  0  1  0  0  0
  -20.5983  -28.3809   23.1134 C   0  0  2  0  0  0
  -20.6823  -26.9463   22.5413 C   0  0  0  0  0  0
  -19.5799  -26.6390   21.5231 C   0  0  0  0  0  0
  -18.1972  -26.7981   22.1624 C   0  0  0  0  0  0
  -19.1615  -28.8955   23.2777 C   0  0  0  0  0  0
  -18.9527  -30.1538   23.8825 C   0  0  0  0  0  0
  -17.6516  -30.6633   24.0563 C   0  0  0  0  0  0
  -25.9129  -34.9274   23.4939 C   0  0  0  0  0  0
  -16.5398  -29.9123   23.6360 C   0  0  0  0  0  0
  -16.7324  -28.6545   23.0370 C   0  0  0  0  0  0
  -26.4602  -31.6481   25.0654 C   0  0  0  0  0  0
  -25.3657  -31.3832   26.1268 C   0  0  0  0  0  0
  -27.0539  -30.2813   24.6568 C   0  0  0  0  0  0
  -27.6040  -32.4351   25.7478 C   0  0  0  0  0  0
  -27.5571  -37.1699   24.8453 C   0  0  0  0  0  0
  -21.4421  -29.3038   22.3435 N   0  0  0  0  0  0
  -26.4242  -37.3656   23.9443 N   0  0  0  0  0  0
  -24.7877  -30.9413   22.0730 N   0  0  0  0  0  0
  -23.4215  -28.7920   23.3035 O   0  0  0  0  0  0
  -28.1706  -25.4498   20.3211 O   0  0  0  0  0  0
  -26.5772  -34.8865   22.4555 O   0  0  0  0  0  0
  -23.5881  -32.1061   23.6426 O   0  0  0  0  0  0
  -29.7532  -21.1965   19.7386 C   0  0  0  0  0  0
  -28.1847  -19.4815   20.9615 C   0  0  0  0  0  0
  -28.6220  -21.9989   20.3112 C   0  0  0  0  0  0
  -29.3194  -18.6731   20.3981 C   0  0  0  0  0  0
  -26.6302  -19.1790   23.0603 C   0  0  0  0  0  0
  -27.3723  -17.8808   22.8938 C   0  0  0  0  0  0
  -27.0887  -18.7449   21.6810 C   0  0  0  0  0  0
  -27.9221  -23.7278   20.0307 C   0  0  0  0  0  0
  -30.0634  -19.7466   19.7951 N   0  0  0  0  0  0
  -27.8895  -20.9219   20.9023 N   0  0  0  0  0  0
  -29.4517  -16.9463   20.4694 N   0  0  0  0  0  0
  -31.4235  -13.3345   19.1996 H   0  0  0  0  0  0
  -30.5824  -12.2216   20.2228 H   0  0  0  0  0  0
  -30.0096  -11.8196   17.8056 H   0  0  0  0  0  0
  -29.5179  -13.4854   17.6242 H   0  0  0  0  0  0
  -28.1527  -11.2994   19.2084 H   0  0  0  0  0  0
  -27.4590  -12.2416   17.9115 H   0  0  0  0  0  0
  -27.4675  -14.2280   19.2550 H   0  0  0  0  0  0
  -28.8619  -12.7375   21.5294 H   0  0  0  0  0  0
  -28.1716  -14.3365   21.6487 H   0  0  0  0  0  0
  -25.2781   -9.5687   22.4774 H   0  0  0  0  0  0
  -24.0006   -7.4649   22.7490 H   0  0  0  0  0  0
  -21.0867   -8.8809   19.8958 H   0  0  0  0  0  0
  -22.3743  -10.9688   19.6177 H   0  0  0  0  0  0
  -21.2021   -7.6151   23.9722 H   0  0  0  0  0  0
  -21.1481   -6.0519   25.9078 H   0  0  0  0  0  0
  -22.0592   -2.7611   23.2847 H   0  0  0  0  0  0
  -22.3995  -11.9823   22.4852 H   0  0  0  0  0  0
  -21.1015  -13.1210   22.2696 H   0  0  0  0  0  0
  -24.5908  -15.8237   20.4432 H   0  0  0  0  0  0
  -26.1928  -15.6164   19.9541 H   0  0  0  0  0  0
  -26.7524  -32.4911   23.0745 H   0  0  0  0  0  0
  -25.0069  -33.9296   25.0024 H   0  0  0  0  0  0
  -22.8391  -31.2376   21.3103 H   0  0  0  0  0  0
  -23.3770  -35.9435   23.3221 H   0  0  0  0  0  0
  -24.3577  -36.8881   22.2078 H   0  0  0  0  0  0
  -23.7207  -37.6275   23.6771 H   0  0  0  0  0  0
  -26.2994  -31.2499   20.6233 H   0  0  0  0  0  0
  -26.9453  -30.5933   22.0786 H   0  0  0  0  0  0
  -28.1582  -28.3626   21.3349 H   0  0  0  0  0  0
  -25.8373  -25.6083   18.9994 H   0  0  0  0  0  0
  -24.0380  -27.2153   18.9229 H   0  0  0  0  0  0
  -23.9361  -30.4544   19.3731 H   0  0  0  0  0  0
  -22.8691  -29.1596   19.8141 H   0  0  0  0  0  0
  -25.1331  -36.1608   25.0763 H   0  0  0  0  0  0
  -21.0075  -28.3453   24.1262 H   0  0  0  0  0  0
  -20.5718  -26.2427   23.3680 H   0  0  0  0  0  0
  -21.6682  -26.7427   22.1212 H   0  0  0  0  0  0
  -19.6957  -25.6280   21.1308 H   0  0  0  0  0  0
  -19.6756  -27.3173   20.6736 H   0  0  0  0  0  0
  -17.4246  -26.6719   21.4017 H   0  0  0  0  0  0
  -18.0355  -26.0160   22.9055 H   0  0  0  0  0  0
  -19.7996  -30.7382   24.2149 H   0  0  0  0  0  0
  -17.5069  -31.6302   24.5193 H   0  0  0  0  0  0
  -15.5398  -30.3014   23.7744 H   0  0  0  0  0  0
  -15.8715  -28.0858   22.7121 H   0  0  0  0  0  0
  -24.5879  -30.7130   25.7592 H   0  0  0  0  0  0
  -24.8807  -32.3065   26.4434 H   0  0  0  0  0  0
  -25.7839  -30.9184   27.0203 H   0  0  0  0  0  0
  -26.3269  -29.6417   24.1552 H   0  0  0  0  0  0
  -27.3950  -29.7265   25.5317 H   0  0  0  0  0  0
  -27.9245  -30.3933   24.0108 H   0  0  0  0  0  0
  -27.2555  -33.3705   26.1867 H   0  0  0  0  0  0
  -28.3943  -32.6836   25.0381 H   0  0  0  0  0  0
  -28.0598  -31.8605   26.5550 H   0  0  0  0  0  0
  -28.2481  -38.0096   24.7613 H   0  0  0  0  0  0
  -28.1163  -36.2631   24.6114 H   0  0  0  0  0  0
  -27.2319  -37.1136   25.8855 H   0  0  0  0  0  0
  -20.9731  -29.8645   21.6457 H   0  0  0  0  0  0
  -26.0047  -38.2671   24.1551 H   0  0  0  0  0  0
  -30.4650  -21.7421   19.1364 H   0  0  0  0  0  0
  -27.1588  -19.9988   23.5425 H   0  0  0  0  0  0
  -25.5679  -19.1109   23.2874 H   0  0  0  0  0  0
  -26.7889  -16.9704   23.0225 H   0  0  0  0  0  0
  -28.3904  -17.8425   23.2740 H   0  0  0  0  0  0
  -26.3283  -18.3992   20.9825 H   0  0  0  0  0  0
  -26.9103  -23.6003   20.4157 H   0  0  0  0  0  0
  -27.7838  -23.7178   18.9497 H   0  0  0  0  0  0
  -28.5358  -16.6047   20.7178 H   0  0  0  0  0  0
  1 25  1  0  0  0
  1 30  2  0  0  0
  1 81  1  0  0  0
  2  3  1  0  0  0
  2 25  1  0  0  0
  2 82  1  0  0  0
  2 83  1  0  0  0
  3  4  1  0  0  0
  3 84  1  0  0  0
  3 85  1  0  0  0
  4  5  1  0  0  0
  4 86  1  0  0  0
  4 87  1  0  0  0
  5  6  1  0  0  0
  5 26  1  0  0  0
  5 88  1  0  0  0
  6 25  1  0  0  0
  6 89  1  0  0  0
  6 90  1  0  0  0
  7  8  2  0  0  0
  7 26  1  0  0  0
  7 29  1  0  0  0
  8  9  1  0  0  0
  8 22  1  0  0  0
  9 10  1  0  0  0
  9 27  2  0  0  0
 10 11  2  0  0  0
 10 15  1  0  0  0
 11 12  1  0  0  0
 11 91  1  0  0  0
 12 13  2  0  0  0
 12 92  1  0  0  0
 13 14  1  0  0  0
 13 31  1  0  0  0
 14 15  2  0  0  0
 14 93  1  0  0  0
 15 94  1  0  0  0
 16 17  2  0  0  0
 16 21  1  0  0  0
 16 31  1  0  0  0
 17 18  1  0  0  0
 17 95  1  0  0  0
 18 19  2  0  0  0
 18 96  1  0  0  0
 19 20  1  0  0  0
 19 24  1  0  0  0
 20 21  2  0  0  0
 20 97  1  0  0  0
 21 23  1  0  0  0
 22 28  1  0  0  0
 22 32  2  0  0  0
 26 27  1  0  0  0
 28 98  1  0  0  0
 28 99  1  0  0  0
 29100  1  0  0  0
 29101  1  0  0  0
 33 34  1  0  0  0
 33 66  1  0  0  0
 33 70  2  0  0  0
 34 36  1  0  0  0
 34 59  1  0  0  0
 34102  1  0  0  0
 35 44  2  0  0  0
 35 45  1  0  0  0
 35 68  1  0  0  0
 36 56  1  0  0  0
 36103  1  0  0  0
 37 39  1  0  0  0
 37 47  1  0  0  0
 37 66  1  0  0  0
 37104  1  0  0  0
 38 43  2  0  0  0
 38 46  1  0  0  0
 38 47  1  0  0  0
 39 64  1  0  0  0
 39 67  2  0  0  0
 40 52  1  0  0  0
 40 53  2  0  0  0
 40 58  1  0  0  0
 41105  1  0  0  0
 41106  1  0  0  0
 41107  1  0  0  0
 41 48  1  0  0  0
 42 43  1  0  0  0
 42 66  1  0  0  0
 42108  1  0  0  0
 42109  1  0  0  0
 43 44  1  0  0  0
 44110  1  0  0  0
 45 46  2  0  0  0
 45111  1  0  0  0
 46112  1  0  0  0
 47113  1  0  0  0
 47114  1  0  0  0
 48 56  1  0  0  0
 48 65  1  0  0  0
 48115  1  0  0  0
 49 50  1  0  0  0
 49 53  1  0  0  0
 49 64  1  0  0  0
 49116  1  0  0  0
 50 51  1  0  0  0
 50117  1  0  0  0
 50118  1  0  0  0
 51 52  1  0  0  0
 51119  1  0  0  0
 51120  1  0  0  0
 52121  1  0  0  0
 52122  1  0  0  0
 53 54  1  0  0  0
 54 55  2  0  0  0
 54123  1  0  0  0
 55 57  1  0  0  0
 55124  1  0  0  0
 56 69  2  0  0  0
 57 58  2  0  0  0
 57125  1  0  0  0
 58126  1  0  0  0
 59 60  1  0  0  0
 59 61  1  0  0  0
 59 62  1  0  0  0
 60127  1  0  0  0
 60128  1  0  0  0
 60129  1  0  0  0
 61130  1  0  0  0
 61131  1  0  0  0
 61132  1  0  0  0
 62133  1  0  0  0
 62134  1  0  0  0
 62135  1  0  0  0
 63 65  1  0  0  0
 63136  1  0  0  0
 63137  1  0  0  0
 63138  1  0  0  0
 64139  1  0  0  0
 65140  1  0  0  0
 68 78  1  0  0  0
 71 73  2  0  0  0
 71 79  1  0  0  0
 71141  1  0  0  0
 72 74  1  0  0  0
 72 80  2  0  0  0
 72 77  1  0  0  0
 73 78  1  0  0  0
 73 80  1  0  0  0
 74 79  2  0  0  0
 74 81  1  0  0  0
 75 76  1  0  0  0
 75 77  1  0  0  0
 75142  1  0  0  0
 75143  1  0  0  0
 76 77  1  0  0  0
 76144  1  0  0  0
 76145  1  0  0  0
 77146  1  0  0  0
 78147  1  0  0  0
 78148  1  0  0  0
 81149  1  0  0  0
M  ISO  4   1 100  68 101  78 101  81 100
M  END
> <chiral flag>
0

> <version>
0

> <s_m_source_file>
/data/baiqing/PycharmProjects/Reinvent-master-3.2/result/LINK_invent/BTK/process_docking_weight1_custom_sum_contain_oxygen_bond_distance_aromatic_linkinvent_7_9_3/rearranged_h_0178.sdf

> <i_m_source_file_index>
15

> <r_mmod_Potential_Energy-OPLS-2005>
2436.51147460938

> <r_mmod_Stretch_Energy-OPLS-2005>
986.314392089844

> <r_mmod_Bend_Energy-OPLS-2005>
686.988708496094

> <r_mmod_Torsional_Energy-OPLS-2005>
242.869689941406

> <r_mmod_Improper_Torsional_Energy-OPLS-2005>
6.10026931762695

> <r_mmod_Van_der_Waal_Energy-OPLS-2005>
126.395378112793

> <r_mmod_Electrostatic_Energy-OPLS-2005>
-292.177154541016

> <r_mmod_Solvation_Energy-OPLS-2005>
-238.546447753906

> <b_mmod_Minimization_Converged-OPLS-2005>
0

> <r_mmod_RMS_Derivative-OPLS-2005>
1.78617537021637

$$$$
15
                    3D
 Structure written by MMmdl.
155164  0  0  1  0            999 V2000
  -30.5033  -15.0614   20.4166 C   0  0  0  0  0  0
  -30.4472  -12.6778   19.4877 C   0  0  0  0  0  0
  -29.5279  -12.5368   18.2511 C   0  0  0  0  0  0
  -28.0687  -12.2941   18.6897 C   0  0  0  0  0  0
  -27.6209  -13.2515   19.8242 C   0  0  2  0  0  0
  -28.6653  -13.3422   20.9550 C   0  0  0  0  0  0
  -25.2435  -13.8202   20.5719 C   0  0  0  0  0  0
  -24.1747  -13.0431   20.9229 C   0  0  0  0  0  0
  -24.6363  -11.6926   20.8751 C   0  0  0  0  0  0
  -23.9047  -10.4301   21.0409 C   0  0  0  0  0  0
  -24.3597   -9.4219   21.9186 C   0  0  0  0  0  0
  -23.6278   -8.2251   22.0754 C   0  0  0  0  0  0
  -22.4248   -8.0288   21.3549 C   0  0  0  0  0  0
  -21.9884   -9.0257   20.4644 C   0  0  0  0  0  0
  -22.7219  -10.2134   20.3048 C   0  0  0  0  0  0
  -21.6856   -6.0737   22.5271 C   0  0  0  0  0  0
  -21.4051   -6.5632   23.8210 C   0  0  0  0  0  0
  -21.3659   -5.6778   24.9167 C   0  0  0  0  0  0
  -21.6033   -4.3033   24.7212 C   0  0  0  0  0  0
  -21.8820   -3.8139   23.4333 C   0  0  0  0  0  0
  -21.9194   -4.6962   22.3397 C   0  0  0  0  0  0
  -22.7779  -13.5215   21.1861 C   0  0  0  0  0  0
  -22.1655   -4.2152   21.0973 F   0  0  0  0  0  0
  -21.5618   -3.4517   25.7730 F   0  0  0  0  0  0
  -29.9145  -13.7932   20.3270 N   0  0  0  0  0  0
  -26.2855  -12.9440   20.3217 N   0  0  0  0  0  0
  -25.9289  -11.6568   20.5692 N   0  0  0  0  0  0
  -22.0389  -12.8262   22.0424 N   0  0  0  0  0  0
  -25.4083  -15.1933   20.4164 N   0  0  0  0  0  0
  -31.7292  -15.0873   20.2564 O   0  0  0  0  0  0
  -21.6630   -6.8874   21.4229 O   0  0  0  0  0  0
  -22.3493  -14.5524   20.6686 O   0  0  0  0  0  0
  -24.6515  -31.8380   23.1844 C   0  0  0  0  0  0
  -25.9267  -32.4660   23.8255 C   0  0  1  0  0  0
  -27.2101  -27.0636   20.1672 C   0  0  0  0  0  0
  -25.5996  -33.8478   24.2177 N   0  0  0  0  0  0
  -23.4585  -30.4577   21.5315 C   0  0  2  0  0  0
  -24.9058  -28.8666   20.1158 C   0  0  0  0  0  0
  -22.7605  -29.4536   22.4837 C   0  0  0  0  0  0
  -18.0324  -28.1403   22.8480 C   0  0  0  0  0  0
  -24.1496  -36.7238   23.2641 C   0  0  0  0  0  0
  -26.0184  -30.6886   21.3916 C   0  0  0  0  0  0
  -26.0877  -29.2915   20.7363 C   0  0  0  0  0  0
  -27.2419  -28.4090   20.7407 C   0  0  0  0  0  0
  -26.0032  -26.7560   19.5052 C   0  0  0  0  0  0
  -24.8812  -27.6144   19.4822 C   0  0  0  0  0  0
  -23.6905  -29.7846   20.1524 C   0  0  0  0  0  0
  -25.4129  -36.3017   24.0314 C   0  0  1  0  0  0
  -20.5933  -28.3753   23.1213 C   0  0  2  0  0  0
  -20.6814  -26.9450   22.5399 C   0  0  0  0  0  0
  -19.5788  -26.6395   21.5213 C   0  0  0  0  0  0
  -18.1970  -26.7948   22.1617 C   0  0  0  0  0  0
  -19.1579  -28.8900   23.2838 C   0  0  0  0  0  0
  -18.9492  -30.1493   23.8870 C   0  0  0  0  0  0
  -17.6483  -30.6598   24.0576 C   0  0  0  0  0  0
  -25.9099  -34.9397   23.5060 C   0  0  0  0  0  0
  -16.5375  -29.9084   23.6333 C   0  0  0  0  0  0
  -16.7310  -28.6500   23.0359 C   0  0  0  0  0  0
  -26.4555  -31.6547   25.0723 C   0  0  0  0  0  0
  -25.3726  -31.3745   26.1409 C   0  0  0  0  0  0
  -27.0432  -30.2939   24.6328 C   0  0  0  0  0  0
  -27.6086  -32.4321   25.7515 C   0  0  0  0  0  0
  -27.5578  -37.1777   24.8462 C   0  0  0  0  0  0
  -21.4301  -29.3062   22.3573 N   0  0  0  0  0  0
  -26.4276  -37.3735   23.9419 N   0  0  0  0  0  0
  -24.7307  -31.0166   22.0914 N   0  0  0  0  0  0
  -23.4204  -28.8097   23.3042 O   0  0  0  0  0  0
  -28.2469  -26.0396   20.1798 O   0  0  0  0  0  0
  -26.5684  -34.8899   22.4640 O   0  0  0  0  0  0
  -23.5623  -32.1303   23.7016 O   0  0  0  0  0  0
  -30.5558  -17.8219   22.0597 C   0  0  0  0  0  0
  -29.6525  -22.2710   22.1149 C   0  0  0  0  0  0
  -30.6697  -19.0099   22.8023 C   0  0  0  0  0  0
  -30.1480  -20.2381   22.3252 C   0  0  0  0  0  0
  -29.4803  -20.2942   21.0453 C   0  0  0  0  0  0
  -29.8801  -17.7558   20.8276 C   0  0  0  0  0  0
  -31.3394  -18.9647   24.1686 C   0  0  0  0  0  0
  -27.6112  -22.3986   19.0037 C   0  0  0  0  0  0
  -27.9876  -24.5194   20.5657 C   0  0  0  0  0  0
  -28.6185  -22.9904   19.9997 C   0  0  1  0  0  0
  -30.2204  -21.4488   22.9778 N   0  0  0  0  0  0
  -29.3416  -19.0162   20.3215 N   0  0  0  0  0  0
  -29.1560  -21.8049   20.9505 N   0  0  0  0  0  0
  -29.7139  -16.2776   20.3650 N   0  0  0  0  0  0
  -31.4715  -12.8713   19.1676 H   0  0  0  0  0  0
  -30.4823  -11.7497   20.0592 H   0  0  0  0  0  0
  -29.8729  -11.7230   17.6131 H   0  0  0  0  0  0
  -29.5853  -13.4417   17.6442 H   0  0  0  0  0  0
  -28.0016  -11.2654   19.0425 H   0  0  0  0  0  0
  -27.3949  -12.3661   17.8341 H   0  0  0  0  0  0
  -27.5586  -14.2353   19.3602 H   0  0  0  0  0  0
  -28.7930  -12.3864   21.4635 H   0  0  0  0  0  0
  -28.3467  -14.0589   21.7137 H   0  0  0  0  0  0
  -25.2730   -9.5734   22.4764 H   0  0  0  0  0  0
  -24.0002   -7.4651   22.7473 H   0  0  0  0  0  0
  -21.0815   -8.8774   19.8938 H   0  0  0  0  0  0
  -22.3663  -10.9683   19.6154 H   0  0  0  0  0  0
  -21.2070   -7.6144   23.9731 H   0  0  0  0  0  0
  -21.1473   -6.0492   25.9072 H   0  0  0  0  0  0
  -22.0593   -2.7602   23.2817 H   0  0  0  0  0  0
  -22.3955  -11.9983   22.4949 H   0  0  0  0  0  0
  -21.1000  -13.1349   22.2539 H   0  0  0  0  0  0
  -24.6267  -15.8356   20.4959 H   0  0  0  0  0  0
  -26.2541  -15.6414   20.0949 H   0  0  0  0  0  0
  -26.7342  -32.5221   23.0986 H   0  0  0  0  0  0
  -25.0145  -33.9575   25.0330 H   0  0  0  0  0  0
  -22.7646  -31.2865   21.3737 H   0  0  0  0  0  0
  -23.3759  -35.9565   23.3271 H   0  0  0  0  0  0
  -24.3586  -36.8899   22.2061 H   0  0  0  0  0  0
  -23.7241  -37.6418   23.6707 H   0  0  0  0  0  0
  -26.1793  -31.4344   20.6119 H   0  0  0  0  0  0
  -26.8860  -30.7396   22.0375 H   0  0  0  0  0  0
  -28.1448  -28.7357   21.2387 H   0  0  0  0  0  0
  -25.9064  -25.8011   19.0080 H   0  0  0  0  0  0
  -23.9797  -27.2842   18.9862 H   0  0  0  0  0  0
  -23.8508  -30.5605   19.4027 H   0  0  0  0  0  0
  -22.7969  -29.2474   19.8284 H   0  0  0  0  0  0
  -25.1306  -36.1848   25.0796 H   0  0  0  0  0  0
  -21.0026  -28.3367   24.1336 H   0  0  0  0  0  0
  -20.5736  -26.2374   23.3633 H   0  0  0  0  0  0
  -21.6685  -26.7497   22.1191 H   0  0  0  0  0  0
  -19.6966  -25.6300   21.1273 H   0  0  0  0  0  0
  -19.6717  -27.3181   20.6723 H   0  0  0  0  0  0
  -17.4254  -26.6719   21.3998 H   0  0  0  0  0  0
  -18.0356  -26.0077   22.8998 H   0  0  0  0  0  0
  -19.7964  -30.7328   24.2211 H   0  0  0  0  0  0
  -17.5033  -31.6263   24.5206 H   0  0  0  0  0  0
  -15.5376  -30.2978   23.7669 H   0  0  0  0  0  0
  -15.8713  -28.0816   22.7073 H   0  0  0  0  0  0
  -24.5908  -30.7092   25.7715 H   0  0  0  0  0  0
  -24.8913  -32.2924   26.4789 H   0  0  0  0  0  0
  -25.7989  -30.8944   27.0222 H   0  0  0  0  0  0
  -26.3054  -29.6631   24.1345 H   0  0  0  0  0  0
  -27.4036  -29.7270   25.4916 H   0  0  0  0  0  0
  -27.8967  -30.4149   23.9656 H   0  0  0  0  0  0
  -27.2679  -33.3629   26.2051 H   0  0  0  0  0  0
  -28.3917  -32.6855   25.0365 H   0  0  0  0  0  0
  -28.0736  -31.8481   26.5457 H   0  0  0  0  0  0
  -28.2578  -38.0087   24.7523 H   0  0  0  0  0  0
  -28.1087  -36.2620   24.6269 H   0  0  0  0  0  0
  -27.2306  -37.1409   25.8862 H   0  0  0  0  0  0
  -20.9545  -29.8724   21.6684 H   0  0  0  0  0  0
  -26.0137  -38.2799   24.1408 H   0  0  0  0  0  0
  -30.9580  -16.9156   22.4974 H   0  0  0  0  0  0
  -29.6409  -23.3227   22.3615 H   0  0  0  0  0  0
  -31.7026  -17.9659   24.4167 H   0  0  0  0  0  0
  -30.6283  -19.2586   24.9407 H   0  0  0  0  0  0
  -32.1877  -19.6500   24.2123 H   0  0  0  0  0  0
  -27.3410  -23.1259   18.2345 H   0  0  0  0  0  0
  -26.6919  -22.1047   19.5115 H   0  0  0  0  0  0
  -28.0105  -21.5154   18.5036 H   0  0  0  0  0  0
  -28.1226  -24.5404   21.6450 H   0  0  0  0  0  0
  -26.9065  -24.4017   20.4960 H   0  0  0  0  0  0
  -29.4951  -23.2604   19.4082 H   0  0  0  0  0  0
  -28.7686  -16.0786   20.0789 H   0  0  0  0  0  0
  1 25  1  0  0  0
  1 30  2  0  0  0
  1 84  1  0  0  0
  2  3  1  0  0  0
  2 25  1  0  0  0
  2 85  1  0  0  0
  2 86  1  0  0  0
  3  4  1  0  0  0
  3 87  1  0  0  0
  3 88  1  0  0  0
  4  5  1  0  0  0
  4 89  1  0  0  0
  4 90  1  0  0  0
  5  6  1  0  0  0
  5 26  1  0  0  0
  5 91  1  0  0  0
  6 25  1  0  0  0
  6 92  1  0  0  0
  6 93  1  0  0  0
  7  8  2  0  0  0
  7 26  1  0  0  0
  7 29  1  0  0  0
  8  9  1  0  0  0
  8 22  1  0  0  0
  9 10  1  0  0  0
  9 27  2  0  0  0
 10 11  2  0  0  0
 10 15  1  0  0  0
 11 12  1  0  0  0
 11 94  1  0  0  0
 12 13  2  0  0  0
 12 95  1  0  0  0
 13 14  1  0  0  0
 13 31  1  0  0  0
 14 15  2  0  0  0
 14 96  1  0  0  0
 15 97  1  0  0  0
 16 17  2  0  0  0
 16 21  1  0  0  0
 16 31  1  0  0  0
 17 18  1  0  0  0
 17 98  1  0  0  0
 18 19  2  0  0  0
 18 99  1  0  0  0
 19 20  1  0  0  0
 19 24  1  0  0  0
 20 21  2  0  0  0
 20100  1  0  0  0
 21 23  1  0  0  0
 22 28  1  0  0  0
 22 32  2  0  0  0
 26 27  1  0  0  0
 28101  1  0  0  0
 28102  1  0  0  0
 29103  1  0  0  0
 29104  1  0  0  0
 33 34  1  0  0  0
 33 66  1  0  0  0
 33 70  2  0  0  0
 34 36  1  0  0  0
 34 59  1  0  0  0
 34105  1  0  0  0
 35 44  2  0  0  0
 35 45  1  0  0  0
 35 68  1  0  0  0
 36 56  1  0  0  0
 36106  1  0  0  0
 37 39  1  0  0  0
 37 47  1  0  0  0
 37 66  1  0  0  0
 37107  1  0  0  0
 38 43  2  0  0  0
 38 46  1  0  0  0
 38 47  1  0  0  0
 39 64  1  0  0  0
 39 67  2  0  0  0
 40 52  1  0  0  0
 40 53  2  0  0  0
 40 58  1  0  0  0
 41108  1  0  0  0
 41109  1  0  0  0
 41110  1  0  0  0
 41 48  1  0  0  0
 42 43  1  0  0  0
 42 66  1  0  0  0
 42111  1  0  0  0
 42112  1  0  0  0
 43 44  1  0  0  0
 44113  1  0  0  0
 45 46  2  0  0  0
 45114  1  0  0  0
 46115  1  0  0  0
 47116  1  0  0  0
 47117  1  0  0  0
 48 56  1  0  0  0
 48 65  1  0  0  0
 48118  1  0  0  0
 49 50  1  0  0  0
 49 53  1  0  0  0
 49 64  1  0  0  0
 49119  1  0  0  0
 50 51  1  0  0  0
 50120  1  0  0  0
 50121  1  0  0  0
 51 52  1  0  0  0
 51122  1  0  0  0
 51123  1  0  0  0
 52124  1  0  0  0
 52125  1  0  0  0
 53 54  1  0  0  0
 54 55  2  0  0  0
 54126  1  0  0  0
 55 57  1  0  0  0
 55127  1  0  0  0
 56 69  2  0  0  0
 57 58  2  0  0  0
 57128  1  0  0  0
 58129  1  0  0  0
 59 60  1  0  0  0
 59 61  1  0  0  0
 59 62  1  0  0  0
 60130  1  0  0  0
 60131  1  0  0  0
 60132  1  0  0  0
 61133  1  0  0  0
 61134  1  0  0  0
 61135  1  0  0  0
 62136  1  0  0  0
 62137  1  0  0  0
 62138  1  0  0  0
 63 65  1  0  0  0
 63139  1  0  0  0
 63140  1  0  0  0
 63141  1  0  0  0
 64142  1  0  0  0
 65143  1  0  0  0
 68 79  1  0  0  0
 71 73  2  0  0  0
 71 76  1  0  0  0
 71144  1  0  0  0
 72 81  2  0  0  0
 72 83  1  0  0  0
 72145  1  0  0  0
 73 74  1  0  0  0
 73 77  1  0  0  0
 74 75  2  0  0  0
 74 81  1  0  0  0
 75 82  1  0  0  0
 75 83  1  0  0  0
 76 82  2  0  0  0
 76 84  1  0  0  0
 77146  1  0  0  0
 77147  1  0  0  0
 77148  1  0  0  0
 78149  1  0  0  0
 78150  1  0  0  0
 78151  1  0  0  0
 78 80  1  0  0  0
 79 80  1  0  0  0
 79152  1  0  0  0
 79153  1  0  0  0
 80 83  1  0  0  0
 80154  1  0  0  0
 84155  1  0  0  0
M  ISO  4   1 100  68 101  79 101  84 100
M  END
> <chiral flag>
0

> <version>
0

> <s_m_source_file>
/data/baiqing/PycharmProjects/Reinvent-master-3.2/result/LINK_invent/BTK/process_docking_weight1_custom_sum_contain_oxygen_bond_distance_aromatic_linkinvent_7_9_3/rearranged_h_0178.sdf

> <i_m_source_file_index>
16

> <r_mmod_Potential_Energy-OPLS-2005>
822.630737304688

> <r_mmod_Stretch_Energy-OPLS-2005>
383.656341552734

> <r_mmod_Bend_Energy-OPLS-2005>
344.71875

> <r_mmod_Torsional_Energy-OPLS-2005>
278.675994873047

> <r_mmod_Improper_Torsional_Energy-OPLS-2005>
9.72073268890381

> <r_mmod_Van_der_Waal_Energy-OPLS-2005>
126.387153625488

> <r_mmod_Electrostatic_Energy-OPLS-2005>
-368.283538818359

> <r_mmod_Solvation_Energy-OPLS-2005>
-226.71418762207

> <b_mmod_Minimization_Converged-OPLS-2005>
0

> <r_mmod_RMS_Derivative-OPLS-2005>
3.29700541496277

$$$$
16
                    3D
 Structure written by MMmdl.
151160  0  0  1  0            999 V2000
  -30.3887  -15.3970   20.3741 C   0  0  0  0  0  0
  -30.4430  -12.9060   19.5381 C   0  0  0  0  0  0
  -29.5422  -12.6150   18.3064 C   0  0  0  0  0  0
  -28.0962  -12.3138   18.7350 C   0  0  0  0  0  0
  -27.6138  -13.2839   19.8414 C   0  0  2  0  0  0
  -28.6553  -13.4550   20.9742 C   0  0  0  0  0  0
  -25.2289  -13.8209   20.5697 C   0  0  0  0  0  0
  -24.1695  -13.0389   20.9280 C   0  0  0  0  0  0
  -24.6397  -11.6906   20.8799 C   0  0  0  0  0  0
  -23.9098  -10.4268   21.0414 C   0  0  0  0  0  0
  -24.3634   -9.4187   21.9195 C   0  0  0  0  0  0
  -23.6306   -8.2226   22.0750 C   0  0  0  0  0  0
  -22.4292   -8.0270   21.3535 C   0  0  0  0  0  0
  -21.9936   -9.0247   20.4640 C   0  0  0  0  0  0
  -22.7270  -10.2122   20.3058 C   0  0  0  0  0  0
  -21.6861   -6.0731   22.5274 C   0  0  0  0  0  0
  -21.4023   -6.5636   23.8207 C   0  0  0  0  0  0
  -21.3656   -5.6788   24.9168 C   0  0  0  0  0  0
  -21.6043   -4.3053   24.7217 C   0  0  0  0  0  0
  -21.8822   -3.8141   23.4341 C   0  0  0  0  0  0
  -21.9193   -4.6957   22.3397 C   0  0  0  0  0  0
  -22.7707  -13.5139   21.1910 C   0  0  0  0  0  0
  -22.1661   -4.2138   21.0975 F   0  0  0  0  0  0
  -21.5623   -3.4539   25.7731 F   0  0  0  0  0  0
  -29.8559  -14.0528   20.3486 N   0  0  0  0  0  0
  -26.2810  -12.9544   20.3308 N   0  0  0  0  0  0
  -25.9356  -11.6635   20.5809 N   0  0  0  0  0  0
  -22.0366  -12.8138   22.0473 N   0  0  0  0  0  0
  -25.3683  -15.1925   20.3930 N   0  0  0  0  0  0
  -31.5930  -15.3836   20.0701 O   0  0  0  0  0  0
  -21.6647   -6.8875   21.4237 O   0  0  0  0  0  0
  -22.3384  -14.5440   20.6748 O   0  0  0  0  0  0
  -24.6701  -31.8157   23.1632 C   0  0  0  0  0  0
  -25.9350  -32.4546   23.8126 C   0  0  1  0  0  0
  -27.2249  -26.8508   20.1896 C   0  0  0  0  0  0
  -25.5981  -33.8366   24.2027 N   0  0  0  0  0  0
  -23.4892  -30.4225   21.5147 C   0  0  2  0  0  0
  -24.9454  -28.7951   20.1093 C   0  0  0  0  0  0
  -22.7708  -29.4395   22.4767 C   0  0  0  0  0  0
  -18.0329  -28.1415   22.8463 C   0  0  0  0  0  0
  -24.1499  -36.7194   23.2648 C   0  0  0  0  0  0
  -26.0621  -30.5948   21.4062 C   0  0  0  0  0  0
  -26.1297  -29.1768   20.7511 C   0  0  0  0  0  0
  -27.2586  -28.2269   20.7665 C   0  0  0  0  0  0
  -26.0132  -26.6441   19.4881 C   0  0  0  0  0  0
  -24.9179  -27.5515   19.4560 C   0  0  0  0  0  0
  -23.7333  -29.7310   20.1437 C   0  0  0  0  0  0
  -25.4143  -36.2948   24.0293 C   0  0  1  0  0  0
  -20.5955  -28.3764   23.1180 C   0  0  2  0  0  0
  -20.6802  -26.9439   22.5409 C   0  0  0  0  0  0
  -19.5777  -26.6378   21.5221 C   0  0  0  0  0  0
  -18.1958  -26.7947   22.1625 C   0  0  0  0  0  0
  -19.1589  -28.8914   23.2803 C   0  0  0  0  0  0
  -18.9497  -30.1500   23.8841 C   0  0  0  0  0  0
  -17.6487  -30.6598   24.0554 C   0  0  0  0  0  0
  -25.9111  -34.9330   23.4992 C   0  0  0  0  0  0
  -16.5378  -29.9082   23.6345 C   0  0  0  0  0  0
  -16.7309  -28.6505   23.0359 C   0  0  0  0  0  0
  -26.4571  -31.6518   25.0687 C   0  0  0  0  0  0
  -25.3669  -31.3790   26.1324 C   0  0  0  0  0  0
  -27.0474  -30.2871   24.6478 C   0  0  0  0  0  0
  -27.6049  -32.4338   25.7493 C   0  0  0  0  0  0
  -27.5576  -37.1752   24.8464 C   0  0  0  0  0  0
  -21.4368  -29.3036   22.3517 N   0  0  0  0  0  0
  -26.4285  -37.3690   23.9406 N   0  0  0  0  0  0
  -24.7624  -30.9734   22.0813 N   0  0  0  0  0  0
  -23.4220  -28.7986   23.3051 O   0  0  0  0  0  0
  -28.2034  -25.7003   20.3037 O   0  0  0  0  0  0
  -26.5736  -34.8881   22.4597 O   0  0  0  0  0  0
  -23.5755  -32.1168   23.6675 O   0  0  0  0  0  0
  -29.3144  -19.9911   20.5158 C   0  0  0  0  0  0
  -29.8948  -21.4625   22.1607 C   0  0  0  0  0  0
  -28.7701  -22.5248   20.4696 C   0  0  0  0  0  0
  -27.9768  -17.7691   19.8761 C   0  0  0  0  0  0
  -28.2956  -16.8543   21.0709 C   0  0  0  0  0  0
  -29.4058  -18.3024   19.9383 C   0  0  2  0  0  0
  -30.5796  -21.6316   23.5014 C   0  0  0  0  0  0
  -28.0019  -24.0603   19.9495 C   0  0  0  0  0  0
  -29.8801  -20.1982   21.6998 N   0  0  0  0  0  0
  -28.7310  -21.1786   19.8896 N   0  0  0  0  0  0
  -29.3987  -22.6008   21.6419 N   0  0  0  0  0  0
  -29.6355  -16.7076   20.5205 N   0  0  0  0  0  0
  -31.4495  -13.1359   19.1869 H   0  0  0  0  0  0
  -30.5631  -12.0107   20.1504 H   0  0  0  0  0  0
  -29.9463  -11.7831   17.7284 H   0  0  0  0  0  0
  -29.5500  -13.4809   17.6435 H   0  0  0  0  0  0
  -28.0702  -11.2913   19.1130 H   0  0  0  0  0  0
  -27.4262  -12.3402   17.8746 H   0  0  0  0  0  0
  -27.5245  -14.2502   19.3444 H   0  0  0  0  0  0
  -28.8713  -12.4976   21.4504 H   0  0  0  0  0  0
  -28.2855  -14.0845   21.7807 H   0  0  0  0  0  0
  -25.2768   -9.5664   22.4783 H   0  0  0  0  0  0
  -24.0001   -7.4621   22.7480 H   0  0  0  0  0  0
  -21.0861   -8.8785   19.8953 H   0  0  0  0  0  0
  -22.3735  -10.9667   19.6173 H   0  0  0  0  0  0
  -21.2035   -7.6145   23.9708 H   0  0  0  0  0  0
  -21.1471   -6.0517   25.9069 H   0  0  0  0  0  0
  -22.0608   -2.7601   23.2842 H   0  0  0  0  0  0
  -22.4015  -11.9832   22.4893 H   0  0  0  0  0  0
  -21.0967  -13.1139   22.2652 H   0  0  0  0  0  0
  -24.5869  -15.8292   20.5065 H   0  0  0  0  0  0
  -26.1864  -15.6338   19.9972 H   0  0  0  0  0  0
  -26.7425  -32.5058   23.0840 H   0  0  0  0  0  0
  -25.0041  -33.9427   25.0120 H   0  0  0  0  0  0
  -22.8063  -31.2561   21.3385 H   0  0  0  0  0  0
  -23.3775  -35.9509   23.3270 H   0  0  0  0  0  0
  -24.3576  -36.8887   22.2072 H   0  0  0  0  0  0
  -23.7243  -37.6363   23.6735 H   0  0  0  0  0  0
  -26.2509  -31.3310   20.6235 H   0  0  0  0  0  0
  -26.9192  -30.6549   22.0651 H   0  0  0  0  0  0
  -28.1488  -28.5166   21.3065 H   0  0  0  0  0  0
  -25.8700  -25.6973   18.9876 H   0  0  0  0  0  0
  -24.0210  -27.2538   18.9296 H   0  0  0  0  0  0
  -23.8911  -30.4975   19.3842 H   0  0  0  0  0  0
  -22.8408  -29.1887   19.8263 H   0  0  0  0  0  0
  -25.1344  -36.1735   25.0783 H   0  0  0  0  0  0
  -21.0036  -28.3376   24.1306 H   0  0  0  0  0  0
  -20.5688  -26.2381   23.3655 H   0  0  0  0  0  0
  -21.6664  -26.7412   22.1212 H   0  0  0  0  0  0
  -19.6936  -25.6276   21.1283 H   0  0  0  0  0  0
  -19.6716  -27.3161   20.6730 H   0  0  0  0  0  0
  -17.4231  -26.6693   21.4023 H   0  0  0  0  0  0
  -18.0344  -26.0103   22.9032 H   0  0  0  0  0  0
  -19.7970  -30.7334   24.2185 H   0  0  0  0  0  0
  -17.5035  -31.6273   24.5170 H   0  0  0  0  0  0
  -15.5373  -30.2963   23.7704 H   0  0  0  0  0  0
  -15.8712  -28.0808   22.7100 H   0  0  0  0  0  0
  -24.5875  -30.7118   25.7624 H   0  0  0  0  0  0
  -24.8830  -32.2997   26.4594 H   0  0  0  0  0  0
  -25.7876  -30.9055   27.0204 H   0  0  0  0  0  0
  -26.3154  -29.6523   24.1475 H   0  0  0  0  0  0
  -27.3964  -29.7266   25.5161 H   0  0  0  0  0  0
  -27.9115  -30.4029   23.9932 H   0  0  0  0  0  0
  -27.2615  -33.3694   26.1919 H   0  0  0  0  0  0
  -28.3937  -32.6812   25.0374 H   0  0  0  0  0  0
  -28.0633  -31.8563   26.5532 H   0  0  0  0  0  0
  -28.2563  -38.0075   24.7522 H   0  0  0  0  0  0
  -28.1101  -36.2601   24.6275 H   0  0  0  0  0  0
  -27.2292  -37.1372   25.8864 H   0  0  0  0  0  0
  -20.9648  -29.8696   21.6605 H   0  0  0  0  0  0
  -26.0128  -38.2748   24.1402 H   0  0  0  0  0  0
  -27.2000  -18.5070   20.0809 H   0  0  0  0  0  0
  -27.7613  -17.2231   18.9559 H   0  0  0  0  0  0
  -27.6806  -15.9671   21.0902 H   0  0  0  0  0  0
  -28.2751  -17.3591   22.0394 H   0  0  0  0  0  0
  -29.8077  -18.3826   18.9282 H   0  0  0  0  0  0
  -31.4507  -20.9813   23.5811 H   0  0  0  0  0  0
  -29.8922  -21.3820   24.3089 H   0  0  0  0  0  0
  -30.9190  -22.6572   23.6494 H   0  0  0  0  0  0
  -26.9455  -23.8815   20.1471 H   0  0  0  0  0  0
  -28.0762  -24.0221   18.8627 H   0  0  0  0  0  0
  1 25  1  0  0  0
  1 30  2  0  0  0
  1 82  1  0  0  0
  2  3  1  0  0  0
  2 25  1  0  0  0
  2 83  1  0  0  0
  2 84  1  0  0  0
  3  4  1  0  0  0
  3 85  1  0  0  0
  3 86  1  0  0  0
  4  5  1  0  0  0
  4 87  1  0  0  0
  4 88  1  0  0  0
  5  6  1  0  0  0
  5 26  1  0  0  0
  5 89  1  0  0  0
  6 25  1  0  0  0
  6 90  1  0  0  0
  6 91  1  0  0  0
  7  8  2  0  0  0
  7 26  1  0  0  0
  7 29  1  0  0  0
  8  9  1  0  0  0
  8 22  1  0  0  0
  9 10  1  0  0  0
  9 27  2  0  0  0
 10 11  2  0  0  0
 10 15  1  0  0  0
 11 12  1  0  0  0
 11 92  1  0  0  0
 12 13  2  0  0  0
 12 93  1  0  0  0
 13 14  1  0  0  0
 13 31  1  0  0  0
 14 15  2  0  0  0
 14 94  1  0  0  0
 15 95  1  0  0  0
 16 17  2  0  0  0
 16 21  1  0  0  0
 16 31  1  0  0  0
 17 18  1  0  0  0
 17 96  1  0  0  0
 18 19  2  0  0  0
 18 97  1  0  0  0
 19 20  1  0  0  0
 19 24  1  0  0  0
 20 21  2  0  0  0
 20 98  1  0  0  0
 21 23  1  0  0  0
 22 28  1  0  0  0
 22 32  2  0  0  0
 26 27  1  0  0  0
 28 99  1  0  0  0
 28100  1  0  0  0
 29101  1  0  0  0
 29102  1  0  0  0
 33 34  1  0  0  0
 33 66  1  0  0  0
 33 70  2  0  0  0
 34 36  1  0  0  0
 34 59  1  0  0  0
 34103  1  0  0  0
 35 44  2  0  0  0
 35 45  1  0  0  0
 35 68  1  0  0  0
 36 56  1  0  0  0
 36104  1  0  0  0
 37 39  1  0  0  0
 37 47  1  0  0  0
 37 66  1  0  0  0
 37105  1  0  0  0
 38 43  2  0  0  0
 38 46  1  0  0  0
 38 47  1  0  0  0
 39 64  1  0  0  0
 39 67  2  0  0  0
 40 52  1  0  0  0
 40 53  2  0  0  0
 40 58  1  0  0  0
 41106  1  0  0  0
 41107  1  0  0  0
 41108  1  0  0  0
 41 48  1  0  0  0
 42 43  1  0  0  0
 42 66  1  0  0  0
 42109  1  0  0  0
 42110  1  0  0  0
 43 44  1  0  0  0
 44111  1  0  0  0
 45 46  2  0  0  0
 45112  1  0  0  0
 46113  1  0  0  0
 47114  1  0  0  0
 47115  1  0  0  0
 48 56  1  0  0  0
 48 65  1  0  0  0
 48116  1  0  0  0
 49 50  1  0  0  0
 49 53  1  0  0  0
 49 64  1  0  0  0
 49117  1  0  0  0
 50 51  1  0  0  0
 50118  1  0  0  0
 50119  1  0  0  0
 51 52  1  0  0  0
 51120  1  0  0  0
 51121  1  0  0  0
 52122  1  0  0  0
 52123  1  0  0  0
 53 54  1  0  0  0
 54 55  2  0  0  0
 54124  1  0  0  0
 55 57  1  0  0  0
 55125  1  0  0  0
 56 69  2  0  0  0
 57 58  2  0  0  0
 57126  1  0  0  0
 58127  1  0  0  0
 59 60  1  0  0  0
 59 61  1  0  0  0
 59 62  1  0  0  0
 60128  1  0  0  0
 60129  1  0  0  0
 60130  1  0  0  0
 61131  1  0  0  0
 61132  1  0  0  0
 61133  1  0  0  0
 62134  1  0  0  0
 62135  1  0  0  0
 62136  1  0  0  0
 63 65  1  0  0  0
 63137  1  0  0  0
 63138  1  0  0  0
 63139  1  0  0  0
 64140  1  0  0  0
 65141  1  0  0  0
 68 78  1  0  0  0
 71 79  1  0  0  0
 71 80  2  0  0  0
 71 76  1  0  0  0
 72 77  1  0  0  0
 72 79  2  0  0  0
 72 81  1  0  0  0
 73 78  1  0  0  0
 73 80  1  0  0  0
 73 81  2  0  0  0
 74 75  1  0  0  0
 74 76  1  0  0  0
 74142  1  0  0  0
 74143  1  0  0  0
 75 82  1  0  0  0
 75144  1  0  0  0
 75145  1  0  0  0
 76 82  1  0  0  0
 76146  1  0  0  0
 77147  1  0  0  0
 77148  1  0  0  0
 77149  1  0  0  0
 78150  1  0  0  0
 78151  1  0  0  0
M  ISO  4   1 100  68 101  78 101  82 100
M  END
> <chiral flag>
0

> <version>
0

> <s_m_source_file>
/data/baiqing/PycharmProjects/Reinvent-master-3.2/result/LINK_invent/BTK/process_docking_weight1_custom_sum_contain_oxygen_bond_distance_aromatic_linkinvent_7_9_3/rearranged_h_0178.sdf

> <i_m_source_file_index>
17

> <r_mmod_Potential_Energy-OPLS-2005>
968.35693359375

> <r_mmod_Stretch_Energy-OPLS-2005>
711.080505371094

> <r_mmod_Bend_Energy-OPLS-2005>
525.175964355469

> <r_mmod_Torsional_Energy-OPLS-2005>
251.676040649414

> <r_mmod_Improper_Torsional_Energy-OPLS-2005>
6.48898649215698

> <r_mmod_Van_der_Waal_Energy-OPLS-2005>
142.044723510742

> <r_mmod_Electrostatic_Energy-OPLS-2005>
-1001.32202148438

> <r_mmod_Solvation_Energy-OPLS-2005>
-255.429138183594

> <b_mmod_Minimization_Converged-OPLS-2005>
0

> <r_mmod_RMS_Derivative-OPLS-2005>
1.11484563350677

$$$$
17
                    3D
 Structure written by MMmdl.
157165  0  0  1  0            999 V2000
  -30.4823  -15.2023   20.3871 C   0  0  0  0  0  0
  -30.4390  -12.7677   19.5155 C   0  0  0  0  0  0
  -29.5350  -12.5693   18.2747 C   0  0  0  0  0  0
  -28.0722  -12.3245   18.6881 C   0  0  0  0  0  0
  -27.6173  -13.2771   19.8223 C   0  0  2  0  0  0
  -28.6564  -13.4152   20.9561 C   0  0  0  0  0  0
  -25.2439  -13.8262   20.5746 C   0  0  0  0  0  0
  -24.1782  -13.0467   20.9258 C   0  0  0  0  0  0
  -24.6429  -11.6957   20.8773 C   0  0  0  0  0  0
  -23.9117  -10.4311   21.0422 C   0  0  0  0  0  0
  -24.3667   -9.4209   21.9183 C   0  0  0  0  0  0
  -23.6338   -8.2245   22.0754 C   0  0  0  0  0  0
  -22.4316   -8.0293   21.3551 C   0  0  0  0  0  0
  -21.9956   -9.0256   20.4647 C   0  0  0  0  0  0
  -22.7301  -10.2138   20.3058 C   0  0  0  0  0  0
  -21.6852   -6.0760   22.5292 C   0  0  0  0  0  0
  -21.4001   -6.5656   23.8221 C   0  0  0  0  0  0
  -21.3653   -5.6808   24.9174 C   0  0  0  0  0  0
  -21.6053   -4.3073   24.7214 C   0  0  0  0  0  0
  -21.8824   -3.8173   23.4335 C   0  0  0  0  0  0
  -21.9180   -4.6994   22.3399 C   0  0  0  0  0  0
  -22.7790  -13.5205   21.1883 C   0  0  0  0  0  0
  -22.1665   -4.2176   21.0981 F   0  0  0  0  0  0
  -21.5615   -3.4561   25.7722 F   0  0  0  0  0  0
  -29.8959  -13.9096   20.3376 N   0  0  0  0  0  0
  -26.2849  -12.9540   20.3201 N   0  0  0  0  0  0
  -25.9364  -11.6642   20.5720 N   0  0  0  0  0  0
  -22.0411  -12.8178   22.0423 N   0  0  0  0  0  0
  -25.4109  -15.2008   20.4228 N   0  0  0  0  0  0
  -31.7017  -15.1818   20.1681 O   0  0  0  0  0  0
  -21.6651   -6.8915   21.4267 O   0  0  0  0  0  0
  -22.3467  -14.5467   20.6671 O   0  0  0  0  0  0
  -24.6631  -31.8271   23.1735 C   0  0  0  0  0  0
  -25.9312  -32.4628   23.8201 C   0  0  1  0  0  0
  -27.2153  -26.9423   20.1927 C   0  0  0  0  0  0
  -25.5994  -33.8435   24.2123 N   0  0  0  0  0  0
  -23.4767  -30.4396   21.5231 C   0  0  2  0  0  0
  -24.9296  -28.8312   20.1160 C   0  0  0  0  0  0
  -22.7669  -29.4464   22.4820 C   0  0  0  0  0  0
  -18.0316  -28.1436   22.8486 C   0  0  0  0  0  0
  -24.1450  -36.7201   23.2641 C   0  0  0  0  0  0
  -26.0445  -30.6414   21.3985 C   0  0  0  0  0  0
  -26.1131  -29.2296   20.7516 C   0  0  0  0  0  0
  -27.2531  -28.3038   20.7689 C   0  0  0  0  0  0
  -26.0075  -26.7054   19.4970 C   0  0  0  0  0  0
  -24.9019  -27.5896   19.4670 C   0  0  0  0  0  0
  -23.7144  -29.7554   20.1493 C   0  0  0  0  0  0
  -25.4094  -36.2983   24.0315 C   0  0  1  0  0  0
  -20.5937  -28.3770   23.1223 C   0  0  2  0  0  0
  -20.6800  -26.9458   22.5414 C   0  0  0  0  0  0
  -19.5758  -26.6399   21.5235 C   0  0  0  0  0  0
  -18.1935  -26.7984   22.1632 C   0  0  0  0  0  0
  -19.1574  -28.8921   23.2837 C   0  0  0  0  0  0
  -18.9480  -30.1523   23.8855 C   0  0  0  0  0  0
  -17.6479  -30.6624   24.0556 C   0  0  0  0  0  0
  -25.9085  -34.9380   23.5028 C   0  0  0  0  0  0
  -16.5359  -29.9107   23.6359 C   0  0  0  0  0  0
  -16.7290  -28.6538   23.0378 C   0  0  0  0  0  0
  -26.4569  -31.6558   25.0699 C   0  0  0  0  0  0
  -25.3703  -31.3833   26.1368 C   0  0  0  0  0  0
  -27.0452  -30.2939   24.6375 C   0  0  0  0  0  0
  -27.6098  -32.4338   25.7496 C   0  0  0  0  0  0
  -27.5552  -37.1734   24.8444 C   0  0  0  0  0  0
  -21.4337  -29.3061   22.3577 N   0  0  0  0  0  0
  -26.4219  -37.3740   23.9451 N   0  0  0  0  0  0
  -24.7491  -30.9961   22.0866 N   0  0  0  0  0  0
  -23.4217  -28.8030   23.3060 O   0  0  0  0  0  0
  -28.2070  -25.8301   20.2273 O   0  0  0  0  0  0
  -26.5661  -34.8916   22.4586 O   0  0  0  0  0  0
  -23.5706  -32.1199   23.6857 O   0  0  0  0  0  0
  -30.0677  -20.8333   21.0518 C   0  0  0  0  0  0
  -27.8902  -21.4699   19.6760 C   0  0  0  0  0  0
  -28.5257  -22.6629   20.2866 C   0  0  0  0  0  0
  -29.4457  -19.6563   20.4213 C   0  0  0  0  0  0
  -31.3412  -20.6449   21.8562 C   0  0  0  0  0  0
  -26.6815  -21.3676   17.4156 C   0  0  0  0  0  0
  -30.7786  -18.1316   18.8072 C   0  0  0  0  0  0
  -26.5532  -21.5499   18.9447 C   0  0  0  0  0  0
  -27.8103  -24.2588   20.4857 C   0  0  0  0  0  0
  -30.1740  -18.0760   20.2189 C   0  0  2  0  0  0
  -29.6315  -22.1973   21.0028 N   0  0  0  0  0  0
  -28.3380  -20.1110   19.7197 N   0  0  0  0  0  0
  -29.7597  -16.4882   20.4639 N   0  0  0  0  0  0
  -31.4600  -12.9554   19.1832 H   0  0  0  0  0  0
  -30.4953  -11.8516   20.1035 H   0  0  0  0  0  0
  -29.8971  -11.7383   17.6677 H   0  0  0  0  0  0
  -29.5907  -13.4568   17.6423 H   0  0  0  0  0  0
  -27.9892  -11.2892   19.0181 H   0  0  0  0  0  0
  -27.4128  -12.4237   17.8236 H   0  0  0  0  0  0
  -27.5429  -14.2562   19.3452 H   0  0  0  0  0  0
  -28.8127  -12.4645   21.4683 H   0  0  0  0  0  0
  -28.3089  -14.1217   21.7105 H   0  0  0  0  0  0
  -25.2824   -9.5668   22.4746 H   0  0  0  0  0  0
  -24.0045   -7.4636   22.7473 H   0  0  0  0  0  0
  -21.0883   -8.8810   19.8941 H   0  0  0  0  0  0
  -22.3800  -10.9675   19.6154 H   0  0  0  0  0  0
  -21.2006   -7.6163   23.9734 H   0  0  0  0  0  0
  -21.1463   -6.0526   25.9078 H   0  0  0  0  0  0
  -22.0603   -2.7634   23.2816 H   0  0  0  0  0  0
  -22.4058  -11.9889   22.4858 H   0  0  0  0  0  0
  -21.0993  -13.1156   22.2546 H   0  0  0  0  0  0
  -24.6542  -15.8620   20.5515 H   0  0  0  0  0  0
  -26.2605  -15.6346   20.0853 H   0  0  0  0  0  0
  -26.7391  -32.5174   23.0946 H   0  0  0  0  0  0
  -25.0225  -33.9518   25.0340 H   0  0  0  0  0  0
  -22.7894  -31.2714   21.3548 H   0  0  0  0  0  0
  -23.3759  -35.9471   23.3204 H   0  0  0  0  0  0
  -24.3572  -36.8927   22.2076 H   0  0  0  0  0  0
  -23.7107  -37.6327   23.6743 H   0  0  0  0  0  0
  -26.2076  -31.3743   20.6075 H   0  0  0  0  0  0
  -26.9148  -30.7135   22.0400 H   0  0  0  0  0  0
  -28.1491  -28.6054   21.2926 H   0  0  0  0  0  0
  -25.8856  -25.7706   18.9718 H   0  0  0  0  0  0
  -24.0108  -27.2842   18.9356 H   0  0  0  0  0  0
  -23.8707  -30.5199   19.3885 H   0  0  0  0  0  0
  -22.8249  -29.2092   19.8318 H   0  0  0  0  0  0
  -25.1270  -36.1770   25.0803 H   0  0  0  0  0  0
  -21.0012  -28.3333   24.1353 H   0  0  0  0  0  0
  -20.5705  -26.2372   23.3638 H   0  0  0  0  0  0
  -21.6662  -26.7463   22.1190 H   0  0  0  0  0  0
  -19.6888  -25.6289   21.1306 H   0  0  0  0  0  0
  -19.6684  -27.3194   20.6744 H   0  0  0  0  0  0
  -17.4216  -26.6765   21.4016 H   0  0  0  0  0  0
  -18.0270  -26.0138   22.9028 H   0  0  0  0  0  0
  -19.7941  -30.7375   24.2174 H   0  0  0  0  0  0
  -17.5017  -31.6291   24.5177 H   0  0  0  0  0  0
  -15.5359  -30.2994   23.7727 H   0  0  0  0  0  0
  -15.8688  -28.0848   22.7113 H   0  0  0  0  0  0
  -24.5855  -30.7209   25.7709 H   0  0  0  0  0  0
  -24.8904  -32.3044   26.4684 H   0  0  0  0  0  0
  -25.7909  -30.9063   27.0221 H   0  0  0  0  0  0
  -26.3106  -29.6659   24.1312 H   0  0  0  0  0  0
  -27.3977  -29.7266   25.5001 H   0  0  0  0  0  0
  -27.9059  -30.4205   23.9800 H   0  0  0  0  0  0
  -27.2741  -33.3757   26.1870 H   0  0  0  0  0  0
  -28.4018  -32.6681   25.0371 H   0  0  0  0  0  0
  -28.0629  -31.8541   26.5553 H   0  0  0  0  0  0
  -28.2486  -38.0120   24.7649 H   0  0  0  0  0  0
  -28.1116  -36.2659   24.6045 H   0  0  0  0  0  0
  -27.2326  -37.1138   25.8857 H   0  0  0  0  0  0
  -20.9579  -29.8744   21.6708 H   0  0  0  0  0  0
  -26.0044  -38.2754   24.1588 H   0  0  0  0  0  0
  -32.1041  -20.1282   21.2735 H   0  0  0  0  0  0
  -31.1374  -20.0577   22.7518 H   0  0  0  0  0  0
  -31.7664  -21.5976   22.1741 H   0  0  0  0  0  0
  -25.6987  -21.3454   16.9433 H   0  0  0  0  0  0
  -27.1770  -20.4292   17.1509 H   0  0  0  0  0  0
  -27.2448  -22.1800   16.9536 H   0  0  0  0  0  0
  -31.3555  -19.0460   18.6643 H   0  0  0  0  0  0
  -29.9948  -18.1209   18.0511 H   0  0  0  0  0  0
  -31.4526  -17.3021   18.6016 H   0  0  0  0  0  0
  -26.0183  -22.4684   19.1727 H   0  0  0  0  0  0
  -25.9118  -20.7595   19.3435 H   0  0  0  0  0  0
  -27.6490  -24.2694   21.5640 H   0  0  0  0  0  0
  -26.8063  -24.1678   20.0903 H   0  0  0  0  0  0
  -31.0266  -18.1384   20.8938 H   0  0  0  0  0  0
  -28.7758  -16.3638   20.6526 H   0  0  0  0  0  0
  1 25  1  0  0  0
  1 30  2  0  0  0
  1 83  1  0  0  0
  2  3  1  0  0  0
  2 25  1  0  0  0
  2 84  1  0  0  0
  2 85  1  0  0  0
  3  4  1  0  0  0
  3 86  1  0  0  0
  3 87  1  0  0  0
  4  5  1  0  0  0
  4 88  1  0  0  0
  4 89  1  0  0  0
  5  6  1  0  0  0
  5 26  1  0  0  0
  5 90  1  0  0  0
  6 25  1  0  0  0
  6 91  1  0  0  0
  6 92  1  0  0  0
  7  8  2  0  0  0
  7 26  1  0  0  0
  7 29  1  0  0  0
  8  9  1  0  0  0
  8 22  1  0  0  0
  9 10  1  0  0  0
  9 27  2  0  0  0
 10 11  2  0  0  0
 10 15  1  0  0  0
 11 12  1  0  0  0
 11 93  1  0  0  0
 12 13  2  0  0  0
 12 94  1  0  0  0
 13 14  1  0  0  0
 13 31  1  0  0  0
 14 15  2  0  0  0
 14 95  1  0  0  0
 15 96  1  0  0  0
 16 17  2  0  0  0
 16 21  1  0  0  0
 16 31  1  0  0  0
 17 18  1  0  0  0
 17 97  1  0  0  0
 18 19  2  0  0  0
 18 98  1  0  0  0
 19 20  1  0  0  0
 19 24  1  0  0  0
 20 21  2  0  0  0
 20 99  1  0  0  0
 21 23  1  0  0  0
 22 28  1  0  0  0
 22 32  2  0  0  0
 26 27  1  0  0  0
 28100  1  0  0  0
 28101  1  0  0  0
 29102  1  0  0  0
 29103  1  0  0  0
 33 34  1  0  0  0
 33 66  1  0  0  0
 33 70  2  0  0  0
 34 36  1  0  0  0
 34 59  1  0  0  0
 34104  1  0  0  0
 35 44  2  0  0  0
 35 45  1  0  0  0
 35 68  1  0  0  0
 36 56  1  0  0  0
 36105  1  0  0  0
 37 39  1  0  0  0
 37 47  1  0  0  0
 37 66  1  0  0  0
 37106  1  0  0  0
 38 43  2  0  0  0
 38 46  1  0  0  0
 38 47  1  0  0  0
 39 64  1  0  0  0
 39 67  2  0  0  0
 40 52  1  0  0  0
 40 53  2  0  0  0
 40 58  1  0  0  0
 41107  1  0  0  0
 41108  1  0  0  0
 41109  1  0  0  0
 41 48  1  0  0  0
 42 43  1  0  0  0
 42 66  1  0  0  0
 42110  1  0  0  0
 42111  1  0  0  0
 43 44  1  0  0  0
 44112  1  0  0  0
 45 46  2  0  0  0
 45113  1  0  0  0
 46114  1  0  0  0
 47115  1  0  0  0
 47116  1  0  0  0
 48 56  1  0  0  0
 48 65  1  0  0  0
 48117  1  0  0  0
 49 50  1  0  0  0
 49 53  1  0  0  0
 49 64  1  0  0  0
 49118  1  0  0  0
 50 51  1  0  0  0
 50119  1  0  0  0
 50120  1  0  0  0
 51 52  1  0  0  0
 51121  1  0  0  0
 51122  1  0  0  0
 52123  1  0  0  0
 52124  1  0  0  0
 53 54  1  0  0  0
 54 55  2  0  0  0
 54125  1  0  0  0
 55 57  1  0  0  0
 55126  1  0  0  0
 56 69  2  0  0  0
 57 58  2  0  0  0
 57127  1  0  0  0
 58128  1  0  0  0
 59 60  1  0  0  0
 59 61  1  0  0  0
 59 62  1  0  0  0
 60129  1  0  0  0
 60130  1  0  0  0
 60131  1  0  0  0
 61132  1  0  0  0
 61133  1  0  0  0
 61134  1  0  0  0
 62135  1  0  0  0
 62136  1  0  0  0
 62137  1  0  0  0
 63 65  1  0  0  0
 63138  1  0  0  0
 63139  1  0  0  0
 63140  1  0  0  0
 64141  1  0  0  0
 65142  1  0  0  0
 68 79  1  0  0  0
 71 74  2  0  0  0
 71 75  1  0  0  0
 71 81  1  0  0  0
 72 73  1  0  0  0
 72 78  1  0  0  0
 72 82  2  0  0  0
 73 79  1  0  0  0
 73 81  2  0  0  0
 74 80  1  0  0  0
 74 82  1  0  0  0
 75143  1  0  0  0
 75144  1  0  0  0
 75145  1  0  0  0
 76 78  1  0  0  0
 76146  1  0  0  0
 76147  1  0  0  0
 76148  1  0  0  0
 77149  1  0  0  0
 77150  1  0  0  0
 77151  1  0  0  0
 77 80  1  0  0  0
 78152  1  0  0  0
 78153  1  0  0  0
 79154  1  0  0  0
 79155  1  0  0  0
 80 83  1  0  0  0
 80156  1  0  0  0
 83157  1  0  0  0
M  ISO  4   1 100  68 101  79 101  83 100
M  END
> <chiral flag>
0

> <version>
0

> <s_m_source_file>
/data/baiqing/PycharmProjects/Reinvent-master-3.2/result/LINK_invent/BTK/process_docking_weight1_custom_sum_contain_oxygen_bond_distance_aromatic_linkinvent_7_9_3/rearranged_h_0178.sdf

> <i_m_source_file_index>
18

> <r_mmod_Potential_Energy-OPLS-2005>
1161.56298828125

> <r_mmod_Stretch_Energy-OPLS-2005>
514.384521484375

> <r_mmod_Bend_Energy-OPLS-2005>
448.933563232422

> <r_mmod_Torsional_Energy-OPLS-2005>
215.477874755859

> <r_mmod_Improper_Torsional_Energy-OPLS-2005>
8.8886661529541

> <r_mmod_Van_der_Waal_Energy-OPLS-2005>
133.072784423828

> <r_mmod_Electrostatic_Energy-OPLS-2005>
-341.849884033203

> <r_mmod_Solvation_Energy-OPLS-2005>
-225.091552734375

> <b_mmod_Minimization_Converged-OPLS-2005>
0

> <r_mmod_RMS_Derivative-OPLS-2005>
4.57913780212402

$$$$
18
                    3D
 Structure written by MMmdl.
161170  0  0  1  0            999 V2000
  -30.5782  -14.9621   20.4049 C   0  0  0  0  0  0
  -30.4285  -12.5994   19.4971 C   0  0  0  0  0  0
  -29.5075  -12.5203   18.2605 C   0  0  0  0  0  0
  -28.0570  -12.2834   18.7058 C   0  0  0  0  0  0
  -27.6267  -13.2454   19.8418 C   0  0  2  0  0  0
  -28.6706  -13.3200   20.9762 C   0  0  0  0  0  0
  -25.2468  -13.8184   20.5725 C   0  0  0  0  0  0
  -24.1783  -13.0420   20.9219 C   0  0  0  0  0  0
  -24.6372  -11.6903   20.8759 C   0  0  0  0  0  0
  -23.9054  -10.4295   21.0383 C   0  0  0  0  0  0
  -24.3610   -9.4248   21.9189 C   0  0  0  0  0  0
  -23.6306   -8.2267   22.0782 C   0  0  0  0  0  0
  -22.4307   -8.0278   21.3539 C   0  0  0  0  0  0
  -21.9900   -9.0258   20.4675 C   0  0  0  0  0  0
  -22.7202  -10.2144   20.3078 C   0  0  0  0  0  0
  -21.6843   -6.0744   22.5279 C   0  0  0  0  0  0
  -21.4009   -6.5660   23.8207 C   0  0  0  0  0  0
  -21.3650   -5.6823   24.9172 C   0  0  0  0  0  0
  -21.6020   -4.3084   24.7227 C   0  0  0  0  0  0
  -21.8808   -3.8167   23.4360 C   0  0  0  0  0  0
  -21.9195   -4.6972   22.3408 C   0  0  0  0  0  0
  -22.7832  -13.5219   21.1866 C   0  0  0  0  0  0
  -22.1668   -4.2159   21.0984 F   0  0  0  0  0  0
  -21.5625   -3.4566   25.7738 F   0  0  0  0  0  0
  -29.9322  -13.7263   20.3529 N   0  0  0  0  0  0
  -26.2893  -12.9416   20.3314 N   0  0  0  0  0  0
  -25.9299  -11.6537   20.5748 N   0  0  0  0  0  0
  -22.0502  -12.8232   22.0455 N   0  0  0  0  0  0
  -25.4147  -15.1900   20.4064 N   0  0  0  0  0  0
  -31.7905  -14.9246   20.1614 O   0  0  0  0  0  0
  -21.6670   -6.8883   21.4236 O   0  0  0  0  0  0
  -22.3551  -14.5534   20.6720 O   0  0  0  0  0  0
  -24.6423  -31.8452   23.1890 C   0  0  0  0  0  0
  -25.9235  -32.4680   23.8218 C   0  0  1  0  0  0
  -27.1856  -27.1518   20.1586 C   0  0  0  0  0  0
  -25.5970  -33.8483   24.2140 N   0  0  0  0  0  0
  -23.4434  -30.4705   21.5342 C   0  0  2  0  0  0
  -24.8917  -28.9112   20.0924 C   0  0  0  0  0  0
  -22.7577  -29.4593   22.4865 C   0  0  0  0  0  0
  -18.0368  -28.1487   22.8489 C   0  0  0  0  0  0
  -24.1513  -36.7264   23.2626 C   0  0  0  0  0  0
  -25.9965  -30.7237   21.3871 C   0  0  0  0  0  0
  -26.0616  -29.3397   20.7304 C   0  0  0  0  0  0
  -27.2128  -28.4725   20.7563 C   0  0  0  0  0  0
  -26.0202  -26.8488   19.4249 C   0  0  0  0  0  0
  -24.8843  -27.6834   19.4216 C   0  0  0  0  0  0
  -23.6641  -29.8048   20.1505 C   0  0  0  0  0  0
  -25.4157  -36.3035   24.0298 C   0  0  1  0  0  0
  -20.5958  -28.3812   23.1299 C   0  0  2  0  0  0
  -20.6878  -26.9528   22.5558 C   0  0  0  0  0  0
  -19.5881  -26.6344   21.5366 C   0  0  0  0  0  0
  -18.2047  -26.7965   22.1714 C   0  0  0  0  0  0
  -19.1613  -28.8967   23.2863 C   0  0  0  0  0  0
  -18.9504  -30.1571   23.8866 C   0  0  0  0  0  0
  -17.6497  -30.6693   24.0535 C   0  0  0  0  0  0
  -25.9081  -34.9403   23.5040 C   0  0  0  0  0  0
  -16.5405  -29.9143   23.6368 C   0  0  0  0  0  0
  -16.7341  -28.6586   23.0359 C   0  0  0  0  0  0
  -26.4580  -31.6540   25.0645 C   0  0  0  0  0  0
  -25.3766  -31.3750   26.1328 C   0  0  0  0  0  0
  -27.0419  -30.2929   24.6213 C   0  0  0  0  0  0
  -27.6124  -32.4265   25.7450 C   0  0  0  0  0  0
  -27.5590  -37.1806   24.8477 C   0  0  0  0  0  0
  -21.4270  -29.3097   22.3611 N   0  0  0  0  0  0
  -26.4325  -37.3753   23.9384 N   0  0  0  0  0  0
  -24.7126  -31.0352   22.0889 N   0  0  0  0  0  0
  -23.4235  -28.8125   23.2987 O   0  0  0  0  0  0
  -28.1583  -26.1010   20.3006 O   0  0  0  0  0  0
  -26.5688  -34.8924   22.4604 O   0  0  0  0  0  0
  -23.5577  -32.1291   23.7144 O   0  0  0  0  0  0
  -26.6695  -24.3839   21.4489 C   0  0  0  0  0  0
  -26.3105  -23.0226   21.5804 C   0  0  0  0  0  0
  -27.8142  -24.7132   20.6732 C   0  0  0  0  0  0
  -28.3057  -22.2789   20.6719 C   0  0  0  0  0  0
  -28.7324  -16.8674   20.9746 C   0  0  0  0  0  0
  -30.4142  -17.3108   19.3308 C   0  0  0  0  0  0
  -28.7063  -18.4725   21.3329 C   0  0  0  0  0  0
  -30.4503  -18.8511   19.7840 C   0  0  0  0  0  0
  -25.8437  -25.4277   22.2031 C   0  0  0  0  0  0
  -24.9742  -22.6045   22.1830 C   0  0  0  0  0  0
  -29.3741  -21.0232   20.7124 C   0  0  0  0  0  0
  -27.1167  -22.0045   21.2033 N   0  0  0  0  0  0
  -28.6396  -23.6041   20.3578 N   0  0  0  0  0  0
  -29.9165  -16.2374   20.2723 N   0  0  0  0  0  0
  -29.1819  -19.4931   20.3059 N   0  3  0  0  0  0
  -31.4603  -12.7330   19.1693 H   0  0  0  0  0  0
  -30.4208  -11.6554   20.0440 H   0  0  0  0  0  0
  -29.8237  -11.7162   17.5963 H   0  0  0  0  0  0
  -29.5657  -13.4459   17.6882 H   0  0  0  0  0  0
  -28.0008  -11.2556   19.0690 H   0  0  0  0  0  0
  -27.3705  -12.3457   17.8610 H   0  0  0  0  0  0
  -27.5802  -14.2364   19.3889 H   0  0  0  0  0  0
  -28.7708  -12.3683   21.4979 H   0  0  0  0  0  0
  -28.3671  -14.0588   21.7199 H   0  0  0  0  0  0
  -25.2718   -9.5777   22.4803 H   0  0  0  0  0  0
  -24.0023   -7.4665   22.7509 H   0  0  0  0  0  0
  -21.0834   -8.8767   19.8975 H   0  0  0  0  0  0
  -22.3613  -10.9716   19.6257 H   0  0  0  0  0  0
  -21.2020   -7.6173   23.9692 H   0  0  0  0  0  0
  -21.1455   -6.0586   25.9063 H   0  0  0  0  0  0
  -22.0589   -2.7635   23.2861 H   0  0  0  0  0  0
  -22.4092  -11.9836   22.4776 H   0  0  0  0  0  0
  -21.1118  -13.1267   22.2618 H   0  0  0  0  0  0
  -24.6517  -15.8507   20.5072 H   0  0  0  0  0  0
  -26.2504  -15.6045   20.0173 H   0  0  0  0  0  0
  -26.7261  -32.5332   23.0900 H   0  0  0  0  0  0
  -25.0035  -33.9567   25.0252 H   0  0  0  0  0  0
  -22.7433  -31.2976   21.3855 H   0  0  0  0  0  0
  -23.3774  -35.9599   23.3321 H   0  0  0  0  0  0
  -24.3574  -36.8862   22.2026 H   0  0  0  0  0  0
  -23.7290  -37.6481   23.6650 H   0  0  0  0  0  0
  -26.1555  -31.4794   20.6170 H   0  0  0  0  0  0
  -26.8661  -30.7685   22.0292 H   0  0  0  0  0  0
  -28.0896  -28.7821   21.3079 H   0  0  0  0  0  0
  -25.9429  -25.8947   18.9262 H   0  0  0  0  0  0
  -23.9941  -27.3542   18.9014 H   0  0  0  0  0  0
  -23.7872  -30.5821   19.3951 H   0  0  0  0  0  0
  -22.7802  -29.2417   19.8418 H   0  0  0  0  0  0
  -25.1370  -36.1821   25.0800 H   0  0  0  0  0  0
  -21.0089  -28.3504   24.1421 H   0  0  0  0  0  0
  -20.5818  -26.2516   23.3819 H   0  0  0  0  0  0
  -21.6778  -26.7543   22.1457 H   0  0  0  0  0  0
  -19.7118  -25.6221   21.1563 H   0  0  0  0  0  0
  -19.6878  -27.2976   20.6787 H   0  0  0  0  0  0
  -17.4336  -26.6664   21.4113 H   0  0  0  0  0  0
  -18.0439  -26.0188   22.9202 H   0  0  0  0  0  0
  -19.7969  -30.7429   24.2177 H   0  0  0  0  0  0
  -17.5045  -31.6379   24.5121 H   0  0  0  0  0  0
  -15.5398  -30.3039   23.7691 H   0  0  0  0  0  0
  -15.8749  -28.0894   22.7119 H   0  0  0  0  0  0
  -24.5960  -30.7075   25.7650 H   0  0  0  0  0  0
  -24.8937  -32.2942   26.4638 H   0  0  0  0  0  0
  -25.8024  -30.8976   27.0151 H   0  0  0  0  0  0
  -26.2984  -29.6653   24.1261 H   0  0  0  0  0  0
  -27.4083  -29.7231   25.4767 H   0  0  0  0  0  0
  -27.8910  -30.4185   23.9487 H   0  0  0  0  0  0
  -27.2727  -33.3556   26.2033 H   0  0  0  0  0  0
  -28.3964  -32.6798   25.0305 H   0  0  0  0  0  0
  -28.0770  -31.8354   26.5346 H   0  0  0  0  0  0
  -28.2664  -38.0050   24.7479 H   0  0  0  0  0  0
  -28.1026  -36.2582   24.6382 H   0  0  0  0  0  0
  -27.2282  -37.1549   25.8873 H   0  0  0  0  0  0
  -20.9543  -29.8642   21.6609 H   0  0  0  0  0  0
  -26.0185  -38.2840   24.1291 H   0  0  0  0  0  0
  -27.8631  -16.6491   20.3505 H   0  0  0  0  0  0
  -28.5468  -16.3237   21.9005 H   0  0  0  0  0  0
  -31.4209  -17.0698   18.9809 H   0  0  0  0  0  0
  -29.7996  -17.2425   18.4296 H   0  0  0  0  0  0
  -29.3392  -18.6031   22.2117 H   0  0  0  0  0  0
  -27.7054  -18.7569   21.6667 H   0  0  0  0  0  0
  -30.8221  -19.4418   18.9437 H   0  0  0  0  0  0
  -31.2169  -18.9463   20.5577 H   0  0  0  0  0  0
  -25.5355  -25.0406   23.1766 H   0  0  0  0  0  0
  -24.9475  -25.7230   21.6543 H   0  0  0  0  0  0
  -26.4207  -26.3219   22.4291 H   0  0  0  0  0  0
  -25.0803  -22.3569   23.2388 H   0  0  0  0  0  0
  -24.5763  -21.7362   21.6607 H   0  0  0  0  0  0
  -24.2139  -23.3818   22.0810 H   0  0  0  0  0  0
  -29.7283  -21.0063   21.7433 H   0  0  0  0  0  0
  -30.2373  -21.3923   20.1613 H   0  0  0  0  0  0
  -28.5125  -19.5210   19.5508 H   0  0  0  0  0  0
  1 25  1  0  0  0
  1 30  2  0  0  0
  1 84  1  0  0  0
  2  3  1  0  0  0
  2 25  1  0  0  0
  2 86  1  0  0  0
  2 87  1  0  0  0
  3  4  1  0  0  0
  3 88  1  0  0  0
  3 89  1  0  0  0
  4  5  1  0  0  0
  4 90  1  0  0  0
  4 91  1  0  0  0
  5  6  1  0  0  0
  5 26  1  0  0  0
  5 92  1  0  0  0
  6 25  1  0  0  0
  6 93  1  0  0  0
  6 94  1  0  0  0
  7  8  2  0  0  0
  7 26  1  0  0  0
  7 29  1  0  0  0
  8  9  1  0  0  0
  8 22  1  0  0  0
  9 10  1  0  0  0
  9 27  2  0  0  0
 10 11  2  0  0  0
 10 15  1  0  0  0
 11 12  1  0  0  0
 11 95  1  0  0  0
 12 13  2  0  0  0
 12 96  1  0  0  0
 13 14  1  0  0  0
 13 31  1  0  0  0
 14 15  2  0  0  0
 14 97  1  0  0  0
 15 98  1  0  0  0
 16 17  2  0  0  0
 16 21  1  0  0  0
 16 31  1  0  0  0
 17 18  1  0  0  0
 17 99  1  0  0  0
 18 19  2  0  0  0
 18100  1  0  0  0
 19 20  1  0  0  0
 19 24  1  0  0  0
 20 21  2  0  0  0
 20101  1  0  0  0
 21 23  1  0  0  0
 22 28  1  0  0  0
 22 32  2  0  0  0
 26 27  1  0  0  0
 28102  1  0  0  0
 28103  1  0  0  0
 29104  1  0  0  0
 29105  1  0  0  0
 33 34  1  0  0  0
 33 66  1  0  0  0
 33 70  2  0  0  0
 34 36  1  0  0  0
 34 59  1  0  0  0
 34106  1  0  0  0
 35 44  2  0  0  0
 35 45  1  0  0  0
 35 68  1  0  0  0
 36 56  1  0  0  0
 36107  1  0  0  0
 37 39  1  0  0  0
 37 47  1  0  0  0
 37 66  1  0  0  0
 37108  1  0  0  0
 38 43  2  0  0  0
 38 46  1  0  0  0
 38 47  1  0  0  0
 39 64  1  0  0  0
 39 67  2  0  0  0
 40 52  1  0  0  0
 40 53  2  0  0  0
 40 58  1  0  0  0
 41109  1  0  0  0
 41110  1  0  0  0
 41111  1  0  0  0
 41 48  1  0  0  0
 42 43  1  0  0  0
 42 66  1  0  0  0
 42112  1  0  0  0
 42113  1  0  0  0
 43 44  1  0  0  0
 44114  1  0  0  0
 45 46  2  0  0  0
 45115  1  0  0  0
 46116  1  0  0  0
 47117  1  0  0  0
 47118  1  0  0  0
 48 56  1  0  0  0
 48 65  1  0  0  0
 48119  1  0  0  0
 49 50  1  0  0  0
 49 53  1  0  0  0
 49 64  1  0  0  0
 49120  1  0  0  0
 50 51  1  0  0  0
 50121  1  0  0  0
 50122  1  0  0  0
 51 52  1  0  0  0
 51123  1  0  0  0
 51124  1  0  0  0
 52125  1  0  0  0
 52126  1  0  0  0
 53 54  1  0  0  0
 54 55  2  0  0  0
 54127  1  0  0  0
 55 57  1  0  0  0
 55128  1  0  0  0
 56 69  2  0  0  0
 57 58  2  0  0  0
 57129  1  0  0  0
 58130  1  0  0  0
 59 60  1  0  0  0
 59 61  1  0  0  0
 59 62  1  0  0  0
 60131  1  0  0  0
 60132  1  0  0  0
 60133  1  0  0  0
 61134  1  0  0  0
 61135  1  0  0  0
 61136  1  0  0  0
 62137  1  0  0  0
 62138  1  0  0  0
 62139  1  0  0  0
 63 65  1  0  0  0
 63140  1  0  0  0
 63141  1  0  0  0
 63142  1  0  0  0
 64143  1  0  0  0
 65144  1  0  0  0
 68 73  1  0  0  0
 71 72  2  0  0  0
 71 73  1  0  0  0
 71 79  1  0  0  0
 72 80  1  0  0  0
 72 82  1  0  0  0
 73 83  2  0  0  0
 74 81  1  0  0  0
 74 82  2  0  0  0
 74 83  1  0  0  0
 75 77  1  0  0  0
 75 84  1  0  0  0
 75145  1  0  0  0
 75146  1  0  0  0
 76 78  1  0  0  0
 76 84  1  0  0  0
 76147  1  0  0  0
 76148  1  0  0  0
 77 85  1  0  0  0
 77149  1  0  0  0
 77150  1  0  0  0
 78 85  1  0  0  0
 78151  1  0  0  0
 78152  1  0  0  0
 79153  1  0  0  0
 79154  1  0  0  0
 79155  1  0  0  0
 80156  1  0  0  0
 80157  1  0  0  0
 80158  1  0  0  0
 81159  1  0  0  0
 81160  1  0  0  0
 81 85  1  0  0  0
 85161  1  0  0  0
M  CHG  1  85   1
M  ISO  4   1 100  68 101  73 101  84 100
M  END
> <chiral flag>
0

> <version>
0

> <s_m_source_file>
/data/baiqing/PycharmProjects/Reinvent-master-3.2/result/LINK_invent/BTK/process_docking_weight1_custom_sum_contain_oxygen_bond_distance_aromatic_linkinvent_7_9_3/rearranged_h_0178.sdf

> <i_m_source_file_index>
19

> <r_mmod_Potential_Energy-OPLS-2005>
115.440116882324

> <r_mmod_Stretch_Energy-OPLS-2005>
223.826324462891

> <r_mmod_Bend_Energy-OPLS-2005>
285.6396484375

> <r_mmod_Torsional_Energy-OPLS-2005>
393.357452392578

> <r_mmod_Improper_Torsional_Energy-OPLS-2005>
16.0095500946045

> <r_mmod_Van_der_Waal_Energy-OPLS-2005>
149.814483642578

> <r_mmod_Electrostatic_Energy-OPLS-2005>
-705.598449707031

> <r_mmod_Solvation_Energy-OPLS-2005>
-457.059112548828

> <b_mmod_Minimization_Converged-OPLS-2005>
0

> <r_mmod_RMS_Derivative-OPLS-2005>
6.46632194519043

$$$$
19
                    3D
 Structure written by MMmdl.
158169  0  0  1  0            999 V2000
  -30.5544  -15.0004   20.3466 C   0  0  0  0  0  0
  -30.4303  -12.6178   19.4753 C   0  0  0  0  0  0
  -29.5064  -12.4966   18.2438 C   0  0  0  0  0  0
  -28.0534  -12.2630   18.6951 C   0  0  0  0  0  0
  -27.6168  -13.2424   19.8146 C   0  0  2  0  0  0
  -28.6660  -13.3490   20.9380 C   0  0  0  0  0  0
  -25.2460  -13.8211   20.5723 C   0  0  0  0  0  0
  -24.1775  -13.0448   20.9218 C   0  0  0  0  0  0
  -24.6361  -11.6927   20.8764 C   0  0  0  0  0  0
  -23.9040  -10.4311   21.0426 C   0  0  0  0  0  0
  -24.3597   -9.4229   21.9204 C   0  0  0  0  0  0
  -23.6270   -8.2264   22.0777 C   0  0  0  0  0  0
  -22.4250   -8.0292   21.3558 C   0  0  0  0  0  0
  -21.9884   -9.0272   20.4665 C   0  0  0  0  0  0
  -22.7217  -10.2144   20.3081 C   0  0  0  0  0  0
  -21.6847   -6.0727   22.5282 C   0  0  0  0  0  0
  -21.4005   -6.5627   23.8211 C   0  0  0  0  0  0
  -21.3653   -5.6780   24.9172 C   0  0  0  0  0  0
  -21.6046   -4.3043   24.7225 C   0  0  0  0  0  0
  -21.8816   -3.8141   23.4338 C   0  0  0  0  0  0
  -21.9189   -4.6958   22.3396 C   0  0  0  0  0  0
  -22.7798  -13.5229   21.1876 C   0  0  0  0  0  0
  -22.1659   -4.2147   21.0963 F   0  0  0  0  0  0
  -21.5637   -3.4522   25.7729 F   0  0  0  0  0  0
  -29.9261  -13.7532   20.3012 N   0  0  0  0  0  0
  -26.2844  -12.9435   20.3207 N   0  0  0  0  0  0
  -25.9288  -11.6574   20.5764 N   0  0  0  0  0  0
  -22.0435  -12.8232   22.0417 N   0  0  0  0  0  0
  -25.4147  -15.1956   20.4182 N   0  0  0  0  0  0
  -31.7845  -14.9949   20.2124 O   0  0  0  0  0  0
  -21.6631   -6.8878   21.4245 O   0  0  0  0  0  0
  -22.3492  -14.5555   20.6739 O   0  0  0  0  0  0
  -24.6487  -31.8386   23.1881 C   0  0  0  0  0  0
  -25.9246  -32.4653   23.8276 C   0  0  1  0  0  0
  -27.2165  -27.1004   20.1265 C   0  0  0  0  0  0
  -25.5979  -33.8461   24.2195 N   0  0  0  0  0  0
  -23.4538  -30.4635   21.5322 C   0  0  2  0  0  0
  -24.9009  -28.8920   20.1073 C   0  0  0  0  0  0
  -22.7595  -29.4537   22.4813 C   0  0  0  0  0  0
  -18.0316  -28.1382   22.8473 C   0  0  0  0  0  0
  -24.1471  -36.7217   23.2652 C   0  0  0  0  0  0
  -26.0148  -30.6996   21.3953 C   0  0  0  0  0  0
  -26.0845  -29.3105   20.7291 C   0  0  0  0  0  0
  -27.2418  -28.4335   20.7240 C   0  0  0  0  0  0
  -26.0002  -26.8029   19.4655 C   0  0  0  0  0  0
  -24.8738  -27.6501   19.4640 C   0  0  0  0  0  0
  -23.6820  -29.8006   20.1520 C   0  0  0  0  0  0
  -25.4096  -36.2993   24.0317 C   0  0  1  0  0  0
  -20.5931  -28.3713   23.1208 C   0  0  2  0  0  0
  -20.6799  -26.9413   22.5375 C   0  0  0  0  0  0
  -19.5770  -26.6381   21.5194 C   0  0  0  0  0  0
  -18.1956  -26.7930   22.1608 C   0  0  0  0  0  0
  -19.1573  -28.8852   23.2843 C   0  0  0  0  0  0
  -18.9510  -30.1463   23.8856 C   0  0  0  0  0  0
  -17.6501  -30.6584   24.0549 C   0  0  0  0  0  0
  -25.9053  -34.9368   23.5044 C   0  0  0  0  0  0
  -16.5378  -29.9079   23.6345 C   0  0  0  0  0  0
  -16.7301  -28.6491   23.0372 C   0  0  0  0  0  0
  -26.4562  -31.6545   25.0721 C   0  0  0  0  0  0
  -25.3772  -31.3704   26.1440 C   0  0  0  0  0  0
  -27.0450  -30.2929   24.6365 C   0  0  0  0  0  0
  -27.6073  -32.4370   25.7485 C   0  0  0  0  0  0
  -27.5561  -37.1747   24.8482 C   0  0  0  0  0  0
  -21.4275  -29.3058   22.3567 N   0  0  0  0  0  0
  -26.4262  -37.3710   23.9433 N   0  0  0  0  0  0
  -24.7264  -31.0212   22.0930 N   0  0  0  0  0  0
  -23.4219  -28.8072   23.2977 O   0  0  0  0  0  0
  -28.2384  -26.0632   20.1869 O   0  0  0  0  0  0
  -26.5637  -34.8865   22.4629 O   0  0  0  0  0  0
  -23.5596  -32.1301   23.7065 O   0  0  0  0  0  0
  -28.4618  -22.0502   19.0285 C   0  0  0  0  0  0
  -29.5637  -21.3030   21.3805 C   0  0  0  0  0  0
  -28.8022  -20.6392   19.1911 C   0  0  0  0  0  0
  -28.6875  -19.4204   18.3676 C   0  0  0  0  0  0
  -29.3794  -20.2300   20.4376 C   0  0  0  0  0  0
  -29.1350  -18.3421   19.1279 C   0  0  0  0  0  0
  -28.6223  -23.0951   20.0178 C   0  0  0  0  0  0
  -29.2876  -16.8125   19.0266 C   0  0  0  0  0  0
  -28.7736  -18.4827   15.8909 C   0  0  0  0  0  0
  -28.8947  -19.9830   15.8048 C   0  0  0  0  0  0
  -30.1346  -17.5651   21.0811 C   0  0  0  0  0  0
  -28.1437  -19.3527   16.9606 C   0  0  0  0  0  0
  -27.8514  -24.5755   19.8544 C   0  0  0  0  0  0
  -29.1832  -22.6392   21.1882 N   0  0  0  0  0  0
  -29.5904  -18.7765   20.3311 N   0  0  0  0  0  0
  -29.8310  -16.2449   20.3149 N   0  0  0  0  0  0
  -31.4595  -12.7756   19.1463 H   0  0  0  0  0  0
  -30.4373  -11.6942   20.0541 H   0  0  0  0  0  0
  -29.8344  -11.6749   17.6051 H   0  0  0  0  0  0
  -29.5645  -13.4031   17.6389 H   0  0  0  0  0  0
  -27.9879  -11.2395   19.0685 H   0  0  0  0  0  0
  -27.3713  -12.3163   17.8446 H   0  0  0  0  0  0
  -27.5509  -14.2158   19.3319 H   0  0  0  0  0  0
  -28.7724  -12.4069   21.4772 H   0  0  0  0  0  0
  -28.3629  -14.0992   21.6695 H   0  0  0  0  0  0
  -25.2742   -9.5700   22.4770 H   0  0  0  0  0  0
  -23.9975   -7.4657   22.7489 H   0  0  0  0  0  0
  -21.0826   -8.8798   19.8964 H   0  0  0  0  0  0
  -22.3691  -10.9684   19.6193 H   0  0  0  0  0  0
  -21.1988   -7.6133   23.9719 H   0  0  0  0  0  0
  -21.1478   -6.0499   25.9070 H   0  0  0  0  0  0
  -22.0595   -2.7598   23.2843 H   0  0  0  0  0  0
  -22.4012  -11.9865   22.4808 H   0  0  0  0  0  0
  -21.1082  -13.1340   22.2676 H   0  0  0  0  0  0
  -24.6516  -15.8507   20.5511 H   0  0  0  0  0  0
  -26.2789  -15.6449   20.1446 H   0  0  0  0  0  0
  -26.7303  -32.5249   23.0995 H   0  0  0  0  0  0
  -25.0157  -33.9566   25.0367 H   0  0  0  0  0  0
  -22.7578  -31.2912   21.3800 H   0  0  0  0  0  0
  -23.3737  -35.9546   23.3292 H   0  0  0  0  0  0
  -24.3564  -36.8881   22.2078 H   0  0  0  0  0  0
  -23.7216  -37.6393   23.6707 H   0  0  0  0  0  0
  -26.1791  -31.4563   20.6249 H   0  0  0  0  0  0
  -26.8803  -30.7425   22.0435 H   0  0  0  0  0  0
  -28.1380  -28.7492   21.2384 H   0  0  0  0  0  0
  -25.8603  -25.8644   18.9512 H   0  0  0  0  0  0
  -23.9707  -27.3224   18.9664 H   0  0  0  0  0  0
  -23.8229  -30.5797   19.4011 H   0  0  0  0  0  0
  -22.7935  -29.2522   19.8362 H   0  0  0  0  0  0
  -25.1269  -36.1797   25.0801 H   0  0  0  0  0  0
  -21.0037  -28.3324   24.1325 H   0  0  0  0  0  0
  -20.5700  -26.2318   23.3597 H   0  0  0  0  0  0
  -21.6664  -26.7408   22.1172 H   0  0  0  0  0  0
  -19.6918  -25.6301   21.1230 H   0  0  0  0  0  0
  -19.6724  -27.3167   20.6715 H   0  0  0  0  0  0
  -17.4228  -26.6704   21.4000 H   0  0  0  0  0  0
  -18.0324  -26.0061   22.8973 H   0  0  0  0  0  0
  -19.7988  -30.7278   24.2220 H   0  0  0  0  0  0
  -17.5067  -31.6270   24.5160 H   0  0  0  0  0  0
  -15.5381  -30.2963   23.7712 H   0  0  0  0  0  0
  -15.8713  -28.0802   22.7114 H   0  0  0  0  0  0
  -24.6041  -30.6911   25.7839 H   0  0  0  0  0  0
  -24.8841  -32.2841   26.4766 H   0  0  0  0  0  0
  -25.8135  -30.9044   27.0295 H   0  0  0  0  0  0
  -26.3091  -29.6601   24.1385 H   0  0  0  0  0  0
  -27.4052  -29.7261   25.4974 H   0  0  0  0  0  0
  -27.8995  -30.4131   23.9693 H   0  0  0  0  0  0
  -27.2670  -33.3750   26.1877 H   0  0  0  0  0  0
  -28.3932  -32.6828   25.0324 H   0  0  0  0  0  0
  -28.0671  -31.8635   26.5544 H   0  0  0  0  0  0
  -28.2562  -38.0062   24.7521 H   0  0  0  0  0  0
  -28.1073  -36.2578   24.6305 H   0  0  0  0  0  0
  -27.2283  -37.1394   25.8893 H   0  0  0  0  0  0
  -20.9461  -29.8814   21.6792 H   0  0  0  0  0  0
  -26.0112  -38.2749   24.1519 H   0  0  0  0  0  0
  -27.9890  -22.3205   18.0947 H   0  0  0  0  0  0
  -30.0039  -21.0859   22.3435 H   0  0  0  0  0  0
  -29.9560  -16.5652   18.1988 H   0  0  0  0  0  0
  -28.3236  -16.3596   18.7939 H   0  0  0  0  0  0
  -29.6792  -17.9309   16.1305 H   0  0  0  0  0  0
  -28.1149  -18.0059   15.1657 H   0  0  0  0  0  0
  -28.3265  -20.4751   15.0162 H   0  0  0  0  0  0
  -29.8776  -20.4099   15.9977 H   0  0  0  0  0  0
  -29.6972  -17.5379   22.0809 H   0  0  0  0  0  0
  -31.2144  -17.6818   21.1930 H   0  0  0  0  0  0
  -27.0584  -19.4415   16.9452 H   0  0  0  0  0  0
  -26.9081  -24.4040   20.3746 H   0  0  0  0  0  0
  -27.5965  -24.5974   18.7945 H   0  0  0  0  0  0
  1 25  1  0  0  0
  1 30  2  0  0  0
  1 86  1  0  0  0
  2  3  1  0  0  0
  2 25  1  0  0  0
  2 87  1  0  0  0
  2 88  1  0  0  0
  3  4  1  0  0  0
  3 89  1  0  0  0
  3 90  1  0  0  0
  4  5  1  0  0  0
  4 91  1  0  0  0
  4 92  1  0  0  0
  5  6  1  0  0  0
  5 26  1  0  0  0
  5 93  1  0  0  0
  6 25  1  0  0  0
  6 94  1  0  0  0
  6 95  1  0  0  0
  7  8  2  0  0  0
  7 26  1  0  0  0
  7 29  1  0  0  0
  8  9  1  0  0  0
  8 22  1  0  0  0
  9 10  1  0  0  0
  9 27  2  0  0  0
 10 11  2  0  0  0
 10 15  1  0  0  0
 11 12  1  0  0  0
 11 96  1  0  0  0
 12 13  2  0  0  0
 12 97  1  0  0  0
 13 14  1  0  0  0
 13 31  1  0  0  0
 14 15  2  0  0  0
 14 98  1  0  0  0
 15 99  1  0  0  0
 16 17  2  0  0  0
 16 21  1  0  0  0
 16 31  1  0  0  0
 17 18  1  0  0  0
 17100  1  0  0  0
 18 19  2  0  0  0
 18101  1  0  0  0
 19 20  1  0  0  0
 19 24  1  0  0  0
 20 21  2  0  0  0
 20102  1  0  0  0
 21 23  1  0  0  0
 22 28  1  0  0  0
 22 32  2  0  0  0
 26 27  1  0  0  0
 28103  1  0  0  0
 28104  1  0  0  0
 29105  1  0  0  0
 29106  1  0  0  0
 33 34  1  0  0  0
 33 66  1  0  0  0
 33 70  2  0  0  0
 34 36  1  0  0  0
 34 59  1  0  0  0
 34107  1  0  0  0
 35 44  2  0  0  0
 35 45  1  0  0  0
 35 68  1  0  0  0
 36 56  1  0  0  0
 36108  1  0  0  0
 37 39  1  0  0  0
 37 47  1  0  0  0
 37 66  1  0  0  0
 37109  1  0  0  0
 38 43  2  0  0  0
 38 46  1  0  0  0
 38 47  1  0  0  0
 39 64  1  0  0  0
 39 67  2  0  0  0
 40 52  1  0  0  0
 40 53  2  0  0  0
 40 58  1  0  0  0
 41110  1  0  0  0
 41111  1  0  0  0
 41112  1  0  0  0
 41 48  1  0  0  0
 42 43  1  0  0  0
 42 66  1  0  0  0
 42113  1  0  0  0
 42114  1  0  0  0
 43 44  1  0  0  0
 44115  1  0  0  0
 45 46  2  0  0  0
 45116  1  0  0  0
 46117  1  0  0  0
 47118  1  0  0  0
 47119  1  0  0  0
 48 56  1  0  0  0
 48 65  1  0  0  0
 48120  1  0  0  0
 49 50  1  0  0  0
 49 53  1  0  0  0
 49 64  1  0  0  0
 49121  1  0  0  0
 50 51  1  0  0  0
 50122  1  0  0  0
 50123  1  0  0  0
 51 52  1  0  0  0
 51124  1  0  0  0
 51125  1  0  0  0
 52126  1  0  0  0
 52127  1  0  0  0
 53 54  1  0  0  0
 54 55  2  0  0  0
 54128  1  0  0  0
 55 57  1  0  0  0
 55129  1  0  0  0
 56 69  2  0  0  0
 57 58  2  0  0  0
 57130  1  0  0  0
 58131  1  0  0  0
 59 60  1  0  0  0
 59 61  1  0  0  0
 59 62  1  0  0  0
 60132  1  0  0  0
 60133  1  0  0  0
 60134  1  0  0  0
 61135  1  0  0  0
 61136  1  0  0  0
 61137  1  0  0  0
 62138  1  0  0  0
 62139  1  0  0  0
 62140  1  0  0  0
 63 65  1  0  0  0
 63141  1  0  0  0
 63142  1  0  0  0
 63143  1  0  0  0
 64144  1  0  0  0
 65145  1  0  0  0
 68 83  1  0  0  0
 71 73  2  0  0  0
 71 77  1  0  0  0
 71146  1  0  0  0
 72 75  2  0  0  0
 72 84  1  0  0  0
 72147  1  0  0  0
 73 74  1  0  0  0
 73 75  1  0  0  0
 74 76  2  0  0  0
 74 82  1  0  0  0
 75 85  1  0  0  0
 76 78  1  0  0  0
 76 85  1  0  0  0
 77 83  1  0  0  0
 77 84  2  0  0  0
 78 86  1  0  0  0
 78148  1  0  0  0
 78149  1  0  0  0
 79 80  1  0  0  0
 79 82  1  0  0  0
 79150  1  0  0  0
 79151  1  0  0  0
 80 82  1  0  0  0
 80152  1  0  0  0
 80153  1  0  0  0
 81 85  1  0  0  0
 81 86  1  0  0  0
 81154  1  0  0  0
 81155  1  0  0  0
 82156  1  0  0  0
 83157  1  0  0  0
 83158  1  0  0  0
M  ISO  4   1 100  68 101  83 101  86 100
M  END
> <chiral flag>
0

> <version>
0

> <s_m_source_file>
/data/baiqing/PycharmProjects/Reinvent-master-3.2/result/LINK_invent/BTK/process_docking_weight1_custom_sum_contain_oxygen_bond_distance_aromatic_linkinvent_7_9_3/rearranged_h_0178.sdf

> <i_m_source_file_index>
20

> <r_mmod_Potential_Energy-OPLS-2005>
536.775207519531

> <r_mmod_Stretch_Energy-OPLS-2005>
244.225067138672

> <r_mmod_Bend_Energy-OPLS-2005>
325.888916015625

> <r_mmod_Torsional_Energy-OPLS-2005>
310.207153320312

> <r_mmod_Improper_Torsional_Energy-OPLS-2005>
10.3651847839355

> <r_mmod_Van_der_Waal_Energy-OPLS-2005>
118.639984130859

> <r_mmod_Electrostatic_Energy-OPLS-2005>
-481.148254394531

> <r_mmod_Solvation_Energy-OPLS-2005>
-230.860122680664

> <b_mmod_Minimization_Converged-OPLS-2005>
0

> <r_mmod_RMS_Derivative-OPLS-2005>
3.88721036911011

$$$$
20
                    3D
 Structure written by MMmdl.
156165  0  0  1  0            999 V2000
  -30.5442  -14.9911   20.3934 C   0  0  0  0  0  0
  -30.4445  -12.6116   19.4939 C   0  0  0  0  0  0
  -29.5278  -12.5354   18.2538 C   0  0  0  0  0  0
  -28.0598  -12.3307   18.6666 C   0  0  0  0  0  0
  -27.6354  -13.2582   19.8363 C   0  0  2  0  0  0
  -28.6833  -13.3026   20.9688 C   0  0  0  0  0  0
  -25.2487  -13.8249   20.5690 C   0  0  0  0  0  0
  -24.1817  -13.0450   20.9212 C   0  0  0  0  0  0
  -24.6452  -11.6938   20.8753 C   0  0  0  0  0  0
  -23.9133  -10.4313   21.0419 C   0  0  0  0  0  0
  -24.3644   -9.4229   21.9193 C   0  0  0  0  0  0
  -23.6305   -8.2278   22.0771 C   0  0  0  0  0  0
  -22.4295   -8.0321   21.3561 C   0  0  0  0  0  0
  -21.9942   -9.0302   20.4650 C   0  0  0  0  0  0
  -22.7305  -10.2158   20.3089 C   0  0  0  0  0  0
  -21.6875   -6.0749   22.5291 C   0  0  0  0  0  0
  -21.3993   -6.5630   23.8223 C   0  0  0  0  0  0
  -21.3674   -5.6787   24.9184 C   0  0  0  0  0  0
  -21.6065   -4.3059   24.7239 C   0  0  0  0  0  0
  -21.8810   -3.8157   23.4358 C   0  0  0  0  0  0
  -21.9186   -4.6970   22.3409 C   0  0  0  0  0  0
  -22.7828  -13.5205   21.1845 C   0  0  0  0  0  0
  -22.1652   -4.2160   21.0992 F   0  0  0  0  0  0
  -21.5643   -3.4531   25.7741 F   0  0  0  0  0  0
  -29.9498  -13.7240   20.3593 N   0  0  0  0  0  0
  -26.2949  -12.9500   20.3260 N   0  0  0  0  0  0
  -25.9419  -11.6619   20.5797 N   0  0  0  0  0  0
  -22.0472  -12.8223   22.0387 N   0  0  0  0  0  0
  -25.4125  -15.1962   20.4076 N   0  0  0  0  0  0
  -31.7543  -15.0402   20.1479 O   0  0  0  0  0  0
  -21.6675   -6.8907   21.4262 O   0  0  0  0  0  0
  -22.3525  -14.5532   20.6727 O   0  0  0  0  0  0
  -24.6474  -31.8448   23.1768 C   0  0  0  0  0  0
  -25.9239  -32.4671   23.8215 C   0  0  1  0  0  0
  -27.2147  -27.1045   20.1705 C   0  0  0  0  0  0
  -25.6006  -33.8472   24.2177 N   0  0  0  0  0  0
  -23.4506  -30.4615   21.5270 C   0  0  2  0  0  0
  -24.8997  -28.8742   20.1124 C   0  0  0  0  0  0
  -22.7581  -29.4558   22.4810 C   0  0  0  0  0  0
  -18.0314  -28.1384   22.8488 C   0  0  0  0  0  0
  -24.1455  -36.7260   23.2622 C   0  0  0  0  0  0
  -26.0049  -30.7011   21.3861 C   0  0  0  0  0  0
  -26.0751  -29.3095   20.7344 C   0  0  0  0  0  0
  -27.2338  -28.4423   20.7437 C   0  0  0  0  0  0
  -26.0210  -26.7790   19.4966 C   0  0  0  0  0  0
  -24.8876  -27.6267   19.4708 C   0  0  0  0  0  0
  -23.6767  -29.7794   20.1508 C   0  0  0  0  0  0
  -25.4092  -36.3009   24.0288 C   0  0  1  0  0  0
  -20.5915  -28.3721   23.1213 C   0  0  2  0  0  0
  -20.6791  -26.9427   22.5364 C   0  0  0  0  0  0
  -19.5742  -26.6355   21.5197 C   0  0  0  0  0  0
  -18.1927  -26.7912   22.1618 C   0  0  0  0  0  0
  -19.1583  -28.8886   23.2814 C   0  0  0  0  0  0
  -18.9500  -30.1485   23.8831 C   0  0  0  0  0  0
  -17.6508  -30.6594   24.0561 C   0  0  0  0  0  0
  -25.9035  -34.9391   23.5020 C   0  0  0  0  0  0
  -16.5401  -29.9086   23.6339 C   0  0  0  0  0  0
  -16.7308  -28.6492   23.0380 C   0  0  0  0  0  0
  -26.4557  -31.6590   25.0728 C   0  0  0  0  0  0
  -25.3731  -31.3832   26.1447 C   0  0  0  0  0  0
  -27.0502  -30.2994   24.6379 C   0  0  0  0  0  0
  -27.6015  -32.4457   25.7549 C   0  0  0  0  0  0
  -27.5535  -37.1786   24.8446 C   0  0  0  0  0  0
  -21.4263  -29.3097   22.3606 N   0  0  0  0  0  0
  -26.4244  -37.3758   23.9418 N   0  0  0  0  0  0
  -24.7213  -31.0235   22.0857 N   0  0  0  0  0  0
  -23.4212  -28.8089   23.2960 O   0  0  0  0  0  0
  -28.2701  -26.1162   20.1846 O   0  0  0  0  0  0
  -26.5607  -34.8914   22.4580 O   0  0  0  0  0  0
  -23.5584  -32.1394   23.6962 O   0  0  0  0  0  0
  -29.8831  -22.4898   17.7089 C   0  0  0  0  0  0
  -29.7686  -21.1400   18.0945 C   0  0  0  0  0  0
  -29.4009  -23.5499   18.4790 C   0  0  0  0  0  0
  -29.3104  -20.7749   19.4127 C   0  0  0  0  0  0
  -28.7948  -23.2905   19.7199 C   0  0  0  0  0  0
  -29.5882  -18.0858   18.8896 C   0  0  0  0  0  0
  -29.1624  -19.1400   19.8993 C   0  0  1  0  0  0
  -30.0905  -17.7087   20.2226 C   0  0  1  0  0  0
  -30.0870  -20.2053   16.9245 C   0  0  0  0  0  0
  -29.4710  -24.9410   17.8729 C   0  0  0  0  0  0
  -28.0284  -24.5813   20.4580 C   0  0  0  0  0  0
  -28.8032  -21.9078   20.1573 N   0  0  0  0  0  0
  -29.7616  -16.1885   20.4574 N   0  0  0  0  0  0
  -31.4738  -12.7686   19.1707 H   0  0  0  0  0  0
  -30.4459  -11.6632   20.0357 H   0  0  0  0  0  0
  -29.8461  -11.7291   17.5929 H   0  0  0  0  0  0
  -29.6237  -13.4593   17.6838 H   0  0  0  0  0  0
  -27.9321  -11.2868   18.9520 H   0  0  0  0  0  0
  -27.4146  -12.4838   17.8043 H   0  0  0  0  0  0
  -27.5944  -14.2614   19.4131 H   0  0  0  0  0  0
  -28.7839  -12.3349   21.4590 H   0  0  0  0  0  0
  -28.3844  -14.0132   21.7415 H   0  0  0  0  0  0
  -25.2779   -9.5670   22.4795 H   0  0  0  0  0  0
  -23.9975   -7.4673   22.7501 H   0  0  0  0  0  0
  -21.0887   -8.8867   19.8943 H   0  0  0  0  0  0
  -22.3810  -10.9706   19.6208 H   0  0  0  0  0  0
  -21.1973   -7.6135   23.9719 H   0  0  0  0  0  0
  -21.1494   -6.0527   25.9077 H   0  0  0  0  0  0
  -22.0572   -2.7624   23.2884 H   0  0  0  0  0  0
  -22.4019  -11.9845   22.4758 H   0  0  0  0  0  0
  -21.1121  -13.1332   22.2593 H   0  0  0  0  0  0
  -24.6403  -15.8480   20.5134 H   0  0  0  0  0  0
  -26.2546  -15.6352   20.0593 H   0  0  0  0  0  0
  -26.7285  -32.5262   23.0911 H   0  0  0  0  0  0
  -25.0306  -33.9533   25.0426 H   0  0  0  0  0  0
  -22.7577  -31.2892   21.3629 H   0  0  0  0  0  0
  -23.3731  -35.9578   23.3267 H   0  0  0  0  0  0
  -24.3441  -36.8930   22.2024 H   0  0  0  0  0  0
  -23.7228  -37.6435   23.6717 H   0  0  0  0  0  0
  -26.1526  -31.4438   20.6048 H   0  0  0  0  0  0
  -26.8784  -30.7591   22.0258 H   0  0  0  0  0  0
  -28.1302  -28.7849   21.2412 H   0  0  0  0  0  0
  -25.9533  -25.8342   18.9811 H   0  0  0  0  0  0
  -23.9990  -27.3006   18.9498 H   0  0  0  0  0  0
  -23.8097  -30.5517   19.3928 H   0  0  0  0  0  0
  -22.7968  -29.2135   19.8379 H   0  0  0  0  0  0
  -25.1262  -36.1770   25.0781 H   0  0  0  0  0  0
  -21.0004  -28.3302   24.1325 H   0  0  0  0  0  0
  -20.5650  -26.2369   23.3601 H   0  0  0  0  0  0
  -21.6663  -26.7376   22.1200 H   0  0  0  0  0  0
  -19.6899  -25.6241   21.1264 H   0  0  0  0  0  0
  -19.6637  -27.3151   20.6718 H   0  0  0  0  0  0
  -17.4202  -26.6691   21.4017 H   0  0  0  0  0  0
  -18.0297  -26.0010   22.8980 H   0  0  0  0  0  0
  -19.7985  -30.7319   24.2120 H   0  0  0  0  0  0
  -17.5071  -31.6240   24.5218 H   0  0  0  0  0  0
  -15.5413  -30.2990   23.7668 H   0  0  0  0  0  0
  -15.8686  -28.0774   22.7150 H   0  0  0  0  0  0
  -24.5818  -30.7263   25.7841 H   0  0  0  0  0  0
  -24.9035  -32.3056   26.4907 H   0  0  0  0  0  0
  -25.7994  -30.8986   27.0241 H   0  0  0  0  0  0
  -26.3189  -29.6683   24.1360 H   0  0  0  0  0  0
  -27.4099  -29.7314   25.4967 H   0  0  0  0  0  0
  -27.9047  -30.4256   23.9732 H   0  0  0  0  0  0
  -27.2515  -33.3778   26.2043 H   0  0  0  0  0  0
  -28.3917  -32.7093   25.0486 H   0  0  0  0  0  0
  -28.0666  -31.8703   26.5579 H   0  0  0  0  0  0
  -28.2581  -38.0077   24.7534 H   0  0  0  0  0  0
  -28.1022  -36.2612   24.6249 H   0  0  0  0  0  0
  -27.2199  -37.1383   25.8833 H   0  0  0  0  0  0
  -20.9474  -29.8896   21.6840 H   0  0  0  0  0  0
  -26.0068  -38.2775   24.1556 H   0  0  0  0  0  0
  -30.2867  -22.7267   16.7321 H   0  0  0  0  0  0
  -30.4635  -18.1790   18.2571 H   0  0  0  0  0  0
  -28.7740  -17.5288   18.4322 H   0  0  0  0  0  0
  -28.1451  -19.0733   20.2777 H   0  0  0  0  0  0
  -31.1140  -17.9625   20.4917 H   0  0  0  0  0  0
  -29.9875  -20.7295   15.9670 H   0  0  0  0  0  0
  -29.3730  -19.3872   16.8197 H   0  0  0  0  0  0
  -31.1147  -19.8357   16.9681 H   0  0  0  0  0  0
  -30.0286  -24.9435   16.9341 H   0  0  0  0  0  0
  -29.9768  -25.6389   18.5386 H   0  0  0  0  0  0
  -28.4661  -25.3061   17.6601 H   0  0  0  0  0  0
  -28.2354  -24.4747   21.5229 H   0  0  0  0  0  0
  -26.9598  -24.3798   20.3744 H   0  0  0  0  0  0
  -28.7806  -16.0100   20.6107 H   0  0  0  0  0  0
  1 25  1  0  0  0
  1 30  2  0  0  0
  1 83  1  0  0  0
  2  3  1  0  0  0
  2 25  1  0  0  0
  2 84  1  0  0  0
  2 85  1  0  0  0
  3  4  1  0  0  0
  3 86  1  0  0  0
  3 87  1  0  0  0
  4  5  1  0  0  0
  4 88  1  0  0  0
  4 89  1  0  0  0
  5  6  1  0  0  0
  5 26  1  0  0  0
  5 90  1  0  0  0
  6 25  1  0  0  0
  6 91  1  0  0  0
  6 92  1  0  0  0
  7  8  2  0  0  0
  7 26  1  0  0  0
  7 29  1  0  0  0
  8  9  1  0  0  0
  8 22  1  0  0  0
  9 10  1  0  0  0
  9 27  2  0  0  0
 10 11  2  0  0  0
 10 15  1  0  0  0
 11 12  1  0  0  0
 11 93  1  0  0  0
 12 13  2  0  0  0
 12 94  1  0  0  0
 13 14  1  0  0  0
 13 31  1  0  0  0
 14 15  2  0  0  0
 14 95  1  0  0  0
 15 96  1  0  0  0
 16 17  2  0  0  0
 16 21  1  0  0  0
 16 31  1  0  0  0
 17 18  1  0  0  0
 17 97  1  0  0  0
 18 19  2  0  0  0
 18 98  1  0  0  0
 19 20  1  0  0  0
 19 24  1  0  0  0
 20 21  2  0  0  0
 20 99  1  0  0  0
 21 23  1  0  0  0
 22 28  1  0  0  0
 22 32  2  0  0  0
 26 27  1  0  0  0
 28100  1  0  0  0
 28101  1  0  0  0
 29102  1  0  0  0
 29103  1  0  0  0
 33 34  1  0  0  0
 33 66  1  0  0  0
 33 70  2  0  0  0
 34 36  1  0  0  0
 34 59  1  0  0  0
 34104  1  0  0  0
 35 44  2  0  0  0
 35 45  1  0  0  0
 35 68  1  0  0  0
 36 56  1  0  0  0
 36105  1  0  0  0
 37 39  1  0  0  0
 37 47  1  0  0  0
 37 66  1  0  0  0
 37106  1  0  0  0
 38 43  2  0  0  0
 38 46  1  0  0  0
 38 47  1  0  0  0
 39 64  1  0  0  0
 39 67  2  0  0  0
 40 52  1  0  0  0
 40 53  2  0  0  0
 40 58  1  0  0  0
 41107  1  0  0  0
 41108  1  0  0  0
 41109  1  0  0  0
 41 48  1  0  0  0
 42 43  1  0  0  0
 42 66  1  0  0  0
 42110  1  0  0  0
 42111  1  0  0  0
 43 44  1  0  0  0
 44112  1  0  0  0
 45 46  2  0  0  0
 45113  1  0  0  0
 46114  1  0  0  0
 47115  1  0  0  0
 47116  1  0  0  0
 48 56  1  0  0  0
 48 65  1  0  0  0
 48117  1  0  0  0
 49 50  1  0  0  0
 49 53  1  0  0  0
 49 64  1  0  0  0
 49118  1  0  0  0
 50 51  1  0  0  0
 50119  1  0  0  0
 50120  1  0  0  0
 51 52  1  0  0  0
 51121  1  0  0  0
 51122  1  0  0  0
 52123  1  0  0  0
 52124  1  0  0  0
 53 54  1  0  0  0
 54 55  2  0  0  0
 54125  1  0  0  0
 55 57  1  0  0  0
 55126  1  0  0  0
 56 69  2  0  0  0
 57 58  2  0  0  0
 57127  1  0  0  0
 58128  1  0  0  0
 59 60  1  0  0  0
 59 61  1  0  0  0
 59 62  1  0  0  0
 60129  1  0  0  0
 60130  1  0  0  0
 60131  1  0  0  0
 61132  1  0  0  0
 61133  1  0  0  0
 61134  1  0  0  0
 62135  1  0  0  0
 62136  1  0  0  0
 62137  1  0  0  0
 63 65  1  0  0  0
 63138  1  0  0  0
 63139  1  0  0  0
 63140  1  0  0  0
 64141  1  0  0  0
 65142  1  0  0  0
 68 81  1  0  0  0
 71 72  2  0  0  0
 71 73  1  0  0  0
 71143  1  0  0  0
 72 74  1  0  0  0
 72 79  1  0  0  0
 73 75  2  0  0  0
 73 80  1  0  0  0
 74 82  2  0  0  0
 74 77  1  0  0  0
 75 81  1  0  0  0
 75 82  1  0  0  0
 76 77  1  0  0  0
 76 78  1  0  0  0
 76144  1  0  0  0
 76145  1  0  0  0
 77 78  1  0  0  0
 77146  1  0  0  0
 78 83  1  0  0  0
 78147  1  0  0  0
 79148  1  0  0  0
 79149  1  0  0  0
 79150  1  0  0  0
 80151  1  0  0  0
 80152  1  0  0  0
 80153  1  0  0  0
 81154  1  0  0  0
 81155  1  0  0  0
 83156  1  0  0  0
M  ISO  4   1 100  68 101  81 101  83 100
M  END
> <chiral flag>
0

> <version>
0

> <s_m_source_file>
/data/baiqing/PycharmProjects/Reinvent-master-3.2/result/LINK_invent/BTK/process_docking_weight1_custom_sum_contain_oxygen_bond_distance_aromatic_linkinvent_7_9_3/rearranged_h_0178.sdf

> <i_m_source_file_index>
21

> <r_mmod_Potential_Energy-OPLS-2005>
652.257141113281

> <r_mmod_Stretch_Energy-OPLS-2005>
359.604248046875

> <r_mmod_Bend_Energy-OPLS-2005>
326.831939697266

> <r_mmod_Torsional_Energy-OPLS-2005>
283.933380126953

> <r_mmod_Improper_Torsional_Energy-OPLS-2005>
7.37696933746338

> <r_mmod_Van_der_Waal_Energy-OPLS-2005>
151.438934326172

> <r_mmod_Electrostatic_Energy-OPLS-2005>
-462.34716796875

> <r_mmod_Solvation_Energy-OPLS-2005>
-233.15071105957

> <b_mmod_Minimization_Converged-OPLS-2005>
0

> <r_mmod_RMS_Derivative-OPLS-2005>
5.87309455871582

$$$$
21
                    3D
 Structure written by MMmdl.
163172  0  0  1  0            999 V2000
  -30.5709  -14.9195   20.4276 C   0  0  0  0  0  0
  -30.4262  -12.5722   19.4964 C   0  0  0  0  0  0
  -29.5145  -12.5354   18.2502 C   0  0  0  0  0  0
  -28.0414  -12.3399   18.6573 C   0  0  0  0  0  0
  -27.6257  -13.2556   19.8407 C   0  0  2  0  0  0
  -28.6685  -13.2840   20.9766 C   0  0  0  0  0  0
  -25.2460  -13.8245   20.5729 C   0  0  0  0  0  0
  -24.1777  -13.0468   20.9217 C   0  0  0  0  0  0
  -24.6401  -11.6951   20.8742 C   0  0  0  0  0  0
  -23.9089  -10.4318   21.0406 C   0  0  0  0  0  0
  -24.3637   -9.4231   21.9192 C   0  0  0  0  0  0
  -23.6310   -8.2265   22.0758 C   0  0  0  0  0  0
  -22.4289   -8.0305   21.3552 C   0  0  0  0  0  0
  -21.9929   -9.0271   20.4645 C   0  0  0  0  0  0
  -22.7255  -10.2154   20.3056 C   0  0  0  0  0  0
  -21.6867   -6.0741   22.5272 C   0  0  0  0  0  0
  -21.4014   -6.5638   23.8206 C   0  0  0  0  0  0
  -21.3667   -5.6791   24.9170 C   0  0  0  0  0  0
  -21.6062   -4.3054   24.7217 C   0  0  0  0  0  0
  -21.8817   -3.8147   23.4332 C   0  0  0  0  0  0
  -21.9197   -4.6968   22.3392 C   0  0  0  0  0  0
  -22.7804  -13.5231   21.1890 C   0  0  0  0  0  0
  -22.1664   -4.2157   21.0973 F   0  0  0  0  0  0
  -21.5645   -3.4533   25.7725 F   0  0  0  0  0  0
  -29.9410  -13.6804   20.3685 N   0  0  0  0  0  0
  -26.2876  -12.9476   20.3270 N   0  0  0  0  0  0
  -25.9338  -11.6595   20.5744 N   0  0  0  0  0  0
  -22.0464  -12.8206   22.0436 N   0  0  0  0  0  0
  -25.4199  -15.1975   20.4209 N   0  0  0  0  0  0
  -31.7830  -14.9352   20.1790 O   0  0  0  0  0  0
  -21.6665   -6.8892   21.4235 O   0  0  0  0  0  0
  -22.3486  -14.5541   20.6749 O   0  0  0  0  0  0
  -24.6401  -31.8445   23.1884 C   0  0  0  0  0  0
  -25.9192  -32.4694   23.8262 C   0  0  1  0  0  0
  -27.2157  -27.1516   20.1609 C   0  0  0  0  0  0
  -25.5966  -33.8509   24.2183 N   0  0  0  0  0  0
  -23.4418  -30.4618   21.5349 C   0  0  2  0  0  0
  -24.8912  -28.8893   20.1123 C   0  0  0  0  0  0
  -22.7545  -29.4537   22.4890 C   0  0  0  0  0  0
  -18.0286  -28.1385   22.8461 C   0  0  0  0  0  0
  -24.1498  -36.7263   23.2640 C   0  0  0  0  0  0
  -25.9951  -30.7241   21.3840 C   0  0  0  0  0  0
  -26.0665  -29.3352   20.7294 C   0  0  0  0  0  0
  -27.2334  -28.4858   20.7290 C   0  0  0  0  0  0
  -26.0144  -26.7954   19.5153 C   0  0  0  0  0  0
  -24.8790  -27.6338   19.4840 C   0  0  0  0  0  0
  -23.6663  -29.7887   20.1543 C   0  0  0  0  0  0
  -25.4136  -36.3038   24.0301 C   0  0  1  0  0  0
  -20.5887  -28.3719   23.1232 C   0  0  2  0  0  0
  -20.6784  -26.9431   22.5401 C   0  0  0  0  0  0
  -19.5779  -26.6378   21.5195 C   0  0  0  0  0  0
  -18.1950  -26.7919   22.1601 C   0  0  0  0  0  0
  -19.1536  -28.8869   23.2830 C   0  0  0  0  0  0
  -18.9468  -30.1463   23.8865 C   0  0  0  0  0  0
  -17.6472  -30.6590   24.0545 C   0  0  0  0  0  0
  -25.9088  -34.9416   23.5046 C   0  0  0  0  0  0
  -16.5359  -29.9084   23.6334 C   0  0  0  0  0  0
  -16.7272  -28.6495   23.0355 C   0  0  0  0  0  0
  -26.4517  -31.6562   25.0706 C   0  0  0  0  0  0
  -25.3702  -31.3733   26.1397 C   0  0  0  0  0  0
  -27.0387  -30.2964   24.6279 C   0  0  0  0  0  0
  -27.6053  -32.4317   25.7490 C   0  0  0  0  0  0
  -27.5576  -37.1788   24.8456 C   0  0  0  0  0  0
  -21.4243  -29.3041   22.3629 N   0  0  0  0  0  0
  -26.4290  -37.3756   23.9396 N   0  0  0  0  0  0
  -24.7116  -31.0305   22.0917 N   0  0  0  0  0  0
  -23.4191  -28.8095   23.3047 O   0  0  0  0  0  0
  -28.2963  -26.2019   20.1870 O   0  0  0  0  0  0
  -26.5676  -34.8904   22.4633 O   0  0  0  0  0  0
  -23.5525  -32.1329   23.7110 O   0  0  0  0  0  0
  -28.8037  -23.5524   19.3337 C   0  0  0  0  0  0
  -29.1705  -24.0855   18.0575 C   0  0  0  0  0  0
  -29.0623  -22.0603   19.4287 C   0  0  0  0  0  0
  -29.8200  -22.0663   17.2378 C   0  0  0  0  0  0
  -28.7613  -18.4128   19.4722 C   0  0  0  0  0  0
  -29.6742  -18.6714   21.6399 C   0  0  0  0  0  0
  -29.4695  -16.9591   19.3453 C   0  0  0  0  0  0
  -30.3842  -17.2202   21.5167 C   0  0  0  0  0  0
  -29.4949  -19.5252   20.3246 C   0  0  0  0  0  0
  -29.0412  -25.5398   17.6400 C   0  0  0  0  0  0
  -30.3109  -21.2491   16.0639 C   0  0  0  0  0  0
  -28.1156  -24.6578   20.3317 C   0  0  0  0  0  0
  -29.6673  -23.3535   17.0506 N   0  0  0  0  0  0
  -29.5569  -21.4266   18.3528 N   0  0  0  0  0  0
  -29.8625  -16.1592   20.5698 N   0  0  0  0  0  0
  -28.9021  -20.9868   20.4233 N   0  0  0  0  0  0
  -31.4658  -12.7091   19.1926 H   0  0  0  0  0  0
  -30.3925  -11.6182   20.0251 H   0  0  0  0  0  0
  -29.8226  -11.7397   17.5717 H   0  0  0  0  0  0
  -29.6228  -13.4714   17.6985 H   0  0  0  0  0  0
  -27.9049  -11.2923   18.9285 H   0  0  0  0  0  0
  -27.3896  -12.5175   17.7993 H   0  0  0  0  0  0
  -27.5871  -14.2630   19.4260 H   0  0  0  0  0  0
  -28.7516  -12.3142   21.4660 H   0  0  0  0  0  0
  -28.3774  -14.0023   21.7464 H   0  0  0  0  0  0
  -25.2781   -9.5705   22.4771 H   0  0  0  0  0  0
  -24.0031   -7.4642   22.7458 H   0  0  0  0  0  0
  -21.0880   -8.8771   19.8926 H   0  0  0  0  0  0
  -22.3714  -10.9691   19.6161 H   0  0  0  0  0  0
  -21.1983   -7.6139   23.9701 H   0  0  0  0  0  0
  -21.1514   -6.0528   25.9078 H   0  0  0  0  0  0
  -22.0589   -2.7607   23.2831 H   0  0  0  0  0  0
  -22.4080  -11.9832   22.4759 H   0  0  0  0  0  0
  -21.1076  -13.1207   22.2652 H   0  0  0  0  0  0
  -24.6662  -15.8654   20.5437 H   0  0  0  0  0  0
  -26.2914  -15.6295   20.1408 H   0  0  0  0  0  0
  -26.7261  -32.5291   23.0992 H   0  0  0  0  0  0
  -25.0095  -33.9637   25.0309 H   0  0  0  0  0  0
  -22.7433  -31.2868   21.3808 H   0  0  0  0  0  0
  -23.3770  -35.9582   23.3281 H   0  0  0  0  0  0
  -24.3578  -36.8931   22.2059 H   0  0  0  0  0  0
  -23.7246  -37.6447   23.6698 H   0  0  0  0  0  0
  -26.1468  -31.4772   20.6088 H   0  0  0  0  0  0
  -26.8668  -30.7735   22.0254 H   0  0  0  0  0  0
  -28.1348  -28.8300   21.2170 H   0  0  0  0  0  0
  -25.9363  -25.8327   19.0314 H   0  0  0  0  0  0
  -23.9872  -27.2886   18.9797 H   0  0  0  0  0  0
  -23.8018  -30.5622   19.3980 H   0  0  0  0  0  0
  -22.7814  -29.2287   19.8456 H   0  0  0  0  0  0
  -25.1324  -36.1863   25.0789 H   0  0  0  0  0  0
  -20.9946  -28.3309   24.1359 H   0  0  0  0  0  0
  -20.5677  -26.2338   23.3616 H   0  0  0  0  0  0
  -21.6657  -26.7459   22.1203 H   0  0  0  0  0  0
  -19.6959  -25.6276   21.1258 H   0  0  0  0  0  0
  -19.6716  -27.3163   20.6700 H   0  0  0  0  0  0
  -17.4217  -26.6638   21.4002 H   0  0  0  0  0  0
  -18.0370  -26.0051   22.8996 H   0  0  0  0  0  0
  -19.7952  -30.7267   24.2230 H   0  0  0  0  0  0
  -17.5038  -31.6266   24.5161 H   0  0  0  0  0  0
  -15.5365  -30.2991   23.7673 H   0  0  0  0  0  0
  -15.8664  -28.0809   22.7108 H   0  0  0  0  0  0
  -24.5895  -30.7068   25.7707 H   0  0  0  0  0  0
  -24.8873  -32.2905   26.4779 H   0  0  0  0  0  0
  -25.7986  -30.8933   27.0207 H   0  0  0  0  0  0
  -26.3003  -29.6675   24.1294 H   0  0  0  0  0  0
  -27.4019  -29.7267   25.4845 H   0  0  0  0  0  0
  -27.8893  -30.4212   23.9576 H   0  0  0  0  0  0
  -27.2670  -33.3648   26.2002 H   0  0  0  0  0  0
  -28.3900  -32.6827   25.0343 H   0  0  0  0  0  0
  -28.0677  -31.8484   26.5460 H   0  0  0  0  0  0
  -28.2574  -38.0102   24.7521 H   0  0  0  0  0  0
  -28.1089  -36.2634   24.6264 H   0  0  0  0  0  0
  -27.2283  -37.1408   25.8853 H   0  0  0  0  0  0
  -20.9472  -29.8768   21.6808 H   0  0  0  0  0  0
  -26.0153  -38.2814   24.1422 H   0  0  0  0  0  0
  -27.7539  -18.2672   19.8678 H   0  0  0  0  0  0
  -28.6098  -18.7973   18.4633 H   0  0  0  0  0  0
  -30.2408  -19.2652   22.3580 H   0  0  0  0  0  0
  -28.6965  -18.5238   22.1030 H   0  0  0  0  0  0
  -30.3748  -17.0917   18.7504 H   0  0  0  0  0  0
  -28.8233  -16.3252   18.7368 H   0  0  0  0  0  0
  -30.4048  -16.7732   22.5122 H   0  0  0  0  0  0
  -31.4313  -17.3945   21.2622 H   0  0  0  0  0  0
  -30.4939  -19.6507   19.9038 H   0  0  0  0  0  0
  -28.0205  -25.9006   17.7467 H   0  0  0  0  0  0
  -29.3095  -25.6829   16.5928 H   0  0  0  0  0  0
  -29.7216  -26.1633   18.2177 H   0  0  0  0  0  0
  -29.7301  -21.4780   15.1694 H   0  0  0  0  0  0
  -30.2124  -20.1809   16.2566 H   0  0  0  0  0  0
  -31.3611  -21.4609   15.8641 H   0  0  0  0  0  0
  -27.0525  -24.4232   20.3513 H   0  0  0  0  0  0
  -28.4575  -24.4130   21.3374 H   0  0  0  0  0  0
  -28.5734  -21.2907   21.3340 H   0  0  0  0  0  0
  1 25  1  0  0  0
  1 30  2  0  0  0
  1 85  1  0  0  0
  2  3  1  0  0  0
  2 25  1  0  0  0
  2 87  1  0  0  0
  2 88  1  0  0  0
  3  4  1  0  0  0
  3 89  1  0  0  0
  3 90  1  0  0  0
  4  5  1  0  0  0
  4 91  1  0  0  0
  4 92  1  0  0  0
  5  6  1  0  0  0
  5 26  1  0  0  0
  5 93  1  0  0  0
  6 25  1  0  0  0
  6 94  1  0  0  0
  6 95  1  0  0  0
  7  8  2  0  0  0
  7 26  1  0  0  0
  7 29  1  0  0  0
  8  9  1  0  0  0
  8 22  1  0  0  0
  9 10  1  0  0  0
  9 27  2  0  0  0
 10 11  2  0  0  0
 10 15  1  0  0  0
 11 12  1  0  0  0
 11 96  1  0  0  0
 12 13  2  0  0  0
 12 97  1  0  0  0
 13 14  1  0  0  0
 13 31  1  0  0  0
 14 15  2  0  0  0
 14 98  1  0  0  0
 15 99  1  0  0  0
 16 17  2  0  0  0
 16 21  1  0  0  0
 16 31  1  0  0  0
 17 18  1  0  0  0
 17100  1  0  0  0
 18 19  2  0  0  0
 18101  1  0  0  0
 19 20  1  0  0  0
 19 24  1  0  0  0
 20 21  2  0  0  0
 20102  1  0  0  0
 21 23  1  0  0  0
 22 28  1  0  0  0
 22 32  2  0  0  0
 26 27  1  0  0  0
 28103  1  0  0  0
 28104  1  0  0  0
 29105  1  0  0  0
 29106  1  0  0  0
 33 34  1  0  0  0
 33 66  1  0  0  0
 33 70  2  0  0  0
 34 36  1  0  0  0
 34 59  1  0  0  0
 34107  1  0  0  0
 35 44  2  0  0  0
 35 45  1  0  0  0
 35 68  1  0  0  0
 36 56  1  0  0  0
 36108  1  0  0  0
 37 39  1  0  0  0
 37 47  1  0  0  0
 37 66  1  0  0  0
 37109  1  0  0  0
 38 43  2  0  0  0
 38 46  1  0  0  0
 38 47  1  0  0  0
 39 64  1  0  0  0
 39 67  2  0  0  0
 40 52  1  0  0  0
 40 53  2  0  0  0
 40 58  1  0  0  0
 41110  1  0  0  0
 41111  1  0  0  0
 41112  1  0  0  0
 41 48  1  0  0  0
 42 43  1  0  0  0
 42 66  1  0  0  0
 42113  1  0  0  0
 42114  1  0  0  0
 43 44  1  0  0  0
 44115  1  0  0  0
 45 46  2  0  0  0
 45116  1  0  0  0
 46117  1  0  0  0
 47118  1  0  0  0
 47119  1  0  0  0
 48 56  1  0  0  0
 48 65  1  0  0  0
 48120  1  0  0  0
 49 50  1  0  0  0
 49 53  1  0  0  0
 49 64  1  0  0  0
 49121  1  0  0  0
 50 51  1  0  0  0
 50122  1  0  0  0
 50123  1  0  0  0
 51 52  1  0  0  0
 51124  1  0  0  0
 51125  1  0  0  0
 52126  1  0  0  0
 52127  1  0  0  0
 53 54  1  0  0  0
 54 55  2  0  0  0
 54128  1  0  0  0
 55 57  1  0  0  0
 55129  1  0  0  0
 56 69  2  0  0  0
 57 58  2  0  0  0
 57130  1  0  0  0
 58131  1  0  0  0
 59 60  1  0  0  0
 59 61  1  0  0  0
 59 62  1  0  0  0
 60132  1  0  0  0
 60133  1  0  0  0
 60134  1  0  0  0
 61135  1  0  0  0
 61136  1  0  0  0
 61137  1  0  0  0
 62138  1  0  0  0
 62139  1  0  0  0
 62140  1  0  0  0
 63 65  1  0  0  0
 63141  1  0  0  0
 63142  1  0  0  0
 63143  1  0  0  0
 64144  1  0  0  0
 65145  1  0  0  0
 68 82  1  0  0  0
 71 72  2  0  0  0
 71 73  1  0  0  0
 71 82  1  0  0  0
 72 80  1  0  0  0
 72 83  1  0  0  0
 73 84  2  0  0  0
 73 86  1  0  0  0
 74 81  1  0  0  0
 74 83  2  0  0  0
 74 84  1  0  0  0
 75 77  1  0  0  0
 75 79  1  0  0  0
 75146  1  0  0  0
 75147  1  0  0  0
 76 78  1  0  0  0
 76 79  1  0  0  0
 76148  1  0  0  0
 76149  1  0  0  0
 77 85  1  0  0  0
 77150  1  0  0  0
 77151  1  0  0  0
 78 85  1  0  0  0
 78152  1  0  0  0
 78153  1  0  0  0
 79 86  1  0  0  0
 79154  1  0  0  0
 80155  1  0  0  0
 80156  1  0  0  0
 80157  1  0  0  0
 81158  1  0  0  0
 81159  1  0  0  0
 81160  1  0  0  0
 82161  1  0  0  0
 82162  1  0  0  0
 86163  1  0  0  0
M  ISO  4   1 100  68 101  82 101  85 100
M  END
> <chiral flag>
0

> <version>
0

> <s_m_source_file>
/data/baiqing/PycharmProjects/Reinvent-master-3.2/result/LINK_invent/BTK/process_docking_weight1_custom_sum_contain_oxygen_bond_distance_aromatic_linkinvent_7_9_3/rearranged_h_0178.sdf

> <i_m_source_file_index>
22

> <r_mmod_Potential_Energy-OPLS-2005>
260.083892822266

> <r_mmod_Stretch_Energy-OPLS-2005>
239.252746582031

> <r_mmod_Bend_Energy-OPLS-2005>
329.876770019531

> <r_mmod_Torsional_Energy-OPLS-2005>
330.381134033203

> <r_mmod_Improper_Torsional_Energy-OPLS-2005>
9.40889739990234

> <r_mmod_Van_der_Waal_Energy-OPLS-2005>
155.458709716797

> <r_mmod_Electrostatic_Energy-OPLS-2005>
-749.546813964844

> <r_mmod_Solvation_Energy-OPLS-2005>
-225.83366394043

> <b_mmod_Minimization_Converged-OPLS-2005>
0

> <r_mmod_RMS_Derivative-OPLS-2005>
2.68337893486023

$$$$
22
                    3D
 Structure written by MMmdl.
160169  0  0  1  0            999 V2000
  -30.0562  -16.3471   20.4070 C   0  0  0  0  0  0
  -30.4005  -13.5326   19.6429 C   0  0  0  0  0  0
  -29.6062  -12.8915   18.4331 C   0  0  0  0  0  0
  -28.2202  -12.3933   18.8512 C   0  0  0  0  0  0
  -27.6112  -13.4018   19.8349 C   0  0  2  0  0  0
  -28.5783  -13.9150   20.9525 C   0  0  0  0  0  0
  -25.2321  -13.8446   20.5893 C   0  0  0  0  0  0
  -24.1776  -13.0494   20.9298 C   0  0  0  0  0  0
  -24.6596  -11.7037   20.8722 C   0  0  0  0  0  0
  -23.9281  -10.4348   21.0359 C   0  0  0  0  0  0
  -24.3755   -9.4236   21.9154 C   0  0  0  0  0  0
  -23.6372   -8.2293   22.0749 C   0  0  0  0  0  0
  -22.4342   -8.0326   21.3551 C   0  0  0  0  0  0
  -22.0027   -9.0324   20.4647 C   0  0  0  0  0  0
  -22.7419  -10.2180   20.3032 C   0  0  0  0  0  0
  -21.6885   -6.0762   22.5267 C   0  0  0  0  0  0
  -21.4039   -6.5655   23.8200 C   0  0  0  0  0  0
  -21.3658   -5.6800   24.9154 C   0  0  0  0  0  0
  -21.6043   -4.3063   24.7208 C   0  0  0  0  0  0
  -21.8825   -3.8163   23.4326 C   0  0  0  0  0  0
  -21.9207   -4.6985   22.3383 C   0  0  0  0  0  0
  -22.7748  -13.5113   21.1961 C   0  0  0  0  0  0
  -22.1669   -4.2152   21.0965 F   0  0  0  0  0  0
  -21.5619   -3.4545   25.7729 F   0  0  0  0  0  0
  -29.7198  -14.7761   20.3926 N   0  0  0  0  0  0
  -26.2929  -12.9985   20.3346 N   0  0  0  0  0  0
  -25.9588  -11.6955   20.5642 N   0  0  0  0  0  0
  -22.0419  -12.8068   22.0501 N   0  0  0  0  0  0
  -25.3781  -15.2206   20.4367 N   0  0  0  0  0  0
  -31.0446  -16.0885   19.6259 O   0  0  0  0  0  0
  -21.6681   -6.8922   21.4240 O   0  0  0  0  0  0
  -22.3400  -14.5400   20.6793 O   0  0  0  0  0  0
  -24.7310  -31.7450   23.1120 C   0  0  0  0  0  0
  -25.9651  -32.4208   23.7869 C   0  0  1  0  0  0
  -27.2528  -26.2074   20.3032 C   0  0  0  0  0  0
  -25.6029  -33.8055   24.1706 N   0  0  0  0  0  0
  -23.5772  -30.3225   21.4751 C   0  0  2  0  0  0
  -25.0355  -28.5473   20.1474 C   0  0  0  0  0  0
  -22.7956  -29.4066   22.4580 C   0  0  0  0  0  0
  -18.0381  -28.1455   22.8415 C   0  0  0  0  0  0
  -24.1467  -36.7017   23.2666 C   0  0  0  0  0  0
  -26.1724  -30.3057   21.4561 C   0  0  0  0  0  0
  -26.2300  -28.8128   20.8264 C   0  0  0  0  0  0
  -27.2990  -27.6948   20.8541 C   0  0  0  0  0  0
  -26.0237  -26.2767   19.5449 C   0  0  0  0  0  0
  -24.9993  -27.3022   19.4814 C   0  0  0  0  0  0
  -23.8583  -29.5696   20.1331 C   0  0  0  0  0  0
  -25.4143  -36.2734   24.0251 C   0  0  1  0  0  0
  -20.6025  -28.3850   23.1036 C   0  0  2  0  0  0
  -20.6815  -26.9462   22.5402 C   0  0  0  0  0  0
  -19.5799  -26.6353   21.5216 C   0  0  0  0  0  0
  -18.1979  -26.7971   22.1605 C   0  0  0  0  0  0
  -19.1648  -28.8994   23.2688 C   0  0  0  0  0  0
  -18.9559  -30.1556   23.8756 C   0  0  0  0  0  0
  -17.6540  -30.6636   24.0543 C   0  0  0  0  0  0
  -25.9166  -34.9144   23.4862 C   0  0  0  0  0  0
  -16.5432  -29.9098   23.6366 C   0  0  0  0  0  0
  -16.7342  -28.6525   23.0369 C   0  0  0  0  0  0
  -26.4672  -31.6456   25.0706 C   0  0  0  0  0  0
  -25.3614  -31.3901   26.1237 C   0  0  0  0  0  0
  -27.0729  -30.2755   24.6995 C   0  0  0  0  0  0
  -27.6027  -32.4446   25.7559 C   0  0  0  0  0  0
  -27.5536  -37.1658   24.8475 C   0  0  0  0  0  0
  -21.4568  -29.3015   22.3304 N   0  0  0  0  0  0
  -26.4217  -37.3564   23.9439 N   0  0  0  0  0  0
  -24.8575  -30.8381   22.0661 N   0  0  0  0  0  0
  -23.4176  -28.7729   23.3139 O   0  0  0  0  0  0
  -28.1987  -24.7956   20.3058 O   0  0  0  0  0  0
  -26.5872  -34.8821   22.4528 O   0  0  0  0  0  0
  -23.6242  -32.0774   23.5770 O   0  0  0  0  0  0
  -29.5860  -16.1421   22.6310 C   0  0  0  0  0  0
  -28.3737  -17.3133   21.7190 C   0  0  0  0  0  0
  -31.5058  -16.7023   22.1454 C   0  0  0  0  0  0
  -28.2434  -17.7325   24.2609 C   0  0  0  0  0  0
  -27.8753  -19.5178   22.7654 C   0  0  0  0  0  0
  -29.8083  -18.0742   24.1595 C   0  0  0  0  0  0
  -29.4517  -19.6951   22.8548 C   0  0  0  0  0  0
  -27.5642  -18.0012   22.8417 C   0  0  0  0  0  0
  -32.8491  -16.0985   22.4407 C   0  0  0  0  0  0
  -28.9643  -20.7050   20.0766 C   0  0  0  0  0  0
  -28.2965  -22.7908   20.5854 C   0  0  0  0  0  0
  -31.3271  -18.2485   20.8311 N   0  0  0  0  0  0
  -29.3823  -18.7349   20.5627 N   0  0  0  0  0  0
  -30.0941  -18.2832   22.6141 N   0  0  0  0  0  0
  -31.3800  -13.8059   19.2517 H   0  0  0  0  0  0
  -30.6518  -12.7440   20.3567 H   0  0  0  0  0  0
  -30.1800  -12.0678   18.0009 H   0  0  0  0  0  0
  -29.4985  -13.6404   17.6459 H   0  0  0  0  0  0
  -28.3428  -11.4326   19.3509 H   0  0  0  0  0  0
  -27.5747  -12.2228   17.9885 H   0  0  0  0  0  0
  -27.4216  -14.2800   19.2157 H   0  0  0  0  0  0
  -28.9314  -13.1040   21.5911 H   0  0  0  0  0  0
  -27.9675  -14.5250   21.6123 H   0  0  0  0  0  0
  -25.2883   -9.5664   22.4775 H   0  0  0  0  0  0
  -24.0034   -7.4670   22.7488 H   0  0  0  0  0  0
  -21.0942   -8.8886   19.8956 H   0  0  0  0  0  0
  -22.3873  -10.9730   19.6150 H   0  0  0  0  0  0
  -21.2048   -7.6160   23.9700 H   0  0  0  0  0  0
  -21.1467   -6.0527   25.9052 H   0  0  0  0  0  0
  -22.0610   -2.7622   23.2833 H   0  0  0  0  0  0
  -22.4076  -11.9736   22.4887 H   0  0  0  0  0  0
  -21.0993  -13.1013   22.2674 H   0  0  0  0  0  0
  -24.6005  -15.8577   20.5676 H   0  0  0  0  0  0
  -26.2132  -15.6769   20.1032 H   0  0  0  0  0  0
  -26.7808  -32.4554   23.0639 H   0  0  0  0  0  0
  -25.0012  -33.9017   24.9747 H   0  0  0  0  0  0
  -22.9323  -31.1727   21.2478 H   0  0  0  0  0  0
  -23.3791  -35.9282   23.3229 H   0  0  0  0  0  0
  -24.3515  -36.8817   22.2104 H   0  0  0  0  0  0
  -23.7147  -37.6112   23.6857 H   0  0  0  0  0  0
  -26.4305  -30.9900   20.6486 H   0  0  0  0  0  0
  -27.0039  -30.3943   22.1389 H   0  0  0  0  0  0
  -28.1951  -27.9337   21.4096 H   0  0  0  0  0  0
  -25.7807  -25.3756   18.9948 H   0  0  0  0  0  0
  -24.1144  -27.0796   18.8989 H   0  0  0  0  0  0
  -24.0870  -30.3135   19.3687 H   0  0  0  0  0  0
  -22.9474  -29.0718   19.7913 H   0  0  0  0  0  0
  -25.1367  -36.1441   25.0733 H   0  0  0  0  0  0
  -21.0100  -28.3518   24.1164 H   0  0  0  0  0  0
  -20.5663  -26.2480   23.3702 H   0  0  0  0  0  0
  -21.6658  -26.7331   22.1229 H   0  0  0  0  0  0
  -19.6955  -25.6228   21.1320 H   0  0  0  0  0  0
  -19.6758  -27.3089   20.6689 H   0  0  0  0  0  0
  -17.4245  -26.6685   21.4021 H   0  0  0  0  0  0
  -18.0389  -26.0168   22.9061 H   0  0  0  0  0  0
  -19.8037  -30.7403   24.2048 H   0  0  0  0  0  0
  -17.5102  -31.6296   24.5179 H   0  0  0  0  0  0
  -15.5421  -30.2968   23.7799 H   0  0  0  0  0  0
  -15.8728  -28.0812   22.7159 H   0  0  0  0  0  0
  -24.5753  -30.7362   25.7456 H   0  0  0  0  0  0
  -24.8893  -32.3187   26.4452 H   0  0  0  0  0  0
  -25.7658  -30.9108   27.0164 H   0  0  0  0  0  0
  -26.3581  -29.6176   24.2064 H   0  0  0  0  0  0
  -27.4045  -29.7455   25.5933 H   0  0  0  0  0  0
  -27.9581  -30.3806   24.0731 H   0  0  0  0  0  0
  -27.2498  -33.3869   26.1766 H   0  0  0  0  0  0
  -28.4025  -32.6814   25.0531 H   0  0  0  0  0  0
  -28.0497  -31.8831   26.5776 H   0  0  0  0  0  0
  -28.2480  -38.0023   24.7575 H   0  0  0  0  0  0
  -28.1107  -36.2549   24.6240 H   0  0  0  0  0  0
  -27.2267  -37.1206   25.8876 H   0  0  0  0  0  0
  -20.9998  -29.8552   21.6182 H   0  0  0  0  0  0
  -26.0013  -38.2589   24.1493 H   0  0  0  0  0  0
  -29.3247  -15.3816   23.3519 H   0  0  0  0  0  0
  -27.7795  -18.3212   25.0572 H   0  0  0  0  0  0
  -28.0836  -16.7021   24.5868 H   0  0  0  0  0  0
  -27.4278  -19.9394   21.8752 H   0  0  0  0  0  0
  -27.3864  -20.0464   23.5844 H   0  0  0  0  0  0
  -30.3981  -17.2504   24.5722 H   0  0  0  0  0  0
  -30.1466  -18.8088   24.8950 H   0  0  0  0  0  0
  -29.8957  -20.4456   22.2157 H   0  0  0  0  0  0
  -29.6527  -20.2793   23.7514 H   0  0  0  0  0  0
  -26.4996  -17.7556   22.8147 H   0  0  0  0  0  0
  -33.5648  -16.8501   22.7718 H   0  0  0  0  0  0
  -33.2442  -15.6536   21.5246 H   0  0  0  0  0  0
  -32.7865  -15.3050   23.1882 H   0  0  0  0  0  0
  -29.9433  -20.9701   19.6808 H   0  0  0  0  0  0
  -28.3672  -20.5737   19.1725 H   0  0  0  0  0  0
  -28.8909  -22.8772   21.4945 H   0  0  0  0  0  0
  -27.2904  -22.5871   20.9584 H   0  0  0  0  0  0
  1 25  1  0  0  0
  1 30  2  0  0  0
  1 84  1  0  0  0
  2  3  1  0  0  0
  2 25  1  0  0  0
  2 85  1  0  0  0
  2 86  1  0  0  0
  3  4  1  0  0  0
  3 87  1  0  0  0
  3 88  1  0  0  0
  4  5  1  0  0  0
  4 89  1  0  0  0
  4 90  1  0  0  0
  5  6  1  0  0  0
  5 26  1  0  0  0
  5 91  1  0  0  0
  6 25  1  0  0  0
  6 92  1  0  0  0
  6 93  1  0  0  0
  7  8  2  0  0  0
  7 26  1  0  0  0
  7 29  1  0  0  0
  8  9  1  0  0  0
  8 22  1  0  0  0
  9 10  1  0  0  0
  9 27  2  0  0  0
 10 11  2  0  0  0
 10 15  1  0  0  0
 11 12  1  0  0  0
 11 94  1  0  0  0
 12 13  2  0  0  0
 12 95  1  0  0  0
 13 14  1  0  0  0
 13 31  1  0  0  0
 14 15  2  0  0  0
 14 96  1  0  0  0
 15 97  1  0  0  0
 16 17  2  0  0  0
 16 21  1  0  0  0
 16 31  1  0  0  0
 17 18  1  0  0  0
 17 98  1  0  0  0
 18 19  2  0  0  0
 18 99  1  0  0  0
 19 20  1  0  0  0
 19 24  1  0  0  0
 20 21  2  0  0  0
 20100  1  0  0  0
 21 23  1  0  0  0
 22 28  1  0  0  0
 22 32  2  0  0  0
 26 27  1  0  0  0
 28101  1  0  0  0
 28102  1  0  0  0
 29103  1  0  0  0
 29104  1  0  0  0
 33 34  1  0  0  0
 33 66  1  0  0  0
 33 70  2  0  0  0
 34 36  1  0  0  0
 34 59  1  0  0  0
 34105  1  0  0  0
 35 44  2  0  0  0
 35 45  1  0  0  0
 35 68  1  0  0  0
 36 56  1  0  0  0
 36106  1  0  0  0
 37 39  1  0  0  0
 37 47  1  0  0  0
 37 66  1  0  0  0
 37107  1  0  0  0
 38 43  2  0  0  0
 38 46  1  0  0  0
 38 47  1  0  0  0
 39 64  1  0  0  0
 39 67  2  0  0  0
 40 52  1  0  0  0
 40 53  2  0  0  0
 40 58  1  0  0  0
 41108  1  0  0  0
 41109  1  0  0  0
 41110  1  0  0  0
 41 48  1  0  0  0
 42 43  1  0  0  0
 42 66  1  0  0  0
 42111  1  0  0  0
 42112  1  0  0  0
 43 44  1  0  0  0
 44113  1  0  0  0
 45 46  2  0  0  0
 45114  1  0  0  0
 46115  1  0  0  0
 47116  1  0  0  0
 47117  1  0  0  0
 48 56  1  0  0  0
 48 65  1  0  0  0
 48118  1  0  0  0
 49 50  1  0  0  0
 49 53  1  0  0  0
 49 64  1  0  0  0
 49119  1  0  0  0
 50 51  1  0  0  0
 50120  1  0  0  0
 50121  1  0  0  0
 51 52  1  0  0  0
 51122  1  0  0  0
 51123  1  0  0  0
 52124  1  0  0  0
 52125  1  0  0  0
 53 54  1  0  0  0
 54 55  2  0  0  0
 54126  1  0  0  0
 55 57  1  0  0  0
 55127  1  0  0  0
 56 69  2  0  0  0
 57 58  2  0  0  0
 57128  1  0  0  0
 58129  1  0  0  0
 59 60  1  0  0  0
 59 61  1  0  0  0
 59 62  1  0  0  0
 60130  1  0  0  0
 60131  1  0  0  0
 60132  1  0  0  0
 61133  1  0  0  0
 61134  1  0  0  0
 61135  1  0  0  0
 62136  1  0  0  0
 62137  1  0  0  0
 62138  1  0  0  0
 63 65  1  0  0  0
 63139  1  0  0  0
 63140  1  0  0  0
 63141  1  0  0  0
 64142  1  0  0  0
 65143  1  0  0  0
 68 81  1  0  0  0
 71 72  2  0  0  0
 71 73  1  0  0  0
 71144  1  0  0  0
 72 83  1  0  0  0
 72 78  1  0  0  0
 73 79  1  0  0  0
 73 82  2  0  0  0
 74 76  1  0  0  0
 74 78  1  0  0  0
 74145  1  0  0  0
 74146  1  0  0  0
 75 77  1  0  0  0
 75 78  1  0  0  0
 75147  1  0  0  0
 75148  1  0  0  0
 76 84  1  0  0  0
 76149  1  0  0  0
 76150  1  0  0  0
 77 84  1  0  0  0
 77151  1  0  0  0
 77152  1  0  0  0
 78153  1  0  0  0
 79154  1  0  0  0
 79155  1  0  0  0
 79156  1  0  0  0
 80 81  1  0  0  0
 80 83  1  0  0  0
 80157  1  0  0  0
 80158  1  0  0  0
 81159  1  0  0  0
 81160  1  0  0  0
 82 83  1  0  0  0
M  ISO  4   1 100  68 101  81 101  84 100
M  END
> <chiral flag>
0

> <version>
0

> <s_m_source_file>
/data/baiqing/PycharmProjects/Reinvent-master-3.2/result/LINK_invent/BTK/process_docking_weight1_custom_sum_contain_oxygen_bond_distance_aromatic_linkinvent_7_9_3/rearranged_h_0178.sdf

> <i_m_source_file_index>
23

> <r_mmod_Potential_Energy-OPLS-2005>
18448.0078125

> <r_mmod_Stretch_Energy-OPLS-2005>
11578.658203125

> <r_mmod_Bend_Energy-OPLS-2005>
1163.51354980469

> <r_mmod_Torsional_Energy-OPLS-2005>
474.039886474609

> <r_mmod_Improper_Torsional_Energy-OPLS-2005>
99.8391189575195

> <r_mmod_Van_der_Waal_Energy-OPLS-2005>
3465.88891601562

> <r_mmod_Electrostatic_Energy-OPLS-2005>
-299.512268066406

> <r_mmod_Solvation_Energy-OPLS-2005>
-231.056549072266

> <b_mmod_Minimization_Converged-OPLS-2005>
0

> <r_mmod_RMS_Derivative-OPLS-2005>
11.9408979415894

$$$$
23
                    3D
 Structure written by MMmdl.
162171  0  0  1  0            999 V2000
  -30.6390  -14.7037   20.4689 C   0  0  0  0  0  0
  -30.4282  -12.4280   19.4799 C   0  0  0  0  0  0
  -29.5125  -12.5071   18.2391 C   0  0  0  0  0  0
  -28.0377  -12.3367   18.6494 C   0  0  0  0  0  0
  -27.6462  -13.2296   19.8577 C   0  0  2  0  0  0
  -28.6896  -13.1508   20.9945 C   0  0  0  0  0  0
  -25.2524  -13.8192   20.5703 C   0  0  0  0  0  0
  -24.1806  -13.0441   20.9207 C   0  0  0  0  0  0
  -24.6395  -11.6917   20.8747 C   0  0  0  0  0  0
  -23.9069  -10.4296   21.0405 C   0  0  0  0  0  0
  -24.3620   -9.4219   21.9188 C   0  0  0  0  0  0
  -23.6290   -8.2256   22.0758 C   0  0  0  0  0  0
  -22.4268   -8.0291   21.3552 C   0  0  0  0  0  0
  -21.9900   -9.0268   20.4652 C   0  0  0  0  0  0
  -22.7239  -10.2145   20.3058 C   0  0  0  0  0  0
  -21.6855   -6.0742   22.5274 C   0  0  0  0  0  0
  -21.4024   -6.5639   23.8213 C   0  0  0  0  0  0
  -21.3662   -5.6790   24.9172 C   0  0  0  0  0  0
  -21.6039   -4.3054   24.7222 C   0  0  0  0  0  0
  -21.8822   -3.8151   23.4340 C   0  0  0  0  0  0
  -21.9197   -4.6965   22.3399 C   0  0  0  0  0  0
  -22.7820  -13.5230   21.1855 C   0  0  0  0  0  0
  -22.1659   -4.2163   21.0971 F   0  0  0  0  0  0
  -21.5629   -3.4530   25.7733 F   0  0  0  0  0  0
  -29.9986  -13.4883   20.4198 N   0  0  0  0  0  0
  -26.2952  -12.9401   20.3306 N   0  0  0  0  0  0
  -25.9326  -11.6546   20.5765 N   0  0  0  0  0  0
  -22.0454  -12.8234   22.0402 N   0  0  0  0  0  0
  -25.4204  -15.1921   20.4126 N   0  0  0  0  0  0
  -31.8081  -14.8060   20.0914 O   0  0  0  0  0  0
  -21.6636   -6.8881   21.4239 O   0  0  0  0  0  0
  -22.3517  -14.5539   20.6701 O   0  0  0  0  0  0
  -24.6309  -31.8574   23.2016 C   0  0  0  0  0  0
  -25.9145  -32.4763   23.8352 C   0  0  1  0  0  0
  -27.2107  -27.2720   20.1209 C   0  0  0  0  0  0
  -25.5937  -33.8564   24.2263 N   0  0  0  0  0  0
  -23.4256  -30.4843   21.5455 C   0  0  2  0  0  0
  -24.8708  -28.9416   20.1071 C   0  0  0  0  0  0
  -22.7501  -29.4615   22.4911 C   0  0  0  0  0  0
  -18.0294  -28.1394   22.8484 C   0  0  0  0  0  0
  -24.1491  -36.7287   23.2638 C   0  0  0  0  0  0
  -25.9735  -30.7737   21.3816 C   0  0  0  0  0  0
  -26.0440  -29.4000   20.7190 C   0  0  0  0  0  0
  -27.2175  -28.5776   20.7171 C   0  0  0  0  0  0
  -26.0129  -26.8914   19.4682 C   0  0  0  0  0  0
  -24.8602  -27.6946   19.4711 C   0  0  0  0  0  0
  -23.6417  -29.8266   20.1586 C   0  0  0  0  0  0
  -25.4116  -36.3070   24.0323 C   0  0  1  0  0  0
  -20.5899  -28.3702   23.1269 C   0  0  2  0  0  0
  -20.6787  -26.9416   22.5407 C   0  0  0  0  0  0
  -19.5752  -26.6386   21.5217 C   0  0  0  0  0  0
  -18.1934  -26.7935   22.1628 C   0  0  0  0  0  0
  -19.1552  -28.8867   23.2868 C   0  0  0  0  0  0
  -18.9470  -30.1475   23.8882 C   0  0  0  0  0  0
  -17.6463  -30.6588   24.0568 C   0  0  0  0  0  0
  -25.9057  -34.9443   23.5091 C   0  0  0  0  0  0
  -16.5358  -29.9083   23.6334 C   0  0  0  0  0  0
  -16.7285  -28.6511   23.0342 C   0  0  0  0  0  0
  -26.4507  -31.6584   25.0742 C   0  0  0  0  0  0
  -25.3725  -31.3748   26.1461 C   0  0  0  0  0  0
  -27.0349  -30.2989   24.6247 C   0  0  0  0  0  0
  -27.6056  -32.4332   25.7517 C   0  0  0  0  0  0
  -27.5578  -37.1796   24.8460 C   0  0  0  0  0  0
  -21.4212  -29.3043   22.3654 N   0  0  0  0  0  0
  -26.4288  -37.3770   23.9408 N   0  0  0  0  0  0
  -24.6958  -31.0560   22.0984 N   0  0  0  0  0  0
  -23.4209  -28.8139   23.2989 O   0  0  0  0  0  0
  -28.2886  -26.3569   20.2034 O   0  0  0  0  0  0
  -26.5623  -34.8916   22.4655 O   0  0  0  0  0  0
  -23.5464  -32.1396   23.7315 O   0  0  0  0  0  0
  -30.6723  -21.6569   21.1824 C   0  0  0  0  0  0
  -28.6220  -22.3240   20.1384 C   0  0  0  0  0  0
  -29.4941  -21.2424   20.5293 C   0  0  0  0  0  0
  -30.9146  -23.0314   21.4176 C   0  0  0  0  0  0
  -28.9310  -23.7130   20.4023 C   0  0  0  0  0  0
  -29.6737  -18.5200   21.1718 C   0  0  0  0  0  0
  -29.8768  -19.2541   18.8749 C   0  0  0  0  0  0
  -29.2358  -19.7076   20.1945 C   0  0  2  0  0  0
  -30.2748  -17.2915   20.3415 C   0  0  2  0  0  0
  -29.8894  -17.7024   18.9008 C   0  0  2  0  0  0
  -32.1819  -23.4795   22.1146 C   0  0  0  0  0  0
  -27.9670  -24.9033   19.9909 C   0  0  0  0  0  0
  -30.0771  -24.0294   21.0438 N   0  0  0  0  0  0
  -29.8912  -15.8484   20.6753 N   0  0  0  0  0  0
  -30.7635  -17.1148   17.8686 N   0  3  0  0  0  0
  -31.4736  -12.5324   19.1843 H   0  0  0  0  0  0
  -30.3516  -11.4490   19.9562 H   0  0  0  0  0  0
  -29.7880  -11.7412   17.5127 H   0  0  0  0  0  0
  -29.6502  -13.4664   17.7370 H   0  0  0  0  0  0
  -27.8900  -11.2864   18.9046 H   0  0  0  0  0  0
  -27.3825  -12.5389   17.8010 H   0  0  0  0  0  0
  -27.6452  -14.2539   19.4859 H   0  0  0  0  0  0
  -28.7119  -12.1523   21.4330 H   0  0  0  0  0  0
  -28.4275  -13.8320   21.8055 H   0  0  0  0  0  0
  -25.2772   -9.5698   22.4755 H   0  0  0  0  0  0
  -24.0013   -7.4644   22.7470 H   0  0  0  0  0  0
  -21.0840   -8.8782   19.8947 H   0  0  0  0  0  0
  -22.3702  -10.9679   19.6160 H   0  0  0  0  0  0
  -21.2016   -7.6148   23.9717 H   0  0  0  0  0  0
  -21.1473   -6.0517   25.9077 H   0  0  0  0  0  0
  -22.0595   -2.7609   23.2830 H   0  0  0  0  0  0
  -22.4055  -11.9913   22.4828 H   0  0  0  0  0  0
  -21.1069  -13.1281   22.2590 H   0  0  0  0  0  0
  -24.6505  -15.8422   20.5286 H   0  0  0  0  0  0
  -26.2639  -15.6361   20.0736 H   0  0  0  0  0  0
  -26.7212  -32.5411   23.1095 H   0  0  0  0  0  0
  -25.0072  -33.9704   25.0400 H   0  0  0  0  0  0
  -22.7207  -31.3062   21.4048 H   0  0  0  0  0  0
  -23.3752  -35.9619   23.3297 H   0  0  0  0  0  0
  -24.3584  -36.8919   22.2055 H   0  0  0  0  0  0
  -23.7253  -37.6489   23.6669 H   0  0  0  0  0  0
  -26.1154  -31.5372   20.6152 H   0  0  0  0  0  0
  -26.8498  -30.8169   22.0167 H   0  0  0  0  0  0
  -28.1114  -28.9205   21.2188 H   0  0  0  0  0  0
  -25.9191  -25.9445   18.9599 H   0  0  0  0  0  0
  -23.9630  -27.3403   18.9825 H   0  0  0  0  0  0
  -23.7637  -30.6072   19.4065 H   0  0  0  0  0  0
  -22.7595  -29.2614   19.8527 H   0  0  0  0  0  0
  -25.1296  -36.1914   25.0814 H   0  0  0  0  0  0
  -20.9995  -28.3289   24.1387 H   0  0  0  0  0  0
  -20.5704  -26.2304   23.3611 H   0  0  0  0  0  0
  -21.6653  -26.7448   22.1190 H   0  0  0  0  0  0
  -19.6907  -25.6297   21.1245 H   0  0  0  0  0  0
  -19.6683  -27.3202   20.6750 H   0  0  0  0  0  0
  -17.4199  -26.6692   21.4030 H   0  0  0  0  0  0
  -18.0321  -26.0086   22.9031 H   0  0  0  0  0  0
  -19.7944  -30.7307   24.2221 H   0  0  0  0  0  0
  -17.5016  -31.6262   24.5179 H   0  0  0  0  0  0
  -15.5357  -30.2972   23.7675 H   0  0  0  0  0  0
  -15.8688  -28.0834   22.7034 H   0  0  0  0  0  0
  -24.5881  -30.7116   25.7798 H   0  0  0  0  0  0
  -24.8940  -32.2927   26.4887 H   0  0  0  0  0  0
  -25.8034  -30.8922   27.0241 H   0  0  0  0  0  0
  -26.2939  -29.6734   24.1254 H   0  0  0  0  0  0
  -27.3992  -29.7260   25.4787 H   0  0  0  0  0  0
  -27.8838  -30.4243   23.9522 H   0  0  0  0  0  0
  -27.2647  -33.3632   26.2080 H   0  0  0  0  0  0
  -28.3870  -32.6891   25.0348 H   0  0  0  0  0  0
  -28.0715  -31.8468   26.5449 H   0  0  0  0  0  0
  -28.2585  -38.0102   24.7512 H   0  0  0  0  0  0
  -28.1081  -36.2632   24.6268 H   0  0  0  0  0  0
  -27.2297  -37.1441   25.8864 H   0  0  0  0  0  0
  -20.9389  -29.8768   21.6868 H   0  0  0  0  0  0
  -26.0162  -38.2841   24.1410 H   0  0  0  0  0  0
  -31.4050  -20.9248   21.4923 H   0  0  0  0  0  0
  -27.7018  -22.0924   19.6193 H   0  0  0  0  0  0
  -28.8225  -18.2110   21.7798 H   0  0  0  0  0  0
  -30.4307  -18.8687   21.8745 H   0  0  0  0  0  0
  -30.9006  -19.6304   18.8324 H   0  0  0  0  0  0
  -29.3463  -19.6565   18.0113 H   0  0  0  0  0  0
  -28.1563  -19.6111   20.0686 H   0  0  0  0  0  0
  -31.3599  -17.3704   20.4351 H   0  0  0  0  0  0
  -28.8712  -17.3578   18.7093 H   0  0  0  0  0  0
  -32.7573  -22.6301   22.4821 H   0  0  0  0  0  0
  -31.9464  -24.1177   22.9665 H   0  0  0  0  0  0
  -32.8136  -24.0423   21.4273 H   0  0  0  0  0  0
  -27.0361  -24.6848   20.5161 H   0  0  0  0  0  0
  -27.7683  -24.7618   18.9276 H   0  0  0  0  0  0
  -28.9377  -15.6962   20.9693 H   0  0  0  0  0  0
  -31.7001  -17.4710   17.9393 H   0  0  0  0  0  0
  -30.4118  -17.3288   16.9519 H   0  0  0  0  0  0
  -30.8027  -16.1162   17.9609 H   0  0  0  0  0  0
  1 25  1  0  0  0
  1 30  2  0  0  0
  1 84  1  0  0  0
  2  3  1  0  0  0
  2 25  1  0  0  0
  2 86  1  0  0  0
  2 87  1  0  0  0
  3  4  1  0  0  0
  3 88  1  0  0  0
  3 89  1  0  0  0
  4  5  1  0  0  0
  4 90  1  0  0  0
  4 91  1  0  0  0
  5  6  1  0  0  0
  5 26  1  0  0  0
  5 92  1  0  0  0
  6 25  1  0  0  0
  6 93  1  0  0  0
  6 94  1  0  0  0
  7  8  2  0  0  0
  7 26  1  0  0  0
  7 29  1  0  0  0
  8  9  1  0  0  0
  8 22  1  0  0  0
  9 10  1  0  0  0
  9 27  2  0  0  0
 10 11  2  0  0  0
 10 15  1  0  0  0
 11 12  1  0  0  0
 11 95  1  0  0  0
 12 13  2  0  0  0
 12 96  1  0  0  0
 13 14  1  0  0  0
 13 31  1  0  0  0
 14 15  2  0  0  0
 14 97  1  0  0  0
 15 98  1  0  0  0
 16 17  2  0  0  0
 16 21  1  0  0  0
 16 31  1  0  0  0
 17 18  1  0  0  0
 17 99  1  0  0  0
 18 19  2  0  0  0
 18100  1  0  0  0
 19 20  1  0  0  0
 19 24  1  0  0  0
 20 21  2  0  0  0
 20101  1  0  0  0
 21 23  1  0  0  0
 22 28  1  0  0  0
 22 32  2  0  0  0
 26 27  1  0  0  0
 28102  1  0  0  0
 28103  1  0  0  0
 29104  1  0  0  0
 29105  1  0  0  0
 33 34  1  0  0  0
 33 66  1  0  0  0
 33 70  2  0  0  0
 34 36  1  0  0  0
 34 59  1  0  0  0
 34106  1  0  0  0
 35 44  2  0  0  0
 35 45  1  0  0  0
 35 68  1  0  0  0
 36 56  1  0  0  0
 36107  1  0  0  0
 37 39  1  0  0  0
 37 47  1  0  0  0
 37 66  1  0  0  0
 37108  1  0  0  0
 38 43  2  0  0  0
 38 46  1  0  0  0
 38 47  1  0  0  0
 39 64  1  0  0  0
 39 67  2  0  0  0
 40 52  1  0  0  0
 40 53  2  0  0  0
 40 58  1  0  0  0
 41109  1  0  0  0
 41110  1  0  0  0
 41111  1  0  0  0
 41 48  1  0  0  0
 42 43  1  0  0  0
 42 66  1  0  0  0
 42112  1  0  0  0
 42113  1  0  0  0
 43 44  1  0  0  0
 44114  1  0  0  0
 45 46  2  0  0  0
 45115  1  0  0  0
 46116  1  0  0  0
 47117  1  0  0  0
 47118  1  0  0  0
 48 56  1  0  0  0
 48 65  1  0  0  0
 48119  1  0  0  0
 49 50  1  0  0  0
 49 53  1  0  0  0
 49 64  1  0  0  0
 49120  1  0  0  0
 50 51  1  0  0  0
 50121  1  0  0  0
 50122  1  0  0  0
 51 52  1  0  0  0
 51123  1  0  0  0
 51124  1  0  0  0
 52125  1  0  0  0
 52126  1  0  0  0
 53 54  1  0  0  0
 54 55  2  0  0  0
 54127  1  0  0  0
 55 57  1  0  0  0
 55128  1  0  0  0
 56 69  2  0  0  0
 57 58  2  0  0  0
 57129  1  0  0  0
 58130  1  0  0  0
 59 60  1  0  0  0
 59 61  1  0  0  0
 59 62  1  0  0  0
 60131  1  0  0  0
 60132  1  0  0  0
 60133  1  0  0  0
 61134  1  0  0  0
 61135  1  0  0  0
 61136  1  0  0  0
 62137  1  0  0  0
 62138  1  0  0  0
 62139  1  0  0  0
 63 65  1  0  0  0
 63140  1  0  0  0
 63141  1  0  0  0
 63142  1  0  0  0
 64143  1  0  0  0
 65144  1  0  0  0
 68 82  1  0  0  0
 71 73  2  0  0  0
 71 74  1  0  0  0
 71145  1  0  0  0
 72 73  1  0  0  0
 72 75  2  0  0  0
 72146  1  0  0  0
 73 78  1  0  0  0
 74 81  1  0  0  0
 74 83  2  0  0  0
 75 82  1  0  0  0
 75 83  1  0  0  0
 76 78  1  0  0  0
 76 79  1  0  0  0
 76147  1  0  0  0
 76148  1  0  0  0
 77 78  1  0  0  0
 77 80  1  0  0  0
 77149  1  0  0  0
 77150  1  0  0  0
 78151  1  0  0  0
 79 80  1  0  0  0
 79 84  1  0  0  0
 79152  1  0  0  0
 80 85  1  0  0  0
 80153  1  0  0  0
 81154  1  0  0  0
 81155  1  0  0  0
 81156  1  0  0  0
 82157  1  0  0  0
 82158  1  0  0  0
 84159  1  0  0  0
 85160  1  0  0  0
 85161  1  0  0  0
 85162  1  0  0  0
M  CHG  1  85   1
M  ISO  4   1 100  68 101  82 101  84 100
M  END
> <chiral flag>
0

> <version>
0

> <s_m_source_file>
/data/baiqing/PycharmProjects/Reinvent-master-3.2/result/LINK_invent/BTK/process_docking_weight1_custom_sum_contain_oxygen_bond_distance_aromatic_linkinvent_7_9_3/rearranged_h_0178.sdf

> <i_m_source_file_index>
24

> <r_mmod_Potential_Energy-OPLS-2005>
-279.696380615234

> <r_mmod_Stretch_Energy-OPLS-2005>
106.597053527832

> <r_mmod_Bend_Energy-OPLS-2005>
177.227005004883

> <r_mmod_Torsional_Energy-OPLS-2005>
276.974090576172

> <r_mmod_Improper_Torsional_Energy-OPLS-2005>
6.90026903152466

> <r_mmod_Van_der_Waal_Energy-OPLS-2005>
139.830413818359

> <r_mmod_Electrostatic_Energy-OPLS-2005>
-545.337951660156

> <r_mmod_Solvation_Energy-OPLS-2005>
-518.508728027344

> <b_mmod_Minimization_Converged-OPLS-2005>
0

> <r_mmod_RMS_Derivative-OPLS-2005>
1.6385223865509

$$$$
24
                    3D
 Structure written by MMmdl.
163172  0  0  1  0            999 V2000
  -30.5429  -15.0740   20.5153 C   0  0  0  0  0  0
  -30.4409  -12.6877   19.5501 C   0  0  0  0  0  0
  -29.5431  -12.5711   18.2913 C   0  0  0  0  0  0
  -28.0817  -12.3187   18.7018 C   0  0  0  0  0  0
  -27.6273  -13.2620   19.8416 C   0  0  2  0  0  0
  -28.6500  -13.3441   20.9918 C   0  0  0  0  0  0
  -25.2454  -13.8254   20.5721 C   0  0  0  0  0  0
  -24.1763  -13.0471   20.9206 C   0  0  0  0  0  0
  -24.6392  -11.6975   20.8721 C   0  0  0  0  0  0
  -23.9075  -10.4338   21.0403 C   0  0  0  0  0  0
  -24.3649   -9.4242   21.9158 C   0  0  0  0  0  0
  -23.6337   -8.2260   22.0744 C   0  0  0  0  0  0
  -22.4288   -8.0293   21.3582 C   0  0  0  0  0  0
  -21.9916   -9.0248   20.4656 C   0  0  0  0  0  0
  -22.7238  -10.2137   20.3060 C   0  0  0  0  0  0
  -21.6877   -6.0718   22.5260 C   0  0  0  0  0  0
  -21.4009   -6.5600   23.8189 C   0  0  0  0  0  0
  -21.3684   -5.6757   24.9158 C   0  0  0  0  0  0
  -21.6089   -4.3023   24.7207 C   0  0  0  0  0  0
  -21.8814   -3.8113   23.4308 C   0  0  0  0  0  0
  -21.9221   -4.6952   22.3371 C   0  0  0  0  0  0
  -22.7773  -13.5230   21.1881 C   0  0  0  0  0  0
  -22.1696   -4.2137   21.0955 F   0  0  0  0  0  0
  -21.5691   -3.4504   25.7706 F   0  0  0  0  0  0
  -29.9293  -13.8038   20.4225 N   0  0  0  0  0  0
  -26.2861  -12.9483   20.3225 N   0  0  0  0  0  0
  -25.9315  -11.6618   20.5696 N   0  0  0  0  0  0
  -22.0466  -12.8231   22.0460 N   0  0  0  0  0  0
  -25.4207  -15.1955   20.4162 N   0  0  0  0  0  0
  -31.7010  -15.1111   20.0795 O   0  0  0  0  0  0
  -21.6685   -6.8864   21.4232 O   0  0  0  0  0  0
  -22.3447  -14.5549   20.6748 O   0  0  0  0  0  0
  -24.6509  -31.8352   23.1762 C   0  0  0  0  0  0
  -25.9247  -32.4662   23.8199 C   0  0  1  0  0  0
  -27.2428  -27.0574   20.2048 C   0  0  0  0  0  0
  -25.5948  -33.8474   24.2115 N   0  0  0  0  0  0
  -23.4620  -30.4464   21.5200 C   0  0  2  0  0  0
  -24.9200  -28.8492   20.1168 C   0  0  0  0  0  0
  -22.7639  -29.4488   22.4787 C   0  0  0  0  0  0
  -18.0334  -28.1408   22.8466 C   0  0  0  0  0  0
  -24.1497  -36.7254   23.2637 C   0  0  0  0  0  0
  -26.0191  -30.6907   21.3770 C   0  0  0  0  0  0
  -26.0967  -29.2858   20.7386 C   0  0  0  0  0  0
  -27.2551  -28.4147   20.7522 C   0  0  0  0  0  0
  -26.0378  -26.7313   19.5422 C   0  0  0  0  0  0
  -24.9113  -27.5887   19.4952 C   0  0  0  0  0  0
  -23.6980  -29.7611   20.1461 C   0  0  0  0  0  0
  -25.4119  -36.3001   24.0307 C   0  0  1  0  0  0
  -20.5960  -28.3755   23.1231 C   0  0  2  0  0  0
  -20.6810  -26.9445   22.5409 C   0  0  0  0  0  0
  -19.5772  -26.6369   21.5244 C   0  0  0  0  0  0
  -18.1957  -26.7931   22.1643 C   0  0  0  0  0  0
  -19.1590  -28.8907   23.2831 C   0  0  0  0  0  0
  -18.9491  -30.1497   23.8857 C   0  0  0  0  0  0
  -17.6484  -30.6595   24.0570 C   0  0  0  0  0  0
  -25.9080  -34.9404   23.5032 C   0  0  0  0  0  0
  -16.5383  -29.9089   23.6327 C   0  0  0  0  0  0
  -16.7312  -28.6520   23.0323 C   0  0  0  0  0  0
  -26.4518  -31.6546   25.0663 C   0  0  0  0  0  0
  -25.3677  -31.3778   26.1328 C   0  0  0  0  0  0
  -27.0370  -30.2931   24.6277 C   0  0  0  0  0  0
  -27.6031  -32.4325   25.7450 C   0  0  0  0  0  0
  -27.5561  -37.1785   24.8459 C   0  0  0  0  0  0
  -21.4314  -29.3070   22.3588 N   0  0  0  0  0  0
  -26.4247  -37.3737   23.9428 N   0  0  0  0  0  0
  -24.7318  -31.0182   22.0777 N   0  0  0  0  0  0
  -23.4249  -28.8061   23.2971 O   0  0  0  0  0  0
  -28.3169  -26.0651   20.2480 O   0  0  0  0  0  0
  -26.5674  -34.8933   22.4610 O   0  0  0  0  0  0
  -23.5612  -32.1197   23.6985 O   0  0  0  0  0  0
  -28.0858  -23.1942   19.6691 C   0  0  0  0  0  0
  -29.4045  -23.5928   21.1294 C   0  0  0  0  0  0
  -31.2409  -18.0828   21.8700 C   0  0  0  0  0  0
  -29.6445  -16.3230   22.3954 C   0  0  0  0  0  0
  -28.7075  -22.1708   20.7739 C   0  0  2  0  0  0
  -28.1755  -24.5135   20.6145 C   0  0  1  0  0  0
  -30.2259  -17.8816   20.7270 C   0  0  2  0  0  0
  -30.7767  -17.1706   23.0267 C   0  0  0  0  0  0
  -30.2650  -17.9695   24.2422 C   0  0  0  0  0  0
  -31.9500  -16.2875   23.5049 C   0  0  0  0  0  0
  -29.1563  -19.2681   20.7611 C   0  0  0  0  0  0
  -29.8794  -16.3042   20.9447 N   0  0  0  0  0  0
  -29.5648  -20.8158   20.4637 N   0  3  0  0  0  0
  -31.4833  -12.8373   19.2607 H   0  0  0  0  0  0
  -30.4384  -11.7483   20.1021 H   0  0  0  0  0  0
  -29.8878  -11.7602   17.6478 H   0  0  0  0  0  0
  -29.6149  -13.4886   17.7024 H   0  0  0  0  0  0
  -28.0212  -11.2844   19.0365 H   0  0  0  0  0  0
  -27.4144  -12.4032   17.8406 H   0  0  0  0  0  0
  -27.5802  -14.2549   19.3930 H   0  0  0  0  0  0
  -28.7603  -12.3887   21.5101 H   0  0  0  0  0  0
  -28.2712  -14.0475   21.7309 H   0  0  0  0  0  0
  -25.2836   -9.5719   22.4655 H   0  0  0  0  0  0
  -24.0104   -7.4636   22.7424 H   0  0  0  0  0  0
  -21.0863   -8.8722   19.8922 H   0  0  0  0  0  0
  -22.3707  -10.9658   19.6127 H   0  0  0  0  0  0
  -21.1919   -7.6100   23.9680 H   0  0  0  0  0  0
  -21.1571   -6.0491   25.9082 H   0  0  0  0  0  0
  -22.0567   -2.7563   23.2801 H   0  0  0  0  0  0
  -22.4157  -11.9946   22.4921 H   0  0  0  0  0  0
  -21.1046  -13.1171   22.2605 H   0  0  0  0  0  0
  -24.6597  -15.8588   20.5302 H   0  0  0  0  0  0
  -26.2792  -15.6269   20.0995 H   0  0  0  0  0  0
  -26.7335  -32.5268   23.0928 H   0  0  0  0  0  0
  -25.0128  -33.9580   25.0295 H   0  0  0  0  0  0
  -22.7656  -31.2719   21.3537 H   0  0  0  0  0  0
  -23.3764  -35.9581   23.3236 H   0  0  0  0  0  0
  -24.3557  -36.8926   22.2052 H   0  0  0  0  0  0
  -23.7251  -37.6441   23.6708 H   0  0  0  0  0  0
  -26.1689  -31.4261   20.5884 H   0  0  0  0  0  0
  -26.8913  -30.7595   22.0149 H   0  0  0  0  0  0
  -28.1544  -28.7616   21.2437 H   0  0  0  0  0  0
  -25.9602  -25.7649   19.0675 H   0  0  0  0  0  0
  -24.0214  -27.2473   18.9860 H   0  0  0  0  0  0
  -23.8489  -30.5245   19.3808 H   0  0  0  0  0  0
  -22.8115  -29.2040   19.8395 H   0  0  0  0  0  0
  -25.1322  -36.1770   25.0795 H   0  0  0  0  0  0
  -21.0049  -28.3331   24.1364 H   0  0  0  0  0  0
  -20.5731  -26.2388   23.3643 H   0  0  0  0  0  0
  -21.6664  -26.7444   22.1195 H   0  0  0  0  0  0
  -19.6925  -25.6275   21.1292 H   0  0  0  0  0  0
  -19.6671  -27.3188   20.6776 H   0  0  0  0  0  0
  -17.4223  -26.6705   21.4035 H   0  0  0  0  0  0
  -18.0302  -26.0086   22.9050 H   0  0  0  0  0  0
  -19.7965  -30.7332   24.2165 H   0  0  0  0  0  0
  -17.5037  -31.6253   24.5204 H   0  0  0  0  0  0
  -15.5379  -30.2978   23.7667 H   0  0  0  0  0  0
  -15.8714  -28.0856   22.6999 H   0  0  0  0  0  0
  -24.5881  -30.7090   25.7636 H   0  0  0  0  0  0
  -24.8834  -32.2990   26.4608 H   0  0  0  0  0  0
  -25.7899  -30.9029   27.0189 H   0  0  0  0  0  0
  -26.2989  -29.6643   24.1272 H   0  0  0  0  0  0
  -27.3951  -29.7217   25.4844 H   0  0  0  0  0  0
  -27.8900  -30.4128   23.9592 H   0  0  0  0  0  0
  -27.2617  -33.3657   26.1933 H   0  0  0  0  0  0
  -28.3881  -32.6811   25.0304 H   0  0  0  0  0  0
  -28.0662  -31.8502   26.5422 H   0  0  0  0  0  0
  -28.2563  -38.0096   24.7509 H   0  0  0  0  0  0
  -28.1056  -36.2621   24.6250 H   0  0  0  0  0  0
  -27.2281  -37.1395   25.8860 H   0  0  0  0  0  0
  -20.9543  -29.8795   21.6770 H   0  0  0  0  0  0
  -26.0089  -38.2787   24.1436 H   0  0  0  0  0  0
  -27.0639  -22.9417   19.3775 H   0  0  0  0  0  0
  -28.7032  -23.2814   18.7757 H   0  0  0  0  0  0
  -30.3178  -23.7733   20.5505 H   0  0  0  0  0  0
  -29.6343  -23.7250   22.1835 H   0  0  0  0  0  0
  -31.3384  -19.1250   22.1797 H   0  0  0  0  0  0
  -32.2304  -17.7761   21.5275 H   0  0  0  0  0  0
  -28.6675  -16.7773   22.5598 H   0  0  0  0  0  0
  -29.5981  -15.3361   22.8648 H   0  0  0  0  0  0
  -27.9718  -21.9422   21.5445 H   0  0  0  0  0  0
  -27.3820  -24.4667   21.3640 H   0  0  0  0  0  0
  -30.7526  -17.9386   19.7726 H   0  0  0  0  0  0
  -29.4569  -18.6496   23.9734 H   0  0  0  0  0  0
  -31.0607  -18.5689   24.6839 H   0  0  0  0  0  0
  -29.8890  -17.3026   25.0214 H   0  0  0  0  0  0
  -32.2859  -15.5837   22.7492 H   0  0  0  0  0  0
  -31.6838  -15.7099   24.3928 H   0  0  0  0  0  0
  -32.8119  -16.9011   23.7683 H   0  0  0  0  0  0
  -28.7289  -19.2922   21.7643 H   0  0  0  0  0  0
  -28.3150  -19.0606   20.1063 H   0  0  0  0  0  0
  -30.4141  -20.9375   20.9900 H   0  0  0  0  0  0
  -29.8598  -20.8504   19.5018 H   0  0  0  0  0  0
  1 25  1  0  0  0
  1 30  2  0  0  0
  1 82  1  0  0  0
  2  3  1  0  0  0
  2 25  1  0  0  0
  2 84  1  0  0  0
  2 85  1  0  0  0
  3  4  1  0  0  0
  3 86  1  0  0  0
  3 87  1  0  0  0
  4  5  1  0  0  0
  4 88  1  0  0  0
  4 89  1  0  0  0
  5  6  1  0  0  0
  5 26  1  0  0  0
  5 90  1  0  0  0
  6 25  1  0  0  0
  6 91  1  0  0  0
  6 92  1  0  0  0
  7  8  2  0  0  0
  7 26  1  0  0  0
  7 29  1  0  0  0
  8  9  1  0  0  0
  8 22  1  0  0  0
  9 10  1  0  0  0
  9 27  2  0  0  0
 10 11  2  0  0  0
 10 15  1  0  0  0
 11 12  1  0  0  0
 11 93  1  0  0  0
 12 13  2  0  0  0
 12 94  1  0  0  0
 13 14  1  0  0  0
 13 31  1  0  0  0
 14 15  2  0  0  0
 14 95  1  0  0  0
 15 96  1  0  0  0
 16 17  2  0  0  0
 16 21  1  0  0  0
 16 31  1  0  0  0
 17 18  1  0  0  0
 17 97  1  0  0  0
 18 19  2  0  0  0
 18 98  1  0  0  0
 19 20  1  0  0  0
 19 24  1  0  0  0
 20 21  2  0  0  0
 20 99  1  0  0  0
 21 23  1  0  0  0
 22 28  1  0  0  0
 22 32  2  0  0  0
 26 27  1  0  0  0
 28100  1  0  0  0
 28101  1  0  0  0
 29102  1  0  0  0
 29103  1  0  0  0
 33 34  1  0  0  0
 33 66  1  0  0  0
 33 70  2  0  0  0
 34 36  1  0  0  0
 34 59  1  0  0  0
 34104  1  0  0  0
 35 44  2  0  0  0
 35 45  1  0  0  0
 35 68  1  0  0  0
 36 56  1  0  0  0
 36105  1  0  0  0
 37 39  1  0  0  0
 37 47  1  0  0  0
 37 66  1  0  0  0
 37106  1  0  0  0
 38 43  2  0  0  0
 38 46  1  0  0  0
 38 47  1  0  0  0
 39 64  1  0  0  0
 39 67  2  0  0  0
 40 52  1  0  0  0
 40 53  2  0  0  0
 40 58  1  0  0  0
 41107  1  0  0  0
 41108  1  0  0  0
 41109  1  0  0  0
 41 48  1  0  0  0
 42 43  1  0  0  0
 42 66  1  0  0  0
 42110  1  0  0  0
 42111  1  0  0  0
 43 44  1  0  0  0
 44112  1  0  0  0
 45 46  2  0  0  0
 45113  1  0  0  0
 46114  1  0  0  0
 47115  1  0  0  0
 47116  1  0  0  0
 48 56  1  0  0  0
 48 65  1  0  0  0
 48117  1  0  0  0
 49 50  1  0  0  0
 49 53  1  0  0  0
 49 64  1  0  0  0
 49118  1  0  0  0
 50 51  1  0  0  0
 50119  1  0  0  0
 50120  1  0  0  0
 51 52  1  0  0  0
 51121  1  0  0  0
 51122  1  0  0  0
 52123  1  0  0  0
 52124  1  0  0  0
 53 54  1  0  0  0
 54 55  2  0  0  0
 54125  1  0  0  0
 55 57  1  0  0  0
 55126  1  0  0  0
 56 69  2  0  0  0
 57 58  2  0  0  0
 57127  1  0  0  0
 58128  1  0  0  0
 59 60  1  0  0  0
 59 61  1  0  0  0
 59 62  1  0  0  0
 60129  1  0  0  0
 60130  1  0  0  0
 60131  1  0  0  0
 61132  1  0  0  0
 61133  1  0  0  0
 61134  1  0  0  0
 62135  1  0  0  0
 62136  1  0  0  0
 62137  1  0  0  0
 63 65  1  0  0  0
 63138  1  0  0  0
 63139  1  0  0  0
 63140  1  0  0  0
 64141  1  0  0  0
 65142  1  0  0  0
 68 76  1  0  0  0
 71 75  1  0  0  0
 71 76  1  0  0  0
 71143  1  0  0  0
 71144  1  0  0  0
 72 75  1  0  0  0
 72 76  1  0  0  0
 72145  1  0  0  0
 72146  1  0  0  0
 73 77  1  0  0  0
 73 78  1  0  0  0
 73147  1  0  0  0
 73148  1  0  0  0
 74 78  1  0  0  0
 74 82  1  0  0  0
 74149  1  0  0  0
 74150  1  0  0  0
 75 83  1  0  0  0
 75151  1  0  0  0
 76152  1  0  0  0
 77 81  1  0  0  0
 77 82  1  0  0  0
 77153  1  0  0  0
 78 79  1  0  0  0
 78 80  1  0  0  0
 79154  1  0  0  0
 79155  1  0  0  0
 79156  1  0  0  0
 80157  1  0  0  0
 80158  1  0  0  0
 80159  1  0  0  0
 81 83  1  0  0  0
 81160  1  0  0  0
 81161  1  0  0  0
 83162  1  0  0  0
 83163  1  0  0  0
M  CHG  1  83   1
M  ISO  4   1 100  68 101  76 101  82 100
M  END
> <chiral flag>
0

> <version>
0

> <s_m_source_file>
/data/baiqing/PycharmProjects/Reinvent-master-3.2/result/LINK_invent/BTK/process_docking_weight1_custom_sum_contain_oxygen_bond_distance_aromatic_linkinvent_7_9_3/rearranged_h_0178.sdf

> <i_m_source_file_index>
25

> <r_mmod_Potential_Energy-OPLS-2005>
895.018371582031

> <r_mmod_Stretch_Energy-OPLS-2005>
386.515594482422

> <r_mmod_Bend_Energy-OPLS-2005>
432.728210449219

> <r_mmod_Torsional_Energy-OPLS-2005>
378.127532958984

> <r_mmod_Improper_Torsional_Energy-OPLS-2005>
7.95591068267822

> <r_mmod_Van_der_Waal_Energy-OPLS-2005>
110.948348999023

> <r_mmod_Electrostatic_Energy-OPLS-2005>
-223.440124511719

> <r_mmod_Solvation_Energy-OPLS-2005>
-470.357482910156

> <b_mmod_Minimization_Converged-OPLS-2005>
0

> <r_mmod_RMS_Derivative-OPLS-2005>
5.76681184768677

$$$$
25
                    3D
 Structure written by MMmdl.
157166  0  0  1  0            999 V2000
  -30.5860  -14.8760   20.4525 C   0  0  0  0  0  0
  -30.4339  -12.5454   19.4902 C   0  0  0  0  0  0
  -29.5162  -12.5241   18.2480 C   0  0  0  0  0  0
  -28.0465  -12.3262   18.6627 C   0  0  0  0  0  0
  -27.6330  -13.2457   19.8423 C   0  0  2  0  0  0
  -28.6767  -13.2465   20.9796 C   0  0  0  0  0  0
  -25.2471  -13.8217   20.5707 C   0  0  0  0  0  0
  -24.1782  -13.0441   20.9222 C   0  0  0  0  0  0
  -24.6391  -11.6925   20.8751 C   0  0  0  0  0  0
  -23.9072  -10.4294   21.0403 C   0  0  0  0  0  0
  -24.3623   -9.4208   21.9178 C   0  0  0  0  0  0
  -23.6298   -8.2244   22.0751 C   0  0  0  0  0  0
  -22.4279   -8.0279   21.3539 C   0  0  0  0  0  0
  -21.9914   -9.0254   20.4639 C   0  0  0  0  0  0
  -22.7246  -10.2133   20.3048 C   0  0  0  0  0  0
  -21.6857   -6.0731   22.5275 C   0  0  0  0  0  0
  -21.4016   -6.5634   23.8209 C   0  0  0  0  0  0
  -21.3662   -5.6787   24.9171 C   0  0  0  0  0  0
  -21.6047   -4.3052   24.7225 C   0  0  0  0  0  0
  -21.8820   -3.8141   23.4347 C   0  0  0  0  0  0
  -21.9195   -4.6956   22.3401 C   0  0  0  0  0  0
  -22.7799  -13.5210   21.1881 C   0  0  0  0  0  0
  -22.1662   -4.2142   21.0979 F   0  0  0  0  0  0
  -21.5633   -3.4536   25.7738 F   0  0  0  0  0  0
  -29.9598  -13.6382   20.3832 N   0  0  0  0  0  0
  -26.2901  -12.9449   20.3259 N   0  0  0  0  0  0
  -25.9324  -11.6575   20.5743 N   0  0  0  0  0  0
  -22.0450  -12.8191   22.0433 N   0  0  0  0  0  0
  -25.4145  -15.1944   20.4117 N   0  0  0  0  0  0
  -31.7825  -14.9296   20.1559 O   0  0  0  0  0  0
  -21.6644   -6.8874   21.4237 O   0  0  0  0  0  0
  -22.3476  -14.5511   20.6725 O   0  0  0  0  0  0
  -24.6415  -31.8491   23.1929 C   0  0  0  0  0  0
  -25.9199  -32.4719   23.8310 C   0  0  1  0  0  0
  -27.2073  -27.1597   20.1380 C   0  0  0  0  0  0
  -25.5959  -33.8528   24.2225 N   0  0  0  0  0  0
  -23.4429  -30.4743   21.5375 C   0  0  2  0  0  0
  -24.8906  -28.9148   20.1080 C   0  0  0  0  0  0
  -22.7566  -29.4587   22.4852 C   0  0  0  0  0  0
  -18.0311  -28.1398   22.8493 C   0  0  0  0  0  0
  -24.1484  -36.7257   23.2638 C   0  0  0  0  0  0
  -26.0006  -30.7283   21.3920 C   0  0  0  0  0  0
  -26.0697  -29.3439   20.7312 C   0  0  0  0  0  0
  -27.2292  -28.4810   20.7364 C   0  0  0  0  0  0
  -26.0045  -26.8471   19.4563 C   0  0  0  0  0  0
  -24.8698  -27.6777   19.4566 C   0  0  0  0  0  0
  -23.6685  -29.8144   20.1534 C   0  0  0  0  0  0
  -25.4115  -36.3049   24.0322 C   0  0  1  0  0  0
  -20.5931  -28.3725   23.1236 C   0  0  2  0  0  0
  -20.6795  -26.9428   22.5397 C   0  0  0  0  0  0
  -19.5762  -26.6387   21.5210 C   0  0  0  0  0  0
  -18.1947  -26.7941   22.1627 C   0  0  0  0  0  0
  -19.1571  -28.8882   23.2862 C   0  0  0  0  0  0
  -18.9481  -30.1482   23.8881 C   0  0  0  0  0  0
  -17.6477  -30.6597   24.0571 C   0  0  0  0  0  0
  -25.9069  -34.9421   23.5078 C   0  0  0  0  0  0
  -16.5375  -29.9090   23.6340 C   0  0  0  0  0  0
  -16.7296  -28.6510   23.0369 C   0  0  0  0  0  0
  -26.4521  -31.6578   25.0737 C   0  0  0  0  0  0
  -25.3716  -31.3762   26.1438 C   0  0  0  0  0  0
  -27.0369  -30.2972   24.6299 C   0  0  0  0  0  0
  -27.6060  -32.4323   25.7522 C   0  0  0  0  0  0
  -27.5569  -37.1801   24.8470 C   0  0  0  0  0  0
  -21.4260  -29.3067   22.3614 N   0  0  0  0  0  0
  -26.4279  -37.3760   23.9412 N   0  0  0  0  0  0
  -24.7140  -31.0387   22.0947 N   0  0  0  0  0  0
  -23.4230  -28.8123   23.2975 O   0  0  0  0  0  0
  -28.2306  -26.1451   20.2306 O   0  0  0  0  0  0
  -26.5640  -34.8912   22.4644 O   0  0  0  0  0  0
  -23.5536  -32.1346   23.7176 O   0  0  0  0  0  0
  -29.3531  -22.8711   21.3208 C   0  0  0  0  0  0
  -29.7069  -21.4919   21.5677 C   0  0  0  0  0  0
  -28.2380  -22.0913   19.4052 C   0  0  0  0  0  0
  -28.5596  -23.2484   20.2023 C   0  0  0  0  0  0
  -29.3006  -20.3882   20.7394 C   0  0  0  0  0  0
  -29.4379  -18.8783   21.2992 C   0  0  0  0  0  0
  -30.7317  -17.3726   22.4581 C   0  0  0  0  0  0
  -29.8391  -17.9848   23.2379 C   0  0  0  0  0  0
  -30.3664  -17.5216   21.0001 C   0  0  1  0  0  0
  -31.9414  -16.5839   22.9278 C   0  0  0  0  0  0
  -29.8248  -18.0258   24.7509 C   0  0  0  0  0  0
  -27.8313  -24.6882   19.9074 C   0  0  0  0  0  0
  -28.5660  -20.7578   19.6427 N   0  0  0  0  0  0
  -28.9958  -18.7794   22.4929 N   0  0  0  0  0  0
  -29.8602  -16.0644   20.6912 N   0  0  0  0  0  0
  -31.4714  -12.6851   19.1819 H   0  0  0  0  0  0
  -30.4062  -11.5861   20.0098 H   0  0  0  0  0  0
  -29.8225  -11.7323   17.5628 H   0  0  0  0  0  0
  -29.6208  -13.4626   17.7006 H   0  0  0  0  0  0
  -27.9242  -11.2812   18.9490 H   0  0  0  0  0  0
  -27.3869  -12.4863   17.8090 H   0  0  0  0  0  0
  -27.6060  -14.2558   19.4319 H   0  0  0  0  0  0
  -28.7479  -12.2635   21.4479 H   0  0  0  0  0  0
  -28.3880  -13.9446   21.7671 H   0  0  0  0  0  0
  -25.2765   -9.5688   22.4751 H   0  0  0  0  0  0
  -24.0008   -7.4635   22.7469 H   0  0  0  0  0  0
  -21.0847   -8.8767   19.8942 H   0  0  0  0  0  0
  -22.3699  -10.9667   19.6155 H   0  0  0  0  0  0
  -21.2004   -7.6142   23.9709 H   0  0  0  0  0  0
  -21.1486   -6.0518   25.9074 H   0  0  0  0  0  0
  -22.0597   -2.7604   23.2849 H   0  0  0  0  0  0
  -22.4083  -11.9858   22.4820 H   0  0  0  0  0  0
  -21.1057  -13.1193   22.2629 H   0  0  0  0  0  0
  -24.6452  -15.8462   20.5205 H   0  0  0  0  0  0
  -26.2550  -15.6332   20.0596 H   0  0  0  0  0  0
  -26.7276  -32.5336   23.1055 H   0  0  0  0  0  0
  -25.0128  -33.9649   25.0386 H   0  0  0  0  0  0
  -22.7435  -31.2996   21.3902 H   0  0  0  0  0  0
  -23.3746  -35.9589   23.3298 H   0  0  0  0  0  0
  -24.3565  -36.8877   22.2051 H   0  0  0  0  0  0
  -23.7240  -37.6454   23.6667 H   0  0  0  0  0  0
  -26.1601  -31.4844   20.6219 H   0  0  0  0  0  0
  -26.8702  -30.7725   22.0361 H   0  0  0  0  0  0
  -28.1211  -28.8011   21.2573 H   0  0  0  0  0  0
  -25.8792  -25.9169   18.9268 H   0  0  0  0  0  0
  -23.9734  -27.3471   18.9492 H   0  0  0  0  0  0
  -23.8062  -30.5923   19.4017 H   0  0  0  0  0  0
  -22.7833  -29.2593   19.8378 H   0  0  0  0  0  0
  -25.1305  -36.1875   25.0814 H   0  0  0  0  0  0
  -21.0040  -28.3302   24.1352 H   0  0  0  0  0  0
  -20.5672  -26.2348   23.3623 H   0  0  0  0  0  0
  -21.6665  -26.7425   22.1212 H   0  0  0  0  0  0
  -19.6906  -25.6286   21.1260 H   0  0  0  0  0  0
  -19.6685  -27.3186   20.6730 H   0  0  0  0  0  0
  -17.4217  -26.6708   21.4026 H   0  0  0  0  0  0
  -18.0343  -26.0074   22.9015 H   0  0  0  0  0  0
  -19.7951  -30.7320   24.2229 H   0  0  0  0  0  0
  -17.5021  -31.6270   24.5184 H   0  0  0  0  0  0
  -15.5369  -30.2994   23.7654 H   0  0  0  0  0  0
  -15.8702  -28.0817   22.7094 H   0  0  0  0  0  0
  -24.5934  -30.7051   25.7782 H   0  0  0  0  0  0
  -24.8856  -32.2939   26.4761 H   0  0  0  0  0  0
  -25.8019  -30.9033   27.0279 H   0  0  0  0  0  0
  -26.2977  -29.6719   24.1280 H   0  0  0  0  0  0
  -27.3951  -29.7244   25.4861 H   0  0  0  0  0  0
  -27.8911  -30.4197   23.9640 H   0  0  0  0  0  0
  -27.2669  -33.3648   26.2044 H   0  0  0  0  0  0
  -28.3919  -32.6832   25.0389 H   0  0  0  0  0  0
  -28.0680  -31.8477   26.5490 H   0  0  0  0  0  0
  -28.2608  -38.0079   24.7500 H   0  0  0  0  0  0
  -28.1046  -36.2610   24.6320 H   0  0  0  0  0  0
  -27.2289  -37.1483   25.8876 H   0  0  0  0  0  0
  -20.9448  -29.8787   21.6815 H   0  0  0  0  0  0
  -26.0137  -38.2824   24.1404 H   0  0  0  0  0  0
  -29.6440  -23.6239   22.0397 H   0  0  0  0  0  0
  -30.2451  -21.2662   22.4787 H   0  0  0  0  0  0
  -27.6059  -22.2318   18.5399 H   0  0  0  0  0  0
  -31.2382  -17.7885   20.4015 H   0  0  0  0  0  0
  -32.2184  -16.8672   23.9436 H   0  0  0  0  0  0
  -32.7957  -16.7822   22.2802 H   0  0  0  0  0  0
  -31.7415  -15.5133   22.9273 H   0  0  0  0  0  0
  -29.9880  -17.0302   25.1645 H   0  0  0  0  0  0
  -28.8674  -18.3940   25.1223 H   0  0  0  0  0  0
  -30.6113  -18.6857   25.1179 H   0  0  0  0  0  0
  -26.8578  -24.5378   20.3768 H   0  0  0  0  0  0
  -27.6545  -24.6730   18.8315 H   0  0  0  0  0  0
  -28.8696  -15.9363   20.8294 H   0  0  0  0  0  0
  1 25  1  0  0  0
  1 30  2  0  0  0
  1 85  1  0  0  0
  2  3  1  0  0  0
  2 25  1  0  0  0
  2 86  1  0  0  0
  2 87  1  0  0  0
  3  4  1  0  0  0
  3 88  1  0  0  0
  3 89  1  0  0  0
  4  5  1  0  0  0
  4 90  1  0  0  0
  4 91  1  0  0  0
  5  6  1  0  0  0
  5 26  1  0  0  0
  5 92  1  0  0  0
  6 25  1  0  0  0
  6 93  1  0  0  0
  6 94  1  0  0  0
  7  8  2  0  0  0
  7 26  1  0  0  0
  7 29  1  0  0  0
  8  9  1  0  0  0
  8 22  1  0  0  0
  9 10  1  0  0  0
  9 27  2  0  0  0
 10 11  2  0  0  0
 10 15  1  0  0  0
 11 12  1  0  0  0
 11 95  1  0  0  0
 12 13  2  0  0  0
 12 96  1  0  0  0
 13 14  1  0  0  0
 13 31  1  0  0  0
 14 15  2  0  0  0
 14 97  1  0  0  0
 15 98  1  0  0  0
 16 17  2  0  0  0
 16 21  1  0  0  0
 16 31  1  0  0  0
 17 18  1  0  0  0
 17 99  1  0  0  0
 18 19  2  0  0  0
 18100  1  0  0  0
 19 20  1  0  0  0
 19 24  1  0  0  0
 20 21  2  0  0  0
 20101  1  0  0  0
 21 23  1  0  0  0
 22 28  1  0  0  0
 22 32  2  0  0  0
 26 27  1  0  0  0
 28102  1  0  0  0
 28103  1  0  0  0
 29104  1  0  0  0
 29105  1  0  0  0
 33 34  1  0  0  0
 33 66  1  0  0  0
 33 70  2  0  0  0
 34 36  1  0  0  0
 34 59  1  0  0  0
 34106  1  0  0  0
 35 44  2  0  0  0
 35 45  1  0  0  0
 35 68  1  0  0  0
 36 56  1  0  0  0
 36107  1  0  0  0
 37 39  1  0  0  0
 37 47  1  0  0  0
 37 66  1  0  0  0
 37108  1  0  0  0
 38 43  2  0  0  0
 38 46  1  0  0  0
 38 47  1  0  0  0
 39 64  1  0  0  0
 39 67  2  0  0  0
 40 52  1  0  0  0
 40 53  2  0  0  0
 40 58  1  0  0  0
 41109  1  0  0  0
 41110  1  0  0  0
 41111  1  0  0  0
 41 48  1  0  0  0
 42 43  1  0  0  0
 42 66  1  0  0  0
 42112  1  0  0  0
 42113  1  0  0  0
 43 44  1  0  0  0
 44114  1  0  0  0
 45 46  2  0  0  0
 45115  1  0  0  0
 46116  1  0  0  0
 47117  1  0  0  0
 47118  1  0  0  0
 48 56  1  0  0  0
 48 65  1  0  0  0
 48119  1  0  0  0
 49 50  1  0  0  0
 49 53  1  0  0  0
 49 64  1  0  0  0
 49120  1  0  0  0
 50 51  1  0  0  0
 50121  1  0  0  0
 50122  1  0  0  0
 51 52  1  0  0  0
 51123  1  0  0  0
 51124  1  0  0  0
 52125  1  0  0  0
 52126  1  0  0  0
 53 54  1  0  0  0
 54 55  2  0  0  0
 54127  1  0  0  0
 55 57  1  0  0  0
 55128  1  0  0  0
 56 69  2  0  0  0
 57 58  2  0  0  0
 57129  1  0  0  0
 58130  1  0  0  0
 59 60  1  0  0  0
 59 61  1  0  0  0
 59 62  1  0  0  0
 60131  1  0  0  0
 60132  1  0  0  0
 60133  1  0  0  0
 61134  1  0  0  0
 61135  1  0  0  0
 61136  1  0  0  0
 62137  1  0  0  0
 62138  1  0  0  0
 62139  1  0  0  0
 63 65  1  0  0  0
 63140  1  0  0  0
 63141  1  0  0  0
 63142  1  0  0  0
 64143  1  0  0  0
 65144  1  0  0  0
 68 82  1  0  0  0
 71 72  2  0  0  0
 71 74  1  0  0  0
 71145  1  0  0  0
 72 75  1  0  0  0
 72146  1  0  0  0
 73 74  2  0  0  0
 73 83  1  0  0  0
 73147  1  0  0  0
 74 82  1  0  0  0
 75 76  1  0  0  0
 75 83  2  0  0  0
 76 79  1  0  0  0
 76 84  2  0  0  0
 77 78  2  0  0  0
 77 79  1  0  0  0
 77 80  1  0  0  0
 78 81  1  0  0  0
 78 84  1  0  0  0
 79 85  1  0  0  0
 79148  1  0  0  0
 80149  1  0  0  0
 80150  1  0  0  0
 80151  1  0  0  0
 81152  1  0  0  0
 81153  1  0  0  0
 81154  1  0  0  0
 82155  1  0  0  0
 82156  1  0  0  0
 85157  1  0  0  0
M  ISO  4   1 100  68 101  82 101  85 100
M  END
> <chiral flag>
0

> <version>
0

> <s_m_source_file>
/data/baiqing/PycharmProjects/Reinvent-master-3.2/result/LINK_invent/BTK/process_docking_weight1_custom_sum_contain_oxygen_bond_distance_aromatic_linkinvent_7_9_3/rearranged_h_0178.sdf

> <i_m_source_file_index>
26

> <r_mmod_Potential_Energy-OPLS-2005>
427.269866943359

> <r_mmod_Stretch_Energy-OPLS-2005>
218.982879638672

> <r_mmod_Bend_Energy-OPLS-2005>
351.148803710938

> <r_mmod_Torsional_Energy-OPLS-2005>
266.398223876953

> <r_mmod_Improper_Torsional_Energy-OPLS-2005>
20.7373943328857

> <r_mmod_Van_der_Waal_Energy-OPLS-2005>
141.566528320312

> <r_mmod_Electrostatic_Energy-OPLS-2005>
-519.327026367188

> <r_mmod_Solvation_Energy-OPLS-2005>
-215.489974975586

> <b_mmod_Minimization_Converged-OPLS-2005>
0

> <r_mmod_RMS_Derivative-OPLS-2005>
1.4494343996048

$$$$
26
                    3D
 Structure written by MMmdl.
160169  0  0  1  0            999 V2000
  -30.7073  -14.5904   20.4925 C   0  0  0  0  0  0
  -30.4158  -12.3651   19.4517 C   0  0  0  0  0  0
  -29.4983  -12.4927   18.2194 C   0  0  0  0  0  0
  -28.0224  -12.3448   18.6353 C   0  0  0  0  0  0
  -27.6482  -13.2283   19.8565 C   0  0  2  0  0  0
  -28.6959  -13.1252   20.9874 C   0  0  0  0  0  0
  -25.2544  -13.8202   20.5710 C   0  0  0  0  0  0
  -24.1817  -13.0449   20.9190 C   0  0  0  0  0  0
  -24.6399  -11.6925   20.8735 C   0  0  0  0  0  0
  -23.9070  -10.4299   21.0397 C   0  0  0  0  0  0
  -24.3618   -9.4213   21.9174 C   0  0  0  0  0  0
  -23.6296   -8.2248   22.0750 C   0  0  0  0  0  0
  -22.4277   -8.0281   21.3544 C   0  0  0  0  0  0
  -21.9911   -9.0256   20.4647 C   0  0  0  0  0  0
  -22.7240  -10.2135   20.3051 C   0  0  0  0  0  0
  -21.6855   -6.0732   22.5276 C   0  0  0  0  0  0
  -21.4016   -6.5635   23.8210 C   0  0  0  0  0  0
  -21.3662   -5.6788   24.9172 C   0  0  0  0  0  0
  -21.6046   -4.3050   24.7222 C   0  0  0  0  0  0
  -21.8819   -3.8144   23.4341 C   0  0  0  0  0  0
  -21.9194   -4.6961   22.3398 C   0  0  0  0  0  0
  -22.7836  -13.5232   21.1848 C   0  0  0  0  0  0
  -22.1664   -4.2148   21.0976 F   0  0  0  0  0  0
  -21.5630   -3.4534   25.7734 F   0  0  0  0  0  0
  -30.0104  -13.4168   20.4038 N   0  0  0  0  0  0
  -26.2979  -12.9407   20.3329 N   0  0  0  0  0  0
  -25.9334  -11.6548   20.5764 N   0  0  0  0  0  0
  -22.0480  -12.8227   22.0405 N   0  0  0  0  0  0
  -25.4260  -15.1923   20.4158 N   0  0  0  0  0  0
  -31.8974  -14.6471   20.1695 O   0  0  0  0  0  0
  -21.6642   -6.8877   21.4240 O   0  0  0  0  0  0
  -22.3519  -14.5534   20.6689 O   0  0  0  0  0  0
  -24.6250  -31.8636   23.2086 C   0  0  0  0  0  0
  -25.9111  -32.4796   23.8392 C   0  0  1  0  0  0
  -27.2080  -27.3350   20.1020 C   0  0  0  0  0  0
  -25.5936  -33.8597   24.2307 N   0  0  0  0  0  0
  -23.4159  -30.4939   21.5519 C   0  0  2  0  0  0
  -24.8581  -28.9652   20.1081 C   0  0  0  0  0  0
  -22.7468  -29.4649   22.4945 C   0  0  0  0  0  0
  -18.0284  -28.1383   22.8483 C   0  0  0  0  0  0
  -24.1490  -36.7302   23.2635 C   0  0  0  0  0  0
  -25.9598  -30.7985   21.3808 C   0  0  0  0  0  0
  -26.0306  -29.4316   20.7163 C   0  0  0  0  0  0
  -27.2097  -28.6278   20.7086 C   0  0  0  0  0  0
  -26.0097  -26.9376   19.4542 C   0  0  0  0  0  0
  -24.8491  -27.7223   19.4688 C   0  0  0  0  0  0
  -23.6275  -29.8424   20.1630 C   0  0  0  0  0  0
  -25.4110  -36.3094   24.0333 C   0  0  1  0  0  0
  -20.5885  -28.3686   23.1282 C   0  0  2  0  0  0
  -20.6773  -26.9412   22.5406 C   0  0  0  0  0  0
  -19.5750  -26.6386   21.5207 C   0  0  0  0  0  0
  -18.1931  -26.7927   22.1621 C   0  0  0  0  0  0
  -19.1538  -28.8851   23.2879 C   0  0  0  0  0  0
  -18.9462  -30.1453   23.8892 C   0  0  0  0  0  0
  -17.6463  -30.6585   24.0564 C   0  0  0  0  0  0
  -25.9051  -34.9462   23.5116 C   0  0  0  0  0  0
  -16.5353  -29.9086   23.6331 C   0  0  0  0  0  0
  -16.7273  -28.6503   23.0346 C   0  0  0  0  0  0
  -26.4496  -31.6592   25.0750 C   0  0  0  0  0  0
  -25.3734  -31.3735   26.1481 C   0  0  0  0  0  0
  -27.0328  -30.3010   24.6204 C   0  0  0  0  0  0
  -27.6064  -32.4319   25.7514 C   0  0  0  0  0  0
  -27.5587  -37.1797   24.8455 C   0  0  0  0  0  0
  -21.4184  -29.3047   22.3682 N   0  0  0  0  0  0
  -26.4287  -37.3790   23.9422 N   0  0  0  0  0  0
  -24.6859  -31.0672   22.1033 N   0  0  0  0  0  0
  -23.4204  -28.8167   23.2999 O   0  0  0  0  0  0
  -28.2998  -26.4520   20.1712 O   0  0  0  0  0  0
  -26.5612  -34.8922   22.4678 O   0  0  0  0  0  0
  -23.5419  -32.1429   23.7422 O   0  0  0  0  0  0
  -28.4026  -22.5300   20.4809 C   0  0  0  0  0  0
  -28.9069  -23.8487   20.3095 C   0  0  0  0  0  0
  -29.3050  -21.4528   20.5957 C   0  0  0  0  0  0
  -31.0202  -22.9680   20.4013 C   0  0  0  0  0  0
  -29.0094  -17.8892   19.5843 C   0  0  0  0  0  0
  -29.7325  -18.0293   21.9081 C   0  0  0  0  0  0
  -29.7976  -16.5517   19.4284 C   0  0  0  0  0  0
  -30.5050  -16.6775   21.7389 C   0  0  0  0  0  0
  -29.6387  -18.8633   20.6069 C   0  0  0  0  0  0
  -32.5142  -23.2010   20.3413 C   0  0  0  0  0  0
  -27.9377  -25.0276   20.0075 C   0  0  0  0  0  0
  -30.2402  -24.0460   20.2758 N   0  0  0  0  0  0
  -30.6232  -21.6991   20.5519 N   0  0  0  0  0  0
  -30.0116  -15.7655   20.6728 N   0  0  0  0  0  0
  -28.8469  -20.1164   20.7576 N   0  0  0  0  0  0
  -31.4622  -12.4468   19.1514 H   0  0  0  0  0  0
  -30.3137  -11.3804   19.9109 H   0  0  0  0  0  0
  -29.7556  -11.7358   17.4774 H   0  0  0  0  0  0
  -29.6525  -13.4594   17.7370 H   0  0  0  0  0  0
  -27.8555  -11.2940   18.8747 H   0  0  0  0  0  0
  -27.3681  -12.5704   17.7925 H   0  0  0  0  0  0
  -27.6549  -14.2581   19.5001 H   0  0  0  0  0  0
  -28.6941  -12.1299   21.4333 H   0  0  0  0  0  0
  -28.4611  -13.8248   21.7913 H   0  0  0  0  0  0
  -25.2765   -9.5692   22.4744 H   0  0  0  0  0  0
  -24.0010   -7.4639   22.7466 H   0  0  0  0  0  0
  -21.0844   -8.8773   19.8955 H   0  0  0  0  0  0
  -22.3696  -10.9669   19.6159 H   0  0  0  0  0  0
  -21.2011   -7.6142   23.9713 H   0  0  0  0  0  0
  -21.1486   -6.0516   25.9076 H   0  0  0  0  0  0
  -22.0596   -2.7607   23.2836 H   0  0  0  0  0  0
  -22.4104  -11.9901   22.4814 H   0  0  0  0  0  0
  -21.1095  -13.1252   22.2598 H   0  0  0  0  0  0
  -24.6654  -15.8520   20.5378 H   0  0  0  0  0  0
  -26.2931  -15.6324   20.1347 H   0  0  0  0  0  0
  -26.7178  -32.5468   23.1141 H   0  0  0  0  0  0
  -25.0079  -33.9750   25.0447 H   0  0  0  0  0  0
  -22.7083  -31.3148   21.4168 H   0  0  0  0  0  0
  -23.3759  -35.9626   23.3273 H   0  0  0  0  0  0
  -24.3592  -36.8947   22.2055 H   0  0  0  0  0  0
  -23.7228  -37.6493   23.6668 H   0  0  0  0  0  0
  -26.0950  -31.5664   20.6177 H   0  0  0  0  0  0
  -26.8395  -30.8386   22.0118 H   0  0  0  0  0  0
  -28.1040  -28.9770   21.2055 H   0  0  0  0  0  0
  -25.9109  -25.9996   18.9316 H   0  0  0  0  0  0
  -23.9534  -27.3628   18.9810 H   0  0  0  0  0  0
  -23.7454  -30.6247   19.4123 H   0  0  0  0  0  0
  -22.7469  -29.2741   19.8578 H   0  0  0  0  0  0
  -25.1284  -36.1947   25.0823 H   0  0  0  0  0  0
  -20.9976  -28.3258   24.1404 H   0  0  0  0  0  0
  -20.5674  -26.2299   23.3604 H   0  0  0  0  0  0
  -21.6642  -26.7443   22.1201 H   0  0  0  0  0  0
  -19.6913  -25.6298   21.1238 H   0  0  0  0  0  0
  -19.6690  -27.3196   20.6737 H   0  0  0  0  0  0
  -17.4201  -26.6668   21.4024 H   0  0  0  0  0  0
  -18.0337  -26.0070   22.9019 H   0  0  0  0  0  0
  -19.7940  -30.7268   24.2258 H   0  0  0  0  0  0
  -17.5021  -31.6264   24.5170 H   0  0  0  0  0  0
  -15.5354  -30.2986   23.7661 H   0  0  0  0  0  0
  -15.8672  -28.0829   22.7055 H   0  0  0  0  0  0
  -24.5912  -30.7073   25.7821 H   0  0  0  0  0  0
  -24.8920  -32.2900   26.4898 H   0  0  0  0  0  0
  -25.8065  -30.8926   27.0260 H   0  0  0  0  0  0
  -26.2897  -29.6769   24.1222 H   0  0  0  0  0  0
  -27.4008  -29.7260   25.4714 H   0  0  0  0  0  0
  -27.8785  -30.4284   23.9439 H   0  0  0  0  0  0
  -27.2682  -33.3619   26.2096 H   0  0  0  0  0  0
  -28.3871  -32.6875   25.0336 H   0  0  0  0  0  0
  -28.0734  -31.8437   26.5425 H   0  0  0  0  0  0
  -28.2573  -38.0126   24.7551 H   0  0  0  0  0  0
  -28.1114  -36.2660   24.6208 H   0  0  0  0  0  0
  -27.2319  -37.1362   25.8859 H   0  0  0  0  0  0
  -20.9352  -29.8792   21.6918 H   0  0  0  0  0  0
  -26.0167  -38.2860   24.1450 H   0  0  0  0  0  0
  -27.3341  -22.3618   20.4866 H   0  0  0  0  0  0
  -27.9819  -17.6600   19.8718 H   0  0  0  0  0  0
  -28.9459  -18.3756   18.6099 H   0  0  0  0  0  0
  -30.2206  -18.6219   22.6829 H   0  0  0  0  0  0
  -28.7302  -17.8150   22.2824 H   0  0  0  0  0  0
  -30.7688  -16.7800   18.9835 H   0  0  0  0  0  0
  -29.2792  -15.9262   18.6999 H   0  0  0  0  0  0
  -30.4864  -16.1420   22.6898 H   0  0  0  0  0  0
  -31.5554  -16.9070   21.5469 H   0  0  0  0  0  0
  -30.6467  -19.1179   20.2745 H   0  0  0  0  0  0
  -32.7539  -24.2646   20.3208 H   0  0  0  0  0  0
  -32.9313  -22.7438   19.4442 H   0  0  0  0  0  0
  -33.0059  -22.7625   21.2095 H   0  0  0  0  0  0
  -27.0485  -24.8232   20.6072 H   0  0  0  0  0  0
  -27.6721  -24.8696   18.9622 H   0  0  0  0  0  0
  -27.8406  -20.0030   20.8037 H   0  0  0  0  0  0
  1 25  1  0  0  0
  1 30  2  0  0  0
  1 84  1  0  0  0
  2  3  1  0  0  0
  2 25  1  0  0  0
  2 86  1  0  0  0
  2 87  1  0  0  0
  3  4  1  0  0  0
  3 88  1  0  0  0
  3 89  1  0  0  0
  4  5  1  0  0  0
  4 90  1  0  0  0
  4 91  1  0  0  0
  5  6  1  0  0  0
  5 26  1  0  0  0
  5 92  1  0  0  0
  6 25  1  0  0  0
  6 93  1  0  0  0
  6 94  1  0  0  0
  7  8  2  0  0  0
  7 26  1  0  0  0
  7 29  1  0  0  0
  8  9  1  0  0  0
  8 22  1  0  0  0
  9 10  1  0  0  0
  9 27  2  0  0  0
 10 11  2  0  0  0
 10 15  1  0  0  0
 11 12  1  0  0  0
 11 95  1  0  0  0
 12 13  2  0  0  0
 12 96  1  0  0  0
 13 14  1  0  0  0
 13 31  1  0  0  0
 14 15  2  0  0  0
 14 97  1  0  0  0
 15 98  1  0  0  0
 16 17  2  0  0  0
 16 21  1  0  0  0
 16 31  1  0  0  0
 17 18  1  0  0  0
 17 99  1  0  0  0
 18 19  2  0  0  0
 18100  1  0  0  0
 19 20  1  0  0  0
 19 24  1  0  0  0
 20 21  2  0  0  0
 20101  1  0  0  0
 21 23  1  0  0  0
 22 28  1  0  0  0
 22 32  2  0  0  0
 26 27  1  0  0  0
 28102  1  0  0  0
 28103  1  0  0  0
 29104  1  0  0  0
 29105  1  0  0  0
 33 34  1  0  0  0
 33 66  1  0  0  0
 33 70  2  0  0  0
 34 36  1  0  0  0
 34 59  1  0  0  0
 34106  1  0  0  0
 35 44  2  0  0  0
 35 45  1  0  0  0
 35 68  1  0  0  0
 36 56  1  0  0  0
 36107  1  0  0  0
 37 39  1  0  0  0
 37 47  1  0  0  0
 37 66  1  0  0  0
 37108  1  0  0  0
 38 43  2  0  0  0
 38 46  1  0  0  0
 38 47  1  0  0  0
 39 64  1  0  0  0
 39 67  2  0  0  0
 40 52  1  0  0  0
 40 53  2  0  0  0
 40 58  1  0  0  0
 41109  1  0  0  0
 41110  1  0  0  0
 41111  1  0  0  0
 41 48  1  0  0  0
 42 43  1  0  0  0
 42 66  1  0  0  0
 42112  1  0  0  0
 42113  1  0  0  0
 43 44  1  0  0  0
 44114  1  0  0  0
 45 46  2  0  0  0
 45115  1  0  0  0
 46116  1  0  0  0
 47117  1  0  0  0
 47118  1  0  0  0
 48 56  1  0  0  0
 48 65  1  0  0  0
 48119  1  0  0  0
 49 50  1  0  0  0
 49 53  1  0  0  0
 49 64  1  0  0  0
 49120  1  0  0  0
 50 51  1  0  0  0
 50121  1  0  0  0
 50122  1  0  0  0
 51 52  1  0  0  0
 51123  1  0  0  0
 51124  1  0  0  0
 52125  1  0  0  0
 52126  1  0  0  0
 53 54  1  0  0  0
 54 55  2  0  0  0
 54127  1  0  0  0
 55 57  1  0  0  0
 55128  1  0  0  0
 56 69  2  0  0  0
 57 58  2  0  0  0
 57129  1  0  0  0
 58130  1  0  0  0
 59 60  1  0  0  0
 59 61  1  0  0  0
 59 62  1  0  0  0
 60131  1  0  0  0
 60132  1  0  0  0
 60133  1  0  0  0
 61134  1  0  0  0
 61135  1  0  0  0
 61136  1  0  0  0
 62137  1  0  0  0
 62138  1  0  0  0
 62139  1  0  0  0
 63 65  1  0  0  0
 63140  1  0  0  0
 63141  1  0  0  0
 63142  1  0  0  0
 64143  1  0  0  0
 65144  1  0  0  0
 68 81  1  0  0  0
 71 72  2  0  0  0
 71 73  1  0  0  0
 71145  1  0  0  0
 72 81  1  0  0  0
 72 82  1  0  0  0
 73 83  2  0  0  0
 73 85  1  0  0  0
 74 80  1  0  0  0
 74 82  2  0  0  0
 74 83  1  0  0  0
 75 77  1  0  0  0
 75 79  1  0  0  0
 75146  1  0  0  0
 75147  1  0  0  0
 76 78  1  0  0  0
 76 79  1  0  0  0
 76148  1  0  0  0
 76149  1  0  0  0
 77 84  1  0  0  0
 77150  1  0  0  0
 77151  1  0  0  0
 78 84  1  0  0  0
 78152  1  0  0  0
 78153  1  0  0  0
 79 85  1  0  0  0
 79154  1  0  0  0
 80155  1  0  0  0
 80156  1  0  0  0
 80157  1  0  0  0
 81158  1  0  0  0
 81159  1  0  0  0
 85160  1  0  0  0
M  ISO  4   1 100  68 101  81 101  84 100
M  END
> <chiral flag>
0

> <version>
0

> <s_m_source_file>
/data/baiqing/PycharmProjects/Reinvent-master-3.2/result/LINK_invent/BTK/process_docking_weight1_custom_sum_contain_oxygen_bond_distance_aromatic_linkinvent_7_9_3/rearranged_h_0178.sdf

> <i_m_source_file_index>
27

> <r_mmod_Potential_Energy-OPLS-2005>
-256.155792236328

> <r_mmod_Stretch_Energy-OPLS-2005>
63.375415802002

> <r_mmod_Bend_Energy-OPLS-2005>
159.10676574707

> <r_mmod_Torsional_Energy-OPLS-2005>
313.891723632812

> <r_mmod_Improper_Torsional_Energy-OPLS-2005>
12.20325756073

> <r_mmod_Van_der_Waal_Energy-OPLS-2005>
166.311233520508

> <r_mmod_Electrostatic_Energy-OPLS-2005>
-783.007019042969

> <r_mmod_Solvation_Energy-OPLS-2005>
-235.70149230957

> <b_mmod_Minimization_Converged-OPLS-2005>
0

> <r_mmod_RMS_Derivative-OPLS-2005>
0.668723821640015

$$$$
27
                    3D
 Structure written by MMmdl.
162171  0  0  1  0            999 V2000
  -30.5966  -14.9688   20.4178 C   0  0  0  0  0  0
  -30.4192  -12.6121   19.4935 C   0  0  0  0  0  0
  -29.5093  -12.5281   18.2498 C   0  0  0  0  0  0
  -28.0463  -12.3149   18.6743 C   0  0  0  0  0  0
  -27.6197  -13.2608   19.8283 C   0  0  2  0  0  0
  -28.6642  -13.3373   20.9612 C   0  0  0  0  0  0
  -25.2419  -13.8239   20.5726 C   0  0  0  0  0  0
  -24.1749  -13.0444   20.9239 C   0  0  0  0  0  0
  -24.6387  -11.6940   20.8761 C   0  0  0  0  0  0
  -23.9081  -10.4298   21.0406 C   0  0  0  0  0  0
  -24.3627   -9.4214   21.9185 C   0  0  0  0  0  0
  -23.6300   -8.2250   22.0760 C   0  0  0  0  0  0
  -22.4281   -8.0282   21.3548 C   0  0  0  0  0  0
  -21.9920   -9.0256   20.4646 C   0  0  0  0  0  0
  -22.7254  -10.2134   20.3055 C   0  0  0  0  0  0
  -21.6853   -6.0737   22.5282 C   0  0  0  0  0  0
  -21.4012   -6.5641   23.8215 C   0  0  0  0  0  0
  -21.3657   -5.6790   24.9175 C   0  0  0  0  0  0
  -21.6040   -4.3052   24.7226 C   0  0  0  0  0  0
  -21.8816   -3.8149   23.4345 C   0  0  0  0  0  0
  -21.9192   -4.6964   22.3402 C   0  0  0  0  0  0
  -22.7773  -13.5210   21.1885 C   0  0  0  0  0  0
  -22.1660   -4.2155   21.0976 F   0  0  0  0  0  0
  -21.5628   -3.4533   25.7737 F   0  0  0  0  0  0
  -29.9266  -13.7450   20.3365 N   0  0  0  0  0  0
  -26.2846  -12.9502   20.3240 N   0  0  0  0  0  0
  -25.9323  -11.6619   20.5749 N   0  0  0  0  0  0
  -22.0419  -12.8186   22.0427 N   0  0  0  0  0  0
  -25.4076  -15.1965   20.4145 N   0  0  0  0  0  0
  -31.8094  -14.9228   20.1876 O   0  0  0  0  0  0
  -21.6639   -6.8882   21.4243 O   0  0  0  0  0  0
  -22.3458  -14.5510   20.6726 O   0  0  0  0  0  0
  -24.6490  -31.8413   23.1872 C   0  0  0  0  0  0
  -25.9244  -32.4679   23.8268 C   0  0  1  0  0  0
  -27.2033  -27.0938   20.1491 C   0  0  0  0  0  0
  -25.5979  -33.8484   24.2185 N   0  0  0  0  0  0
  -23.4535  -30.4631   21.5342 C   0  0  2  0  0  0
  -24.9013  -28.8916   20.1073 C   0  0  0  0  0  0
  -22.7604  -29.4540   22.4853 C   0  0  0  0  0  0
  -18.0314  -28.1414   22.8468 C   0  0  0  0  0  0
  -24.1483  -36.7234   23.2641 C   0  0  0  0  0  0
  -26.0146  -30.7009   21.3939 C   0  0  0  0  0  0
  -26.0823  -29.3101   20.7332 C   0  0  0  0  0  0
  -27.2339  -28.4271   20.7407 C   0  0  0  0  0  0
  -25.9984  -26.8028   19.4663 C   0  0  0  0  0  0
  -24.8749  -27.6527   19.4574 C   0  0  0  0  0  0
  -23.6813  -29.7982   20.1521 C   0  0  0  0  0  0
  -25.4115  -36.3016   24.0322 C   0  0  1  0  0  0
  -20.5931  -28.3739   23.1231 C   0  0  2  0  0  0
  -20.6801  -26.9439   22.5411 C   0  0  0  0  0  0
  -19.5784  -26.6396   21.5215 C   0  0  0  0  0  0
  -18.1950  -26.7958   22.1597 C   0  0  0  0  0  0
  -19.1570  -28.8892   23.2838 C   0  0  0  0  0  0
  -18.9488  -30.1485   23.8872 C   0  0  0  0  0  0
  -17.6485  -30.6600   24.0566 C   0  0  0  0  0  0
  -25.9084  -34.9396   23.5060 C   0  0  0  0  0  0
  -16.5376  -29.9096   23.6344 C   0  0  0  0  0  0
  -16.7300  -28.6518   23.0356 C   0  0  0  0  0  0
  -26.4544  -31.6560   25.0731 C   0  0  0  0  0  0
  -25.3713  -31.3746   26.1417 C   0  0  0  0  0  0
  -27.0421  -30.2951   24.6341 C   0  0  0  0  0  0
  -27.6064  -32.4344   25.7518 C   0  0  0  0  0  0
  -27.5580  -37.1764   24.8455 C   0  0  0  0  0  0
  -21.4292  -29.3050   22.3600 N   0  0  0  0  0  0
  -26.4262  -37.3748   23.9437 N   0  0  0  0  0  0
  -24.7260  -31.0242   22.0923 N   0  0  0  0  0  0
  -23.4226  -28.8083   23.3015 O   0  0  0  0  0  0
  -28.2076  -26.0433   20.2449 O   0  0  0  0  0  0
  -26.5664  -34.8901   22.4639 O   0  0  0  0  0  0
  -23.5603  -32.1313   23.7066 O   0  0  0  0  0  0
  -28.2268  -22.2846   21.4126 C   0  0  0  0  0  0
  -28.5427  -20.8666   21.5681 C   0  0  0  0  0  0
  -28.5135  -23.0718   20.2480 C   0  0  0  0  0  0
  -29.1822  -20.0898   20.5323 C   0  0  0  0  0  0
  -29.1572  -22.2131   19.2777 C   0  0  0  0  0  0
  -28.8243  -17.0930   20.8405 C   0  0  0  0  0  0
  -30.5111  -17.5553   19.7189 C   0  0  0  0  0  0
  -29.6300  -18.4719   20.6582 C   0  0  0  0  0  0
  -29.5147  -22.7830   17.9188 C   0  0  0  0  0  0
  -26.6150  -20.1276   23.0390 C   0  0  0  0  0  0
  -28.8153  -20.8388   24.0971 C   0  0  0  0  0  0
  -27.8050  -24.5571   19.9370 C   0  0  0  0  0  0
  -28.1414  -20.1872   22.8791 C   0  0  0  0  0  0
  -29.4662  -20.8489   19.4152 N   0  0  0  0  0  0
  -29.9750  -16.2623   20.3079 N   0  0  0  0  0  0
  -31.4542  -12.7443   19.1752 H   0  0  0  0  0  0
  -30.4004  -11.6742   20.0517 H   0  0  0  0  0  0
  -29.8324  -11.7199   17.5919 H   0  0  0  0  0  0
  -29.5940  -13.4494   17.6706 H   0  0  0  0  0  0
  -27.9482  -11.2772   18.9944 H   0  0  0  0  0  0
  -27.3806  -12.4326   17.8182 H   0  0  0  0  0  0
  -27.5686  -14.2544   19.3810 H   0  0  0  0  0  0
  -28.7624  -12.3804   21.4756 H   0  0  0  0  0  0
  -28.3626  -14.0712   21.7100 H   0  0  0  0  0  0
  -25.2765   -9.5692   22.4768 H   0  0  0  0  0  0
  -24.0002   -7.4646   22.7487 H   0  0  0  0  0  0
  -21.0851   -8.8775   19.8955 H   0  0  0  0  0  0
  -22.3708  -10.9670   19.6166 H   0  0  0  0  0  0
  -21.1998   -7.6147   23.9723 H   0  0  0  0  0  0
  -21.1478   -6.0515   25.9078 H   0  0  0  0  0  0
  -22.0590   -2.7611   23.2841 H   0  0  0  0  0  0
  -22.4039  -11.9846   22.4816 H   0  0  0  0  0  0
  -21.1025  -13.1200   22.2614 H   0  0  0  0  0  0
  -24.6363  -15.8469   20.5164 H   0  0  0  0  0  0
  -26.2519  -15.6318   20.0684 H   0  0  0  0  0  0
  -26.7316  -32.5264   23.0996 H   0  0  0  0  0  0
  -25.0130  -33.9596   25.0339 H   0  0  0  0  0  0
  -22.7572  -31.2902   21.3800 H   0  0  0  0  0  0
  -23.3776  -35.9529   23.3241 H   0  0  0  0  0  0
  -24.3579  -36.8935   22.2067 H   0  0  0  0  0  0
  -23.7193  -37.6392   23.6722 H   0  0  0  0  0  0
  -26.1774  -31.4525   20.6204 H   0  0  0  0  0  0
  -26.8830  -30.7491   22.0390 H   0  0  0  0  0  0
  -28.1259  -28.7375   21.2656 H   0  0  0  0  0  0
  -25.8645  -25.8650   18.9503 H   0  0  0  0  0  0
  -23.9757  -27.3302   18.9507 H   0  0  0  0  0  0
  -23.8234  -30.5755   19.4002 H   0  0  0  0  0  0
  -22.7941  -29.2458   19.8371 H   0  0  0  0  0  0
  -25.1293  -36.1825   25.0809 H   0  0  0  0  0  0
  -21.0011  -28.3338   24.1358 H   0  0  0  0  0  0
  -20.5698  -26.2359   23.3637 H   0  0  0  0  0  0
  -21.6671  -26.7446   22.1215 H   0  0  0  0  0  0
  -19.6953  -25.6302   21.1257 H   0  0  0  0  0  0
  -19.6737  -27.3195   20.6737 H   0  0  0  0  0  0
  -17.4240  -26.6739   21.3969 H   0  0  0  0  0  0
  -18.0309  -26.0091   22.8977 H   0  0  0  0  0  0
  -19.7966  -30.7305   24.2237 H   0  0  0  0  0  0
  -17.5041  -31.6273   24.5183 H   0  0  0  0  0  0
  -15.5380  -30.2985   23.7699 H   0  0  0  0  0  0
  -15.8698  -28.0833   22.7086 H   0  0  0  0  0  0
  -24.6014  -30.6932   25.7787 H   0  0  0  0  0  0
  -24.8745  -32.2895   26.4651 H   0  0  0  0  0  0
  -25.8017  -30.9129   27.0313 H   0  0  0  0  0  0
  -26.3058  -29.6668   24.1323 H   0  0  0  0  0  0
  -27.4002  -29.7262   25.4932 H   0  0  0  0  0  0
  -27.8972  -30.4193   23.9695 H   0  0  0  0  0  0
  -27.2679  -33.3727   26.1929 H   0  0  0  0  0  0
  -28.3956  -32.6768   25.0388 H   0  0  0  0  0  0
  -28.0629  -31.8566   26.5568 H   0  0  0  0  0  0
  -28.2534  -38.0122   24.7577 H   0  0  0  0  0  0
  -28.1138  -36.2659   24.6168 H   0  0  0  0  0  0
  -27.2321  -37.1279   25.8859 H   0  0  0  0  0  0
  -20.9535  -29.8762   21.6755 H   0  0  0  0  0  0
  -26.0119  -38.2800   24.1491 H   0  0  0  0  0  0
  -27.6810  -22.7735   22.2066 H   0  0  0  0  0  0
  -27.9416  -17.0456   20.2019 H   0  0  0  0  0  0
  -28.5509  -16.8867   21.8759 H   0  0  0  0  0  0
  -31.5825  -17.7114   19.8520 H   0  0  0  0  0  0
  -30.2480  -17.6755   18.6667 H   0  0  0  0  0  0
  -30.2393  -18.5405   21.5608 H   0  0  0  0  0  0
  -30.0169  -23.7446   18.0277 H   0  0  0  0  0  0
  -28.6170  -22.9288   17.3180 H   0  0  0  0  0  0
  -30.1837  -22.1204   17.3682 H   0  0  0  0  0  0
  -26.1483  -19.6379   22.1834 H   0  0  0  0  0  0
  -26.1718  -21.1187   23.1369 H   0  0  0  0  0  0
  -26.3395  -19.5578   23.9271 H   0  0  0  0  0  0
  -29.9014  -20.8236   24.0003 H   0  0  0  0  0  0
  -28.5650  -20.3016   25.0127 H   0  0  0  0  0  0
  -28.5082  -21.8755   24.2356 H   0  0  0  0  0  0
  -26.8270  -24.4350   20.4038 H   0  0  0  0  0  0
  -27.6077  -24.5393   18.8659 H   0  0  0  0  0  0
  -28.4825  -19.1545   22.8673 H   0  0  0  0  0  0
  1 25  1  0  0  0
  1 30  2  0  0  0
  1 85  1  0  0  0
  2  3  1  0  0  0
  2 25  1  0  0  0
  2 86  1  0  0  0
  2 87  1  0  0  0
  3  4  1  0  0  0
  3 88  1  0  0  0
  3 89  1  0  0  0
  4  5  1  0  0  0
  4 90  1  0  0  0
  4 91  1  0  0  0
  5  6  1  0  0  0
  5 26  1  0  0  0
  5 92  1  0  0  0
  6 25  1  0  0  0
  6 93  1  0  0  0
  6 94  1  0  0  0
  7  8  2  0  0  0
  7 26  1  0  0  0
  7 29  1  0  0  0
  8  9  1  0  0  0
  8 22  1  0  0  0
  9 10  1  0  0  0
  9 27  2  0  0  0
 10 11  2  0  0  0
 10 15  1  0  0  0
 11 12  1  0  0  0
 11 95  1  0  0  0
 12 13  2  0  0  0
 12 96  1  0  0  0
 13 14  1  0  0  0
 13 31  1  0  0  0
 14 15  2  0  0  0
 14 97  1  0  0  0
 15 98  1  0  0  0
 16 17  2  0  0  0
 16 21  1  0  0  0
 16 31  1  0  0  0
 17 18  1  0  0  0
 17 99  1  0  0  0
 18 19  2  0  0  0
 18100  1  0  0  0
 19 20  1  0  0  0
 19 24  1  0  0  0
 20 21  2  0  0  0
 20101  1  0  0  0
 21 23  1  0  0  0
 22 28  1  0  0  0
 22 32  2  0  0  0
 26 27  1  0  0  0
 28102  1  0  0  0
 28103  1  0  0  0
 29104  1  0  0  0
 29105  1  0  0  0
 33 34  1  0  0  0
 33 66  1  0  0  0
 33 70  2  0  0  0
 34 36  1  0  0  0
 34 59  1  0  0  0
 34106  1  0  0  0
 35 44  2  0  0  0
 35 45  1  0  0  0
 35 68  1  0  0  0
 36 56  1  0  0  0
 36107  1  0  0  0
 37 39  1  0  0  0
 37 47  1  0  0  0
 37 66  1  0  0  0
 37108  1  0  0  0
 38 43  2  0  0  0
 38 46  1  0  0  0
 38 47  1  0  0  0
 39 64  1  0  0  0
 39 67  2  0  0  0
 40 52  1  0  0  0
 40 53  2  0  0  0
 40 58  1  0  0  0
 41109  1  0  0  0
 41110  1  0  0  0
 41111  1  0  0  0
 41 48  1  0  0  0
 42 43  1  0  0  0
 42 66  1  0  0  0
 42112  1  0  0  0
 42113  1  0  0  0
 43 44  1  0  0  0
 44114  1  0  0  0
 45 46  2  0  0  0
 45115  1  0  0  0
 46116  1  0  0  0
 47117  1  0  0  0
 47118  1  0  0  0
 48 56  1  0  0  0
 48 65  1  0  0  0
 48119  1  0  0  0
 49 50  1  0  0  0
 49 53  1  0  0  0
 49 64  1  0  0  0
 49120  1  0  0  0
 50 51  1  0  0  0
 50121  1  0  0  0
 50122  1  0  0  0
 51 52  1  0  0  0
 51123  1  0  0  0
 51124  1  0  0  0
 52125  1  0  0  0
 52126  1  0  0  0
 53 54  1  0  0  0
 54 55  2  0  0  0
 54127  1  0  0  0
 55 57  1  0  0  0
 55128  1  0  0  0
 56 69  2  0  0  0
 57 58  2  0  0  0
 57129  1  0  0  0
 58130  1  0  0  0
 59 60  1  0  0  0
 59 61  1  0  0  0
 59 62  1  0  0  0
 60131  1  0  0  0
 60132  1  0  0  0
 60133  1  0  0  0
 61134  1  0  0  0
 61135  1  0  0  0
 61136  1  0  0  0
 62137  1  0  0  0
 62138  1  0  0  0
 62139  1  0  0  0
 63 65  1  0  0  0
 63140  1  0  0  0
 63141  1  0  0  0
 63142  1  0  0  0
 64143  1  0  0  0
 65144  1  0  0  0
 68 82  1  0  0  0
 71 72  2  0  0  0
 71 73  1  0  0  0
 71145  1  0  0  0
 72 74  1  0  0  0
 72 83  1  0  0  0
 73 75  2  0  0  0
 73 82  1  0  0  0
 74 84  2  0  0  0
 74 78  1  0  0  0
 75 79  1  0  0  0
 75 84  1  0  0  0
 76 78  1  0  0  0
 76 85  1  0  0  0
 76146  1  0  0  0
 76147  1  0  0  0
 77 78  1  0  0  0
 77 85  1  0  0  0
 77148  1  0  0  0
 77149  1  0  0  0
 78150  1  0  0  0
 79151  1  0  0  0
 79152  1  0  0  0
 79153  1  0  0  0
 80154  1  0  0  0
 80155  1  0  0  0
 80156  1  0  0  0
 80 83  1  0  0  0
 81 83  1  0  0  0
 81157  1  0  0  0
 81158  1  0  0  0
 81159  1  0  0  0
 82160  1  0  0  0
 82161  1  0  0  0
 83162  1  0  0  0
M  ISO  4   1 100  68 101  82 101  85 100
M  END
> <chiral flag>
0

> <version>
0

> <s_m_source_file>
/data/baiqing/PycharmProjects/Reinvent-master-3.2/result/LINK_invent/BTK/process_docking_weight1_custom_sum_contain_oxygen_bond_distance_aromatic_linkinvent_7_9_3/rearranged_h_0178.sdf

> <i_m_source_file_index>
28

> <r_mmod_Potential_Energy-OPLS-2005>
578.624084472656

> <r_mmod_Stretch_Energy-OPLS-2005>
256.405303955078

> <r_mmod_Bend_Energy-OPLS-2005>
332.338714599609

> <r_mmod_Torsional_Energy-OPLS-2005>
279.618591308594

> <r_mmod_Improper_Torsional_Energy-OPLS-2005>
17.9803943634033

> <r_mmod_Van_der_Waal_Energy-OPLS-2005>
134.023880004883

> <r_mmod_Electrostatic_Energy-OPLS-2005>
-447.33544921875

> <r_mmod_Solvation_Energy-OPLS-2005>
-221.952606201172

> <b_mmod_Minimization_Converged-OPLS-2005>
0

> <r_mmod_RMS_Derivative-OPLS-2005>
1.10559260845184

$$$$
28
                    3D
 Structure written by MMmdl.
145153  0  0  1  0            999 V2000
  -30.3405  -15.6167   20.3206 C   0  0  0  0  0  0
  -30.4175  -13.0612   19.5516 C   0  0  0  0  0  0
  -29.5502  -12.6539   18.3268 C   0  0  0  0  0  0
  -28.1201  -12.3023   18.7614 C   0  0  0  0  0  0
  -27.5893  -13.3141   19.8021 C   0  0  2  0  0  0
  -28.5983  -13.6615   20.9197 C   0  0  0  0  0  0
  -25.2288  -13.8290   20.5802 C   0  0  0  0  0  0
  -24.1688  -13.0425   20.9282 C   0  0  0  0  0  0
  -24.6405  -11.6945   20.8743 C   0  0  0  0  0  0
  -23.9119  -10.4287   21.0388 C   0  0  0  0  0  0
  -24.3656   -9.4204   21.9173 C   0  0  0  0  0  0
  -23.6315   -8.2246   22.0750 C   0  0  0  0  0  0
  -22.4291   -8.0286   21.3547 C   0  0  0  0  0  0
  -21.9940   -9.0258   20.4643 C   0  0  0  0  0  0
  -22.7284  -10.2128   20.3045 C   0  0  0  0  0  0
  -21.6857   -6.0739   22.5277 C   0  0  0  0  0  0
  -21.4021   -6.5641   23.8212 C   0  0  0  0  0  0
  -21.3661   -5.6791   24.9173 C   0  0  0  0  0  0
  -21.6043   -4.3054   24.7222 C   0  0  0  0  0  0
  -21.8820   -3.8149   23.4343 C   0  0  0  0  0  0
  -21.9195   -4.6967   22.3400 C   0  0  0  0  0  0
  -22.7704  -13.5151   21.1926 C   0  0  0  0  0  0
  -22.1661   -4.2155   21.0977 F   0  0  0  0  0  0
  -21.5627   -3.4535   25.7734 F   0  0  0  0  0  0
  -29.7912  -14.2597   20.2773 N   0  0  0  0  0  0
  -26.2736  -12.9641   20.3184 N   0  0  0  0  0  0
  -25.9349  -11.6706   20.5655 N   0  0  0  0  0  0
  -22.0372  -12.8132   22.0484 N   0  0  0  0  0  0
  -25.3859  -15.2031   20.4321 N   0  0  0  0  0  0
  -31.5736  -15.4862   20.1921 O   0  0  0  0  0  0
  -21.6646   -6.8887   21.4243 O   0  0  0  0  0  0
  -22.3380  -14.5447   20.6765 O   0  0  0  0  0  0
  -24.6834  -31.8008   23.1523 C   0  0  0  0  0  0
  -25.9420  -32.4470   23.8065 C   0  0  1  0  0  0
  -27.2187  -26.7056   20.2182 C   0  0  0  0  0  0
  -25.6002  -33.8295   24.1956 N   0  0  0  0  0  0
  -23.5083  -30.4037   21.5068 C   0  0  2  0  0  0
  -24.9627  -28.7438   20.1208 C   0  0  0  0  0  0
  -22.7765  -29.4322   22.4721 C   0  0  0  0  0  0
  -18.0341  -28.1419   22.8459 C   0  0  0  0  0  0
  -24.1495  -36.7156   23.2651 C   0  0  0  0  0  0
  -26.0887  -30.5357   21.4145 C   0  0  0  0  0  0
  -26.1530  -29.1005   20.7657 C   0  0  0  0  0  0
  -27.2685  -28.1107   20.7774 C   0  0  0  0  0  0
  -25.9945  -26.5554   19.5193 C   0  0  0  0  0  0
  -24.9220  -27.4968   19.4736 C   0  0  0  0  0  0
  -23.7609  -29.7005   20.1423 C   0  0  0  0  0  0
  -25.4147  -36.2900   24.0281 C   0  0  1  0  0  0
  -20.5974  -28.3778   23.1150 C   0  0  2  0  0  0
  -20.6809  -26.9441   22.5406 C   0  0  0  0  0  0
  -19.5784  -26.6373   21.5220 C   0  0  0  0  0  0
  -18.1966  -26.7949   22.1624 C   0  0  0  0  0  0
  -19.1605  -28.8925   23.2787 C   0  0  0  0  0  0
  -18.9510  -30.1509   23.8830 C   0  0  0  0  0  0
  -17.6501  -30.6604   24.0551 C   0  0  0  0  0  0
  -25.9127  -34.9289   23.4954 C   0  0  0  0  0  0
  -16.5391  -29.9084   23.6353 C   0  0  0  0  0  0
  -16.7321  -28.6506   23.0369 C   0  0  0  0  0  0
  -26.4599  -31.6501   25.0686 C   0  0  0  0  0  0
  -25.3666  -31.3817   26.1301 C   0  0  0  0  0  0
  -27.0526  -30.2839   24.6576 C   0  0  0  0  0  0
  -27.6048  -32.4363   25.7505 C   0  0  0  0  0  0
  -27.5566  -37.1738   24.8468 C   0  0  0  0  0  0
  -21.4413  -29.3031   22.3474 N   0  0  0  0  0  0
  -26.4275  -37.3660   23.9406 N   0  0  0  0  0  0
  -24.7837  -30.9464   22.0768 N   0  0  0  0  0  0
  -23.4216  -28.7923   23.3061 O   0  0  0  0  0  0
  -28.1953  -25.4997   20.2601 O   0  0  0  0  0  0
  -26.5763  -34.8865   22.4568 O   0  0  0  0  0  0
  -23.5856  -32.1077   23.6484 O   0  0  0  0  0  0
  -28.3562  -17.5424   19.9500 C   0  0  0  0  0  0
  -29.6214  -17.1834   20.3319 C   0  0  0  0  0  0
  -27.9781  -19.0758   19.8817 C   0  0  0  0  0  0
  -30.1395  -18.8139   20.5314 C   0  0  0  0  0  0
  -28.9603  -20.1621   20.5020 C   0  0  1  0  0  0
  -28.9887  -22.0850   20.1623 C   0  0  0  0  0  0
  -28.0005  -23.7494   20.3211 C   0  0  0  0  0  0
  -26.9289  -19.4639   19.3646 O   0  0  0  0  0  0
  -31.4207  -13.2950   19.1951 H   0  0  0  0  0  0
  -30.5504  -12.2161   20.2292 H   0  0  0  0  0  0
  -30.0025  -11.8133   17.7996 H   0  0  0  0  0  0
  -29.5225  -13.4830   17.6178 H   0  0  0  0  0  0
  -28.1407  -11.3041   19.2006 H   0  0  0  0  0  0
  -27.4560  -12.2464   17.8977 H   0  0  0  0  0  0
  -27.4481  -14.2315   19.2297 H   0  0  0  0  0  0
  -28.8420  -12.7908   21.5306 H   0  0  0  0  0  0
  -28.1641  -14.3979   21.5977 H   0  0  0  0  0  0
  -25.2795   -9.5678   22.4757 H   0  0  0  0  0  0
  -24.0013   -7.4642   22.7482 H   0  0  0  0  0  0
  -21.0865   -8.8787   19.8955 H   0  0  0  0  0  0
  -22.3742  -10.9666   19.6157 H   0  0  0  0  0  0
  -21.2017   -7.6149   23.9719 H   0  0  0  0  0  0
  -21.1482   -6.0519   25.9077 H   0  0  0  0  0  0
  -22.0597   -2.7611   23.2840 H   0  0  0  0  0  0
  -22.4013  -11.9811   22.4882 H   0  0  0  0  0  0
  -21.0982  -13.1136   22.2682 H   0  0  0  0  0  0
  -24.6162  -15.8509   20.5625 H   0  0  0  0  0  0
  -26.2375  -15.6519   20.1285 H   0  0  0  0  0  0
  -26.7503  -32.4941   23.0781 H   0  0  0  0  0  0
  -25.0067  -33.9336   25.0053 H   0  0  0  0  0  0
  -22.8329  -31.2407   21.3180 H   0  0  0  0  0  0
  -23.3773  -35.9468   23.3268 H   0  0  0  0  0  0
  -24.3562  -36.8862   22.2074 H   0  0  0  0  0  0
  -23.7237  -37.6318   23.6756 H   0  0  0  0  0  0
  -26.2904  -31.2604   20.6250 H   0  0  0  0  0  0
  -26.9406  -30.6036   22.0787 H   0  0  0  0  0  0
  -28.1685  -28.3935   21.3049 H   0  0  0  0  0  0
  -25.8289  -25.6127   19.0169 H   0  0  0  0  0  0
  -24.0235  -27.2158   18.9416 H   0  0  0  0  0  0
  -23.9382  -30.4606   19.3802 H   0  0  0  0  0  0
  -22.8647  -29.1693   19.8172 H   0  0  0  0  0  0
  -25.1355  -36.1665   25.0770 H   0  0  0  0  0  0
  -21.0058  -28.3402   24.1275 H   0  0  0  0  0  0
  -20.5679  -26.2405   23.3665 H   0  0  0  0  0  0
  -21.6670  -26.7392   22.1215 H   0  0  0  0  0  0
  -19.6939  -25.6260   21.1304 H   0  0  0  0  0  0
  -19.6722  -27.3141   20.6715 H   0  0  0  0  0  0
  -17.4234  -26.6691   21.4030 H   0  0  0  0  0  0
  -18.0353  -26.0108   22.9034 H   0  0  0  0  0  0
  -19.7985  -30.7349   24.2165 H   0  0  0  0  0  0
  -17.5049  -31.6275   24.5170 H   0  0  0  0  0  0
  -15.5386  -30.2962   23.7711 H   0  0  0  0  0  0
  -15.8727  -28.0798   22.7117 H   0  0  0  0  0  0
  -24.5872  -30.7148   25.7600 H   0  0  0  0  0  0
  -24.8829  -32.3036   26.4537 H   0  0  0  0  0  0
  -25.7840  -30.9100   27.0204 H   0  0  0  0  0  0
  -26.3236  -29.6460   24.1567 H   0  0  0  0  0  0
  -27.3957  -29.7282   25.5313 H   0  0  0  0  0  0
  -27.9219  -30.3970   24.0096 H   0  0  0  0  0  0
  -27.2588  -33.3733   26.1883 H   0  0  0  0  0  0
  -28.3961  -32.6814   25.0409 H   0  0  0  0  0  0
  -28.0605  -31.8624   26.5585 H   0  0  0  0  0  0
  -28.2555  -38.0060   24.7511 H   0  0  0  0  0  0
  -28.1089  -36.2580   24.6302 H   0  0  0  0  0  0
  -27.2278  -37.1385   25.8870 H   0  0  0  0  0  0
  -20.9716  -29.8685   21.6538 H   0  0  0  0  0  0
  -26.0101  -38.2708   24.1412 H   0  0  0  0  0  0
  -27.6332  -16.8111   19.6289 H   0  0  0  0  0  0
  -30.8812  -18.9966   19.7528 H   0  0  0  0  0  0
  -30.6921  -18.8600   21.4701 H   0  0  0  0  0  0
  -28.6176  -20.1791   21.5366 H   0  0  0  0  0  0
  -29.3114  -22.1197   19.1222 H   0  0  0  0  0  0
  -29.8928  -22.3535   20.7076 H   0  0  0  0  0  0
  -27.5417  -23.6462   21.3049 H   0  0  0  0  0  0
  -27.1634  -23.5972   19.6399 H   0  0  0  0  0  0
  1 25  1  0  0  0
  1 30  2  0  0  0
  1 72  1  0  0  0
  2  3  1  0  0  0
  2 25  1  0  0  0
  2 79  1  0  0  0
  2 80  1  0  0  0
  3  4  1  0  0  0
  3 81  1  0  0  0
  3 82  1  0  0  0
  4  5  1  0  0  0
  4 83  1  0  0  0
  4 84  1  0  0  0
  5  6  1  0  0  0
  5 26  1  0  0  0
  5 85  1  0  0  0
  6 25  1  0  0  0
  6 86  1  0  0  0
  6 87  1  0  0  0
  7  8  2  0  0  0
  7 26  1  0  0  0
  7 29  1  0  0  0
  8  9  1  0  0  0
  8 22  1  0  0  0
  9 10  1  0  0  0
  9 27  2  0  0  0
 10 11  2  0  0  0
 10 15  1  0  0  0
 11 12  1  0  0  0
 11 88  1  0  0  0
 12 13  2  0  0  0
 12 89  1  0  0  0
 13 14  1  0  0  0
 13 31  1  0  0  0
 14 15  2  0  0  0
 14 90  1  0  0  0
 15 91  1  0  0  0
 16 17  2  0  0  0
 16 21  1  0  0  0
 16 31  1  0  0  0
 17 18  1  0  0  0
 17 92  1  0  0  0
 18 19  2  0  0  0
 18 93  1  0  0  0
 19 20  1  0  0  0
 19 24  1  0  0  0
 20 21  2  0  0  0
 20 94  1  0  0  0
 21 23  1  0  0  0
 22 28  1  0  0  0
 22 32  2  0  0  0
 26 27  1  0  0  0
 28 95  1  0  0  0
 28 96  1  0  0  0
 29 97  1  0  0  0
 29 98  1  0  0  0
 33 34  1  0  0  0
 33 66  1  0  0  0
 33 70  2  0  0  0
 34 36  1  0  0  0
 34 59  1  0  0  0
 34 99  1  0  0  0
 35 44  2  0  0  0
 35 45  1  0  0  0
 35 68  1  0  0  0
 36 56  1  0  0  0
 36100  1  0  0  0
 37 39  1  0  0  0
 37 47  1  0  0  0
 37 66  1  0  0  0
 37101  1  0  0  0
 38 43  2  0  0  0
 38 46  1  0  0  0
 38 47  1  0  0  0
 39 64  1  0  0  0
 39 67  2  0  0  0
 40 52  1  0  0  0
 40 53  2  0  0  0
 40 58  1  0  0  0
 41102  1  0  0  0
 41103  1  0  0  0
 41104  1  0  0  0
 41 48  1  0  0  0
 42 43  1  0  0  0
 42 66  1  0  0  0
 42105  1  0  0  0
 42106  1  0  0  0
 43 44  1  0  0  0
 44107  1  0  0  0
 45 46  2  0  0  0
 45108  1  0  0  0
 46109  1  0  0  0
 47110  1  0  0  0
 47111  1  0  0  0
 48 56  1  0  0  0
 48 65  1  0  0  0
 48112  1  0  0  0
 49 50  1  0  0  0
 49 53  1  0  0  0
 49 64  1  0  0  0
 49113  1  0  0  0
 50 51  1  0  0  0
 50114  1  0  0  0
 50115  1  0  0  0
 51 52  1  0  0  0
 51116  1  0  0  0
 51117  1  0  0  0
 52118  1  0  0  0
 52119  1  0  0  0
 53 54  1  0  0  0
 54 55  2  0  0  0
 54120  1  0  0  0
 55 57  1  0  0  0
 55121  1  0  0  0
 56 69  2  0  0  0
 57 58  2  0  0  0
 57122  1  0  0  0
 58123  1  0  0  0
 59 60  1  0  0  0
 59 61  1  0  0  0
 59 62  1  0  0  0
 60124  1  0  0  0
 60125  1  0  0  0
 60126  1  0  0  0
 61127  1  0  0  0
 61128  1  0  0  0
 61129  1  0  0  0
 62130  1  0  0  0
 62131  1  0  0  0
 62132  1  0  0  0
 63 65  1  0  0  0
 63133  1  0  0  0
 63134  1  0  0  0
 63135  1  0  0  0
 64136  1  0  0  0
 65137  1  0  0  0
 68 77  1  0  0  0
 71 72  2  0  0  0
 71 73  1  0  0  0
 71138  1  0  0  0
 72 74  1  0  0  0
 73 75  1  0  0  0
 73 78  2  0  0  0
 74 75  1  0  0  0
 74139  1  0  0  0
 74140  1  0  0  0
 75 76  1  0  0  0
 75141  1  0  0  0
 76 77  1  0  0  0
 76142  1  0  0  0
 76143  1  0  0  0
 77144  1  0  0  0
 77145  1  0  0  0
M  ISO  4   1 100  68 101  72 100  77 101
M  END
> <chiral flag>
0

> <version>
0

> <s_m_source_file>
/data/baiqing/PycharmProjects/Reinvent-master-3.2/result/LINK_invent/BTK/process_docking_weight1_custom_sum_contain_oxygen_bond_distance_aromatic_linkinvent_7_9_3/rearranged_h_0178.sdf

> <i_m_source_file_index>
29

> <r_mmod_Potential_Energy-OPLS-2005>
2403.77954101562

> <r_mmod_Stretch_Energy-OPLS-2005>
1056.36950683594

> <r_mmod_Bend_Energy-OPLS-2005>
731.974060058594

> <r_mmod_Torsional_Energy-OPLS-2005>
191.185562133789

> <r_mmod_Improper_Torsional_Energy-OPLS-2005>
3.58215522766113

> <r_mmod_Van_der_Waal_Energy-OPLS-2005>
103.720176696777

> <r_mmod_Electrostatic_Energy-OPLS-2005>
-344.074951171875

> <r_mmod_Solvation_Energy-OPLS-2005>
-208.174545288086

> <b_mmod_Minimization_Converged-OPLS-2005>
0

> <r_mmod_RMS_Derivative-OPLS-2005>
0.788161277770996

$$$$
29
                    3D
 Structure written by MMmdl.
156165  0  0  1  0            999 V2000
  -30.5819  -14.8767   20.4275 C   0  0  0  0  0  0
  -30.4300  -12.5398   19.4911 C   0  0  0  0  0  0
  -29.5129  -12.5121   18.2486 C   0  0  0  0  0  0
  -28.0443  -12.3144   18.6684 C   0  0  0  0  0  0
  -27.6295  -13.2443   19.8389 C   0  0  2  0  0  0
  -28.6730  -13.2572   20.9752 C   0  0  0  0  0  0
  -25.2461  -13.8216   20.5709 C   0  0  0  0  0  0
  -24.1776  -13.0443   20.9237 C   0  0  0  0  0  0
  -24.6389  -11.6926   20.8772 C   0  0  0  0  0  0
  -23.9080  -10.4293   21.0424 C   0  0  0  0  0  0
  -24.3629   -9.4203   21.9196 C   0  0  0  0  0  0
  -23.6300   -8.2240   22.0757 C   0  0  0  0  0  0
  -22.4282   -8.0285   21.3545 C   0  0  0  0  0  0
  -21.9925   -9.0260   20.4649 C   0  0  0  0  0  0
  -22.7258  -10.2138   20.3064 C   0  0  0  0  0  0
  -21.6854   -6.0740   22.5280 C   0  0  0  0  0  0
  -21.4010   -6.5643   23.8213 C   0  0  0  0  0  0
  -21.3654   -5.6794   24.9174 C   0  0  0  0  0  0
  -21.6043   -4.3060   24.7225 C   0  0  0  0  0  0
  -21.8821   -3.8152   23.4347 C   0  0  0  0  0  0
  -21.9191   -4.6968   22.3401 C   0  0  0  0  0  0
  -22.7796  -13.5215   21.1893 C   0  0  0  0  0  0
  -22.1663   -4.2156   21.0977 F   0  0  0  0  0  0
  -21.5627   -3.4539   25.7736 F   0  0  0  0  0  0
  -29.9542  -13.6402   20.3724 N   0  0  0  0  0  0
  -26.2881  -12.9442   20.3260 N   0  0  0  0  0  0
  -25.9321  -11.6576   20.5771 N   0  0  0  0  0  0
  -22.0447  -12.8191   22.0441 N   0  0  0  0  0  0
  -25.4140  -15.1935   20.4085 N   0  0  0  0  0  0
  -31.7890  -14.9171   20.1731 O   0  0  0  0  0  0
  -21.6642   -6.8885   21.4244 O   0  0  0  0  0  0
  -22.3480  -14.5520   20.6740 O   0  0  0  0  0  0
  -24.6394  -31.8455   23.1877 C   0  0  0  0  0  0
  -25.9187  -32.4700   23.8249 C   0  0  1  0  0  0
  -27.2148  -27.1615   20.1557 C   0  0  0  0  0  0
  -25.5938  -33.8501   24.2165 N   0  0  0  0  0  0
  -23.4403  -30.4652   21.5337 C   0  0  2  0  0  0
  -24.8886  -28.8885   20.1149 C   0  0  0  0  0  0
  -22.7547  -29.4566   22.4880 C   0  0  0  0  0  0
  -18.0295  -28.1394   22.8484 C   0  0  0  0  0  0
  -24.1475  -36.7228   23.2651 C   0  0  0  0  0  0
  -25.9939  -30.7265   21.3822 C   0  0  0  0  0  0
  -26.0650  -29.3388   20.7280 C   0  0  0  0  0  0
  -27.2323  -28.4932   20.7273 C   0  0  0  0  0  0
  -26.0161  -26.8006   19.5076 C   0  0  0  0  0  0
  -24.8755  -27.6316   19.4886 C   0  0  0  0  0  0
  -23.6636  -29.7879   20.1549 C   0  0  0  0  0  0
  -25.4115  -36.3025   24.0319 C   0  0  1  0  0  0
  -20.5908  -28.3707   23.1243 C   0  0  2  0  0  0
  -20.6768  -26.9411   22.5408 C   0  0  0  0  0  0
  -19.5742  -26.6380   21.5211 C   0  0  0  0  0  0
  -18.1927  -26.7930   22.1629 C   0  0  0  0  0  0
  -19.1559  -28.8870   23.2854 C   0  0  0  0  0  0
  -18.9489  -30.1471   23.8872 C   0  0  0  0  0  0
  -17.6489  -30.6592   24.0570 C   0  0  0  0  0  0
  -25.9078  -34.9412   23.5055 C   0  0  0  0  0  0
  -16.5377  -29.9089   23.6355 C   0  0  0  0  0  0
  -16.7286  -28.6512   23.0360 C   0  0  0  0  0  0
  -26.4516  -31.6576   25.0694 C   0  0  0  0  0  0
  -25.3708  -31.3758   26.1400 C   0  0  0  0  0  0
  -27.0396  -30.2984   24.6264 C   0  0  0  0  0  0
  -27.6037  -32.4360   25.7470 C   0  0  0  0  0  0
  -27.5564  -37.1761   24.8477 C   0  0  0  0  0  0
  -21.4248  -29.3042   22.3629 N   0  0  0  0  0  0
  -26.4267  -37.3752   23.9437 N   0  0  0  0  0  0
  -24.7107  -31.0336   22.0897 N   0  0  0  0  0  0
  -23.4215  -28.8124   23.3022 O   0  0  0  0  0  0
  -28.2896  -26.2144   20.1691 O   0  0  0  0  0  0
  -26.5676  -34.8918   22.4642 O   0  0  0  0  0  0
  -23.5526  -32.1325   23.7123 O   0  0  0  0  0  0
  -28.0183  -20.8675   20.6294 C   0  0  0  0  0  0
  -28.9408  -21.8654   20.1774 C   0  0  0  0  0  0
  -28.4118  -19.4648   20.7577 C   0  0  0  0  0  0
  -30.1917  -21.3142   19.8689 C   0  0  0  0  0  0
  -29.7277  -19.0037   20.3995 C   0  0  0  0  0  0
  -31.1122  -22.3856   19.3388 C   0  0  0  0  0  0
  -30.3617  -23.7326   19.5649 C   0  0  0  0  0  0
  -28.8525  -23.4439   19.7703 C   0  0  2  0  0  0
  -27.4048  -18.4679   21.3006 C   0  0  0  0  0  0
  -30.4219  -17.5254   20.5914 C   0  0  0  0  0  0
  -28.0876  -24.7194   20.5237 C   0  0  0  0  0  0
  -30.5781  -19.9921   19.9622 N   0  0  0  0  0  0
  -29.8507  -16.0758   20.5618 N   0  0  0  0  0  0
  -31.4686  -12.6733   19.1850 H   0  0  0  0  0  0
  -30.3968  -11.5850   20.0181 H   0  0  0  0  0  0
  -29.8184  -11.7144   17.5704 H   0  0  0  0  0  0
  -29.6153  -13.4450   17.6922 H   0  0  0  0  0  0
  -27.9299  -11.2728   18.9704 H   0  0  0  0  0  0
  -27.3806  -12.4569   17.8150 H   0  0  0  0  0  0
  -27.5998  -14.2495   19.4179 H   0  0  0  0  0  0
  -28.7432  -12.2820   21.4588 H   0  0  0  0  0  0
  -28.3879  -13.9686   21.7519 H   0  0  0  0  0  0
  -25.2773   -9.5674   22.4774 H   0  0  0  0  0  0
  -24.0007   -7.4628   22.7469 H   0  0  0  0  0  0
  -21.0861   -8.8785   19.8950 H   0  0  0  0  0  0
  -22.3725  -10.9679   19.6174 H   0  0  0  0  0  0
  -21.2004   -7.6150   23.9721 H   0  0  0  0  0  0
  -21.1471   -6.0522   25.9077 H   0  0  0  0  0  0
  -22.0605   -2.7616   23.2843 H   0  0  0  0  0  0
  -22.4073  -11.9842   22.4804 H   0  0  0  0  0  0
  -21.1068  -13.1213   22.2673 H   0  0  0  0  0  0
  -24.6380  -15.8408   20.4934 H   0  0  0  0  0  0
  -26.2460  -15.6202   20.0243 H   0  0  0  0  0  0
  -26.7247  -32.5305   23.0966 H   0  0  0  0  0  0
  -25.0054  -33.9606   25.0292 H   0  0  0  0  0  0
  -22.7423  -31.2911   21.3780 H   0  0  0  0  0  0
  -23.3759  -35.9538   23.3305 H   0  0  0  0  0  0
  -24.3548  -36.8866   22.2067 H   0  0  0  0  0  0
  -23.7200  -37.6408   23.6692 H   0  0  0  0  0  0
  -26.1473  -31.4790   20.6076 H   0  0  0  0  0  0
  -26.8661  -30.7750   22.0229 H   0  0  0  0  0  0
  -28.1332  -28.8384   21.2150 H   0  0  0  0  0  0
  -25.9469  -25.8405   19.0159 H   0  0  0  0  0  0
  -23.9786  -27.2827   18.9958 H   0  0  0  0  0  0
  -23.7939  -30.5572   19.3930 H   0  0  0  0  0  0
  -22.7789  -29.2256   19.8504 H   0  0  0  0  0  0
  -25.1294  -36.1837   25.0806 H   0  0  0  0  0  0
  -21.0010  -28.3278   24.1359 H   0  0  0  0  0  0
  -20.5638  -26.2323   23.3625 H   0  0  0  0  0  0
  -21.6633  -26.7388   22.1221 H   0  0  0  0  0  0
  -19.6898  -25.6291   21.1232 H   0  0  0  0  0  0
  -19.6668  -27.3203   20.6749 H   0  0  0  0  0  0
  -17.4194  -26.6692   21.4033 H   0  0  0  0  0  0
  -18.0324  -26.0061   22.9016 H   0  0  0  0  0  0
  -19.7970  -30.7297   24.2214 H   0  0  0  0  0  0
  -17.5050  -31.6271   24.5180 H   0  0  0  0  0  0
  -15.5382  -30.2993   23.7696 H   0  0  0  0  0  0
  -15.8678  -28.0837   22.7078 H   0  0  0  0  0  0
  -24.5868  -30.7127   25.7717 H   0  0  0  0  0  0
  -24.8924  -32.2949   26.4803 H   0  0  0  0  0  0
  -25.7995  -30.8933   27.0195 H   0  0  0  0  0  0
  -26.3017  -29.6698   24.1271 H   0  0  0  0  0  0
  -27.4036  -29.7283   25.4822 H   0  0  0  0  0  0
  -27.8899  -30.4239   23.9556 H   0  0  0  0  0  0
  -27.2615  -33.3686   26.1966 H   0  0  0  0  0  0
  -28.3876  -32.6892   25.0320 H   0  0  0  0  0  0
  -28.0674  -31.8552   26.5452 H   0  0  0  0  0  0
  -28.2578  -38.0062   24.7544 H   0  0  0  0  0  0
  -28.1052  -36.2594   24.6268 H   0  0  0  0  0  0
  -27.2284  -37.1376   25.8879 H   0  0  0  0  0  0
  -20.9467  -29.8757   21.6800 H   0  0  0  0  0  0
  -26.0119  -38.2801   24.1493 H   0  0  0  0  0  0
  -27.0075  -21.1621   20.8728 H   0  0  0  0  0  0
  -31.2772  -22.2078   18.2760 H   0  0  0  0  0  0
  -32.0803  -22.3687   19.8399 H   0  0  0  0  0  0
  -30.5539  -24.4649   18.7805 H   0  0  0  0  0  0
  -30.7441  -24.1659   20.4897 H   0  0  0  0  0  0
  -28.4097  -23.4117   18.7740 H   0  0  0  0  0  0
  -26.5699  -18.9718   21.7890 H   0  0  0  0  0  0
  -27.8693  -17.8116   22.0374 H   0  0  0  0  0  0
  -27.0047  -17.8511   20.4956 H   0  0  0  0  0  0
  -30.9315  -17.5936   21.5526 H   0  0  0  0  0  0
  -31.2334  -17.5122   19.8623 H   0  0  0  0  0  0
  -28.3607  -24.6553   21.5773 H   0  0  0  0  0  0
  -27.0211  -24.4964   20.5163 H   0  0  0  0  0  0
  -28.8555  -15.9898   20.6899 H   0  0  0  0  0  0
  1 25  1  0  0  0
  1 30  2  0  0  0
  1 83  1  0  0  0
  2  3  1  0  0  0
  2 25  1  0  0  0
  2 84  1  0  0  0
  2 85  1  0  0  0
  3  4  1  0  0  0
  3 86  1  0  0  0
  3 87  1  0  0  0
  4  5  1  0  0  0
  4 88  1  0  0  0
  4 89  1  0  0  0
  5  6  1  0  0  0
  5 26  1  0  0  0
  5 90  1  0  0  0
  6 25  1  0  0  0
  6 91  1  0  0  0
  6 92  1  0  0  0
  7  8  2  0  0  0
  7 26  1  0  0  0
  7 29  1  0  0  0
  8  9  1  0  0  0
  8 22  1  0  0  0
  9 10  1  0  0  0
  9 27  2  0  0  0
 10 11  2  0  0  0
 10 15  1  0  0  0
 11 12  1  0  0  0
 11 93  1  0  0  0
 12 13  2  0  0  0
 12 94  1  0  0  0
 13 14  1  0  0  0
 13 31  1  0  0  0
 14 15  2  0  0  0
 14 95  1  0  0  0
 15 96  1  0  0  0
 16 17  2  0  0  0
 16 21  1  0  0  0
 16 31  1  0  0  0
 17 18  1  0  0  0
 17 97  1  0  0  0
 18 19  2  0  0  0
 18 98  1  0  0  0
 19 20  1  0  0  0
 19 24  1  0  0  0
 20 21  2  0  0  0
 20 99  1  0  0  0
 21 23  1  0  0  0
 22 28  1  0  0  0
 22 32  2  0  0  0
 26 27  1  0  0  0
 28100  1  0  0  0
 28101  1  0  0  0
 29102  1  0  0  0
 29103  1  0  0  0
 33 34  1  0  0  0
 33 66  1  0  0  0
 33 70  2  0  0  0
 34 36  1  0  0  0
 34 59  1  0  0  0
 34104  1  0  0  0
 35 44  2  0  0  0
 35 45  1  0  0  0
 35 68  1  0  0  0
 36 56  1  0  0  0
 36105  1  0  0  0
 37 39  1  0  0  0
 37 47  1  0  0  0
 37 66  1  0  0  0
 37106  1  0  0  0
 38 43  2  0  0  0
 38 46  1  0  0  0
 38 47  1  0  0  0
 39 64  1  0  0  0
 39 67  2  0  0  0
 40 52  1  0  0  0
 40 53  2  0  0  0
 40 58  1  0  0  0
 41107  1  0  0  0
 41108  1  0  0  0
 41109  1  0  0  0
 41 48  1  0  0  0
 42 43  1  0  0  0
 42 66  1  0  0  0
 42110  1  0  0  0
 42111  1  0  0  0
 43 44  1  0  0  0
 44112  1  0  0  0
 45 46  2  0  0  0
 45113  1  0  0  0
 46114  1  0  0  0
 47115  1  0  0  0
 47116  1  0  0  0
 48 56  1  0  0  0
 48 65  1  0  0  0
 48117  1  0  0  0
 49 50  1  0  0  0
 49 53  1  0  0  0
 49 64  1  0  0  0
 49118  1  0  0  0
 50 51  1  0  0  0
 50119  1  0  0  0
 50120  1  0  0  0
 51 52  1  0  0  0
 51121  1  0  0  0
 51122  1  0  0  0
 52123  1  0  0  0
 52124  1  0  0  0
 53 54  1  0  0  0
 54 55  2  0  0  0
 54125  1  0  0  0
 55 57  1  0  0  0
 55126  1  0  0  0
 56 69  2  0  0  0
 57 58  2  0  0  0
 57127  1  0  0  0
 58128  1  0  0  0
 59 60  1  0  0  0
 59 61  1  0  0  0
 59 62  1  0  0  0
 60129  1  0  0  0
 60130  1  0  0  0
 60131  1  0  0  0
 61132  1  0  0  0
 61133  1  0  0  0
 61134  1  0  0  0
 62135  1  0  0  0
 62136  1  0  0  0
 62137  1  0  0  0
 63 65  1  0  0  0
 63138  1  0  0  0
 63139  1  0  0  0
 63140  1  0  0  0
 64141  1  0  0  0
 65142  1  0  0  0
 68 81  1  0  0  0
 71 72  2  0  0  0
 71 73  1  0  0  0
 71143  1  0  0  0
 72 74  1  0  0  0
 72 78  1  0  0  0
 73 75  2  0  0  0
 73 79  1  0  0  0
 74 76  1  0  0  0
 74 82  2  0  0  0
 75 80  1  0  0  0
 75 82  1  0  0  0
 76 77  1  0  0  0
 76144  1  0  0  0
 76145  1  0  0  0
 77 78  1  0  0  0
 77146  1  0  0  0
 77147  1  0  0  0
 78 81  1  0  0  0
 78148  1  0  0  0
 79149  1  0  0  0
 79150  1  0  0  0
 79151  1  0  0  0
 80 83  1  0  0  0
 80152  1  0  0  0
 80153  1  0  0  0
 81154  1  0  0  0
 81155  1  0  0  0
 83156  1  0  0  0
M  ISO  4   1 100  68 101  81 101  83 100
M  END
> <chiral flag>
0

> <version>
0

> <s_m_source_file>
/data/baiqing/PycharmProjects/Reinvent-master-3.2/result/LINK_invent/BTK/process_docking_weight1_custom_sum_contain_oxygen_bond_distance_aromatic_linkinvent_7_9_3/rearranged_h_0178.sdf

> <i_m_source_file_index>
30

> <r_mmod_Potential_Energy-OPLS-2005>
165.487487792969

> <r_mmod_Stretch_Energy-OPLS-2005>
194.862533569336

> <r_mmod_Bend_Energy-OPLS-2005>
309.427703857422

> <r_mmod_Torsional_Energy-OPLS-2005>
229.192245483398

> <r_mmod_Improper_Torsional_Energy-OPLS-2005>
5.66356801986694

> <r_mmod_Van_der_Waal_Energy-OPLS-2005>
126.791877746582

> <r_mmod_Electrostatic_Energy-OPLS-2005>
-624.481140136719

> <r_mmod_Solvation_Energy-OPLS-2005>
-230.156936645508

> <b_mmod_Minimization_Converged-OPLS-2005>
0

> <r_mmod_RMS_Derivative-OPLS-2005>
1.21392226219177

$$$$
30
                    3D
 Structure written by MMmdl.
159168  0  0  1  0            999 V2000
  -30.5428  -14.9648   20.4080 C   0  0  0  0  0  0
  -30.4451  -12.5985   19.4949 C   0  0  0  0  0  0
  -29.5268  -12.5322   18.2537 C   0  0  0  0  0  0
  -28.0595  -12.3117   18.6681 C   0  0  0  0  0  0
  -27.6307  -13.2466   19.8299 C   0  0  2  0  0  0
  -28.6744  -13.2889   20.9663 C   0  0  0  0  0  0
  -25.2491  -13.8205   20.5726 C   0  0  0  0  0  0
  -24.1800  -13.0429   20.9211 C   0  0  0  0  0  0
  -24.6402  -11.6913   20.8719 C   0  0  0  0  0  0
  -23.9064  -10.4290   21.0384 C   0  0  0  0  0  0
  -24.3608   -9.4217   21.9163 C   0  0  0  0  0  0
  -23.6287   -8.2258   22.0743 C   0  0  0  0  0  0
  -22.4274   -8.0279   21.3537 C   0  0  0  0  0  0
  -21.9903   -9.0260   20.4641 C   0  0  0  0  0  0
  -22.7231  -10.2137   20.3040 C   0  0  0  0  0  0
  -21.6859   -6.0735   22.5287 C   0  0  0  0  0  0
  -21.4020   -6.5636   23.8217 C   0  0  0  0  0  0
  -21.3655   -5.6779   24.9174 C   0  0  0  0  0  0
  -21.6045   -4.3043   24.7220 C   0  0  0  0  0  0
  -21.8825   -3.8138   23.4332 C   0  0  0  0  0  0
  -21.9201   -4.6970   22.3398 C   0  0  0  0  0  0
  -22.7821  -13.5224   21.1873 C   0  0  0  0  0  0
  -22.1671   -4.2154   21.0970 F   0  0  0  0  0  0
  -21.5614   -3.4520   25.7721 F   0  0  0  0  0  0
  -29.9494  -13.7019   20.3662 N   0  0  0  0  0  0
  -26.2902  -12.9422   20.3189 N   0  0  0  0  0  0
  -25.9327  -11.6554   20.5675 N   0  0  0  0  0  0
  -22.0439  -12.8242   22.0412 N   0  0  0  0  0  0
  -25.4175  -15.1934   20.4275 N   0  0  0  0  0  0
  -31.7493  -15.0297   20.1561 O   0  0  0  0  0  0
  -21.6630   -6.8893   21.4249 O   0  0  0  0  0  0
  -22.3527  -14.5530   20.6696 O   0  0  0  0  0  0
  -24.6499  -31.8401   23.1878 C   0  0  0  0  0  0
  -25.9287  -32.4629   23.8255 C   0  0  1  0  0  0
  -27.2162  -27.1156   20.1570 C   0  0  0  0  0  0
  -25.6043  -33.8429   24.2187 N   0  0  0  0  0  0
  -23.4523  -30.4625   21.5302 C   0  0  2  0  0  0
  -24.9010  -28.8815   20.1133 C   0  0  0  0  0  0
  -22.7581  -29.4539   22.4818 C   0  0  0  0  0  0
  -18.0311  -28.1396   22.8442 C   0  0  0  0  0  0
  -24.1496  -36.7186   23.2635 C   0  0  0  0  0  0
  -26.0114  -30.7063   21.3915 C   0  0  0  0  0  0
  -26.0818  -29.3167   20.7308 C   0  0  0  0  0  0
  -27.2437  -28.4524   20.7303 C   0  0  0  0  0  0
  -26.0103  -26.7867   19.5014 C   0  0  0  0  0  0
  -24.8789  -27.6282   19.4835 C   0  0  0  0  0  0
  -23.6803  -29.7870   20.1517 C   0  0  0  0  0  0
  -25.4119  -36.2954   24.0322 C   0  0  1  0  0  0
  -20.5927  -28.3722   23.1205 C   0  0  2  0  0  0
  -20.6774  -26.9415   22.5395 C   0  0  0  0  0  0
  -19.5763  -26.6369   21.5190 C   0  0  0  0  0  0
  -18.1936  -26.7937   22.1596 C   0  0  0  0  0  0
  -19.1575  -28.8875   23.2816 C   0  0  0  0  0  0
  -18.9488  -30.1478   23.8831 C   0  0  0  0  0  0
  -17.6481  -30.6577   24.0556 C   0  0  0  0  0  0
  -25.9092  -34.9346   23.5044 C   0  0  0  0  0  0
  -16.5368  -29.9056   23.6348 C   0  0  0  0  0  0
  -16.7297  -28.6494   23.0339 C   0  0  0  0  0  0
  -26.4621  -31.6507   25.0703 C   0  0  0  0  0  0
  -25.3834  -31.3733   26.1436 C   0  0  0  0  0  0
  -27.0471  -30.2856   24.6366 C   0  0  0  0  0  0
  -27.6154  -32.4277   25.7475 C   0  0  0  0  0  0
  -27.5570  -37.1737   24.8468 C   0  0  0  0  0  0
  -21.4268  -29.3041   22.3563 N   0  0  0  0  0  0
  -26.4260  -37.3693   23.9432 N   0  0  0  0  0  0
  -24.7228  -31.0267   22.0899 N   0  0  0  0  0  0
  -23.4204  -28.8088   23.2988 O   0  0  0  0  0  0
  -28.2515  -26.1068   20.1682 O   0  0  0  0  0  0
  -26.5629  -34.8869   22.4593 O   0  0  0  0  0  0
  -23.5626  -32.1275   23.7114 O   0  0  0  0  0  0
  -28.6125  -21.1939   18.6684 C   0  0  0  0  0  0
  -28.3587  -22.5879   18.9359 C   0  0  0  0  0  0
  -29.0992  -20.2763   19.6533 C   0  0  0  0  0  0
  -29.3158  -20.9056   20.9008 C   0  0  0  0  0  0
  -28.5693  -23.1780   20.2132 C   0  0  0  0  0  0
  -29.8856  -19.9860   22.0049 C   0  0  0  0  0  0
  -29.6247  -18.4222   21.8719 C   0  0  0  0  0  0
  -29.3226  -18.6824   19.3893 C   0  0  2  0  0  0
  -30.0043  -17.7170   20.5235 C   0  0  2  0  0  0
  -31.2339  -19.2212   17.6965 C   0  0  0  0  0  0
  -27.9273  -24.6538   20.6492 C   0  0  0  0  0  0
  -29.9770  -18.3934   18.0117 C   0  0  2  0  0  0
  -29.0580  -22.2684   21.1620 N   0  0  0  0  0  0
  -29.7512  -16.1431   20.5249 N   0  0  0  0  0  0
  -29.0901  -18.6060   17.0367 F   0  0  0  0  0  0
  -31.4789  -12.7566   19.1820 H   0  0  0  0  0  0
  -30.4401  -11.6503   20.0349 H   0  0  0  0  0  0
  -29.8553  -11.7383   17.5817 H   0  0  0  0  0  0
  -29.6077  -13.4637   17.6915 H   0  0  0  0  0  0
  -27.9560  -11.2709   18.9756 H   0  0  0  0  0  0
  -27.3998  -12.4442   17.8100 H   0  0  0  0  0  0
  -27.5889  -14.2436   19.3897 H   0  0  0  0  0  0
  -28.7694  -12.3196   21.4554 H   0  0  0  0  0  0
  -28.3680  -13.9962   21.7387 H   0  0  0  0  0  0
  -25.2762   -9.5707   22.4737 H   0  0  0  0  0  0
  -24.0008   -7.4646   22.7459 H   0  0  0  0  0  0
  -21.0832   -8.8781   19.8948 H   0  0  0  0  0  0
  -22.3689  -10.9670   19.6138 H   0  0  0  0  0  0
  -21.2015   -7.6147   23.9729 H   0  0  0  0  0  0
  -21.1471   -6.0493   25.9082 H   0  0  0  0  0  0
  -22.0610   -2.7603   23.2806 H   0  0  0  0  0  0
  -22.4034  -11.9908   22.4832 H   0  0  0  0  0  0
  -21.1057  -13.1313   22.2587 H   0  0  0  0  0  0
  -24.6502  -15.8416   20.5716 H   0  0  0  0  0  0
  -26.2651  -15.6485   20.1152 H   0  0  0  0  0  0
  -26.7347  -32.5239   23.0968 H   0  0  0  0  0  0
  -25.0352  -33.9519   25.0453 H   0  0  0  0  0  0
  -22.7567  -31.2896   21.3720 H   0  0  0  0  0  0
  -23.3771  -35.9506   23.3259 H   0  0  0  0  0  0
  -24.3599  -36.8840   22.2054 H   0  0  0  0  0  0
  -23.7223  -37.6361   23.6694 H   0  0  0  0  0  0
  -26.1823  -31.4616   20.6236 H   0  0  0  0  0  0
  -26.8748  -30.7460   22.0436 H   0  0  0  0  0  0
  -28.1451  -28.7821   21.2275 H   0  0  0  0  0  0
  -25.9237  -25.8303   19.0088 H   0  0  0  0  0  0
  -23.9778  -27.2879   18.9893 H   0  0  0  0  0  0
  -23.8182  -30.5565   19.3918 H   0  0  0  0  0  0
  -22.7949  -29.2284   19.8416 H   0  0  0  0  0  0
  -25.1302  -36.1752   25.0810 H   0  0  0  0  0  0
  -21.0042  -28.3317   24.1326 H   0  0  0  0  0  0
  -20.5643  -26.2335   23.3615 H   0  0  0  0  0  0
  -21.6658  -26.7377   22.1228 H   0  0  0  0  0  0
  -19.6919  -25.6272   21.1241 H   0  0  0  0  0  0
  -19.6732  -27.3164   20.6713 H   0  0  0  0  0  0
  -17.4230  -26.6694   21.3972 H   0  0  0  0  0  0
  -18.0330  -26.0085   22.8992 H   0  0  0  0  0  0
  -19.7972  -30.7318   24.2147 H   0  0  0  0  0  0
  -17.5038  -31.6257   24.5166 H   0  0  0  0  0  0
  -15.5359  -30.2934   23.7735 H   0  0  0  0  0  0
  -15.8705  -28.0817   22.7048 H   0  0  0  0  0  0
  -24.6060  -30.6988   25.7840 H   0  0  0  0  0  0
  -24.8993  -32.2926   26.4736 H   0  0  0  0  0  0
  -25.8191  -30.9056   27.0275 H   0  0  0  0  0  0
  -26.3104  -29.6536   24.1394 H   0  0  0  0  0  0
  -27.4021  -29.7208   25.4999 H   0  0  0  0  0  0
  -27.9060  -30.3987   23.9739 H   0  0  0  0  0  0
  -27.2759  -33.3622   26.1956 H   0  0  0  0  0  0
  -28.4029  -32.6746   25.0340 H   0  0  0  0  0  0
  -28.0772  -31.8459   26.5464 H   0  0  0  0  0  0
  -28.2559  -38.0058   24.7529 H   0  0  0  0  0  0
  -28.1078  -36.2581   24.6262 H   0  0  0  0  0  0
  -27.2307  -37.1363   25.8875 H   0  0  0  0  0  0
  -20.9482  -29.8728   21.6723 H   0  0  0  0  0  0
  -26.0101  -38.2742   24.1473 H   0  0  0  0  0  0
  -28.3946  -20.8257   17.6771 H   0  0  0  0  0  0
  -27.9289  -23.1948   18.1498 H   0  0  0  0  0  0
  -29.5014  -20.3250   22.9675 H   0  0  0  0  0  0
  -30.9615  -20.1608   22.0424 H   0  0  0  0  0  0
  -28.5606  -18.2589   22.0453 H   0  0  0  0  0  0
  -30.1310  -17.9177   22.6955 H   0  0  0  0  0  0
  -28.3010  -18.3084   19.3170 H   0  0  0  0  0  0
  -31.0859  -17.8349   20.4283 H   0  0  0  0  0  0
  -32.0003  -19.0738   18.4563 H   0  0  0  0  0  0
  -31.0201  -20.2881   17.6439 H   0  0  0  0  0  0
  -31.6588  -18.9316   16.7343 H   0  0  0  0  0  0
  -28.0601  -24.7005   21.7309 H   0  0  0  0  0  0
  -26.8553  -24.4977   20.5376 H   0  0  0  0  0  0
  -30.2216  -17.3323   17.9370 H   0  0  0  0  0  0
  -28.7814  -15.9123   20.6711 H   0  0  0  0  0  0
  1 25  1  0  0  0
  1 30  2  0  0  0
  1 84  1  0  0  0
  2  3  1  0  0  0
  2 25  1  0  0  0
  2 86  1  0  0  0
  2 87  1  0  0  0
  3  4  1  0  0  0
  3 88  1  0  0  0
  3 89  1  0  0  0
  4  5  1  0  0  0
  4 90  1  0  0  0
  4 91  1  0  0  0
  5  6  1  0  0  0
  5 26  1  0  0  0
  5 92  1  0  0  0
  6 25  1  0  0  0
  6 93  1  0  0  0
  6 94  1  0  0  0
  7  8  2  0  0  0
  7 26  1  0  0  0
  7 29  1  0  0  0
  8  9  1  0  0  0
  8 22  1  0  0  0
  9 10  1  0  0  0
  9 27  2  0  0  0
 10 11  2  0  0  0
 10 15  1  0  0  0
 11 12  1  0  0  0
 11 95  1  0  0  0
 12 13  2  0  0  0
 12 96  1  0  0  0
 13 14  1  0  0  0
 13 31  1  0  0  0
 14 15  2  0  0  0
 14 97  1  0  0  0
 15 98  1  0  0  0
 16 17  2  0  0  0
 16 21  1  0  0  0
 16 31  1  0  0  0
 17 18  1  0  0  0
 17 99  1  0  0  0
 18 19  2  0  0  0
 18100  1  0  0  0
 19 20  1  0  0  0
 19 24  1  0  0  0
 20 21  2  0  0  0
 20101  1  0  0  0
 21 23  1  0  0  0
 22 28  1  0  0  0
 22 32  2  0  0  0
 26 27  1  0  0  0
 28102  1  0  0  0
 28103  1  0  0  0
 29104  1  0  0  0
 29105  1  0  0  0
 33 34  1  0  0  0
 33 66  1  0  0  0
 33 70  2  0  0  0
 34 36  1  0  0  0
 34 59  1  0  0  0
 34106  1  0  0  0
 35 44  2  0  0  0
 35 45  1  0  0  0
 35 68  1  0  0  0
 36 56  1  0  0  0
 36107  1  0  0  0
 37 39  1  0  0  0
 37 47  1  0  0  0
 37 66  1  0  0  0
 37108  1  0  0  0
 38 43  2  0  0  0
 38 46  1  0  0  0
 38 47  1  0  0  0
 39 64  1  0  0  0
 39 67  2  0  0  0
 40 52  1  0  0  0
 40 53  2  0  0  0
 40 58  1  0  0  0
 41109  1  0  0  0
 41110  1  0  0  0
 41111  1  0  0  0
 41 48  1  0  0  0
 42 43  1  0  0  0
 42 66  1  0  0  0
 42112  1  0  0  0
 42113  1  0  0  0
 43 44  1  0  0  0
 44114  1  0  0  0
 45 46  2  0  0  0
 45115  1  0  0  0
 46116  1  0  0  0
 47117  1  0  0  0
 47118  1  0  0  0
 48 56  1  0  0  0
 48 65  1  0  0  0
 48119  1  0  0  0
 49 50  1  0  0  0
 49 53  1  0  0  0
 49 64  1  0  0  0
 49120  1  0  0  0
 50 51  1  0  0  0
 50121  1  0  0  0
 50122  1  0  0  0
 51 52  1  0  0  0
 51123  1  0  0  0
 51124  1  0  0  0
 52125  1  0  0  0
 52126  1  0  0  0
 53 54  1  0  0  0
 54 55  2  0  0  0
 54127  1  0  0  0
 55 57  1  0  0  0
 55128  1  0  0  0
 56 69  2  0  0  0
 57 58  2  0  0  0
 57129  1  0  0  0
 58130  1  0  0  0
 59 60  1  0  0  0
 59 61  1  0  0  0
 59 62  1  0  0  0
 60131  1  0  0  0
 60132  1  0  0  0
 60133  1  0  0  0
 61134  1  0  0  0
 61135  1  0  0  0
 61136  1  0  0  0
 62137  1  0  0  0
 62138  1  0  0  0
 62139  1  0  0  0
 63 65  1  0  0  0
 63140  1  0  0  0
 63141  1  0  0  0
 63142  1  0  0  0
 64143  1  0  0  0
 65144  1  0  0  0
 68 81  1  0  0  0
 71 72  2  0  0  0
 71 73  1  0  0  0
 71145  1  0  0  0
 72 75  1  0  0  0
 72146  1  0  0  0
 73 74  2  0  0  0
 73 78  1  0  0  0
 74 76  1  0  0  0
 74 83  1  0  0  0
 75 81  1  0  0  0
 75 83  2  0  0  0
 76 77  1  0  0  0
 76147  1  0  0  0
 76148  1  0  0  0
 77 79  1  0  0  0
 77149  1  0  0  0
 77150  1  0  0  0
 78 79  1  0  0  0
 78 82  1  0  0  0
 78151  1  0  0  0
 79 84  1  0  0  0
 79152  1  0  0  0
 80153  1  0  0  0
 80154  1  0  0  0
 80155  1  0  0  0
 80 82  1  0  0  0
 81156  1  0  0  0
 81157  1  0  0  0
 82 85  1  0  0  0
 82158  1  0  0  0
 84159  1  0  0  0
M  ISO  4   1 100  68 101  81 101  84 100
M  END
> <chiral flag>
0

> <version>
0

> <s_m_source_file>
/data/baiqing/PycharmProjects/Reinvent-master-3.2/result/LINK_invent/BTK/process_docking_weight1_custom_sum_contain_oxygen_bond_distance_aromatic_linkinvent_7_9_3/rearranged_h_0178.sdf

> <i_m_source_file_index>
31

> <r_mmod_Potential_Energy-OPLS-2005>
339.566436767578

> <r_mmod_Stretch_Energy-OPLS-2005>
241.548126220703

> <r_mmod_Bend_Energy-OPLS-2005>
259.449157714844

> <r_mmod_Torsional_Energy-OPLS-2005>
250.304428100586

> <r_mmod_Improper_Torsional_Energy-OPLS-2005>
6.54973936080933

> <r_mmod_Van_der_Waal_Energy-OPLS-2005>
128.916275024414

> <r_mmod_Electrostatic_Energy-OPLS-2005>
-533.285217285156

> <r_mmod_Solvation_Energy-OPLS-2005>
-222.968032836914

> <b_mmod_Minimization_Converged-OPLS-2005>
0

> <r_mmod_RMS_Derivative-OPLS-2005>
3.21746373176575

$$$$
31
                    3D
 Structure written by MMmdl.
146155  0  0  1  0            999 V2000
  -30.4246  -15.3713   20.3520 C   0  0  0  0  0  0
  -30.4292  -12.8943   19.5060 C   0  0  0  0  0  0
  -29.5306  -12.5867   18.2826 C   0  0  0  0  0  0
  -28.0884  -12.2905   18.7261 C   0  0  0  0  0  0
  -27.6011  -13.2846   19.8087 C   0  0  2  0  0  0
  -28.6362  -13.5274   20.9266 C   0  0  0  0  0  0
  -25.2376  -13.8266   20.5782 C   0  0  0  0  0  0
  -24.1731  -13.0442   20.9266 C   0  0  0  0  0  0
  -24.6397  -11.6940   20.8761 C   0  0  0  0  0  0
  -23.9094  -10.4296   21.0403 C   0  0  0  0  0  0
  -24.3639   -9.4210   21.9181 C   0  0  0  0  0  0
  -23.6308   -8.2247   22.0753 C   0  0  0  0  0  0
  -22.4290   -8.0284   21.3543 C   0  0  0  0  0  0
  -21.9929   -9.0258   20.4644 C   0  0  0  0  0  0
  -22.7264  -10.2134   20.3052 C   0  0  0  0  0  0
  -21.6859   -6.0740   22.5278 C   0  0  0  0  0  0
  -21.4018   -6.5642   23.8212 C   0  0  0  0  0  0
  -21.3661   -5.6793   24.9173 C   0  0  0  0  0  0
  -21.6045   -4.3056   24.7224 C   0  0  0  0  0  0
  -21.8818   -3.8149   23.4345 C   0  0  0  0  0  0
  -21.9195   -4.6966   22.3401 C   0  0  0  0  0  0
  -22.7748  -13.5186   21.1911 C   0  0  0  0  0  0
  -22.1663   -4.2151   21.0978 F   0  0  0  0  0  0
  -21.5627   -3.4539   25.7736 F   0  0  0  0  0  0
  -29.8374  -14.0660   20.2630 N   0  0  0  0  0  0
  -26.2791  -12.9547   20.3214 N   0  0  0  0  0  0
  -25.9335  -11.6644   20.5712 N   0  0  0  0  0  0
  -22.0411  -12.8162   22.0462 N   0  0  0  0  0  0
  -25.4040  -15.2005   20.4260 N   0  0  0  0  0  0
  -31.6641  -15.2770   20.2956 O   0  0  0  0  0  0
  -21.6649   -6.8885   21.4242 O   0  0  0  0  0  0
  -22.3423  -14.5484   20.6748 O   0  0  0  0  0  0
  -24.6693  -31.8176   23.1651 C   0  0  0  0  0  0
  -25.9344  -32.4557   23.8140 C   0  0  1  0  0  0
  -27.2160  -26.8620   20.2029 C   0  0  0  0  0  0
  -25.5987  -33.8373   24.2041 N   0  0  0  0  0  0
  -23.4866  -30.4267   21.5170 C   0  0  2  0  0  0
  -24.9389  -28.7959   20.1233 C   0  0  0  0  0  0
  -22.7693  -29.4414   22.4775 C   0  0  0  0  0  0
  -18.0326  -28.1412   22.8463 C   0  0  0  0  0  0
  -24.1496  -36.7194   23.2650 C   0  0  0  0  0  0
  -26.0598  -30.6037   21.4037 C   0  0  0  0  0  0
  -26.1272  -29.1841   20.7554 C   0  0  0  0  0  0
  -27.2629  -28.2433   20.7604 C   0  0  0  0  0  0
  -25.9943  -26.6380   19.5291 C   0  0  0  0  0  0
  -24.9008  -27.5439   19.4891 C   0  0  0  0  0  0
  -23.7305  -29.7347   20.1477 C   0  0  0  0  0  0
  -25.4139  -36.2950   24.0295 C   0  0  1  0  0  0
  -20.5953  -28.3762   23.1177 C   0  0  2  0  0  0
  -20.6801  -26.9438   22.5401 C   0  0  0  0  0  0
  -19.5775  -26.6376   21.5214 C   0  0  0  0  0  0
  -18.1958  -26.7943   22.1622 C   0  0  0  0  0  0
  -19.1588  -28.8909   23.2805 C   0  0  0  0  0  0
  -18.9497  -30.1497   23.8843 C   0  0  0  0  0  0
  -17.6489  -30.6600   24.0553 C   0  0  0  0  0  0
  -25.9108  -34.9334   23.4993 C   0  0  0  0  0  0
  -16.5380  -29.9085   23.6346 C   0  0  0  0  0  0
  -16.7307  -28.6506   23.0363 C   0  0  0  0  0  0
  -26.4573  -31.6525   25.0694 C   0  0  0  0  0  0
  -25.3681  -31.3792   26.1337 C   0  0  0  0  0  0
  -27.0480  -30.2884   24.6471 C   0  0  0  0  0  0
  -27.6049  -32.4349   25.7505 C   0  0  0  0  0  0
  -27.5566  -37.1758   24.8468 C   0  0  0  0  0  0
  -21.4357  -29.3043   22.3520 N   0  0  0  0  0  0
  -26.4280  -37.3689   23.9404 N   0  0  0  0  0  0
  -24.7608  -30.9780   22.0820 N   0  0  0  0  0  0
  -23.4213  -28.7993   23.3045 O   0  0  0  0  0  0
  -28.2207  -25.7379   20.1743 O   0  0  0  0  0  0
  -26.5726  -34.8879   22.4594 O   0  0  0  0  0  0
  -23.5749  -32.1173   23.6709 O   0  0  0  0  0  0
  -28.1805  -22.2869   18.6612 C   0  0  0  0  0  0
  -28.2485  -20.9860   18.1143 C   0  0  0  0  0  0
  -28.5116  -22.5330   20.0003 C   0  0  0  0  0  0
  -29.0647  -19.9189   20.0300 C   0  0  0  0  0  0
  -30.6117  -17.7058   19.6325 C   0  0  0  0  0  0
  -29.7169  -18.3484   20.6109 C   0  0  2  0  0  0
  -28.0574  -24.1324   20.6430 C   0  0  0  0  0  0
  -28.6451  -19.8638   18.7686 N   0  0  0  0  0  0
  -28.9687  -21.2575   20.6360 N   0  0  0  0  0  0
  -29.7244  -16.7089   20.1983 N   0  0  0  0  0  0
  -31.4377  -13.1164   19.1546 H   0  0  0  0  0  0
  -30.5302  -12.0181   20.1486 H   0  0  0  0  0  0
  -29.9309  -11.7460   17.7144 H   0  0  0  0  0  0
  -29.5353  -13.4440   17.6076 H   0  0  0  0  0  0
  -28.0696  -11.2766   19.1278 H   0  0  0  0  0  0
  -27.4149  -12.2929   17.8682 H   0  0  0  0  0  0
  -27.4918  -14.2323   19.2793 H   0  0  0  0  0  0
  -28.8426  -12.6184   21.4937 H   0  0  0  0  0  0
  -28.2578  -14.2629   21.6383 H   0  0  0  0  0  0
  -25.2780   -9.5685   22.4763 H   0  0  0  0  0  0
  -24.0014   -7.4638   22.7475 H   0  0  0  0  0  0
  -21.0861   -8.8781   19.8950 H   0  0  0  0  0  0
  -22.3721  -10.9675   19.6166 H   0  0  0  0  0  0
  -21.2013   -7.6150   23.9715 H   0  0  0  0  0  0
  -21.1484   -6.0524   25.9076 H   0  0  0  0  0  0
  -22.0596   -2.7610   23.2843 H   0  0  0  0  0  0
  -22.4052  -11.9837   22.4855 H   0  0  0  0  0  0
  -21.1018  -13.1160   22.2664 H   0  0  0  0  0  0
  -24.6422  -15.8576   20.5535 H   0  0  0  0  0  0
  -26.2643  -15.6435   20.1272 H   0  0  0  0  0  0
  -26.7418  -32.5078   23.0856 H   0  0  0  0  0  0
  -25.0070  -33.9440   25.0151 H   0  0  0  0  0  0
  -22.8034  -31.2599   21.3398 H   0  0  0  0  0  0
  -23.3766  -35.9515   23.3286 H   0  0  0  0  0  0
  -24.3566  -36.8870   22.2068 H   0  0  0  0  0  0
  -23.7249  -37.6371   23.6728 H   0  0  0  0  0  0
  -26.2437  -31.3381   20.6182 H   0  0  0  0  0  0
  -26.9183  -30.6672   22.0603 H   0  0  0  0  0  0
  -28.1705  -28.5498   21.2611 H   0  0  0  0  0  0
  -25.8620  -25.6856   19.0348 H   0  0  0  0  0  0
  -24.0001  -27.2396   18.9737 H   0  0  0  0  0  0
  -23.8958  -30.4987   19.3874 H   0  0  0  0  0  0
  -22.8380  -29.1946   19.8270 H   0  0  0  0  0  0
  -25.1343  -36.1737   25.0785 H   0  0  0  0  0  0
  -21.0036  -28.3373   24.1302 H   0  0  0  0  0  0
  -20.5678  -26.2383   23.3648 H   0  0  0  0  0  0
  -21.6665  -26.7407   22.1211 H   0  0  0  0  0  0
  -19.6934  -25.6273   21.1281 H   0  0  0  0  0  0
  -19.6713  -27.3155   20.6720 H   0  0  0  0  0  0
  -17.4226  -26.6684   21.4027 H   0  0  0  0  0  0
  -18.0353  -26.0098   22.9031 H   0  0  0  0  0  0
  -19.7972  -30.7328   24.2189 H   0  0  0  0  0  0
  -17.5039  -31.6273   24.5167 H   0  0  0  0  0  0
  -15.5377  -30.2969   23.7699 H   0  0  0  0  0  0
  -15.8709  -28.0805   22.7110 H   0  0  0  0  0  0
  -24.5882  -30.7122   25.7643 H   0  0  0  0  0  0
  -24.8849  -32.2998   26.4618 H   0  0  0  0  0  0
  -25.7896  -30.9053   27.0211 H   0  0  0  0  0  0
  -26.3161  -29.6541   24.1456 H   0  0  0  0  0  0
  -27.3966  -29.7271   25.5151 H   0  0  0  0  0  0
  -27.9120  -30.4050   23.9926 H   0  0  0  0  0  0
  -27.2606  -33.3699   26.1936 H   0  0  0  0  0  0
  -28.3937  -32.6830   25.0392 H   0  0  0  0  0  0
  -28.0631  -31.8573   26.5544 H   0  0  0  0  0  0
  -28.2572  -38.0064   24.7498 H   0  0  0  0  0  0
  -28.1075  -36.2588   24.6320 H   0  0  0  0  0  0
  -27.2278  -37.1428   25.8869 H   0  0  0  0  0  0
  -20.9628  -29.8723   21.6628 H   0  0  0  0  0  0
  -26.0124  -38.2747   24.1399 H   0  0  0  0  0  0
  -27.8019  -23.0962   18.0512 H   0  0  0  0  0  0
  -27.9485  -20.8324   17.0881 H   0  0  0  0  0  0
  -31.6643  -17.7135   19.9109 H   0  0  0  0  0  0
  -30.4505  -17.9195   18.5784 H   0  0  0  0  0  0
  -30.1175  -18.5418   21.6034 H   0  0  0  0  0  0
  -28.4768  -24.1250   21.6486 H   0  0  0  0  0  0
  -26.9860  -24.0284   20.8129 H   0  0  0  0  0  0
  1 25  1  0  0  0
  1 30  2  0  0  0
  1 80  1  0  0  0
  2  3  1  0  0  0
  2 25  1  0  0  0
  2 81  1  0  0  0
  2 82  1  0  0  0
  3  4  1  0  0  0
  3 83  1  0  0  0
  3 84  1  0  0  0
  4  5  1  0  0  0
  4 85  1  0  0  0
  4 86  1  0  0  0
  5  6  1  0  0  0
  5 26  1  0  0  0
  5 87  1  0  0  0
  6 25  1  0  0  0
  6 88  1  0  0  0
  6 89  1  0  0  0
  7  8  2  0  0  0
  7 26  1  0  0  0
  7 29  1  0  0  0
  8  9  1  0  0  0
  8 22  1  0  0  0
  9 10  1  0  0  0
  9 27  2  0  0  0
 10 11  2  0  0  0
 10 15  1  0  0  0
 11 12  1  0  0  0
 11 90  1  0  0  0
 12 13  2  0  0  0
 12 91  1  0  0  0
 13 14  1  0  0  0
 13 31  1  0  0  0
 14 15  2  0  0  0
 14 92  1  0  0  0
 15 93  1  0  0  0
 16 17  2  0  0  0
 16 21  1  0  0  0
 16 31  1  0  0  0
 17 18  1  0  0  0
 17 94  1  0  0  0
 18 19  2  0  0  0
 18 95  1  0  0  0
 19 20  1  0  0  0
 19 24  1  0  0  0
 20 21  2  0  0  0
 20 96  1  0  0  0
 21 23  1  0  0  0
 22 28  1  0  0  0
 22 32  2  0  0  0
 26 27  1  0  0  0
 28 97  1  0  0  0
 28 98  1  0  0  0
 29 99  1  0  0  0
 29100  1  0  0  0
 33 34  1  0  0  0
 33 66  1  0  0  0
 33 70  2  0  0  0
 34 36  1  0  0  0
 34 59  1  0  0  0
 34101  1  0  0  0
 35 44  2  0  0  0
 35 45  1  0  0  0
 35 68  1  0  0  0
 36 56  1  0  0  0
 36102  1  0  0  0
 37 39  1  0  0  0
 37 47  1  0  0  0
 37 66  1  0  0  0
 37103  1  0  0  0
 38 43  2  0  0  0
 38 46  1  0  0  0
 38 47  1  0  0  0
 39 64  1  0  0  0
 39 67  2  0  0  0
 40 52  1  0  0  0
 40 53  2  0  0  0
 40 58  1  0  0  0
 41104  1  0  0  0
 41105  1  0  0  0
 41106  1  0  0  0
 41 48  1  0  0  0
 42 43  1  0  0  0
 42 66  1  0  0  0
 42107  1  0  0  0
 42108  1  0  0  0
 43 44  1  0  0  0
 44109  1  0  0  0
 45 46  2  0  0  0
 45110  1  0  0  0
 46111  1  0  0  0
 47112  1  0  0  0
 47113  1  0  0  0
 48 56  1  0  0  0
 48 65  1  0  0  0
 48114  1  0  0  0
 49 50  1  0  0  0
 49 53  1  0  0  0
 49 64  1  0  0  0
 49115  1  0  0  0
 50 51  1  0  0  0
 50116  1  0  0  0
 50117  1  0  0  0
 51 52  1  0  0  0
 51118  1  0  0  0
 51119  1  0  0  0
 52120  1  0  0  0
 52121  1  0  0  0
 53 54  1  0  0  0
 54 55  2  0  0  0
 54122  1  0  0  0
 55 57  1  0  0  0
 55123  1  0  0  0
 56 69  2  0  0  0
 57 58  2  0  0  0
 57124  1  0  0  0
 58125  1  0  0  0
 59 60  1  0  0  0
 59 61  1  0  0  0
 59 62  1  0  0  0
 60126  1  0  0  0
 60127  1  0  0  0
 60128  1  0  0  0
 61129  1  0  0  0
 61130  1  0  0  0
 61131  1  0  0  0
 62132  1  0  0  0
 62133  1  0  0  0
 62134  1  0  0  0
 63 65  1  0  0  0
 63135  1  0  0  0
 63136  1  0  0  0
 63137  1  0  0  0
 64138  1  0  0  0
 65139  1  0  0  0
 68 77  1  0  0  0
 71 72  2  0  0  0
 71 73  1  0  0  0
 71140  1  0  0  0
 72 78  1  0  0  0
 72141  1  0  0  0
 73 77  1  0  0  0
 73 79  2  0  0  0
 74 78  2  0  0  0
 74 79  1  0  0  0
 74 76  1  0  0  0
 75 76  1  0  0  0
 75 80  1  0  0  0
 75142  1  0  0  0
 75143  1  0  0  0
 76 80  1  0  0  0
 76144  1  0  0  0
 77145  1  0  0  0
 77146  1  0  0  0
M  ISO  4   1 100  68 101  77 101  80 100
M  END
> <chiral flag>
0

> <version>
0

> <s_m_source_file>
/data/baiqing/PycharmProjects/Reinvent-master-3.2/result/LINK_invent/BTK/process_docking_weight1_custom_sum_contain_oxygen_bond_distance_aromatic_linkinvent_7_9_3/rearranged_h_0178.sdf

> <i_m_source_file_index>
32

> <r_mmod_Potential_Energy-OPLS-2005>
1201.81481933594

> <r_mmod_Stretch_Energy-OPLS-2005>
709.548767089844

> <r_mmod_Bend_Energy-OPLS-2005>
542.404479980469

> <r_mmod_Torsional_Energy-OPLS-2005>
300.2041015625

> <r_mmod_Improper_Torsional_Energy-OPLS-2005>
15.6485538482666

> <r_mmod_Van_der_Waal_Energy-OPLS-2005>
137.224182128906

> <r_mmod_Electrostatic_Energy-OPLS-2005>
-824.968994140625

> <r_mmod_Solvation_Energy-OPLS-2005>
-242.40168762207

> <b_mmod_Minimization_Converged-OPLS-2005>
0

> <r_mmod_RMS_Derivative-OPLS-2005>
0.350926876068115

$$$$
32
                    3D
 Structure written by MMmdl.
161170  0  0  1  0            999 V2000
  -30.4135  -15.2843   20.3222 C   0  0  0  0  0  0
  -30.4448  -12.8125   19.5337 C   0  0  0  0  0  0
  -29.5453  -12.5781   18.2922 C   0  0  0  0  0  0
  -28.0908  -12.2986   18.7117 C   0  0  0  0  0  0
  -27.6083  -13.2804   19.8068 C   0  0  2  0  0  0
  -28.6346  -13.4693   20.9376 C   0  0  0  0  0  0
  -25.2400  -13.8260   20.5732 C   0  0  0  0  0  0
  -24.1748  -13.0445   20.9234 C   0  0  0  0  0  0
  -24.6403  -11.6941   20.8732 C   0  0  0  0  0  0
  -23.9098  -10.4299   21.0393 C   0  0  0  0  0  0
  -24.3641   -9.4214   21.9177 C   0  0  0  0  0  0
  -23.6308   -8.2252   22.0753 C   0  0  0  0  0  0
  -22.4289   -8.0288   21.3545 C   0  0  0  0  0  0
  -21.9929   -9.0262   20.4645 C   0  0  0  0  0  0
  -22.7265  -10.2136   20.3049 C   0  0  0  0  0  0
  -21.6859   -6.0741   22.5280 C   0  0  0  0  0  0
  -21.4019   -6.5643   23.8214 C   0  0  0  0  0  0
  -21.3660   -5.6794   24.9175 C   0  0  0  0  0  0
  -21.6042   -4.3057   24.7225 C   0  0  0  0  0  0
  -21.8818   -3.8149   23.4346 C   0  0  0  0  0  0
  -21.9194   -4.6967   22.3403 C   0  0  0  0  0  0
  -22.7768  -13.5194   21.1905 C   0  0  0  0  0  0
  -22.1662   -4.2150   21.0980 F   0  0  0  0  0  0
  -21.5626   -3.4541   25.7738 F   0  0  0  0  0  0
  -29.8799  -13.9629   20.3286 N   0  0  0  0  0  0
  -26.2807  -12.9536   20.3128 N   0  0  0  0  0  0
  -25.9333  -11.6637   20.5649 N   0  0  0  0  0  0
  -22.0436  -12.8166   22.0460 N   0  0  0  0  0  0
  -25.4088  -15.1996   20.4244 N   0  0  0  0  0  0
  -31.6475  -15.2715   20.2486 O   0  0  0  0  0  0
  -21.6650   -6.8886   21.4244 O   0  0  0  0  0  0
  -22.3436  -14.5496   20.6756 O   0  0  0  0  0  0
  -24.6674  -31.8226   23.1686 C   0  0  0  0  0  0
  -25.9339  -32.4585   23.8156 C   0  0  1  0  0  0
  -27.2143  -26.9044   20.1724 C   0  0  0  0  0  0
  -25.5999  -33.8400   24.2064 N   0  0  0  0  0  0
  -23.4808  -30.4376   21.5206 C   0  0  2  0  0  0
  -24.9289  -28.8232   20.1166 C   0  0  0  0  0  0
  -22.7684  -29.4452   22.4779 C   0  0  0  0  0  0
  -18.0329  -28.1414   22.8469 C   0  0  0  0  0  0
  -24.1492  -36.7200   23.2646 C   0  0  0  0  0  0
  -26.0542  -30.6258   21.3966 C   0  0  0  0  0  0
  -26.1213  -29.2145   20.7369 C   0  0  0  0  0  0
  -27.2597  -28.2822   20.7299 C   0  0  0  0  0  0
  -25.9669  -26.6603   19.5500 C   0  0  0  0  0  0
  -24.8780  -27.5647   19.5043 C   0  0  0  0  0  0
  -23.7196  -29.7565   20.1472 C   0  0  0  0  0  0
  -25.4135  -36.2964   24.0298 C   0  0  1  0  0  0
  -20.5957  -28.3763   23.1182 C   0  0  2  0  0  0
  -20.6808  -26.9443   22.5399 C   0  0  0  0  0  0
  -19.5778  -26.6380   21.5216 C   0  0  0  0  0  0
  -18.1960  -26.7946   22.1625 C   0  0  0  0  0  0
  -19.1592  -28.8908   23.2811 C   0  0  0  0  0  0
  -18.9502  -30.1497   23.8847 C   0  0  0  0  0  0
  -17.6496  -30.6603   24.0558 C   0  0  0  0  0  0
  -25.9105  -34.9351   23.4998 C   0  0  0  0  0  0
  -16.5385  -29.9091   23.6348 C   0  0  0  0  0  0
  -16.7311  -28.6513   23.0364 C   0  0  0  0  0  0
  -26.4573  -31.6535   25.0695 C   0  0  0  0  0  0
  -25.3691  -31.3797   26.1346 C   0  0  0  0  0  0
  -27.0462  -30.2899   24.6432 C   0  0  0  0  0  0
  -27.6054  -32.4350   25.7505 C   0  0  0  0  0  0
  -27.5568  -37.1760   24.8468 C   0  0  0  0  0  0
  -21.4352  -29.3054   22.3529 N   0  0  0  0  0  0
  -26.4273  -37.3706   23.9415 N   0  0  0  0  0  0
  -24.7565  -30.9883   22.0824 N   0  0  0  0  0  0
  -23.4229  -28.8012   23.3015 O   0  0  0  0  0  0
  -28.2296  -25.7958   20.2267 O   0  0  0  0  0  0
  -26.5709  -34.8894   22.4591 O   0  0  0  0  0  0
  -23.5740  -32.1196   23.6774 O   0  0  0  0  0  0
  -29.6758  -17.9316   20.4944 C   0  0  0  0  0  0
  -28.8709  -19.3832   19.9622 C   0  0  0  0  0  0
  -31.3323  -19.8005   21.2604 C   0  0  0  0  0  0
  -30.6095  -18.4687   21.6119 C   0  0  1  0  0  0
  -28.9691  -20.9333   20.7679 C   0  0  1  0  0  0
  -30.0868  -20.5605   21.8016 C   0  0  1  0  0  0
  -29.9128  -19.3060   22.7440 C   0  0  0  0  0  0
  -28.4882  -18.9149   23.1921 C   0  0  0  0  0  0
  -30.6952  -19.3708   24.0719 C   0  0  0  0  0  0
  -27.8313  -24.0378   18.4750 C   0  0  0  0  0  0
  -29.0870  -22.6905   20.2787 C   0  0  0  0  0  0
  -28.0430  -24.1519   19.9991 C   0  0  1  0  0  0
  -28.0881  -19.2880   18.9722 N   0  0  0  0  0  0
  -29.5618  -16.5665   20.1291 N   0  0  0  0  0  0
  -31.4647  -13.0186   19.2060 H   0  0  0  0  0  0
  -30.5076  -11.9101   20.1443 H   0  0  0  0  0  0
  -29.9298  -11.7513   17.6936 H   0  0  0  0  0  0
  -29.5760  -13.4615   17.6527 H   0  0  0  0  0  0
  -28.0489  -11.2773   19.0924 H   0  0  0  0  0  0
  -27.4282  -12.3309   17.8460 H   0  0  0  0  0  0
  -27.5200  -14.2435   19.3021 H   0  0  0  0  0  0
  -28.7928  -12.5430   21.4922 H   0  0  0  0  0  0
  -28.2695  -14.2044   21.6568 H   0  0  0  0  0  0
  -25.2782   -9.5692   22.4757 H   0  0  0  0  0  0
  -24.0013   -7.4646   22.7477 H   0  0  0  0  0  0
  -21.0858   -8.8784   19.8952 H   0  0  0  0  0  0
  -22.3721  -10.9675   19.6159 H   0  0  0  0  0  0
  -21.2016   -7.6152   23.9718 H   0  0  0  0  0  0
  -21.1480   -6.0525   25.9078 H   0  0  0  0  0  0
  -22.0595   -2.7611   23.2847 H   0  0  0  0  0  0
  -22.4074  -11.9831   22.4835 H   0  0  0  0  0  0
  -21.1049  -13.1167   22.2677 H   0  0  0  0  0  0
  -24.6534  -15.8623   20.5606 H   0  0  0  0  0  0
  -26.2782  -15.6368   20.1429 H   0  0  0  0  0  0
  -26.7411  -32.5110   23.0870 H   0  0  0  0  0  0
  -25.0127  -33.9470   25.0204 H   0  0  0  0  0  0
  -22.7954  -31.2706   21.3510 H   0  0  0  0  0  0
  -23.3769  -35.9515   23.3275 H   0  0  0  0  0  0
  -24.3569  -36.8882   22.2067 H   0  0  0  0  0  0
  -23.7233  -37.6372   23.6723 H   0  0  0  0  0  0
  -26.2353  -31.3678   20.6178 H   0  0  0  0  0  0
  -26.9137  -30.6813   22.0526 H   0  0  0  0  0  0
  -28.1676  -28.5899   21.2291 H   0  0  0  0  0  0
  -25.7578  -25.6897   19.1362 H   0  0  0  0  0  0
  -23.9621  -27.2448   19.0267 H   0  0  0  0  0  0
  -23.8831  -30.5258   19.3917 H   0  0  0  0  0  0
  -22.8264  -29.2190   19.8244 H   0  0  0  0  0  0
  -25.1334  -36.1748   25.0788 H   0  0  0  0  0  0
  -21.0049  -28.3366   24.1304 H   0  0  0  0  0  0
  -20.5695  -26.2383   23.3641 H   0  0  0  0  0  0
  -21.6671  -26.7424   22.1200 H   0  0  0  0  0  0
  -19.6940  -25.6277   21.1278 H   0  0  0  0  0  0
  -19.6710  -27.3163   20.6724 H   0  0  0  0  0  0
  -17.4229  -26.6692   21.4027 H   0  0  0  0  0  0
  -18.0353  -26.0097   22.9029 H   0  0  0  0  0  0
  -19.7978  -30.7329   24.2189 H   0  0  0  0  0  0
  -17.5048  -31.6277   24.5170 H   0  0  0  0  0  0
  -15.5383  -30.2978   23.7699 H   0  0  0  0  0  0
  -15.8712  -28.0815   22.7107 H   0  0  0  0  0  0
  -24.5881  -30.7141   25.7652 H   0  0  0  0  0  0
  -24.8872  -32.3004   26.4644 H   0  0  0  0  0  0
  -25.7913  -30.9043   27.0207 H   0  0  0  0  0  0
  -26.3130  -29.6577   24.1411 H   0  0  0  0  0  0
  -27.3964  -29.7265   25.5090 H   0  0  0  0  0  0
  -27.9086  -30.4078   23.9868 H   0  0  0  0  0  0
  -27.2617  -33.3705   26.1931 H   0  0  0  0  0  0
  -28.3945  -32.6821   25.0390 H   0  0  0  0  0  0
  -28.0630  -31.8572   26.5545 H   0  0  0  0  0  0
  -28.2563  -38.0076   24.7516 H   0  0  0  0  0  0
  -28.1081  -36.2600   24.6286 H   0  0  0  0  0  0
  -27.2285  -37.1399   25.8870 H   0  0  0  0  0  0
  -20.9607  -29.8750   21.6662 H   0  0  0  0  0  0
  -26.0113  -38.2760   24.1427 H   0  0  0  0  0  0
  -31.5535  -19.9543   20.2024 H   0  0  0  0  0  0
  -32.2378  -19.9723   21.8437 H   0  0  0  0  0  0
  -31.2810  -17.6936   21.9821 H   0  0  0  0  0  0
  -28.0373  -20.9619   21.3319 H   0  0  0  0  0  0
  -30.3862  -21.4224   22.3990 H   0  0  0  0  0  0
  -27.7719  -18.8252   22.3780 H   0  0  0  0  0  0
  -28.0705  -19.6501   23.8814 H   0  0  0  0  0  0
  -28.4820  -17.9532   23.7075 H   0  0  0  0  0  0
  -31.7447  -19.6321   23.9435 H   0  0  0  0  0  0
  -30.6800  -18.4127   24.5935 H   0  0  0  0  0  0
  -30.2742  -20.1138   24.7505 H   0  0  0  0  0  0
  -27.4215  -23.0621   18.2123 H   0  0  0  0  0  0
  -28.7839  -24.1376   17.9548 H   0  0  0  0  0  0
  -27.1840  -24.7871   18.0354 H   0  0  0  0  0  0
  -29.8217  -22.6906   19.4739 H   0  0  0  0  0  0
  -29.6697  -23.0833   21.1102 H   0  0  0  0  0  0
  -27.1000  -23.9321   20.5004 H   0  0  0  0  0  0
  -28.0901  -18.3357   18.6191 H   0  0  0  0  0  0
  1 25  1  0  0  0
  1 30  2  0  0  0
  1 84  1  0  0  0
  2  3  1  0  0  0
  2 25  1  0  0  0
  2 85  1  0  0  0
  2 86  1  0  0  0
  3  4  1  0  0  0
  3 87  1  0  0  0
  3 88  1  0  0  0
  4  5  1  0  0  0
  4 89  1  0  0  0
  4 90  1  0  0  0
  5  6  1  0  0  0
  5 26  1  0  0  0
  5 91  1  0  0  0
  6 25  1  0  0  0
  6 92  1  0  0  0
  6 93  1  0  0  0
  7  8  2  0  0  0
  7 26  1  0  0  0
  7 29  1  0  0  0
  8  9  1  0  0  0
  8 22  1  0  0  0
  9 10  1  0  0  0
  9 27  2  0  0  0
 10 11  2  0  0  0
 10 15  1  0  0  0
 11 12  1  0  0  0
 11 94  1  0  0  0
 12 13  2  0  0  0
 12 95  1  0  0  0
 13 14  1  0  0  0
 13 31  1  0  0  0
 14 15  2  0  0  0
 14 96  1  0  0  0
 15 97  1  0  0  0
 16 17  2  0  0  0
 16 21  1  0  0  0
 16 31  1  0  0  0
 17 18  1  0  0  0
 17 98  1  0  0  0
 18 19  2  0  0  0
 18 99  1  0  0  0
 19 20  1  0  0  0
 19 24  1  0  0  0
 20 21  2  0  0  0
 20100  1  0  0  0
 21 23  1  0  0  0
 22 28  1  0  0  0
 22 32  2  0  0  0
 26 27  1  0  0  0
 28101  1  0  0  0
 28102  1  0  0  0
 29103  1  0  0  0
 29104  1  0  0  0
 33 34  1  0  0  0
 33 66  1  0  0  0
 33 70  2  0  0  0
 34 36  1  0  0  0
 34 59  1  0  0  0
 34105  1  0  0  0
 35 44  2  0  0  0
 35 45  1  0  0  0
 35 68  1  0  0  0
 36 56  1  0  0  0
 36106  1  0  0  0
 37 39  1  0  0  0
 37 47  1  0  0  0
 37 66  1  0  0  0
 37107  1  0  0  0
 38 43  2  0  0  0
 38 46  1  0  0  0
 38 47  1  0  0  0
 39 64  1  0  0  0
 39 67  2  0  0  0
 40 52  1  0  0  0
 40 53  2  0  0  0
 40 58  1  0  0  0
 41108  1  0  0  0
 41109  1  0  0  0
 41110  1  0  0  0
 41 48  1  0  0  0
 42 43  1  0  0  0
 42 66  1  0  0  0
 42111  1  0  0  0
 42112  1  0  0  0
 43 44  1  0  0  0
 44113  1  0  0  0
 45 46  2  0  0  0
 45114  1  0  0  0
 46115  1  0  0  0
 47116  1  0  0  0
 47117  1  0  0  0
 48 56  1  0  0  0
 48 65  1  0  0  0
 48118  1  0  0  0
 49 50  1  0  0  0
 49 53  1  0  0  0
 49 64  1  0  0  0
 49119  1  0  0  0
 50 51  1  0  0  0
 50120  1  0  0  0
 50121  1  0  0  0
 51 52  1  0  0  0
 51122  1  0  0  0
 51123  1  0  0  0
 52124  1  0  0  0
 52125  1  0  0  0
 53 54  1  0  0  0
 54 55  2  0  0  0
 54126  1  0  0  0
 55 57  1  0  0  0
 55127  1  0  0  0
 56 69  2  0  0  0
 57 58  2  0  0  0
 57128  1  0  0  0
 58129  1  0  0  0
 59 60  1  0  0  0
 59 61  1  0  0  0
 59 62  1  0  0  0
 60130  1  0  0  0
 60131  1  0  0  0
 60132  1  0  0  0
 61133  1  0  0  0
 61134  1  0  0  0
 61135  1  0  0  0
 62136  1  0  0  0
 62137  1  0  0  0
 62138  1  0  0  0
 63 65  1  0  0  0
 63139  1  0  0  0
 63140  1  0  0  0
 63141  1  0  0  0
 64142  1  0  0  0
 65143  1  0  0  0
 68 82  1  0  0  0
 71 72  1  0  0  0
 71 74  1  0  0  0
 71 84  2  0  0  0
 72 75  1  0  0  0
 72 83  2  0  0  0
 73144  1  0  0  0
 73145  1  0  0  0
 73 74  1  0  0  0
 73 76  1  0  0  0
 74 77  1  0  0  0
 74146  1  0  0  0
 75 76  1  0  0  0
 75 81  1  0  0  0
 75147  1  0  0  0
 76 77  1  0  0  0
 76148  1  0  0  0
 77 78  1  0  0  0
 77 79  1  0  0  0
 78149  1  0  0  0
 78150  1  0  0  0
 78151  1  0  0  0
 79152  1  0  0  0
 79153  1  0  0  0
 79154  1  0  0  0
 80155  1  0  0  0
 80156  1  0  0  0
 80157  1  0  0  0
 80 82  1  0  0  0
 81 82  1  0  0  0
 81158  1  0  0  0
 81159  1  0  0  0
 82160  1  0  0  0
 83161  1  0  0  0
M  ISO  4   1 100  68 101  82 101  84 100
M  END
> <chiral flag>
0

> <version>
0

> <s_m_source_file>
/data/baiqing/PycharmProjects/Reinvent-master-3.2/result/LINK_invent/BTK/process_docking_weight1_custom_sum_contain_oxygen_bond_distance_aromatic_linkinvent_7_9_3/rearranged_h_0178.sdf

> <i_m_source_file_index>
33

> <r_mmod_Potential_Energy-OPLS-2005>
1609.90808105469

> <r_mmod_Stretch_Energy-OPLS-2005>
671.79736328125

> <r_mmod_Bend_Energy-OPLS-2005>
532.903991699219

> <r_mmod_Torsional_Energy-OPLS-2005>
258.458526611328

> <r_mmod_Improper_Torsional_Energy-OPLS-2005>
7.00622415542603

> <r_mmod_Van_der_Waal_Energy-OPLS-2005>
141.700836181641

> <r_mmod_Electrostatic_Energy-OPLS-2005>
-308.418273925781

> <r_mmod_Solvation_Energy-OPLS-2005>
-178.508804321289

> <b_mmod_Minimization_Converged-OPLS-2005>
0

> <r_mmod_RMS_Derivative-OPLS-2005>
0.492976129055023

$$$$
33
                    3D
 Structure written by MMmdl.
156165  0  0  1  0            999 V2000
  -30.6214  -14.8143   20.4728 C   0  0  0  0  0  0
  -30.4443  -12.4990   19.5021 C   0  0  0  0  0  0
  -29.5253  -12.5077   18.2593 C   0  0  0  0  0  0
  -28.0476  -12.3424   18.6636 C   0  0  0  0  0  0
  -27.6456  -13.2467   19.8586 C   0  0  2  0  0  0
  -28.6892  -13.2138   20.9993 C   0  0  0  0  0  0
  -25.2521  -13.8242   20.5766 C   0  0  0  0  0  0
  -24.1786  -13.0460   20.9256 C   0  0  0  0  0  0
  -24.6377  -11.6947   20.8755 C   0  0  0  0  0  0
  -23.9039  -10.4314   21.0395 C   0  0  0  0  0  0
  -24.3603   -9.4218   21.9174 C   0  0  0  0  0  0
  -23.6299   -8.2231   22.0734 C   0  0  0  0  0  0
  -22.4275   -8.0268   21.3528 C   0  0  0  0  0  0
  -21.9905   -9.0234   20.4632 C   0  0  0  0  0  0
  -22.7209  -10.2125   20.3043 C   0  0  0  0  0  0
  -21.6851   -6.0722   22.5284 C   0  0  0  0  0  0
  -21.4012   -6.5622   23.8208 C   0  0  0  0  0  0
  -21.3670   -5.6772   24.9180 C   0  0  0  0  0  0
  -21.6054   -4.3043   24.7231 C   0  0  0  0  0  0
  -21.8816   -3.8123   23.4354 C   0  0  0  0  0  0
  -21.9193   -4.6947   22.3408 C   0  0  0  0  0  0
  -22.7812  -13.5241   21.1926 C   0  0  0  0  0  0
  -22.1658   -4.2125   21.0991 F   0  0  0  0  0  0
  -21.5645   -3.4522   25.7752 F   0  0  0  0  0  0
  -29.9962  -13.5761   20.4269 N   0  0  0  0  0  0
  -26.2945  -12.9455   20.3313 N   0  0  0  0  0  0
  -25.9316  -11.6582   20.5749 N   0  0  0  0  0  0
  -22.0418  -12.8212   22.0465 N   0  0  0  0  0  0
  -25.4255  -15.1959   20.4286 N   0  0  0  0  0  0
  -31.7785  -14.9174   20.0625 O   0  0  0  0  0  0
  -21.6648   -6.8851   21.4232 O   0  0  0  0  0  0
  -22.3477  -14.5526   20.6768 O   0  0  0  0  0  0
  -24.6382  -31.8491   23.1932 C   0  0  0  0  0  0
  -25.9174  -32.4724   23.8320 C   0  0  1  0  0  0
  -27.2302  -27.1814   20.1749 C   0  0  0  0  0  0
  -25.5946  -33.8531   24.2223 N   0  0  0  0  0  0
  -23.4428  -30.4713   21.5340 C   0  0  2  0  0  0
  -24.8974  -28.9080   20.1184 C   0  0  0  0  0  0
  -22.7567  -29.4574   22.4843 C   0  0  0  0  0  0
  -18.0305  -28.1402   22.8491 C   0  0  0  0  0  0
  -24.1472  -36.7250   23.2610 C   0  0  0  0  0  0
  -25.9960  -30.7389   21.3885 C   0  0  0  0  0  0
  -26.0714  -29.3534   20.7372 C   0  0  0  0  0  0
  -27.2363  -28.5046   20.7546 C   0  0  0  0  0  0
  -26.0211  -26.8282   19.5191 C   0  0  0  0  0  0
  -24.8795  -27.6526   19.4993 C   0  0  0  0  0  0
  -23.6724  -29.8048   20.1525 C   0  0  0  0  0  0
  -25.4074  -36.3032   24.0330 C   0  0  1  0  0  0
  -20.5918  -28.3730   23.1239 C   0  0  2  0  0  0
  -20.6783  -26.9430   22.5415 C   0  0  0  0  0  0
  -19.5749  -26.6377   21.5237 C   0  0  0  0  0  0
  -18.1936  -26.7943   22.1648 C   0  0  0  0  0  0
  -19.1567  -28.8882   23.2857 C   0  0  0  0  0  0
  -18.9481  -30.1479   23.8884 C   0  0  0  0  0  0
  -17.6476  -30.6600   24.0555 C   0  0  0  0  0  0
  -25.9064  -34.9429   23.5080 C   0  0  0  0  0  0
  -16.5364  -29.9093   23.6343 C   0  0  0  0  0  0
  -16.7287  -28.6514   23.0363 C   0  0  0  0  0  0
  -26.4504  -31.6591   25.0747 C   0  0  0  0  0  0
  -25.3701  -31.3848   26.1474 C   0  0  0  0  0  0
  -27.0334  -30.2970   24.6325 C   0  0  0  0  0  0
  -27.6048  -32.4340   25.7523 C   0  0  0  0  0  0
  -27.5633  -37.1663   24.8378 C   0  0  0  0  0  0
  -21.4258  -29.3064   22.3617 N   0  0  0  0  0  0
  -26.4191  -37.3805   23.9554 N   0  0  0  0  0  0
  -24.7123  -31.0392   22.0949 N   0  0  0  0  0  0
  -23.4230  -28.8101   23.2962 O   0  0  0  0  0  0
  -28.2981  -26.2203   20.2613 O   0  0  0  0  0  0
  -26.5659  -34.8930   22.4663 O   0  0  0  0  0  0
  -23.5498  -32.1348   23.7166 O   0  0  0  0  0  0
  -29.6566  -21.4023   21.7676 C   0  0  0  0  0  0
  -29.4498  -20.4493   20.7126 C   0  0  0  0  0  0
  -29.3702  -22.8183   21.6641 C   0  0  0  0  0  0
  -29.0724  -21.1480   19.5131 C   0  0  0  0  0  0
  -28.8183  -23.3795   20.4706 C   0  0  0  0  0  0
  -28.5857  -17.9447   20.2314 C   0  0  0  0  0  0
  -29.4919  -18.8354   21.0231 C   0  0  1  0  0  0
  -29.9910  -17.4117   20.3299 C   0  0  1  0  0  0
  -29.6173  -23.7011   22.8775 C   0  0  0  0  0  0
  -28.9823  -20.4349   18.1781 C   0  0  0  0  0  0
  -27.9086  -24.7385   20.3600 C   0  0  0  0  0  0
  -28.7502  -22.4937   19.4256 N   0  0  0  0  0  0
  -29.8679  -15.9541   20.7757 N   0  0  0  0  0  0
  -31.4788  -12.6356   19.1842 H   0  0  0  0  0  0
  -30.4147  -11.5292   20.0021 H   0  0  0  0  0  0
  -29.8130  -11.7028   17.5804 H   0  0  0  0  0  0
  -29.6611  -13.4366   17.7037 H   0  0  0  0  0  0
  -27.9014  -11.2961   18.9310 H   0  0  0  0  0  0
  -27.3977  -12.5388   17.8106 H   0  0  0  0  0  0
  -27.6326  -14.2661   19.4720 H   0  0  0  0  0  0
  -28.7272  -12.2298   21.4701 H   0  0  0  0  0  0
  -28.4063  -13.9180   21.7828 H   0  0  0  0  0  0
  -25.2730   -9.5714   22.4776 H   0  0  0  0  0  0
  -24.0021   -7.4610   22.7425 H   0  0  0  0  0  0
  -21.0833   -8.8717   19.8938 H   0  0  0  0  0  0
  -22.3622  -10.9666   19.6164 H   0  0  0  0  0  0
  -21.1982   -7.6129   23.9714 H   0  0  0  0  0  0
  -21.1513   -6.0510   25.9089 H   0  0  0  0  0  0
  -22.0594   -2.7586   23.2860 H   0  0  0  0  0  0
  -22.4016  -11.9882   22.4895 H   0  0  0  0  0  0
  -21.1026  -13.1233   22.2619 H   0  0  0  0  0  0
  -24.6786  -15.8650   20.5774 H   0  0  0  0  0  0
  -26.2803  -15.6258   20.0991 H   0  0  0  0  0  0
  -26.7253  -32.5362   23.1069 H   0  0  0  0  0  0
  -25.0090  -33.9665   25.0369 H   0  0  0  0  0  0
  -22.7422  -31.2935   21.3771 H   0  0  0  0  0  0
  -23.3815  -35.9483   23.3045 H   0  0  0  0  0  0
  -24.3659  -36.9100   22.2084 H   0  0  0  0  0  0
  -23.7074  -37.6319   23.6767 H   0  0  0  0  0  0
  -26.1397  -31.4896   20.6104 H   0  0  0  0  0  0
  -26.8723  -30.7961   22.0235 H   0  0  0  0  0  0
  -28.1239  -28.8316   21.2788 H   0  0  0  0  0  0
  -25.9004  -25.8787   19.0232 H   0  0  0  0  0  0
  -23.9771  -27.3028   19.0163 H   0  0  0  0  0  0
  -23.8121  -30.5790   19.3959 H   0  0  0  0  0  0
  -22.7909  -29.2427   19.8397 H   0  0  0  0  0  0
  -25.1197  -36.1805   25.0797 H   0  0  0  0  0  0
  -21.0017  -28.3309   24.1356 H   0  0  0  0  0  0
  -20.5678  -26.2353   23.3646 H   0  0  0  0  0  0
  -21.6640  -26.7423   22.1201 H   0  0  0  0  0  0
  -19.6897  -25.6276   21.1303 H   0  0  0  0  0  0
  -19.6687  -27.3165   20.6753 H   0  0  0  0  0  0
  -17.4207  -26.6693   21.4049 H   0  0  0  0  0  0
  -18.0317  -26.0090   22.9049 H   0  0  0  0  0  0
  -19.7956  -30.7297   24.2243 H   0  0  0  0  0  0
  -17.5032  -31.6294   24.5134 H   0  0  0  0  0  0
  -15.5362  -30.2986   23.7673 H   0  0  0  0  0  0
  -15.8693  -28.0821   22.7083 H   0  0  0  0  0  0
  -24.5827  -30.7237   25.7846 H   0  0  0  0  0  0
  -24.8966  -32.3080   26.4829 H   0  0  0  0  0  0
  -25.7983  -30.9079   27.0297 H   0  0  0  0  0  0
  -26.2948  -29.6731   24.1279 H   0  0  0  0  0  0
  -27.3881  -29.7237   25.4901 H   0  0  0  0  0  0
  -27.8890  -30.4195   23.9680 H   0  0  0  0  0  0
  -27.2648  -33.3664   26.2044 H   0  0  0  0  0  0
  -28.3894  -32.6860   25.0376 H   0  0  0  0  0  0
  -28.0668  -31.8504   26.5494 H   0  0  0  0  0  0
  -28.2264  -38.0317   24.8006 H   0  0  0  0  0  0
  -28.1492  -36.2953   24.5415 H   0  0  0  0  0  0
  -27.2525  -37.0329   25.8755 H   0  0  0  0  0  0
  -20.9447  -29.8809   21.6841 H   0  0  0  0  0  0
  -26.0032  -38.2762   24.1944 H   0  0  0  0  0  0
  -29.9963  -21.0294   22.7243 H   0  0  0  0  0  0
  -28.3231  -18.1352   19.1995 H   0  0  0  0  0  0
  -27.7900  -17.4807   20.8142 H   0  0  0  0  0  0
  -29.3733  -18.7643   22.1025 H   0  0  0  0  0  0
  -30.6017  -17.5461   19.4377 H   0  0  0  0  0  0
  -30.4987  -23.3706   23.4303 H   0  0  0  0  0  0
  -28.7726  -23.6898   23.5666 H   0  0  0  0  0  0
  -29.8022  -24.7293   22.5646 H   0  0  0  0  0  0
  -29.0146  -21.1367   17.3439 H   0  0  0  0  0  0
  -28.0428  -19.8961   18.0784 H   0  0  0  0  0  0
  -29.8199  -19.7458   18.0654 H   0  0  0  0  0  0
  -27.2085  -24.6726   21.1940 H   0  0  0  0  0  0
  -27.3297  -24.5247   19.4669 H   0  0  0  0  0  0
  -28.9664  -15.7266   21.1663 H   0  0  0  0  0  0
  1 25  1  0  0  0
  1 30  2  0  0  0
  1 83  1  0  0  0
  2  3  1  0  0  0
  2 25  1  0  0  0
  2 84  1  0  0  0
  2 85  1  0  0  0
  3  4  1  0  0  0
  3 86  1  0  0  0
  3 87  1  0  0  0
  4  5  1  0  0  0
  4 88  1  0  0  0
  4 89  1  0  0  0
  5  6  1  0  0  0
  5 26  1  0  0  0
  5 90  1  0  0  0
  6 25  1  0  0  0
  6 91  1  0  0  0
  6 92  1  0  0  0
  7  8  2  0  0  0
  7 26  1  0  0  0
  7 29  1  0  0  0
  8  9  1  0  0  0
  8 22  1  0  0  0
  9 10  1  0  0  0
  9 27  2  0  0  0
 10 11  2  0  0  0
 10 15  1  0  0  0
 11 12  1  0  0  0
 11 93  1  0  0  0
 12 13  2  0  0  0
 12 94  1  0  0  0
 13 14  1  0  0  0
 13 31  1  0  0  0
 14 15  2  0  0  0
 14 95  1  0  0  0
 15 96  1  0  0  0
 16 17  2  0  0  0
 16 21  1  0  0  0
 16 31  1  0  0  0
 17 18  1  0  0  0
 17 97  1  0  0  0
 18 19  2  0  0  0
 18 98  1  0  0  0
 19 20  1  0  0  0
 19 24  1  0  0  0
 20 21  2  0  0  0
 20 99  1  0  0  0
 21 23  1  0  0  0
 22 28  1  0  0  0
 22 32  2  0  0  0
 26 27  1  0  0  0
 28100  1  0  0  0
 28101  1  0  0  0
 29102  1  0  0  0
 29103  1  0  0  0
 33 34  1  0  0  0
 33 66  1  0  0  0
 33 70  2  0  0  0
 34 36  1  0  0  0
 34 59  1  0  0  0
 34104  1  0  0  0
 35 44  2  0  0  0
 35 45  1  0  0  0
 35 68  1  0  0  0
 36 56  1  0  0  0
 36105  1  0  0  0
 37 39  1  0  0  0
 37 47  1  0  0  0
 37 66  1  0  0  0
 37106  1  0  0  0
 38 43  2  0  0  0
 38 46  1  0  0  0
 38 47  1  0  0  0
 39 64  1  0  0  0
 39 67  2  0  0  0
 40 52  1  0  0  0
 40 53  2  0  0  0
 40 58  1  0  0  0
 41107  1  0  0  0
 41108  1  0  0  0
 41109  1  0  0  0
 41 48  1  0  0  0
 42 43  1  0  0  0
 42 66  1  0  0  0
 42110  1  0  0  0
 42111  1  0  0  0
 43 44  1  0  0  0
 44112  1  0  0  0
 45 46  2  0  0  0
 45113  1  0  0  0
 46114  1  0  0  0
 47115  1  0  0  0
 47116  1  0  0  0
 48 56  1  0  0  0
 48 65  1  0  0  0
 48117  1  0  0  0
 49 50  1  0  0  0
 49 53  1  0  0  0
 49 64  1  0  0  0
 49118  1  0  0  0
 50 51  1  0  0  0
 50119  1  0  0  0
 50120  1  0  0  0
 51 52  1  0  0  0
 51121  1  0  0  0
 51122  1  0  0  0
 52123  1  0  0  0
 52124  1  0  0  0
 53 54  1  0  0  0
 54 55  2  0  0  0
 54125  1  0  0  0
 55 57  1  0  0  0
 55126  1  0  0  0
 56 69  2  0  0  0
 57 58  2  0  0  0
 57127  1  0  0  0
 58128  1  0  0  0
 59 60  1  0  0  0
 59 61  1  0  0  0
 59 62  1  0  0  0
 60129  1  0  0  0
 60130  1  0  0  0
 60131  1  0  0  0
 61132  1  0  0  0
 61133  1  0  0  0
 61134  1  0  0  0
 62135  1  0  0  0
 62136  1  0  0  0
 62137  1  0  0  0
 63 65  1  0  0  0
 63138  1  0  0  0
 63139  1  0  0  0
 63140  1  0  0  0
 64141  1  0  0  0
 65142  1  0  0  0
 68 81  1  0  0  0
 71 72  2  0  0  0
 71 73  1  0  0  0
 71143  1  0  0  0
 72 74  1  0  0  0
 72 77  1  0  0  0
 73 75  2  0  0  0
 73 79  1  0  0  0
 74 80  1  0  0  0
 74 82  2  0  0  0
 75 81  1  0  0  0
 75 82  1  0  0  0
 76 77  1  0  0  0
 76 78  1  0  0  0
 76144  1  0  0  0
 76145  1  0  0  0
 77 78  1  0  0  0
 77146  1  0  0  0
 78 83  1  0  0  0
 78147  1  0  0  0
 79148  1  0  0  0
 79149  1  0  0  0
 79150  1  0  0  0
 80151  1  0  0  0
 80152  1  0  0  0
 80153  1  0  0  0
 81154  1  0  0  0
 81155  1  0  0  0
 83156  1  0  0  0
M  ISO  4   1 100  68 101  81 101  83 100
M  END
> <chiral flag>
0

> <version>
0

> <s_m_source_file>
/data/baiqing/PycharmProjects/Reinvent-master-3.2/result/LINK_invent/BTK/process_docking_weight1_custom_sum_contain_oxygen_bond_distance_aromatic_linkinvent_7_9_3/rearranged_h_0178.sdf

> <i_m_source_file_index>
34

> <r_mmod_Potential_Energy-OPLS-2005>
310.337188720703

> <r_mmod_Stretch_Energy-OPLS-2005>
196.573715209961

> <r_mmod_Bend_Energy-OPLS-2005>
269.712860107422

> <r_mmod_Torsional_Energy-OPLS-2005>
287.038665771484

> <r_mmod_Improper_Torsional_Energy-OPLS-2005>
8.96883964538574

> <r_mmod_Van_der_Waal_Energy-OPLS-2005>
141.93928527832

> <r_mmod_Electrostatic_Energy-OPLS-2005>
-498.778106689453

> <r_mmod_Solvation_Energy-OPLS-2005>
-227.085800170898

> <b_mmod_Minimization_Converged-OPLS-2005>
0

> <r_mmod_RMS_Derivative-OPLS-2005>
4.446213722229

$$$$
34
                    3D
 Structure written by MMmdl.
150159  0  0  1  0            999 V2000
  -30.3969  -15.3285   20.3712 C   0  0  0  0  0  0
  -30.4421  -12.8647   19.5031 C   0  0  0  0  0  0
  -29.5305  -12.5807   18.2814 C   0  0  0  0  0  0
  -28.0873  -12.2845   18.7258 C   0  0  0  0  0  0
  -27.6050  -13.2741   19.8137 C   0  0  2  0  0  0
  -28.6436  -13.4833   20.9340 C   0  0  0  0  0  0
  -25.2384  -13.8243   20.5775 C   0  0  0  0  0  0
  -24.1737  -13.0436   20.9272 C   0  0  0  0  0  0
  -24.6397  -11.6936   20.8787 C   0  0  0  0  0  0
  -23.9101  -10.4299   21.0426 C   0  0  0  0  0  0
  -24.3644   -9.4206   21.9201 C   0  0  0  0  0  0
  -23.6306   -8.2244   22.0757 C   0  0  0  0  0  0
  -22.4290   -8.0289   21.3543 C   0  0  0  0  0  0
  -21.9937   -9.0274   20.4652 C   0  0  0  0  0  0
  -22.7277  -10.2149   20.3068 C   0  0  0  0  0  0
  -21.6853   -6.0742   22.5279 C   0  0  0  0  0  0
  -21.4019   -6.5643   23.8211 C   0  0  0  0  0  0
  -21.3667   -5.6798   24.9178 C   0  0  0  0  0  0
  -21.6041   -4.3057   24.7221 C   0  0  0  0  0  0
  -21.8818   -3.8156   23.4346 C   0  0  0  0  0  0
  -21.9194   -4.6967   22.3400 C   0  0  0  0  0  0
  -22.7756  -13.5198   21.1914 C   0  0  0  0  0  0
  -22.1658   -4.2159   21.0977 F   0  0  0  0  0  0
  -21.5630   -3.4541   25.7736 F   0  0  0  0  0  0
  -29.8519  -14.0133   20.2831 N   0  0  0  0  0  0
  -26.2806  -12.9513   20.3245 N   0  0  0  0  0  0
  -25.9333  -11.6620   20.5754 N   0  0  0  0  0  0
  -22.0403  -12.8192   22.0469 N   0  0  0  0  0  0
  -25.4019  -15.1986   20.4222 N   0  0  0  0  0  0
  -31.6325  -15.3342   20.2697 O   0  0  0  0  0  0
  -21.6639   -6.8889   21.4242 O   0  0  0  0  0  0
  -22.3441  -14.5493   20.6741 O   0  0  0  0  0  0
  -24.6671  -31.8166   23.1652 C   0  0  0  0  0  0
  -25.9339  -32.4539   23.8117 C   0  0  1  0  0  0
  -27.2182  -26.8845   20.2064 C   0  0  0  0  0  0
  -25.5991  -33.8357   24.2019 N   0  0  0  0  0  0
  -23.4826  -30.4270   21.5167 C   0  0  2  0  0  0
  -24.9355  -28.7985   20.1220 C   0  0  0  0  0  0
  -22.7675  -29.4403   22.4766 C   0  0  0  0  0  0
  -18.0317  -28.1392   22.8439 C   0  0  0  0  0  0
  -24.1500  -36.7205   23.2652 C   0  0  0  0  0  0
  -26.0533  -30.6108   21.4002 C   0  0  0  0  0  0
  -26.1214  -29.1951   20.7508 C   0  0  0  0  0  0
  -27.2602  -28.2642   20.7591 C   0  0  0  0  0  0
  -25.9973  -26.6415   19.5385 C   0  0  0  0  0  0
  -24.8984  -27.5421   19.4947 C   0  0  0  0  0  0
  -23.7266  -29.7357   20.1472 C   0  0  0  0  0  0
  -25.4133  -36.2923   24.0292 C   0  0  1  0  0  0
  -20.5944  -28.3730   23.1159 C   0  0  2  0  0  0
  -20.6811  -26.9410   22.5376 C   0  0  0  0  0  0
  -19.5792  -26.6364   21.5185 C   0  0  0  0  0  0
  -18.1965  -26.7924   22.1589 C   0  0  0  0  0  0
  -19.1581  -28.8882   23.2779 C   0  0  0  0  0  0
  -18.9502  -30.1473   23.8805 C   0  0  0  0  0  0
  -17.6503  -30.6585   24.0550 C   0  0  0  0  0  0
  -25.9105  -34.9320   23.4979 C   0  0  0  0  0  0
  -16.5386  -29.9075   23.6347 C   0  0  0  0  0  0
  -16.7304  -28.6505   23.0344 C   0  0  0  0  0  0
  -26.4580  -31.6498   25.0668 C   0  0  0  0  0  0
  -25.3695  -31.3795   26.1327 C   0  0  0  0  0  0
  -27.0489  -30.2843   24.6450 C   0  0  0  0  0  0
  -27.6034  -32.4348   25.7477 C   0  0  0  0  0  0
  -27.5556  -37.1737   24.8458 C   0  0  0  0  0  0
  -21.4341  -29.3022   22.3513 N   0  0  0  0  0  0
  -26.4264  -37.3667   23.9414 N   0  0  0  0  0  0
  -24.7563  -30.9788   22.0818 N   0  0  0  0  0  0
  -23.4200  -28.7972   23.3024 O   0  0  0  0  0  0
  -28.2495  -25.7940   20.1879 O   0  0  0  0  0  0
  -26.5714  -34.8870   22.4578 O   0  0  0  0  0  0
  -23.5729  -32.1176   23.6701 O   0  0  0  0  0  0
  -29.0707  -19.4936   20.0470 C   0  0  0  0  0  0
  -30.4973  -18.5214   21.6991 C   0  0  0  0  0  0
  -29.2166  -20.9545   20.5593 C   0  0  0  0  0  0
  -29.7122  -18.1839   20.5854 C   0  0  0  0  0  0
  -30.0603  -20.8908   21.6997 C   0  0  0  0  0  0
  -27.4198  -23.1805   19.7110 C   0  0  0  0  0  0
  -28.8065  -22.6096   20.0057 C   0  0  1  0  0  0
  -28.1665  -24.1748   20.5995 C   0  0  2  0  0  0
  -30.4349  -22.1571   22.4476 C   0  0  0  0  0  0
  -30.6391  -19.7699   22.2179 N   0  0  0  0  0  0
  -29.5991  -16.5882   20.2597 N   0  0  0  0  0  0
  -31.4474  -13.1051   19.1554 H   0  0  0  0  0  0
  -30.5495  -11.9765   20.1287 H   0  0  0  0  0  0
  -29.9227  -11.7503   17.6927 H   0  0  0  0  0  0
  -29.5324  -13.4498   17.6229 H   0  0  0  0  0  0
  -28.0633  -11.2683   19.1199 H   0  0  0  0  0  0
  -27.4121  -12.2933   17.8692 H   0  0  0  0  0  0
  -27.5041  -14.2266   19.2923 H   0  0  0  0  0  0
  -28.8402  -12.5609   21.4814 H   0  0  0  0  0  0
  -28.2780  -14.2092   21.6618 H   0  0  0  0  0  0
  -25.2773   -9.5673   22.4795 H   0  0  0  0  0  0
  -23.9999   -7.4630   22.7477 H   0  0  0  0  0  0
  -21.0863   -8.8822   19.8959 H   0  0  0  0  0  0
  -22.3742  -10.9705   19.6189 H   0  0  0  0  0  0
  -21.2008   -7.6153   23.9725 H   0  0  0  0  0  0
  -21.1491   -6.0522   25.9081 H   0  0  0  0  0  0
  -22.0590   -2.7617   23.2843 H   0  0  0  0  0  0
  -22.4020  -11.9835   22.4839 H   0  0  0  0  0  0
  -21.1029  -13.1241   22.2707 H   0  0  0  0  0  0
  -24.6289  -15.8468   20.5220 H   0  0  0  0  0  0
  -26.2533  -15.6473   20.1147 H   0  0  0  0  0  0
  -26.7403  -32.5045   23.0818 H   0  0  0  0  0  0
  -25.0068  -33.9410   25.0115 H   0  0  0  0  0  0
  -22.7954  -31.2576   21.3394 H   0  0  0  0  0  0
  -23.3754  -35.9538   23.3272 H   0  0  0  0  0  0
  -24.3593  -36.8911   22.2077 H   0  0  0  0  0  0
  -23.7285  -37.6387   23.6758 H   0  0  0  0  0  0
  -26.2279  -31.3460   20.6139 H   0  0  0  0  0  0
  -26.9174  -30.6770   22.0498 H   0  0  0  0  0  0
  -28.1654  -28.5768   21.2606 H   0  0  0  0  0  0
  -25.8707  -25.6833   19.0538 H   0  0  0  0  0  0
  -23.9977  -27.2293   18.9850 H   0  0  0  0  0  0
  -23.8907  -30.5045   19.3914 H   0  0  0  0  0  0
  -22.8351  -29.1962   19.8216 H   0  0  0  0  0  0
  -25.1324  -36.1700   25.0779 H   0  0  0  0  0  0
  -20.9993  -28.3364   24.1303 H   0  0  0  0  0  0
  -20.5691  -26.2347   23.3617 H   0  0  0  0  0  0
  -21.6675  -26.7394   22.1175 H   0  0  0  0  0  0
  -19.6974  -25.6265   21.1247 H   0  0  0  0  0  0
  -19.6763  -27.3147   20.6696 H   0  0  0  0  0  0
  -17.4229  -26.6623   21.4008 H   0  0  0  0  0  0
  -18.0379  -26.0071   22.8989 H   0  0  0  0  0  0
  -19.7990  -30.7294   24.2133 H   0  0  0  0  0  0
  -17.5077  -31.6263   24.5167 H   0  0  0  0  0  0
  -15.5388  -30.2964   23.7747 H   0  0  0  0  0  0
  -15.8695  -28.0839   22.7070 H   0  0  0  0  0  0
  -24.5851  -30.7170   25.7655 H   0  0  0  0  0  0
  -24.8928  -32.3028   26.4613 H   0  0  0  0  0  0
  -25.7913  -30.9039   27.0193 H   0  0  0  0  0  0
  -26.3166  -29.6489   24.1452 H   0  0  0  0  0  0
  -27.3992  -29.7243   25.5136 H   0  0  0  0  0  0
  -27.9124  -30.3995   23.9897 H   0  0  0  0  0  0
  -27.2543  -33.3689   26.1898 H   0  0  0  0  0  0
  -28.3920  -32.6866   25.0373 H   0  0  0  0  0  0
  -28.0630  -31.8605   26.5530 H   0  0  0  0  0  0
  -28.2507  -38.0081   24.7492 H   0  0  0  0  0  0
  -28.1109  -36.2599   24.6282 H   0  0  0  0  0  0
  -27.2282  -37.1373   25.8862 H   0  0  0  0  0  0
  -20.9593  -29.8723   21.6656 H   0  0  0  0  0  0
  -26.0099  -38.2710   24.1459 H   0  0  0  0  0  0
  -28.4508  -19.3740   19.1700 H   0  0  0  0  0  0
  -31.0059  -17.7384   22.2436 H   0  0  0  0  0  0
  -26.5676  -22.6929   20.1784 H   0  0  0  0  0  0
  -27.2353  -23.4718   18.6794 H   0  0  0  0  0  0
  -29.5470  -22.7726   19.2253 H   0  0  0  0  0  0
  -27.8903  -24.1624   21.6518 H   0  0  0  0  0  0
  -30.8302  -22.9164   21.7725 H   0  0  0  0  0  0
  -31.2014  -21.9652   23.1996 H   0  0  0  0  0  0
  -29.5635  -22.5670   22.9592 H   0  0  0  0  0  0
  -28.6662  -16.3439   19.9629 H   0  0  0  0  0  0
  1 25  1  0  0  0
  1 30  2  0  0  0
  1 81  1  0  0  0
  2  3  1  0  0  0
  2 25  1  0  0  0
  2 82  1  0  0  0
  2 83  1  0  0  0
  3  4  1  0  0  0
  3 84  1  0  0  0
  3 85  1  0  0  0
  4  5  1  0  0  0
  4 86  1  0  0  0
  4 87  1  0  0  0
  5  6  1  0  0  0
  5 26  1  0  0  0
  5 88  1  0  0  0
  6 25  1  0  0  0
  6 89  1  0  0  0
  6 90  1  0  0  0
  7  8  2  0  0  0
  7 26  1  0  0  0
  7 29  1  0  0  0
  8  9  1  0  0  0
  8 22  1  0  0  0
  9 10  1  0  0  0
  9 27  2  0  0  0
 10 11  2  0  0  0
 10 15  1  0  0  0
 11 12  1  0  0  0
 11 91  1  0  0  0
 12 13  2  0  0  0
 12 92  1  0  0  0
 13 14  1  0  0  0
 13 31  1  0  0  0
 14 15  2  0  0  0
 14 93  1  0  0  0
 15 94  1  0  0  0
 16 17  2  0  0  0
 16 21  1  0  0  0
 16 31  1  0  0  0
 17 18  1  0  0  0
 17 95  1  0  0  0
 18 19  2  0  0  0
 18 96  1  0  0  0
 19 20  1  0  0  0
 19 24  1  0  0  0
 20 21  2  0  0  0
 20 97  1  0  0  0
 21 23  1  0  0  0
 22 28  1  0  0  0
 22 32  2  0  0  0
 26 27  1  0  0  0
 28 98  1  0  0  0
 28 99  1  0  0  0
 29100  1  0  0  0
 29101  1  0  0  0
 33 34  1  0  0  0
 33 66  1  0  0  0
 33 70  2  0  0  0
 34 36  1  0  0  0
 34 59  1  0  0  0
 34102  1  0  0  0
 35 44  2  0  0  0
 35 45  1  0  0  0
 35 68  1  0  0  0
 36 56  1  0  0  0
 36103  1  0  0  0
 37 39  1  0  0  0
 37 47  1  0  0  0
 37 66  1  0  0  0
 37104  1  0  0  0
 38 43  2  0  0  0
 38 46  1  0  0  0
 38 47  1  0  0  0
 39 64  1  0  0  0
 39 67  2  0  0  0
 40 52  1  0  0  0
 40 53  2  0  0  0
 40 58  1  0  0  0
 41105  1  0  0  0
 41106  1  0  0  0
 41107  1  0  0  0
 41 48  1  0  0  0
 42 43  1  0  0  0
 42 66  1  0  0  0
 42108  1  0  0  0
 42109  1  0  0  0
 43 44  1  0  0  0
 44110  1  0  0  0
 45 46  2  0  0  0
 45111  1  0  0  0
 46112  1  0  0  0
 47113  1  0  0  0
 47114  1  0  0  0
 48 56  1  0  0  0
 48 65  1  0  0  0
 48115  1  0  0  0
 49 50  1  0  0  0
 49 53  1  0  0  0
 49 64  1  0  0  0
 49116  1  0  0  0
 50 51  1  0  0  0
 50117  1  0  0  0
 50118  1  0  0  0
 51 52  1  0  0  0
 51119  1  0  0  0
 51120  1  0  0  0
 52121  1  0  0  0
 52122  1  0  0  0
 53 54  1  0  0  0
 54 55  2  0  0  0
 54123  1  0  0  0
 55 57  1  0  0  0
 55124  1  0  0  0
 56 69  2  0  0  0
 57 58  2  0  0  0
 57125  1  0  0  0
 58126  1  0  0  0
 59 60  1  0  0  0
 59 61  1  0  0  0
 59 62  1  0  0  0
 60127  1  0  0  0
 60128  1  0  0  0
 60129  1  0  0  0
 61130  1  0  0  0
 61131  1  0  0  0
 61132  1  0  0  0
 62133  1  0  0  0
 62134  1  0  0  0
 62135  1  0  0  0
 63 65  1  0  0  0
 63136  1  0  0  0
 63137  1  0  0  0
 63138  1  0  0  0
 64139  1  0  0  0
 65140  1  0  0  0
 68 78  1  0  0  0
 71 73  2  0  0  0
 71 74  1  0  0  0
 71141  1  0  0  0
 72 74  2  0  0  0
 72 80  1  0  0  0
 72142  1  0  0  0
 73 75  1  0  0  0
 73 77  1  0  0  0
 74 81  1  0  0  0
 75 79  1  0  0  0
 75 80  2  0  0  0
 76 77  1  0  0  0
 76 78  1  0  0  0
 76143  1  0  0  0
 76144  1  0  0  0
 77 78  1  0  0  0
 77145  1  0  0  0
 78146  1  0  0  0
 79147  1  0  0  0
 79148  1  0  0  0
 79149  1  0  0  0
 81150  1  0  0  0
M  ISO  4   1 100  68 101  78 101  81 100
M  END
> <chiral flag>
0

> <version>
0

> <s_m_source_file>
/data/baiqing/PycharmProjects/Reinvent-master-3.2/result/LINK_invent/BTK/process_docking_weight1_custom_sum_contain_oxygen_bond_distance_aromatic_linkinvent_7_9_3/rearranged_h_0178.sdf

> <i_m_source_file_index>
35

> <r_mmod_Potential_Energy-OPLS-2005>
1242.15478515625

> <r_mmod_Stretch_Energy-OPLS-2005>
636.666198730469

> <r_mmod_Bend_Energy-OPLS-2005>
436.292205810547

> <r_mmod_Torsional_Energy-OPLS-2005>
266.382934570312

> <r_mmod_Improper_Torsional_Energy-OPLS-2005>
9.37693977355957

> <r_mmod_Van_der_Waal_Energy-OPLS-2005>
122.121849060059

> <r_mmod_Electrostatic_Energy-OPLS-2005>
-527.864074707031

> <r_mmod_Solvation_Energy-OPLS-2005>
-226.569076538086

> <b_mmod_Minimization_Converged-OPLS-2005>
0

> <r_mmod_RMS_Derivative-OPLS-2005>
2.44939851760864

$$$$
35
                    3D
 Structure written by MMmdl.
156165  0  0  1  0            999 V2000
  -30.3017  -15.6610   20.3305 C   0  0  0  0  0  0
  -30.4242  -13.1018   19.5399 C   0  0  0  0  0  0
  -29.5529  -12.6609   18.3282 C   0  0  0  0  0  0
  -28.1316  -12.2950   18.7798 C   0  0  0  0  0  0
  -27.5974  -13.3106   19.8143 C   0  0  2  0  0  0
  -28.6107  -13.6598   20.9308 C   0  0  0  0  0  0
  -25.2341  -13.8290   20.5792 C   0  0  0  0  0  0
  -24.1731  -13.0437   20.9277 C   0  0  0  0  0  0
  -24.6431  -11.6946   20.8764 C   0  0  0  0  0  0
  -23.9131  -10.4299   21.0403 C   0  0  0  0  0  0
  -24.3657   -9.4211   21.9184 C   0  0  0  0  0  0
  -23.6320   -8.2254   22.0754 C   0  0  0  0  0  0
  -22.4311   -8.0288   21.3539 C   0  0  0  0  0  0
  -21.9955   -9.0266   20.4646 C   0  0  0  0  0  0
  -22.7296  -10.2138   20.3054 C   0  0  0  0  0  0
  -21.6857   -6.0746   22.5275 C   0  0  0  0  0  0
  -21.4016   -6.5649   23.8207 C   0  0  0  0  0  0
  -21.3663   -5.6802   24.9167 C   0  0  0  0  0  0
  -21.6040   -4.3060   24.7224 C   0  0  0  0  0  0
  -21.8820   -3.8155   23.4347 C   0  0  0  0  0  0
  -21.9191   -4.6973   22.3400 C   0  0  0  0  0  0
  -22.7742  -13.5167   21.1908 C   0  0  0  0  0  0
  -22.1665   -4.2155   21.0978 F   0  0  0  0  0  0
  -21.5628   -3.4543   25.7737 F   0  0  0  0  0  0
  -29.7817  -14.2901   20.2719 N   0  0  0  0  0  0
  -26.2799  -12.9627   20.3248 N   0  0  0  0  0  0
  -25.9384  -11.6698   20.5708 N   0  0  0  0  0  0
  -22.0406  -12.8144   22.0470 N   0  0  0  0  0  0
  -25.3925  -15.2023   20.4212 N   0  0  0  0  0  0
  -31.5362  -15.5919   20.1692 O   0  0  0  0  0  0
  -21.6652   -6.8895   21.4241 O   0  0  0  0  0  0
  -22.3428  -14.5470   20.6744 O   0  0  0  0  0  0
  -24.6889  -31.7937   23.1454 C   0  0  0  0  0  0
  -25.9445  -32.4432   23.8012 C   0  0  1  0  0  0
  -27.2317  -26.6675   20.2214 C   0  0  0  0  0  0
  -25.6006  -33.8265   24.1903 N   0  0  0  0  0  0
  -23.5151  -30.3944   21.5008 C   0  0  2  0  0  0
  -24.9714  -28.7228   20.1232 C   0  0  0  0  0  0
  -22.7791  -29.4298   22.4709 C   0  0  0  0  0  0
  -18.0342  -28.1423   22.8442 C   0  0  0  0  0  0
  -24.1505  -36.7155   23.2660 C   0  0  0  0  0  0
  -26.0993  -30.5172   21.4104 C   0  0  0  0  0  0
  -26.1643  -29.0770   20.7653 C   0  0  0  0  0  0
  -27.2800  -28.0812   20.7738 C   0  0  0  0  0  0
  -26.0025  -26.5276   19.5262 C   0  0  0  0  0  0
  -24.9318  -27.4739   19.4800 C   0  0  0  0  0  0
  -23.7684  -29.6820   20.1404 C   0  0  0  0  0  0
  -25.4149  -36.2881   24.0279 C   0  0  1  0  0  0
  -20.5980  -28.3790   23.1144 C   0  0  2  0  0  0
  -20.6803  -26.9442   22.5410 C   0  0  0  0  0  0
  -19.5782  -26.6365   21.5229 C   0  0  0  0  0  0
  -18.1962  -26.7950   22.1619 C   0  0  0  0  0  0
  -19.1608  -28.8936   23.2767 C   0  0  0  0  0  0
  -18.9523  -30.1518   23.8809 C   0  0  0  0  0  0
  -17.6509  -30.6600   24.0549 C   0  0  0  0  0  0
  -25.9135  -34.9276   23.4939 C   0  0  0  0  0  0
  -16.5400  -29.9079   23.6356 C   0  0  0  0  0  0
  -16.7322  -28.6506   23.0356 C   0  0  0  0  0  0
  -26.4597  -31.6479   25.0652 C   0  0  0  0  0  0
  -25.3659  -31.3789   26.1256 C   0  0  0  0  0  0
  -27.0515  -30.2804   24.6571 C   0  0  0  0  0  0
  -27.6036  -32.4346   25.7465 C   0  0  0  0  0  0
  -27.5560  -37.1723   24.8469 C   0  0  0  0  0  0
  -21.4438  -29.3033   22.3462 N   0  0  0  0  0  0
  -26.4261  -37.3652   23.9421 N   0  0  0  0  0  0
  -24.7920  -30.9362   22.0712 N   0  0  0  0  0  0
  -23.4215  -28.7919   23.3080 O   0  0  0  0  0  0
  -28.2169  -25.4542   20.2445 O   0  0  0  0  0  0
  -26.5797  -34.8867   22.4568 O   0  0  0  0  0  0
  -23.5900  -32.1017   23.6407 O   0  0  0  0  0  0
  -31.1376  -18.8803   20.7374 C   0  0  0  0  0  0
  -29.1734  -20.3587   22.0661 C   0  0  0  0  0  0
  -29.0355  -20.1807   20.6692 C   0  0  0  0  0  0
  -29.7966  -18.7450   20.3443 C   0  0  0  0  0  0
  -30.4325  -20.0284   22.6291 C   0  0  0  0  0  0
  -27.3534  -20.6063   23.9397 C   0  0  0  0  0  0
  -26.7120  -21.0504   22.6437 C   0  0  0  0  0  0
  -28.2021  -21.2000   22.8427 C   0  0  0  0  0  0
  -30.7904  -20.4136   24.0541 C   0  0  0  0  0  0
  -28.9942  -21.9713   20.0853 C   0  0  0  0  0  0
  -28.0714  -23.6849   20.3973 C   0  0  0  0  0  0
  -31.4304  -19.4480   21.9250 N   0  0  0  0  0  0
  -29.5428  -17.0340   20.3686 N   0  0  0  0  0  0
  -31.4134  -13.3701   19.1666 H   0  0  0  0  0  0
  -30.5940  -12.2663   20.2211 H   0  0  0  0  0  0
  -30.0123  -11.8188   17.8095 H   0  0  0  0  0  0
  -29.5061  -13.4767   17.6058 H   0  0  0  0  0  0
  -28.1693  -11.3036   19.2313 H   0  0  0  0  0  0
  -27.4609  -12.2154   17.9235 H   0  0  0  0  0  0
  -27.4549  -14.2261   19.2373 H   0  0  0  0  0  0
  -28.8789  -12.7869   21.5286 H   0  0  0  0  0  0
  -28.1682  -14.3797   21.6216 H   0  0  0  0  0  0
  -25.2795   -9.5682   22.4775 H   0  0  0  0  0  0
  -24.0001   -7.4656   22.7499 H   0  0  0  0  0  0
  -21.0874   -8.8827   19.8965 H   0  0  0  0  0  0
  -22.3770  -10.9689   19.6175 H   0  0  0  0  0  0
  -21.2019   -7.6158   23.9715 H   0  0  0  0  0  0
  -21.1473   -6.0528   25.9065 H   0  0  0  0  0  0
  -22.0591   -2.7618   23.2849 H   0  0  0  0  0  0
  -22.4027  -11.9807   22.4869 H   0  0  0  0  0  0
  -21.1009  -13.1152   22.2648 H   0  0  0  0  0  0
  -24.6213  -15.8507   20.5325 H   0  0  0  0  0  0
  -26.2330  -15.6450   20.0758 H   0  0  0  0  0  0
  -26.7522  -32.4876   23.0711 H   0  0  0  0  0  0
  -25.0038  -33.9268   24.9975 H   0  0  0  0  0  0
  -22.8454  -31.2349   21.3037 H   0  0  0  0  0  0
  -23.3777  -35.9478   23.3272 H   0  0  0  0  0  0
  -24.3581  -36.8872   22.2091 H   0  0  0  0  0  0
  -23.7248  -37.6312   23.6770 H   0  0  0  0  0  0
  -26.3047  -31.2381   20.6180 H   0  0  0  0  0  0
  -26.9525  -30.5853   22.0745 H   0  0  0  0  0  0
  -28.1849  -28.3655   21.2918 H   0  0  0  0  0  0
  -25.8369  -25.5861   19.0211 H   0  0  0  0  0  0
  -24.0322  -27.1906   18.9507 H   0  0  0  0  0  0
  -23.9457  -30.4373   19.3743 H   0  0  0  0  0  0
  -22.8711  -29.1502   19.8178 H   0  0  0  0  0  0
  -25.1355  -36.1638   25.0765 H   0  0  0  0  0  0
  -21.0059  -28.3416   24.1272 H   0  0  0  0  0  0
  -20.5711  -26.2395   23.3661 H   0  0  0  0  0  0
  -21.6659  -26.7393   22.1211 H   0  0  0  0  0  0
  -19.6950  -25.6266   21.1287 H   0  0  0  0  0  0
  -19.6737  -27.3161   20.6753 H   0  0  0  0  0  0
  -17.4236  -26.6709   21.4005 H   0  0  0  0  0  0
  -18.0326  -26.0118   22.9040 H   0  0  0  0  0  0
  -19.8009  -30.7351   24.2125 H   0  0  0  0  0  0
  -17.5071  -31.6272   24.5179 H   0  0  0  0  0  0
  -15.5401  -30.2956   23.7731 H   0  0  0  0  0  0
  -15.8718  -28.0808   22.7098 H   0  0  0  0  0  0
  -24.5889  -30.7088   25.7551 H   0  0  0  0  0  0
  -24.8797  -32.3004   26.4474 H   0  0  0  0  0  0
  -25.7835  -30.9082   27.0166 H   0  0  0  0  0  0
  -26.3225  -29.6409   24.1577 H   0  0  0  0  0  0
  -27.3938  -29.7245   25.5318 H   0  0  0  0  0  0
  -27.9212  -30.3892   24.0081 H   0  0  0  0  0  0
  -27.2571  -33.3740   26.1771 H   0  0  0  0  0  0
  -28.3961  -32.6760   25.0370 H   0  0  0  0  0  0
  -28.0566  -31.8650   26.5582 H   0  0  0  0  0  0
  -28.2530  -38.0059   24.7521 H   0  0  0  0  0  0
  -28.1087  -36.2576   24.6277 H   0  0  0  0  0  0
  -27.2279  -37.1358   25.8869 H   0  0  0  0  0  0
  -20.9768  -29.8681   21.6509 H   0  0  0  0  0  0
  -26.0089  -38.2700   24.1425 H   0  0  0  0  0  0
  -31.8720  -18.1390   20.4650 H   0  0  0  0  0  0
  -27.4444  -19.5368   24.1245 H   0  0  0  0  0  0
  -27.1602  -21.2196   24.8199 H   0  0  0  0  0  0
  -26.1040  -21.9527   22.6659 H   0  0  0  0  0  0
  -26.3549  -20.2684   21.9767 H   0  0  0  0  0  0
  -28.6062  -22.1940   23.0271 H   0  0  0  0  0  0
  -30.5883  -21.4705   24.2305 H   0  0  0  0  0  0
  -31.8487  -20.2472   24.2609 H   0  0  0  0  0  0
  -30.2100  -19.8269   24.7659 H   0  0  0  0  0  0
  -28.9823  -21.8605   19.0026 H   0  0  0  0  0  0
  -30.0276  -22.2494   20.2943 H   0  0  0  0  0  0
  -27.8733  -23.6437   21.4653 H   0  0  0  0  0  0
  -27.0875  -23.5076   19.9636 H   0  0  0  0  0  0
  -28.5572  -16.8246   20.4326 H   0  0  0  0  0  0
  1 25  1  0  0  0
  1 30  2  0  0  0
  1 83  1  0  0  0
  2  3  1  0  0  0
  2 25  1  0  0  0
  2 84  1  0  0  0
  2 85  1  0  0  0
  3  4  1  0  0  0
  3 86  1  0  0  0
  3 87  1  0  0  0
  4  5  1  0  0  0
  4 88  1  0  0  0
  4 89  1  0  0  0
  5  6  1  0  0  0
  5 26  1  0  0  0
  5 90  1  0  0  0
  6 25  1  0  0  0
  6 91  1  0  0  0
  6 92  1  0  0  0
  7  8  2  0  0  0
  7 26  1  0  0  0
  7 29  1  0  0  0
  8  9  1  0  0  0
  8 22  1  0  0  0
  9 10  1  0  0  0
  9 27  2  0  0  0
 10 11  2  0  0  0
 10 15  1  0  0  0
 11 12  1  0  0  0
 11 93  1  0  0  0
 12 13  2  0  0  0
 12 94  1  0  0  0
 13 14  1  0  0  0
 13 31  1  0  0  0
 14 15  2  0  0  0
 14 95  1  0  0  0
 15 96  1  0  0  0
 16 17  2  0  0  0
 16 21  1  0  0  0
 16 31  1  0  0  0
 17 18  1  0  0  0
 17 97  1  0  0  0
 18 19  2  0  0  0
 18 98  1  0  0  0
 19 20  1  0  0  0
 19 24  1  0  0  0
 20 21  2  0  0  0
 20 99  1  0  0  0
 21 23  1  0  0  0
 22 28  1  0  0  0
 22 32  2  0  0  0
 26 27  1  0  0  0
 28100  1  0  0  0
 28101  1  0  0  0
 29102  1  0  0  0
 29103  1  0  0  0
 33 34  1  0  0  0
 33 66  1  0  0  0
 33 70  2  0  0  0
 34 36  1  0  0  0
 34 59  1  0  0  0
 34104  1  0  0  0
 35 44  2  0  0  0
 35 45  1  0  0  0
 35 68  1  0  0  0
 36 56  1  0  0  0
 36105  1  0  0  0
 37 39  1  0  0  0
 37 47  1  0  0  0
 37 66  1  0  0  0
 37106  1  0  0  0
 38 43  2  0  0  0
 38 46  1  0  0  0
 38 47  1  0  0  0
 39 64  1  0  0  0
 39 67  2  0  0  0
 40 52  1  0  0  0
 40 53  2  0  0  0
 40 58  1  0  0  0
 41107  1  0  0  0
 41108  1  0  0  0
 41109  1  0  0  0
 41 48  1  0  0  0
 42 43  1  0  0  0
 42 66  1  0  0  0
 42110  1  0  0  0
 42111  1  0  0  0
 43 44  1  0  0  0
 44112  1  0  0  0
 45 46  2  0  0  0
 45113  1  0  0  0
 46114  1  0  0  0
 47115  1  0  0  0
 47116  1  0  0  0
 48 56  1  0  0  0
 48 65  1  0  0  0
 48117  1  0  0  0
 49 50  1  0  0  0
 49 53  1  0  0  0
 49 64  1  0  0  0
 49118  1  0  0  0
 50 51  1  0  0  0
 50119  1  0  0  0
 50120  1  0  0  0
 51 52  1  0  0  0
 51121  1  0  0  0
 51122  1  0  0  0
 52123  1  0  0  0
 52124  1  0  0  0
 53 54  1  0  0  0
 54 55  2  0  0  0
 54125  1  0  0  0
 55 57  1  0  0  0
 55126  1  0  0  0
 56 69  2  0  0  0
 57 58  2  0  0  0
 57127  1  0  0  0
 58128  1  0  0  0
 59 60  1  0  0  0
 59 61  1  0  0  0
 59 62  1  0  0  0
 60129  1  0  0  0
 60130  1  0  0  0
 60131  1  0  0  0
 61132  1  0  0  0
 61133  1  0  0  0
 61134  1  0  0  0
 62135  1  0  0  0
 62136  1  0  0  0
 62137  1  0  0  0
 63 65  1  0  0  0
 63138  1  0  0  0
 63139  1  0  0  0
 63140  1  0  0  0
 64141  1  0  0  0
 65142  1  0  0  0
 68 81  1  0  0  0
 71 74  2  0  0  0
 71 82  1  0  0  0
 71143  1  0  0  0
 72 73  2  0  0  0
 72 75  1  0  0  0
 72 78  1  0  0  0
 73 74  1  0  0  0
 73 80  1  0  0  0
 74 83  1  0  0  0
 75 79  1  0  0  0
 75 82  2  0  0  0
 76 77  1  0  0  0
 76 78  1  0  0  0
 76144  1  0  0  0
 76145  1  0  0  0
 77 78  1  0  0  0
 77146  1  0  0  0
 77147  1  0  0  0
 78148  1  0  0  0
 79149  1  0  0  0
 79150  1  0  0  0
 79151  1  0  0  0
 80 81  1  0  0  0
 80152  1  0  0  0
 80153  1  0  0  0
 81154  1  0  0  0
 81155  1  0  0  0
 83156  1  0  0  0
M  ISO  4   1 100  68 101  81 101  83 100
M  END
> <chiral flag>
0

> <version>
0

> <s_m_source_file>
/data/baiqing/PycharmProjects/Reinvent-master-3.2/result/LINK_invent/BTK/process_docking_weight1_custom_sum_contain_oxygen_bond_distance_aromatic_linkinvent_7_9_3/rearranged_h_0178.sdf

> <i_m_source_file_index>
36

> <r_mmod_Potential_Energy-OPLS-2005>
2739.94482421875

> <r_mmod_Stretch_Energy-OPLS-2005>
1209.24108886719

> <r_mmod_Bend_Energy-OPLS-2005>
686.160278320312

> <r_mmod_Torsional_Energy-OPLS-2005>
472.920989990234

> <r_mmod_Improper_Torsional_Energy-OPLS-2005>
40.9740905761719

> <r_mmod_Van_der_Waal_Energy-OPLS-2005>
131.870452880859

> <r_mmod_Electrostatic_Energy-OPLS-2005>
-520.792053222656

> <r_mmod_Solvation_Energy-OPLS-2005>
-227.724884033203

> <b_mmod_Minimization_Converged-OPLS-2005>
0

> <r_mmod_RMS_Derivative-OPLS-2005>
2.63704538345337

$$$$
36
                    3D
 Structure written by MMmdl.
160169  0  0  1  0            999 V2000
  -30.6202  -14.8904   20.4402 C   0  0  0  0  0  0
  -30.4264  -12.5551   19.4978 C   0  0  0  0  0  0
  -29.5144  -12.5136   18.2534 C   0  0  0  0  0  0
  -28.0514  -12.3059   18.6813 C   0  0  0  0  0  0
  -27.6321  -13.2477   19.8413 C   0  0  2  0  0  0
  -28.6763  -13.2887   20.9783 C   0  0  0  0  0  0
  -25.2481  -13.8230   20.5739 C   0  0  0  0  0  0
  -24.1778  -13.0460   20.9211 C   0  0  0  0  0  0
  -24.6385  -11.6940   20.8746 C   0  0  0  0  0  0
  -23.9064  -10.4312   21.0413 C   0  0  0  0  0  0
  -24.3616   -9.4223   21.9191 C   0  0  0  0  0  0
  -23.6295   -8.2249   22.0757 C   0  0  0  0  0  0
  -22.4275   -8.0285   21.3544 C   0  0  0  0  0  0
  -21.9904   -9.0262   20.4652 C   0  0  0  0  0  0
  -22.7230  -10.2146   20.3065 C   0  0  0  0  0  0
  -21.6857   -6.0724   22.5268 C   0  0  0  0  0  0
  -21.4029   -6.5625   23.8199 C   0  0  0  0  0  0
  -21.3672   -5.6782   24.9162 C   0  0  0  0  0  0
  -21.6038   -4.3042   24.7217 C   0  0  0  0  0  0
  -21.8819   -3.8130   23.4341 C   0  0  0  0  0  0
  -21.9195   -4.6950   22.3396 C   0  0  0  0  0  0
  -22.7798  -13.5251   21.1853 C   0  0  0  0  0  0
  -22.1662   -4.2128   21.0978 F   0  0  0  0  0  0
  -21.5632   -3.4534   25.7740 F   0  0  0  0  0  0
  -29.9517  -13.6725   20.3639 N   0  0  0  0  0  0
  -26.2905  -12.9458   20.3288 N   0  0  0  0  0  0
  -25.9322  -11.6586   20.5752 N   0  0  0  0  0  0
  -22.0442  -12.8261   22.0416 N   0  0  0  0  0  0
  -25.4180  -15.1955   20.4216 N   0  0  0  0  0  0
  -31.8278  -14.8636   20.1736 O   0  0  0  0  0  0
  -21.6645   -6.8875   21.4233 O   0  0  0  0  0  0
  -22.3487  -14.5552   20.6689 O   0  0  0  0  0  0
  -24.6418  -31.8473   23.1951 C   0  0  0  0  0  0
  -25.9207  -32.4716   23.8299 C   0  0  1  0  0  0
  -27.1965  -27.1531   20.1533 C   0  0  0  0  0  0
  -25.5987  -33.8520   24.2236 N   0  0  0  0  0  0
  -23.4424  -30.4745   21.5377 C   0  0  2  0  0  0
  -24.8933  -28.9192   20.1014 C   0  0  0  0  0  0
  -22.7560  -29.4563   22.4823 C   0  0  0  0  0  0
  -18.0322  -28.1373   22.8492 C   0  0  0  0  0  0
  -24.1488  -36.7261   23.2636 C   0  0  0  0  0  0
  -25.9993  -30.7286   21.3947 C   0  0  0  0  0  0
  -26.0689  -29.3455   20.7329 C   0  0  0  0  0  0
  -27.2228  -28.4745   20.7496 C   0  0  0  0  0  0
  -26.0135  -26.8566   19.4371 C   0  0  0  0  0  0
  -24.8794  -27.6891   19.4359 C   0  0  0  0  0  0
  -23.6696  -29.8187   20.1508 C   0  0  0  0  0  0
  -25.4115  -36.3049   24.0327 C   0  0  1  0  0  0
  -20.5935  -28.3723   23.1228 C   0  0  2  0  0  0
  -20.6822  -26.9412   22.5404 C   0  0  0  0  0  0
  -19.5789  -26.6377   21.5223 C   0  0  0  0  0  0
  -18.1979  -26.7912   22.1638 C   0  0  0  0  0  0
  -19.1576  -28.8861   23.2856 C   0  0  0  0  0  0
  -18.9476  -30.1461   23.8867 C   0  0  0  0  0  0
  -17.6466  -30.6565   24.0556 C   0  0  0  0  0  0
  -25.9062  -34.9429   23.5076 C   0  0  0  0  0  0
  -16.5362  -29.9048   23.6333 C   0  0  0  0  0  0
  -16.7302  -28.6470   23.0356 C   0  0  0  0  0  0
  -26.4541  -31.6555   25.0710 C   0  0  0  0  0  0
  -25.3754  -31.3736   26.1425 C   0  0  0  0  0  0
  -27.0396  -30.2951   24.6262 C   0  0  0  0  0  0
  -27.6066  -32.4304   25.7494 C   0  0  0  0  0  0
  -27.5575  -37.1792   24.8466 C   0  0  0  0  0  0
  -21.4247  -29.3058   22.3586 N   0  0  0  0  0  0
  -26.4287  -37.3757   23.9411 N   0  0  0  0  0  0
  -24.7131  -31.0360   22.0980 N   0  0  0  0  0  0
  -23.4239  -28.8071   23.2921 O   0  0  0  0  0  0
  -28.1946  -26.1166   20.2824 O   0  0  0  0  0  0
  -26.5603  -34.8917   22.4626 O   0  0  0  0  0  0
  -23.5546  -32.1334   23.7212 O   0  0  0  0  0  0
  -28.4372  -21.9315   20.1985 C   0  0  0  0  0  0
  -28.6841  -23.2954   20.5229 C   0  0  0  0  0  0
  -29.9252  -23.1206   21.2069 C   0  0  0  0  0  0
  -29.8077  -18.6667   19.3014 C   0  0  0  0  0  0
  -28.9655  -18.4372   21.5262 C   0  0  0  0  0  0
  -30.4118  -17.1746   19.3753 C   0  0  0  0  0  0
  -29.5522  -16.9285   21.6338 C   0  0  0  0  0  0
  -29.7603  -19.4641   20.6401 C   0  0  0  0  0  0
  -30.7310  -24.1840   21.8944 C   0  0  0  0  0  0
  -26.7602  -24.5402   21.5589 C   0  0  0  0  0  0
  -27.7404  -24.6270   20.3687 C   0  0  1  0  0  0
  -30.3489  -21.8403   21.2713 N   0  0  0  0  0  0
  -29.4485  -21.0193   20.6564 N   0  0  0  0  0  0
  -29.9493  -16.1532   20.3993 N   0  0  0  0  0  0
  -31.4663  -12.6694   19.1877 H   0  0  0  0  0  0
  -30.3875  -11.6094   20.0404 H   0  0  0  0  0  0
  -29.8276  -11.7158   17.5794 H   0  0  0  0  0  0
  -29.6071  -13.4453   17.6923 H   0  0  0  0  0  0
  -27.9571  -11.2680   19.0031 H   0  0  0  0  0  0
  -27.3821  -12.4210   17.8282 H   0  0  0  0  0  0
  -27.5983  -14.2486   19.4088 H   0  0  0  0  0  0
  -28.7550  -12.3241   21.4851 H   0  0  0  0  0  0
  -28.3860  -14.0164   21.7360 H   0  0  0  0  0  0
  -25.2762   -9.5694   22.4763 H   0  0  0  0  0  0
  -23.9992   -7.4648   22.7485 H   0  0  0  0  0  0
  -21.0823   -8.8782   19.8974 H   0  0  0  0  0  0
  -22.3680  -10.9681   19.6170 H   0  0  0  0  0  0
  -21.2035   -7.6137   23.9695 H   0  0  0  0  0  0
  -21.1492   -6.0516   25.9062 H   0  0  0  0  0  0
  -22.0589   -2.7590   23.2840 H   0  0  0  0  0  0
  -22.4064  -11.9957   22.4850 H   0  0  0  0  0  0
  -21.1060  -13.1286   22.2619 H   0  0  0  0  0  0
  -24.6554  -15.8515   20.5515 H   0  0  0  0  0  0
  -26.2795  -15.6376   20.1278 H   0  0  0  0  0  0
  -26.7256  -32.5349   23.1019 H   0  0  0  0  0  0
  -25.0176  -33.9601   25.0412 H   0  0  0  0  0  0
  -22.7444  -31.3023   21.3945 H   0  0  0  0  0  0
  -23.3755  -35.9583   23.3287 H   0  0  0  0  0  0
  -24.3585  -36.8901   22.2052 H   0  0  0  0  0  0
  -23.7244  -37.6467   23.6650 H   0  0  0  0  0  0
  -26.1532  -31.4852   20.6243 H   0  0  0  0  0  0
  -26.8684  -30.7771   22.0375 H   0  0  0  0  0  0
  -28.1065  -28.7796   21.2920 H   0  0  0  0  0  0
  -25.9042  -25.9298   18.8999 H   0  0  0  0  0  0
  -23.9903  -27.3639   18.9140 H   0  0  0  0  0  0
  -23.8082  -30.6013   19.4052 H   0  0  0  0  0  0
  -22.7839  -29.2671   19.8313 H   0  0  0  0  0  0
  -25.1300  -36.1883   25.0821 H   0  0  0  0  0  0
  -21.0058  -28.3328   24.1341 H   0  0  0  0  0  0
  -20.5773  -26.2293   23.3615 H   0  0  0  0  0  0
  -21.6674  -26.7440   22.1160 H   0  0  0  0  0  0
  -19.6931  -25.6289   21.1249 H   0  0  0  0  0  0
  -19.6716  -27.3192   20.6755 H   0  0  0  0  0  0
  -17.4257  -26.6680   21.4026 H   0  0  0  0  0  0
  -18.0389  -26.0038   22.9021 H   0  0  0  0  0  0
  -19.7951  -30.7292   24.2208 H   0  0  0  0  0  0
  -17.4993  -31.6235   24.5165 H   0  0  0  0  0  0
  -15.5349  -30.2920   23.7649 H   0  0  0  0  0  0
  -15.8708  -28.0775   22.7081 H   0  0  0  0  0  0
  -24.5900  -30.7118   25.7761 H   0  0  0  0  0  0
  -24.8981  -32.2921   26.4846 H   0  0  0  0  0  0
  -25.8069  -30.8919   27.0212 H   0  0  0  0  0  0
  -26.3001  -29.6669   24.1279 H   0  0  0  0  0  0
  -27.4030  -29.7249   25.4823 H   0  0  0  0  0  0
  -27.8910  -30.4175   23.9558 H   0  0  0  0  0  0
  -27.2644  -33.3604   26.2038 H   0  0  0  0  0  0
  -28.3896  -32.6868   25.0344 H   0  0  0  0  0  0
  -28.0692  -31.8452   26.5453 H   0  0  0  0  0  0
  -28.2592  -38.0088   24.7505 H   0  0  0  0  0  0
  -28.1077  -36.2624   24.6301 H   0  0  0  0  0  0
  -27.2287  -37.1454   25.8868 H   0  0  0  0  0  0
  -20.9409  -29.8811   21.6831 H   0  0  0  0  0  0
  -26.0169  -38.2828   24.1433 H   0  0  0  0  0  0
  -27.5785  -21.5211   19.6876 H   0  0  0  0  0  0
  -28.8034  -18.6279   18.8772 H   0  0  0  0  0  0
  -30.3961  -19.2419   18.5853 H   0  0  0  0  0  0
  -28.8750  -18.8457   22.5333 H   0  0  0  0  0  0
  -27.9426  -18.3830   21.1514 H   0  0  0  0  0  0
  -31.4910  -17.2857   19.4921 H   0  0  0  0  0  0
  -30.2770  -16.7175   18.3936 H   0  0  0  0  0  0
  -28.8331  -16.3210   22.1854 H   0  0  0  0  0  0
  -30.4396  -16.9705   22.2680 H   0  0  0  0  0  0
  -30.7803  -19.4059   21.0232 H   0  0  0  0  0  0
  -30.3669  -24.3511   22.9084 H   0  0  0  0  0  0
  -30.6670  -25.1354   21.3652 H   0  0  0  0  0  0
  -31.7864  -23.9173   21.9602 H   0  0  0  0  0  0
  -26.3134  -23.5479   21.6293 H   0  0  0  0  0  0
  -25.9303  -25.2421   21.4993 H   0  0  0  0  0  0
  -27.2763  -24.7299   22.4997 H   0  0  0  0  0  0
  -27.1774  -24.4385   19.4585 H   0  0  0  0  0  0
  1 25  1  0  0  0
  1 30  2  0  0  0
  1 84  1  0  0  0
  2  3  1  0  0  0
  2 25  1  0  0  0
  2 85  1  0  0  0
  2 86  1  0  0  0
  3  4  1  0  0  0
  3 87  1  0  0  0
  3 88  1  0  0  0
  4  5  1  0  0  0
  4 89  1  0  0  0
  4 90  1  0  0  0
  5  6  1  0  0  0
  5 26  1  0  0  0
  5 91  1  0  0  0
  6 25  1  0  0  0
  6 92  1  0  0  0
  6 93  1  0  0  0
  7  8  2  0  0  0
  7 26  1  0  0  0
  7 29  1  0  0  0
  8  9  1  0  0  0
  8 22  1  0  0  0
  9 10  1  0  0  0
  9 27  2  0  0  0
 10 11  2  0  0  0
 10 15  1  0  0  0
 11 12  1  0  0  0
 11 94  1  0  0  0
 12 13  2  0  0  0
 12 95  1  0  0  0
 13 14  1  0  0  0
 13 31  1  0  0  0
 14 15  2  0  0  0
 14 96  1  0  0  0
 15 97  1  0  0  0
 16 17  2  0  0  0
 16 21  1  0  0  0
 16 31  1  0  0  0
 17 18  1  0  0  0
 17 98  1  0  0  0
 18 19  2  0  0  0
 18 99  1  0  0  0
 19 20  1  0  0  0
 19 24  1  0  0  0
 20 21  2  0  0  0
 20100  1  0  0  0
 21 23  1  0  0  0
 22 28  1  0  0  0
 22 32  2  0  0  0
 26 27  1  0  0  0
 28101  1  0  0  0
 28102  1  0  0  0
 29103  1  0  0  0
 29104  1  0  0  0
 33 34  1  0  0  0
 33 66  1  0  0  0
 33 70  2  0  0  0
 34 36  1  0  0  0
 34 59  1  0  0  0
 34105  1  0  0  0
 35 44  2  0  0  0
 35 45  1  0  0  0
 35 68  1  0  0  0
 36 56  1  0  0  0
 36106  1  0  0  0
 37 39  1  0  0  0
 37 47  1  0  0  0
 37 66  1  0  0  0
 37107  1  0  0  0
 38 43  2  0  0  0
 38 46  1  0  0  0
 38 47  1  0  0  0
 39 64  1  0  0  0
 39 67  2  0  0  0
 40 52  1  0  0  0
 40 53  2  0  0  0
 40 58  1  0  0  0
 41108  1  0  0  0
 41109  1  0  0  0
 41110  1  0  0  0
 41 48  1  0  0  0
 42 43  1  0  0  0
 42 66  1  0  0  0
 42111  1  0  0  0
 42112  1  0  0  0
 43 44  1  0  0  0
 44113  1  0  0  0
 45 46  2  0  0  0
 45114  1  0  0  0
 46115  1  0  0  0
 47116  1  0  0  0
 47117  1  0  0  0
 48 56  1  0  0  0
 48 65  1  0  0  0
 48118  1  0  0  0
 49 50  1  0  0  0
 49 53  1  0  0  0
 49 64  1  0  0  0
 49119  1  0  0  0
 50 51  1  0  0  0
 50120  1  0  0  0
 50121  1  0  0  0
 51 52  1  0  0  0
 51122  1  0  0  0
 51123  1  0  0  0
 52124  1  0  0  0
 52125  1  0  0  0
 53 54  1  0  0  0
 54 55  2  0  0  0
 54126  1  0  0  0
 55 57  1  0  0  0
 55127  1  0  0  0
 56 69  2  0  0  0
 57 58  2  0  0  0
 57128  1  0  0  0
 58129  1  0  0  0
 59 60  1  0  0  0
 59 61  1  0  0  0
 59 62  1  0  0  0
 60130  1  0  0  0
 60131  1  0  0  0
 60132  1  0  0  0
 61133  1  0  0  0
 61134  1  0  0  0
 61135  1  0  0  0
 62136  1  0  0  0
 62137  1  0  0  0
 62138  1  0  0  0
 63 65  1  0  0  0
 63139  1  0  0  0
 63140  1  0  0  0
 63141  1  0  0  0
 64142  1  0  0  0
 65143  1  0  0  0
 68 81  1  0  0  0
 71 72  2  0  0  0
 71 83  1  0  0  0
 71144  1  0  0  0
 72 73  1  0  0  0
 72 81  1  0  0  0
 73 79  1  0  0  0
 73 82  2  0  0  0
 74 76  1  0  0  0
 74 78  1  0  0  0
 74145  1  0  0  0
 74146  1  0  0  0
 75 77  1  0  0  0
 75 78  1  0  0  0
 75147  1  0  0  0
 75148  1  0  0  0
 76 84  1  0  0  0
 76149  1  0  0  0
 76150  1  0  0  0
 77 84  1  0  0  0
 77151  1  0  0  0
 77152  1  0  0  0
 78 83  1  0  0  0
 78153  1  0  0  0
 79154  1  0  0  0
 79155  1  0  0  0
 79156  1  0  0  0
 80157  1  0  0  0
 80158  1  0  0  0
 80159  1  0  0  0
 80 81  1  0  0  0
 81160  1  0  0  0
 82 83  1  0  0  0
M  ISO  4   1 100  68 101  81 101  84 100
M  END
> <chiral flag>
0

> <version>
0

> <s_m_source_file>
/data/baiqing/PycharmProjects/Reinvent-master-3.2/result/LINK_invent/BTK/process_docking_weight1_custom_sum_contain_oxygen_bond_distance_aromatic_linkinvent_7_9_3/rearranged_h_0178.sdf

> <i_m_source_file_index>
37

> <r_mmod_Potential_Energy-OPLS-2005>
629.213439941406

> <r_mmod_Stretch_Energy-OPLS-2005>
207.095794677734

> <r_mmod_Bend_Energy-OPLS-2005>
270.316711425781

> <r_mmod_Torsional_Energy-OPLS-2005>
353.712615966797

> <r_mmod_Improper_Torsional_Energy-OPLS-2005>
16.5987892150879

> <r_mmod_Van_der_Waal_Energy-OPLS-2005>
121.025588989258

> <r_mmod_Electrostatic_Energy-OPLS-2005>
-311.300872802734

> <r_mmod_Solvation_Energy-OPLS-2005>
-206.101181030273

> <b_mmod_Minimization_Converged-OPLS-2005>
0

> <r_mmod_RMS_Derivative-OPLS-2005>
2.62874579429626

$$$$
37
                    3D
 Structure written by MMmdl.
162171  0  0  1  0            999 V2000
  -30.4720  -15.3305   20.3492 C   0  0  0  0  0  0
  -30.4248  -12.8657   19.5078 C   0  0  0  0  0  0
  -29.5255  -12.5794   18.2809 C   0  0  0  0  0  0
  -28.0834  -12.2887   18.7255 C   0  0  0  0  0  0
  -27.6005  -13.2829   19.8095 C   0  0  2  0  0  0
  -28.6381  -13.5201   20.9297 C   0  0  0  0  0  0
  -25.2327  -13.8235   20.5768 C   0  0  0  0  0  0
  -24.1711  -13.0408   20.9291 C   0  0  0  0  0  0
  -24.6395  -11.6921   20.8789 C   0  0  0  0  0  0
  -23.9101  -10.4278   21.0414 C   0  0  0  0  0  0
  -24.3645   -9.4191   21.9189 C   0  0  0  0  0  0
  -23.6308   -8.2232   22.0760 C   0  0  0  0  0  0
  -22.4286   -8.0282   21.3547 C   0  0  0  0  0  0
  -21.9931   -9.0260   20.4648 C   0  0  0  0  0  0
  -22.7277  -10.2125   20.3060 C   0  0  0  0  0  0
  -21.6849   -6.0744   22.5282 C   0  0  0  0  0  0
  -21.4012   -6.5644   23.8218 C   0  0  0  0  0  0
  -21.3653   -5.6795   24.9180 C   0  0  0  0  0  0
  -21.6037   -4.3057   24.7219 C   0  0  0  0  0  0
  -21.8821   -3.8152   23.4343 C   0  0  0  0  0  0
  -21.9191   -4.6974   22.3406 C   0  0  0  0  0  0
  -22.7731  -13.5166   21.1921 C   0  0  0  0  0  0
  -22.1662   -4.2162   21.0979 F   0  0  0  0  0  0
  -21.5624   -3.4539   25.7731 F   0  0  0  0  0  0
  -29.8508  -14.0418   20.2723 N   0  0  0  0  0  0
  -26.2775  -12.9543   20.3219 N   0  0  0  0  0  0
  -25.9330  -11.6641   20.5740 N   0  0  0  0  0  0
  -22.0387  -12.8157   22.0469 N   0  0  0  0  0  0
  -25.3856  -15.1964   20.4188 N   0  0  0  0  0  0
  -31.7029  -15.2225   20.2300 O   0  0  0  0  0  0
  -21.6636   -6.8889   21.4245 O   0  0  0  0  0  0
  -22.3419  -14.5462   20.6745 O   0  0  0  0  0  0
  -24.6676  -31.8209   23.1675 C   0  0  0  0  0  0
  -25.9342  -32.4574   23.8150 C   0  0  1  0  0  0
  -27.2143  -26.8889   20.1851 C   0  0  0  0  0  0
  -25.6006  -33.8394   24.2064 N   0  0  0  0  0  0
  -23.4838  -30.4314   21.5177 C   0  0  2  0  0  0
  -24.9359  -28.8131   20.1104 C   0  0  0  0  0  0
  -22.7693  -29.4434   22.4773 C   0  0  0  0  0  0
  -18.0324  -28.1421   22.8475 C   0  0  0  0  0  0
  -24.1476  -36.7174   23.2651 C   0  0  0  0  0  0
  -26.0560  -30.6137   21.4038 C   0  0  0  0  0  0
  -26.1218  -29.2000   20.7475 C   0  0  0  0  0  0
  -27.2548  -28.2604   20.7603 C   0  0  0  0  0  0
  -26.0000  -26.6683   19.4944 C   0  0  0  0  0  0
  -24.9030  -27.5681   19.4631 C   0  0  0  0  0  0
  -23.7249  -29.7469   20.1443 C   0  0  0  0  0  0
  -25.4129  -36.2956   24.0303 C   0  0  1  0  0  0
  -20.5953  -28.3771   23.1178 C   0  0  2  0  0  0
  -20.6801  -26.9448   22.5405 C   0  0  0  0  0  0
  -19.5774  -26.6384   21.5221 C   0  0  0  0  0  0
  -18.1954  -26.7958   22.1623 C   0  0  0  0  0  0
  -19.1589  -28.8920   23.2808 C   0  0  0  0  0  0
  -18.9505  -30.1511   23.8842 C   0  0  0  0  0  0
  -17.6499  -30.6614   24.0560 C   0  0  0  0  0  0
  -25.9106  -34.9346   23.5001 C   0  0  0  0  0  0
  -16.5385  -29.9104   23.6351 C   0  0  0  0  0  0
  -16.7306  -28.6522   23.0375 C   0  0  0  0  0  0
  -26.4577  -31.6535   25.0693 C   0  0  0  0  0  0
  -25.3692  -31.3818   26.1347 C   0  0  0  0  0  0
  -27.0482  -30.2896   24.6461 C   0  0  0  0  0  0
  -27.6063  -32.4359   25.7488 C   0  0  0  0  0  0
  -27.5554  -37.1748   24.8481 C   0  0  0  0  0  0
  -21.4355  -29.3049   22.3518 N   0  0  0  0  0  0
  -26.4262  -37.3702   23.9425 N   0  0  0  0  0  0
  -24.7573  -30.9835   22.0826 N   0  0  0  0  0  0
  -23.4230  -28.8009   23.3035 O   0  0  0  0  0  0
  -28.1905  -25.7469   20.2661 O   0  0  0  0  0  0
  -26.5703  -34.8888   22.4589 O   0  0  0  0  0  0
  -23.5735  -32.1198   23.6741 O   0  0  0  0  0  0
  -30.6618  -20.9368   20.3236 C   0  0  0  0  0  0
  -29.9464  -19.6768   20.4067 C   0  0  0  0  0  0
  -30.0740  -22.2864   20.2498 C   0  0  0  0  0  0
  -28.5723  -19.9552   20.3344 C   0  0  0  0  0  0
  -28.6576  -22.5588   20.2373 C   0  0  0  0  0  0
  -27.7807  -18.5989   20.4151 C   0  0  0  0  0  0
  -28.4554  -17.1469   20.0008 C   0  0  0  0  0  0
  -30.5853  -18.1210   20.6358 C   0  0  1  0  0  0
  -31.0173  -23.4742   20.1797 C   0  0  0  0  0  0
  -32.1972  -19.1541   22.4305 C   0  0  0  0  0  0
  -30.1630  -17.8594   23.1577 C   0  0  0  0  0  0
  -27.8395  -24.1310   20.0576 C   0  0  0  0  0  0
  -31.2280  -18.0206   22.0561 C   0  0  0  0  0  0
  -27.9815  -21.2842   20.2625 N   0  0  0  0  0  0
  -29.8528  -16.7125   20.4042 N   0  0  0  0  0  0
  -31.4381  -13.0648   19.1567 H   0  0  0  0  0  0
  -30.5079  -11.9850   20.1465 H   0  0  0  0  0  0
  -29.9197  -11.7394   17.7072 H   0  0  0  0  0  0
  -29.5353  -13.4419   17.6123 H   0  0  0  0  0  0
  -28.0614  -11.2745   19.1262 H   0  0  0  0  0  0
  -27.4091  -12.2941   17.8679 H   0  0  0  0  0  0
  -27.4916  -14.2281   19.2773 H   0  0  0  0  0  0
  -28.8330  -12.6095   21.4982 H   0  0  0  0  0  0
  -28.2650  -14.2588   21.6405 H   0  0  0  0  0  0
  -25.2791   -9.5660   22.4768 H   0  0  0  0  0  0
  -24.0011   -7.4613   22.7471 H   0  0  0  0  0  0
  -21.0870   -8.8785   19.8949 H   0  0  0  0  0  0
  -22.3748  -10.9669   19.6169 H   0  0  0  0  0  0
  -21.2007   -7.6153   23.9728 H   0  0  0  0  0  0
  -21.1468   -6.0521   25.9080 H   0  0  0  0  0  0
  -22.0601   -2.7616   23.2834 H   0  0  0  0  0  0
  -22.4029  -11.9829   22.4864 H   0  0  0  0  0  0
  -21.0998  -13.1163   22.2668 H   0  0  0  0  0  0
  -24.6068  -15.8367   20.5291 H   0  0  0  0  0  0
  -26.2220  -15.6419   20.0700 H   0  0  0  0  0  0
  -26.7419  -32.5093   23.0868 H   0  0  0  0  0  0
  -25.0159  -33.9473   25.0218 H   0  0  0  0  0  0
  -22.7996  -31.2649   21.3459 H   0  0  0  0  0  0
  -23.3759  -35.9482   23.3312 H   0  0  0  0  0  0
  -24.3546  -36.8820   22.2063 H   0  0  0  0  0  0
  -23.7201  -37.6351   23.6704 H   0  0  0  0  0  0
  -26.2457  -31.3539   20.6248 H   0  0  0  0  0  0
  -26.9121  -30.6685   22.0642 H   0  0  0  0  0  0
  -28.1482  -28.5571   21.2908 H   0  0  0  0  0  0
  -25.8564  -25.7219   18.9953 H   0  0  0  0  0  0
  -24.0033  -27.2656   18.9442 H   0  0  0  0  0  0
  -23.8854  -30.5166   19.3884 H   0  0  0  0  0  0
  -22.8332  -29.2053   19.8229 H   0  0  0  0  0  0
  -25.1323  -36.1741   25.0791 H   0  0  0  0  0  0
  -21.0041  -28.3374   24.1302 H   0  0  0  0  0  0
  -20.5684  -26.2396   23.3652 H   0  0  0  0  0  0
  -21.6661  -26.7426   22.1205 H   0  0  0  0  0  0
  -19.6933  -25.6282   21.1283 H   0  0  0  0  0  0
  -19.6713  -27.3165   20.6729 H   0  0  0  0  0  0
  -17.4230  -26.6722   21.4014 H   0  0  0  0  0  0
  -18.0332  -26.0109   22.9024 H   0  0  0  0  0  0
  -19.7984  -30.7343   24.2175 H   0  0  0  0  0  0
  -17.5057  -31.6281   24.5184 H   0  0  0  0  0  0
  -15.5384  -30.2998   23.7717 H   0  0  0  0  0  0
  -15.8699  -28.0822   22.7125 H   0  0  0  0  0  0
  -24.5874  -30.7171   25.7658 H   0  0  0  0  0  0
  -24.8881  -32.3036   26.4627 H   0  0  0  0  0  0
  -25.7905  -30.9074   27.0219 H   0  0  0  0  0  0
  -26.3165  -29.6568   24.1431 H   0  0  0  0  0  0
  -27.3969  -29.7267   25.5129 H   0  0  0  0  0  0
  -27.9126  -30.4078   23.9926 H   0  0  0  0  0  0
  -27.2633  -33.3729   26.1889 H   0  0  0  0  0  0
  -28.3956  -32.6815   25.0368 H   0  0  0  0  0  0
  -28.0645  -31.8601   26.5539 H   0  0  0  0  0  0
  -28.2577  -38.0034   24.7506 H   0  0  0  0  0  0
  -28.1031  -36.2564   24.6326 H   0  0  0  0  0  0
  -27.2281  -37.1427   25.8885 H   0  0  0  0  0  0
  -20.9617  -29.8729   21.6628 H   0  0  0  0  0  0
  -26.0101  -38.2752   24.1439 H   0  0  0  0  0  0
  -31.7399  -20.8761   20.3329 H   0  0  0  0  0  0
  -26.8648  -18.7247   19.8368 H   0  0  0  0  0  0
  -27.4500  -18.5173   21.4506 H   0  0  0  0  0  0
  -28.4544  -17.1020   18.9114 H   0  0  0  0  0  0
  -27.7770  -16.3630   20.3218 H   0  0  0  0  0  0
  -31.4083  -18.0923   19.9195 H   0  0  0  0  0  0
  -32.0589  -23.1743   20.2980 H   0  0  0  0  0  0
  -30.7874  -24.1931   20.9666 H   0  0  0  0  0  0
  -30.9199  -23.9806   19.2191 H   0  0  0  0  0  0
  -32.9358  -19.3219   21.6463 H   0  0  0  0  0  0
  -32.7457  -18.9050   23.3390 H   0  0  0  0  0  0
  -31.6774  -20.0907   22.6291 H   0  0  0  0  0  0
  -29.5422  -16.9759   23.0077 H   0  0  0  0  0  0
  -29.5011  -18.7251   23.1967 H   0  0  0  0  0  0
  -30.6265  -17.7544   24.1387 H   0  0  0  0  0  0
  -26.9267  -23.9988   20.6386 H   0  0  0  0  0  0
  -27.5005  -24.0879   19.0229 H   0  0  0  0  0  0
  -31.8348  -17.1149   22.0783 H   0  0  0  0  0  0
  1 25  1  0  0  0
  1 30  2  0  0  0
  1 85  1  0  0  0
  2  3  1  0  0  0
  2 25  1  0  0  0
  2 86  1  0  0  0
  2 87  1  0  0  0
  3  4  1  0  0  0
  3 88  1  0  0  0
  3 89  1  0  0  0
  4  5  1  0  0  0
  4 90  1  0  0  0
  4 91  1  0  0  0
  5  6  1  0  0  0
  5 26  1  0  0  0
  5 92  1  0  0  0
  6 25  1  0  0  0
  6 93  1  0  0  0
  6 94  1  0  0  0
  7  8  2  0  0  0
  7 26  1  0  0  0
  7 29  1  0  0  0
  8  9  1  0  0  0
  8 22  1  0  0  0
  9 10  1  0  0  0
  9 27  2  0  0  0
 10 11  2  0  0  0
 10 15  1  0  0  0
 11 12  1  0  0  0
 11 95  1  0  0  0
 12 13  2  0  0  0
 12 96  1  0  0  0
 13 14  1  0  0  0
 13 31  1  0  0  0
 14 15  2  0  0  0
 14 97  1  0  0  0
 15 98  1  0  0  0
 16 17  2  0  0  0
 16 21  1  0  0  0
 16 31  1  0  0  0
 17 18  1  0  0  0
 17 99  1  0  0  0
 18 19  2  0  0  0
 18100  1  0  0  0
 19 20  1  0  0  0
 19 24  1  0  0  0
 20 21  2  0  0  0
 20101  1  0  0  0
 21 23  1  0  0  0
 22 28  1  0  0  0
 22 32  2  0  0  0
 26 27  1  0  0  0
 28102  1  0  0  0
 28103  1  0  0  0
 29104  1  0  0  0
 29105  1  0  0  0
 33 34  1  0  0  0
 33 66  1  0  0  0
 33 70  2  0  0  0
 34 36  1  0  0  0
 34 59  1  0  0  0
 34106  1  0  0  0
 35 44  2  0  0  0
 35 45  1  0  0  0
 35 68  1  0  0  0
 36 56  1  0  0  0
 36107  1  0  0  0
 37 39  1  0  0  0
 37 47  1  0  0  0
 37 66  1  0  0  0
 37108  1  0  0  0
 38 43  2  0  0  0
 38 46  1  0  0  0
 38 47  1  0  0  0
 39 64  1  0  0  0
 39 67  2  0  0  0
 40 52  1  0  0  0
 40 53  2  0  0  0
 40 58  1  0  0  0
 41109  1  0  0  0
 41110  1  0  0  0
 41111  1  0  0  0
 41 48  1  0  0  0
 42 43  1  0  0  0
 42 66  1  0  0  0
 42112  1  0  0  0
 42113  1  0  0  0
 43 44  1  0  0  0
 44114  1  0  0  0
 45 46  2  0  0  0
 45115  1  0  0  0
 46116  1  0  0  0
 47117  1  0  0  0
 47118  1  0  0  0
 48 56  1  0  0  0
 48 65  1  0  0  0
 48119  1  0  0  0
 49 50  1  0  0  0
 49 53  1  0  0  0
 49 64  1  0  0  0
 49120  1  0  0  0
 50 51  1  0  0  0
 50121  1  0  0  0
 50122  1  0  0  0
 51 52  1  0  0  0
 51123  1  0  0  0
 51124  1  0  0  0
 52125  1  0  0  0
 52126  1  0  0  0
 53 54  1  0  0  0
 54 55  2  0  0  0
 54127  1  0  0  0
 55 57  1  0  0  0
 55128  1  0  0  0
 56 69  2  0  0  0
 57 58  2  0  0  0
 57129  1  0  0  0
 58130  1  0  0  0
 59 60  1  0  0  0
 59 61  1  0  0  0
 59 62  1  0  0  0
 60131  1  0  0  0
 60132  1  0  0  0
 60133  1  0  0  0
 61134  1  0  0  0
 61135  1  0  0  0
 61136  1  0  0  0
 62137  1  0  0  0
 62138  1  0  0  0
 62139  1  0  0  0
 63 65  1  0  0  0
 63140  1  0  0  0
 63141  1  0  0  0
 63142  1  0  0  0
 64143  1  0  0  0
 65144  1  0  0  0
 68 82  1  0  0  0
 71 72  2  0  0  0
 71 73  1  0  0  0
 71145  1  0  0  0
 72 74  1  0  0  0
 72 78  1  0  0  0
 73 75  2  0  0  0
 73 79  1  0  0  0
 74 76  1  0  0  0
 74 84  2  0  0  0
 75 82  1  0  0  0
 75 84  1  0  0  0
 76 77  1  0  0  0
 76146  1  0  0  0
 76147  1  0  0  0
 77 85  1  0  0  0
 77148  1  0  0  0
 77149  1  0  0  0
 78 83  1  0  0  0
 78 85  1  0  0  0
 78150  1  0  0  0
 79151  1  0  0  0
 79152  1  0  0  0
 79153  1  0  0  0
 80154  1  0  0  0
 80155  1  0  0  0
 80156  1  0  0  0
 80 83  1  0  0  0
 81 83  1  0  0  0
 81157  1  0  0  0
 81158  1  0  0  0
 81159  1  0  0  0
 82160  1  0  0  0
 82161  1  0  0  0
 83162  1  0  0  0
M  ISO  4   1 100  68 101  82 101  85 100
M  END
> <chiral flag>
0

> <version>
0

> <s_m_source_file>
/data/baiqing/PycharmProjects/Reinvent-master-3.2/result/LINK_invent/BTK/process_docking_weight1_custom_sum_contain_oxygen_bond_distance_aromatic_linkinvent_7_9_3/rearranged_h_0178.sdf

> <i_m_source_file_index>
38

> <r_mmod_Potential_Energy-OPLS-2005>
1351.60693359375

> <r_mmod_Stretch_Energy-OPLS-2005>
559.228454589844

> <r_mmod_Bend_Energy-OPLS-2005>
470.544403076172

> <r_mmod_Torsional_Energy-OPLS-2005>
295.191009521484

> <r_mmod_Improper_Torsional_Energy-OPLS-2005>
3.98442482948303

> <r_mmod_Van_der_Waal_Energy-OPLS-2005>
127.249572753906

> <r_mmod_Electrostatic_Energy-OPLS-2005>
-416.055969238281

> <r_mmod_Solvation_Energy-OPLS-2005>
-214.479629516602

> <b_mmod_Minimization_Converged-OPLS-2005>
0

> <r_mmod_RMS_Derivative-OPLS-2005>
1.37597227096558

$$$$
38
                    3D
 Structure written by MMmdl.
156164  0  0  1  0            999 V2000
  -30.5855  -14.9567   20.4985 C   0  0  0  0  0  0
  -30.4520  -12.6038   19.5412 C   0  0  0  0  0  0
  -29.5295  -12.5413   18.3023 C   0  0  0  0  0  0
  -28.0833  -12.2781   18.7430 C   0  0  0  0  0  0
  -27.6458  -13.2437   19.8717 C   0  0  2  0  0  0
  -28.6845  -13.2882   21.0194 C   0  0  0  0  0  0
  -25.2528  -13.8208   20.5765 C   0  0  0  0  0  0
  -24.1827  -13.0439   20.9208 C   0  0  0  0  0  0
  -24.6433  -11.6917   20.8786 C   0  0  0  0  0  0
  -23.9112  -10.4286   21.0434 C   0  0  0  0  0  0
  -24.3653   -9.4200   21.9204 C   0  0  0  0  0  0
  -23.6309   -8.2254   22.0793 C   0  0  0  0  0  0
  -22.4290   -8.0311   21.3571 C   0  0  0  0  0  0
  -21.9935   -9.0291   20.4689 C   0  0  0  0  0  0
  -22.7283  -10.2152   20.3084 C   0  0  0  0  0  0
  -21.6847   -6.0766   22.5274 C   0  0  0  0  0  0
  -21.4007   -6.5662   23.8215 C   0  0  0  0  0  0
  -21.3651   -5.6819   24.9182 C   0  0  0  0  0  0
  -21.6034   -4.3079   24.7228 C   0  0  0  0  0  0
  -21.8831   -3.8178   23.4350 C   0  0  0  0  0  0
  -21.9184   -4.6991   22.3414 C   0  0  0  0  0  0
  -22.7824  -13.5201   21.1848 C   0  0  0  0  0  0
  -22.1661   -4.2176   21.0992 F   0  0  0  0  0  0
  -21.5623   -3.4554   25.7741 F   0  0  0  0  0  0
  -29.9683  -13.7020   20.4385 N   0  0  0  0  0  0
  -26.2985  -12.9440   20.3439 N   0  0  0  0  0  0
  -25.9373  -11.6558   20.5879 N   0  0  0  0  0  0
  -22.0518  -12.8150   22.0423 N   0  0  0  0  0  0
  -25.4259  -15.1932   20.4128 N   0  0  0  0  0  0
  -31.7276  -15.0235   20.0252 O   0  0  0  0  0  0
  -21.6634   -6.8907   21.4256 O   0  0  0  0  0  0
  -22.3495  -14.5505   20.6729 O   0  0  0  0  0  0
  -24.6424  -31.8428   23.1918 C   0  0  0  0  0  0
  -25.9176  -32.4683   23.8323 C   0  0  1  0  0  0
  -27.1878  -27.1064   20.1430 C   0  0  0  0  0  0
  -25.5876  -33.8476   24.2229 N   0  0  0  0  0  0
  -23.4529  -30.4648   21.5365 C   0  0  2  0  0  0
  -24.8972  -28.9027   20.1052 C   0  0  0  0  0  0
  -22.7619  -29.4500   22.4862 C   0  0  0  0  0  0
  -18.0348  -28.1337   22.8467 C   0  0  0  0  0  0
  -24.1524  -36.7287   23.2654 C   0  0  0  0  0  0
  -26.0106  -30.7076   21.4005 C   0  0  0  0  0  0
  -26.0755  -29.3181   20.7370 C   0  0  0  0  0  0
  -27.2185  -28.4325   20.7466 C   0  0  0  0  0  0
  -25.9948  -26.8207   19.4404 C   0  0  0  0  0  0
  -24.8739  -27.6728   19.4388 C   0  0  0  0  0  0
  -23.6809  -29.8072   20.1515 C   0  0  0  0  0  0
  -25.4131  -36.3039   24.0343 C   0  0  1  0  0  0
  -20.5981  -28.3681   23.1258 C   0  0  2  0  0  0
  -20.6868  -26.9390   22.5384 C   0  0  0  0  0  0
  -19.5827  -26.6388   21.5187 C   0  0  0  0  0  0
  -18.1995  -26.7912   22.1551 C   0  0  0  0  0  0
  -19.1593  -28.8819   23.2868 C   0  0  0  0  0  0
  -18.9435  -30.1436   23.8893 C   0  0  0  0  0  0
  -17.6416  -30.6510   24.0558 C   0  0  0  0  0  0
  -25.9083  -34.9392   23.5121 C   0  0  0  0  0  0
  -16.5335  -29.8990   23.6307 C   0  0  0  0  0  0
  -16.7332  -28.6444   23.0274 C   0  0  0  0  0  0
  -26.4509  -31.6504   25.0721 C   0  0  0  0  0  0
  -25.3711  -31.3589   26.1424 C   0  0  0  0  0  0
  -27.0365  -30.2905   24.6234 C   0  0  0  0  0  0
  -27.6120  -32.4233   25.7418 C   0  0  0  0  0  0
  -27.5602  -37.1801   24.8471 C   0  0  0  0  0  0
  -21.4316  -29.2969   22.3584 N   0  0  0  0  0  0
  -26.4315  -37.3741   23.9416 N   0  0  0  0  0  0
  -24.7230  -31.0273   22.0972 N   0  0  0  0  0  0
  -23.4255  -28.8083   23.3029 O   0  0  0  0  0  0
  -28.2073  -26.0878   20.2602 O   0  0  0  0  0  0
  -26.5703  -34.8867   22.4726 O   0  0  0  0  0  0
  -23.5529  -32.1259   23.7147 O   0  0  0  0  0  0
  -29.8359  -17.3671   23.2591 C   0  0  0  0  0  0
  -28.6085  -17.5770   22.3913 C   0  0  0  0  0  0
  -30.5839  -16.2303   22.5591 C   0  0  0  0  0  0
  -29.1411  -17.3877   20.9624 C   0  0  1  0  0  0
  -29.5896  -18.9322   20.3931 C   0  0  0  0  0  0
  -28.5292  -23.1665   20.6703 C   0  0  0  0  0  0
  -28.8272  -21.6493   19.9586 C   0  0  0  0  0  0
  -27.9958  -24.5745   19.8926 C   0  0  0  0  0  0
  -30.0521  -16.0929   21.1871 N   0  0  0  0  0  0
  -28.7568  -20.2557   20.7245 N   0  3  0  0  0  0
  -31.4833  -12.7526   19.2144 H   0  0  0  0  0  0
  -30.4587  -11.6546   20.0803 H   0  0  0  0  0  0
  -29.8674  -11.7680   17.6119 H   0  0  0  0  0  0
  -29.5790  -13.4887   17.7648 H   0  0  0  0  0  0
  -28.0485  -11.2523   19.1155 H   0  0  0  0  0  0
  -27.3962  -12.3138   17.9009 H   0  0  0  0  0  0
  -27.6118  -14.2363   19.4212 H   0  0  0  0  0  0
  -28.7753  -12.3149   21.5069 H   0  0  0  0  0  0
  -28.3766  -13.9958   21.7904 H   0  0  0  0  0  0
  -25.2792   -9.5652   22.4774 H   0  0  0  0  0  0
  -23.9994   -7.4657   22.7532 H   0  0  0  0  0  0
  -21.0851   -8.8833   19.9006 H   0  0  0  0  0  0
  -22.3754  -10.9707   19.6214 H   0  0  0  0  0  0
  -21.2007   -7.6166   23.9722 H   0  0  0  0  0  0
  -21.1450   -6.0547   25.9078 H   0  0  0  0  0  0
  -22.0615   -2.7627   23.2842 H   0  0  0  0  0  0
  -22.4084  -11.9648   22.4521 H   0  0  0  0  0  0
  -21.1263  -13.1294   22.2934 H   0  0  0  0  0  0
  -24.6682  -15.8579   20.5309 H   0  0  0  0  0  0
  -26.2804  -15.6200   20.0804 H   0  0  0  0  0  0
  -26.7254  -32.5286   23.1077 H   0  0  0  0  0  0
  -24.9811  -33.9595   25.0217 H   0  0  0  0  0  0
  -22.7578  -31.2909   21.3876 H   0  0  0  0  0  0
  -23.3770  -35.9645   23.3289 H   0  0  0  0  0  0
  -24.3675  -36.8927   22.2095 H   0  0  0  0  0  0
  -23.7285  -37.6486   23.6685 H   0  0  0  0  0  0
  -26.1634  -31.4706   20.6363 H   0  0  0  0  0  0
  -26.8868  -30.7624   22.0341 H   0  0  0  0  0  0
  -28.1080  -28.7319   21.2820 H   0  0  0  0  0  0
  -25.8717  -25.8999   18.8946 H   0  0  0  0  0  0
  -23.9835  -27.3595   18.9130 H   0  0  0  0  0  0
  -23.8178  -30.5854   19.3984 H   0  0  0  0  0  0
  -22.7958  -29.2505   19.8422 H   0  0  0  0  0  0
  -25.1320  -36.1930   25.0837 H   0  0  0  0  0  0
  -21.0012  -28.3254   24.1402 H   0  0  0  0  0  0
  -20.5798  -26.2247   23.3562 H   0  0  0  0  0  0
  -21.6738  -26.7478   22.1136 H   0  0  0  0  0  0
  -19.7002  -25.6307   21.1142 H   0  0  0  0  0  0
  -19.6751  -27.3249   20.6760 H   0  0  0  0  0  0
  -17.4315  -26.6754   21.3861 H   0  0  0  0  0  0
  -18.0292  -25.9981   22.8839 H   0  0  0  0  0  0
  -19.7871  -30.7323   24.2201 H   0  0  0  0  0  0
  -17.4905  -31.6162   24.5175 H   0  0  0  0  0  0
  -15.5301  -30.2832   23.7590 H   0  0  0  0  0  0
  -15.8797  -28.0793   22.6839 H   0  0  0  0  0  0
  -24.5974  -30.6853   25.7711 H   0  0  0  0  0  0
  -24.8761  -32.2697   26.4815 H   0  0  0  0  0  0
  -25.8026  -30.8774   27.0219 H   0  0  0  0  0  0
  -26.2942  -29.6622   24.1292 H   0  0  0  0  0  0
  -27.4103  -29.7169   25.4732 H   0  0  0  0  0  0
  -27.8824  -30.4189   23.9474 H   0  0  0  0  0  0
  -27.2831  -33.3604   26.1924 H   0  0  0  0  0  0
  -28.3904  -32.6656   25.0162 H   0  0  0  0  0  0
  -28.0821  -31.8347   26.5325 H   0  0  0  0  0  0
  -28.2593  -38.0106   24.7484 H   0  0  0  0  0  0
  -28.1101  -36.2631   24.6332 H   0  0  0  0  0  0
  -27.2319  -37.1515   25.8866 H   0  0  0  0  0  0
  -20.9543  -29.8619   21.6698 H   0  0  0  0  0  0
  -26.0184  -38.2817   24.1389 H   0  0  0  0  0  0
  -29.5930  -17.1269   24.2959 H   0  0  0  0  0  0
  -30.4438  -18.2742   23.2850 H   0  0  0  0  0  0
  -28.1255  -18.5339   22.5815 H   0  0  0  0  0  0
  -27.8743  -16.8003   22.6207 H   0  0  0  0  0  0
  -31.6573  -16.4260   22.5573 H   0  0  0  0  0  0
  -30.4370  -15.3017   23.1143 H   0  0  0  0  0  0
  -28.3144  -17.0537   20.3303 H   0  0  0  0  0  0
  -30.6084  -19.1345   20.7191 H   0  0  0  0  0  0
  -29.6294  -18.8695   19.3059 H   0  0  0  0  0  0
  -29.4438  -23.4390   21.1937 H   0  0  0  0  0  0
  -27.8206  -22.9930   21.4795 H   0  0  0  0  0  0
  -28.1414  -21.5493   19.1151 H   0  0  0  0  0  0
  -29.8123  -21.6918   19.4932 H   0  0  0  0  0  0
  -26.9210  -24.4094   19.8610 H   0  0  0  0  0  0
  -28.3077  -24.4907   18.8529 H   0  0  0  0  0  0
  -28.9647  -20.4563   21.6880 H   0  0  0  0  0  0
  -27.7845  -19.9918   20.6841 H   0  0  0  0  0  0
  1 25  1  0  0  0
  1 30  2  0  0  0
  1 79  1  0  0  0
  2  3  1  0  0  0
  2 25  1  0  0  0
  2 81  1  0  0  0
  2 82  1  0  0  0
  3  4  1  0  0  0
  3 83  1  0  0  0
  3 84  1  0  0  0
  4  5  1  0  0  0
  4 85  1  0  0  0
  4 86  1  0  0  0
  5  6  1  0  0  0
  5 26  1  0  0  0
  5 87  1  0  0  0
  6 25  1  0  0  0
  6 88  1  0  0  0
  6 89  1  0  0  0
  7  8  2  0  0  0
  7 26  1  0  0  0
  7 29  1  0  0  0
  8  9  1  0  0  0
  8 22  1  0  0  0
  9 10  1  0  0  0
  9 27  2  0  0  0
 10 11  2  0  0  0
 10 15  1  0  0  0
 11 12  1  0  0  0
 11 90  1  0  0  0
 12 13  2  0  0  0
 12 91  1  0  0  0
 13 14  1  0  0  0
 13 31  1  0  0  0
 14 15  2  0  0  0
 14 92  1  0  0  0
 15 93  1  0  0  0
 16 17  2  0  0  0
 16 21  1  0  0  0
 16 31  1  0  0  0
 17 18  1  0  0  0
 17 94  1  0  0  0
 18 19  2  0  0  0
 18 95  1  0  0  0
 19 20  1  0  0  0
 19 24  1  0  0  0
 20 21  2  0  0  0
 20 96  1  0  0  0
 21 23  1  0  0  0
 22 28  1  0  0  0
 22 32  2  0  0  0
 26 27  1  0  0  0
 28 97  1  0  0  0
 28 98  1  0  0  0
 29 99  1  0  0  0
 29100  1  0  0  0
 33 34  1  0  0  0
 33 66  1  0  0  0
 33 70  2  0  0  0
 34 36  1  0  0  0
 34 59  1  0  0  0
 34101  1  0  0  0
 35 44  2  0  0  0
 35 45  1  0  0  0
 35 68  1  0  0  0
 36 56  1  0  0  0
 36102  1  0  0  0
 37 39  1  0  0  0
 37 47  1  0  0  0
 37 66  1  0  0  0
 37103  1  0  0  0
 38 43  2  0  0  0
 38 46  1  0  0  0
 38 47  1  0  0  0
 39 64  1  0  0  0
 39 67  2  0  0  0
 40 52  1  0  0  0
 40 53  2  0  0  0
 40 58  1  0  0  0
 41104  1  0  0  0
 41105  1  0  0  0
 41106  1  0  0  0
 41 48  1  0  0  0
 42 43  1  0  0  0
 42 66  1  0  0  0
 42107  1  0  0  0
 42108  1  0  0  0
 43 44  1  0  0  0
 44109  1  0  0  0
 45 46  2  0  0  0
 45110  1  0  0  0
 46111  1  0  0  0
 47112  1  0  0  0
 47113  1  0  0  0
 48 56  1  0  0  0
 48 65  1  0  0  0
 48114  1  0  0  0
 49 50  1  0  0  0
 49 53  1  0  0  0
 49 64  1  0  0  0
 49115  1  0  0  0
 50 51  1  0  0  0
 50116  1  0  0  0
 50117  1  0  0  0
 51 52  1  0  0  0
 51118  1  0  0  0
 51119  1  0  0  0
 52120  1  0  0  0
 52121  1  0  0  0
 53 54  1  0  0  0
 54 55  2  0  0  0
 54122  1  0  0  0
 55 57  1  0  0  0
 55123  1  0  0  0
 56 69  2  0  0  0
 57 58  2  0  0  0
 57124  1  0  0  0
 58125  1  0  0  0
 59 60  1  0  0  0
 59 61  1  0  0  0
 59 62  1  0  0  0
 60126  1  0  0  0
 60127  1  0  0  0
 60128  1  0  0  0
 61129  1  0  0  0
 61130  1  0  0  0
 61131  1  0  0  0
 62132  1  0  0  0
 62133  1  0  0  0
 62134  1  0  0  0
 63 65  1  0  0  0
 63135  1  0  0  0
 63136  1  0  0  0
 63137  1  0  0  0
 64138  1  0  0  0
 65139  1  0  0  0
 68 78  1  0  0  0
 71 72  1  0  0  0
 71 73  1  0  0  0
 71140  1  0  0  0
 71141  1  0  0  0
 72 74  1  0  0  0
 72142  1  0  0  0
 72143  1  0  0  0
 73 79  1  0  0  0
 73144  1  0  0  0
 73145  1  0  0  0
 74 75  1  0  0  0
 74 79  1  0  0  0
 74146  1  0  0  0
 75 80  1  0  0  0
 75147  1  0  0  0
 75148  1  0  0  0
 76 77  1  0  0  0
 76 78  1  0  0  0
 76149  1  0  0  0
 76150  1  0  0  0
 77 80  1  0  0  0
 77151  1  0  0  0
 77152  1  0  0  0
 78153  1  0  0  0
 78154  1  0  0  0
 80155  1  0  0  0
 80156  1  0  0  0
M  CHG  1  80   1
M  ISO  4   1 100  68 101  78 101  79 100
M  END
> <chiral flag>
0

> <version>
0

> <s_m_source_file>
/data/baiqing/PycharmProjects/Reinvent-master-3.2/result/LINK_invent/BTK/process_docking_weight1_custom_sum_contain_oxygen_bond_distance_aromatic_linkinvent_7_9_3/rearranged_h_0178.sdf

> <i_m_source_file_index>
39

> <r_mmod_Potential_Energy-OPLS-2005>
716.52685546875

> <r_mmod_Stretch_Energy-OPLS-2005>
300.230560302734

> <r_mmod_Bend_Energy-OPLS-2005>
351.753692626953

> <r_mmod_Torsional_Energy-OPLS-2005>
390.164276123047

> <r_mmod_Improper_Torsional_Energy-OPLS-2005>
3.23606491088867

> <r_mmod_Van_der_Waal_Energy-OPLS-2005>
113.151794433594

> <r_mmod_Electrostatic_Energy-OPLS-2005>
-184.018478393555

> <r_mmod_Solvation_Energy-OPLS-2005>
-470.888549804688

> <b_mmod_Minimization_Converged-OPLS-2005>
0

> <r_mmod_RMS_Derivative-OPLS-2005>
6.3234806060791

$$$$
39
                    3D
 Structure written by MMmdl.
148156  0  0  1  0            999 V2000
  -30.4622  -15.2103   20.3762 C   0  0  0  0  0  0
  -30.4364  -12.7689   19.5188 C   0  0  0  0  0  0
  -29.5303  -12.5605   18.2803 C   0  0  0  0  0  0
  -28.0768  -12.2959   18.7126 C   0  0  0  0  0  0
  -27.6126  -13.2698   19.8244 C   0  0  2  0  0  0
  -28.6480  -13.4237   20.9577 C   0  0  0  0  0  0
  -25.2400  -13.8233   20.5749 C   0  0  0  0  0  0
  -24.1751  -13.0435   20.9271 C   0  0  0  0  0  0
  -24.6400  -11.6930   20.8794 C   0  0  0  0  0  0
  -23.9099  -10.4293   21.0432 C   0  0  0  0  0  0
  -24.3647   -9.4202   21.9203 C   0  0  0  0  0  0
  -23.6313   -8.2238   22.0760 C   0  0  0  0  0  0
  -22.4290   -8.0293   21.3551 C   0  0  0  0  0  0
  -21.9941   -9.0270   20.4650 C   0  0  0  0  0  0
  -22.7280  -10.2142   20.3067 C   0  0  0  0  0  0
  -21.6850   -6.0759   22.5294 C   0  0  0  0  0  0
  -21.4010   -6.5663   23.8231 C   0  0  0  0  0  0
  -21.3651   -5.6806   24.9190 C   0  0  0  0  0  0
  -21.6033   -4.3069   24.7231 C   0  0  0  0  0  0
  -21.8815   -3.8169   23.4353 C   0  0  0  0  0  0
  -21.9189   -4.6986   22.3416 C   0  0  0  0  0  0
  -22.7775  -13.5196   21.1915 C   0  0  0  0  0  0
  -22.1664   -4.2179   21.0989 F   0  0  0  0  0  0
  -21.5617   -3.4549   25.7740 F   0  0  0  0  0  0
  -29.8852  -13.9144   20.3295 N   0  0  0  0  0  0
  -26.2821  -12.9499   20.3222 N   0  0  0  0  0  0
  -25.9327  -11.6611   20.5739 N   0  0  0  0  0  0
  -22.0422  -12.8178   22.0461 N   0  0  0  0  0  0
  -25.4046  -15.1961   20.4182 N   0  0  0  0  0  0
  -31.6837  -15.2083   20.1714 O   0  0  0  0  0  0
  -21.6638   -6.8903   21.4254 O   0  0  0  0  0  0
  -22.3463  -14.5505   20.6760 O   0  0  0  0  0  0
  -24.6619  -31.8255   23.1709 C   0  0  0  0  0  0
  -25.9297  -32.4605   23.8173 C   0  0  1  0  0  0
  -27.2109  -26.9478   20.1718 C   0  0  0  0  0  0
  -25.5969  -33.8422   24.2083 N   0  0  0  0  0  0
  -23.4745  -30.4405   21.5216 C   0  0  2  0  0  0
  -24.9248  -28.8345   20.1106 C   0  0  0  0  0  0
  -22.7662  -29.4464   22.4786 C   0  0  0  0  0  0
  -18.0322  -28.1430   22.8486 C   0  0  0  0  0  0
  -24.1486  -36.7195   23.2648 C   0  0  0  0  0  0
  -26.0449  -30.6384   21.3994 C   0  0  0  0  0  0
  -26.1108  -29.2316   20.7416 C   0  0  0  0  0  0
  -27.2495  -28.3093   20.7492 C   0  0  0  0  0  0
  -25.9934  -26.7016   19.4953 C   0  0  0  0  0  0
  -24.8906  -27.5885   19.4695 C   0  0  0  0  0  0
  -23.7113  -29.7608   20.1466 C   0  0  0  0  0  0
  -25.4126  -36.2979   24.0316 C   0  0  1  0  0  0
  -20.5950  -28.3765   23.1202 C   0  0  2  0  0  0
  -20.6810  -26.9450   22.5408 C   0  0  0  0  0  0
  -19.5773  -26.6395   21.5227 C   0  0  0  0  0  0
  -18.1952  -26.7966   22.1636 C   0  0  0  0  0  0
  -19.1584  -28.8912   23.2829 C   0  0  0  0  0  0
  -18.9499  -30.1506   23.8856 C   0  0  0  0  0  0
  -17.6494  -30.6616   24.0573 C   0  0  0  0  0  0
  -25.9096  -34.9364   23.5013 C   0  0  0  0  0  0
  -16.5379  -29.9117   23.6367 C   0  0  0  0  0  0
  -16.7303  -28.6540   23.0378 C   0  0  0  0  0  0
  -26.4545  -31.6544   25.0694 C   0  0  0  0  0  0
  -25.3668  -31.3811   26.1347 C   0  0  0  0  0  0
  -27.0438  -30.2917   24.6420 C   0  0  0  0  0  0
  -27.6041  -32.4362   25.7479 C   0  0  0  0  0  0
  -27.5567  -37.1749   24.8474 C   0  0  0  0  0  0
  -21.4327  -29.3045   22.3537 N   0  0  0  0  0  0
  -26.4267  -37.3719   23.9432 N   0  0  0  0  0  0
  -24.7487  -30.9945   22.0837 N   0  0  0  0  0  0
  -23.4225  -28.8038   23.3017 O   0  0  0  0  0  0
  -28.1989  -25.8351   20.2467 O   0  0  0  0  0  0
  -26.5707  -34.8900   22.4613 O   0  0  0  0  0  0
  -23.5688  -32.1216   23.6807 O   0  0  0  0  0  0
  -28.7462  -20.4575   21.3547 C   0  0  0  0  0  0
  -29.3670  -19.6487   20.3072 C   0  0  0  0  0  0
  -29.2259  -21.8867   19.1614 C   0  0  0  0  0  0
  -28.6048  -22.6989   20.2136 C   0  0  0  0  0  0
  -29.5186  -22.5081   17.8095 C   0  0  0  0  0  0
  -30.1336  -18.0822   20.4093 C   0  0  0  0  0  0
  -27.8133  -24.2541   20.0590 C   0  0  0  0  0  0
  -28.3797  -21.8399   21.2997 N   0  0  0  0  0  0
  -29.5912  -20.5060   19.2236 N   0  0  0  0  0  0
  -29.7162  -16.4814   20.4493 N   0  0  0  0  0  0
  -31.4584  -12.9614   19.1906 H   0  0  0  0  0  0
  -30.4876  -11.8579   20.1167 H   0  0  0  0  0  0
  -29.8981  -11.7306   17.6750 H   0  0  0  0  0  0
  -29.5680  -13.4455   17.6434 H   0  0  0  0  0  0
  -28.0304  -11.2723   19.0864 H   0  0  0  0  0  0
  -27.4046  -12.3384   17.8547 H   0  0  0  0  0  0
  -27.5342  -14.2410   19.3339 H   0  0  0  0  0  0
  -28.8036  -12.4804   21.4843 H   0  0  0  0  0  0
  -28.2982  -14.1434   21.7000 H   0  0  0  0  0  0
  -25.2785   -9.5672   22.4793 H   0  0  0  0  0  0
  -24.0024   -7.4615   22.7470 H   0  0  0  0  0  0
  -21.0877   -8.8792   19.8953 H   0  0  0  0  0  0
  -22.3746  -10.9689   19.6185 H   0  0  0  0  0  0
  -21.2008   -7.6172   23.9747 H   0  0  0  0  0  0
  -21.1466   -6.0536   25.9091 H   0  0  0  0  0  0
  -22.0593   -2.7634   23.2841 H   0  0  0  0  0  0
  -22.4047  -11.9840   22.4851 H   0  0  0  0  0  0
  -21.1034  -13.1192   22.2657 H   0  0  0  0  0  0
  -24.6314  -15.8449   20.5200 H   0  0  0  0  0  0
  -26.2420  -15.6341   20.0585 H   0  0  0  0  0  0
  -26.7363  -32.5143   23.0884 H   0  0  0  0  0  0
  -25.0094  -33.9510   25.0220 H   0  0  0  0  0  0
  -22.7874  -31.2719   21.3527 H   0  0  0  0  0  0
  -23.3773  -35.9498   23.3293 H   0  0  0  0  0  0
  -24.3568  -36.8849   22.2062 H   0  0  0  0  0  0
  -23.7216  -37.6370   23.6708 H   0  0  0  0  0  0
  -26.2254  -31.3819   20.6222 H   0  0  0  0  0  0
  -26.9052  -30.6895   22.0553 H   0  0  0  0  0  0
  -28.1460  -28.6111   21.2720 H   0  0  0  0  0  0
  -25.8463  -25.7543   18.9995 H   0  0  0  0  0  0
  -23.9884  -27.2779   18.9611 H   0  0  0  0  0  0
  -23.8669  -30.5308   19.3898 H   0  0  0  0  0  0
  -22.8208  -29.2162   19.8280 H   0  0  0  0  0  0
  -25.1321  -36.1764   25.0806 H   0  0  0  0  0  0
  -21.0038  -28.3359   24.1321 H   0  0  0  0  0  0
  -20.5717  -26.2375   23.3640 H   0  0  0  0  0  0
  -21.6671  -26.7458   22.1186 H   0  0  0  0  0  0
  -19.6950  -25.6299   21.1278 H   0  0  0  0  0  0
  -19.6717  -27.3197   20.6749 H   0  0  0  0  0  0
  -17.4229  -26.6717   21.4030 H   0  0  0  0  0  0
  -18.0335  -26.0112   22.9032 H   0  0  0  0  0  0
  -19.7972  -30.7343   24.2192 H   0  0  0  0  0  0
  -17.5054  -31.6292   24.5183 H   0  0  0  0  0  0
  -15.5384  -30.3017   23.7719 H   0  0  0  0  0  0
  -15.8698  -28.0854   22.7120 H   0  0  0  0  0  0
  -24.5858  -30.7155   25.7660 H   0  0  0  0  0  0
  -24.8833  -32.3009   26.4642 H   0  0  0  0  0  0
  -25.7881  -30.9062   27.0212 H   0  0  0  0  0  0
  -26.3103  -29.6598   24.1398 H   0  0  0  0  0  0
  -27.3948  -29.7284   25.5077 H   0  0  0  0  0  0
  -27.9060  -30.4124   23.9860 H   0  0  0  0  0  0
  -27.2610  -33.3718   26.1909 H   0  0  0  0  0  0
  -28.3896  -32.6833   25.0326 H   0  0  0  0  0  0
  -28.0647  -31.8577   26.5486 H   0  0  0  0  0  0
  -28.2569  -38.0060   24.7533 H   0  0  0  0  0  0
  -28.1067  -36.2588   24.6274 H   0  0  0  0  0  0
  -27.2287  -37.1360   25.8876 H   0  0  0  0  0  0
  -20.9572  -29.8716   21.6655 H   0  0  0  0  0  0
  -26.0107  -38.2772   24.1461 H   0  0  0  0  0  0
  -28.5637  -19.9882   22.3114 H   0  0  0  0  0  0
  -29.1676  -23.5361   17.7379 H   0  0  0  0  0  0
  -29.0399  -21.9325   17.0158 H   0  0  0  0  0  0
  -30.5930  -22.5149   17.6237 H   0  0  0  0  0  0
  -30.7416  -18.1869   21.3081 H   0  0  0  0  0  0
  -30.8690  -18.1155   19.6049 H   0  0  0  0  0  0
  -26.9306  -24.1385   20.6886 H   0  0  0  0  0  0
  -27.4141  -24.2070   19.0471 H   0  0  0  0  0  0
  -28.7232  -16.3394   20.5550 H   0  0  0  0  0  0
  1 25  1  0  0  0
  1 30  2  0  0  0
  1 80  1  0  0  0
  2  3  1  0  0  0
  2 25  1  0  0  0
  2 81  1  0  0  0
  2 82  1  0  0  0
  3  4  1  0  0  0
  3 83  1  0  0  0
  3 84  1  0  0  0
  4  5  1  0  0  0
  4 85  1  0  0  0
  4 86  1  0  0  0
  5  6  1  0  0  0
  5 26  1  0  0  0
  5 87  1  0  0  0
  6 25  1  0  0  0
  6 88  1  0  0  0
  6 89  1  0  0  0
  7  8  2  0  0  0
  7 26  1  0  0  0
  7 29  1  0  0  0
  8  9  1  0  0  0
  8 22  1  0  0  0
  9 10  1  0  0  0
  9 27  2  0  0  0
 10 11  2  0  0  0
 10 15  1  0  0  0
 11 12  1  0  0  0
 11 90  1  0  0  0
 12 13  2  0  0  0
 12 91  1  0  0  0
 13 14  1  0  0  0
 13 31  1  0  0  0
 14 15  2  0  0  0
 14 92  1  0  0  0
 15 93  1  0  0  0
 16 17  2  0  0  0
 16 21  1  0  0  0
 16 31  1  0  0  0
 17 18  1  0  0  0
 17 94  1  0  0  0
 18 19  2  0  0  0
 18 95  1  0  0  0
 19 20  1  0  0  0
 19 24  1  0  0  0
 20 21  2  0  0  0
 20 96  1  0  0  0
 21 23  1  0  0  0
 22 28  1  0  0  0
 22 32  2  0  0  0
 26 27  1  0  0  0
 28 97  1  0  0  0
 28 98  1  0  0  0
 29 99  1  0  0  0
 29100  1  0  0  0
 33 34  1  0  0  0
 33 66  1  0  0  0
 33 70  2  0  0  0
 34 36  1  0  0  0
 34 59  1  0  0  0
 34101  1  0  0  0
 35 44  2  0  0  0
 35 45  1  0  0  0
 35 68  1  0  0  0
 36 56  1  0  0  0
 36102  1  0  0  0
 37 39  1  0  0  0
 37 47  1  0  0  0
 37 66  1  0  0  0
 37103  1  0  0  0
 38 43  2  0  0  0
 38 46  1  0  0  0
 38 47  1  0  0  0
 39 64  1  0  0  0
 39 67  2  0  0  0
 40 52  1  0  0  0
 40 53  2  0  0  0
 40 58  1  0  0  0
 41104  1  0  0  0
 41105  1  0  0  0
 41106  1  0  0  0
 41 48  1  0  0  0
 42 43  1  0  0  0
 42 66  1  0  0  0
 42107  1  0  0  0
 42108  1  0  0  0
 43 44  1  0  0  0
 44109  1  0  0  0
 45 46  2  0  0  0
 45110  1  0  0  0
 46111  1  0  0  0
 47112  1  0  0  0
 47113  1  0  0  0
 48 56  1  0  0  0
 48 65  1  0  0  0
 48114  1  0  0  0
 49 50  1  0  0  0
 49 53  1  0  0  0
 49 64  1  0  0  0
 49115  1  0  0  0
 50 51  1  0  0  0
 50116  1  0  0  0
 50117  1  0  0  0
 51 52  1  0  0  0
 51118  1  0  0  0
 51119  1  0  0  0
 52120  1  0  0  0
 52121  1  0  0  0
 53 54  1  0  0  0
 54 55  2  0  0  0
 54122  1  0  0  0
 55 57  1  0  0  0
 55123  1  0  0  0
 56 69  2  0  0  0
 57 58  2  0  0  0
 57124  1  0  0  0
 58125  1  0  0  0
 59 60  1  0  0  0
 59 61  1  0  0  0
 59 62  1  0  0  0
 60126  1  0  0  0
 60127  1  0  0  0
 60128  1  0  0  0
 61129  1  0  0  0
 61130  1  0  0  0
 61131  1  0  0  0
 62132  1  0  0  0
 62133  1  0  0  0
 62134  1  0  0  0
 63 65  1  0  0  0
 63135  1  0  0  0
 63136  1  0  0  0
 63137  1  0  0  0
 64138  1  0  0  0
 65139  1  0  0  0
 68 77  1  0  0  0
 71 72  2  0  0  0
 71 78  1  0  0  0
 71140  1  0  0  0
 72 76  1  0  0  0
 72 79  1  0  0  0
 73 74  1  0  0  0
 73 75  1  0  0  0
 73 79  2  0  0  0
 74 77  1  0  0  0
 74 78  2  0  0  0
 75141  1  0  0  0
 75142  1  0  0  0
 75143  1  0  0  0
 76 80  1  0  0  0
 76144  1  0  0  0
 76145  1  0  0  0
 77146  1  0  0  0
 77147  1  0  0  0
 80148  1  0  0  0
M  ISO  4   1 100  68 101  77 101  80 100
M  END
> <chiral flag>
0

> <version>
0

> <s_m_source_file>
/data/baiqing/PycharmProjects/Reinvent-master-3.2/result/LINK_invent/BTK/process_docking_weight1_custom_sum_contain_oxygen_bond_distance_aromatic_linkinvent_7_9_3/rearranged_h_0178.sdf

> <i_m_source_file_index>
40

> <r_mmod_Potential_Energy-OPLS-2005>
1137.91967773438

> <r_mmod_Stretch_Energy-OPLS-2005>
493.155151367188

> <r_mmod_Bend_Energy-OPLS-2005>
430.026977539062

> <r_mmod_Torsional_Energy-OPLS-2005>
220.990219116211

> <r_mmod_Improper_Torsional_Energy-OPLS-2005>
9.08442401885986

> <r_mmod_Van_der_Waal_Energy-OPLS-2005>
134.380767822266

> <r_mmod_Electrostatic_Energy-OPLS-2005>
-328.680053710938

> <r_mmod_Solvation_Energy-OPLS-2005>
-237.4921875

> <b_mmod_Minimization_Converged-OPLS-2005>
0

> <r_mmod_RMS_Derivative-OPLS-2005>
1.81848573684692

$$$$
41
                    3D
 Structure written by MMmdl.
163172  0  0  1  0            999 V2000
  -30.6075  -14.8235   20.4392 C   0  0  0  0  0  0
  -30.4237  -12.5076   19.4851 C   0  0  0  0  0  0
  -29.5087  -12.5112   18.2422 C   0  0  0  0  0  0
  -28.0382  -12.3239   18.6594 C   0  0  0  0  0  0
  -27.6305  -13.2433   19.8417 C   0  0  2  0  0  0
  -28.6738  -13.2384   20.9776 C   0  0  0  0  0  0
  -25.2470  -13.8220   20.5727 C   0  0  0  0  0  0
  -24.1771  -13.0446   20.9213 C   0  0  0  0  0  0
  -24.6380  -11.6928   20.8749 C   0  0  0  0  0  0
  -23.9067  -10.4296   21.0405 C   0  0  0  0  0  0
  -24.3619   -9.4210   21.9182 C   0  0  0  0  0  0
  -23.6295   -8.2246   22.0751 C   0  0  0  0  0  0
  -22.4276   -8.0282   21.3544 C   0  0  0  0  0  0
  -21.9911   -9.0256   20.4648 C   0  0  0  0  0  0
  -22.7239  -10.2135   20.3056 C   0  0  0  0  0  0
  -21.6853   -6.0735   22.5277 C   0  0  0  0  0  0
  -21.4017   -6.5638   23.8211 C   0  0  0  0  0  0
  -21.3661   -5.6791   24.9173 C   0  0  0  0  0  0
  -21.6044   -4.3054   24.7223 C   0  0  0  0  0  0
  -21.8818   -3.8145   23.4345 C   0  0  0  0  0  0
  -21.9193   -4.6962   22.3401 C   0  0  0  0  0  0
  -22.7794  -13.5221   21.1872 C   0  0  0  0  0  0
  -22.1662   -4.2148   21.0979 F   0  0  0  0  0  0
  -21.5629   -3.4538   25.7737 F   0  0  0  0  0  0
  -29.9609  -13.6016   20.3777 N   0  0  0  0  0  0
  -26.2887  -12.9442   20.3273 N   0  0  0  0  0  0
  -25.9311  -11.6573   20.5748 N   0  0  0  0  0  0
  -22.0447  -12.8209   22.0431 N   0  0  0  0  0  0
  -25.4180  -15.1948   20.4195 N   0  0  0  0  0  0
  -31.8153  -14.8508   20.1752 O   0  0  0  0  0  0
  -21.6642   -6.8878   21.4239 O   0  0  0  0  0  0
  -22.3474  -14.5523   20.6717 O   0  0  0  0  0  0
  -24.6348  -31.8502   23.1935 C   0  0  0  0  0  0
  -25.9156  -32.4724   23.8299 C   0  0  1  0  0  0
  -27.2159  -27.2041   20.1514 C   0  0  0  0  0  0
  -25.5935  -33.8529   24.2221 N   0  0  0  0  0  0
  -23.4343  -30.4697   21.5372 C   0  0  2  0  0  0
  -24.8815  -28.9001   20.1142 C   0  0  0  0  0  0
  -22.7519  -29.4574   22.4895 C   0  0  0  0  0  0
  -18.0293  -28.1388   22.8482 C   0  0  0  0  0  0
  -24.1491  -36.7271   23.2643 C   0  0  0  0  0  0
  -25.9825  -30.7436   21.3826 C   0  0  0  0  0  0
  -26.0519  -29.3576   20.7326 C   0  0  0  0  0  0
  -27.2191  -28.5215   20.7399 C   0  0  0  0  0  0
  -26.0272  -26.8275   19.4932 C   0  0  0  0  0  0
  -24.8761  -27.6447   19.4833 C   0  0  0  0  0  0
  -23.6563  -29.7966   20.1559 C   0  0  0  0  0  0
  -25.4120  -36.3052   24.0323 C   0  0  1  0  0  0
  -20.5900  -28.3702   23.1259 C   0  0  2  0  0  0
  -20.6779  -26.9414   22.5411 C   0  0  0  0  0  0
  -19.5757  -26.6381   21.5213 C   0  0  0  0  0  0
  -18.1936  -26.7930   22.1623 C   0  0  0  0  0  0
  -19.1548  -28.8863   23.2865 C   0  0  0  0  0  0
  -18.9469  -30.1462   23.8885 C   0  0  0  0  0  0
  -17.6467  -30.6588   24.0560 C   0  0  0  0  0  0
  -25.9064  -34.9423   23.5079 C   0  0  0  0  0  0
  -16.5358  -29.9084   23.6333 C   0  0  0  0  0  0
  -16.7280  -28.6502   23.0354 C   0  0  0  0  0  0
  -26.4507  -31.6571   25.0714 C   0  0  0  0  0  0
  -25.3714  -31.3740   26.1426 C   0  0  0  0  0  0
  -27.0364  -30.2979   24.6248 C   0  0  0  0  0  0
  -27.6051  -32.4323   25.7490 C   0  0  0  0  0  0
  -27.5579  -37.1792   24.8464 C   0  0  0  0  0  0
  -21.4222  -29.3040   22.3640 N   0  0  0  0  0  0
  -26.4289  -37.3758   23.9408 N   0  0  0  0  0  0
  -24.7031  -31.0417   22.0935 N   0  0  0  0  0  0
  -23.4197  -28.8130   23.3024 O   0  0  0  0  0  0
  -28.3311  -26.3201   20.1498 O   0  0  0  0  0  0
  -26.5647  -34.8910   22.4656 O   0  0  0  0  0  0
  -23.5488  -32.1349   23.7203 O   0  0  0  0  0  0
  -27.3342  -22.8133   20.8774 C   0  0  0  0  0  0
  -29.4571  -24.0441   19.8382 C   0  0  0  0  0  0
  -28.4472  -21.9854   20.4906 C   0  0  0  0  0  0
  -28.3335  -24.8680   20.2320 C   0  0  0  0  0  0
  -28.6778  -18.1824   19.5440 C   0  0  0  0  0  0
  -29.6779  -18.4810   21.6899 C   0  0  0  0  0  0
  -29.4868  -16.8084   19.3721 C   0  0  0  0  0  0
  -30.4793  -17.1095   21.4840 C   0  0  0  0  0  0
  -29.3191  -19.3275   20.4145 C   0  0  0  0  0  0
  -30.9661  -24.2252   17.8069 C   0  0  0  0  0  0
  -31.9377  -24.4701   20.1515 C   0  0  0  0  0  0
  -30.7104  -24.6868   19.2510 C   0  0  0  0  0  0
  -27.2687  -24.1922   20.7614 N   0  0  0  0  0  0
  -29.5114  -22.6546   19.9596 N   0  0  0  0  0  0
  -29.9015  -16.0415   20.5958 N   0  0  0  0  0  0
  -28.4002  -20.5306   20.6739 N   0  0  0  0  0  0
  -31.4644  -12.6297   19.1804 H   0  0  0  0  0  0
  -30.3755  -11.5470   20.0005 H   0  0  0  0  0  0
  -29.8053  -11.7221   17.5500 H   0  0  0  0  0  0
  -29.6220  -13.4526   17.7022 H   0  0  0  0  0  0
  -27.9109  -11.2791   18.9454 H   0  0  0  0  0  0
  -27.3780  -12.4883   17.8070 H   0  0  0  0  0  0
  -27.6040  -14.2534   19.4340 H   0  0  0  0  0  0
  -28.7296  -12.2612   21.4594 H   0  0  0  0  0  0
  -28.3979  -13.9551   21.7531 H   0  0  0  0  0  0
  -25.2763   -9.5692   22.4756 H   0  0  0  0  0  0
  -24.0005   -7.4638   22.7469 H   0  0  0  0  0  0
  -21.0842   -8.8776   19.8956 H   0  0  0  0  0  0
  -22.3693  -10.9674   19.6168 H   0  0  0  0  0  0
  -21.2011   -7.6147   23.9714 H   0  0  0  0  0  0
  -21.1485   -6.0522   25.9077 H   0  0  0  0  0  0
  -22.0596   -2.7607   23.2844 H   0  0  0  0  0  0
  -22.4074  -11.9881   22.4830 H   0  0  0  0  0  0
  -21.1066  -13.1234   22.2641 H   0  0  0  0  0  0
  -24.6585  -15.8543   20.5481 H   0  0  0  0  0  0
  -26.2845  -15.6366   20.1398 H   0  0  0  0  0  0
  -26.7218  -32.5354   23.1031 H   0  0  0  0  0  0
  -25.0059  -33.9654   25.0352 H   0  0  0  0  0  0
  -22.7334  -31.2930   21.3857 H   0  0  0  0  0  0
  -23.3757  -35.9599   23.3295 H   0  0  0  0  0  0
  -24.3578  -36.8909   22.2059 H   0  0  0  0  0  0
  -23.7243  -37.6466   23.6678 H   0  0  0  0  0  0
  -26.1277  -31.4977   20.6078 H   0  0  0  0  0  0
  -26.8580  -30.7959   22.0183 H   0  0  0  0  0  0
  -28.1185  -28.8701   21.2277 H   0  0  0  0  0  0
  -25.9765  -25.8679   18.9987 H   0  0  0  0  0  0
  -23.9823  -27.2907   18.9883 H   0  0  0  0  0  0
  -23.7883  -30.5695   19.3978 H   0  0  0  0  0  0
  -22.7727  -29.2341   19.8493 H   0  0  0  0  0  0
  -25.1307  -36.1890   25.0816 H   0  0  0  0  0  0
  -20.9991  -28.3286   24.1380 H   0  0  0  0  0  0
  -20.5671  -26.2315   23.3622 H   0  0  0  0  0  0
  -21.6648  -26.7427   22.1212 H   0  0  0  0  0  0
  -19.6918  -25.6289   21.1251 H   0  0  0  0  0  0
  -19.6697  -27.3183   20.6737 H   0  0  0  0  0  0
  -17.4207  -26.6674   21.4025 H   0  0  0  0  0  0
  -18.0335  -26.0073   22.9022 H   0  0  0  0  0  0
  -19.7944  -30.7281   24.2250 H   0  0  0  0  0  0
  -17.5021  -31.6267   24.5164 H   0  0  0  0  0  0
  -15.5358  -30.2983   23.7661 H   0  0  0  0  0  0
  -15.8679  -28.0817   22.7075 H   0  0  0  0  0  0
  -24.5894  -30.7084   25.7752 H   0  0  0  0  0  0
  -24.8900  -32.2915   26.4820 H   0  0  0  0  0  0
  -25.8018  -30.8937   27.0223 H   0  0  0  0  0  0
  -26.2965  -29.6711   24.1259 H   0  0  0  0  0  0
  -27.4004  -29.7263   25.4796 H   0  0  0  0  0  0
  -27.8859  -30.4232   23.9530 H   0  0  0  0  0  0
  -27.2654  -33.3632   26.2041 H   0  0  0  0  0  0
  -28.3874  -32.6870   25.0327 H   0  0  0  0  0  0
  -28.0706  -31.8467   26.5429 H   0  0  0  0  0  0
  -28.2591  -38.0093   24.7511 H   0  0  0  0  0  0
  -28.1079  -36.2623   24.6289 H   0  0  0  0  0  0
  -27.2296  -37.1437   25.8867 H   0  0  0  0  0  0
  -20.9418  -29.8748   21.6825 H   0  0  0  0  0  0
  -26.0163  -38.2830   24.1408 H   0  0  0  0  0  0
  -26.4552  -22.3530   21.3048 H   0  0  0  0  0  0
  -27.6996  -17.9353   19.9592 H   0  0  0  0  0  0
  -28.4712  -18.5824   18.5504 H   0  0  0  0  0  0
  -30.2509  -19.1124   22.3703 H   0  0  0  0  0  0
  -28.7572  -18.2462   22.2266 H   0  0  0  0  0  0
  -30.3872  -17.0169   18.7909 H   0  0  0  0  0  0
  -28.8938  -16.1409   18.7456 H   0  0  0  0  0  0
  -30.6447  -16.6639   22.4662 H   0  0  0  0  0  0
  -31.4748  -17.3577   21.1107 H   0  0  0  0  0  0
  -30.2359  -19.6801   19.9387 H   0  0  0  0  0  0
  -30.1095  -24.4447   17.1688 H   0  0  0  0  0  0
  -31.1522  -23.1517   17.7568 H   0  0  0  0  0  0
  -31.8325  -24.7309   17.3800 H   0  0  0  0  0  0
  -31.7585  -24.8551   21.1559 H   0  0  0  0  0  0
  -32.8134  -24.9832   19.7536 H   0  0  0  0  0  0
  -32.1865  -23.4122   20.2409 H   0  0  0  0  0  0
  -30.5434  -25.7633   19.2071 H   0  0  0  0  0  0
  -27.5164  -20.2480   21.0874 H   0  0  0  0  0  0
  1 25  1  0  0  0
  1 30  2  0  0  0
  1 85  1  0  0  0
  2  3  1  0  0  0
  2 25  1  0  0  0
  2 87  1  0  0  0
  2 88  1  0  0  0
  3  4  1  0  0  0
  3 89  1  0  0  0
  3 90  1  0  0  0
  4  5  1  0  0  0
  4 91  1  0  0  0
  4 92  1  0  0  0
  5  6  1  0  0  0
  5 26  1  0  0  0
  5 93  1  0  0  0
  6 25  1  0  0  0
  6 94  1  0  0  0
  6 95  1  0  0  0
  7  8  2  0  0  0
  7 26  1  0  0  0
  7 29  1  0  0  0
  8  9  1  0  0  0
  8 22  1  0  0  0
  9 10  1  0  0  0
  9 27  2  0  0  0
 10 11  2  0  0  0
 10 15  1  0  0  0
 11 12  1  0  0  0
 11 96  1  0  0  0
 12 13  2  0  0  0
 12 97  1  0  0  0
 13 14  1  0  0  0
 13 31  1  0  0  0
 14 15  2  0  0  0
 14 98  1  0  0  0
 15 99  1  0  0  0
 16 17  2  0  0  0
 16 21  1  0  0  0
 16 31  1  0  0  0
 17 18  1  0  0  0
 17100  1  0  0  0
 18 19  2  0  0  0
 18101  1  0  0  0
 19 20  1  0  0  0
 19 24  1  0  0  0
 20 21  2  0  0  0
 20102  1  0  0  0
 21 23  1  0  0  0
 22 28  1  0  0  0
 22 32  2  0  0  0
 26 27  1  0  0  0
 28103  1  0  0  0
 28104  1  0  0  0
 29105  1  0  0  0
 29106  1  0  0  0
 33 34  1  0  0  0
 33 66  1  0  0  0
 33 70  2  0  0  0
 34 36  1  0  0  0
 34 59  1  0  0  0
 34107  1  0  0  0
 35 44  2  0  0  0
 35 45  1  0  0  0
 35 68  1  0  0  0
 36 56  1  0  0  0
 36108  1  0  0  0
 37 39  1  0  0  0
 37 47  1  0  0  0
 37 66  1  0  0  0
 37109  1  0  0  0
 38 43  2  0  0  0
 38 46  1  0  0  0
 38 47  1  0  0  0
 39 64  1  0  0  0
 39 67  2  0  0  0
 40 52  1  0  0  0
 40 53  2  0  0  0
 40 58  1  0  0  0
 41110  1  0  0  0
 41111  1  0  0  0
 41112  1  0  0  0
 41 48  1  0  0  0
 42 43  1  0  0  0
 42 66  1  0  0  0
 42113  1  0  0  0
 42114  1  0  0  0
 43 44  1  0  0  0
 44115  1  0  0  0
 45 46  2  0  0  0
 45116  1  0  0  0
 46117  1  0  0  0
 47118  1  0  0  0
 47119  1  0  0  0
 48 56  1  0  0  0
 48 65  1  0  0  0
 48120  1  0  0  0
 49 50  1  0  0  0
 49 53  1  0  0  0
 49 64  1  0  0  0
 49121  1  0  0  0
 50 51  1  0  0  0
 50122  1  0  0  0
 50123  1  0  0  0
 51 52  1  0  0  0
 51124  1  0  0  0
 51125  1  0  0  0
 52126  1  0  0  0
 52127  1  0  0  0
 53 54  1  0  0  0
 54 55  2  0  0  0
 54128  1  0  0  0
 55 57  1  0  0  0
 55129  1  0  0  0
 56 69  2  0  0  0
 57 58  2  0  0  0
 57130  1  0  0  0
 58131  1  0  0  0
 59 60  1  0  0  0
 59 61  1  0  0  0
 59 62  1  0  0  0
 60132  1  0  0  0
 60133  1  0  0  0
 60134  1  0  0  0
 61135  1  0  0  0
 61136  1  0  0  0
 61137  1  0  0  0
 62138  1  0  0  0
 62139  1  0  0  0
 62140  1  0  0  0
 63 65  1  0  0  0
 63141  1  0  0  0
 63142  1  0  0  0
 63143  1  0  0  0
 64144  1  0  0  0
 65145  1  0  0  0
 68 74  1  0  0  0
 71 73  2  0  0  0
 71 83  1  0  0  0
 71146  1  0  0  0
 72 74  1  0  0  0
 72 82  1  0  0  0
 72 84  2  0  0  0
 73 84  1  0  0  0
 73 86  1  0  0  0
 74 83  2  0  0  0
 75 77  1  0  0  0
 75 79  1  0  0  0
 75147  1  0  0  0
 75148  1  0  0  0
 76 78  1  0  0  0
 76 79  1  0  0  0
 76149  1  0  0  0
 76150  1  0  0  0
 77 85  1  0  0  0
 77151  1  0  0  0
 77152  1  0  0  0
 78 85  1  0  0  0
 78153  1  0  0  0
 78154  1  0  0  0
 79 86  1  0  0  0
 79155  1  0  0  0
 80156  1  0  0  0
 80157  1  0  0  0
 80158  1  0  0  0
 80 82  1  0  0  0
 81 82  1  0  0  0
 81159  1  0  0  0
 81160  1  0  0  0
 81161  1  0  0  0
 82162  1  0  0  0
 86163  1  0  0  0
M  ISO  4   1 100  68 101  74 101  85 100
M  END
> <chiral flag>
0

> <version>
0

> <s_m_source_file>
/data/baiqing/PycharmProjects/Reinvent-master-3.2/result/LINK_invent/BTK/process_docking_weight1_custom_sum_contain_oxygen_bond_distance_aromatic_linkinvent_7_9_3/rearranged_h_0178.sdf

> <i_m_source_file_index>
41

> <r_mmod_Potential_Energy-OPLS-2005>
500.811859130859

> <r_mmod_Stretch_Energy-OPLS-2005>
147.691848754883

> <r_mmod_Bend_Energy-OPLS-2005>
250.578628540039

> <r_mmod_Torsional_Energy-OPLS-2005>
297.925048828125

> <r_mmod_Improper_Torsional_Energy-OPLS-2005>
9.29850387573242

> <r_mmod_Van_der_Waal_Energy-OPLS-2005>
137.392791748047

> <r_mmod_Electrostatic_Energy-OPLS-2005>
-251.859970092773

> <r_mmod_Solvation_Energy-OPLS-2005>
-209.217147827148

> <b_mmod_Minimization_Converged-OPLS-2005>
0

> <r_mmod_RMS_Derivative-OPLS-2005>
0.3351229429245

$$$$
42
                    3D
 Structure written by MMmdl.
152161  0  0  1  0            999 V2000
  -30.4293  -15.2039   20.3799 C   0  0  0  0  0  0
  -30.4474  -12.7605   19.5251 C   0  0  0  0  0  0
  -29.5381  -12.5709   18.2840 C   0  0  0  0  0  0
  -28.0818  -12.3047   18.7063 C   0  0  0  0  0  0
  -27.6190  -13.2653   19.8297 C   0  0  2  0  0  0
  -28.6540  -13.3927   20.9686 C   0  0  0  0  0  0
  -25.2401  -13.8197   20.5687 C   0  0  0  0  0  0
  -24.1759  -13.0416   20.9272 C   0  0  0  0  0  0
  -24.6403  -11.6912   20.8780 C   0  0  0  0  0  0
  -23.9089  -10.4282   21.0421 C   0  0  0  0  0  0
  -24.3630   -9.4194   21.9196 C   0  0  0  0  0  0
  -23.6298   -8.2233   22.0758 C   0  0  0  0  0  0
  -22.4280   -8.0279   21.3547 C   0  0  0  0  0  0
  -21.9925   -9.0256   20.4649 C   0  0  0  0  0  0
  -22.7262  -10.2131   20.3064 C   0  0  0  0  0  0
  -21.6852   -6.0734   22.5279 C   0  0  0  0  0  0
  -21.4014   -6.5639   23.8212 C   0  0  0  0  0  0
  -21.3657   -5.6791   24.9174 C   0  0  0  0  0  0
  -21.6043   -4.3054   24.7225 C   0  0  0  0  0  0
  -21.8820   -3.8147   23.4346 C   0  0  0  0  0  0
  -21.9193   -4.6963   22.3402 C   0  0  0  0  0  0
  -22.7778  -13.5189   21.1906 C   0  0  0  0  0  0
  -22.1662   -4.2149   21.0980 F   0  0  0  0  0  0
  -21.5627   -3.4537   25.7738 F   0  0  0  0  0  0
  -29.8988  -13.8877   20.3588 N   0  0  0  0  0  0
  -26.2839  -12.9470   20.3205 N   0  0  0  0  0  0
  -25.9339  -11.6589   20.5732 N   0  0  0  0  0  0
  -22.0421  -12.8183   22.0459 N   0  0  0  0  0  0
  -25.3991  -15.1903   20.3954 N   0  0  0  0  0  0
  -31.6404  -15.2542   20.1165 O   0  0  0  0  0  0
  -21.6638   -6.8879   21.4241 O   0  0  0  0  0  0
  -22.3474  -14.5490   20.6731 O   0  0  0  0  0  0
  -24.6585  -31.8274   23.1733 C   0  0  0  0  0  0
  -25.9288  -32.4607   23.8183 C   0  0  1  0  0  0
  -27.2224  -26.9712   20.1807 C   0  0  0  0  0  0
  -25.5974  -33.8420   24.2097 N   0  0  0  0  0  0
  -23.4710  -30.4397   21.5212 C   0  0  2  0  0  0
  -24.9246  -28.8325   20.1123 C   0  0  0  0  0  0
  -22.7639  -29.4462   22.4794 C   0  0  0  0  0  0
  -18.0318  -28.1406   22.8471 C   0  0  0  0  0  0
  -24.1486  -36.7199   23.2646 C   0  0  0  0  0  0
  -26.0370  -30.6485   21.3964 C   0  0  0  0  0  0
  -26.1066  -29.2420   20.7413 C   0  0  0  0  0  0
  -27.2509  -28.3317   20.7510 C   0  0  0  0  0  0
  -26.0131  -26.7033   19.5017 C   0  0  0  0  0  0
  -24.9004  -27.5820   19.4731 C   0  0  0  0  0  0
  -23.7087  -29.7554   20.1469 C   0  0  0  0  0  0
  -25.4127  -36.2976   24.0305 C   0  0  1  0  0  0
  -20.5937  -28.3746   23.1200 C   0  0  2  0  0  0
  -20.6790  -26.9432   22.5406 C   0  0  0  0  0  0
  -19.5768  -26.6385   21.5210 C   0  0  0  0  0  0
  -18.1953  -26.7941   22.1623 C   0  0  0  0  0  0
  -19.1579  -28.8896   23.2827 C   0  0  0  0  0  0
  -18.9494  -30.1483   23.8864 C   0  0  0  0  0  0
  -17.6489  -30.6599   24.0558 C   0  0  0  0  0  0
  -25.9092  -34.9360   23.5019 C   0  0  0  0  0  0
  -16.5379  -29.9086   23.6345 C   0  0  0  0  0  0
  -16.7301  -28.6505   23.0371 C   0  0  0  0  0  0
  -26.4558  -31.6536   25.0689 C   0  0  0  0  0  0
  -25.3704  -31.3777   26.1361 C   0  0  0  0  0  0
  -27.0441  -30.2907   24.6388 C   0  0  0  0  0  0
  -27.6065  -32.4327   25.7487 C   0  0  0  0  0  0
  -27.5567  -37.1755   24.8469 C   0  0  0  0  0  0
  -21.4315  -29.3038   22.3544 N   0  0  0  0  0  0
  -26.4272  -37.3714   23.9417 N   0  0  0  0  0  0
  -24.7429  -30.9979   22.0844 N   0  0  0  0  0  0
  -23.4204  -28.8038   23.3028 O   0  0  0  0  0  0
  -28.2458  -25.9014   20.2607 O   0  0  0  0  0  0
  -26.5701  -34.8892   22.4612 O   0  0  0  0  0  0
  -23.5667  -32.1224   23.6859 O   0  0  0  0  0  0
  -29.1336  -21.1117   20.3162 C   0  0  0  0  0  0
  -30.2601  -20.3196   19.8044 C   0  0  0  0  0  0
  -28.4292  -18.8004   20.9510 C   0  0  0  0  0  0
  -29.5529  -18.0014   20.4407 C   0  0  0  0  0  0
  -29.0190  -23.6807   19.1721 C   0  0  0  0  0  0
  -29.0257  -22.8586   20.4532 C   0  0  1  0  0  0
  -28.0311  -24.2818   20.1382 C   0  0  1  0  0  0
  -31.4309  -21.0329   19.1590 C   0  0  0  0  0  0
  -27.2854  -18.0791   21.6340 C   0  0  0  0  0  0
  -28.2446  -20.2157   20.9033 N   0  0  0  0  0  0
  -30.4439  -18.9034   19.8598 N   0  0  0  0  0  0
  -29.5870  -16.3969   20.5473 N   0  0  0  0  0  0
  -31.4686  -12.9649   19.2001 H   0  0  0  0  0  0
  -30.5043  -11.8395   20.1076 H   0  0  0  0  0  0
  -29.9056  -11.7526   17.6632 H   0  0  0  0  0  0
  -29.5796  -13.4678   17.6641 H   0  0  0  0  0  0
  -28.0249  -11.2747   19.0612 H   0  0  0  0  0  0
  -27.4155  -12.3697   17.8453 H   0  0  0  0  0  0
  -27.5495  -14.2436   19.3529 H   0  0  0  0  0  0
  -28.8043  -12.4399   21.4783 H   0  0  0  0  0  0
  -28.3037  -14.0956   21.7260 H   0  0  0  0  0  0
  -25.2772   -9.5666   22.4776 H   0  0  0  0  0  0
  -24.0001   -7.4622   22.7476 H   0  0  0  0  0  0
  -21.0858   -8.8783   19.8953 H   0  0  0  0  0  0
  -22.3726  -10.9672   19.6174 H   0  0  0  0  0  0
  -21.2005   -7.6146   23.9714 H   0  0  0  0  0  0
  -21.1477   -6.0521   25.9075 H   0  0  0  0  0  0
  -22.0601   -2.7611   23.2845 H   0  0  0  0  0  0
  -22.4036  -11.9848   22.4853 H   0  0  0  0  0  0
  -21.1031  -13.1198   22.2645 H   0  0  0  0  0  0
  -24.5929  -15.8045   20.4316 H   0  0  0  0  0  0
  -26.1717  -15.5864   19.8781 H   0  0  0  0  0  0
  -26.7353  -32.5164   23.0897 H   0  0  0  0  0  0
  -25.0079  -33.9502   25.0219 H   0  0  0  0  0  0
  -22.7820  -31.2699   21.3524 H   0  0  0  0  0  0
  -23.3770  -35.9507   23.3282 H   0  0  0  0  0  0
  -24.3567  -36.8865   22.2066 H   0  0  0  0  0  0
  -23.7216  -37.6370   23.6710 H   0  0  0  0  0  0
  -26.2121  -31.3926   20.6183 H   0  0  0  0  0  0
  -26.8993  -30.7049   22.0491 H   0  0  0  0  0  0
  -28.1463  -28.6443   21.2697 H   0  0  0  0  0  0
  -25.8966  -25.7512   19.0058 H   0  0  0  0  0  0
  -24.0016  -27.2626   18.9637 H   0  0  0  0  0  0
  -23.8610  -30.5239   19.3877 H   0  0  0  0  0  0
  -22.8195  -29.2067   19.8315 H   0  0  0  0  0  0
  -25.1325  -36.1773   25.0797 H   0  0  0  0  0  0
  -21.0036  -28.3350   24.1320 H   0  0  0  0  0  0
  -20.5664  -26.2364   23.3642 H   0  0  0  0  0  0
  -21.6656  -26.7410   22.1218 H   0  0  0  0  0  0
  -19.6927  -25.6288   21.1259 H   0  0  0  0  0  0
  -19.6706  -27.3176   20.6724 H   0  0  0  0  0  0
  -17.4220  -26.6688   21.4028 H   0  0  0  0  0  0
  -18.0354  -26.0096   22.9033 H   0  0  0  0  0  0
  -19.7970  -30.7305   24.2227 H   0  0  0  0  0  0
  -17.5044  -31.6275   24.5166 H   0  0  0  0  0  0
  -15.5378  -30.2981   23.7687 H   0  0  0  0  0  0
  -15.8700  -28.0805   22.7120 H   0  0  0  0  0  0
  -24.5896  -30.7111   25.7681 H   0  0  0  0  0  0
  -24.8882  -32.2976   26.4675 H   0  0  0  0  0  0
  -25.7956  -30.9024   27.0208 H   0  0  0  0  0  0
  -26.3092  -29.6597   24.1376 H   0  0  0  0  0  0
  -27.3971  -29.7256   25.5023 H   0  0  0  0  0  0
  -27.9038  -30.4095   23.9790 H   0  0  0  0  0  0
  -27.2658  -33.3690   26.1921 H   0  0  0  0  0  0
  -28.3955  -32.6780   25.0363 H   0  0  0  0  0  0
  -28.0638  -31.8535   26.5519 H   0  0  0  0  0  0
  -28.2569  -38.0066   24.7531 H   0  0  0  0  0  0
  -28.1080  -36.2595   24.6281 H   0  0  0  0  0  0
  -27.2291  -37.1384   25.8875 H   0  0  0  0  0  0
  -20.9560  -29.8715   21.6668 H   0  0  0  0  0  0
  -26.0121  -38.2768   24.1447 H   0  0  0  0  0  0
  -28.5785  -23.2205   18.2899 H   0  0  0  0  0  0
  -29.9301  -24.2367   18.9639 H   0  0  0  0  0  0
  -29.8037  -23.0916   21.1772 H   0  0  0  0  0  0
  -26.9745  -24.0567   20.0153 H   0  0  0  0  0  0
  -31.3402  -22.1158   19.2191 H   0  0  0  0  0  0
  -31.5035  -20.7604   18.1060 H   0  0  0  0  0  0
  -32.3635  -20.7528   19.6492 H   0  0  0  0  0  0
  -27.6584  -17.3494   22.3526 H   0  0  0  0  0  0
  -26.6799  -17.5624   20.8919 H   0  0  0  0  0  0
  -26.6363  -18.7706   22.1716 H   0  0  0  0  0  0
  -28.6739  -16.0639   20.8122 H   0  0  0  0  0  0
  1 25  1  0  0  0
  1 30  2  0  0  0
  1 82  1  0  0  0
  2  3  1  0  0  0
  2 25  1  0  0  0
  2 83  1  0  0  0
  2 84  1  0  0  0
  3  4  1  0  0  0
  3 85  1  0  0  0
  3 86  1  0  0  0
  4  5  1  0  0  0
  4 87  1  0  0  0
  4 88  1  0  0  0
  5  6  1  0  0  0
  5 26  1  0  0  0
  5 89  1  0  0  0
  6 25  1  0  0  0
  6 90  1  0  0  0
  6 91  1  0  0  0
  7  8  2  0  0  0
  7 26  1  0  0  0
  7 29  1  0  0  0
  8  9  1  0  0  0
  8 22  1  0  0  0
  9 10  1  0  0  0
  9 27  2  0  0  0
 10 11  2  0  0  0
 10 15  1  0  0  0
 11 12  1  0  0  0
 11 92  1  0  0  0
 12 13  2  0  0  0
 12 93  1  0  0  0
 13 14  1  0  0  0
 13 31  1  0  0  0
 14 15  2  0  0  0
 14 94  1  0  0  0
 15 95  1  0  0  0
 16 17  2  0  0  0
 16 21  1  0  0  0
 16 31  1  0  0  0
 17 18  1  0  0  0
 17 96  1  0  0  0
 18 19  2  0  0  0
 18 97  1  0  0  0
 19 20  1  0  0  0
 19 24  1  0  0  0
 20 21  2  0  0  0
 20 98  1  0  0  0
 21 23  1  0  0  0
 22 28  1  0  0  0
 22 32  2  0  0  0
 26 27  1  0  0  0
 28 99  1  0  0  0
 28100  1  0  0  0
 29101  1  0  0  0
 29102  1  0  0  0
 33 34  1  0  0  0
 33 66  1  0  0  0
 33 70  2  0  0  0
 34 36  1  0  0  0
 34 59  1  0  0  0
 34103  1  0  0  0
 35 44  2  0  0  0
 35 45  1  0  0  0
 35 68  1  0  0  0
 36 56  1  0  0  0
 36104  1  0  0  0
 37 39  1  0  0  0
 37 47  1  0  0  0
 37 66  1  0  0  0
 37105  1  0  0  0
 38 43  2  0  0  0
 38 46  1  0  0  0
 38 47  1  0  0  0
 39 64  1  0  0  0
 39 67  2  0  0  0
 40 52  1  0  0  0
 40 53  2  0  0  0
 40 58  1  0  0  0
 41106  1  0  0  0
 41107  1  0  0  0
 41108  1  0  0  0
 41 48  1  0  0  0
 42 43  1  0  0  0
 42 66  1  0  0  0
 42109  1  0  0  0
 42110  1  0  0  0
 43 44  1  0  0  0
 44111  1  0  0  0
 45 46  2  0  0  0
 45112  1  0  0  0
 46113  1  0  0  0
 47114  1  0  0  0
 47115  1  0  0  0
 48 56  1  0  0  0
 48 65  1  0  0  0
 48116  1  0  0  0
 49 50  1  0  0  0
 49 53  1  0  0  0
 49 64  1  0  0  0
 49117  1  0  0  0
 50 51  1  0  0  0
 50118  1  0  0  0
 50119  1  0  0  0
 51 52  1  0  0  0
 51120  1  0  0  0
 51121  1  0  0  0
 52122  1  0  0  0
 52123  1  0  0  0
 53 54  1  0  0  0
 54 55  2  0  0  0
 54124  1  0  0  0
 55 57  1  0  0  0
 55125  1  0  0  0
 56 69  2  0  0  0
 57 58  2  0  0  0
 57126  1  0  0  0
 58127  1  0  0  0
 59 60  1  0  0  0
 59 61  1  0  0  0
 59 62  1  0  0  0
 60128  1  0  0  0
 60129  1  0  0  0
 60130  1  0  0  0
 61131  1  0  0  0
 61132  1  0  0  0
 61133  1  0  0  0
 62134  1  0  0  0
 62135  1  0  0  0
 62136  1  0  0  0
 63 65  1  0  0  0
 63137  1  0  0  0
 63138  1  0  0  0
 63139  1  0  0  0
 64140  1  0  0  0
 65141  1  0  0  0
 68 77  1  0  0  0
 71 72  2  0  0  0
 71 80  1  0  0  0
 71 76  1  0  0  0
 72 78  1  0  0  0
 72 81  1  0  0  0
 73 74  1  0  0  0
 73 79  1  0  0  0
 73 80  2  0  0  0
 74 81  2  0  0  0
 74 82  1  0  0  0
 75 76  1  0  0  0
 75 77  1  0  0  0
 75142  1  0  0  0
 75143  1  0  0  0
 76 77  1  0  0  0
 76144  1  0  0  0
 77145  1  0  0  0
 78146  1  0  0  0
 78147  1  0  0  0
 78148  1  0  0  0
 79149  1  0  0  0
 79150  1  0  0  0
 79151  1  0  0  0
 82152  1  0  0  0
M  ISO  4   1 100  68 101  77 101  82 100
M  END
> <chiral flag>
0

> <version>
0

> <s_m_source_file>
/data/baiqing/PycharmProjects/Reinvent-master-3.2/result/LINK_invent/BTK/process_docking_weight1_custom_sum_contain_oxygen_bond_distance_aromatic_linkinvent_7_9_3/rearranged_h_0178.sdf

> <i_m_source_file_index>
42

> <r_mmod_Potential_Energy-OPLS-2005>
1032.98217773438

> <r_mmod_Stretch_Energy-OPLS-2005>
487.949829101562

> <r_mmod_Bend_Energy-OPLS-2005>
401.868835449219

> <r_mmod_Torsional_Energy-OPLS-2005>
227.067443847656

> <r_mmod_Improper_Torsional_Energy-OPLS-2005>
6.04253578186035

> <r_mmod_Van_der_Waal_Energy-OPLS-2005>
128.035797119141

> <r_mmod_Electrostatic_Energy-OPLS-2005>
-374.665649414062

> <r_mmod_Solvation_Energy-OPLS-2005>
-237.910247802734

> <b_mmod_Minimization_Converged-OPLS-2005>
0

> <r_mmod_RMS_Derivative-OPLS-2005>
0.591113030910492

$$$$
43
                    3D
 Structure written by MMmdl.
166176  0  0  1  0            999 V2000
  -30.4226  -15.3070   20.4056 C   0  0  0  0  0  0
  -30.4543  -12.8478   19.5156 C   0  0  0  0  0  0
  -29.5331  -12.6200   18.2860 C   0  0  0  0  0  0
  -28.0784  -12.3411   18.7077 C   0  0  0  0  0  0
  -27.6213  -13.2845   19.8485 C   0  0  2  0  0  0
  -28.6808  -13.3658   20.9695 C   0  0  0  0  0  0
  -25.2221  -13.8218   20.5466 C   0  0  0  0  0  0
  -24.1680  -13.0394   20.9205 C   0  0  0  0  0  0
  -24.6412  -11.6923   20.8807 C   0  0  0  0  0  0
  -23.9119  -10.4274   21.0433 C   0  0  0  0  0  0
  -24.3660   -9.4184   21.9202 C   0  0  0  0  0  0
  -23.6318   -8.2224   22.0764 C   0  0  0  0  0  0
  -22.4297   -8.0273   21.3554 C   0  0  0  0  0  0
  -21.9945   -9.0247   20.4652 C   0  0  0  0  0  0
  -22.7291  -10.2115   20.3072 C   0  0  0  0  0  0
  -21.6854   -6.0738   22.5278 C   0  0  0  0  0  0
  -21.4016   -6.5640   23.8213 C   0  0  0  0  0  0
  -21.3663   -5.6787   24.9170 C   0  0  0  0  0  0
  -21.6048   -4.3052   24.7219 C   0  0  0  0  0  0
  -21.8827   -3.8149   23.4343 C   0  0  0  0  0  0
  -21.9197   -4.6967   22.3401 C   0  0  0  0  0  0
  -22.7692  -13.5117   21.1869 C   0  0  0  0  0  0
  -22.1668   -4.2157   21.0978 F   0  0  0  0  0  0
  -21.5623   -3.4538   25.7732 F   0  0  0  0  0  0
  -29.8898  -13.9695   20.3701 N   0  0  0  0  0  0
  -26.2842  -12.9591   20.3339 N   0  0  0  0  0  0
  -25.9389  -11.6683   20.5886 N   0  0  0  0  0  0
  -22.0394  -12.8127   22.0486 N   0  0  0  0  0  0
  -25.3447  -15.1899   20.3317 N   0  0  0  0  0  0
  -31.6319  -15.2656   20.1276 O   0  0  0  0  0  0
  -21.6648   -6.8878   21.4241 O   0  0  0  0  0  0
  -22.3337  -14.5400   20.6697 O   0  0  0  0  0  0
  -24.6636  -31.8222   23.1689 C   0  0  0  0  0  0
  -25.9315  -32.4579   23.8159 C   0  0  1  0  0  0
  -27.2277  -26.9184   20.2047 C   0  0  0  0  0  0
  -25.5987  -33.8393   24.2071 N   0  0  0  0  0  0
  -23.4790  -30.4313   21.5191 C   0  0  2  0  0  0
  -24.9327  -28.8064   20.1259 C   0  0  0  0  0  0
  -22.7668  -29.4434   22.4797 C   0  0  0  0  0  0
  -18.0324  -28.1406   22.8464 C   0  0  0  0  0  0
  -24.1492  -36.7200   23.2645 C   0  0  0  0  0  0
  -26.0476  -30.6277   21.3975 C   0  0  0  0  0  0
  -26.1180  -29.2119   20.7528 C   0  0  0  0  0  0
  -27.2624  -28.2933   20.7583 C   0  0  0  0  0  0
  -26.0082  -26.6582   19.5417 C   0  0  0  0  0  0
  -24.9030  -27.5488   19.5001 C   0  0  0  0  0  0
  -23.7207  -29.7379   20.1495 C   0  0  0  0  0  0
  -25.4130  -36.2957   24.0298 C   0  0  1  0  0  0
  -20.5944  -28.3748   23.1191 C   0  0  2  0  0  0
  -20.6800  -26.9429   22.5403 C   0  0  0  0  0  0
  -19.5776  -26.6372   21.5214 C   0  0  0  0  0  0
  -18.1957  -26.7938   22.1616 C   0  0  0  0  0  0
  -19.1583  -28.8898   23.2814 C   0  0  0  0  0  0
  -18.9495  -30.1489   23.8848 C   0  0  0  0  0  0
  -17.6489  -30.6596   24.0550 C   0  0  0  0  0  0
  -25.9097  -34.9345   23.5004 C   0  0  0  0  0  0
  -16.5379  -29.9082   23.6344 C   0  0  0  0  0  0
  -16.7305  -28.6501   23.0363 C   0  0  0  0  0  0
  -26.4574  -31.6525   25.0685 C   0  0  0  0  0  0
  -25.3709  -31.3769   26.1347 C   0  0  0  0  0  0
  -27.0473  -30.2894   24.6409 C   0  0  0  0  0  0
  -27.6067  -32.4336   25.7487 C   0  0  0  0  0  0
  -27.5574  -37.1744   24.8459 C   0  0  0  0  0  0
  -21.4337  -29.3039   22.3541 N   0  0  0  0  0  0
  -26.4267  -37.3703   23.9427 N   0  0  0  0  0  0
  -24.7517  -30.9876   22.0826 N   0  0  0  0  0  0
  -23.4207  -28.8007   23.3051 O   0  0  0  0  0  0
  -28.2740  -25.8544   20.1616 O   0  0  0  0  0  0
  -26.5707  -34.8882   22.4599 O   0  0  0  0  0  0
  -23.5708  -32.1194   23.6783 O   0  0  0  0  0  0
  -29.7097  -16.8914   20.6030 C   0  0  0  0  0  0
  -28.5850  -17.3566   21.4026 C   0  0  0  0  0  0
  -28.3639  -18.7491   21.3526 C   0  0  0  0  0  0
  -30.1037  -18.2292   20.1319 C   0  0  0  0  0  0
  -27.6308  -20.5792   23.1194 C   0  0  0  0  0  0
  -26.8799  -19.3299   23.4833 C   0  0  0  0  0  0
  -30.5563  -21.7714   19.7523 C   0  0  0  0  0  0
  -29.5745  -22.5763   18.8910 C   0  0  0  0  0  0
  -27.2982  -19.5636   22.0432 C   0  0  0  0  0  0
  -29.3987  -21.1063   20.5067 C   0  0  1  0  0  0
  -28.5046  -22.5990   19.9967 C   0  0  2  0  0  0
  -27.7468  -16.4414   22.2480 C   0  0  0  0  0  0
  -31.2879  -18.4932   19.2601 C   0  0  0  0  0  0
  -27.1001  -22.2556   19.5082 C   0  0  0  0  0  0
  -28.2730  -24.2754   20.6651 C   0  0  0  0  0  0
  -29.2906  -19.4374   20.5599 N   0  0  0  0  0  0
  -31.4563  -13.0778   19.1528 H   0  0  0  0  0  0
  -30.5740  -11.9262   20.0873 H   0  0  0  0  0  0
  -29.9102  -11.8037   17.6691 H   0  0  0  0  0  0
  -29.5584  -13.5133   17.6602 H   0  0  0  0  0  0
  -28.0240  -11.3056   19.0444 H   0  0  0  0  0  0
  -27.4085  -12.4215   17.8513 H   0  0  0  0  0  0
  -27.5557  -14.2771   19.4027 H   0  0  0  0  0  0
  -28.8797  -12.3669   21.3592 H   0  0  0  0  0  0
  -28.3630  -13.9084   21.8489 H   0  0  0  0  0  0
  -25.2811   -9.5652   22.4781 H   0  0  0  0  0  0
  -24.0026   -7.4609   22.7484 H   0  0  0  0  0  0
  -21.0880   -8.8774   19.8949 H   0  0  0  0  0  0
  -22.3765  -10.9654   19.6182 H   0  0  0  0  0  0
  -21.2013   -7.6147   23.9724 H   0  0  0  0  0  0
  -21.1479   -6.0512   25.9073 H   0  0  0  0  0  0
  -22.0606   -2.7614   23.2832 H   0  0  0  0  0  0
  -22.4057  -11.9822   22.4897 H   0  0  0  0  0  0
  -21.1017  -13.1124   22.2736 H   0  0  0  0  0  0
  -24.5518  -15.8178   20.4034 H   0  0  0  0  0  0
  -26.1777  -15.6440   19.9790 H   0  0  0  0  0  0
  -26.7384  -32.5120   23.0875 H   0  0  0  0  0  0
  -25.0103  -33.9471   25.0201 H   0  0  0  0  0  0
  -22.7929  -31.2621   21.3429 H   0  0  0  0  0  0
  -23.3776  -35.9506   23.3236 H   0  0  0  0  0  0
  -24.3583  -36.8917   22.2076 H   0  0  0  0  0  0
  -23.7219  -37.6353   23.6746 H   0  0  0  0  0  0
  -26.2212  -31.3627   20.6105 H   0  0  0  0  0  0
  -26.9104  -30.6938   22.0484 H   0  0  0  0  0  0
  -28.1712  -28.6150   21.2477 H   0  0  0  0  0  0
  -25.8954  -25.6995   19.0549 H   0  0  0  0  0  0
  -24.0032  -27.2310   18.9916 H   0  0  0  0  0  0
  -23.8812  -30.5014   19.3871 H   0  0  0  0  0  0
  -22.8299  -29.1928   19.8316 H   0  0  0  0  0  0
  -25.1325  -36.1741   25.0786 H   0  0  0  0  0  0
  -21.0031  -28.3355   24.1314 H   0  0  0  0  0  0
  -20.5683  -26.2368   23.3643 H   0  0  0  0  0  0
  -21.6666  -26.7407   22.1210 H   0  0  0  0  0  0
  -19.6937  -25.6272   21.1275 H   0  0  0  0  0  0
  -19.6718  -27.3155   20.6722 H   0  0  0  0  0  0
  -17.4228  -26.6685   21.4017 H   0  0  0  0  0  0
  -18.0347  -26.0090   22.9021 H   0  0  0  0  0  0
  -19.7970  -30.7319   24.2194 H   0  0  0  0  0  0
  -17.5038  -31.6271   24.5163 H   0  0  0  0  0  0
  -15.5377  -30.2969   23.7696 H   0  0  0  0  0  0
  -15.8703  -28.0803   22.7110 H   0  0  0  0  0  0
  -24.5911  -30.7092   25.7663 H   0  0  0  0  0  0
  -24.8877  -32.2967   26.4654 H   0  0  0  0  0  0
  -25.7956  -30.9023   27.0203 H   0  0  0  0  0  0
  -26.3141  -29.6563   24.1398 H   0  0  0  0  0  0
  -27.3999  -29.7261   25.5061 H   0  0  0  0  0  0
  -27.9082  -30.4080   23.9823 H   0  0  0  0  0  0
  -27.2641  -33.3692   26.1920 H   0  0  0  0  0  0
  -28.3956  -32.6805   25.0368 H   0  0  0  0  0  0
  -28.0646  -31.8552   26.5523 H   0  0  0  0  0  0
  -28.2532  -38.0096   24.7563 H   0  0  0  0  0  0
  -28.1128  -36.2628   24.6209 H   0  0  0  0  0  0
  -27.2302  -37.1287   25.8859 H   0  0  0  0  0  0
  -20.9599  -29.8725   21.6659 H   0  0  0  0  0  0
  -26.0105  -38.2746   24.1479 H   0  0  0  0  0  0
  -28.6559  -20.6417   23.4791 H   0  0  0  0  0  0
  -27.0818  -21.5184   23.1088 H   0  0  0  0  0  0
  -25.8217  -19.4240   23.7180 H   0  0  0  0  0  0
  -27.4268  -18.6044   24.0821 H   0  0  0  0  0  0
  -31.1566  -22.4144   20.3985 H   0  0  0  0  0  0
  -31.2000  -21.1244   19.1666 H   0  0  0  0  0  0
  -29.2579  -22.0152   18.0097 H   0  0  0  0  0  0
  -29.9469  -23.5596   18.6017 H   0  0  0  0  0  0
  -26.5088  -19.8276   21.3422 H   0  0  0  0  0  0
  -29.6230  -21.3022   21.5532 H   0  0  0  0  0  0
  -27.3725  -15.6527   21.6203 H   0  0  0  0  0  0
  -26.8619  -16.9165   22.6631 H   0  0  0  0  0  0
  -28.3324  -16.0125   23.0610 H   0  0  0  0  0  0
  -31.7486  -17.5705   18.9127 H   0  0  0  0  0  0
  -32.0510  -19.0561   19.7978 H   0  0  0  0  0  0
  -30.9961  -19.0521   18.3712 H   0  0  0  0  0  0
  -27.0657  -21.2567   19.0709 H   0  0  0  0  0  0
  -26.7593  -22.9577   18.7466 H   0  0  0  0  0  0
  -26.3771  -22.2735   20.3243 H   0  0  0  0  0  0
  -29.0268  -24.3363   21.4505 H   0  0  0  0  0  0
  -27.3503  -24.2310   21.2432 H   0  0  0  0  0  0
  1 25  1  0  0  0
  1 30  2  0  0  0
  1 71  1  0  0  0
  2  3  1  0  0  0
  2 25  1  0  0  0
  2 87  1  0  0  0
  2 88  1  0  0  0
  3  4  1  0  0  0
  3 89  1  0  0  0
  3 90  1  0  0  0
  4  5  1  0  0  0
  4 91  1  0  0  0
  4 92  1  0  0  0
  5  6  1  0  0  0
  5 26  1  0  0  0
  5 93  1  0  0  0
  6 25  1  0  0  0
  6 94  1  0  0  0
  6 95  1  0  0  0
  7  8  2  0  0  0
  7 26  1  0  0  0
  7 29  1  0  0  0
  8  9  1  0  0  0
  8 22  1  0  0  0
  9 10  1  0  0  0
  9 27  2  0  0  0
 10 11  2  0  0  0
 10 15  1  0  0  0
 11 12  1  0  0  0
 11 96  1  0  0  0
 12 13  2  0  0  0
 12 97  1  0  0  0
 13 14  1  0  0  0
 13 31  1  0  0  0
 14 15  2  0  0  0
 14 98  1  0  0  0
 15 99  1  0  0  0
 16 17  2  0  0  0
 16 21  1  0  0  0
 16 31  1  0  0  0
 17 18  1  0  0  0
 17100  1  0  0  0
 18 19  2  0  0  0
 18101  1  0  0  0
 19 20  1  0  0  0
 19 24  1  0  0  0
 20 21  2  0  0  0
 20102  1  0  0  0
 21 23  1  0  0  0
 22 28  1  0  0  0
 22 32  2  0  0  0
 26 27  1  0  0  0
 28103  1  0  0  0
 28104  1  0  0  0
 29105  1  0  0  0
 29106  1  0  0  0
 33 34  1  0  0  0
 33 66  1  0  0  0
 33 70  2  0  0  0
 34 36  1  0  0  0
 34 59  1  0  0  0
 34107  1  0  0  0
 35 44  2  0  0  0
 35 45  1  0  0  0
 35 68  1  0  0  0
 36 56  1  0  0  0
 36108  1  0  0  0
 37 39  1  0  0  0
 37 47  1  0  0  0
 37 66  1  0  0  0
 37109  1  0  0  0
 38 43  2  0  0  0
 38 46  1  0  0  0
 38 47  1  0  0  0
 39 64  1  0  0  0
 39 67  2  0  0  0
 40 52  1  0  0  0
 40 53  2  0  0  0
 40 58  1  0  0  0
 41110  1  0  0  0
 41111  1  0  0  0
 41112  1  0  0  0
 41 48  1  0  0  0
 42 43  1  0  0  0
 42 66  1  0  0  0
 42113  1  0  0  0
 42114  1  0  0  0
 43 44  1  0  0  0
 44115  1  0  0  0
 45 46  2  0  0  0
 45116  1  0  0  0
 46117  1  0  0  0
 47118  1  0  0  0
 47119  1  0  0  0
 48 56  1  0  0  0
 48 65  1  0  0  0
 48120  1  0  0  0
 49 50  1  0  0  0
 49 53  1  0  0  0
 49 64  1  0  0  0
 49121  1  0  0  0
 50 51  1  0  0  0
 50122  1  0  0  0
 50123  1  0  0  0
 51 52  1  0  0  0
 51124  1  0  0  0
 51125  1  0  0  0
 52126  1  0  0  0
 52127  1  0  0  0
 53 54  1  0  0  0
 54 55  2  0  0  0
 54128  1  0  0  0
 55 57  1  0  0  0
 55129  1  0  0  0
 56 69  2  0  0  0
 57 58  2  0  0  0
 57130  1  0  0  0
 58131  1  0  0  0
 59 60  1  0  0  0
 59 61  1  0  0  0
 59 62  1  0  0  0
 60132  1  0  0  0
 60133  1  0  0  0
 60134  1  0  0  0
 61135  1  0  0  0
 61136  1  0  0  0
 61137  1  0  0  0
 62138  1  0  0  0
 62139  1  0  0  0
 62140  1  0  0  0
 63 65  1  0  0  0
 63141  1  0  0  0
 63142  1  0  0  0
 63143  1  0  0  0
 64144  1  0  0  0
 65145  1  0  0  0
 68 85  1  0  0  0
 71 72  1  0  0  0
 71 74  2  0  0  0
 72 73  2  0  0  0
 72 82  1  0  0  0
 73 86  1  0  0  0
 73 79  1  0  0  0
 74 83  1  0  0  0
 74 86  1  0  0  0
 75 76  1  0  0  0
 75 79  1  0  0  0
 75146  1  0  0  0
 75147  1  0  0  0
 76 79  1  0  0  0
 76148  1  0  0  0
 76149  1  0  0  0
 77 78  1  0  0  0
 77 80  1  0  0  0
 77150  1  0  0  0
 77151  1  0  0  0
 78 81  1  0  0  0
 78152  1  0  0  0
 78153  1  0  0  0
 79154  1  0  0  0
 80 81  1  0  0  0
 80 86  1  0  0  0
 80155  1  0  0  0
 81 84  1  0  0  0
 81 85  1  0  0  0
 82156  1  0  0  0
 82157  1  0  0  0
 82158  1  0  0  0
 83159  1  0  0  0
 83160  1  0  0  0
 83161  1  0  0  0
 84162  1  0  0  0
 84163  1  0  0  0
 84164  1  0  0  0
 85165  1  0  0  0
 85166  1  0  0  0
M  ISO  4   1 100  68 101  71 100  85 101
M  END
> <chiral flag>
0

> <version>
0

> <s_m_source_file>
/data/baiqing/PycharmProjects/Reinvent-master-3.2/result/LINK_invent/BTK/process_docking_weight1_custom_sum_contain_oxygen_bond_distance_aromatic_linkinvent_7_9_3/rearranged_h_0178.sdf

> <i_m_source_file_index>
43

> <r_mmod_Potential_Energy-OPLS-2005>
1556.19653320312

> <r_mmod_Stretch_Energy-OPLS-2005>
652.384521484375

> <r_mmod_Bend_Energy-OPLS-2005>
504.716400146484

> <r_mmod_Torsional_Energy-OPLS-2005>
293.308990478516

> <r_mmod_Improper_Torsional_Energy-OPLS-2005>
5.31998205184937

> <r_mmod_Van_der_Waal_Energy-OPLS-2005>
109.913635253906

> <r_mmod_Electrostatic_Energy-OPLS-2005>
-285.923278808594

> <r_mmod_Solvation_Energy-OPLS-2005>
-180.377914428711

> <b_mmod_Minimization_Converged-OPLS-2005>
0

> <r_mmod_RMS_Derivative-OPLS-2005>
1.39904499053955

$$$$
44
                    3D
 Structure written by MMmdl.
167177  0  0  1  0            999 V2000
  -30.5112  -15.0245   20.4174 C   0  0  0  0  0  0
  -30.4523  -12.6339   19.5388 C   0  0  0  0  0  0
  -29.5459  -12.5486   18.2873 C   0  0  0  0  0  0
  -28.0766  -12.3219   18.6885 C   0  0  0  0  0  0
  -27.6357  -13.2565   19.8469 C   0  0  2  0  0  0
  -28.6676  -13.3018   20.9963 C   0  0  0  0  0  0
  -25.2469  -13.8222   20.5688 C   0  0  0  0  0  0
  -24.1783  -13.0445   20.9204 C   0  0  0  0  0  0
  -24.6405  -11.6927   20.8705 C   0  0  0  0  0  0
  -23.9087  -10.4297   21.0385 C   0  0  0  0  0  0
  -24.3628   -9.4215   21.9175 C   0  0  0  0  0  0
  -23.6309   -8.2242   22.0737 C   0  0  0  0  0  0
  -22.4284   -8.0274   21.3526 C   0  0  0  0  0  0
  -21.9919   -9.0248   20.4627 C   0  0  0  0  0  0
  -22.7253  -10.2133   20.3040 C   0  0  0  0  0  0
  -21.6853   -6.0739   22.5273 C   0  0  0  0  0  0
  -21.4017   -6.5635   23.8208 C   0  0  0  0  0  0
  -21.3675   -5.6783   24.9169 C   0  0  0  0  0  0
  -21.6054   -4.3045   24.7213 C   0  0  0  0  0  0
  -21.8825   -3.8142   23.4330 C   0  0  0  0  0  0
  -21.9191   -4.6968   22.3391 C   0  0  0  0  0  0
  -22.7799  -13.5211   21.1857 C   0  0  0  0  0  0
  -22.1658   -4.2153   21.0972 F   0  0  0  0  0  0
  -21.5631   -3.4527   25.7732 F   0  0  0  0  0  0
  -29.9483  -13.7382   20.4186 N   0  0  0  0  0  0
  -26.2908  -12.9476   20.3231 N   0  0  0  0  0  0
  -25.9339  -11.6590   20.5683 N   0  0  0  0  0  0
  -22.0427  -12.8207   22.0421 N   0  0  0  0  0  0
  -25.4130  -15.1958   20.4094 N   0  0  0  0  0  0
  -31.6797  -15.1002   20.0191 O   0  0  0  0  0  0
  -21.6633   -6.8879   21.4237 O   0  0  0  0  0  0
  -22.3486  -14.5514   20.6708 O   0  0  0  0  0  0
  -24.6442  -31.8399   23.1792 C   0  0  0  0  0  0
  -25.9210  -32.4651   23.8217 C   0  0  1  0  0  0
  -27.2460  -27.1187   20.1557 C   0  0  0  0  0  0
  -25.5947  -33.8450   24.2142 N   0  0  0  0  0  0
  -23.4496  -30.4525   21.5235 C   0  0  2  0  0  0
  -24.9057  -28.8631   20.1080 C   0  0  0  0  0  0
  -22.7580  -29.4515   22.4841 C   0  0  0  0  0  0
  -18.0317  -28.1388   22.8484 C   0  0  0  0  0  0
  -24.1497  -36.7236   23.2645 C   0  0  0  0  0  0
  -26.0033  -30.7064   21.3789 C   0  0  0  0  0  0
  -26.0776  -29.3120   20.7255 C   0  0  0  0  0  0
  -27.2416  -28.4545   20.7326 C   0  0  0  0  0  0
  -26.0466  -26.7642   19.5015 C   0  0  0  0  0  0
  -24.9024  -27.6038   19.4820 C   0  0  0  0  0  0
  -23.6770  -29.7636   20.1488 C   0  0  0  0  0  0
  -25.4127  -36.2991   24.0309 C   0  0  1  0  0  0
  -20.5934  -28.3716   23.1237 C   0  0  2  0  0  0
  -20.6786  -26.9414   22.5406 C   0  0  0  0  0  0
  -19.5749  -26.6378   21.5218 C   0  0  0  0  0  0
  -18.1943  -26.7926   22.1639 C   0  0  0  0  0  0
  -19.1576  -28.8870   23.2845 C   0  0  0  0  0  0
  -18.9489  -30.1466   23.8867 C   0  0  0  0  0  0
  -17.6486  -30.6580   24.0569 C   0  0  0  0  0  0
  -25.9070  -34.9377   23.5037 C   0  0  0  0  0  0
  -16.5373  -29.9069   23.6343 C   0  0  0  0  0  0
  -16.7306  -28.6485   23.0367 C   0  0  0  0  0  0
  -26.4544  -31.6526   25.0667 C   0  0  0  0  0  0
  -25.3725  -31.3725   26.1360 C   0  0  0  0  0  0
  -27.0428  -30.2931   24.6248 C   0  0  0  0  0  0
  -27.6074  -32.4294   25.7454 C   0  0  0  0  0  0
  -27.5570  -37.1764   24.8461 C   0  0  0  0  0  0
  -21.4281  -29.3028   22.3588 N   0  0  0  0  0  0
  -26.4279  -37.3720   23.9400 N   0  0  0  0  0  0
  -24.7178  -31.0233   22.0822 N   0  0  0  0  0  0
  -23.4215  -28.8118   23.3038 O   0  0  0  0  0  0
  -28.3467  -26.1857   20.2650 O   0  0  0  0  0  0
  -26.5680  -34.8886   22.4619 O   0  0  0  0  0  0
  -23.5563  -32.1304   23.6988 O   0  0  0  0  0  0
  -28.9195  -20.4374   20.3073 C   0  0  0  0  0  0
  -31.3272  -20.6569   21.4724 C   0  0  0  0  0  0
  -30.5847  -21.8549   21.3019 C   0  0  0  0  0  0
  -29.3000  -21.8416   20.6860 C   0  0  0  0  0  0
  -29.7448  -19.2043   20.5440 C   0  0  0  0  0  0
  -31.1682  -23.1399   21.8417 C   0  0  0  0  0  0
  -32.1870  -27.5887   22.1110 C   0  0  0  0  0  0
  -33.1098  -26.4136   21.9257 C   0  0  0  0  0  0
  -28.8481  -23.8557   22.1660 C   0  0  0  0  0  0
  -31.6232  -26.2454   21.6891 C   0  0  0  0  0  0
  -28.4111  -23.2770   20.8017 C   0  0  2  0  0  0
  -26.9227  -22.9042   20.8733 C   0  0  0  0  0  0
  -29.5469  -17.6375   19.9961 C   0  0  0  0  0  0
  -30.7515  -25.4422   22.6510 C   0  0  0  0  0  0
  -28.4737  -24.6778   19.8298 C   0  0  0  0  0  0
  -30.9405  -19.4001   21.1306 N   0  0  0  0  0  0
  -30.2974  -24.1209   22.1767 N   0  0  0  0  0  0
  -29.7368  -16.1995   20.6847 N   0  0  0  0  0  0
  -32.3875  -23.2474   21.9908 O   0  0  0  0  0  0
  -31.4859  -12.7934   19.2285 H   0  0  0  0  0  0
  -30.4553  -11.6873   20.0838 H   0  0  0  0  0  0
  -29.8867  -11.7479   17.6296 H   0  0  0  0  0  0
  -29.6347  -13.4734   17.7154 H   0  0  0  0  0  0
  -27.9741  -11.2808   18.9993 H   0  0  0  0  0  0
  -27.4247  -12.4408   17.8224 H   0  0  0  0  0  0
  -27.5993  -14.2598   19.4193 H   0  0  0  0  0  0
  -28.7619  -12.3267   21.4777 H   0  0  0  0  0  0
  -28.3419  -13.9929   21.7756 H   0  0  0  0  0  0
  -25.2772   -9.5713   22.4739 H   0  0  0  0  0  0
  -24.0025   -7.4648   22.7453 H   0  0  0  0  0  0
  -21.0844   -8.8796   19.8929 H   0  0  0  0  0  0
  -22.3725  -10.9678   19.6140 H   0  0  0  0  0  0
  -21.2009   -7.6137   23.9725 H   0  0  0  0  0  0
  -21.1493   -6.0491   25.9078 H   0  0  0  0  0  0
  -22.0592   -2.7600   23.2816 H   0  0  0  0  0  0
  -22.4036  -11.9914   22.4915 H   0  0  0  0  0  0
  -21.1030  -13.1230   22.2538 H   0  0  0  0  0  0
  -24.6409  -15.8444   20.5135 H   0  0  0  0  0  0
  -26.2474  -15.6336   20.0402 H   0  0  0  0  0  0
  -26.7259  -32.5267   23.0930 H   0  0  0  0  0  0
  -25.0060  -33.9537   25.0268 H   0  0  0  0  0  0
  -22.7551  -31.2792   21.3613 H   0  0  0  0  0  0
  -23.3748  -35.9575   23.3289 H   0  0  0  0  0  0
  -24.3604  -36.8889   22.2066 H   0  0  0  0  0  0
  -23.7265  -37.6428   23.6705 H   0  0  0  0  0  0
  -26.1548  -31.4560   20.6015 H   0  0  0  0  0  0
  -26.8729  -30.7668   22.0201 H   0  0  0  0  0  0
  -28.1363  -28.7958   21.2334 H   0  0  0  0  0  0
  -25.9707  -25.7980   19.0266 H   0  0  0  0  0  0
  -24.0034  -27.2555   18.9921 H   0  0  0  0  0  0
  -23.8019  -30.5285   19.3813 H   0  0  0  0  0  0
  -22.7941  -29.1959   19.8490 H   0  0  0  0  0  0
  -25.1311  -36.1813   25.0808 H   0  0  0  0  0  0
  -21.0044  -28.3296   24.1350 H   0  0  0  0  0  0
  -20.5674  -26.2337   23.3632 H   0  0  0  0  0  0
  -21.6660  -26.7387   22.1225 H   0  0  0  0  0  0
  -19.6902  -25.6283   21.1254 H   0  0  0  0  0  0
  -19.6677  -27.3184   20.6744 H   0  0  0  0  0  0
  -17.4223  -26.6706   21.4026 H   0  0  0  0  0  0
  -18.0312  -26.0053   22.9020 H   0  0  0  0  0  0
  -19.7959  -30.7303   24.2218 H   0  0  0  0  0  0
  -17.5029  -31.6259   24.5169 H   0  0  0  0  0  0
  -15.5366  -30.2968   23.7646 H   0  0  0  0  0  0
  -15.8722  -28.0784   22.7094 H   0  0  0  0  0  0
  -24.5912  -30.7058   25.7684 H   0  0  0  0  0  0
  -24.8903  -32.2910   26.4718 H   0  0  0  0  0  0
  -25.8012  -30.8951   27.0181 H   0  0  0  0  0  0
  -26.3046  -29.6628   24.1280 H   0  0  0  0  0  0
  -27.4086  -29.7249   25.4814 H   0  0  0  0  0  0
  -27.8934  -30.4177   23.9541 H   0  0  0  0  0  0
  -27.2678  -33.3623   26.1962 H   0  0  0  0  0  0
  -28.3931  -32.6802   25.0311 H   0  0  0  0  0  0
  -28.0704  -31.8466   26.5426 H   0  0  0  0  0  0
  -28.2562  -38.0086   24.7520 H   0  0  0  0  0  0
  -28.1087  -36.2610   24.6263 H   0  0  0  0  0  0
  -27.2298  -37.1384   25.8870 H   0  0  0  0  0  0
  -20.9496  -29.8718   21.6748 H   0  0  0  0  0  0
  -26.0132  -38.2772   24.1428 H   0  0  0  0  0  0
  -27.9566  -20.2939   19.8362 H   0  0  0  0  0  0
  -32.2951  -20.6950   21.9539 H   0  0  0  0  0  0
  -32.2420  -28.3785   21.3633 H   0  0  0  0  0  0
  -32.0109  -27.9265   23.1313 H   0  0  0  0  0  0
  -33.5369  -25.9620   22.8192 H   0  0  0  0  0  0
  -33.7619  -26.4300   21.0544 H   0  0  0  0  0  0
  -28.6296  -23.1458   22.9659 H   0  0  0  0  0  0
  -28.2673  -24.7476   22.4005 H   0  0  0  0  0  0
  -31.3066  -26.1876   20.6486 H   0  0  0  0  0  0
  -26.7287  -22.1520   21.6375 H   0  0  0  0  0  0
  -26.5809  -22.5022   19.9190 H   0  0  0  0  0  0
  -26.3034  -23.7742   21.1002 H   0  0  0  0  0  0
  -30.1276  -17.5935   19.0735 H   0  0  0  0  0  0
  -28.5131  -17.6148   19.6505 H   0  0  0  0  0  0
  -29.8952  -26.0691   22.9002 H   0  0  0  0  0  0
  -31.2906  -25.3087   23.5915 H   0  0  0  0  0  0
  -27.8527  -24.5245   18.9481 H   0  0  0  0  0  0
  -29.4858  -24.6635   19.4277 H   0  0  0  0  0  0
  -28.9155  -15.9651   21.2191 H   0  0  0  0  0  0
  1 25  1  0  0  0
  1 30  2  0  0  0
  1 88  1  0  0  0
  2  3  1  0  0  0
  2 25  1  0  0  0
  2 90  1  0  0  0
  2 91  1  0  0  0
  3  4  1  0  0  0
  3 92  1  0  0  0
  3 93  1  0  0  0
  4  5  1  0  0  0
  4 94  1  0  0  0
  4 95  1  0  0  0
  5  6  1  0  0  0
  5 26  1  0  0  0
  5 96  1  0  0  0
  6 25  1  0  0  0
  6 97  1  0  0  0
  6 98  1  0  0  0
  7  8  2  0  0  0
  7 26  1  0  0  0
  7 29  1  0  0  0
  8  9  1  0  0  0
  8 22  1  0  0  0
  9 10  1  0  0  0
  9 27  2  0  0  0
 10 11  2  0  0  0
 10 15  1  0  0  0
 11 12  1  0  0  0
 11 99  1  0  0  0
 12 13  2  0  0  0
 12100  1  0  0  0
 13 14  1  0  0  0
 13 31  1  0  0  0
 14 15  2  0  0  0
 14101  1  0  0  0
 15102  1  0  0  0
 16 17  2  0  0  0
 16 21  1  0  0  0
 16 31  1  0  0  0
 17 18  1  0  0  0
 17103  1  0  0  0
 18 19  2  0  0  0
 18104  1  0  0  0
 19 20  1  0  0  0
 19 24  1  0  0  0
 20 21  2  0  0  0
 20105  1  0  0  0
 21 23  1  0  0  0
 22 28  1  0  0  0
 22 32  2  0  0  0
 26 27  1  0  0  0
 28106  1  0  0  0
 28107  1  0  0  0
 29108  1  0  0  0
 29109  1  0  0  0
 33 34  1  0  0  0
 33 66  1  0  0  0
 33 70  2  0  0  0
 34 36  1  0  0  0
 34 59  1  0  0  0
 34110  1  0  0  0
 35 44  2  0  0  0
 35 45  1  0  0  0
 35 68  1  0  0  0
 36 56  1  0  0  0
 36111  1  0  0  0
 37 39  1  0  0  0
 37 47  1  0  0  0
 37 66  1  0  0  0
 37112  1  0  0  0
 38 43  2  0  0  0
 38 46  1  0  0  0
 38 47  1  0  0  0
 39 64  1  0  0  0
 39 67  2  0  0  0
 40 52  1  0  0  0
 40 53  2  0  0  0
 40 58  1  0  0  0
 41113  1  0  0  0
 41114  1  0  0  0
 41115  1  0  0  0
 41 48  1  0  0  0
 42 43  1  0  0  0
 42 66  1  0  0  0
 42116  1  0  0  0
 42117  1  0  0  0
 43 44  1  0  0  0
 44118  1  0  0  0
 45 46  2  0  0  0
 45119  1  0  0  0
 46120  1  0  0  0
 47121  1  0  0  0
 47122  1  0  0  0
 48 56  1  0  0  0
 48 65  1  0  0  0
 48123  1  0  0  0
 49 50  1  0  0  0
 49 53  1  0  0  0
 49 64  1  0  0  0
 49124  1  0  0  0
 50 51  1  0  0  0
 50125  1  0  0  0
 50126  1  0  0  0
 51 52  1  0  0  0
 51127  1  0  0  0
 51128  1  0  0  0
 52129  1  0  0  0
 52130  1  0  0  0
 53 54  1  0  0  0
 54 55  2  0  0  0
 54131  1  0  0  0
 55 57  1  0  0  0
 55132  1  0  0  0
 56 69  2  0  0  0
 57 58  2  0  0  0
 57133  1  0  0  0
 58134  1  0  0  0
 59 60  1  0  0  0
 59 61  1  0  0  0
 59 62  1  0  0  0
 60135  1  0  0  0
 60136  1  0  0  0
 60137  1  0  0  0
 61138  1  0  0  0
 61139  1  0  0  0
 61140  1  0  0  0
 62141  1  0  0  0
 62142  1  0  0  0
 62143  1  0  0  0
 63 65  1  0  0  0
 63144  1  0  0  0
 63145  1  0  0  0
 63146  1  0  0  0
 64147  1  0  0  0
 65148  1  0  0  0
 68 85  1  0  0  0
 71 74  2  0  0  0
 71 75  1  0  0  0
 71149  1  0  0  0
 72 73  2  0  0  0
 72 86  1  0  0  0
 72150  1  0  0  0
 73 74  1  0  0  0
 73 76  1  0  0  0
 74 81  1  0  0  0
 75 83  1  0  0  0
 75 86  2  0  0  0
 76 87  1  0  0  0
 76 89  2  0  0  0
 77 78  1  0  0  0
 77 80  1  0  0  0
 77151  1  0  0  0
 77152  1  0  0  0
 78 80  1  0  0  0
 78153  1  0  0  0
 78154  1  0  0  0
 79 81  1  0  0  0
 79 87  1  0  0  0
 79155  1  0  0  0
 79156  1  0  0  0
 80 84  1  0  0  0
 80157  1  0  0  0
 81 82  1  0  0  0
 81 85  1  0  0  0
 82158  1  0  0  0
 82159  1  0  0  0
 82160  1  0  0  0
 83 88  1  0  0  0
 83161  1  0  0  0
 83162  1  0  0  0
 84 87  1  0  0  0
 84163  1  0  0  0
 84164  1  0  0  0
 85165  1  0  0  0
 85166  1  0  0  0
 88167  1  0  0  0
M  ISO  4   1 100  68 101  85 101  88 100
M  END
> <chiral flag>
0

> <version>
0

> <s_m_source_file>
/data/baiqing/PycharmProjects/Reinvent-master-3.2/result/LINK_invent/BTK/process_docking_weight1_custom_sum_contain_oxygen_bond_distance_aromatic_linkinvent_7_9_3/rearranged_h_0178.sdf

> <i_m_source_file_index>
44

> <r_mmod_Potential_Energy-OPLS-2005>
519.195617675781

> <r_mmod_Stretch_Energy-OPLS-2005>
321.640228271484

> <r_mmod_Bend_Energy-OPLS-2005>
347.077484130859

> <r_mmod_Torsional_Energy-OPLS-2005>
317.543792724609

> <r_mmod_Improper_Torsional_Energy-OPLS-2005>
8.60841274261475

> <r_mmod_Van_der_Waal_Energy-OPLS-2005>
135.931457519531

> <r_mmod_Electrostatic_Energy-OPLS-2005>
-577.491088867188

> <r_mmod_Solvation_Energy-OPLS-2005>
-259.286163330078

> <b_mmod_Minimization_Converged-OPLS-2005>
0

> <r_mmod_RMS_Derivative-OPLS-2005>
3.50811505317688

$$$$
45
                    3D
 Structure written by MMmdl.
159168  0  0  1  0            999 V2000
  -30.6884  -14.7952   20.4326 C   0  0  0  0  0  0
  -30.4078  -12.5001   19.4727 C   0  0  0  0  0  0
  -29.4930  -12.5003   18.2319 C   0  0  0  0  0  0
  -28.0287  -12.3025   18.6570 C   0  0  0  0  0  0
  -27.6248  -13.2314   19.8299 C   0  0  2  0  0  0
  -28.6782  -13.2649   20.9624 C   0  0  0  0  0  0
  -25.2450  -13.8172   20.5683 C   0  0  0  0  0  0
  -24.1755  -13.0405   20.9220 C   0  0  0  0  0  0
  -24.6364  -11.6911   20.8766 C   0  0  0  0  0  0
  -23.9040  -10.4289   21.0409 C   0  0  0  0  0  0
  -24.3603   -9.4204   21.9190 C   0  0  0  0  0  0
  -23.6291   -8.2239   22.0761 C   0  0  0  0  0  0
  -22.4279   -8.0273   21.3548 C   0  0  0  0  0  0
  -21.9896   -9.0245   20.4654 C   0  0  0  0  0  0
  -22.7206  -10.2142   20.3051 C   0  0  0  0  0  0
  -21.6859   -6.0720   22.5276 C   0  0  0  0  0  0
  -21.4008   -6.5627   23.8201 C   0  0  0  0  0  0
  -21.3662   -5.6785   24.9168 C   0  0  0  0  0  0
  -21.6051   -4.3039   24.7225 C   0  0  0  0  0  0
  -21.8817   -3.8128   23.4335 C   0  0  0  0  0  0
  -21.9197   -4.6945   22.3401 C   0  0  0  0  0  0
  -22.7784  -13.5189   21.1890 C   0  0  0  0  0  0
  -22.1650   -4.2137   21.0978 F   0  0  0  0  0  0
  -21.5655   -3.4505   25.7720 F   0  0  0  0  0  0
  -29.9635  -13.6166   20.3477 N   0  0  0  0  0  0
  -26.2854  -12.9390   20.3243 N   0  0  0  0  0  0
  -25.9294  -11.6522   20.5768 N   0  0  0  0  0  0
  -22.0455  -12.8176   22.0462 N   0  0  0  0  0  0
  -25.4038  -15.1896   20.4086 N   0  0  0  0  0  0
  -31.9004  -14.7210   20.2090 O   0  0  0  0  0  0
  -21.6662   -6.8848   21.4225 O   0  0  0  0  0  0
  -22.3453  -14.5496   20.6751 O   0  0  0  0  0  0
  -24.6298  -31.8519   23.1943 C   0  0  0  0  0  0
  -25.9129  -32.4730   23.8284 C   0  0  1  0  0  0
  -27.2316  -27.2635   20.1187 C   0  0  0  0  0  0
  -25.5932  -33.8534   24.2211 N   0  0  0  0  0  0
  -23.4274  -30.4720   21.5379 C   0  0  2  0  0  0
  -24.8765  -28.9152   20.1034 C   0  0  0  0  0  0
  -22.7503  -29.4592   22.4914 C   0  0  0  0  0  0
  -18.0280  -28.1390   22.8473 C   0  0  0  0  0  0
  -24.1485  -36.7275   23.2640 C   0  0  0  0  0  0
  -25.9713  -30.7640   21.3741 C   0  0  0  0  0  0
  -26.0445  -29.3856   20.7166 C   0  0  0  0  0  0
  -27.2180  -28.5674   20.7217 C   0  0  0  0  0  0
  -26.0400  -26.8561   19.4796 C   0  0  0  0  0  0
  -24.8798  -27.6584   19.4745 C   0  0  0  0  0  0
  -23.6431  -29.7968   20.1557 C   0  0  0  0  0  0
  -25.4114  -36.3053   24.0313 C   0  0  1  0  0  0
  -20.5881  -28.3696   23.1272 C   0  0  2  0  0  0
  -20.6768  -26.9407   22.5422 C   0  0  0  0  0  0
  -19.5754  -26.6372   21.5216 C   0  0  0  0  0  0
  -18.1926  -26.7930   22.1609 C   0  0  0  0  0  0
  -19.1537  -28.8859   23.2861 C   0  0  0  0  0  0
  -18.9462  -30.1465   23.8869 C   0  0  0  0  0  0
  -17.6463  -30.6586   24.0567 C   0  0  0  0  0  0
  -25.9066  -34.9431   23.5071 C   0  0  0  0  0  0
  -16.5353  -29.9080   23.6343 C   0  0  0  0  0  0
  -16.7270  -28.6506   23.0346 C   0  0  0  0  0  0
  -26.4489  -31.6567   25.0687 C   0  0  0  0  0  0
  -25.3711  -31.3764   26.1426 C   0  0  0  0  0  0
  -27.0336  -30.2971   24.6210 C   0  0  0  0  0  0
  -27.6034  -32.4326   25.7473 C   0  0  0  0  0  0
  -27.5577  -37.1781   24.8449 C   0  0  0  0  0  0
  -21.4210  -29.3032   22.3658 N   0  0  0  0  0  0
  -26.4273  -37.3760   23.9424 N   0  0  0  0  0  0
  -24.6958  -31.0491   22.0916 N   0  0  0  0  0  0
  -23.4197  -28.8155   23.3030 O   0  0  0  0  0  0
  -28.3325  -26.3811   20.2298 O   0  0  0  0  0  0
  -26.5650  -34.8910   22.4647 O   0  0  0  0  0  0
  -23.5452  -32.1356   23.7251 O   0  0  0  0  0  0
  -28.0267  -22.7059   18.8001 C   0  0  0  0  0  0
  -29.4813  -21.7696   20.8882 C   0  0  0  0  0  0
  -29.0567  -20.7575   19.9631 C   0  0  0  0  0  0
  -28.2835  -21.3015   18.8902 C   0  0  0  0  0  0
  -28.5412  -23.6480   19.7283 C   0  0  0  0  0  0
  -30.5763  -18.7294   21.0192 C   0  0  0  0  0  0
  -28.3996  -18.1049   20.2382 C   0  0  0  0  0  0
  -31.0843  -17.2323   20.8541 C   0  0  0  0  0  0
  -28.8251  -16.5726   20.0736 C   0  0  0  0  0  0
  -29.4927  -19.1960   20.0103 C   0  0  0  0  0  0
  -27.7623  -20.4257   17.7594 C   0  0  0  0  0  0
  -28.5459  -25.2077   19.3263 C   0  0  0  0  0  0
  -29.2583  -23.1347   20.7751 N   0  0  0  0  0  0
  -30.1299  -16.0857   20.6165 N   0  0  0  0  0  0
  -31.4480  -12.5906   19.1568 H   0  0  0  0  0  0
  -30.3428  -11.5481   20.0031 H   0  0  0  0  0  0
  -29.7938  -11.7110   17.5412 H   0  0  0  0  0  0
  -29.5970  -13.4411   17.6910 H   0  0  0  0  0  0
  -27.9072  -11.2586   18.9494 H   0  0  0  0  0  0
  -27.3622  -12.4567   17.8071 H   0  0  0  0  0  0
  -27.5804  -14.2209   19.3834 H   0  0  0  0  0  0
  -28.7430  -12.3003   21.4680 H   0  0  0  0  0  0
  -28.4066  -13.9944   21.7274 H   0  0  0  0  0  0
  -25.2742   -9.5683   22.4762 H   0  0  0  0  0  0
  -24.0012   -7.4610   22.7456 H   0  0  0  0  0  0
  -21.0836   -8.8733   19.8958 H   0  0  0  0  0  0
  -22.3634  -10.9679   19.6165 H   0  0  0  0  0  0
  -21.1982   -7.6141   23.9683 H   0  0  0  0  0  0
  -21.1489   -6.0530   25.9079 H   0  0  0  0  0  0
  -22.0604   -2.7589   23.2842 H   0  0  0  0  0  0
  -22.4078  -11.9822   22.4814 H   0  0  0  0  0  0
  -21.1080  -13.1207   22.2695 H   0  0  0  0  0  0
  -24.6298  -15.8317   20.5320 H   0  0  0  0  0  0
  -26.2464  -15.6437   20.0848 H   0  0  0  0  0  0
  -26.7195  -32.5377   23.1025 H   0  0  0  0  0  0
  -25.0056  -33.9644   25.0344 H   0  0  0  0  0  0
  -22.7241  -31.2938   21.3882 H   0  0  0  0  0  0
  -23.3749  -35.9601   23.3258 H   0  0  0  0  0  0
  -24.3593  -36.8955   22.2071 H   0  0  0  0  0  0
  -23.7214  -37.6448   23.6700 H   0  0  0  0  0  0
  -26.1113  -31.5238   20.6035 H   0  0  0  0  0  0
  -26.8471  -30.8129   22.0095 H   0  0  0  0  0  0
  -28.1070  -28.9221   21.2253 H   0  0  0  0  0  0
  -25.9670  -25.8813   19.0203 H   0  0  0  0  0  0
  -23.9837  -27.2873   18.9959 H   0  0  0  0  0  0
  -23.7549  -30.5660   19.3915 H   0  0  0  0  0  0
  -22.7638  -29.2199   19.8618 H   0  0  0  0  0  0
  -25.1294  -36.1882   25.0800 H   0  0  0  0  0  0
  -20.9963  -28.3270   24.1399 H   0  0  0  0  0  0
  -20.5647  -26.2311   23.3633 H   0  0  0  0  0  0
  -21.6642  -26.7426   22.1230 H   0  0  0  0  0  0
  -19.6923  -25.6275   21.1256 H   0  0  0  0  0  0
  -19.6702  -27.3170   20.6737 H   0  0  0  0  0  0
  -17.4209  -26.6671   21.4003 H   0  0  0  0  0  0
  -18.0324  -26.0073   22.9002 H   0  0  0  0  0  0
  -19.7946  -30.7282   24.2218 H   0  0  0  0  0  0
  -17.5027  -31.6261   24.5168 H   0  0  0  0  0  0
  -15.5355  -30.2981   23.7693 H   0  0  0  0  0  0
  -15.8668  -28.0834   22.7070 H   0  0  0  0  0  0
  -24.5843  -30.7161   25.7770 H   0  0  0  0  0  0
  -24.8962  -32.2963   26.4851 H   0  0  0  0  0  0
  -25.8019  -30.8930   27.0200 H   0  0  0  0  0  0
  -26.2925  -29.6721   24.1217 H   0  0  0  0  0  0
  -27.3976  -29.7254   25.4753 H   0  0  0  0  0  0
  -27.8818  -30.4226   23.9479 H   0  0  0  0  0  0
  -27.2605  -33.3622   26.2034 H   0  0  0  0  0  0
  -28.3851  -32.6894   25.0310 H   0  0  0  0  0  0
  -28.0680  -31.8460   26.5411 H   0  0  0  0  0  0
  -28.2554  -38.0116   24.7546 H   0  0  0  0  0  0
  -28.1103  -36.2653   24.6187 H   0  0  0  0  0  0
  -27.2317  -37.1331   25.8851 H   0  0  0  0  0  0
  -20.9403  -29.8746   21.6842 H   0  0  0  0  0  0
  -26.0141  -38.2820   24.1452 H   0  0  0  0  0  0
  -27.4909  -23.0838   17.9377 H   0  0  0  0  0  0
  -30.0760  -21.4836   21.7424 H   0  0  0  0  0  0
  -31.4469  -19.3802   20.9251 H   0  0  0  0  0  0
  -30.2151  -18.8797   22.0371 H   0  0  0  0  0  0
  -27.9917  -18.2404   21.2399 H   0  0  0  0  0  0
  -27.5617  -18.2858   19.5675 H   0  0  0  0  0  0
  -31.6870  -16.9824   21.7291 H   0  0  0  0  0  0
  -31.7864  -17.2472   20.0186 H   0  0  0  0  0  0
  -28.8179  -16.3292   19.0098 H   0  0  0  0  0  0
  -28.0394  -15.9841   20.5386 H   0  0  0  0  0  0
  -29.9253  -19.0071   19.0261 H   0  0  0  0  0  0
  -27.5091  -21.0351   16.8895 H   0  0  0  0  0  0
  -26.8577  -19.8928   18.0537 H   0  0  0  0  0  0
  -28.5034  -19.7012   17.4223 H   0  0  0  0  0  0
  -27.9743  -25.3348   18.4059 H   0  0  0  0  0  0
  -29.5714  -25.3597   18.9865 H   0  0  0  0  0  0
  1 25  1  0  0  0
  1 30  2  0  0  0
  1 84  1  0  0  0
  2  3  1  0  0  0
  2 25  1  0  0  0
  2 85  1  0  0  0
  2 86  1  0  0  0
  3  4  1  0  0  0
  3 87  1  0  0  0
  3 88  1  0  0  0
  4  5  1  0  0  0
  4 89  1  0  0  0
  4 90  1  0  0  0
  5  6  1  0  0  0
  5 26  1  0  0  0
  5 91  1  0  0  0
  6 25  1  0  0  0
  6 92  1  0  0  0
  6 93  1  0  0  0
  7  8  2  0  0  0
  7 26  1  0  0  0
  7 29  1  0  0  0
  8  9  1  0  0  0
  8 22  1  0  0  0
  9 10  1  0  0  0
  9 27  2  0  0  0
 10 11  2  0  0  0
 10 15  1  0  0  0
 11 12  1  0  0  0
 11 94  1  0  0  0
 12 13  2  0  0  0
 12 95  1  0  0  0
 13 14  1  0  0  0
 13 31  1  0  0  0
 14 15  2  0  0  0
 14 96  1  0  0  0
 15 97  1  0  0  0
 16 17  2  0  0  0
 16 21  1  0  0  0
 16 31  1  0  0  0
 17 18  1  0  0  0
 17 98  1  0  0  0
 18 19  2  0  0  0
 18 99  1  0  0  0
 19 20  1  0  0  0
 19 24  1  0  0  0
 20 21  2  0  0  0
 20100  1  0  0  0
 21 23  1  0  0  0
 22 28  1  0  0  0
 22 32  2  0  0  0
 26 27  1  0  0  0
 28101  1  0  0  0
 28102  1  0  0  0
 29103  1  0  0  0
 29104  1  0  0  0
 33 34  1  0  0  0
 33 66  1  0  0  0
 33 70  2  0  0  0
 34 36  1  0  0  0
 34 59  1  0  0  0
 34105  1  0  0  0
 35 44  2  0  0  0
 35 45  1  0  0  0
 35 68  1  0  0  0
 36 56  1  0  0  0
 36106  1  0  0  0
 37 39  1  0  0  0
 37 47  1  0  0  0
 37 66  1  0  0  0
 37107  1  0  0  0
 38 43  2  0  0  0
 38 46  1  0  0  0
 38 47  1  0  0  0
 39 64  1  0  0  0
 39 67  2  0  0  0
 40 52  1  0  0  0
 40 53  2  0  0  0
 40 58  1  0  0  0
 41108  1  0  0  0
 41109  1  0  0  0
 41110  1  0  0  0
 41 48  1  0  0  0
 42 43  1  0  0  0
 42 66  1  0  0  0
 42111  1  0  0  0
 42112  1  0  0  0
 43 44  1  0  0  0
 44113  1  0  0  0
 45 46  2  0  0  0
 45114  1  0  0  0
 46115  1  0  0  0
 47116  1  0  0  0
 47117  1  0  0  0
 48 56  1  0  0  0
 48 65  1  0  0  0
 48118  1  0  0  0
 49 50  1  0  0  0
 49 53  1  0  0  0
 49 64  1  0  0  0
 49119  1  0  0  0
 50 51  1  0  0  0
 50120  1  0  0  0
 50121  1  0  0  0
 51 52  1  0  0  0
 51122  1  0  0  0
 51123  1  0  0  0
 52124  1  0  0  0
 52125  1  0  0  0
 53 54  1  0  0  0
 54 55  2  0  0  0
 54126  1  0  0  0
 55 57  1  0  0  0
 55127  1  0  0  0
 56 69  2  0  0  0
 57 58  2  0  0  0
 57128  1  0  0  0
 58129  1  0  0  0
 59 60  1  0  0  0
 59 61  1  0  0  0
 59 62  1  0  0  0
 60130  1  0  0  0
 60131  1  0  0  0
 60132  1  0  0  0
 61133  1  0  0  0
 61134  1  0  0  0
 61135  1  0  0  0
 62136  1  0  0  0
 62137  1  0  0  0
 62138  1  0  0  0
 63 65  1  0  0  0
 63139  1  0  0  0
 63140  1  0  0  0
 63141  1  0  0  0
 64142  1  0  0  0
 65143  1  0  0  0
 68 82  1  0  0  0
 71 74  2  0  0  0
 71 75  1  0  0  0
 71144  1  0  0  0
 72 73  2  0  0  0
 72 83  1  0  0  0
 72145  1  0  0  0
 73 74  1  0  0  0
 73 80  1  0  0  0
 74 81  1  0  0  0
 75 82  1  0  0  0
 75 83  2  0  0  0
 76 78  1  0  0  0
 76 80  1  0  0  0
 76146  1  0  0  0
 76147  1  0  0  0
 77 79  1  0  0  0
 77 80  1  0  0  0
 77148  1  0  0  0
 77149  1  0  0  0
 78 84  1  0  0  0
 78150  1  0  0  0
 78151  1  0  0  0
 79 84  1  0  0  0
 79152  1  0  0  0
 79153  1  0  0  0
 80154  1  0  0  0
 81155  1  0  0  0
 81156  1  0  0  0
 81157  1  0  0  0
 82158  1  0  0  0
 82159  1  0  0  0
M  ISO  4   1 100  68 101  82 101  84 100
M  END
> <chiral flag>
0

> <version>
0

> <s_m_source_file>
/data/baiqing/PycharmProjects/Reinvent-master-3.2/result/LINK_invent/BTK/process_docking_weight1_custom_sum_contain_oxygen_bond_distance_aromatic_linkinvent_7_9_3/rearranged_h_0178.sdf

> <i_m_source_file_index>
45

> <r_mmod_Potential_Energy-OPLS-2005>
353.702758789062

> <r_mmod_Stretch_Energy-OPLS-2005>
132.146759033203

> <r_mmod_Bend_Energy-OPLS-2005>
241.125335693359

> <r_mmod_Torsional_Energy-OPLS-2005>
318.234405517578

> <r_mmod_Improper_Torsional_Energy-OPLS-2005>
7.21873617172241

> <r_mmod_Van_der_Waal_Energy-OPLS-2005>
147.486938476562

> <r_mmod_Electrostatic_Energy-OPLS-2005>
-374.763885498047

> <r_mmod_Solvation_Energy-OPLS-2005>
-224.765625

> <b_mmod_Minimization_Converged-OPLS-2005>
0

> <r_mmod_RMS_Derivative-OPLS-2005>
3.18452835083008

$$$$
46
                    3D
 Structure written by MMmdl.
160169  0  0  1  0            999 V2000
  -30.6902  -14.5933   20.4942 C   0  0  0  0  0  0
  -30.4206  -12.3611   19.4589 C   0  0  0  0  0  0
  -29.5032  -12.4995   18.2264 C   0  0  0  0  0  0
  -28.0230  -12.3583   18.6394 C   0  0  0  0  0  0
  -27.6520  -13.2278   19.8722 C   0  0  2  0  0  0
  -28.7010  -13.0946   20.9978 C   0  0  0  0  0  0
  -25.2549  -13.8209   20.5762 C   0  0  0  0  0  0
  -24.1802  -13.0473   20.9203 C   0  0  0  0  0  0
  -24.6377  -11.6945   20.8773 C   0  0  0  0  0  0
  -23.9050  -10.4326   21.0402 C   0  0  0  0  0  0
  -24.3593   -9.4242   21.9190 C   0  0  0  0  0  0
  -23.6277   -8.2263   22.0751 C   0  0  0  0  0  0
  -22.4266   -8.0301   21.3531 C   0  0  0  0  0  0
  -21.9904   -9.0280   20.4645 C   0  0  0  0  0  0
  -22.7218  -10.2161   20.3059 C   0  0  0  0  0  0
  -21.6856   -6.0745   22.5284 C   0  0  0  0  0  0
  -21.4012   -6.5641   23.8221 C   0  0  0  0  0  0
  -21.3650   -5.6787   24.9182 C   0  0  0  0  0  0
  -21.6053   -4.3054   24.7227 C   0  0  0  0  0  0
  -21.8801   -3.8143   23.4342 C   0  0  0  0  0  0
  -21.9196   -4.6971   22.3404 C   0  0  0  0  0  0
  -22.7826  -13.5285   21.1845 C   0  0  0  0  0  0
  -22.1668   -4.2165   21.0974 F   0  0  0  0  0  0
  -21.5637   -3.4529   25.7727 F   0  0  0  0  0  0
  -30.0075  -13.4094   20.4121 N   0  0  0  0  0  0
  -26.2988  -12.9408   20.3413 N   0  0  0  0  0  0
  -25.9317  -11.6546   20.5813 N   0  0  0  0  0  0
  -22.0393  -12.8323   22.0374 N   0  0  0  0  0  0
  -25.4252  -15.1935   20.4222 N   0  0  0  0  0  0
  -31.8858  -14.6549   20.1962 O   0  0  0  0  0  0
  -21.6637   -6.8885   21.4237 O   0  0  0  0  0  0
  -22.3527  -14.5571   20.6655 O   0  0  0  0  0  0
  -24.6279  -31.8597   23.1999 C   0  0  0  0  0  0
  -25.9090  -32.4763   23.8363 C   0  0  1  0  0  0
  -27.2366  -27.3052   20.1381 C   0  0  0  0  0  0
  -25.5873  -33.8548   24.2276 N   0  0  0  0  0  0
  -23.4270  -30.4785   21.5406 C   0  0  2  0  0  0
  -24.8805  -28.9323   20.1166 C   0  0  0  0  0  0
  -22.7484  -29.4630   22.4934 C   0  0  0  0  0  0
  -18.0318  -28.1420   22.8544 C   0  0  0  0  0  0
  -24.1488  -36.7307   23.2645 C   0  0  0  0  0  0
  -25.9687  -30.7863   21.3746 C   0  0  0  0  0  0
  -26.0483  -29.4119   20.7242 C   0  0  0  0  0  0
  -27.2312  -28.6132   20.7234 C   0  0  0  0  0  0
  -26.0403  -26.8903   19.5035 C   0  0  0  0  0  0
  -24.8768  -27.6792   19.4964 C   0  0  0  0  0  0
  -23.6479  -29.8078   20.1594 C   0  0  0  0  0  0
  -25.4120  -36.3058   24.0323 C   0  0  1  0  0  0
  -20.5917  -28.3717   23.1291 C   0  0  2  0  0  0
  -20.6806  -26.9434   22.5423 C   0  0  0  0  0  0
  -19.5778  -26.6423   21.5229 C   0  0  0  0  0  0
  -18.1954  -26.7980   22.1642 C   0  0  0  0  0  0
  -19.1571  -28.8907   23.2904 C   0  0  0  0  0  0
  -18.9464  -30.1516   23.8921 C   0  0  0  0  0  0
  -17.6451  -30.6619   24.0596 C   0  0  0  0  0  0
  -25.9038  -34.9429   23.5111 C   0  0  0  0  0  0
  -16.5352  -29.9109   23.6352 C   0  0  0  0  0  0
  -16.7293  -28.6530   23.0370 C   0  0  0  0  0  0
  -26.4480  -31.6570   25.0736 C   0  0  0  0  0  0
  -25.3733  -31.3695   26.1479 C   0  0  0  0  0  0
  -27.0294  -30.2984   24.6187 C   0  0  0  0  0  0
  -27.6028  -32.4330   25.7511 C   0  0  0  0  0  0
  -27.5570  -37.1828   24.8478 C   0  0  0  0  0  0
  -21.4206  -29.3061   22.3654 N   0  0  0  0  0  0
  -26.4307  -37.3750   23.9383 N   0  0  0  0  0  0
  -24.6932  -31.0586   22.0958 N   0  0  0  0  0  0
  -23.4186  -28.8187   23.3024 O   0  0  0  0  0  0
  -28.3393  -26.4287   20.2202 O   0  0  0  0  0  0
  -26.5607  -34.8910   22.4684 O   0  0  0  0  0  0
  -23.5417  -32.1330   23.7329 O   0  0  0  0  0  0
  -30.7427  -21.7864   21.1368 C   0  0  0  0  0  0
  -31.0977  -23.1449   21.3005 C   0  0  0  0  0  0
  -29.4870  -21.5143   20.5840 C   0  0  0  0  0  0
  -29.0660  -23.8393   20.4767 C   0  0  0  0  0  0
  -29.1081  -17.8877   19.3458 C   0  0  0  0  0  0
  -29.6173  -18.1091   21.6992 C   0  0  0  0  0  0
  -29.8380  -16.5077   19.2987 C   0  0  0  0  0  0
  -30.3602  -16.7216   21.6638 C   0  0  0  0  0  0
  -29.7058  -18.8921   20.3645 C   0  0  0  0  0  0
  -32.4685  -23.5346   21.8309 C   0  0  0  0  0  0
  -28.0232  -24.9738   20.1623 C   0  0  0  0  0  0
  -30.2599  -24.1583   20.9834 N   0  0  0  0  0  0
  -28.6735  -22.5559   20.2631 N   0  0  0  0  0  0
  -29.9714  -15.7699   20.5846 N   0  0  0  0  0  0
  -28.9825  -20.2025   20.3421 N   0  0  0  0  0  0
  -31.4697  -12.4465   19.1688 H   0  0  0  0  0  0
  -30.3131  -11.3700   19.9063 H   0  0  0  0  0  0
  -29.7586  -11.7475   17.4779 H   0  0  0  0  0  0
  -29.6720  -13.4684   17.7512 H   0  0  0  0  0  0
  -27.8482  -11.3073   18.8702 H   0  0  0  0  0  0
  -27.3709  -12.5993   17.8004 H   0  0  0  0  0  0
  -27.6719  -14.2662   19.5406 H   0  0  0  0  0  0
  -28.7063  -12.0788   21.3987 H   0  0  0  0  0  0
  -28.4725  -13.7534   21.8376 H   0  0  0  0  0  0
  -25.2726   -9.5747   22.4785 H   0  0  0  0  0  0
  -24.0015   -7.4646   22.7453 H   0  0  0  0  0  0
  -21.0849   -8.8769   19.8940 H   0  0  0  0  0  0
  -22.3654  -10.9697   19.6178 H   0  0  0  0  0  0
  -21.1978   -7.6145   23.9730 H   0  0  0  0  0  0
  -21.1503   -6.0513   25.9087 H   0  0  0  0  0  0
  -22.0582   -2.7611   23.2826 H   0  0  0  0  0  0
  -22.3958  -12.0037   22.4895 H   0  0  0  0  0  0
  -21.0986  -13.1369   22.2431 H   0  0  0  0  0  0
  -24.6632  -15.8508   20.5553 H   0  0  0  0  0  0
  -26.2956  -15.6405   20.1616 H   0  0  0  0  0  0
  -26.7181  -32.5443   23.1135 H   0  0  0  0  0  0
  -24.9988  -33.9710   25.0389 H   0  0  0  0  0  0
  -22.7232  -31.2987   21.3868 H   0  0  0  0  0  0
  -23.3692  -35.9695   23.3366 H   0  0  0  0  0  0
  -24.3571  -36.8852   22.2042 H   0  0  0  0  0  0
  -23.7317  -37.6568   23.6638 H   0  0  0  0  0  0
  -26.0925  -31.5424   20.5966 H   0  0  0  0  0  0
  -26.8515  -30.8487   21.9987 H   0  0  0  0  0  0
  -28.1247  -28.9715   21.2162 H   0  0  0  0  0  0
  -25.9504  -25.9349   19.0135 H   0  0  0  0  0  0
  -23.9838  -27.3070   19.0192 H   0  0  0  0  0  0
  -23.7731  -30.5722   19.3917 H   0  0  0  0  0  0
  -22.7754  -29.2217   19.8631 H   0  0  0  0  0  0
  -25.1313  -36.1921   25.0816 H   0  0  0  0  0  0
  -21.0047  -28.3304   24.1393 H   0  0  0  0  0  0
  -20.5744  -26.2304   23.3617 H   0  0  0  0  0  0
  -21.6663  -26.7499   22.1168 H   0  0  0  0  0  0
  -19.6887  -25.6321   21.1269 H   0  0  0  0  0  0
  -19.6703  -27.3246   20.6764 H   0  0  0  0  0  0
  -17.4213  -26.6782   21.4031 H   0  0  0  0  0  0
  -18.0329  -26.0115   22.9035 H   0  0  0  0  0  0
  -19.7924  -30.7379   24.2245 H   0  0  0  0  0  0
  -17.4985  -31.6296   24.5208 H   0  0  0  0  0  0
  -15.5352  -30.2998   23.7685 H   0  0  0  0  0  0
  -15.8696  -28.0855   22.7051 H   0  0  0  0  0  0
  -24.5926  -30.7015   25.7823 H   0  0  0  0  0  0
  -24.8921  -32.2849   26.4941 H   0  0  0  0  0  0
  -25.8109  -30.8868   27.0232 H   0  0  0  0  0  0
  -26.2837  -29.6763   24.1221 H   0  0  0  0  0  0
  -27.3955  -29.7225   25.4700 H   0  0  0  0  0  0
  -27.8745  -30.4228   23.9408 H   0  0  0  0  0  0
  -27.2616  -33.3632   26.2092 H   0  0  0  0  0  0
  -28.3855  -32.6901   25.0351 H   0  0  0  0  0  0
  -28.0692  -31.8457   26.5437 H   0  0  0  0  0  0
  -28.2638  -38.0056   24.7418 H   0  0  0  0  0  0
  -28.1007  -36.2599   24.6455 H   0  0  0  0  0  0
  -27.2289  -37.1669   25.8874 H   0  0  0  0  0  0
  -20.9380  -29.8700   21.6809 H   0  0  0  0  0  0
  -26.0169  -38.2831   24.1314 H   0  0  0  0  0  0
  -31.4230  -20.9959   21.4277 H   0  0  0  0  0  0
  -28.0491  -17.7232   19.5547 H   0  0  0  0  0  0
  -29.1391  -18.3222   18.3458 H   0  0  0  0  0  0
  -30.0254  -18.7181   22.5049 H   0  0  0  0  0  0
  -28.5707  -17.9370   21.9578 H   0  0  0  0  0  0
  -30.8338  -16.6817   18.8893 H   0  0  0  0  0  0
  -29.3232  -15.8703   18.5801 H   0  0  0  0  0  0
  -30.2241  -16.2243   22.6251 H   0  0  0  0  0  0
  -31.4305  -16.9177   21.5798 H   0  0  0  0  0  0
  -30.7561  -19.0691   20.1168 H   0  0  0  0  0  0
  -33.1961  -22.7474   21.6333 H   0  0  0  0  0  0
  -32.4424  -23.7177   22.9074 H   0  0  0  0  0  0
  -32.8324  -24.4447   21.3501 H   0  0  0  0  0  0
  -27.1854  -24.7950   20.8435 H   0  0  0  0  0  0
  -27.6691  -24.7474   19.1553 H   0  0  0  0  0  0
  -28.1073  -20.1967   19.8328 H   0  0  0  0  0  0
  1 25  1  0  0  0
  1 30  2  0  0  0
  1 84  1  0  0  0
  2  3  1  0  0  0
  2 25  1  0  0  0
  2 86  1  0  0  0
  2 87  1  0  0  0
  3  4  1  0  0  0
  3 88  1  0  0  0
  3 89  1  0  0  0
  4  5  1  0  0  0
  4 90  1  0  0  0
  4 91  1  0  0  0
  5  6  1  0  0  0
  5 26  1  0  0  0
  5 92  1  0  0  0
  6 25  1  0  0  0
  6 93  1  0  0  0
  6 94  1  0  0  0
  7  8  2  0  0  0
  7 26  1  0  0  0
  7 29  1  0  0  0
  8  9  1  0  0  0
  8 22  1  0  0  0
  9 10  1  0  0  0
  9 27  2  0  0  0
 10 11  2  0  0  0
 10 15  1  0  0  0
 11 12  1  0  0  0
 11 95  1  0  0  0
 12 13  2  0  0  0
 12 96  1  0  0  0
 13 14  1  0  0  0
 13 31  1  0  0  0
 14 15  2  0  0  0
 14 97  1  0  0  0
 15 98  1  0  0  0
 16 17  2  0  0  0
 16 21  1  0  0  0
 16 31  1  0  0  0
 17 18  1  0  0  0
 17 99  1  0  0  0
 18 19  2  0  0  0
 18100  1  0  0  0
 19 20  1  0  0  0
 19 24  1  0  0  0
 20 21  2  0  0  0
 20101  1  0  0  0
 21 23  1  0  0  0
 22 28  1  0  0  0
 22 32  2  0  0  0
 26 27  1  0  0  0
 28102  1  0  0  0
 28103  1  0  0  0
 29104  1  0  0  0
 29105  1  0  0  0
 33 34  1  0  0  0
 33 66  1  0  0  0
 33 70  2  0  0  0
 34 36  1  0  0  0
 34 59  1  0  0  0
 34106  1  0  0  0
 35 44  2  0  0  0
 35 45  1  0  0  0
 35 68  1  0  0  0
 36 56  1  0  0  0
 36107  1  0  0  0
 37 39  1  0  0  0
 37 47  1  0  0  0
 37 66  1  0  0  0
 37108  1  0  0  0
 38 43  2  0  0  0
 38 46  1  0  0  0
 38 47  1  0  0  0
 39 64  1  0  0  0
 39 67  2  0  0  0
 40 52  1  0  0  0
 40 53  2  0  0  0
 40 58  1  0  0  0
 41109  1  0  0  0
 41110  1  0  0  0
 41111  1  0  0  0
 41 48  1  0  0  0
 42 43  1  0  0  0
 42 66  1  0  0  0
 42112  1  0  0  0
 42113  1  0  0  0
 43 44  1  0  0  0
 44114  1  0  0  0
 45 46  2  0  0  0
 45115  1  0  0  0
 46116  1  0  0  0
 47117  1  0  0  0
 47118  1  0  0  0
 48 56  1  0  0  0
 48 65  1  0  0  0
 48119  1  0  0  0
 49 50  1  0  0  0
 49 53  1  0  0  0
 49 64  1  0  0  0
 49120  1  0  0  0
 50 51  1  0  0  0
 50121  1  0  0  0
 50122  1  0  0  0
 51 52  1  0  0  0
 51123  1  0  0  0
 51124  1  0  0  0
 52125  1  0  0  0
 52126  1  0  0  0
 53 54  1  0  0  0
 54 55  2  0  0  0
 54127  1  0  0  0
 55 57  1  0  0  0
 55128  1  0  0  0
 56 69  2  0  0  0
 57 58  2  0  0  0
 57129  1  0  0  0
 58130  1  0  0  0
 59 60  1  0  0  0
 59 61  1  0  0  0
 59 62  1  0  0  0
 60131  1  0  0  0
 60132  1  0  0  0
 60133  1  0  0  0
 61134  1  0  0  0
 61135  1  0  0  0
 61136  1  0  0  0
 62137  1  0  0  0
 62138  1  0  0  0
 62139  1  0  0  0
 63 65  1  0  0  0
 63140  1  0  0  0
 63141  1  0  0  0
 63142  1  0  0  0
 64143  1  0  0  0
 65144  1  0  0  0
 68 81  1  0  0  0
 71 72  2  0  0  0
 71 73  1  0  0  0
 71145  1  0  0  0
 72 80  1  0  0  0
 72 82  1  0  0  0
 73 83  2  0  0  0
 73 85  1  0  0  0
 74 81  1  0  0  0
 74 82  2  0  0  0
 74 83  1  0  0  0
 75 77  1  0  0  0
 75 79  1  0  0  0
 75146  1  0  0  0
 75147  1  0  0  0
 76 78  1  0  0  0
 76 79  1  0  0  0
 76148  1  0  0  0
 76149  1  0  0  0
 77 84  1  0  0  0
 77150  1  0  0  0
 77151  1  0  0  0
 78 84  1  0  0  0
 78152  1  0  0  0
 78153  1  0  0  0
 79 85  1  0  0  0
 79154  1  0  0  0
 80155  1  0  0  0
 80156  1  0  0  0
 80157  1  0  0  0
 81158  1  0  0  0
 81159  1  0  0  0
 85160  1  0  0  0
M  ISO  4   1 100  68 101  81 101  84 100
M  END
> <chiral flag>
0

> <version>
0

> <s_m_source_file>
/data/baiqing/PycharmProjects/Reinvent-master-3.2/result/LINK_invent/BTK/process_docking_weight1_custom_sum_contain_oxygen_bond_distance_aromatic_linkinvent_7_9_3/rearranged_h_0178.sdf

> <i_m_source_file_index>
46

> <r_mmod_Potential_Energy-OPLS-2005>
-199.505920410156

> <r_mmod_Stretch_Energy-OPLS-2005>
77.1882629394531

> <r_mmod_Bend_Energy-OPLS-2005>
172.975433349609

> <r_mmod_Torsional_Energy-OPLS-2005>
315.348876953125

> <r_mmod_Improper_Torsional_Energy-OPLS-2005>
13.9453945159912

> <r_mmod_Van_der_Waal_Energy-OPLS-2005>
154.902786254883

> <r_mmod_Electrostatic_Energy-OPLS-2005>
-759.018188476562

> <r_mmod_Solvation_Energy-OPLS-2005>
-226.282440185547

> <b_mmod_Minimization_Converged-OPLS-2005>
0

> <r_mmod_RMS_Derivative-OPLS-2005>
6.20333003997803

$$$$
47
                    3D
 Structure written by MMmdl.
156165  0  0  1  0            999 V2000
  -30.3819  -15.3262   20.3641 C   0  0  0  0  0  0
  -30.4435  -12.8402   19.5619 C   0  0  0  0  0  0
  -29.5531  -12.5865   18.3159 C   0  0  0  0  0  0
  -28.0987  -12.3023   18.7284 C   0  0  0  0  0  0
  -27.6146  -13.2782   19.8308 C   0  0  2  0  0  0
  -28.6359  -13.4554   20.9747 C   0  0  0  0  0  0
  -25.2404  -13.8258   20.5758 C   0  0  0  0  0  0
  -24.1744  -13.0461   20.9246 C   0  0  0  0  0  0
  -24.6404  -11.6952   20.8725 C   0  0  0  0  0  0
  -23.9082  -10.4311   21.0402 C   0  0  0  0  0  0
  -24.3621   -9.4216   21.9181 C   0  0  0  0  0  0
  -23.6273   -8.2264   22.0758 C   0  0  0  0  0  0
  -22.4264   -8.0300   21.3550 C   0  0  0  0  0  0
  -21.9905   -9.0279   20.4661 C   0  0  0  0  0  0
  -22.7237  -10.2155   20.3061 C   0  0  0  0  0  0
  -21.6856   -6.0746   22.5275 C   0  0  0  0  0  0
  -21.4010   -6.5646   23.8207 C   0  0  0  0  0  0
  -21.3654   -5.6803   24.9172 C   0  0  0  0  0  0
  -21.6031   -4.3068   24.7230 C   0  0  0  0  0  0
  -21.8809   -3.8155   23.4353 C   0  0  0  0  0  0
  -21.9198   -4.6972   22.3408 C   0  0  0  0  0  0
  -22.7768  -13.5239   21.1919 C   0  0  0  0  0  0
  -22.1668   -4.2153   21.0985 F   0  0  0  0  0  0
  -21.5629   -3.4556   25.7744 F   0  0  0  0  0  0
  -29.8710  -13.9868   20.3748 N   0  0  0  0  0  0
  -26.2820  -12.9524   20.3216 N   0  0  0  0  0  0
  -25.9346  -11.6633   20.5699 N   0  0  0  0  0  0
  -22.0423  -12.8210   22.0442 N   0  0  0  0  0  0
  -25.4087  -15.1975   20.4257 N   0  0  0  0  0  0
  -31.5803  -15.3492   20.0376 O   0  0  0  0  0  0
  -21.6629   -6.8899   21.4241 O   0  0  0  0  0  0
  -22.3453  -14.5555   20.6785 O   0  0  0  0  0  0
  -24.6669  -31.8186   23.1662 C   0  0  0  0  0  0
  -25.9328  -32.4553   23.8163 C   0  0  1  0  0  0
  -27.2110  -26.8823   20.1975 C   0  0  0  0  0  0
  -25.5984  -33.8372   24.2060 N   0  0  0  0  0  0
  -23.4856  -30.4279   21.5168 C   0  0  2  0  0  0
  -24.9368  -28.8037   20.1139 C   0  0  0  0  0  0
  -22.7714  -29.4401   22.4787 C   0  0  0  0  0  0
  -18.0370  -28.1353   22.8486 C   0  0  0  0  0  0
  -24.1489  -36.7184   23.2650 C   0  0  0  0  0  0
  -26.0556  -30.6091   21.4054 C   0  0  0  0  0  0
  -26.1195  -29.1933   20.7544 C   0  0  0  0  0  0
  -27.2514  -28.2526   20.7698 C   0  0  0  0  0  0
  -26.0038  -26.6569   19.5012 C   0  0  0  0  0  0
  -24.9070  -27.5595   19.4631 C   0  0  0  0  0  0
  -23.7276  -29.7360   20.1449 C   0  0  0  0  0  0
  -25.4129  -36.2946   24.0309 C   0  0  1  0  0  0
  -20.6015  -28.3694   23.1213 C   0  0  2  0  0  0
  -20.6906  -26.9438   22.5268 C   0  0  0  0  0  0
  -19.5856  -26.6499   21.5086 C   0  0  0  0  0  0
  -18.2035  -26.7945   22.1531 C   0  0  0  0  0  0
  -19.1634  -28.8833   23.2861 C   0  0  0  0  0  0
  -18.9553  -30.1420   23.8911 C   0  0  0  0  0  0
  -17.6555  -30.6547   24.0574 C   0  0  0  0  0  0
  -25.9111  -34.9335   23.5001 C   0  0  0  0  0  0
  -16.5447  -29.9034   23.6332 C   0  0  0  0  0  0
  -16.7358  -28.6456   23.0375 C   0  0  0  0  0  0
  -26.4569  -31.6533   25.0707 C   0  0  0  0  0  0
  -25.3673  -31.3797   26.1344 C   0  0  0  0  0  0
  -27.0466  -30.2907   24.6457 C   0  0  0  0  0  0
  -27.6079  -32.4320   25.7477 C   0  0  0  0  0  0
  -27.5553  -37.1749   24.8474 C   0  0  0  0  0  0
  -21.4380  -29.3079   22.3630 N   0  0  0  0  0  0
  -26.4275  -37.3681   23.9401 N   0  0  0  0  0  0
  -24.7572  -30.9803   22.0821 N   0  0  0  0  0  0
  -23.4261  -28.7933   23.3007 O   0  0  0  0  0  0
  -28.1972  -25.7529   20.2890 O   0  0  0  0  0  0
  -26.5725  -34.8878   22.4597 O   0  0  0  0  0  0
  -23.5720  -32.1192   23.6703 O   0  0  0  0  0  0
  -29.3817  -19.5242   20.6052 C   0  0  0  0  0  0
  -27.5439  -19.0586   18.7647 C   0  0  0  0  0  0
  -27.6524  -20.4155   19.1871 C   0  0  0  0  0  0
  -28.6545  -20.8160   20.1147 C   0  0  0  0  0  0
  -29.1960  -18.0455   20.1562 C   0  0  0  0  0  0
  -25.5512  -22.0185   19.4140 C   0  0  0  0  0  0
  -26.6643  -21.3908   18.5992 C   0  0  2  0  0  0
  -25.2113  -20.9858   18.3732 C   0  0  2  0  0  0
  -24.4818  -21.3685   17.1011 C   0  0  0  0  0  0
  -28.8601  -22.5497   20.4600 C   0  0  0  0  0  0
  -27.9506  -24.1073   20.1029 C   0  0  0  0  0  0
  -28.2527  -17.9781   19.1938 N   0  0  0  0  0  0
  -29.6309  -16.5744   20.7153 N   0  0  0  0  0  0
  -31.4592  -13.0505   19.2274 H   0  0  0  0  0  0
  -30.5291  -11.9379   20.1717 H   0  0  0  0  0  0
  -29.9480  -11.7541   17.7329 H   0  0  0  0  0  0
  -29.5857  -13.4612   17.6640 H   0  0  0  0  0  0
  -28.0583  -11.2790   19.1032 H   0  0  0  0  0  0
  -27.4385  -12.3368   17.8620 H   0  0  0  0  0  0
  -27.5330  -14.2455   19.3359 H   0  0  0  0  0  0
  -28.8123  -12.5157   21.5004 H   0  0  0  0  0  0
  -28.2562  -14.1588   21.7151 H   0  0  0  0  0  0
  -25.2786   -9.5695   22.4736 H   0  0  0  0  0  0
  -23.9994   -7.4673   22.7492 H   0  0  0  0  0  0
  -21.0832   -8.8787   19.8986 H   0  0  0  0  0  0
  -22.3683  -10.9680   19.6158 H   0  0  0  0  0  0
  -21.1978   -7.6151   23.9706 H   0  0  0  0  0  0
  -21.1482   -6.0542   25.9072 H   0  0  0  0  0  0
  -22.0586   -2.7610   23.2855 H   0  0  0  0  0  0
  -22.4086  -11.9913   22.4866 H   0  0  0  0  0  0
  -21.1047  -13.1238   22.2657 H   0  0  0  0  0  0
  -24.6556  -15.8546   20.5960 H   0  0  0  0  0  0
  -26.2533  -15.6399   20.0853 H   0  0  0  0  0  0
  -26.7381  -32.5081   23.0865 H   0  0  0  0  0  0
  -25.0103  -33.9477   25.0186 H   0  0  0  0  0  0
  -22.8013  -31.2579   21.3402 H   0  0  0  0  0  0
  -23.3776  -35.9491   23.3289 H   0  0  0  0  0  0
  -24.3581  -36.8829   22.2068 H   0  0  0  0  0  0
  -23.7213  -37.6358   23.6716 H   0  0  0  0  0  0
  -26.2392  -31.3466   20.6249 H   0  0  0  0  0  0
  -26.9134  -30.6726   22.0617 H   0  0  0  0  0  0
  -28.1446  -28.5404   21.3073 H   0  0  0  0  0  0
  -25.8730  -25.7050   19.0058 H   0  0  0  0  0  0
  -24.0091  -27.2617   18.9375 H   0  0  0  0  0  0
  -23.8820  -30.4970   19.3792 H   0  0  0  0  0  0
  -22.8365  -29.1867   19.8319 H   0  0  0  0  0  0
  -25.1306  -36.1755   25.0805 H   0  0  0  0  0  0
  -21.0112  -28.3207   24.1331 H   0  0  0  0  0  0
  -20.5930  -26.2239   23.3403 H   0  0  0  0  0  0
  -21.6724  -26.7508   22.0941 H   0  0  0  0  0  0
  -19.7052  -25.6502   21.0918 H   0  0  0  0  0  0
  -19.6763  -27.3480   20.6753 H   0  0  0  0  0  0
  -17.4322  -26.6769   21.3900 H   0  0  0  0  0  0
  -18.0423  -26.0007   22.8833 H   0  0  0  0  0  0
  -19.8028  -30.7192   24.2350 H   0  0  0  0  0  0
  -17.5109  -31.6219   24.5166 H   0  0  0  0  0  0
  -15.5454  -30.2915   23.7662 H   0  0  0  0  0  0
  -15.8780  -28.0718   22.7145 H   0  0  0  0  0  0
  -24.5897  -30.7102   25.7631 H   0  0  0  0  0  0
  -24.8829  -32.3013   26.4611 H   0  0  0  0  0  0
  -25.7900  -30.9065   27.0223 H   0  0  0  0  0  0
  -26.3161  -29.6578   24.1421 H   0  0  0  0  0  0
  -27.3963  -29.7258   25.5106 H   0  0  0  0  0  0
  -27.9096  -30.4091   23.9894 H   0  0  0  0  0  0
  -27.2713  -33.3687   26.1933 H   0  0  0  0  0  0
  -28.3964  -32.6772   25.0336 H   0  0  0  0  0  0
  -28.0701  -31.8534   26.5492 H   0  0  0  0  0  0
  -28.2564  -38.0043   24.7493 H   0  0  0  0  0  0
  -28.1056  -36.2581   24.6331 H   0  0  0  0  0  0
  -27.2303  -37.1398   25.8886 H   0  0  0  0  0  0
  -20.9618  -29.8926   21.6900 H   0  0  0  0  0  0
  -26.0131  -38.2740   24.1404 H   0  0  0  0  0  0
  -30.1146  -19.6781   21.3868 H   0  0  0  0  0  0
  -26.7883  -18.8026   18.0361 H   0  0  0  0  0  0
  -25.2500  -23.0415   19.1909 H   0  0  0  0  0  0
  -25.4454  -21.7217   20.4556 H   0  0  0  0  0  0
  -27.1374  -21.9887   17.8222 H   0  0  0  0  0  0
  -24.8700  -20.0401   18.7970 H   0  0  0  0  0  0
  -25.0002  -22.1699   16.5714 H   0  0  0  0  0  0
  -23.4739  -21.7107   17.3346 H   0  0  0  0  0  0
  -24.4108  -20.5072   16.4381 H   0  0  0  0  0  0
  -29.8518  -22.7412   20.0472 H   0  0  0  0  0  0
  -29.0306  -22.5706   21.5365 H   0  0  0  0  0  0
  -26.9969  -23.9670   20.6155 H   0  0  0  0  0  0
  -27.7065  -24.0307   19.0447 H   0  0  0  0  0  0
  -28.8500  -16.2377   21.2561 H   0  0  0  0  0  0
  1 25  1  0  0  0
  1 30  2  0  0  0
  1 83  1  0  0  0
  2  3  1  0  0  0
  2 25  1  0  0  0
  2 84  1  0  0  0
  2 85  1  0  0  0
  3  4  1  0  0  0
  3 86  1  0  0  0
  3 87  1  0  0  0
  4  5  1  0  0  0
  4 88  1  0  0  0
  4 89  1  0  0  0
  5  6  1  0  0  0
  5 26  1  0  0  0
  5 90  1  0  0  0
  6 25  1  0  0  0
  6 91  1  0  0  0
  6 92  1  0  0  0
  7  8  2  0  0  0
  7 26  1  0  0  0
  7 29  1  0  0  0
  8  9  1  0  0  0
  8 22  1  0  0  0
  9 10  1  0  0  0
  9 27  2  0  0  0
 10 11  2  0  0  0
 10 15  1  0  0  0
 11 12  1  0  0  0
 11 93  1  0  0  0
 12 13  2  0  0  0
 12 94  1  0  0  0
 13 14  1  0  0  0
 13 31  1  0  0  0
 14 15  2  0  0  0
 14 95  1  0  0  0
 15 96  1  0  0  0
 16 17  2  0  0  0
 16 21  1  0  0  0
 16 31  1  0  0  0
 17 18  1  0  0  0
 17 97  1  0  0  0
 18 19  2  0  0  0
 18 98  1  0  0  0
 19 20  1  0  0  0
 19 24  1  0  0  0
 20 21  2  0  0  0
 20 99  1  0  0  0
 21 23  1  0  0  0
 22 28  1  0  0  0
 22 32  2  0  0  0
 26 27  1  0  0  0
 28100  1  0  0  0
 28101  1  0  0  0
 29102  1  0  0  0
 29103  1  0  0  0
 33 34  1  0  0  0
 33 66  1  0  0  0
 33 70  2  0  0  0
 34 36  1  0  0  0
 34 59  1  0  0  0
 34104  1  0  0  0
 35 44  2  0  0  0
 35 45  1  0  0  0
 35 68  1  0  0  0
 36 56  1  0  0  0
 36105  1  0  0  0
 37 39  1  0  0  0
 37 47  1  0  0  0
 37 66  1  0  0  0
 37106  1  0  0  0
 38 43  2  0  0  0
 38 46  1  0  0  0
 38 47  1  0  0  0
 39 64  1  0  0  0
 39 67  2  0  0  0
 40 52  1  0  0  0
 40 53  2  0  0  0
 40 58  1  0  0  0
 41107  1  0  0  0
 41108  1  0  0  0
 41109  1  0  0  0
 41 48  1  0  0  0
 42 43  1  0  0  0
 42 66  1  0  0  0
 42110  1  0  0  0
 42111  1  0  0  0
 43 44  1  0  0  0
 44112  1  0  0  0
 45 46  2  0  0  0
 45113  1  0  0  0
 46114  1  0  0  0
 47115  1  0  0  0
 47116  1  0  0  0
 48 56  1  0  0  0
 48 65  1  0  0  0
 48117  1  0  0  0
 49 50  1  0  0  0
 49 53  1  0  0  0
 49 64  1  0  0  0
 49118  1  0  0  0
 50 51  1  0  0  0
 50119  1  0  0  0
 50120  1  0  0  0
 51 52  1  0  0  0
 51121  1  0  0  0
 51122  1  0  0  0
 52123  1  0  0  0
 52124  1  0  0  0
 53 54  1  0  0  0
 54 55  2  0  0  0
 54125  1  0  0  0
 55 57  1  0  0  0
 55126  1  0  0  0
 56 69  2  0  0  0
 57 58  2  0  0  0
 57127  1  0  0  0
 58128  1  0  0  0
 59 60  1  0  0  0
 59 61  1  0  0  0
 59 62  1  0  0  0
 60129  1  0  0  0
 60130  1  0  0  0
 60131  1  0  0  0
 61132  1  0  0  0
 61133  1  0  0  0
 61134  1  0  0  0
 62135  1  0  0  0
 62136  1  0  0  0
 62137  1  0  0  0
 63 65  1  0  0  0
 63138  1  0  0  0
 63139  1  0  0  0
 63140  1  0  0  0
 64141  1  0  0  0
 65142  1  0  0  0
 68 81  1  0  0  0
 71 74  2  0  0  0
 71 75  1  0  0  0
 71143  1  0  0  0
 72 73  2  0  0  0
 72 82  1  0  0  0
 72144  1  0  0  0
 73 74  1  0  0  0
 73 77  1  0  0  0
 74 80  1  0  0  0
 75 82  2  0  0  0
 75 83  1  0  0  0
 76 77  1  0  0  0
 76 78  1  0  0  0
 76145  1  0  0  0
 76146  1  0  0  0
 77 78  1  0  0  0
 77147  1  0  0  0
 78 79  1  0  0  0
 78148  1  0  0  0
 79149  1  0  0  0
 79150  1  0  0  0
 79151  1  0  0  0
 80 81  1  0  0  0
 80152  1  0  0  0
 80153  1  0  0  0
 81154  1  0  0  0
 81155  1  0  0  0
 83156  1  0  0  0
M  ISO  4   1 100  68 101  81 101  83 100
M  END
> <chiral flag>
0

> <version>
0

> <s_m_source_file>
/data/baiqing/PycharmProjects/Reinvent-master-3.2/result/LINK_invent/BTK/process_docking_weight1_custom_sum_contain_oxygen_bond_distance_aromatic_linkinvent_7_9_3/rearranged_h_0178.sdf

> <i_m_source_file_index>
47

> <r_mmod_Potential_Energy-OPLS-2005>
1383.91516113281

> <r_mmod_Stretch_Energy-OPLS-2005>
659.447875976562

> <r_mmod_Bend_Energy-OPLS-2005>
475.480834960938

> <r_mmod_Torsional_Energy-OPLS-2005>
290.450622558594

> <r_mmod_Improper_Torsional_Energy-OPLS-2005>
6.38941240310669

> <r_mmod_Van_der_Waal_Energy-OPLS-2005>
122.253746032715

> <r_mmod_Electrostatic_Energy-OPLS-2005>
-483.110595703125

> <r_mmod_Solvation_Energy-OPLS-2005>
-216.648742675781

> <b_mmod_Minimization_Converged-OPLS-2005>
0

> <r_mmod_RMS_Derivative-OPLS-2005>
4.60167551040649

$$$$
48
                    3D
 Structure written by MMmdl.
159168  0  0  1  0            999 V2000
  -30.5435  -14.9406   20.4237 C   0  0  0  0  0  0
  -30.4427  -12.5824   19.5013 C   0  0  0  0  0  0
  -29.5245  -12.5371   18.2577 C   0  0  0  0  0  0
  -28.0559  -12.3248   18.6713 C   0  0  0  0  0  0
  -27.6332  -13.2499   19.8425 C   0  0  2  0  0  0
  -28.6755  -13.2690   20.9820 C   0  0  0  0  0  0
  -25.2470  -13.8225   20.5712 C   0  0  0  0  0  0
  -24.1787  -13.0445   20.9229 C   0  0  0  0  0  0
  -24.6404  -11.6931   20.8751 C   0  0  0  0  0  0
  -23.9084  -10.4301   21.0405 C   0  0  0  0  0  0
  -24.3629   -9.4212   21.9182 C   0  0  0  0  0  0
  -23.6303   -8.2249   22.0753 C   0  0  0  0  0  0
  -22.4285   -8.0288   21.3543 C   0  0  0  0  0  0
  -21.9922   -9.0260   20.4644 C   0  0  0  0  0  0
  -22.7256  -10.2139   20.3053 C   0  0  0  0  0  0
  -21.6855   -6.0739   22.5278 C   0  0  0  0  0  0
  -21.4014   -6.5640   23.8212 C   0  0  0  0  0  0
  -21.3661   -5.6790   24.9172 C   0  0  0  0  0  0
  -21.6044   -4.3052   24.7220 C   0  0  0  0  0  0
  -21.8821   -3.8146   23.4340 C   0  0  0  0  0  0
  -21.9193   -4.6965   22.3399 C   0  0  0  0  0  0
  -22.7806  -13.5213   21.1881 C   0  0  0  0  0  0
  -22.1662   -4.2151   21.0975 F   0  0  0  0  0  0
  -21.5629   -3.4534   25.7731 F   0  0  0  0  0  0
  -29.9558  -13.6770   20.3898 N   0  0  0  0  0  0
  -26.2901  -12.9461   20.3248 N   0  0  0  0  0  0
  -25.9336  -11.6586   20.5733 N   0  0  0  0  0  0
  -22.0450  -12.8201   22.0432 N   0  0  0  0  0  0
  -25.4128  -15.1956   20.4137 N   0  0  0  0  0  0
  -31.7388  -15.0176   20.1226 O   0  0  0  0  0  0
  -21.6644   -6.8885   21.4243 O   0  0  0  0  0  0
  -22.3487  -14.5513   20.6719 O   0  0  0  0  0  0
  -24.6449  -31.8439   23.1902 C   0  0  0  0  0  0
  -25.9216  -32.4695   23.8287 C   0  0  1  0  0  0
  -27.2116  -27.1234   20.1469 C   0  0  0  0  0  0
  -25.5966  -33.8503   24.2198 N   0  0  0  0  0  0
  -23.4493  -30.4659   21.5354 C   0  0  2  0  0  0
  -24.8997  -28.8993   20.1058 C   0  0  0  0  0  0
  -22.7578  -29.4544   22.4845 C   0  0  0  0  0  0
  -18.0307  -28.1398   22.8473 C   0  0  0  0  0  0
  -24.1492  -36.7249   23.2641 C   0  0  0  0  0  0
  -26.0078  -30.7126   21.3944 C   0  0  0  0  0  0
  -26.0772  -29.3242   20.7338 C   0  0  0  0  0  0
  -27.2322  -28.4507   20.7439 C   0  0  0  0  0  0
  -26.0136  -26.8221   19.4554 C   0  0  0  0  0  0
  -24.8825  -27.6624   19.4500 C   0  0  0  0  0  0
  -23.6773  -29.8025   20.1524 C   0  0  0  0  0  0
  -25.4123  -36.3031   24.0317 C   0  0  1  0  0  0
  -20.5922  -28.3724   23.1228 C   0  0  2  0  0  0
  -20.6791  -26.9425   22.5403 C   0  0  0  0  0  0
  -19.5763  -26.6381   21.5212 C   0  0  0  0  0  0
  -18.1944  -26.7937   22.1620 C   0  0  0  0  0  0
  -19.1564  -28.8878   23.2844 C   0  0  0  0  0  0
  -18.9479  -30.1473   23.8872 C   0  0  0  0  0  0
  -17.6474  -30.6592   24.0557 C   0  0  0  0  0  0
  -25.9076  -34.9407   23.5062 C   0  0  0  0  0  0
  -16.5364  -29.9084   23.6338 C   0  0  0  0  0  0
  -16.7291  -28.6505   23.0355 C   0  0  0  0  0  0
  -26.4535  -31.6566   25.0730 C   0  0  0  0  0  0
  -25.3714  -31.3757   26.1418 C   0  0  0  0  0  0
  -27.0404  -30.2959   24.6325 C   0  0  0  0  0  0
  -27.6066  -32.4329   25.7517 C   0  0  0  0  0  0
  -27.5577  -37.1782   24.8462 C   0  0  0  0  0  0
  -21.4266  -29.3049   22.3596 N   0  0  0  0  0  0
  -26.4282  -37.3749   23.9415 N   0  0  0  0  0  0
  -24.7205  -31.0286   22.0947 N   0  0  0  0  0  0
  -23.4215  -28.8079   23.2991 O   0  0  0  0  0  0
  -28.2316  -26.0987   20.2523 O   0  0  0  0  0  0
  -26.5652  -34.8903   22.4635 O   0  0  0  0  0  0
  -23.5564  -32.1321   23.7112 O   0  0  0  0  0  0
  -29.0147  -22.1652   19.3182 C   0  0  0  0  0  0
  -28.7995  -21.3725   21.8832 C   0  0  0  0  0  0
  -29.2985  -20.7698   19.6523 C   0  0  0  0  0  0
  -29.1821  -20.3199   20.9847 C   0  0  0  0  0  0
  -28.6145  -23.1751   20.2818 C   0  0  0  0  0  0
  -29.7230  -19.7046   18.6184 C   0  0  0  0  0  0
  -29.4351  -18.1855   18.9722 C   0  0  0  0  0  0
  -29.3838  -18.7634   21.4070 C   0  0  1  0  0  0
  -29.9686  -17.6632   20.3453 C   0  0  1  0  0  0
  -31.4815  -19.2811   22.8351 C   0  0  0  0  0  0
  -27.8958  -24.6194   19.8798 C   0  0  0  0  0  0
  -30.0973  -18.6165   22.7672 C   0  0  0  0  0  0
  -28.5287  -22.6964   21.5632 N   0  0  0  0  0  0
  -29.7508  -16.1094   20.5865 N   0  0  0  0  0  0
  -31.4774  -12.7381   19.1921 H   0  0  0  0  0  0
  -30.4314  -11.6268   20.0275 H   0  0  0  0  0  0
  -29.8433  -11.7447   17.5792 H   0  0  0  0  0  0
  -29.6157  -13.4716   17.7016 H   0  0  0  0  0  0
  -27.9451  -11.2815   18.9682 H   0  0  0  0  0  0
  -27.3959  -12.4701   17.8153 H   0  0  0  0  0  0
  -27.5999  -14.2550   19.4207 H   0  0  0  0  0  0
  -28.7582  -12.2912   21.4588 H   0  0  0  0  0  0
  -28.3769  -13.9690   21.7638 H   0  0  0  0  0  0
  -25.2773   -9.5687   22.4758 H   0  0  0  0  0  0
  -24.0010   -7.4637   22.7472 H   0  0  0  0  0  0
  -21.0854   -8.8782   19.8947 H   0  0  0  0  0  0
  -22.3717  -10.9676   19.6160 H   0  0  0  0  0  0
  -21.2007   -7.6149   23.9716 H   0  0  0  0  0  0
  -21.1485   -6.0518   25.9076 H   0  0  0  0  0  0
  -22.0598   -2.7608   23.2834 H   0  0  0  0  0  0
  -22.4070  -11.9868   22.4826 H   0  0  0  0  0  0
  -21.1060  -13.1216   22.2627 H   0  0  0  0  0  0
  -24.6400  -15.8432   20.5252 H   0  0  0  0  0  0
  -26.2465  -15.6354   20.0466 H   0  0  0  0  0  0
  -26.7279  -32.5300   23.1014 H   0  0  0  0  0  0
  -25.0114  -33.9623   25.0346 H   0  0  0  0  0  0
  -22.7524  -31.2930   21.3840 H   0  0  0  0  0  0
  -23.3767  -35.9567   23.3279 H   0  0  0  0  0  0
  -24.3580  -36.8904   22.2060 H   0  0  0  0  0  0
  -23.7231  -37.6433   23.6691 H   0  0  0  0  0  0
  -26.1674  -31.4672   20.6226 H   0  0  0  0  0  0
  -26.8764  -30.7608   22.0394 H   0  0  0  0  0  0
  -28.1217  -28.7655   21.2711 H   0  0  0  0  0  0
  -25.8986  -25.8898   18.9247 H   0  0  0  0  0  0
  -23.9884  -27.3385   18.9350 H   0  0  0  0  0  0
  -23.8169  -30.5810   19.4017 H   0  0  0  0  0  0
  -22.7914  -29.2485   19.8365 H   0  0  0  0  0  0
  -25.1313  -36.1855   25.0810 H   0  0  0  0  0  0
  -21.0022  -28.3315   24.1346 H   0  0  0  0  0  0
  -20.5687  -26.2337   23.3625 H   0  0  0  0  0  0
  -21.6654  -26.7428   22.1199 H   0  0  0  0  0  0
  -19.6924  -25.6285   21.1259 H   0  0  0  0  0  0
  -19.6705  -27.3176   20.6730 H   0  0  0  0  0  0
  -17.4217  -26.6681   21.4018 H   0  0  0  0  0  0
  -18.0338  -26.0088   22.9026 H   0  0  0  0  0  0
  -19.7953  -30.7293   24.2236 H   0  0  0  0  0  0
  -17.5026  -31.6271   24.5162 H   0  0  0  0  0  0
  -15.5362  -30.2973   23.7684 H   0  0  0  0  0  0
  -15.8692  -28.0817   22.7080 H   0  0  0  0  0  0
  -24.5906  -30.7094   25.7731 H   0  0  0  0  0  0
  -24.8891  -32.2939   26.4779 H   0  0  0  0  0  0
  -25.7992  -30.8970   27.0236 H   0  0  0  0  0  0
  -26.3024  -29.6672   24.1330 H   0  0  0  0  0  0
  -27.4002  -29.7272   25.4910 H   0  0  0  0  0  0
  -27.8941  -30.4186   23.9658 H   0  0  0  0  0  0
  -27.2665  -33.3654   26.2034 H   0  0  0  0  0  0
  -28.3914  -32.6846   25.0371 H   0  0  0  0  0  0
  -28.0692  -31.8491   26.5486 H   0  0  0  0  0  0
  -28.2574  -38.0098   24.7533 H   0  0  0  0  0  0
  -28.1094  -36.2630   24.6260 H   0  0  0  0  0  0
  -27.2298  -37.1389   25.8865 H   0  0  0  0  0  0
  -20.9475  -29.8771   21.6783 H   0  0  0  0  0  0
  -26.0145  -38.2813   24.1436 H   0  0  0  0  0  0
  -29.0493  -22.4542   18.2759 H   0  0  0  0  0  0
  -28.6641  -21.1398   22.9287 H   0  0  0  0  0  0
  -30.7943  -19.8280   18.4558 H   0  0  0  0  0  0
  -29.2483  -19.9423   17.6660 H   0  0  0  0  0  0
  -29.8335  -17.5613   18.1721 H   0  0  0  0  0  0
  -28.3548  -18.0378   18.9504 H   0  0  0  0  0  0
  -28.3568  -18.4397   21.5835 H   0  0  0  0  0  0
  -31.0507  -17.7950   20.3077 H   0  0  0  0  0  0
  -31.9411  -19.1120   23.8094 H   0  0  0  0  0  0
  -31.4210  -20.3591   22.6875 H   0  0  0  0  0  0
  -32.1574  -18.8788   22.0808 H   0  0  0  0  0  0
  -26.8790  -24.4529   20.2352 H   0  0  0  0  0  0
  -27.8270  -24.6059   18.7918 H   0  0  0  0  0  0
  -30.1942  -17.5576   23.0118 H   0  0  0  0  0  0
  -29.4699  -19.0359   23.5541 H   0  0  0  0  0  0
  -28.8001  -15.8836   20.8361 H   0  0  0  0  0  0
  1 25  1  0  0  0
  1 30  2  0  0  0
  1 84  1  0  0  0
  2  3  1  0  0  0
  2 25  1  0  0  0
  2 85  1  0  0  0
  2 86  1  0  0  0
  3  4  1  0  0  0
  3 87  1  0  0  0
  3 88  1  0  0  0
  4  5  1  0  0  0
  4 89  1  0  0  0
  4 90  1  0  0  0
  5  6  1  0  0  0
  5 26  1  0  0  0
  5 91  1  0  0  0
  6 25  1  0  0  0
  6 92  1  0  0  0
  6 93  1  0  0  0
  7  8  2  0  0  0
  7 26  1  0  0  0
  7 29  1  0  0  0
  8  9  1  0  0  0
  8 22  1  0  0  0
  9 10  1  0  0  0
  9 27  2  0  0  0
 10 11  2  0  0  0
 10 15  1  0  0  0
 11 12  1  0  0  0
 11 94  1  0  0  0
 12 13  2  0  0  0
 12 95  1  0  0  0
 13 14  1  0  0  0
 13 31  1  0  0  0
 14 15  2  0  0  0
 14 96  1  0  0  0
 15 97  1  0  0  0
 16 17  2  0  0  0
 16 21  1  0  0  0
 16 31  1  0  0  0
 17 18  1  0  0  0
 17 98  1  0  0  0
 18 19  2  0  0  0
 18 99  1  0  0  0
 19 20  1  0  0  0
 19 24  1  0  0  0
 20 21  2  0  0  0
 20100  1  0  0  0
 21 23  1  0  0  0
 22 28  1  0  0  0
 22 32  2  0  0  0
 26 27  1  0  0  0
 28101  1  0  0  0
 28102  1  0  0  0
 29103  1  0  0  0
 29104  1  0  0  0
 33 34  1  0  0  0
 33 66  1  0  0  0
 33 70  2  0  0  0
 34 36  1  0  0  0
 34 59  1  0  0  0
 34105  1  0  0  0
 35 44  2  0  0  0
 35 45  1  0  0  0
 35 68  1  0  0  0
 36 56  1  0  0  0
 36106  1  0  0  0
 37 39  1  0  0  0
 37 47  1  0  0  0
 37 66  1  0  0  0
 37107  1  0  0  0
 38 43  2  0  0  0
 38 46  1  0  0  0
 38 47  1  0  0  0
 39 64  1  0  0  0
 39 67  2  0  0  0
 40 52  1  0  0  0
 40 53  2  0  0  0
 40 58  1  0  0  0
 41108  1  0  0  0
 41109  1  0  0  0
 41110  1  0  0  0
 41 48  1  0  0  0
 42 43  1  0  0  0
 42 66  1  0  0  0
 42111  1  0  0  0
 42112  1  0  0  0
 43 44  1  0  0  0
 44113  1  0  0  0
 45 46  2  0  0  0
 45114  1  0  0  0
 46115  1  0  0  0
 47116  1  0  0  0
 47117  1  0  0  0
 48 56  1  0  0  0
 48 65  1  0  0  0
 48118  1  0  0  0
 49 50  1  0  0  0
 49 53  1  0  0  0
 49 64  1  0  0  0
 49119  1  0  0  0
 50 51  1  0  0  0
 50120  1  0  0  0
 50121  1  0  0  0
 51 52  1  0  0  0
 51122  1  0  0  0
 51123  1  0  0  0
 52124  1  0  0  0
 52125  1  0  0  0
 53 54  1  0  0  0
 54 55  2  0  0  0
 54126  1  0  0  0
 55 57  1  0  0  0
 55127  1  0  0  0
 56 69  2  0  0  0
 57 58  2  0  0  0
 57128  1  0  0  0
 58129  1  0  0  0
 59 60  1  0  0  0
 59 61  1  0  0  0
 59 62  1  0  0  0
 60130  1  0  0  0
 60131  1  0  0  0
 60132  1  0  0  0
 61133  1  0  0  0
 61134  1  0  0  0
 61135  1  0  0  0
 62136  1  0  0  0
 62137  1  0  0  0
 62138  1  0  0  0
 63 65  1  0  0  0
 63139  1  0  0  0
 63140  1  0  0  0
 63141  1  0  0  0
 64142  1  0  0  0
 65143  1  0  0  0
 68 81  1  0  0  0
 71 73  2  0  0  0
 71 75  1  0  0  0
 71144  1  0  0  0
 72 74  2  0  0  0
 72 83  1  0  0  0
 72145  1  0  0  0
 73 74  1  0  0  0
 73 76  1  0  0  0
 74 78  1  0  0  0
 75 81  1  0  0  0
 75 83  2  0  0  0
 76 77  1  0  0  0
 76146  1  0  0  0
 76147  1  0  0  0
 77 79  1  0  0  0
 77148  1  0  0  0
 77149  1  0  0  0
 78 79  1  0  0  0
 78 82  1  0  0  0
 78150  1  0  0  0
 79 84  1  0  0  0
 79151  1  0  0  0
 80 82  1  0  0  0
 80152  1  0  0  0
 80153  1  0  0  0
 80154  1  0  0  0
 81155  1  0  0  0
 81156  1  0  0  0
 82157  1  0  0  0
 82158  1  0  0  0
 84159  1  0  0  0
M  ISO  4   1 100  68 101  81 101  84 100
M  END
> <chiral flag>
0

> <version>
0

> <s_m_source_file>
/data/baiqing/PycharmProjects/Reinvent-master-3.2/result/LINK_invent/BTK/process_docking_weight1_custom_sum_contain_oxygen_bond_distance_aromatic_linkinvent_7_9_3/rearranged_h_0178.sdf

> <i_m_source_file_index>
48

> <r_mmod_Potential_Energy-OPLS-2005>
306.788299560547

> <r_mmod_Stretch_Energy-OPLS-2005>
229.130218505859

> <r_mmod_Bend_Energy-OPLS-2005>
249.675704956055

> <r_mmod_Torsional_Energy-OPLS-2005>
228.037155151367

> <r_mmod_Improper_Torsional_Energy-OPLS-2005>
7.67738485336304

> <r_mmod_Van_der_Waal_Energy-OPLS-2005>
135.209869384766

> <r_mmod_Electrostatic_Energy-OPLS-2005>
-514.58056640625

> <r_mmod_Solvation_Energy-OPLS-2005>
-228.725860595703

> <b_mmod_Minimization_Converged-OPLS-2005>
0

> <r_mmod_RMS_Derivative-OPLS-2005>
0.67708545923233

$$$$
49
                    3D
 Structure written by MMmdl.
159168  0  0  1  0            999 V2000
  -30.5046  -15.3285   20.3866 C   0  0  0  0  0  0
  -30.4350  -12.8850   19.4892 C   0  0  0  0  0  0
  -29.5444  -12.5836   18.2674 C   0  0  0  0  0  0
  -28.0978  -12.2912   18.7156 C   0  0  0  0  0  0
  -27.6075  -13.2903   19.7980 C   0  0  2  0  0  0
  -28.6498  -13.5243   20.9086 C   0  0  0  0  0  0
  -25.2426  -13.8300   20.5774 C   0  0  0  0  0  0
  -24.1777  -13.0479   20.9303 C   0  0  0  0  0  0
  -24.6440  -11.6977   20.8802 C   0  0  0  0  0  0
  -23.9154  -10.4325   21.0420 C   0  0  0  0  0  0
  -24.3671   -9.4213   21.9182 C   0  0  0  0  0  0
  -23.6360   -8.2255   22.0728 C   0  0  0  0  0  0
  -22.4333   -8.0304   21.3528 C   0  0  0  0  0  0
  -21.9990   -9.0295   20.4639 C   0  0  0  0  0  0
  -22.7330  -10.2155   20.3063 C   0  0  0  0  0  0
  -21.6857   -6.0786   22.5281 C   0  0  0  0  0  0
  -21.4020   -6.5667   23.8223 C   0  0  0  0  0  0
  -21.3633   -5.6794   24.9171 C   0  0  0  0  0  0
  -21.6057   -4.3054   24.7216 C   0  0  0  0  0  0
  -21.8806   -3.8173   23.4324 C   0  0  0  0  0  0
  -21.9177   -4.7007   22.3399 C   0  0  0  0  0  0
  -22.7773  -13.5228   21.1874 C   0  0  0  0  0  0
  -22.1637   -4.2206   21.0974 F   0  0  0  0  0  0
  -21.5618   -3.4529   25.7716 F   0  0  0  0  0  0
  -29.8418  -14.0699   20.2247 N   0  0  0  0  0  0
  -26.2844  -12.9576   20.3174 N   0  0  0  0  0  0
  -25.9367  -11.6672   20.5692 N   0  0  0  0  0  0
  -22.0332  -12.8275   22.0422 N   0  0  0  0  0  0
  -25.4151  -15.2036   20.4156 N   0  0  0  0  0  0
  -31.7354  -15.1366   20.3793 O   0  0  0  0  0  0
  -21.6646   -6.8935   21.4248 O   0  0  0  0  0  0
  -22.3475  -14.5491   20.6602 O   0  0  0  0  0  0
  -24.6692  -31.8163   23.1635 C   0  0  0  0  0  0
  -25.9338  -32.4555   23.8157 C   0  0  1  0  0  0
  -27.2441  -26.8802   20.1991 C   0  0  0  0  0  0
  -25.5977  -33.8370   24.2056 N   0  0  0  0  0  0
  -23.4895  -30.4239   21.5114 C   0  0  2  0  0  0
  -24.9506  -28.7986   20.1195 C   0  0  0  0  0  0
  -22.7700  -29.4410   22.4718 C   0  0  0  0  0  0
  -18.0318  -28.1410   22.8454 C   0  0  0  0  0  0
  -24.1497  -36.7192   23.2641 C   0  0  0  0  0  0
  -26.0610  -30.6078   21.4059 C   0  0  0  0  0  0
  -26.1345  -29.1908   20.7552 C   0  0  0  0  0  0
  -27.2732  -28.2570   20.7669 C   0  0  0  0  0  0
  -26.0252  -26.6513   19.5157 C   0  0  0  0  0  0
  -24.9248  -27.5491   19.4772 C   0  0  0  0  0  0
  -23.7383  -29.7301   20.1429 C   0  0  0  0  0  0
  -25.4130  -36.2932   24.0284 C   0  0  1  0  0  0
  -20.5947  -28.3771   23.1143 C   0  0  2  0  0  0
  -20.6799  -26.9449   22.5380 C   0  0  0  0  0  0
  -19.5772  -26.6374   21.5197 C   0  0  0  0  0  0
  -18.1957  -26.7940   22.1614 C   0  0  0  0  0  0
  -19.1588  -28.8901   23.2780 C   0  0  0  0  0  0
  -18.9502  -30.1489   23.8831 C   0  0  0  0  0  0
  -17.6503  -30.6611   24.0522 C   0  0  0  0  0  0
  -25.9097  -34.9316   23.4992 C   0  0  0  0  0  0
  -16.5380  -29.9097   23.6341 C   0  0  0  0  0  0
  -16.7304  -28.6500   23.0377 C   0  0  0  0  0  0
  -26.4583  -31.6519   25.0715 C   0  0  0  0  0  0
  -25.3709  -31.3829   26.1381 C   0  0  0  0  0  0
  -27.0481  -30.2858   24.6525 C   0  0  0  0  0  0
  -27.6065  -32.4337   25.7523 C   0  0  0  0  0  0
  -27.5569  -37.1737   24.8448 C   0  0  0  0  0  0
  -21.4368  -29.3056   22.3502 N   0  0  0  0  0  0
  -26.4260  -37.3679   23.9415 N   0  0  0  0  0  0
  -24.7608  -30.9780   22.0816 N   0  0  0  0  0  0
  -23.4217  -28.7968   23.2982 O   0  0  0  0  0  0
  -28.2474  -25.7550   20.2651 O   0  0  0  0  0  0
  -26.5712  -34.8866   22.4588 O   0  0  0  0  0  0
  -23.5727  -32.1155   23.6698 O   0  0  0  0  0  0
  -30.6965  -20.2509   20.5422 C   0  0  0  0  0  0
  -29.3804  -19.8300   20.2780 C   0  0  0  0  0  0
  -28.4971  -21.1116   20.1785 C   0  0  0  0  0  0
  -28.9015  -22.6075   20.2922 C   0  0  0  0  0  0
  -30.3050  -22.6361   20.5052 C   0  0  0  0  0  0
  -29.7144  -17.7086   17.8126 C   0  0  0  0  0  0
  -28.4983  -17.9569   18.7073 C   0  0  0  0  0  0
  -30.7921  -17.1570   18.7535 C   0  0  0  0  0  0
  -29.0856  -18.0834   20.1219 C   0  0  1  0  0  0
  -27.0202  -20.8984   19.9277 C   0  0  0  0  0  0
  -31.0599  -23.9450   20.5844 C   0  0  0  0  0  0
  -27.9452  -24.1097   20.2024 C   0  0  0  0  0  0
  -31.1144  -21.5426   20.6354 N   0  0  0  0  0  0
  -30.0729  -16.7164   19.9600 N   0  0  0  0  0  0
  -31.4483  -13.0949   19.1393 H   0  0  0  0  0  0
  -30.5333  -12.0166   20.1422 H   0  0  0  0  0  0
  -29.9547  -11.7477   17.6966 H   0  0  0  0  0  0
  -29.5619  -13.4489   17.6032 H   0  0  0  0  0  0
  -28.0809  -11.2808   19.1245 H   0  0  0  0  0  0
  -27.4299  -12.2772   17.8542 H   0  0  0  0  0  0
  -27.5011  -14.2441   19.2733 H   0  0  0  0  0  0
  -28.8541  -12.6033   21.4582 H   0  0  0  0  0  0
  -28.2835  -14.2435   21.6402 H   0  0  0  0  0  0
  -25.2811   -9.5693   22.4751 H   0  0  0  0  0  0
  -24.0029   -7.4662   22.7464 H   0  0  0  0  0  0
  -21.0905   -8.8908   19.8984 H   0  0  0  0  0  0
  -22.3848  -10.9714   19.6184 H   0  0  0  0  0  0
  -21.2032   -7.6175   23.9767 H   0  0  0  0  0  0
  -21.1453   -6.0499   25.9082 H   0  0  0  0  0  0
  -22.0611   -2.7638   23.2795 H   0  0  0  0  0  0
  -22.3845  -12.0041   22.5072 H   0  0  0  0  0  0
  -21.0908  -13.1326   22.2398 H   0  0  0  0  0  0
  -24.6688  -15.8784   20.5373 H   0  0  0  0  0  0
  -26.2828  -15.6226   20.1002 H   0  0  0  0  0  0
  -26.7408  -32.5076   23.0866 H   0  0  0  0  0  0
  -25.0091  -33.9455   25.0189 H   0  0  0  0  0  0
  -22.8047  -31.2535   21.3291 H   0  0  0  0  0  0
  -23.3776  -35.9502   23.3235 H   0  0  0  0  0  0
  -24.3579  -36.8920   22.2071 H   0  0  0  0  0  0
  -23.7248  -37.6346   23.6761 H   0  0  0  0  0  0
  -26.2447  -31.3443   20.6227 H   0  0  0  0  0  0
  -26.9164  -30.6716   22.0645 H   0  0  0  0  0  0
  -28.1678  -28.5601   21.2954 H   0  0  0  0  0  0
  -25.8892  -25.7001   19.0212 H   0  0  0  0  0  0
  -24.0297  -27.2427   18.9541 H   0  0  0  0  0  0
  -23.8973  -30.4905   19.3772 H   0  0  0  0  0  0
  -22.8521  -29.1782   19.8259 H   0  0  0  0  0  0
  -25.1329  -36.1708   25.0770 H   0  0  0  0  0  0
  -21.0027  -28.3387   24.1256 H   0  0  0  0  0  0
  -20.5681  -26.2387   23.3629 H   0  0  0  0  0  0
  -21.6661  -26.7419   22.1191 H   0  0  0  0  0  0
  -19.6950  -25.6267   21.1275 H   0  0  0  0  0  0
  -19.6718  -27.3120   20.6681 H   0  0  0  0  0  0
  -17.4223  -26.6639   21.4026 H   0  0  0  0  0  0
  -18.0380  -26.0109   22.9045 H   0  0  0  0  0  0
  -19.7981  -30.7301   24.2190 H   0  0  0  0  0  0
  -17.5064  -31.6295   24.5134 H   0  0  0  0  0  0
  -15.5379  -30.2978   23.7733 H   0  0  0  0  0  0
  -15.8695  -28.0803   22.7154 H   0  0  0  0  0  0
  -24.5798  -30.7297   25.7677 H   0  0  0  0  0  0
  -24.9031  -32.3080   26.4762 H   0  0  0  0  0  0
  -25.7911  -30.8970   27.0202 H   0  0  0  0  0  0
  -26.3171  -29.6507   24.1511 H   0  0  0  0  0  0
  -27.3928  -29.7252   25.5229 H   0  0  0  0  0  0
  -27.9149  -30.3968   24.0010 H   0  0  0  0  0  0
  -27.2615  -33.3653   26.2019 H   0  0  0  0  0  0
  -28.3942  -32.6887   25.0421 H   0  0  0  0  0  0
  -28.0691  -31.8543   26.5529 H   0  0  0  0  0  0
  -28.2518  -38.0096   24.7532 H   0  0  0  0  0  0
  -28.1136  -36.2621   24.6218 H   0  0  0  0  0  0
  -27.2296  -37.1300   25.8849 H   0  0  0  0  0  0
  -20.9636  -29.8732   21.6609 H   0  0  0  0  0  0
  -26.0103  -38.2716   24.1460 H   0  0  0  0  0  0
  -31.4732  -19.5112   20.6654 H   0  0  0  0  0  0
  -30.0714  -18.6272   17.3438 H   0  0  0  0  0  0
  -29.4655  -17.0048   17.0125 H   0  0  0  0  0  0
  -27.8466  -17.0831   18.6639 H   0  0  0  0  0  0
  -27.9061  -18.8003   18.3589 H   0  0  0  0  0  0
  -31.5122  -17.9290   19.0232 H   0  0  0  0  0  0
  -31.3662  -16.3810   18.2441 H   0  0  0  0  0  0
  -28.3024  -17.8464   20.8397 H   0  0  0  0  0  0
  -26.7465  -19.8470   19.9157 H   0  0  0  0  0  0
  -26.7301  -21.3416   18.9740 H   0  0  0  0  0  0
  -26.4363  -21.3769   20.7122 H   0  0  0  0  0  0
  -30.7854  -24.4985   21.4783 H   0  0  0  0  0  0
  -30.8445  -24.5519   19.7084 H   0  0  0  0  0  0
  -32.1422  -23.7812   20.6092 H   0  0  0  0  0  0
  -27.2298  -23.9807   21.0156 H   0  0  0  0  0  0
  -27.3519  -23.9796   19.3021 H   0  0  0  0  0  0
  1 25  1  0  0  0
  1 30  2  0  0  0
  1 84  1  0  0  0
  2  3  1  0  0  0
  2 25  1  0  0  0
  2 85  1  0  0  0
  2 86  1  0  0  0
  3  4  1  0  0  0
  3 87  1  0  0  0
  3 88  1  0  0  0
  4  5  1  0  0  0
  4 89  1  0  0  0
  4 90  1  0  0  0
  5  6  1  0  0  0
  5 26  1  0  0  0
  5 91  1  0  0  0
  6 25  1  0  0  0
  6 92  1  0  0  0
  6 93  1  0  0  0
  7  8  2  0  0  0
  7 26  1  0  0  0
  7 29  1  0  0  0
  8  9  1  0  0  0
  8 22  1  0  0  0
  9 10  1  0  0  0
  9 27  2  0  0  0
 10 11  2  0  0  0
 10 15  1  0  0  0
 11 12  1  0  0  0
 11 94  1  0  0  0
 12 13  2  0  0  0
 12 95  1  0  0  0
 13 14  1  0  0  0
 13 31  1  0  0  0
 14 15  2  0  0  0
 14 96  1  0  0  0
 15 97  1  0  0  0
 16 17  2  0  0  0
 16 21  1  0  0  0
 16 31  1  0  0  0
 17 18  1  0  0  0
 17 98  1  0  0  0
 18 19  2  0  0  0
 18 99  1  0  0  0
 19 20  1  0  0  0
 19 24  1  0  0  0
 20 21  2  0  0  0
 20100  1  0  0  0
 21 23  1  0  0  0
 22 28  1  0  0  0
 22 32  2  0  0  0
 26 27  1  0  0  0
 28101  1  0  0  0
 28102  1  0  0  0
 29103  1  0  0  0
 29104  1  0  0  0
 33 34  1  0  0  0
 33 66  1  0  0  0
 33 70  2  0  0  0
 34 36  1  0  0  0
 34 59  1  0  0  0
 34105  1  0  0  0
 35 44  2  0  0  0
 35 45  1  0  0  0
 35 68  1  0  0  0
 36 56  1  0  0  0
 36106  1  0  0  0
 37 39  1  0  0  0
 37 47  1  0  0  0
 37 66  1  0  0  0
 37107  1  0  0  0
 38 43  2  0  0  0
 38 46  1  0  0  0
 38 47  1  0  0  0
 39 64  1  0  0  0
 39 67  2  0  0  0
 40 52  1  0  0  0
 40 53  2  0  0  0
 40 58  1  0  0  0
 41108  1  0  0  0
 41109  1  0  0  0
 41110  1  0  0  0
 41 48  1  0  0  0
 42 43  1  0  0  0
 42 66  1  0  0  0
 42111  1  0  0  0
 42112  1  0  0  0
 43 44  1  0  0  0
 44113  1  0  0  0
 45 46  2  0  0  0
 45114  1  0  0  0
 46115  1  0  0  0
 47116  1  0  0  0
 47117  1  0  0  0
 48 56  1  0  0  0
 48 65  1  0  0  0
 48118  1  0  0  0
 49 50  1  0  0  0
 49 53  1  0  0  0
 49 64  1  0  0  0
 49119  1  0  0  0
 50 51  1  0  0  0
 50120  1  0  0  0
 50121  1  0  0  0
 51 52  1  0  0  0
 51122  1  0  0  0
 51123  1  0  0  0
 52124  1  0  0  0
 52125  1  0  0  0
 53 54  1  0  0  0
 54 55  2  0  0  0
 54126  1  0  0  0
 55 57  1  0  0  0
 55127  1  0  0  0
 56 69  2  0  0  0
 57 58  2  0  0  0
 57128  1  0  0  0
 58129  1  0  0  0
 59 60  1  0  0  0
 59 61  1  0  0  0
 59 62  1  0  0  0
 60130  1  0  0  0
 60131  1  0  0  0
 60132  1  0  0  0
 61133  1  0  0  0
 61134  1  0  0  0
 61135  1  0  0  0
 62136  1  0  0  0
 62137  1  0  0  0
 62138  1  0  0  0
 63 65  1  0  0  0
 63139  1  0  0  0
 63140  1  0  0  0
 63141  1  0  0  0
 64142  1  0  0  0
 65143  1  0  0  0
 68 82  1  0  0  0
 71 72  2  0  0  0
 71 83  1  0  0  0
 71144  1  0  0  0
 72 73  1  0  0  0
 72 79  1  0  0  0
 73 74  2  0  0  0
 73 80  1  0  0  0
 74 75  1  0  0  0
 74 82  1  0  0  0
 75 81  1  0  0  0
 75 83  2  0  0  0
 76 77  1  0  0  0
 76 78  1  0  0  0
 76145  1  0  0  0
 76146  1  0  0  0
 77 79  1  0  0  0
 77147  1  0  0  0
 77148  1  0  0  0
 78 84  1  0  0  0
 78149  1  0  0  0
 78150  1  0  0  0
 79 84  1  0  0  0
 79151  1  0  0  0
 80152  1  0  0  0
 80153  1  0  0  0
 80154  1  0  0  0
 81155  1  0  0  0
 81156  1  0  0  0
 81157  1  0  0  0
 82158  1  0  0  0
 82159  1  0  0  0
M  ISO  4   1 100  68 101  82 101  84 100
M  END
> <chiral flag>
0

> <version>
0

> <s_m_source_file>
/data/baiqing/PycharmProjects/Reinvent-master-3.2/result/LINK_invent/BTK/process_docking_weight1_custom_sum_contain_oxygen_bond_distance_aromatic_linkinvent_7_9_3/rearranged_h_0178.sdf

> <i_m_source_file_index>
49

> <r_mmod_Potential_Energy-OPLS-2005>
1680.06298828125

> <r_mmod_Stretch_Energy-OPLS-2005>
669.484008789062

> <r_mmod_Bend_Energy-OPLS-2005>
561.695129394531

> <r_mmod_Torsional_Energy-OPLS-2005>
349.962982177734

> <r_mmod_Improper_Torsional_Energy-OPLS-2005>
26.2613830566406

> <r_mmod_Van_der_Waal_Energy-OPLS-2005>
124.214797973633

> <r_mmod_Electrostatic_Energy-OPLS-2005>
-368.261596679688

> <r_mmod_Solvation_Energy-OPLS-2005>
-215.889801025391

> <b_mmod_Minimization_Converged-OPLS-2005>
0

> <r_mmod_RMS_Derivative-OPLS-2005>
5.73370599746704

$$$$
50
                    3D
 Structure written by MMmdl.
157166  0  0  1  0            999 V2000
  -30.4563  -15.3190   20.3657 C   0  0  0  0  0  0
  -30.4348  -12.8469   19.5332 C   0  0  0  0  0  0
  -29.5358  -12.5862   18.2969 C   0  0  0  0  0  0
  -28.0904  -12.2901   18.7290 C   0  0  0  0  0  0
  -27.6079  -13.2734   19.8214 C   0  0  2  0  0  0
  -28.6433  -13.4831   20.9546 C   0  0  0  0  0  0
  -25.2263  -13.8169   20.5676 C   0  0  0  0  0  0
  -24.1681  -13.0353   20.9280 C   0  0  0  0  0  0
  -24.6387  -11.6880   20.8793 C   0  0  0  0  0  0
  -23.9095  -10.4249   21.0421 C   0  0  0  0  0  0
  -24.3638   -9.4168   21.9198 C   0  0  0  0  0  0
  -23.6299   -8.2214   22.0764 C   0  0  0  0  0  0
  -22.4280   -8.0265   21.3548 C   0  0  0  0  0  0
  -21.9924   -9.0241   20.4648 C   0  0  0  0  0  0
  -22.7270  -10.2108   20.3061 C   0  0  0  0  0  0
  -21.6849   -6.0729   22.5279 C   0  0  0  0  0  0
  -21.4010   -6.5635   23.8210 C   0  0  0  0  0  0
  -21.3657   -5.6789   24.9173 C   0  0  0  0  0  0
  -21.6045   -4.3052   24.7226 C   0  0  0  0  0  0
  -21.8819   -3.8143   23.4346 C   0  0  0  0  0  0
  -21.9192   -4.6958   22.3403 C   0  0  0  0  0  0
  -22.7700  -13.5113   21.1915 C   0  0  0  0  0  0
  -22.1663   -4.2145   21.0981 F   0  0  0  0  0  0
  -21.5630   -3.4536   25.7740 F   0  0  0  0  0  0
  -29.8724  -14.0089   20.3280 N   0  0  0  0  0  0
  -26.2777  -12.9504   20.3219 N   0  0  0  0  0  0
  -25.9333  -11.6607   20.5764 N   0  0  0  0  0  0
  -22.0368  -12.8116   22.0485 N   0  0  0  0  0  0
  -25.3571  -15.1884   20.3932 N   0  0  0  0  0  0
  -31.6703  -15.2801   20.1145 O   0  0  0  0  0  0
  -21.6633   -6.8871   21.4241 O   0  0  0  0  0  0
  -22.3383  -14.5418   20.6750 O   0  0  0  0  0  0
  -24.6641  -31.8210   23.1677 C   0  0  0  0  0  0
  -25.9313  -32.4574   23.8152 C   0  0  1  0  0  0
  -27.2288  -26.9112   20.1886 C   0  0  0  0  0  0
  -25.5970  -33.8388   24.2055 N   0  0  0  0  0  0
  -23.4806  -30.4299   21.5168 C   0  0  2  0  0  0
  -24.9368  -28.8111   20.1114 C   0  0  0  0  0  0
  -22.7677  -29.4421   22.4773 C   0  0  0  0  0  0
  -18.0325  -28.1410   22.8464 C   0  0  0  0  0  0
  -24.1492  -36.7199   23.2648 C   0  0  0  0  0  0
  -26.0498  -30.6220   21.4006 C   0  0  0  0  0  0
  -26.1191  -29.2091   20.7470 C   0  0  0  0  0  0
  -27.2565  -28.2803   20.7609 C   0  0  0  0  0  0
  -26.0179  -26.6700   19.4993 C   0  0  0  0  0  0
  -24.9126  -27.5627   19.4668 C   0  0  0  0  0  0
  -23.7219  -29.7400   20.1449 C   0  0  0  0  0  0
  -25.4134  -36.2959   24.0297 C   0  0  1  0  0  0
  -20.5949  -28.3752   23.1187 C   0  0  2  0  0  0
  -20.6796  -26.9431   22.5405 C   0  0  0  0  0  0
  -19.5769  -26.6377   21.5217 C   0  0  0  0  0  0
  -18.1953  -26.7942   22.1625 C   0  0  0  0  0  0
  -19.1586  -28.8905   23.2809 C   0  0  0  0  0  0
  -18.9494  -30.1495   23.8843 C   0  0  0  0  0  0
  -17.6487  -30.6598   24.0556 C   0  0  0  0  0  0
  -25.9100  -34.9342   23.5000 C   0  0  0  0  0  0
  -16.5378  -29.9083   23.6347 C   0  0  0  0  0  0
  -16.7308  -28.6506   23.0362 C   0  0  0  0  0  0
  -26.4560  -31.6529   25.0691 C   0  0  0  0  0  0
  -25.3681  -31.3790   26.1346 C   0  0  0  0  0  0
  -27.0460  -30.2892   24.6441 C   0  0  0  0  0  0
  -27.6043  -32.4349   25.7494 C   0  0  0  0  0  0
  -27.5568  -37.1757   24.8466 C   0  0  0  0  0  0
  -21.4345  -29.3036   22.3531 N   0  0  0  0  0  0
  -26.4277  -37.3697   23.9407 N   0  0  0  0  0  0
  -24.7527  -30.9854   22.0821 N   0  0  0  0  0  0
  -23.4217  -28.8000   23.3031 O   0  0  0  0  0  0
  -28.2387  -25.8087   20.2912 O   0  0  0  0  0  0
  -26.5718  -34.8884   22.4603 O   0  0  0  0  0  0
  -23.5707  -32.1187   23.6760 O   0  0  0  0  0  0
  -27.4448  -19.1346   19.1359 C   0  0  0  0  0  0
  -28.3085  -16.9143   20.5981 C   0  0  0  0  0  0
  -27.5413  -20.4925   19.9543 C   0  0  0  0  0  0
  -29.7292  -19.7870   20.7222 C   0  0  0  0  0  0
  -28.4137  -17.9260   19.4175 C   0  0  2  0  0  0
  -29.7940  -18.2219   19.9331 C   0  0  2  0  0  0
  -28.8049  -22.6774   22.1397 C   0  0  0  0  0  0
  -28.0814  -24.1717   20.0258 C   0  0  0  0  0  0
  -28.9501  -22.6804   20.6086 C   0  0  2  0  0  0
  -29.7538  -16.6459   20.4736 N   0  0  0  0  0  0
  -28.9125  -21.0705   20.0929 N   0  3  2  0  0  0
  -31.4522  -13.0442   19.1935 H   0  0  0  0  0  0
  -30.5100  -11.9511   20.1519 H   0  0  0  0  0  0
  -29.9293  -11.7578   17.7061 H   0  0  0  0  0  0
  -29.5506  -13.4621   17.6468 H   0  0  0  0  0  0
  -28.0628  -11.2711   19.1168 H   0  0  0  0  0  0
  -27.4202  -12.3096   17.8684 H   0  0  0  0  0  0
  -27.5074  -14.2169   19.2884 H   0  0  0  0  0  0
  -28.8267  -12.5576   21.5022 H   0  0  0  0  0  0
  -28.2706  -14.1999   21.6872 H   0  0  0  0  0  0
  -25.2776   -9.5643   22.4782 H   0  0  0  0  0  0
  -23.9995   -7.4604   22.7489 H   0  0  0  0  0  0
  -21.0854   -8.8771   19.8955 H   0  0  0  0  0  0
  -22.3736  -10.9653   19.6175 H   0  0  0  0  0  0
  -21.1999   -7.6143   23.9711 H   0  0  0  0  0  0
  -21.1480   -6.0520   25.9075 H   0  0  0  0  0  0
  -22.0601   -2.7607   23.2846 H   0  0  0  0  0  0
  -22.4004  -11.9793   22.4886 H   0  0  0  0  0  0
  -21.0983  -13.1133   22.2692 H   0  0  0  0  0  0
  -24.5581  -15.8068   20.4792 H   0  0  0  0  0  0
  -26.1573  -15.6327   19.9664 H   0  0  0  0  0  0
  -26.7384  -32.5105   23.0868 H   0  0  0  0  0  0
  -25.0056  -33.9459   25.0165 H   0  0  0  0  0  0
  -22.7942  -31.2613   21.3429 H   0  0  0  0  0  0
  -23.3763  -35.9520   23.3284 H   0  0  0  0  0  0
  -24.3568  -36.8874   22.2068 H   0  0  0  0  0  0
  -23.7243  -37.6377   23.6724 H   0  0  0  0  0  0
  -26.2310  -31.3614   20.6194 H   0  0  0  0  0  0
  -26.9092  -30.6813   22.0563 H   0  0  0  0  0  0
  -28.1490  -28.5833   21.2899 H   0  0  0  0  0  0
  -25.8897  -25.7175   19.0059 H   0  0  0  0  0  0
  -24.0151  -27.2527   18.9489 H   0  0  0  0  0  0
  -23.8759  -30.5059   19.3840 H   0  0  0  0  0  0
  -22.8319  -29.1927   19.8293 H   0  0  0  0  0  0
  -25.1336  -36.1749   25.0789 H   0  0  0  0  0  0
  -21.0037  -28.3362   24.1310 H   0  0  0  0  0  0
  -20.5673  -26.2372   23.3647 H   0  0  0  0  0  0
  -21.6658  -26.7401   22.1214 H   0  0  0  0  0  0
  -19.6924  -25.6276   21.1277 H   0  0  0  0  0  0
  -19.6708  -27.3163   20.6727 H   0  0  0  0  0  0
  -17.4222  -26.6688   21.4029 H   0  0  0  0  0  0
  -18.0344  -26.0099   22.9035 H   0  0  0  0  0  0
  -19.7969  -30.7329   24.2182 H   0  0  0  0  0  0
  -17.5038  -31.6272   24.5169 H   0  0  0  0  0  0
  -15.5375  -30.2967   23.7702 H   0  0  0  0  0  0
  -15.8709  -28.0811   22.7101 H   0  0  0  0  0  0
  -24.5870  -30.7132   25.7658 H   0  0  0  0  0  0
  -24.8863  -32.2997   26.4646 H   0  0  0  0  0  0
  -25.7910  -30.9038   27.0206 H   0  0  0  0  0  0
  -26.3134  -29.6558   24.1427 H   0  0  0  0  0  0
  -27.3962  -29.7269   25.5108 H   0  0  0  0  0  0
  -27.9087  -30.4066   23.9879 H   0  0  0  0  0  0
  -27.2601  -33.3692   26.1941 H   0  0  0  0  0  0
  -28.3921  -32.6844   25.0374 H   0  0  0  0  0  0
  -28.0637  -31.8565   26.5520 H   0  0  0  0  0  0
  -28.2567  -38.0069   24.7513 H   0  0  0  0  0  0
  -28.1082  -36.2595   24.6295 H   0  0  0  0  0  0
  -27.2284  -37.1401   25.8869 H   0  0  0  0  0  0
  -20.9606  -29.8714   21.6643 H   0  0  0  0  0  0
  -26.0121  -38.2753   24.1417 H   0  0  0  0  0  0
  -27.5593  -19.4049   18.0856 H   0  0  0  0  0  0
  -26.4163  -18.7799   19.2060 H   0  0  0  0  0  0
  -27.6786  -16.0704   20.3715 H   0  0  0  0  0  0
  -28.0222  -17.3632   21.5516 H   0  0  0  0  0  0
  -27.1306  -20.3385   20.9530 H   0  0  0  0  0  0
  -26.8965  -21.2340   19.4812 H   0  0  0  0  0  0
  -30.7536  -20.1291   20.8686 H   0  0  0  0  0  0
  -29.3500  -19.6453   21.7347 H   0  0  0  0  0  0
  -28.4928  -17.3319   18.5025 H   0  0  0  0  0  0
  -30.4717  -18.2972   19.0812 H   0  0  0  0  0  0
  -28.9933  -23.6699   22.5504 H   0  0  0  0  0  0
  -29.5114  -21.9955   22.6126 H   0  0  0  0  0  0
  -27.7995  -22.3833   22.4419 H   0  0  0  0  0  0
  -27.0328  -23.9766   20.2498 H   0  0  0  0  0  0
  -28.1304  -24.1037   18.9391 H   0  0  0  0  0  0
  -29.9942  -22.9327   20.4196 H   0  0  0  0  0  0
  -29.2594  -21.1337   19.1461 H   0  0  0  0  0  0
  1 25  1  0  0  0
  1 30  2  0  0  0
  1 80  1  0  0  0
  2  3  1  0  0  0
  2 25  1  0  0  0
  2 82  1  0  0  0
  2 83  1  0  0  0
  3  4  1  0  0  0
  3 84  1  0  0  0
  3 85  1  0  0  0
  4  5  1  0  0  0
  4 86  1  0  0  0
  4 87  1  0  0  0
  5  6  1  0  0  0
  5 26  1  0  0  0
  5 88  1  0  0  0
  6 25  1  0  0  0
  6 89  1  0  0  0
  6 90  1  0  0  0
  7  8  2  0  0  0
  7 26  1  0  0  0
  7 29  1  0  0  0
  8  9  1  0  0  0
  8 22  1  0  0  0
  9 10  1  0  0  0
  9 27  2  0  0  0
 10 11  2  0  0  0
 10 15  1  0  0  0
 11 12  1  0  0  0
 11 91  1  0  0  0
 12 13  2  0  0  0
 12 92  1  0  0  0
 13 14  1  0  0  0
 13 31  1  0  0  0
 14 15  2  0  0  0
 14 93  1  0  0  0
 15 94  1  0  0  0
 16 17  2  0  0  0
 16 21  1  0  0  0
 16 31  1  0  0  0
 17 18  1  0  0  0
 17 95  1  0  0  0
 18 19  2  0  0  0
 18 96  1  0  0  0
 19 20  1  0  0  0
 19 24  1  0  0  0
 20 21  2  0  0  0
 20 97  1  0  0  0
 21 23  1  0  0  0
 22 28  1  0  0  0
 22 32  2  0  0  0
 26 27  1  0  0  0
 28 98  1  0  0  0
 28 99  1  0  0  0
 29100  1  0  0  0
 29101  1  0  0  0
 33 34  1  0  0  0
 33 66  1  0  0  0
 33 70  2  0  0  0
 34 36  1  0  0  0
 34 59  1  0  0  0
 34102  1  0  0  0
 35 44  2  0  0  0
 35 45  1  0  0  0
 35 68  1  0  0  0
 36 56  1  0  0  0
 36103  1  0  0  0
 37 39  1  0  0  0
 37 47  1  0  0  0
 37 66  1  0  0  0
 37104  1  0  0  0
 38 43  2  0  0  0
 38 46  1  0  0  0
 38 47  1  0  0  0
 39 64  1  0  0  0
 39 67  2  0  0  0
 40 52  1  0  0  0
 40 53  2  0  0  0
 40 58  1  0  0  0
 41105  1  0  0  0
 41106  1  0  0  0
 41107  1  0  0  0
 41 48  1  0  0  0
 42 43  1  0  0  0
 42 66  1  0  0  0
 42108  1  0  0  0
 42109  1  0  0  0
 43 44  1  0  0  0
 44110  1  0  0  0
 45 46  2  0  0  0
 45111  1  0  0  0
 46112  1  0  0  0
 47113  1  0  0  0
 47114  1  0  0  0
 48 56  1  0  0  0
 48 65  1  0  0  0
 48115  1  0  0  0
 49 50  1  0  0  0
 49 53  1  0  0  0
 49 64  1  0  0  0
 49116  1  0  0  0
 50 51  1  0  0  0
 50117  1  0  0  0
 50118  1  0  0  0
 51 52  1  0  0  0
 51119  1  0  0  0
 51120  1  0  0  0
 52121  1  0  0  0
 52122  1  0  0  0
 53 54  1  0  0  0
 54 55  2  0  0  0
 54123  1  0  0  0
 55 57  1  0  0  0
 55124  1  0  0  0
 56 69  2  0  0  0
 57 58  2  0  0  0
 57125  1  0  0  0
 58126  1  0  0  0
 59 60  1  0  0  0
 59 61  1  0  0  0
 59 62  1  0  0  0
 60127  1  0  0  0
 60128  1  0  0  0
 60129  1  0  0  0
 61130  1  0  0  0
 61131  1  0  0  0
 61132  1  0  0  0
 62133  1  0  0  0
 62134  1  0  0  0
 62135  1  0  0  0
 63 65  1  0  0  0
 63136  1  0  0  0
 63137  1  0  0  0
 63138  1  0  0  0
 64139  1  0  0  0
 65140  1  0  0  0
 68 78  1  0  0  0
 71 73  1  0  0  0
 71141  1  0  0  0
 71142  1  0  0  0
 71 75  1  0  0  0
 72 75  1  0  0  0
 72 80  1  0  0  0
 72143  1  0  0  0
 72144  1  0  0  0
 73145  1  0  0  0
 73146  1  0  0  0
 73 81  1  0  0  0
 74 81  1  0  0  0
 74147  1  0  0  0
 74148  1  0  0  0
 74 76  1  0  0  0
 75 76  1  0  0  0
 75149  1  0  0  0
 76 80  1  0  0  0
 76150  1  0  0  0
 77151  1  0  0  0
 77152  1  0  0  0
 77153  1  0  0  0
 77 79  1  0  0  0
 78 79  1  0  0  0
 78154  1  0  0  0
 78155  1  0  0  0
 79 81  1  0  0  0
 79156  1  0  0  0
 81157  1  0  0  0
M  CHG  1  81   1
M  ISO  4   1 100  68 101  78 101  80 100
M  END
> <chiral flag>
0

> <version>
0

> <s_m_source_file>
/data/baiqing/PycharmProjects/Reinvent-master-3.2/result/LINK_invent/BTK/process_docking_weight1_custom_sum_contain_oxygen_bond_distance_aromatic_linkinvent_7_9_3/rearranged_h_0178.sdf

> <i_m_source_file_index>
50

> <r_mmod_Potential_Energy-OPLS-2005>
1455.40319824219

> <r_mmod_Stretch_Energy-OPLS-2005>
624.082946777344

> <r_mmod_Bend_Energy-OPLS-2005>
493.971374511719

> <r_mmod_Torsional_Energy-OPLS-2005>
338.224334716797

> <r_mmod_Improper_Torsional_Energy-OPLS-2005>
7.51983022689819

> <r_mmod_Van_der_Waal_Energy-OPLS-2005>
109.628746032715

> <r_mmod_Electrostatic_Energy-OPLS-2005>
-167.28727722168

> <r_mmod_Solvation_Energy-OPLS-2005>
-446.805541992188

> <b_mmod_Minimization_Converged-OPLS-2005>
0

> <r_mmod_RMS_Derivative-OPLS-2005>
0.502205193042755

$$$$
51
                    3D
 Structure written by MMmdl.
156165  0  0  1  0            999 V2000
  -30.4306  -15.2869   20.2108 C   0  0  0  0  0  0
  -30.4147  -12.8034   19.4865 C   0  0  0  0  0  0
  -29.5092  -12.4926   18.2730 C   0  0  0  0  0  0
  -28.0498  -12.2541   18.7082 C   0  0  0  0  0  0
  -27.5709  -13.2412   19.8051 C   0  0  2  0  0  0
  -28.6274  -13.4983   20.8970 C   0  0  0  0  0  0
  -25.2186  -13.7882   20.6125 C   0  0  0  0  0  0
  -24.1537  -13.0142   20.9393 C   0  0  0  0  0  0
  -24.6223  -11.6677   20.8830 C   0  0  0  0  0  0
  -23.8959  -10.4121   21.0426 C   0  0  0  0  0  0
  -24.3558   -9.4080   21.9197 C   0  0  0  0  0  0
  -23.6247   -8.2126   22.0763 C   0  0  0  0  0  0
  -22.4223   -8.0195   21.3549 C   0  0  0  0  0  0
  -21.9841   -9.0142   20.4635 C   0  0  0  0  0  0
  -22.7157  -10.2009   20.3044 C   0  0  0  0  0  0
  -21.6812   -6.0690   22.5293 C   0  0  0  0  0  0
  -21.3991   -6.5619   23.8223 C   0  0  0  0  0  0
  -21.3672   -5.6783   24.9193 C   0  0  0  0  0  0
  -21.6043   -4.3041   24.7249 C   0  0  0  0  0  0
  -21.8821   -3.8128   23.4370 C   0  0  0  0  0  0
  -21.9190   -4.6927   22.3423 C   0  0  0  0  0  0
  -22.7583  -13.4970   21.2004 C   0  0  0  0  0  0
  -22.1671   -4.2121   21.0994 F   0  0  0  0  0  0
  -21.5646   -3.4542   25.7764 F   0  0  0  0  0  0
  -29.8409  -13.9880   20.2152 N   0  0  0  0  0  0
  -26.2609  -12.9198   20.3398 N   0  0  0  0  0  0
  -25.9155  -11.6321   20.5795 N   0  0  0  0  0  0
  -22.0256  -12.8010   22.0570 N   0  0  0  0  0  0
  -25.3621  -15.1609   20.5057 N   0  0  0  0  0  0
  -31.6600  -15.1719   20.3476 O   0  0  0  0  0  0
  -21.6588   -6.8804   21.4248 O   0  0  0  0  0  0
  -22.3333  -14.5322   20.6843 O   0  0  0  0  0  0
  -24.6651  -31.8224   23.1669 C   0  0  0  0  0  0
  -25.9332  -32.4565   23.8152 C   0  0  1  0  0  0
  -27.2389  -26.9356   20.1542 C   0  0  0  0  0  0
  -25.5986  -33.8376   24.2067 N   0  0  0  0  0  0
  -23.4819  -30.4352   21.5136 C   0  0  2  0  0  0
  -24.9373  -28.8175   20.1084 C   0  0  0  0  0  0
  -22.7673  -29.4470   22.4728 C   0  0  0  0  0  0
  -18.0325  -28.1411   22.8463 C   0  0  0  0  0  0
  -24.1496  -36.7209   23.2651 C   0  0  0  0  0  0
  -26.0510  -30.6281   21.3980 C   0  0  0  0  0  0
  -26.1217  -29.2193   20.7377 C   0  0  0  0  0  0
  -27.2660  -28.2991   20.7356 C   0  0  0  0  0  0
  -26.0207  -26.6822   19.4856 C   0  0  0  0  0  0
  -24.9121  -27.5681   19.4655 C   0  0  0  0  0  0
  -23.7218  -29.7441   20.1426 C   0  0  0  0  0  0
  -25.4127  -36.2949   24.0294 C   0  0  1  0  0  0
  -20.5963  -28.3767   23.1145 C   0  0  2  0  0  0
  -20.6796  -26.9436   22.5390 C   0  0  0  0  0  0
  -19.5777  -26.6373   21.5206 C   0  0  0  0  0  0
  -18.1961  -26.7951   22.1614 C   0  0  0  0  0  0
  -19.1597  -28.8905   23.2798 C   0  0  0  0  0  0
  -18.9504  -30.1493   23.8848 C   0  0  0  0  0  0
  -17.6496  -30.6599   24.0565 C   0  0  0  0  0  0
  -25.9089  -34.9327   23.5003 C   0  0  0  0  0  0
  -16.5385  -29.9090   23.6348 C   0  0  0  0  0  0
  -16.7309  -28.6512   23.0362 C   0  0  0  0  0  0
  -26.4586  -31.6504   25.0681 C   0  0  0  0  0  0
  -25.3718  -31.3771   26.1344 C   0  0  0  0  0  0
  -27.0485  -30.2852   24.6448 C   0  0  0  0  0  0
  -27.6063  -32.4325   25.7481 C   0  0  0  0  0  0
  -27.5561  -37.1746   24.8465 C   0  0  0  0  0  0
  -21.4340  -29.3057   22.3473 N   0  0  0  0  0  0
  -26.4276  -37.3679   23.9404 N   0  0  0  0  0  0
  -24.7538  -30.9897   22.0789 N   0  0  0  0  0  0
  -23.4218  -28.8036   23.2968 O   0  0  0  0  0  0
  -28.2538  -25.8411   20.2157 O   0  0  0  0  0  0
  -26.5700  -34.8878   22.4605 O   0  0  0  0  0  0
  -23.5705  -32.1211   23.6729 O   0  0  0  0  0  0
  -27.8512  -18.3242   19.2762 C   0  0  0  0  0  0
  -29.1333  -18.3677   19.8355 C   0  0  0  0  0  0
  -27.3923  -20.6366   19.3699 C   0  0  0  0  0  0
  -28.6641  -20.9824   19.9085 C   0  0  0  0  0  0
  -27.5251  -17.0217   18.6209 C   0  0  0  0  0  0
  -28.8696  -16.3344   18.3786 C   0  0  0  0  0  0
  -29.9034  -16.8244   19.4498 C   0  0  1  0  0  0
  -26.3581  -21.6698   18.9791 C   0  0  0  0  0  0
  -31.1368  -17.2356   18.6156 C   0  0  0  0  0  0
  -28.9790  -22.6879   20.2130 C   0  0  0  0  0  0
  -28.0440  -24.2257   19.9320 C   0  0  0  0  0  0
  -27.0092  -19.3661   19.0766 N   0  0  0  0  0  0
  -29.5296  -19.7778   20.1051 N   0  0  0  0  0  0
  -31.4263  -13.0040   19.1320 H   0  0  0  0  0  0
  -30.4962  -11.9406   20.1508 H   0  0  0  0  0  0
  -29.8858  -11.6098   17.7555 H   0  0  0  0  0  0
  -29.5581  -13.3050   17.5507 H   0  0  0  0  0  0
  -27.9950  -11.2352   19.0912 H   0  0  0  0  0  0
  -27.3848  -12.2844   17.8433 H   0  0  0  0  0  0
  -27.3978  -14.1707   19.2811 H   0  0  0  0  0  0
  -28.8205  -12.5944   21.4774 H   0  0  0  0  0  0
  -28.2675  -14.2471   21.6042 H   0  0  0  0  0  0
  -25.2703   -9.5590   22.4760 H   0  0  0  0  0  0
  -23.9987   -7.4499   22.7452 H   0  0  0  0  0  0
  -21.0799   -8.8621   19.8910 H   0  0  0  0  0  0
  -22.3625  -10.9554   19.6160 H   0  0  0  0  0  0
  -21.1968   -7.6123   23.9710 H   0  0  0  0  0  0
  -21.1507   -6.0526   25.9091 H   0  0  0  0  0  0
  -22.0596   -2.7589   23.2876 H   0  0  0  0  0  0
  -22.3911  -11.9702   22.4983 H   0  0  0  0  0  0
  -21.0884  -13.1039   22.2825 H   0  0  0  0  0  0
  -24.5878  -15.8002   20.6402 H   0  0  0  0  0  0
  -26.2341  -15.6246   20.3081 H   0  0  0  0  0  0
  -26.7399  -32.5101   23.0861 H   0  0  0  0  0  0
  -25.0071  -33.9458   25.0171 H   0  0  0  0  0  0
  -22.7962  -31.2650   21.3358 H   0  0  0  0  0  0
  -23.3742  -35.9558   23.3301 H   0  0  0  0  0  0
  -24.3563  -36.8886   22.2073 H   0  0  0  0  0  0
  -23.7283  -37.6399   23.6721 H   0  0  0  0  0  0
  -26.2349  -31.3720   20.6220 H   0  0  0  0  0  0
  -26.9087  -30.6821   22.0556 H   0  0  0  0  0  0
  -28.1653  -28.6060   21.2529 H   0  0  0  0  0  0
  -25.8952  -25.7301   18.9917 H   0  0  0  0  0  0
  -24.0117  -27.2507   18.9575 H   0  0  0  0  0  0
  -23.8726  -30.5112   19.3804 H   0  0  0  0  0  0
  -22.8340  -29.1917   19.8285 H   0  0  0  0  0  0
  -25.1325  -36.1751   25.0779 H   0  0  0  0  0  0
  -21.0064  -28.3411   24.1263 H   0  0  0  0  0  0
  -20.5650  -26.2407   23.3646 H   0  0  0  0  0  0
  -21.6657  -26.7396   22.1214 H   0  0  0  0  0  0
  -19.6934  -25.6269   21.1267 H   0  0  0  0  0  0
  -19.6712  -27.3154   20.6714 H   0  0  0  0  0  0
  -17.4219  -26.6694   21.4022 H   0  0  0  0  0  0
  -18.0356  -26.0101   22.9018 H   0  0  0  0  0  0
  -19.7974  -30.7327   24.2190 H   0  0  0  0  0  0
  -17.5045  -31.6273   24.5183 H   0  0  0  0  0  0
  -15.5382  -30.2973   23.7693 H   0  0  0  0  0  0
  -15.8718  -28.0818   22.7090 H   0  0  0  0  0  0
  -24.5914  -30.7099   25.7686 H   0  0  0  0  0  0
  -24.8892  -32.2970   26.4624 H   0  0  0  0  0  0
  -25.7961  -30.9053   27.0214 H   0  0  0  0  0  0
  -26.3177  -29.6476   24.1458 H   0  0  0  0  0  0
  -27.3997  -29.7270   25.5137 H   0  0  0  0  0  0
  -27.9125  -30.4003   23.9904 H   0  0  0  0  0  0
  -27.2623  -33.3663   26.1934 H   0  0  0  0  0  0
  -28.3930  -32.6826   25.0355 H   0  0  0  0  0  0
  -28.0669  -31.8544   26.5493 H   0  0  0  0  0  0
  -28.2559  -38.0051   24.7458 H   0  0  0  0  0  0
  -28.1072  -36.2562   24.6351 H   0  0  0  0  0  0
  -27.2269  -37.1480   25.8868 H   0  0  0  0  0  0
  -20.9580  -29.8780   21.6639 H   0  0  0  0  0  0
  -26.0121  -38.2745   24.1379 H   0  0  0  0  0  0
  -26.9382  -17.1313   17.7080 H   0  0  0  0  0  0
  -26.9369  -16.4757   19.3300 H   0  0  0  0  0  0
  -29.1728  -16.6353   17.3747 H   0  0  0  0  0  0
  -28.7789  -15.2647   18.2600 H   0  0  0  0  0  0
  -25.9423  -22.1669   19.8545 H   0  0  0  0  0  0
  -25.5256  -21.2244   18.4309 H   0  0  0  0  0  0
  -26.8079  -22.3975   18.3092 H   0  0  0  0  0  0
  -31.8935  -17.6986   19.2446 H   0  0  0  0  0  0
  -30.8838  -17.9428   17.8259 H   0  0  0  0  0  0
  -31.5866  -16.3717   18.1200 H   0  0  0  0  0  0
  -29.9389  -22.8583   19.7256 H   0  0  0  0  0  0
  -29.2184  -22.6967   21.2765 H   0  0  0  0  0  0
  -27.0656  -24.0366   20.3715 H   0  0  0  0  0  0
  -27.8774  -24.2368   18.8546 H   0  0  0  0  0  0
  1 25  1  0  0  0
  1 30  2  0  0  0
  1 77  1  0  0  0
  2  3  1  0  0  0
  2 25  1  0  0  0
  2 84  1  0  0  0
  2 85  1  0  0  0
  3  4  1  0  0  0
  3 86  1  0  0  0
  3 87  1  0  0  0
  4  5  1  0  0  0
  4 88  1  0  0  0
  4 89  1  0  0  0
  5  6  1  0  0  0
  5 26  1  0  0  0
  5 90  1  0  0  0
  6 25  1  0  0  0
  6 91  1  0  0  0
  6 92  1  0  0  0
  7  8  2  0  0  0
  7 26  1  0  0  0
  7 29  1  0  0  0
  8  9  1  0  0  0
  8 22  1  0  0  0
  9 10  1  0  0  0
  9 27  2  0  0  0
 10 11  2  0  0  0
 10 15  1  0  0  0
 11 12  1  0  0  0
 11 93  1  0  0  0
 12 13  2  0  0  0
 12 94  1  0  0  0
 13 14  1  0  0  0
 13 31  1  0  0  0
 14 15  2  0  0  0
 14 95  1  0  0  0
 15 96  1  0  0  0
 16 17  2  0  0  0
 16 21  1  0  0  0
 16 31  1  0  0  0
 17 18  1  0  0  0
 17 97  1  0  0  0
 18 19  2  0  0  0
 18 98  1  0  0  0
 19 20  1  0  0  0
 19 24  1  0  0  0
 20 21  2  0  0  0
 20 99  1  0  0  0
 21 23  1  0  0  0
 22 28  1  0  0  0
 22 32  2  0  0  0
 26 27  1  0  0  0
 28100  1  0  0  0
 28101  1  0  0  0
 29102  1  0  0  0
 29103  1  0  0  0
 33 34  1  0  0  0
 33 66  1  0  0  0
 33 70  2  0  0  0
 34 36  1  0  0  0
 34 59  1  0  0  0
 34104  1  0  0  0
 35 44  2  0  0  0
 35 45  1  0  0  0
 35 68  1  0  0  0
 36 56  1  0  0  0
 36105  1  0  0  0
 37 39  1  0  0  0
 37 47  1  0  0  0
 37 66  1  0  0  0
 37106  1  0  0  0
 38 43  2  0  0  0
 38 46  1  0  0  0
 38 47  1  0  0  0
 39 64  1  0  0  0
 39 67  2  0  0  0
 40 52  1  0  0  0
 40 53  2  0  0  0
 40 58  1  0  0  0
 41107  1  0  0  0
 41108  1  0  0  0
 41109  1  0  0  0
 41 48  1  0  0  0
 42 43  1  0  0  0
 42 66  1  0  0  0
 42110  1  0  0  0
 42111  1  0  0  0
 43 44  1  0  0  0
 44112  1  0  0  0
 45 46  2  0  0  0
 45113  1  0  0  0
 46114  1  0  0  0
 47115  1  0  0  0
 47116  1  0  0  0
 48 56  1  0  0  0
 48 65  1  0  0  0
 48117  1  0  0  0
 49 50  1  0  0  0
 49 53  1  0  0  0
 49 64  1  0  0  0
 49118  1  0  0  0
 50 51  1  0  0  0
 50119  1  0  0  0
 50120  1  0  0  0
 51 52  1  0  0  0
 51121  1  0  0  0
 51122  1  0  0  0
 52123  1  0  0  0
 52124  1  0  0  0
 53 54  1  0  0  0
 54 55  2  0  0  0
 54125  1  0  0  0
 55 57  1  0  0  0
 55126  1  0  0  0
 56 69  2  0  0  0
 57 58  2  0  0  0
 57127  1  0  0  0
 58128  1  0  0  0
 59 60  1  0  0  0
 59 61  1  0  0  0
 59 62  1  0  0  0
 60129  1  0  0  0
 60130  1  0  0  0
 60131  1  0  0  0
 61132  1  0  0  0
 61133  1  0  0  0
 61134  1  0  0  0
 62135  1  0  0  0
 62136  1  0  0  0
 62137  1  0  0  0
 63 65  1  0  0  0
 63138  1  0  0  0
 63139  1  0  0  0
 63140  1  0  0  0
 64141  1  0  0  0
 65142  1  0  0  0
 68 81  1  0  0  0
 71 72  1  0  0  0
 71 75  1  0  0  0
 71 82  2  0  0  0
 72 77  1  0  0  0
 72 83  2  0  0  0
 73 74  2  0  0  0
 73 78  1  0  0  0
 73 82  1  0  0  0
 74 80  1  0  0  0
 74 83  1  0  0  0
 75 76  1  0  0  0
 75143  1  0  0  0
 75144  1  0  0  0
 76 77  1  0  0  0
 76145  1  0  0  0
 76146  1  0  0  0
 77 79  1  0  0  0
 78147  1  0  0  0
 78148  1  0  0  0
 78149  1  0  0  0
 79150  1  0  0  0
 79151  1  0  0  0
 79152  1  0  0  0
 80 81  1  0  0  0
 80153  1  0  0  0
 80154  1  0  0  0
 81155  1  0  0  0
 81156  1  0  0  0
M  ISO  4   1 100  68 101  77 100  81 101
M  END
> <chiral flag>
0

> <version>
0

> <s_m_source_file>
/data/baiqing/PycharmProjects/Reinvent-master-3.2/result/LINK_invent/BTK/process_docking_weight1_custom_sum_contain_oxygen_bond_distance_aromatic_linkinvent_7_9_3/rearranged_h_0178.sdf

> <i_m_source_file_index>
51

> <r_mmod_Potential_Energy-OPLS-2005>
1657.97229003906

> <r_mmod_Stretch_Energy-OPLS-2005>
658.659729003906

> <r_mmod_Bend_Energy-OPLS-2005>
576.8984375

> <r_mmod_Torsional_Energy-OPLS-2005>
248.47184753418

> <r_mmod_Improper_Torsional_Energy-OPLS-2005>
30.8796367645264

> <r_mmod_Van_der_Waal_Energy-OPLS-2005>
146.844940185547

> <r_mmod_Electrostatic_Energy-OPLS-2005>
-271.416412353516

> <r_mmod_Solvation_Energy-OPLS-2005>
-215.751266479492

> <b_mmod_Minimization_Converged-OPLS-2005>
0

> <r_mmod_RMS_Derivative-OPLS-2005>
4.78837299346924

$$$$
52
                    3D
 Structure written by MMmdl.
163172  0  0  1  0            999 V2000
  -30.5179  -15.0137   20.3358 C   0  0  0  0  0  0
  -30.4477  -12.6150   19.5019 C   0  0  0  0  0  0
  -29.5236  -12.5056   18.2645 C   0  0  0  0  0  0
  -28.0665  -12.2427   18.6925 C   0  0  0  0  0  0
  -27.6172  -13.1931   19.8255 C   0  0  2  0  0  0
  -28.6648  -13.3253   20.9527 C   0  0  0  0  0  0
  -25.2538  -13.8039   20.5798 C   0  0  0  0  0  0
  -24.1771  -13.0358   20.9248 C   0  0  0  0  0  0
  -24.6310  -11.6818   20.8782 C   0  0  0  0  0  0
  -23.8987  -10.4238   21.0437 C   0  0  0  0  0  0
  -24.3561   -9.4164   21.9206 C   0  0  0  0  0  0
  -23.6253   -8.2195   22.0757 C   0  0  0  0  0  0
  -22.4239   -8.0242   21.3539 C   0  0  0  0  0  0
  -21.9863   -9.0213   20.4645 C   0  0  0  0  0  0
  -22.7174  -10.2097   20.3071 C   0  0  0  0  0  0
  -21.6835   -6.0713   22.5280 C   0  0  0  0  0  0
  -21.4000   -6.5624   23.8212 C   0  0  0  0  0  0
  -21.3658   -5.6783   24.9177 C   0  0  0  0  0  0
  -21.6044   -4.3045   24.7232 C   0  0  0  0  0  0
  -21.8823   -3.8132   23.4354 C   0  0  0  0  0  0
  -21.9187   -4.6944   22.3406 C   0  0  0  0  0  0
  -22.7815  -13.5204   21.1893 C   0  0  0  0  0  0
  -22.1657   -4.2129   21.0986 F   0  0  0  0  0  0
  -21.5635   -3.4535   25.7748 F   0  0  0  0  0  0
  -29.9436  -13.7333   20.3506 N   0  0  0  0  0  0
  -26.2840  -12.9120   20.3272 N   0  0  0  0  0  0
  -25.9216  -11.6322   20.5774 N   0  0  0  0  0  0
  -22.0438  -12.8212   22.0441 N   0  0  0  0  0  0
  -25.4410  -15.1751   20.4366 N   0  0  0  0  0  0
  -31.7501  -15.0511   20.2193 O   0  0  0  0  0  0
  -21.6611   -6.8840   21.4234 O   0  0  0  0  0  0
  -22.3533  -14.5518   20.6733 O   0  0  0  0  0  0
  -24.6422  -31.8437   23.1880 C   0  0  0  0  0  0
  -25.9194  -32.4693   23.8273 C   0  0  1  0  0  0
  -27.2317  -27.1400   20.1464 C   0  0  0  0  0  0
  -25.5943  -33.8503   24.2185 N   0  0  0  0  0  0
  -23.4468  -30.4615   21.5324 C   0  0  2  0  0  0
  -24.8994  -28.8901   20.1078 C   0  0  0  0  0  0
  -22.7566  -29.4536   22.4852 C   0  0  0  0  0  0
  -18.0302  -28.1392   22.8470 C   0  0  0  0  0  0
  -24.1493  -36.7260   23.2643 C   0  0  0  0  0  0
  -26.0019  -30.7176   21.3882 C   0  0  0  0  0  0
  -26.0736  -29.3291   20.7298 C   0  0  0  0  0  0
  -27.2336  -28.4685   20.7369 C   0  0  0  0  0  0
  -26.0282  -26.8047   19.4811 C   0  0  0  0  0  0
  -24.8899  -27.6410   19.4702 C   0  0  0  0  0  0
  -23.6739  -29.7898   20.1516 C   0  0  0  0  0  0
  -25.4125  -36.3035   24.0313 C   0  0  1  0  0  0
  -20.5916  -28.3716   23.1232 C   0  0  2  0  0  0
  -20.6786  -26.9417   22.5406 C   0  0  0  0  0  0
  -19.5765  -26.6375   21.5210 C   0  0  0  0  0  0
  -18.1944  -26.7929   22.1618 C   0  0  0  0  0  0
  -19.1561  -28.8874   23.2842 C   0  0  0  0  0  0
  -18.9480  -30.1467   23.8870 C   0  0  0  0  0  0
  -17.6477  -30.6587   24.0557 C   0  0  0  0  0  0
  -25.9074  -34.9407   23.5060 C   0  0  0  0  0  0
  -16.5366  -29.9081   23.6339 C   0  0  0  0  0  0
  -16.7289  -28.6501   23.0353 C   0  0  0  0  0  0
  -26.4519  -31.6567   25.0719 C   0  0  0  0  0  0
  -25.3702  -31.3754   26.1412 C   0  0  0  0  0  0
  -27.0389  -30.2966   24.6305 C   0  0  0  0  0  0
  -27.6046  -32.4340   25.7502 C   0  0  0  0  0  0
  -27.5578  -37.1781   24.8462 C   0  0  0  0  0  0
  -21.4259  -29.3042   22.3606 N   0  0  0  0  0  0
  -26.4287  -37.3748   23.9409 N   0  0  0  0  0  0
  -24.7163  -31.0288   22.0915 N   0  0  0  0  0  0
  -23.4209  -28.8086   23.3004 O   0  0  0  0  0  0
  -28.3131  -26.1869   20.2589 O   0  0  0  0  0  0
  -26.5666  -34.8902   22.4642 O   0  0  0  0  0  0
  -23.5539  -32.1317   23.7097 O   0  0  0  0  0  0
  -29.9670  -17.8237   20.3891 C   0  0  0  0  0  0
  -29.1879  -18.9883   19.8552 C   0  0  0  0  0  0
  -28.1775  -18.5609   18.9378 C   0  0  0  0  0  0
  -29.6716  -16.3854   20.0937 C   0  0  0  0  0  0
  -27.9190  -17.1850   18.7289 C   0  0  0  0  0  0
  -30.1650  -21.2896   21.1966 C   0  0  0  0  0  0
  -30.0593  -22.8668   21.0006 C   0  0  0  0  0  0
  -28.3254  -21.8324   19.8061 C   0  0  0  0  0  0
  -29.4461  -20.6398   19.9967 C   0  0  2  0  0  0
  -28.6114  -23.2554   20.5611 C   0  0  1  0  0  0
  -27.4043  -19.5578   18.0752 C   0  0  0  0  0  0
  -26.8306  -16.6952   17.7845 C   0  0  0  0  0  0
  -27.7184  -23.3257   21.8144 C   0  0  0  0  0  0
  -28.3310  -24.7142   19.7475 C   0  0  0  0  0  0
  -28.6208  -16.1881   19.2831 N   0  0  0  0  0  0
  -31.4756  -12.7861   19.1787 H   0  0  0  0  0  0
  -30.4607  -11.6803   20.0642 H   0  0  0  0  0  0
  -29.8678  -11.7096   17.6029 H   0  0  0  0  0  0
  -29.5742  -13.4302   17.6870 H   0  0  0  0  0  0
  -28.0005  -11.2090   19.0340 H   0  0  0  0  0  0
  -27.3960  -12.3248   17.8362 H   0  0  0  0  0  0
  -27.5128  -14.1337   19.3174 H   0  0  0  0  0  0
  -28.7738  -12.3883   21.5005 H   0  0  0  0  0  0
  -28.3432  -14.0754   21.6772 H   0  0  0  0  0  0
  -25.2706   -9.5645   22.4780 H   0  0  0  0  0  0
  -23.9965   -7.4583   22.7473 H   0  0  0  0  0  0
  -21.0795   -8.8724   19.8950 H   0  0  0  0  0  0
  -22.3636  -10.9641   19.6186 H   0  0  0  0  0  0
  -21.1987   -7.6132   23.9704 H   0  0  0  0  0  0
  -21.1480   -6.0518   25.9077 H   0  0  0  0  0  0
  -22.0606   -2.7595   23.2864 H   0  0  0  0  0  0
  -22.4037  -11.9865   22.4828 H   0  0  0  0  0  0
  -21.1067  -13.1264   22.2654 H   0  0  0  0  0  0
  -24.7044  -15.8534   20.5924 H   0  0  0  0  0  0
  -26.3313  -15.5911   20.1820 H   0  0  0  0  0  0
  -26.7250  -32.5298   23.0994 H   0  0  0  0  0  0
  -25.0064  -33.9621   25.0315 H   0  0  0  0  0  0
  -22.7493  -31.2873   21.3765 H   0  0  0  0  0  0
  -23.3760  -35.9586   23.3291 H   0  0  0  0  0  0
  -24.3581  -36.8914   22.2061 H   0  0  0  0  0  0
  -23.7241  -37.6447   23.6696 H   0  0  0  0  0  0
  -26.1574  -31.4727   20.6161 H   0  0  0  0  0  0
  -26.8721  -30.7672   22.0313 H   0  0  0  0  0  0
  -28.1246  -28.7989   21.2522 H   0  0  0  0  0  0
  -25.9084  -25.8591   18.9799 H   0  0  0  0  0  0
  -23.9939  -27.2998   18.9702 H   0  0  0  0  0  0
  -23.8073  -30.5641   19.3950 H   0  0  0  0  0  0
  -22.7905  -29.2284   19.8424 H   0  0  0  0  0  0
  -25.1309  -36.1862   25.0804 H   0  0  0  0  0  0
  -21.0005  -28.3305   24.1356 H   0  0  0  0  0  0
  -20.5678  -26.2327   23.3625 H   0  0  0  0  0  0
  -21.6650  -26.7424   22.1203 H   0  0  0  0  0  0
  -19.6933  -25.6281   21.1253 H   0  0  0  0  0  0
  -19.6708  -27.3174   20.6731 H   0  0  0  0  0  0
  -17.4213  -26.6673   21.4018 H   0  0  0  0  0  0
  -18.0341  -26.0079   22.9023 H   0  0  0  0  0  0
  -19.7957  -30.7285   24.2232 H   0  0  0  0  0  0
  -17.5033  -31.6268   24.5157 H   0  0  0  0  0  0
  -15.5366  -30.2972   23.7683 H   0  0  0  0  0  0
  -15.8689  -28.0813   22.7083 H   0  0  0  0  0  0
  -24.5896  -30.7088   25.7732 H   0  0  0  0  0  0
  -24.8870  -32.2927   26.4782 H   0  0  0  0  0  0
  -25.7977  -30.8969   27.0231 H   0  0  0  0  0  0
  -26.3010  -29.6681   24.1304 H   0  0  0  0  0  0
  -27.3993  -29.7276   25.4885 H   0  0  0  0  0  0
  -27.8918  -30.4210   23.9630 H   0  0  0  0  0  0
  -27.2647  -33.3671   26.2009 H   0  0  0  0  0  0
  -28.3888  -32.6851   25.0347 H   0  0  0  0  0  0
  -28.0677  -31.8513   26.5477 H   0  0  0  0  0  0
  -28.2568  -38.0102   24.7522 H   0  0  0  0  0  0
  -28.1095  -36.2626   24.6266 H   0  0  0  0  0  0
  -27.2294  -37.1400   25.8864 H   0  0  0  0  0  0
  -20.9471  -29.8765   21.6792 H   0  0  0  0  0  0
  -26.0153  -38.2811   24.1427 H   0  0  0  0  0  0
  -30.8378  -18.0330   20.9953 H   0  0  0  0  0  0
  -29.6697  -20.9922   22.1211 H   0  0  0  0  0  0
  -31.2019  -20.9600   21.2698 H   0  0  0  0  0  0
  -30.7546  -23.1667   20.2153 H   0  0  0  0  0  0
  -30.3676  -23.4031   21.8991 H   0  0  0  0  0  0
  -27.3639  -21.4622   20.1601 H   0  0  0  0  0  0
  -28.1945  -22.0583   18.7499 H   0  0  0  0  0  0
  -30.1378  -20.8004   19.1684 H   0  0  0  0  0  0
  -26.6330  -20.0675   18.6497 H   0  0  0  0  0  0
  -26.8997  -19.1150   17.2205 H   0  0  0  0  0  0
  -28.0874  -20.2730   17.6223 H   0  0  0  0  0  0
  -27.0887  -16.9259   16.7511 H   0  0  0  0  0  0
  -25.8739  -17.1612   18.0225 H   0  0  0  0  0  0
  -26.6863  -15.6169   17.8394 H   0  0  0  0  0  0
  -27.7960  -22.4298   22.4309 H   0  0  0  0  0  0
  -26.6689  -23.4438   21.5419 H   0  0  0  0  0  0
  -27.9872  -24.1784   22.4391 H   0  0  0  0  0  0
  -27.4049  -24.5305   19.2150 H   0  0  0  0  0  0
  -29.0674  -24.7367   18.9440 H   0  0  0  0  0  0
  1 25  1  0  0  0
  1 30  2  0  0  0
  1 74  1  0  0  0
  2  3  1  0  0  0
  2 25  1  0  0  0
  2 86  1  0  0  0
  2 87  1  0  0  0
  3  4  1  0  0  0
  3 88  1  0  0  0
  3 89  1  0  0  0
  4  5  1  0  0  0
  4 90  1  0  0  0
  4 91  1  0  0  0
  5  6  1  0  0  0
  5 26  1  0  0  0
  5 92  1  0  0  0
  6 25  1  0  0  0
  6 93  1  0  0  0
  6 94  1  0  0  0
  7  8  2  0  0  0
  7 26  1  0  0  0
  7 29  1  0  0  0
  8  9  1  0  0  0
  8 22  1  0  0  0
  9 10  1  0  0  0
  9 27  2  0  0  0
 10 11  2  0  0  0
 10 15  1  0  0  0
 11 12  1  0  0  0
 11 95  1  0  0  0
 12 13  2  0  0  0
 12 96  1  0  0  0
 13 14  1  0  0  0
 13 31  1  0  0  0
 14 15  2  0  0  0
 14 97  1  0  0  0
 15 98  1  0  0  0
 16 17  2  0  0  0
 16 21  1  0  0  0
 16 31  1  0  0  0
 17 18  1  0  0  0
 17 99  1  0  0  0
 18 19  2  0  0  0
 18100  1  0  0  0
 19 20  1  0  0  0
 19 24  1  0  0  0
 20 21  2  0  0  0
 20101  1  0  0  0
 21 23  1  0  0  0
 22 28  1  0  0  0
 22 32  2  0  0  0
 26 27  1  0  0  0
 28102  1  0  0  0
 28103  1  0  0  0
 29104  1  0  0  0
 29105  1  0  0  0
 33 34  1  0  0  0
 33 66  1  0  0  0
 33 70  2  0  0  0
 34 36  1  0  0  0
 34 59  1  0  0  0
 34106  1  0  0  0
 35 44  2  0  0  0
 35 45  1  0  0  0
 35 68  1  0  0  0
 36 56  1  0  0  0
 36107  1  0  0  0
 37 39  1  0  0  0
 37 47  1  0  0  0
 37 66  1  0  0  0
 37108  1  0  0  0
 38 43  2  0  0  0
 38 46  1  0  0  0
 38 47  1  0  0  0
 39 64  1  0  0  0
 39 67  2  0  0  0
 40 52  1  0  0  0
 40 53  2  0  0  0
 40 58  1  0  0  0
 41109  1  0  0  0
 41110  1  0  0  0
 41111  1  0  0  0
 41 48  1  0  0  0
 42 43  1  0  0  0
 42 66  1  0  0  0
 42112  1  0  0  0
 42113  1  0  0  0
 43 44  1  0  0  0
 44114  1  0  0  0
 45 46  2  0  0  0
 45115  1  0  0  0
 46116  1  0  0  0
 47117  1  0  0  0
 47118  1  0  0  0
 48 56  1  0  0  0
 48 65  1  0  0  0
 48119  1  0  0  0
 49 50  1  0  0  0
 49 53  1  0  0  0
 49 64  1  0  0  0
 49120  1  0  0  0
 50 51  1  0  0  0
 50121  1  0  0  0
 50122  1  0  0  0
 51 52  1  0  0  0
 51123  1  0  0  0
 51124  1  0  0  0
 52125  1  0  0  0
 52126  1  0  0  0
 53 54  1  0  0  0
 54 55  2  0  0  0
 54127  1  0  0  0
 55 57  1  0  0  0
 55128  1  0  0  0
 56 69  2  0  0  0
 57 58  2  0  0  0
 57129  1  0  0  0
 58130  1  0  0  0
 59 60  1  0  0  0
 59 61  1  0  0  0
 59 62  1  0  0  0
 60131  1  0  0  0
 60132  1  0  0  0
 60133  1  0  0  0
 61134  1  0  0  0
 61135  1  0  0  0
 61136  1  0  0  0
 62137  1  0  0  0
 62138  1  0  0  0
 62139  1  0  0  0
 63 65  1  0  0  0
 63140  1  0  0  0
 63141  1  0  0  0
 63142  1  0  0  0
 64143  1  0  0  0
 65144  1  0  0  0
 68 84  1  0  0  0
 71 72  2  0  0  0
 71 74  1  0  0  0
 71145  1  0  0  0
 72 73  1  0  0  0
 72 79  1  0  0  0
 73 75  2  0  0  0
 73 81  1  0  0  0
 74 85  2  0  0  0
 75 82  1  0  0  0
 75 85  1  0  0  0
 76 77  1  0  0  0
 76 79  1  0  0  0
 76146  1  0  0  0
 76147  1  0  0  0
 77 80  1  0  0  0
 77148  1  0  0  0
 77149  1  0  0  0
 78 79  1  0  0  0
 78 80  1  0  0  0
 78150  1  0  0  0
 78151  1  0  0  0
 79152  1  0  0  0
 80 83  1  0  0  0
 80 84  1  0  0  0
 81153  1  0  0  0
 81154  1  0  0  0
 81155  1  0  0  0
 82156  1  0  0  0
 82157  1  0  0  0
 82158  1  0  0  0
 83159  1  0  0  0
 83160  1  0  0  0
 83161  1  0  0  0
 84162  1  0  0  0
 84163  1  0  0  0
M  ISO  4   1 100  68 101  74 100  84 101
M  END
> <chiral flag>
0

> <version>
0

> <s_m_source_file>
/data/baiqing/PycharmProjects/Reinvent-master-3.2/result/LINK_invent/BTK/process_docking_weight1_custom_sum_contain_oxygen_bond_distance_aromatic_linkinvent_7_9_3/rearranged_h_0178.sdf

> <i_m_source_file_index>
52

> <r_mmod_Potential_Energy-OPLS-2005>
662.643371582031

> <r_mmod_Stretch_Energy-OPLS-2005>
270.871612548828

> <r_mmod_Bend_Energy-OPLS-2005>
332.513946533203

> <r_mmod_Torsional_Energy-OPLS-2005>
273.196990966797

> <r_mmod_Improper_Torsional_Energy-OPLS-2005>
10.5147666931152

> <r_mmod_Van_der_Waal_Energy-OPLS-2005>
148.096496582031

> <r_mmod_Electrostatic_Energy-OPLS-2005>
-409.930908203125

> <r_mmod_Solvation_Energy-OPLS-2005>
-183.701385498047

> <b_mmod_Minimization_Converged-OPLS-2005>
0

> <r_mmod_RMS_Derivative-OPLS-2005>
0.691158473491669

$$$$
53
                    3D
 Structure written by MMmdl.
156165  0  0  1  0            999 V2000
  -30.4041  -15.3354   20.3691 C   0  0  0  0  0  0
  -30.4351  -12.8608   19.5218 C   0  0  0  0  0  0
  -29.5347  -12.5878   18.2894 C   0  0  0  0  0  0
  -28.0892  -12.2908   18.7239 C   0  0  0  0  0  0
  -27.6041  -13.2757   19.8155 C   0  0  2  0  0  0
  -28.6349  -13.4821   20.9450 C   0  0  0  0  0  0
  -25.2353  -13.8235   20.5729 C   0  0  0  0  0  0
  -24.1719  -13.0427   20.9273 C   0  0  0  0  0  0
  -24.6378  -11.6923   20.8766 C   0  0  0  0  0  0
  -23.9066  -10.4292   21.0407 C   0  0  0  0  0  0
  -24.3623   -9.4204   21.9174 C   0  0  0  0  0  0
  -23.6304   -8.2236   22.0743 C   0  0  0  0  0  0
  -22.4289   -8.0266   21.3534 C   0  0  0  0  0  0
  -21.9918   -9.0235   20.4638 C   0  0  0  0  0  0
  -22.7242  -10.2120   20.3047 C   0  0  0  0  0  0
  -21.6857   -6.0734   22.5278 C   0  0  0  0  0  0
  -21.4014   -6.5637   23.8211 C   0  0  0  0  0  0
  -21.3666   -5.6787   24.9174 C   0  0  0  0  0  0
  -21.6047   -4.3050   24.7224 C   0  0  0  0  0  0
  -21.8818   -3.8144   23.4346 C   0  0  0  0  0  0
  -21.9189   -4.6960   22.3403 C   0  0  0  0  0  0
  -22.7738  -13.5176   21.1924 C   0  0  0  0  0  0
  -22.1653   -4.2144   21.0981 F   0  0  0  0  0  0
  -21.5631   -3.4537   25.7741 F   0  0  0  0  0  0
  -29.8510  -14.0153   20.3063 N   0  0  0  0  0  0
  -26.2777  -12.9507   20.3189 N   0  0  0  0  0  0
  -25.9315  -11.6615   20.5705 N   0  0  0  0  0  0
  -22.0393  -12.8163   22.0479 N   0  0  0  0  0  0
  -25.3976  -15.1971   20.4128 N   0  0  0  0  0  0
  -31.6370  -15.3069   20.2058 O   0  0  0  0  0  0
  -21.6641   -6.8875   21.4241 O   0  0  0  0  0  0
  -22.3417  -14.5471   20.6751 O   0  0  0  0  0  0
  -24.6674  -31.8181   23.1656 C   0  0  0  0  0  0
  -25.9336  -32.4556   23.8136 C   0  0  1  0  0  0
  -27.2151  -26.8806   20.2063 C   0  0  0  0  0  0
  -25.5981  -33.8368   24.2040 N   0  0  0  0  0  0
  -23.4841  -30.4274   21.5171 C   0  0  2  0  0  0
  -24.9354  -28.7998   20.1208 C   0  0  0  0  0  0
  -22.7687  -29.4409   22.4778 C   0  0  0  0  0  0
  -18.0327  -28.1417   22.8469 C   0  0  0  0  0  0
  -24.1495  -36.7198   23.2646 C   0  0  0  0  0  0
  -26.0548  -30.6122   21.4002 C   0  0  0  0  0  0
  -26.1215  -29.1943   20.7531 C   0  0  0  0  0  0
  -27.2573  -28.2597   20.7607 C   0  0  0  0  0  0
  -25.9972  -26.6429   19.5312 C   0  0  0  0  0  0
  -24.9010  -27.5463   19.4881 C   0  0  0  0  0  0
  -23.7261  -29.7359   20.1470 C   0  0  0  0  0  0
  -25.4137  -36.2947   24.0292 C   0  0  1  0  0  0
  -20.5954  -28.3757   23.1187 C   0  0  2  0  0  0
  -20.6802  -26.9432   22.5407 C   0  0  0  0  0  0
  -19.5773  -26.6381   21.5219 C   0  0  0  0  0  0
  -18.1957  -26.7952   22.1625 C   0  0  0  0  0  0
  -19.1588  -28.8910   23.2815 C   0  0  0  0  0  0
  -18.9497  -30.1505   23.8840 C   0  0  0  0  0  0
  -17.6486  -30.6599   24.0559 C   0  0  0  0  0  0
  -25.9103  -34.9330   23.4992 C   0  0  0  0  0  0
  -16.5378  -29.9085   23.6347 C   0  0  0  0  0  0
  -16.7308  -28.6513   23.0355 C   0  0  0  0  0  0
  -26.4574  -31.6524   25.0689 C   0  0  0  0  0  0
  -25.3687  -31.3784   26.1336 C   0  0  0  0  0  0
  -27.0480  -30.2889   24.6450 C   0  0  0  0  0  0
  -27.6053  -32.4348   25.7495 C   0  0  0  0  0  0
  -27.5568  -37.1754   24.8464 C   0  0  0  0  0  0
  -21.4352  -29.3033   22.3528 N   0  0  0  0  0  0
  -26.4276  -37.3690   23.9409 N   0  0  0  0  0  0
  -24.7574  -30.9810   22.0814 N   0  0  0  0  0  0
  -23.4216  -28.7983   23.3036 O   0  0  0  0  0  0
  -28.2370  -25.7799   20.2100 O   0  0  0  0  0  0
  -26.5716  -34.8878   22.4589 O   0  0  0  0  0  0
  -23.5737  -32.1153   23.6740 O   0  0  0  0  0  0
  -28.9589  -19.4789   20.1885 C   0  0  0  0  0  0
  -29.3097  -20.9831   20.3621 C   0  0  0  0  0  0
  -30.6417  -21.0511   20.7836 C   0  0  0  0  0  0
  -31.4421  -19.9134   21.0873 C   0  0  0  0  0  0
  -29.8455  -18.2307   20.4869 C   0  0  0  0  0  0
  -31.1794  -22.4574   20.6519 C   0  0  0  0  0  0
  -30.2766  -23.1244   19.5956 C   0  0  0  0  0  0
  -28.8326  -22.6108   19.8227 C   0  0  2  0  0  0
  -32.8855  -20.0888   21.5204 C   0  0  0  0  0  0
  -28.0862  -22.4113   18.4959 C   0  0  0  0  0  0
  -28.0992  -24.1363   20.5203 C   0  0  0  0  0  0
  -31.0552  -18.6129   20.9629 N   0  0  0  0  0  0
  -29.6185  -16.6176   20.3670 N   0  0  0  0  0  0
  -31.4488  -13.0802   19.1828 H   0  0  0  0  0  0
  -30.5232  -11.9688   20.1450 H   0  0  0  0  0  0
  -29.9314  -11.7571   17.7051 H   0  0  0  0  0  0
  -29.5441  -13.4592   17.6329 H   0  0  0  0  0  0
  -28.0652  -11.2737   19.1166 H   0  0  0  0  0  0
  -27.4195  -12.3021   17.8633 H   0  0  0  0  0  0
  -27.5076  -14.2305   19.2981 H   0  0  0  0  0  0
  -28.8226  -12.5559   21.4897 H   0  0  0  0  0  0
  -28.2596  -14.2026   21.6738 H   0  0  0  0  0  0
  -25.2760   -9.5686   22.4755 H   0  0  0  0  0  0
  -24.0005   -7.4628   22.7463 H   0  0  0  0  0  0
  -21.0847   -8.8757   19.8954 H   0  0  0  0  0  0
  -22.3685  -10.9654   19.6160 H   0  0  0  0  0  0
  -21.2005   -7.6145   23.9720 H   0  0  0  0  0  0
  -21.1487   -6.0516   25.9080 H   0  0  0  0  0  0
  -22.0594   -2.7604   23.2852 H   0  0  0  0  0  0
  -22.4023  -11.9840   22.4891 H   0  0  0  0  0  0
  -21.0996  -13.1160   22.2667 H   0  0  0  0  0  0
  -24.6205  -15.8408   20.5136 H   0  0  0  0  0  0
  -26.2237  -15.6349   20.0283 H   0  0  0  0  0  0
  -26.7401  -32.5092   23.0844 H   0  0  0  0  0  0
  -25.0080  -33.9421   25.0159 H   0  0  0  0  0  0
  -22.8006  -31.2606   21.3419 H   0  0  0  0  0  0
  -23.3767  -35.9518   23.3271 H   0  0  0  0  0  0
  -24.3568  -36.8887   22.2067 H   0  0  0  0  0  0
  -23.7242  -37.6369   23.6733 H   0  0  0  0  0  0
  -26.2359  -31.3476   20.6152 H   0  0  0  0  0  0
  -26.9130  -30.6743   22.0571 H   0  0  0  0  0  0
  -28.1618  -28.5687   21.2647 H   0  0  0  0  0  0
  -25.8716  -25.6880   19.0404 H   0  0  0  0  0  0
  -24.0020  -27.2394   18.9715 H   0  0  0  0  0  0
  -23.8894  -30.4988   19.3854 H   0  0  0  0  0  0
  -22.8351  -29.1927   19.8277 H   0  0  0  0  0  0
  -25.1342  -36.1730   25.0782 H   0  0  0  0  0  0
  -21.0038  -28.3365   24.1312 H   0  0  0  0  0  0
  -20.5689  -26.2365   23.3650 H   0  0  0  0  0  0
  -21.6664  -26.7411   22.1204 H   0  0  0  0  0  0
  -19.6924  -25.6278   21.1278 H   0  0  0  0  0  0
  -19.6716  -27.3165   20.6731 H   0  0  0  0  0  0
  -17.4228  -26.6696   21.4028 H   0  0  0  0  0  0
  -18.0348  -26.0112   22.9037 H   0  0  0  0  0  0
  -19.7968  -30.7349   24.2170 H   0  0  0  0  0  0
  -17.5030  -31.6266   24.5180 H   0  0  0  0  0  0
  -15.5373  -30.2962   23.7706 H   0  0  0  0  0  0
  -15.8714  -28.0817   22.7084 H   0  0  0  0  0  0
  -24.5892  -30.7109   25.7643 H   0  0  0  0  0  0
  -24.8851  -32.2987   26.4621 H   0  0  0  0  0  0
  -25.7905  -30.9043   27.0208 H   0  0  0  0  0  0
  -26.3151  -29.6551   24.1441 H   0  0  0  0  0  0
  -27.3985  -29.7273   25.5122 H   0  0  0  0  0  0
  -27.9105  -30.4070   23.9887 H   0  0  0  0  0  0
  -27.2610  -33.3704   26.1915 H   0  0  0  0  0  0
  -28.3938  -32.6812   25.0373 H   0  0  0  0  0  0
  -28.0635  -31.8578   26.5539 H   0  0  0  0  0  0
  -28.2562  -38.0072   24.7515 H   0  0  0  0  0  0
  -28.1087  -36.2595   24.6292 H   0  0  0  0  0  0
  -27.2282  -37.1397   25.8866 H   0  0  0  0  0  0
  -20.9622  -29.8707   21.6632 H   0  0  0  0  0  0
  -26.0121  -38.2746   24.1425 H   0  0  0  0  0  0
  -27.9909  -19.2711   19.7527 H   0  0  0  0  0  0
  -32.2258  -22.4785   20.3444 H   0  0  0  0  0  0
  -31.0983  -22.9668   21.6132 H   0  0  0  0  0  0
  -30.6217  -22.7845   18.6176 H   0  0  0  0  0  0
  -30.3772  -24.2098   19.5846 H   0  0  0  0  0  0
  -33.5063  -20.3633   20.6673 H   0  0  0  0  0  0
  -33.2943  -19.1732   21.9493 H   0  0  0  0  0  0
  -32.9659  -20.8713   22.2741 H   0  0  0  0  0  0
  -27.9213  -23.3607   17.9851 H   0  0  0  0  0  0
  -27.1116  -21.9549   18.6730 H   0  0  0  0  0  0
  -28.6349  -21.7575   17.8189 H   0  0  0  0  0  0
  -28.4198  -24.0997   21.5619 H   0  0  0  0  0  0
  -27.0274  -23.9483   20.5843 H   0  0  0  0  0  0
  -28.6380  -16.3999   20.2959 H   0  0  0  0  0  0
  1 25  1  0  0  0
  1 30  2  0  0  0
  1 83  1  0  0  0
  2  3  1  0  0  0
  2 25  1  0  0  0
  2 84  1  0  0  0
  2 85  1  0  0  0
  3  4  1  0  0  0
  3 86  1  0  0  0
  3 87  1  0  0  0
  4  5  1  0  0  0
  4 88  1  0  0  0
  4 89  1  0  0  0
  5  6  1  0  0  0
  5 26  1  0  0  0
  5 90  1  0  0  0
  6 25  1  0  0  0
  6 91  1  0  0  0
  6 92  1  0  0  0
  7  8  2  0  0  0
  7 26  1  0  0  0
  7 29  1  0  0  0
  8  9  1  0  0  0
  8 22  1  0  0  0
  9 10  1  0  0  0
  9 27  2  0  0  0
 10 11  2  0  0  0
 10 15  1  0  0  0
 11 12  1  0  0  0
 11 93  1  0  0  0
 12 13  2  0  0  0
 12 94  1  0  0  0
 13 14  1  0  0  0
 13 31  1  0  0  0
 14 15  2  0  0  0
 14 95  1  0  0  0
 15 96  1  0  0  0
 16 17  2  0  0  0
 16 21  1  0  0  0
 16 31  1  0  0  0
 17 18  1  0  0  0
 17 97  1  0  0  0
 18 19  2  0  0  0
 18 98  1  0  0  0
 19 20  1  0  0  0
 19 24  1  0  0  0
 20 21  2  0  0  0
 20 99  1  0  0  0
 21 23  1  0  0  0
 22 28  1  0  0  0
 22 32  2  0  0  0
 26 27  1  0  0  0
 28100  1  0  0  0
 28101  1  0  0  0
 29102  1  0  0  0
 29103  1  0  0  0
 33 34  1  0  0  0
 33 66  1  0  0  0
 33 70  2  0  0  0
 34 36  1  0  0  0
 34 59  1  0  0  0
 34104  1  0  0  0
 35 44  2  0  0  0
 35 45  1  0  0  0
 35 68  1  0  0  0
 36 56  1  0  0  0
 36105  1  0  0  0
 37 39  1  0  0  0
 37 47  1  0  0  0
 37 66  1  0  0  0
 37106  1  0  0  0
 38 43  2  0  0  0
 38 46  1  0  0  0
 38 47  1  0  0  0
 39 64  1  0  0  0
 39 67  2  0  0  0
 40 52  1  0  0  0
 40 53  2  0  0  0
 40 58  1  0  0  0
 41107  1  0  0  0
 41108  1  0  0  0
 41109  1  0  0  0
 41 48  1  0  0  0
 42 43  1  0  0  0
 42 66  1  0  0  0
 42110  1  0  0  0
 42111  1  0  0  0
 43 44  1  0  0  0
 44112  1  0  0  0
 45 46  2  0  0  0
 45113  1  0  0  0
 46114  1  0  0  0
 47115  1  0  0  0
 47116  1  0  0  0
 48 56  1  0  0  0
 48 65  1  0  0  0
 48117  1  0  0  0
 49 50  1  0  0  0
 49 53  1  0  0  0
 49 64  1  0  0  0
 49118  1  0  0  0
 50 51  1  0  0  0
 50119  1  0  0  0
 50120  1  0  0  0
 51 52  1  0  0  0
 51121  1  0  0  0
 51122  1  0  0  0
 52123  1  0  0  0
 52124  1  0  0  0
 53 54  1  0  0  0
 54 55  2  0  0  0
 54125  1  0  0  0
 55 57  1  0  0  0
 55126  1  0  0  0
 56 69  2  0  0  0
 57 58  2  0  0  0
 57127  1  0  0  0
 58128  1  0  0  0
 59 60  1  0  0  0
 59 61  1  0  0  0
 59 62  1  0  0  0
 60129  1  0  0  0
 60130  1  0  0  0
 60131  1  0  0  0
 61132  1  0  0  0
 61133  1  0  0  0
 61134  1  0  0  0
 62135  1  0  0  0
 62136  1  0  0  0
 62137  1  0  0  0
 63 65  1  0  0  0
 63138  1  0  0  0
 63139  1  0  0  0
 63140  1  0  0  0
 64141  1  0  0  0
 65142  1  0  0  0
 68 81  1  0  0  0
 71 72  2  0  0  0
 71 75  1  0  0  0
 71143  1  0  0  0
 72 73  1  0  0  0
 72 78  1  0  0  0
 73 74  2  0  0  0
 73 76  1  0  0  0
 74 79  1  0  0  0
 74 82  1  0  0  0
 75 82  2  0  0  0
 75 83  1  0  0  0
 76 77  1  0  0  0
 76144  1  0  0  0
 76145  1  0  0  0
 77 78  1  0  0  0
 77146  1  0  0  0
 77147  1  0  0  0
 78 80  1  0  0  0
 78 81  1  0  0  0
 79148  1  0  0  0
 79149  1  0  0  0
 79150  1  0  0  0
 80151  1  0  0  0
 80152  1  0  0  0
 80153  1  0  0  0
 81154  1  0  0  0
 81155  1  0  0  0
 83156  1  0  0  0
M  ISO  4   1 100  68 101  81 101  83 100
M  END
> <chiral flag>
0

> <version>
0

> <s_m_source_file>
/data/baiqing/PycharmProjects/Reinvent-master-3.2/result/LINK_invent/BTK/process_docking_weight1_custom_sum_contain_oxygen_bond_distance_aromatic_linkinvent_7_9_3/rearranged_h_0178.sdf

> <i_m_source_file_index>
53

> <r_mmod_Potential_Energy-OPLS-2005>
1360.83142089844

> <r_mmod_Stretch_Energy-OPLS-2005>
656.638061523438

> <r_mmod_Bend_Energy-OPLS-2005>
540.753967285156

> <r_mmod_Torsional_Energy-OPLS-2005>
254.41943359375

> <r_mmod_Improper_Torsional_Energy-OPLS-2005>
11.9708776473999

> <r_mmod_Van_der_Waal_Energy-OPLS-2005>
124.251365661621

> <r_mmod_Electrostatic_Energy-OPLS-2005>
-514.004638671875

> <r_mmod_Solvation_Energy-OPLS-2005>
-237.83984375

> <b_mmod_Minimization_Converged-OPLS-2005>
0

> <r_mmod_RMS_Derivative-OPLS-2005>
1.53757679462433

$$$$
54
                    3D
 Structure written by MMmdl.
158167  0  0  1  0            999 V2000
  -30.6533  -14.8845   20.4315 C   0  0  0  0  0  0
  -30.4162  -12.5613   19.4798 C   0  0  0  0  0  0
  -29.5013  -12.5162   18.2403 C   0  0  0  0  0  0
  -28.0388  -12.3024   18.6661 C   0  0  0  0  0  0
  -27.6196  -13.2371   19.8307 C   0  0  2  0  0  0
  -28.6707  -13.3180   20.9614 C   0  0  0  0  0  0
  -25.2456  -13.8171   20.5769 C   0  0  0  0  0  0
  -24.1764  -13.0410   20.9271 C   0  0  0  0  0  0
  -24.6376  -11.6895   20.8801 C   0  0  0  0  0  0
  -23.9077  -10.4275   21.0430 C   0  0  0  0  0  0
  -24.3619   -9.4184   21.9207 C   0  0  0  0  0  0
  -23.6284   -8.2228   22.0766 C   0  0  0  0  0  0
  -22.4276   -8.0278   21.3539 C   0  0  0  0  0  0
  -21.9924   -9.0262   20.4645 C   0  0  0  0  0  0
  -22.7254  -10.2140   20.3065 C   0  0  0  0  0  0
  -21.6855   -6.0741   22.5281 C   0  0  0  0  0  0
  -21.4009   -6.5644   23.8218 C   0  0  0  0  0  0
  -21.3658   -5.6800   24.9188 C   0  0  0  0  0  0
  -21.6052   -4.3068   24.7241 C   0  0  0  0  0  0
  -21.8824   -3.8159   23.4365 C   0  0  0  0  0  0
  -21.9187   -4.6969   22.3413 C   0  0  0  0  0  0
  -22.7783  -13.5204   21.1884 C   0  0  0  0  0  0
  -22.1652   -4.2157   21.0990 F   0  0  0  0  0  0
  -21.5625   -3.4547   25.7750 F   0  0  0  0  0  0
  -29.9502  -13.6872   20.3405 N   0  0  0  0  0  0
  -26.2852  -12.9371   20.3284 N   0  0  0  0  0  0
  -25.9313  -11.6524   20.5818 N   0  0  0  0  0  0
  -22.0409  -12.8214   22.0431 N   0  0  0  0  0  0
  -25.4137  -15.1902   20.4198 N   0  0  0  0  0  0
  -31.8671  -14.8210   20.2121 O   0  0  0  0  0  0
  -21.6634   -6.8881   21.4241 O   0  0  0  0  0  0
  -22.3488  -14.5515   20.6725 O   0  0  0  0  0  0
  -24.6387  -31.8469   23.1951 C   0  0  0  0  0  0
  -25.9183  -32.4722   23.8315 C   0  0  1  0  0  0
  -27.2182  -27.1982   20.1515 C   0  0  0  0  0  0
  -25.5949  -33.8532   24.2225 N   0  0  0  0  0  0
  -23.4383  -30.4713   21.5359 C   0  0  2  0  0  0
  -24.8868  -28.9025   20.1141 C   0  0  0  0  0  0
  -22.7516  -29.4597   22.4869 C   0  0  0  0  0  0
  -18.0286  -28.1410   22.8504 C   0  0  0  0  0  0
  -24.1475  -36.7252   23.2649 C   0  0  0  0  0  0
  -25.9886  -30.7430   21.3826 C   0  0  0  0  0  0
  -26.0622  -29.3590   20.7276 C   0  0  0  0  0  0
  -27.2340  -28.5228   20.7282 C   0  0  0  0  0  0
  -26.0213  -26.8276   19.5027 C   0  0  0  0  0  0
  -24.8739  -27.6472   19.4895 C   0  0  0  0  0  0
  -23.6624  -29.7994   20.1549 C   0  0  0  0  0  0
  -25.4115  -36.3056   24.0330 C   0  0  1  0  0  0
  -20.5890  -28.3739   23.1244 C   0  0  2  0  0  0
  -20.6786  -26.9443   22.5415 C   0  0  0  0  0  0
  -19.5740  -26.6401   21.5231 C   0  0  0  0  0  0
  -18.1917  -26.7960   22.1633 C   0  0  0  0  0  0
  -19.1542  -28.8891   23.2868 C   0  0  0  0  0  0
  -18.9470  -30.1491   23.8900 C   0  0  0  0  0  0
  -17.6468  -30.6619   24.0574 C   0  0  0  0  0  0
  -25.9055  -34.9430   23.5083 C   0  0  0  0  0  0
  -16.5370  -29.9106   23.6351 C   0  0  0  0  0  0
  -16.7273  -28.6517   23.0395 C   0  0  0  0  0  0
  -26.4531  -31.6595   25.0736 C   0  0  0  0  0  0
  -25.3748  -31.3763   26.1452 C   0  0  0  0  0  0
  -27.0434  -30.3020   24.6291 C   0  0  0  0  0  0
  -27.6042  -32.4378   25.7516 C   0  0  0  0  0  0
  -27.5565  -37.1779   24.8461 C   0  0  0  0  0  0
  -21.4209  -29.3082   22.3624 N   0  0  0  0  0  0
  -26.4266  -37.3778   23.9431 N   0  0  0  0  0  0
  -24.7079  -31.0404   22.0936 N   0  0  0  0  0  0
  -23.4160  -28.8122   23.3004 O   0  0  0  0  0  0
  -28.2826  -26.2481   20.1680 O   0  0  0  0  0  0
  -26.5614  -34.8902   22.4642 O   0  0  0  0  0  0
  -23.5533  -32.1318   23.7225 O   0  0  0  0  0  0
  -28.6619  -22.1341   20.7161 C   0  0  0  0  0  0
  -29.2895  -20.9788   20.0855 C   0  0  0  0  0  0
  -28.7259  -23.4735   20.1272 C   0  0  0  0  0  0
  -29.9390  -22.4806   18.4265 C   0  0  0  0  0  0
  -28.6644  -18.2898   19.7564 C   0  0  0  0  0  0
  -30.7701  -18.7807   20.7866 C   0  0  0  0  0  0
  -28.7658  -16.7429   20.2245 C   0  0  0  0  0  0
  -30.8538  -17.2804   21.3412 C   0  0  0  0  0  0
  -29.3520  -19.4255   20.6096 C   0  0  0  0  0  0
  -30.6468  -22.6899   17.1020 C   0  0  0  0  0  0
  -28.0084  -24.8263   20.6760 C   0  0  0  0  0  0
  -29.9122  -21.2322   18.9124 N   0  0  0  0  0  0
  -29.3965  -23.5771   18.9622 N   0  0  0  0  0  0
  -30.0816  -16.1694   20.6701 N   0  0  0  0  0  0
  -31.4531  -12.6742   19.1568 H   0  0  0  0  0  0
  -30.3843  -11.6179   20.0263 H   0  0  0  0  0  0
  -29.8155  -11.7206   17.5648 H   0  0  0  0  0  0
  -29.5939  -13.4479   17.6796 H   0  0  0  0  0  0
  -27.9299  -11.2590   18.9660 H   0  0  0  0  0  0
  -27.3734  -12.4407   17.8127 H   0  0  0  0  0  0
  -27.5533  -14.2183   19.3754 H   0  0  0  0  0  0
  -28.7537  -12.3727   21.5003 H   0  0  0  0  0  0
  -28.3786  -14.0726   21.6938 H   0  0  0  0  0  0
  -25.2754   -9.5642   22.4809 H   0  0  0  0  0  0
  -23.9985   -7.4619   22.7498 H   0  0  0  0  0  0
  -21.0871   -8.8794   19.8945 H   0  0  0  0  0  0
  -22.3727  -10.9701   19.6189 H   0  0  0  0  0  0
  -21.1996   -7.6149   23.9730 H   0  0  0  0  0  0
  -21.1461   -6.0525   25.9090 H   0  0  0  0  0  0
  -22.0602   -2.7616   23.2871 H   0  0  0  0  0  0
  -22.3996  -11.9868   22.4836 H   0  0  0  0  0  0
  -21.1014  -13.1234   22.2586 H   0  0  0  0  0  0
  -24.6515  -15.8467   20.5464 H   0  0  0  0  0  0
  -26.2696  -15.6300   20.1103 H   0  0  0  0  0  0
  -26.7250  -32.5347   23.1053 H   0  0  0  0  0  0
  -25.0163  -33.9680   25.0419 H   0  0  0  0  0  0
  -22.7407  -31.2968   21.3825 H   0  0  0  0  0  0
  -23.3752  -35.9556   23.3283 H   0  0  0  0  0  0
  -24.3553  -36.8911   22.2058 H   0  0  0  0  0  0
  -23.7188  -37.6433   23.6699 H   0  0  0  0  0  0
  -26.1365  -31.4983   20.6091 H   0  0  0  0  0  0
  -26.8645  -30.7938   22.0196 H   0  0  0  0  0  0
  -28.1339  -28.8689   21.2185 H   0  0  0  0  0  0
  -25.9572  -25.8679   19.0083 H   0  0  0  0  0  0
  -23.9751  -27.2920   19.0042 H   0  0  0  0  0  0
  -23.7944  -30.5722   19.3962 H   0  0  0  0  0  0
  -22.7781  -29.2383   19.8467 H   0  0  0  0  0  0
  -25.1305  -36.1911   25.0824 H   0  0  0  0  0  0
  -20.9995  -28.3363   24.1357 H   0  0  0  0  0  0
  -20.5719  -26.2357   23.3650 H   0  0  0  0  0  0
  -21.6649  -26.7496   22.1175 H   0  0  0  0  0  0
  -19.6908  -25.6311   21.1258 H   0  0  0  0  0  0
  -19.6667  -27.3209   20.6750 H   0  0  0  0  0  0
  -17.4203  -26.6756   21.4018 H   0  0  0  0  0  0
  -18.0272  -26.0102   22.9007 H   0  0  0  0  0  0
  -19.7952  -30.7304   24.2261 H   0  0  0  0  0  0
  -17.5022  -31.6295   24.5179 H   0  0  0  0  0  0
  -15.5374  -30.3016   23.7660 H   0  0  0  0  0  0
  -15.8669  -28.0816   22.7143 H   0  0  0  0  0  0
  -24.5906  -30.7127   25.7791 H   0  0  0  0  0  0
  -24.8960  -32.2941   26.4881 H   0  0  0  0  0  0
  -25.8052  -30.8947   27.0240 H   0  0  0  0  0  0
  -26.3085  -29.6701   24.1283 H   0  0  0  0  0  0
  -27.4084  -29.7354   25.4874 H   0  0  0  0  0  0
  -27.8948  -30.4324   23.9598 H   0  0  0  0  0  0
  -27.2625  -33.3696   26.2038 H   0  0  0  0  0  0
  -28.3871  -32.6917   25.0354 H   0  0  0  0  0  0
  -28.0680  -31.8546   26.5493 H   0  0  0  0  0  0
  -28.2577  -38.0082   24.7560 H   0  0  0  0  0  0
  -28.1077  -36.2627   24.6254 H   0  0  0  0  0  0
  -27.2276  -37.1372   25.8856 H   0  0  0  0  0  0
  -20.9398  -29.8773   21.6800 H   0  0  0  0  0  0
  -26.0131  -38.2834   24.1484 H   0  0  0  0  0  0
  -28.1276  -21.9934   21.6473 H   0  0  0  0  0  0
  -27.6113  -18.5455   19.6420 H   0  0  0  0  0  0
  -29.0736  -18.3542   18.7478 H   0  0  0  0  0  0
  -31.2876  -18.8142   19.8261 H   0  0  0  0  0  0
  -31.3527  -19.4267   21.4444 H   0  0  0  0  0  0
  -28.4102  -16.1491   19.3861 H   0  0  0  0  0  0
  -28.0576  -16.5792   21.0397 H   0  0  0  0  0  0
  -30.5239  -17.2910   22.3817 H   0  0  0  0  0  0
  -31.9127  -17.0197   21.3980 H   0  0  0  0  0  0
  -28.8778  -19.4331   21.5937 H   0  0  0  0  0  0
  -31.2554  -21.8285   16.8274 H   0  0  0  0  0  0
  -31.3047  -23.5594   17.1468 H   0  0  0  0  0  0
  -29.9206  -22.8595   16.3053 H   0  0  0  0  0  0
  -28.2345  -24.8646   21.7411 H   0  0  0  0  0  0
  -26.9390  -24.6269   20.6424 H   0  0  0  0  0  0
  1 25  1  0  0  0
  1 30  2  0  0  0
  1 84  1  0  0  0
  2  3  1  0  0  0
  2 25  1  0  0  0
  2 85  1  0  0  0
  2 86  1  0  0  0
  3  4  1  0  0  0
  3 87  1  0  0  0
  3 88  1  0  0  0
  4  5  1  0  0  0
  4 89  1  0  0  0
  4 90  1  0  0  0
  5  6  1  0  0  0
  5 26  1  0  0  0
  5 91  1  0  0  0
  6 25  1  0  0  0
  6 92  1  0  0  0
  6 93  1  0  0  0
  7  8  2  0  0  0
  7 26  1  0  0  0
  7 29  1  0  0  0
  8  9  1  0  0  0
  8 22  1  0  0  0
  9 10  1  0  0  0
  9 27  2  0  0  0
 10 11  2  0  0  0
 10 15  1  0  0  0
 11 12  1  0  0  0
 11 94  1  0  0  0
 12 13  2  0  0  0
 12 95  1  0  0  0
 13 14  1  0  0  0
 13 31  1  0  0  0
 14 15  2  0  0  0
 14 96  1  0  0  0
 15 97  1  0  0  0
 16 17  2  0  0  0
 16 21  1  0  0  0
 16 31  1  0  0  0
 17 18  1  0  0  0
 17 98  1  0  0  0
 18 19  2  0  0  0
 18 99  1  0  0  0
 19 20  1  0  0  0
 19 24  1  0  0  0
 20 21  2  0  0  0
 20100  1  0  0  0
 21 23  1  0  0  0
 22 28  1  0  0  0
 22 32  2  0  0  0
 26 27  1  0  0  0
 28101  1  0  0  0
 28102  1  0  0  0
 29103  1  0  0  0
 29104  1  0  0  0
 33 34  1  0  0  0
 33 66  1  0  0  0
 33 70  2  0  0  0
 34 36  1  0  0  0
 34 59  1  0  0  0
 34105  1  0  0  0
 35 44  2  0  0  0
 35 45  1  0  0  0
 35 68  1  0  0  0
 36 56  1  0  0  0
 36106  1  0  0  0
 37 39  1  0  0  0
 37 47  1  0  0  0
 37 66  1  0  0  0
 37107  1  0  0  0
 38 43  2  0  0  0
 38 46  1  0  0  0
 38 47  1  0  0  0
 39 64  1  0  0  0
 39 67  2  0  0  0
 40 52  1  0  0  0
 40 53  2  0  0  0
 40 58  1  0  0  0
 41108  1  0  0  0
 41109  1  0  0  0
 41110  1  0  0  0
 41 48  1  0  0  0
 42 43  1  0  0  0
 42 66  1  0  0  0
 42111  1  0  0  0
 42112  1  0  0  0
 43 44  1  0  0  0
 44113  1  0  0  0
 45 46  2  0  0  0
 45114  1  0  0  0
 46115  1  0  0  0
 47116  1  0  0  0
 47117  1  0  0  0
 48 56  1  0  0  0
 48 65  1  0  0  0
 48118  1  0  0  0
 49 50  1  0  0  0
 49 53  1  0  0  0
 49 64  1  0  0  0
 49119  1  0  0  0
 50 51  1  0  0  0
 50120  1  0  0  0
 50121  1  0  0  0
 51 52  1  0  0  0
 51122  1  0  0  0
 51123  1  0  0  0
 52124  1  0  0  0
 52125  1  0  0  0
 53 54  1  0  0  0
 54 55  2  0  0  0
 54126  1  0  0  0
 55 57  1  0  0  0
 55127  1  0  0  0
 56 69  2  0  0  0
 57 58  2  0  0  0
 57128  1  0  0  0
 58129  1  0  0  0
 59 60  1  0  0  0
 59 61  1  0  0  0
 59 62  1  0  0  0
 60130  1  0  0  0
 60131  1  0  0  0
 60132  1  0  0  0
 61133  1  0  0  0
 61134  1  0  0  0
 61135  1  0  0  0
 62136  1  0  0  0
 62137  1  0  0  0
 62138  1  0  0  0
 63 65  1  0  0  0
 63139  1  0  0  0
 63140  1  0  0  0
 63141  1  0  0  0
 64142  1  0  0  0
 65143  1  0  0  0
 68 81  1  0  0  0
 71 72  2  0  0  0
 71 73  1  0  0  0
 71144  1  0  0  0
 72 82  1  0  0  0
 72 79  1  0  0  0
 73 81  1  0  0  0
 73 83  2  0  0  0
 74 80  1  0  0  0
 74 82  2  0  0  0
 74 83  1  0  0  0
 75 77  1  0  0  0
 75 79  1  0  0  0
 75145  1  0  0  0
 75146  1  0  0  0
 76 78  1  0  0  0
 76 79  1  0  0  0
 76147  1  0  0  0
 76148  1  0  0  0
 77 84  1  0  0  0
 77149  1  0  0  0
 77150  1  0  0  0
 78 84  1  0  0  0
 78151  1  0  0  0
 78152  1  0  0  0
 79153  1  0  0  0
 80154  1  0  0  0
 80155  1  0  0  0
 80156  1  0  0  0
 81157  1  0  0  0
 81158  1  0  0  0
M  ISO  4   1 100  68 101  81 101  84 100
M  END
> <chiral flag>
0

> <version>
0

> <s_m_source_file>
/data/baiqing/PycharmProjects/Reinvent-master-3.2/result/LINK_invent/BTK/process_docking_weight1_custom_sum_contain_oxygen_bond_distance_aromatic_linkinvent_7_9_3/rearranged_h_0178.sdf

> <i_m_source_file_index>
54

> <r_mmod_Potential_Energy-OPLS-2005>
115.771751403809

> <r_mmod_Stretch_Energy-OPLS-2005>
175.868698120117

> <r_mmod_Bend_Energy-OPLS-2005>
238.230895996094

> <r_mmod_Torsional_Energy-OPLS-2005>
317.930297851562

> <r_mmod_Improper_Torsional_Energy-OPLS-2005>
1.98975110054016

> <r_mmod_Van_der_Waal_Energy-OPLS-2005>
141.840484619141

> <r_mmod_Electrostatic_Energy-OPLS-2005>
-675.895263671875

> <r_mmod_Solvation_Energy-OPLS-2005>
-235.108795166016

> <b_mmod_Minimization_Converged-OPLS-2005>
0

> <r_mmod_RMS_Derivative-OPLS-2005>
3.01099562644958

$$$$
55
                    3D
 Structure written by MMmdl.
165174  0  0  1  0            999 V2000
  -30.4776  -14.3148   20.9616 C   0  0  0  0  0  0
  -30.6319  -12.3930   19.2898 C   0  0  0  0  0  0
  -29.6796  -12.5416   18.0463 C   0  0  0  0  0  0
  -28.1537  -12.5518   18.3379 C   0  0  0  0  0  0
  -27.9690  -13.4078   19.5777 C   0  0  2  0  0  0
  -28.7904  -12.6146   20.6301 C   0  0  0  0  0  0
  -25.0023  -14.5639   19.7890 C   0  0  0  0  0  0
  -23.9889  -13.8128   21.0254 C   0  0  0  0  0  0
  -24.7186  -12.3873   21.7120 C   0  0  0  0  0  0
  -24.0171  -10.8913   21.5028 C   0  0  0  0  0  0
  -24.4323   -9.6985   22.1884 C   0  0  0  0  0  0
  -23.7464   -8.4312   22.1614 C   0  0  0  0  0  0
  -22.5699   -8.2141   21.4037 C   0  0  0  0  0  0
  -22.2147   -9.2983   20.5633 C   0  0  0  0  0  0
  -22.9223  -10.5575   20.5934 C   0  0  0  0  0  0
  -21.7608   -6.1608   22.5044 C   0  0  0  0  0  0
  -21.4579   -6.6174   23.8081 C   0  0  0  0  0  0
  -21.3799   -5.7166   24.8942 C   0  0  0  0  0  0
  -21.5983   -4.3401   24.6917 C   0  0  0  0  0  0
  -21.8702   -3.8666   23.3972 C   0  0  0  0  0  0
  -21.9412   -4.7638   22.3131 C   0  0  0  0  0  0
  -22.5448  -13.9260   21.1755 C   0  0  0  0  0  0
  -22.1767   -4.2706   21.0743 F   0  0  0  0  0  0
  -21.5504   -3.4774   25.7350 F   0  0  0  0  0  0
  -30.1067  -13.1051   20.4744 N   0  0  0  0  0  0
  -26.6611  -13.5298   19.9976 N   0  0  0  0  0  0
  -26.2733  -12.3579   21.2478 N   0  0  0  0  0  0
  -21.9223  -13.0945   22.0124 N   0  0  0  0  0  0
  -24.9581  -15.6943   19.1165 N   0  0  0  0  0  0
  -31.4775  -14.8691   20.4588 O   0  0  0  0  0  0
  -21.8201   -7.0304   21.4153 O   0  0  0  0  0  0
  -21.9691  -14.7767   20.5309 O   0  0  0  0  0  0
  -24.7033  -31.7682   23.1400 C   0  0  0  0  0  0
  -25.9543  -32.4287   23.7988 C   0  0  1  0  0  0
  -26.7143  -26.1845   20.4531 C   0  0  0  0  0  0
  -25.6056  -33.8155   24.1823 N   0  0  0  0  0  0
  -23.5250  -30.3858   21.4961 C   0  0  2  0  0  0
  -24.9114  -28.6606   20.1055 C   0  0  0  0  0  0
  -22.7772  -29.4195   22.4557 C   0  0  0  0  0  0
  -18.0335  -28.1433   22.8448 C   0  0  0  0  0  0
  -24.1485  -36.7101   23.2647 C   0  0  0  0  0  0
  -26.1002  -30.3192   21.4872 C   0  0  0  0  0  0
  -26.0692  -28.8396   20.8652 C   0  0  0  0  0  0
  -26.9682  -27.6213   21.0096 C   0  0  0  0  0  0
  -25.6827  -26.3580   19.5050 C   0  0  0  0  0  0
  -24.8044  -27.4723   19.3745 C   0  0  0  0  0  0
  -23.7873  -29.7110   20.1152 C   0  0  0  0  0  0
  -25.4147  -36.2814   24.0258 C   0  0  1  0  0  0
  -20.5966  -28.3801   23.1089 C   0  0  2  0  0  0
  -20.6788  -26.9444   22.5387 C   0  0  0  0  0  0
  -19.5762  -26.6362   21.5209 C   0  0  0  0  0  0
  -18.1955  -26.7953   22.1619 C   0  0  0  0  0  0
  -19.1604  -28.8942   23.2752 C   0  0  0  0  0  0
  -18.9506  -30.1521   23.8809 C   0  0  0  0  0  0
  -17.6491  -30.6604   24.0554 C   0  0  0  0  0  0
  -25.9170  -34.9208   23.4897 C   0  0  0  0  0  0
  -16.5382  -29.9089   23.6355 C   0  0  0  0  0  0
  -16.7315  -28.6517   23.0367 C   0  0  0  0  0  0
  -26.4643  -31.6486   25.0744 C   0  0  0  0  0  0
  -25.3626  -31.3915   26.1303 C   0  0  0  0  0  0
  -27.0651  -30.2794   24.6936 C   0  0  0  0  0  0
  -27.6039  -32.4425   25.7556 C   0  0  0  0  0  0
  -27.5565  -37.1694   24.8440 C   0  0  0  0  0  0
  -21.4403  -29.3014   22.3356 N   0  0  0  0  0  0
  -26.4234  -37.3622   23.9434 N   0  0  0  0  0  0
  -24.8084  -30.8752   22.0897 N   0  0  0  0  0  0
  -23.4151  -28.7767   23.2949 O   0  0  0  0  0  0
  -27.2005  -24.6371   20.6984 O   0  0  0  0  0  0
  -26.5814  -34.8832   22.4520 O   0  0  0  0  0  0
  -23.6029  -32.1012   23.6163 O   0  0  0  0  0  0
  -26.6502  -19.8050   22.2159 C   0  0  0  0  0  0
  -26.5846  -18.1999   22.3816 C   0  0  0  0  0  0
  -26.4115  -20.7919   21.0638 C   0  0  0  0  0  0
  -26.0450  -16.9661   21.5632 C   0  0  0  0  0  0
  -25.8533  -19.5435   20.2984 C   0  0  0  0  0  0
  -27.0835  -14.7921   24.3996 C   0  0  0  0  0  0
  -28.6351  -14.9603   24.3844 C   0  0  0  0  0  0
  -27.0503  -14.3118   22.9353 C   0  0  2  0  0  0
  -28.6886  -14.3006   22.9903 C   0  0  2  0  0  0
  -26.9472  -20.6144   23.4784 C   0  0  0  0  0  0
  -27.3874  -17.7965   23.5709 C   0  0  0  0  0  0
  -25.1668  -19.9495   19.0048 C   0  0  0  0  0  0
  -26.3729  -22.8609   20.7665 C   0  0  0  0  0  0
  -26.0011  -14.7928   21.7201 C   0  0  0  0  0  0
  -25.7276  -18.0056   20.5153 N   0  0  0  0  0  0
  -29.6238  -14.8981   21.9155 N   0  0  0  0  0  0
  -31.6355  -12.7352   19.0363 H   0  0  0  0  0  0
  -30.7647  -11.3351   19.5263 H   0  0  0  0  0  0
  -29.9145  -11.7834   17.2958 H   0  0  0  0  0  0
  -29.9290  -13.4915   17.5755 H   0  0  0  0  0  0
  -27.7811  -11.5353   18.4805 H   0  0  0  0  0  0
  -27.6090  -12.9690   17.4911 H   0  0  0  0  0  0
  -28.3233  -14.4219   19.3908 H   0  0  0  0  0  0
  -28.4990  -12.4765   21.6388 H   0  0  0  0  0  0
  -28.7575  -11.5420   20.4115 H   0  0  0  0  0  0
  -25.2866   -9.7835   22.8451 H   0  0  0  0  0  0
  -24.1253   -7.6287   22.7796 H   0  0  0  0  0  0
  -21.3641   -9.1948   19.9037 H   0  0  0  0  0  0
  -22.5473  -11.3380   19.9499 H   0  0  0  0  0  0
  -21.2932   -7.6712   23.9776 H   0  0  0  0  0  0
  -21.1571   -6.0851   25.8851 H   0  0  0  0  0  0
  -22.0211   -2.8091   23.2337 H   0  0  0  0  0  0
  -22.4254  -12.3902   22.5314 H   0  0  0  0  0  0
  -20.9195  -13.1612   22.1223 H   0  0  0  0  0  0
  -24.1635  -16.2953   19.3036 H   0  0  0  0  0  0
  -25.7963  -16.2538   18.9847 H   0  0  0  0  0  0
  -26.7583  -32.4598   23.0637 H   0  0  0  0  0  0
  -25.0123  -33.9172   24.9931 H   0  0  0  0  0  0
  -22.8724  -31.2419   21.3158 H   0  0  0  0  0  0
  -23.3801  -35.9365   23.3152 H   0  0  0  0  0  0
  -24.3564  -36.8944   22.2095 H   0  0  0  0  0  0
  -23.7171  -37.6198   23.6844 H   0  0  0  0  0  0
  -26.3555  -30.9896   20.6666 H   0  0  0  0  0  0
  -26.9522  -30.3909   22.1496 H   0  0  0  0  0  0
  -27.7713  -27.7043   21.7304 H   0  0  0  0  0  0
  -25.3871  -25.4791   18.9498 H   0  0  0  0  0  0
  -23.9556  -27.3565   18.7147 H   0  0  0  0  0  0
  -24.0491  -30.4803   19.3855 H   0  0  0  0  0  0
  -22.8673  -29.2551   19.7428 H   0  0  0  0  0  0
  -25.1342  -36.1539   25.0738 H   0  0  0  0  0  0
  -21.0060  -28.3446   24.1211 H   0  0  0  0  0  0
  -20.5662  -26.2420   23.3660 H   0  0  0  0  0  0
  -21.6648  -26.7368   22.1203 H   0  0  0  0  0  0
  -19.6905  -25.6249   21.1309 H   0  0  0  0  0  0
  -19.6707  -27.3115   20.6698 H   0  0  0  0  0  0
  -17.4218  -26.6692   21.4037 H   0  0  0  0  0  0
  -18.0340  -26.0128   22.9047 H   0  0  0  0  0  0
  -19.7988  -30.7356   24.2147 H   0  0  0  0  0  0
  -17.5051  -31.6281   24.5168 H   0  0  0  0  0  0
  -15.5392  -30.2963   23.7725 H   0  0  0  0  0  0
  -15.8717  -28.0810   22.7118 H   0  0  0  0  0  0
  -24.5804  -30.7284   25.7588 H   0  0  0  0  0  0
  -24.8834  -32.3182   26.4469 H   0  0  0  0  0  0
  -25.7709  -30.9222   27.0265 H   0  0  0  0  0  0
  -26.3414  -29.6241   24.2088 H   0  0  0  0  0  0
  -27.4073  -29.7436   25.5807 H   0  0  0  0  0  0
  -27.9405  -30.3852   24.0526 H   0  0  0  0  0  0
  -27.2548  -33.3814   26.1865 H   0  0  0  0  0  0
  -28.3986  -32.6855   25.0489 H   0  0  0  0  0  0
  -28.0573  -31.8763   26.5703 H   0  0  0  0  0  0
  -28.2440  -38.0128   24.7638 H   0  0  0  0  0  0
  -28.1207  -36.2664   24.6064 H   0  0  0  0  0  0
  -27.2315  -37.1071   25.8841 H   0  0  0  0  0  0
  -20.9692  -29.8766   21.6496 H   0  0  0  0  0  0
  -26.0032  -38.2631   24.1552 H   0  0  0  0  0  0
  -26.4656  -15.6534   24.6116 H   0  0  0  0  0  0
  -26.7979  -14.0056   25.0995 H   0  0  0  0  0  0
  -29.1086  -14.3622   25.1654 H   0  0  0  0  0  0
  -29.0341  -15.9679   24.4866 H   0  0  0  0  0  0
  -26.7964  -13.2951   23.2204 H   0  0  0  0  0  0
  -29.0593  -13.3192   23.3008 H   0  0  0  0  0  0
  -27.9981  -20.8962   23.4896 H   0  0  0  0  0  0
  -26.6870  -20.1069   24.4055 H   0  0  0  0  0  0
  -26.3569  -21.5321   23.5102 H   0  0  0  0  0  0
  -28.2165  -18.4624   23.7994 H   0  0  0  0  0  0
  -27.8453  -16.8999   23.1967 H   0  0  0  0  0  0
  -26.7897  -17.6751   24.4714 H   0  0  0  0  0  0
  -25.3638  -20.9934   18.7789 H   0  0  0  0  0  0
  -24.0830  -19.8515   19.0803 H   0  0  0  0  0  0
  -25.5083  -19.3752   18.1463 H   0  0  0  0  0  0
  -25.5698  -23.1055   21.4632 H   0  0  0  0  0  0
  -25.9021  -22.8951   19.7849 H   0  0  0  0  0  0
  -26.8909  -15.2524   21.2564 H   0  0  0  0  0  0
  -25.0459  -12.7822   19.9257 H   0  0  0  0  0  0
  -29.8604  -15.8633   22.0952 H   0  0  0  0  0  0
  1 25  1  0  0  0
  1 30  2  0  0  0
  1 86  1  0  0  0
  2  3  1  0  0  0
  2 25  1  0  0  0
  2 87  1  0  0  0
  2 88  1  0  0  0
  3  4  1  0  0  0
  3 89  1  0  0  0
  3 90  1  0  0  0
  4  5  1  0  0  0
  4 91  1  0  0  0
  4 92  1  0  0  0
  5  6  1  0  0  0
  5 26  1  0  0  0
  5 93  1  0  0  0
  6 25  1  0  0  0
  6 94  1  0  0  0
  6 95  1  0  0  0
  7  8  2  0  0  0
  7 26  1  0  0  0
  7 29  1  0  0  0
  8  9  1  0  0  0
  8 22  1  0  0  0
  9 10  1  0  0  0
  9 27  2  0  0  0
 10 11  2  0  0  0
 10 15  1  0  0  0
 11 12  1  0  0  0
 11 96  1  0  0  0
 12 13  2  0  0  0
 12 97  1  0  0  0
 13 14  1  0  0  0
 13 31  1  0  0  0
 14 15  2  0  0  0
 14 98  1  0  0  0
 15 99  1  0  0  0
 16 17  2  0  0  0
 16 21  1  0  0  0
 16 31  1  0  0  0
 17 18  1  0  0  0
 17100  1  0  0  0
 18 19  2  0  0  0
 18101  1  0  0  0
 19 20  1  0  0  0
 19 24  1  0  0  0
 20 21  2  0  0  0
 20102  1  0  0  0
 21 23  1  0  0  0
 22 28  1  0  0  0
 22 32  2  0  0  0
 26 27  1  0  0  0
 28103  1  0  0  0
 28104  1  0  0  0
 29105  1  0  0  0
 29106  1  0  0  0
 33 34  1  0  0  0
 33 66  1  0  0  0
 33 70  2  0  0  0
 34 36  1  0  0  0
 34 59  1  0  0  0
 34107  1  0  0  0
 35 44  2  0  0  0
 35 45  1  0  0  0
 35 68  1  0  0  0
 36 56  1  0  0  0
 36108  1  0  0  0
 37 39  1  0  0  0
 37 47  1  0  0  0
 37 66  1  0  0  0
 37109  1  0  0  0
 38 43  2  0  0  0
 38 46  1  0  0  0
 38 47  1  0  0  0
 39 64  1  0  0  0
 39 67  2  0  0  0
 40 52  1  0  0  0
 40 53  2  0  0  0
 40 58  1  0  0  0
 41110  1  0  0  0
 41111  1  0  0  0
 41112  1  0  0  0
 41 48  1  0  0  0
 42 43  1  0  0  0
 42 66  1  0  0  0
 42113  1  0  0  0
 42114  1  0  0  0
 43 44  1  0  0  0
 44115  1  0  0  0
 45 46  2  0  0  0
 45116  1  0  0  0
 46117  1  0  0  0
 47118  1  0  0  0
 47119  1  0  0  0
 48 56  1  0  0  0
 48 65  1  0  0  0
 48120  1  0  0  0
 49 50  1  0  0  0
 49 53  1  0  0  0
 49 64  1  0  0  0
 49121  1  0  0  0
 50 51  1  0  0  0
 50122  1  0  0  0
 50123  1  0  0  0
 51 52  1  0  0  0
 51124  1  0  0  0
 51125  1  0  0  0
 52126  1  0  0  0
 52127  1  0  0  0
 53 54  1  0  0  0
 54 55  2  0  0  0
 54128  1  0  0  0
 55 57  1  0  0  0
 55129  1  0  0  0
 56 69  2  0  0  0
 57 58  2  0  0  0
 57130  1  0  0  0
 58131  1  0  0  0
 59 60  1  0  0  0
 59 61  1  0  0  0
 59 62  1  0  0  0
 60132  1  0  0  0
 60133  1  0  0  0
 60134  1  0  0  0
 61135  1  0  0  0
 61136  1  0  0  0
 61137  1  0  0  0
 62138  1  0  0  0
 62139  1  0  0  0
 62140  1  0  0  0
 63 65  1  0  0  0
 63141  1  0  0  0
 63142  1  0  0  0
 63143  1  0  0  0
 64144  1  0  0  0
 65145  1  0  0  0
 68 83  1  0  0  0
 71 72  2  0  0  0
 71 73  1  0  0  0
 71 80  1  0  0  0
 72 74  1  0  0  0
 72 81  1  0  0  0
 73 75  2  0  0  0
 73 83  1  0  0  0
 74 84  1  0  0  0
 74 85  2  0  0  0
 75 82  1  0  0  0
 75 85  1  0  0  0
 76 77  1  0  0  0
 76 78  1  0  0  0
 76146  1  0  0  0
 76147  1  0  0  0
 77 79  1  0  0  0
 77148  1  0  0  0
 77149  1  0  0  0
 78 79  1  0  0  0
 78 84  1  0  0  0
 78150  1  0  0  0
 79 86  1  0  0  0
 79151  1  0  0  0
 80152  1  0  0  0
 80153  1  0  0  0
 80154  1  0  0  0
 81155  1  0  0  0
 81156  1  0  0  0
 81157  1  0  0  0
 82158  1  0  0  0
 82159  1  0  0  0
 82160  1  0  0  0
 83161  1  0  0  0
 83162  1  0  0  0
 84163  1  0  0  0
 84164  1  0  0  0
 86165  1  0  0  0
M  ISO  4   1 100  68 101  83 101  86 100
M  END
> <chiral flag>
0

> <version>
0

> <s_m_source_file>
/data/baiqing/PycharmProjects/Reinvent-master-3.2/result/LINK_invent/BTK/process_docking_weight1_custom_sum_contain_oxygen_bond_distance_aromatic_linkinvent_7_9_3/rearranged_h_0178.sdf

> <i_m_source_file_index>
55

> <r_mmod_Potential_Energy-OPLS-2005>
14049.1689453125

> <r_mmod_Stretch_Energy-OPLS-2005>
8364.734375

> <r_mmod_Bend_Energy-OPLS-2005>
1385.48034667969

> <r_mmod_Torsional_Energy-OPLS-2005>
435.818328857422

> <r_mmod_Improper_Torsional_Energy-OPLS-2005>
41.8660736083984

> <r_mmod_Van_der_Waal_Energy-OPLS-2005>
2394.55908203125

> <r_mmod_Electrostatic_Energy-OPLS-2005>
-513.741638183594

> <r_mmod_Solvation_Energy-OPLS-2005>
-219.97639465332

> <b_mmod_Minimization_Converged-OPLS-2005>
0

> <r_mmod_RMS_Derivative-OPLS-2005>
10.9900512695312

$$$$
56
                    3D
 Structure written by MMmdl.
150159  0  0  1  0            999 V2000
  -30.4930  -15.0642   20.4077 C   0  0  0  0  0  0
  -30.4441  -12.6657   19.5142 C   0  0  0  0  0  0
  -29.5250  -12.5418   18.2736 C   0  0  0  0  0  0
  -28.0667  -12.2979   18.7006 C   0  0  0  0  0  0
  -27.6244  -13.2531   19.8383 C   0  0  2  0  0  0
  -28.6638  -13.3270   20.9768 C   0  0  0  0  0  0
  -25.2436  -13.8216   20.5717 C   0  0  0  0  0  0
  -24.1758  -13.0433   20.9234 C   0  0  0  0  0  0
  -24.6380  -11.6923   20.8758 C   0  0  0  0  0  0
  -23.9068  -10.4282   21.0406 C   0  0  0  0  0  0
  -24.3616   -9.4199   21.9184 C   0  0  0  0  0  0
  -23.6284   -8.2241   22.0760 C   0  0  0  0  0  0
  -22.4270   -8.0279   21.3545 C   0  0  0  0  0  0
  -21.9907   -9.0254   20.4649 C   0  0  0  0  0  0
  -22.7241  -10.2127   20.3057 C   0  0  0  0  0  0
  -21.6854   -6.0727   22.5275 C   0  0  0  0  0  0
  -21.4016   -6.5634   23.8206 C   0  0  0  0  0  0
  -21.3655   -5.6790   24.9170 C   0  0  0  0  0  0
  -21.6044   -4.3053   24.7227 C   0  0  0  0  0  0
  -21.8818   -3.8140   23.4348 C   0  0  0  0  0  0
  -21.9189   -4.6952   22.3401 C   0  0  0  0  0  0
  -22.7780  -13.5205   21.1883 C   0  0  0  0  0  0
  -22.1659   -4.2140   21.0980 F   0  0  0  0  0  0
  -21.5623   -3.4539   25.7738 F   0  0  0  0  0  0
  -29.9254  -13.7788   20.3736 N   0  0  0  0  0  0
  -26.2860  -12.9455   20.3260 N   0  0  0  0  0  0
  -25.9321  -11.6580   20.5761 N   0  0  0  0  0  0
  -22.0435  -12.8196   22.0442 N   0  0  0  0  0  0
  -25.4089  -15.1945   20.4117 N   0  0  0  0  0  0
  -31.6966  -15.1223   20.1281 O   0  0  0  0  0  0
  -21.6640   -6.8875   21.4239 O   0  0  0  0  0  0
  -22.3459  -14.5501   20.6716 O   0  0  0  0  0  0
  -24.6530  -31.8350   23.1832 C   0  0  0  0  0  0
  -25.9253  -32.4640   23.8235 C   0  0  1  0  0  0
  -27.2099  -27.0408   20.1645 C   0  0  0  0  0  0
  -25.5976  -33.8453   24.2165 N   0  0  0  0  0  0
  -23.4609  -30.4540   21.5291 C   0  0  2  0  0  0
  -24.9139  -28.8710   20.1057 C   0  0  0  0  0  0
  -22.7617  -29.4488   22.4803 C   0  0  0  0  0  0
  -18.0320  -28.1398   22.8465 C   0  0  0  0  0  0
  -24.1499  -36.7234   23.2652 C   0  0  0  0  0  0
  -26.0248  -30.6779   21.3992 C   0  0  0  0  0  0
  -26.0934  -29.2815   20.7390 C   0  0  0  0  0  0
  -27.2389  -28.3828   20.7552 C   0  0  0  0  0  0
  -26.0080  -26.7650   19.4729 C   0  0  0  0  0  0
  -24.8903  -27.6292   19.4554 C   0  0  0  0  0  0
  -23.6955  -29.7864   20.1476 C   0  0  0  0  0  0
  -25.4122  -36.3006   24.0335 C   0  0  1  0  0  0
  -20.5940  -28.3731   23.1217 C   0  0  2  0  0  0
  -20.6810  -26.9423   22.5413 C   0  0  0  0  0  0
  -19.5778  -26.6374   21.5231 C   0  0  0  0  0  0
  -18.1953  -26.7928   22.1625 C   0  0  0  0  0  0
  -19.1579  -28.8882   23.2830 C   0  0  0  0  0  0
  -18.9491  -30.1469   23.8866 C   0  0  0  0  0  0
  -17.6491  -30.6592   24.0546 C   0  0  0  0  0  0
  -25.9080  -34.9380   23.5063 C   0  0  0  0  0  0
  -16.5383  -29.9075   23.6342 C   0  0  0  0  0  0
  -16.7306  -28.6501   23.0351 C   0  0  0  0  0  0
  -26.4552  -31.6528   25.0703 C   0  0  0  0  0  0
  -25.3704  -31.3737   26.1375 C   0  0  0  0  0  0
  -27.0455  -30.2926   24.6331 C   0  0  0  0  0  0
  -27.6072  -32.4318   25.7475 C   0  0  0  0  0  0
  -27.5573  -37.1767   24.8468 C   0  0  0  0  0  0
  -21.4302  -29.3043   22.3565 N   0  0  0  0  0  0
  -26.4279  -37.3724   23.9432 N   0  0  0  0  0  0
  -24.7332  -31.0113   22.0919 N   0  0  0  0  0  0
  -23.4228  -28.8029   23.2977 O   0  0  0  0  0  0
  -28.2091  -25.9712   20.2683 O   0  0  0  0  0  0
  -26.5660  -34.8890   22.4635 O   0  0  0  0  0  0
  -23.5631  -32.1272   23.6998 O   0  0  0  0  0  0
  -28.3973  -21.6829   19.6129 C   0  0  0  0  0  0
  -29.3981  -22.7257   21.4934 C   0  0  0  0  0  0
  -28.9352  -20.3736   20.0584 C   0  0  0  0  0  0
  -28.6095  -22.9697   20.3257 C   0  0  0  0  0  0
  -29.6619  -20.3426   21.2236 C   0  0  0  0  0  0
  -28.8608  -18.8530   19.5416 C   0  0  0  0  0  0
  -30.0939  -18.8694   21.6203 C   0  0  0  0  0  0
  -29.8923  -17.8694   20.3736 C   0  0  1  0  0  0
  -27.8656  -24.4474   19.9434 C   0  0  0  0  0  0
  -29.8927  -21.4976   21.9245 N   0  0  0  0  0  0
  -29.6979  -16.2642   20.5557 N   0  0  0  0  0  0
  -31.4709  -12.8460   19.1914 H   0  0  0  0  0  0
  -30.4737  -11.7286   20.0723 H   0  0  0  0  0  0
  -29.8675  -11.7329   17.6273 H   0  0  0  0  0  0
  -29.5842  -13.4561   17.6813 H   0  0  0  0  0  0
  -27.9970  -11.2653   19.0458 H   0  0  0  0  0  0
  -27.3952  -12.3790   17.8448 H   0  0  0  0  0  0
  -27.5751  -14.2425   19.3833 H   0  0  0  0  0  0
  -28.7805  -12.3596   21.4672 H   0  0  0  0  0  0
  -28.3428  -14.0268   21.7490 H   0  0  0  0  0  0
  -25.2758   -9.5673   22.4761 H   0  0  0  0  0  0
  -23.9984   -7.4637   22.7488 H   0  0  0  0  0  0
  -21.0833   -8.8765   19.8966 H   0  0  0  0  0  0
  -22.3690  -10.9660   19.6163 H   0  0  0  0  0  0
  -21.2020   -7.6145   23.9707 H   0  0  0  0  0  0
  -21.1477   -6.0524   25.9071 H   0  0  0  0  0  0
  -22.0603   -2.7602   23.2853 H   0  0  0  0  0  0
  -22.4065  -11.9870   22.4832 H   0  0  0  0  0  0
  -21.1059  -13.1217   22.2668 H   0  0  0  0  0  0
  -24.6340  -15.8415   20.5125 H   0  0  0  0  0  0
  -26.2418  -15.6312   20.0390 H   0  0  0  0  0  0
  -26.7300  -32.5224   23.0934 H   0  0  0  0  0  0
  -25.0117  -33.9544   25.0316 H   0  0  0  0  0  0
  -22.7679  -31.2833   21.3713 H   0  0  0  0  0  0
  -23.3777  -35.9545   23.3275 H   0  0  0  0  0  0
  -24.3602  -36.8895   22.2072 H   0  0  0  0  0  0
  -23.7225  -37.6413   23.6702 H   0  0  0  0  0  0
  -26.1883  -31.4271   20.6238 H   0  0  0  0  0  0
  -26.8929  -30.7311   22.0438 H   0  0  0  0  0  0
  -28.1255  -28.6868   21.2938 H   0  0  0  0  0  0
  -25.8825  -25.8207   18.9653 H   0  0  0  0  0  0
  -23.9939  -27.3085   18.9436 H   0  0  0  0  0  0
  -23.8456  -30.5658   19.3996 H   0  0  0  0  0  0
  -22.8070  -29.2398   19.8254 H   0  0  0  0  0  0
  -25.1303  -36.1827   25.0825 H   0  0  0  0  0  0
  -21.0033  -28.3335   24.1339 H   0  0  0  0  0  0
  -20.5748  -26.2335   23.3642 H   0  0  0  0  0  0
  -21.6662  -26.7435   22.1174 H   0  0  0  0  0  0
  -19.6944  -25.6280   21.1269 H   0  0  0  0  0  0
  -19.6722  -27.3173   20.6751 H   0  0  0  0  0  0
  -17.4234  -26.6697   21.4014 H   0  0  0  0  0  0
  -18.0314  -26.0075   22.9028 H   0  0  0  0  0  0
  -19.7966  -30.7284   24.2235 H   0  0  0  0  0  0
  -17.5043  -31.6272   24.5135 H   0  0  0  0  0  0
  -15.5376  -30.2963   23.7693 H   0  0  0  0  0  0
  -15.8707  -28.0814   22.7087 H   0  0  0  0  0  0
  -24.5913  -30.7053   25.7682 H   0  0  0  0  0  0
  -24.8860  -32.2925   26.4686 H   0  0  0  0  0  0
  -25.7959  -30.8979   27.0218 H   0  0  0  0  0  0
  -26.3110  -29.6598   24.1336 H   0  0  0  0  0  0
  -27.4072  -29.7263   25.4920 H   0  0  0  0  0  0
  -27.8998  -30.4180   23.9677 H   0  0  0  0  0  0
  -27.2671  -33.3677   26.1915 H   0  0  0  0  0  0
  -28.3922  -32.6770   25.0311 H   0  0  0  0  0  0
  -28.0674  -31.8520   26.5484 H   0  0  0  0  0  0
  -28.2556  -38.0092   24.7533 H   0  0  0  0  0  0
  -28.1104  -36.2623   24.6270 H   0  0  0  0  0  0
  -27.2302  -37.1367   25.8872 H   0  0  0  0  0  0
  -20.9542  -29.8762   21.6730 H   0  0  0  0  0  0
  -26.0147  -38.2796   24.1435 H   0  0  0  0  0  0
  -27.7799  -21.6929   18.7254 H   0  0  0  0  0  0
  -29.6160  -23.5556   22.1496 H   0  0  0  0  0  0
  -29.0744  -18.8131   18.4730 H   0  0  0  0  0  0
  -27.8360  -18.5018   19.6724 H   0  0  0  0  0  0
  -29.4559  -18.5538   22.4467 H   0  0  0  0  0  0
  -31.1208  -18.8516   21.9854 H   0  0  0  0  0  0
  -30.8304  -17.9449   19.8221 H   0  0  0  0  0  0
  -26.8607  -24.3002   20.3399 H   0  0  0  0  0  0
  -27.7501  -24.4186   18.8598 H   0  0  0  0  0  0
  -28.7446  -16.0267   20.7869 H   0  0  0  0  0  0
  1 25  1  0  0  0
  1 30  2  0  0  0
  1 81  1  0  0  0
  2  3  1  0  0  0
  2 25  1  0  0  0
  2 82  1  0  0  0
  2 83  1  0  0  0
  3  4  1  0  0  0
  3 84  1  0  0  0
  3 85  1  0  0  0
  4  5  1  0  0  0
  4 86  1  0  0  0
  4 87  1  0  0  0
  5  6  1  0  0  0
  5 26  1  0  0  0
  5 88  1  0  0  0
  6 25  1  0  0  0
  6 89  1  0  0  0
  6 90  1  0  0  0
  7  8  2  0  0  0
  7 26  1  0  0  0
  7 29  1  0  0  0
  8  9  1  0  0  0
  8 22  1  0  0  0
  9 10  1  0  0  0
  9 27  2  0  0  0
 10 11  2  0  0  0
 10 15  1  0  0  0
 11 12  1  0  0  0
 11 91  1  0  0  0
 12 13  2  0  0  0
 12 92  1  0  0  0
 13 14  1  0  0  0
 13 31  1  0  0  0
 14 15  2  0  0  0
 14 93  1  0  0  0
 15 94  1  0  0  0
 16 17  2  0  0  0
 16 21  1  0  0  0
 16 31  1  0  0  0
 17 18  1  0  0  0
 17 95  1  0  0  0
 18 19  2  0  0  0
 18 96  1  0  0  0
 19 20  1  0  0  0
 19 24  1  0  0  0
 20 21  2  0  0  0
 20 97  1  0  0  0
 21 23  1  0  0  0
 22 28  1  0  0  0
 22 32  2  0  0  0
 26 27  1  0  0  0
 28 98  1  0  0  0
 28 99  1  0  0  0
 29100  1  0  0  0
 29101  1  0  0  0
 33 34  1  0  0  0
 33 66  1  0  0  0
 33 70  2  0  0  0
 34 36  1  0  0  0
 34 59  1  0  0  0
 34102  1  0  0  0
 35 44  2  0  0  0
 35 45  1  0  0  0
 35 68  1  0  0  0
 36 56  1  0  0  0
 36103  1  0  0  0
 37 39  1  0  0  0
 37 47  1  0  0  0
 37 66  1  0  0  0
 37104  1  0  0  0
 38 43  2  0  0  0
 38 46  1  0  0  0
 38 47  1  0  0  0
 39 64  1  0  0  0
 39 67  2  0  0  0
 40 52  1  0  0  0
 40 53  2  0  0  0
 40 58  1  0  0  0
 41105  1  0  0  0
 41106  1  0  0  0
 41107  1  0  0  0
 41 48  1  0  0  0
 42 43  1  0  0  0
 42 66  1  0  0  0
 42108  1  0  0  0
 42109  1  0  0  0
 43 44  1  0  0  0
 44110  1  0  0  0
 45 46  2  0  0  0
 45111  1  0  0  0
 46112  1  0  0  0
 47113  1  0  0  0
 47114  1  0  0  0
 48 56  1  0  0  0
 48 65  1  0  0  0
 48115  1  0  0  0
 49 50  1  0  0  0
 49 53  1  0  0  0
 49 64  1  0  0  0
 49116  1  0  0  0
 50 51  1  0  0  0
 50117  1  0  0  0
 50118  1  0  0  0
 51 52  1  0  0  0
 51119  1  0  0  0
 51120  1  0  0  0
 52121  1  0  0  0
 52122  1  0  0  0
 53 54  1  0  0  0
 54 55  2  0  0  0
 54123  1  0  0  0
 55 57  1  0  0  0
 55124  1  0  0  0
 56 69  2  0  0  0
 57 58  2  0  0  0
 57125  1  0  0  0
 58126  1  0  0  0
 59 60  1  0  0  0
 59 61  1  0  0  0
 59 62  1  0  0  0
 60127  1  0  0  0
 60128  1  0  0  0
 60129  1  0  0  0
 61130  1  0  0  0
 61131  1  0  0  0
 61132  1  0  0  0
 62133  1  0  0  0
 62134  1  0  0  0
 62135  1  0  0  0
 63 65  1  0  0  0
 63136  1  0  0  0
 63137  1  0  0  0
 63138  1  0  0  0
 64139  1  0  0  0
 65140  1  0  0  0
 68 79  1  0  0  0
 71 73  2  0  0  0
 71 74  1  0  0  0
 71141  1  0  0  0
 72 74  2  0  0  0
 72 80  1  0  0  0
 72142  1  0  0  0
 73 75  1  0  0  0
 73 76  1  0  0  0
 74 79  1  0  0  0
 75 77  1  0  0  0
 75 80  2  0  0  0
 76 78  1  0  0  0
 76143  1  0  0  0
 76144  1  0  0  0
 77 78  1  0  0  0
 77145  1  0  0  0
 77146  1  0  0  0
 78 81  1  0  0  0
 78147  1  0  0  0
 79148  1  0  0  0
 79149  1  0  0  0
 81150  1  0  0  0
M  ISO  4   1 100  68 101  79 101  81 100
M  END
> <chiral flag>
0

> <version>
0

> <s_m_source_file>
/data/baiqing/PycharmProjects/Reinvent-master-3.2/result/LINK_invent/BTK/process_docking_weight1_custom_sum_contain_oxygen_bond_distance_aromatic_linkinvent_7_9_3/rearranged_h_0178.sdf

> <i_m_source_file_index>
56

> <r_mmod_Potential_Energy-OPLS-2005>
586.696472167969

> <r_mmod_Stretch_Energy-OPLS-2005>
328.156585693359

> <r_mmod_Bend_Energy-OPLS-2005>
349.974273681641

> <r_mmod_Torsional_Energy-OPLS-2005>
212.711776733398

> <r_mmod_Improper_Torsional_Energy-OPLS-2005>
5.33324909210205

> <r_mmod_Van_der_Waal_Energy-OPLS-2005>
126.929496765137

> <r_mmod_Electrostatic_Energy-OPLS-2005>
-491.984344482422

> <r_mmod_Solvation_Energy-OPLS-2005>
-236.198013305664

> <b_mmod_Minimization_Converged-OPLS-2005>
0

> <r_mmod_RMS_Derivative-OPLS-2005>
1.86328566074371

$$$$
57
                    3D
 Structure written by MMmdl.
158167  0  0  1  0            999 V2000
  -30.4872  -15.1349   20.4498 C   0  0  0  0  0  0
  -30.4066  -12.7506   19.5095 C   0  0  0  0  0  0
  -29.5085  -12.5769   18.2641 C   0  0  0  0  0  0
  -28.0516  -12.3104   18.6790 C   0  0  0  0  0  0
  -27.5926  -13.2560   19.8150 C   0  0  2  0  0  0
  -28.6155  -13.4020   20.9581 C   0  0  0  0  0  0
  -25.2269  -13.8149   20.5765 C   0  0  0  0  0  0
  -24.1643  -13.0404   20.9278 C   0  0  0  0  0  0
  -24.6274  -11.6872   20.8772 C   0  0  0  0  0  0
  -23.9029  -10.4248   21.0413 C   0  0  0  0  0  0
  -24.3618   -9.4184   21.9188 C   0  0  0  0  0  0
  -23.6304   -8.2227   22.0715 C   0  0  0  0  0  0
  -22.4279   -8.0234   21.3507 C   0  0  0  0  0  0
  -21.9913   -9.0217   20.4612 C   0  0  0  0  0  0
  -22.7227  -10.2091   20.3053 C   0  0  0  0  0  0
  -21.6858   -6.0729   22.5302 C   0  0  0  0  0  0
  -21.4019   -6.5636   23.8226 C   0  0  0  0  0  0
  -21.3668   -5.6775   24.9190 C   0  0  0  0  0  0
  -21.6062   -4.3050   24.7228 C   0  0  0  0  0  0
  -21.8814   -3.8137   23.4351 C   0  0  0  0  0  0
  -21.9191   -4.6972   22.3401 C   0  0  0  0  0  0
  -22.7696  -13.5157   21.1940 C   0  0  0  0  0  0
  -22.1655   -4.2160   21.0994 F   0  0  0  0  0  0
  -21.5628   -3.4515   25.7741 F   0  0  0  0  0  0
  -29.8607  -13.8758   20.3429 N   0  0  0  0  0  0
  -26.2667  -12.9410   20.3172 N   0  0  0  0  0  0
  -25.9197  -11.6527   20.5730 N   0  0  0  0  0  0
  -22.0335  -12.8154   22.0483 N   0  0  0  0  0  0
  -25.3892  -15.1902   20.4293 N   0  0  0  0  0  0
  -31.7125  -15.0787   20.2760 O   0  0  0  0  0  0
  -21.6623   -6.8865   21.4244 O   0  0  0  0  0  0
  -22.3433  -14.5509   20.6772 O   0  0  0  0  0  0
  -24.6534  -31.8319   23.1830 C   0  0  0  0  0  0
  -25.9313  -32.4635   23.8254 C   0  0  1  0  0  0
  -27.1951  -26.9965   20.2048 C   0  0  0  0  0  0
  -25.6140  -33.8462   24.2147 N   0  0  0  0  0  0
  -23.4592  -30.4530   21.5251 C   0  0  2  0  0  0
  -24.9186  -28.8640   20.1102 C   0  0  0  0  0  0
  -22.7591  -29.4424   22.4719 C   0  0  0  0  0  0
  -18.0343  -28.1341   22.8468 C   0  0  0  0  0  0
  -24.1460  -36.7056   23.2634 C   0  0  0  0  0  0
  -26.0235  -30.6699   21.4028 C   0  0  0  0  0  0
  -26.0981  -29.2691   20.7455 C   0  0  0  0  0  0
  -27.2339  -28.3496   20.7822 C   0  0  0  0  0  0
  -25.9968  -26.7366   19.5115 C   0  0  0  0  0  0
  -24.8893  -27.6132   19.4772 C   0  0  0  0  0  0
  -23.7011  -29.7895   20.1425 C   0  0  0  0  0  0
  -25.4086  -36.2902   24.0292 C   0  0  1  0  0  0
  -20.5958  -28.3630   23.1173 C   0  0  2  0  0  0
  -20.6764  -26.9320   22.5381 C   0  0  0  0  0  0
  -19.5752  -26.6297   21.5175 C   0  0  0  0  0  0
  -18.1936  -26.7891   22.1597 C   0  0  0  0  0  0
  -19.1611  -28.8821   23.2830 C   0  0  0  0  0  0
  -18.9538  -30.1434   23.8837 C   0  0  0  0  0  0
  -17.6530  -30.6566   24.0522 C   0  0  0  0  0  0
  -25.9090  -34.9339   23.4939 C   0  0  0  0  0  0
  -16.5401  -29.9032   23.6408 C   0  0  0  0  0  0
  -16.7338  -28.6485   23.0369 C   0  0  0  0  0  0
  -26.4585  -31.6601   25.0807 C   0  0  0  0  0  0
  -25.3705  -31.3890   26.1453 C   0  0  0  0  0  0
  -27.0497  -30.2982   24.6586 C   0  0  0  0  0  0
  -27.6110  -32.4398   25.7652 C   0  0  0  0  0  0
  -27.5457  -37.1622   24.8476 C   0  0  0  0  0  0
  -21.4297  -29.2929   22.3481 N   0  0  0  0  0  0
  -26.4162  -37.3663   23.9498 N   0  0  0  0  0  0
  -24.7325  -31.0037   22.0929 N   0  0  0  0  0  0
  -23.4199  -28.7967   23.2909 O   0  0  0  0  0  0
  -28.1933  -25.9246   20.3331 O   0  0  0  0  0  0
  -26.5549  -34.8872   22.4452 O   0  0  0  0  0  0
  -23.5622  -32.1271   23.6918 O   0  0  0  0  0  0
  -26.8117  -21.3738   20.4089 C   0  0  0  0  0  0
  -26.2877  -22.2048   21.5777 C   0  0  0  0  0  0
  -27.5569  -22.8738   22.1056 C   0  0  0  0  0  0
  -30.1810  -19.2346   20.4448 C   0  0  0  0  0  0
  -27.8888  -18.4720   20.4766 C   0  0  0  0  0  0
  -30.5936  -17.7428   21.0406 C   0  0  0  0  0  0
  -28.5461  -17.0059   20.0553 C   0  0  0  0  0  0
  -28.7343  -19.8437   20.7937 C   0  0  0  0  0  0
  -28.4590  -22.8678   20.8557 C   0  0  2  0  0  0
  -28.0095  -24.3482   20.0082 C   0  0  0  0  0  0
  -28.1652  -21.3429   20.3596 N   0  0  0  0  0  0
  -29.8455  -16.4513   20.6359 N   0  0  0  0  0  0
  -26.0293  -20.7719   19.6714 O   0  0  0  0  0  0
  -31.4315  -12.9415   19.1953 H   0  0  0  0  0  0
  -30.4473  -11.8290   20.0843 H   0  0  0  0  0  0
  -29.8780  -11.7700   17.6303 H   0  0  0  0  0  0
  -29.5452  -13.4903   17.6668 H   0  0  0  0  0  0
  -27.9744  -11.2701   18.9920 H   0  0  0  0  0  0
  -27.3942  -12.4164   17.8171 H   0  0  0  0  0  0
  -27.5082  -14.2205   19.3112 H   0  0  0  0  0  0
  -28.7537  -12.4626   21.4882 H   0  0  0  0  0  0
  -28.2603  -14.1235   21.6936 H   0  0  0  0  0  0
  -25.2754   -9.5713   22.4786 H   0  0  0  0  0  0
  -24.0013   -7.4639   22.7442 H   0  0  0  0  0  0
  -21.0826   -8.8749   19.8915 H   0  0  0  0  0  0
  -22.3679  -10.9651   19.6171 H   0  0  0  0  0  0
  -21.2002   -7.6144   23.9758 H   0  0  0  0  0  0
  -21.1497   -6.0488   25.9098 H   0  0  0  0  0  0
  -22.0576   -2.7600   23.2841 H   0  0  0  0  0  0
  -22.3927  -11.9851   22.4951 H   0  0  0  0  0  0
  -21.0927  -13.1182   22.2624 H   0  0  0  0  0  0
  -24.6204  -15.8385   20.5501 H   0  0  0  0  0  0
  -26.2486  -15.6351   20.1491 H   0  0  0  0  0  0
  -26.7389  -32.5188   23.0966 H   0  0  0  0  0  0
  -25.0717  -33.9721   25.0566 H   0  0  0  0  0  0
  -22.7673  -31.2853   21.3656 H   0  0  0  0  0  0
  -23.3795  -35.9310   23.3315 H   0  0  0  0  0  0
  -24.3498  -36.8661   22.2049 H   0  0  0  0  0  0
  -23.7216  -37.6226   23.6687 H   0  0  0  0  0  0
  -26.1839  -31.4268   20.6340 H   0  0  0  0  0  0
  -26.8888  -30.7275   22.0541 H   0  0  0  0  0  0
  -28.1250  -28.6335   21.3233 H   0  0  0  0  0  0
  -25.8437  -25.7856   19.0236 H   0  0  0  0  0  0
  -23.9985  -27.2909   18.9591 H   0  0  0  0  0  0
  -23.8461  -30.5778   19.4003 H   0  0  0  0  0  0
  -22.8112  -29.2511   19.8128 H   0  0  0  0  0  0
  -25.1271  -36.1565   25.0764 H   0  0  0  0  0  0
  -21.0160  -28.3236   24.1240 H   0  0  0  0  0  0
  -20.5561  -26.2247   23.3581 H   0  0  0  0  0  0
  -21.6602  -26.7161   22.1188 H   0  0  0  0  0  0
  -19.6867  -25.6194   21.1236 H   0  0  0  0  0  0
  -19.6743  -27.3083   20.6686 H   0  0  0  0  0  0
  -17.4158  -26.6700   21.4030 H   0  0  0  0  0  0
  -18.0304  -26.0014   22.8989 H   0  0  0  0  0  0
  -19.8031  -30.7279   24.2098 H   0  0  0  0  0  0
  -17.5109  -31.6285   24.5043 H   0  0  0  0  0  0
  -15.5405  -30.2863   23.7824 H   0  0  0  0  0  0
  -15.8747  -28.0807   22.7013 H   0  0  0  0  0  0
  -24.5962  -30.7188   25.7712 H   0  0  0  0  0  0
  -24.8800  -32.3109   26.4630 H   0  0  0  0  0  0
  -25.7867  -30.9212   27.0393 H   0  0  0  0  0  0
  -26.3076  -29.6603   24.1793 H   0  0  0  0  0  0
  -27.4182  -29.7486   25.5242 H   0  0  0  0  0  0
  -27.8947  -30.4143   23.9800 H   0  0  0  0  0  0
  -27.2721  -33.3759   26.2103 H   0  0  0  0  0  0
  -28.4001  -32.6858   25.0557 H   0  0  0  0  0  0
  -28.0703  -31.8643   26.5710 H   0  0  0  0  0  0
  -28.2395  -37.9968   24.7462 H   0  0  0  0  0  0
  -28.0998  -36.2468   24.6296 H   0  0  0  0  0  0
  -27.2182  -37.1195   25.8876 H   0  0  0  0  0  0
  -20.9414  -29.8871   21.6917 H   0  0  0  0  0  0
  -25.9939  -38.2643   24.1746 H   0  0  0  0  0  0
  -25.7900  -21.5783   22.3239 H   0  0  0  0  0  0
  -25.5613  -22.9354   21.2196 H   0  0  0  0  0  0
  -27.9652  -22.2633   22.9167 H   0  0  0  0  0  0
  -27.3810  -23.8688   22.5159 H   0  0  0  0  0  0
  -30.3025  -19.2231   19.3603 H   0  0  0  0  0  0
  -30.9453  -19.9379   20.7950 H   0  0  0  0  0  0
  -27.2096  -18.3080   21.3248 H   0  0  0  0  0  0
  -27.1924  -18.6674   19.6602 H   0  0  0  0  0  0
  -31.6646  -17.6026   20.8490 H   0  0  0  0  0  0
  -30.5384  -17.8106   22.1347 H   0  0  0  0  0  0
  -28.7042  -17.0297   18.9711 H   0  0  0  0  0  0
  -27.7696  -16.2587   20.2174 H   0  0  0  0  0  0
  -28.7347  -19.9132   21.8866 H   0  0  0  0  0  0
  -29.5159  -22.9293   21.1223 H   0  0  0  0  0  0
  -26.9580  -24.2074   19.7927 H   0  0  0  0  0  0
  -28.4590  -24.2375   19.0208 H   0  0  0  0  0  0
  1 25  1  0  0  0
  1 30  2  0  0  0
  1 82  1  0  0  0
  2  3  1  0  0  0
  2 25  1  0  0  0
  2 84  1  0  0  0
  2 85  1  0  0  0
  3  4  1  0  0  0
  3 86  1  0  0  0
  3 87  1  0  0  0
  4  5  1  0  0  0
  4 88  1  0  0  0
  4 89  1  0  0  0
  5  6  1  0  0  0
  5 26  1  0  0  0
  5 90  1  0  0  0
  6 25  1  0  0  0
  6 91  1  0  0  0
  6 92  1  0  0  0
  7  8  2  0  0  0
  7 26  1  0  0  0
  7 29  1  0  0  0
  8  9  1  0  0  0
  8 22  1  0  0  0
  9 10  1  0  0  0
  9 27  2  0  0  0
 10 11  2  0  0  0
 10 15  1  0  0  0
 11 12  1  0  0  0
 11 93  1  0  0  0
 12 13  2  0  0  0
 12 94  1  0  0  0
 13 14  1  0  0  0
 13 31  1  0  0  0
 14 15  2  0  0  0
 14 95  1  0  0  0
 15 96  1  0  0  0
 16 17  2  0  0  0
 16 21  1  0  0  0
 16 31  1  0  0  0
 17 18  1  0  0  0
 17 97  1  0  0  0
 18 19  2  0  0  0
 18 98  1  0  0  0
 19 20  1  0  0  0
 19 24  1  0  0  0
 20 21  2  0  0  0
 20 99  1  0  0  0
 21 23  1  0  0  0
 22 28  1  0  0  0
 22 32  2  0  0  0
 26 27  1  0  0  0
 28100  1  0  0  0
 28101  1  0  0  0
 29102  1  0  0  0
 29103  1  0  0  0
 33 34  1  0  0  0
 33 66  1  0  0  0
 33 70  2  0  0  0
 34 36  1  0  0  0
 34 59  1  0  0  0
 34104  1  0  0  0
 35 44  2  0  0  0
 35 45  1  0  0  0
 35 68  1  0  0  0
 36 56  1  0  0  0
 36105  1  0  0  0
 37 39  1  0  0  0
 37 47  1  0  0  0
 37 66  1  0  0  0
 37106  1  0  0  0
 38 43  2  0  0  0
 38 46  1  0  0  0
 38 47  1  0  0  0
 39 64  1  0  0  0
 39 67  2  0  0  0
 40 52  1  0  0  0
 40 53  2  0  0  0
 40 58  1  0  0  0
 41107  1  0  0  0
 41108  1  0  0  0
 41109  1  0  0  0
 41 48  1  0  0  0
 42 43  1  0  0  0
 42 66  1  0  0  0
 42110  1  0  0  0
 42111  1  0  0  0
 43 44  1  0  0  0
 44112  1  0  0  0
 45 46  2  0  0  0
 45113  1  0  0  0
 46114  1  0  0  0
 47115  1  0  0  0
 47116  1  0  0  0
 48 56  1  0  0  0
 48 65  1  0  0  0
 48117  1  0  0  0
 49 50  1  0  0  0
 49 53  1  0  0  0
 49 64  1  0  0  0
 49118  1  0  0  0
 50 51  1  0  0  0
 50119  1  0  0  0
 50120  1  0  0  0
 51 52  1  0  0  0
 51121  1  0  0  0
 51122  1  0  0  0
 52123  1  0  0  0
 52124  1  0  0  0
 53 54  1  0  0  0
 54 55  2  0  0  0
 54125  1  0  0  0
 55 57  1  0  0  0
 55126  1  0  0  0
 56 69  2  0  0  0
 57 58  2  0  0  0
 57127  1  0  0  0
 58128  1  0  0  0
 59 60  1  0  0  0
 59 61  1  0  0  0
 59 62  1  0  0  0
 60129  1  0  0  0
 60130  1  0  0  0
 60131  1  0  0  0
 61132  1  0  0  0
 61133  1  0  0  0
 61134  1  0  0  0
 62135  1  0  0  0
 62136  1  0  0  0
 62137  1  0  0  0
 63 65  1  0  0  0
 63138  1  0  0  0
 63139  1  0  0  0
 63140  1  0  0  0
 64141  1  0  0  0
 65142  1  0  0  0
 68 80  1  0  0  0
 71 72  1  0  0  0
 71 81  1  0  0  0
 71 83  2  0  0  0
 72 73  1  0  0  0
 72143  1  0  0  0
 72144  1  0  0  0
 73 79  1  0  0  0
 73145  1  0  0  0
 73146  1  0  0  0
 74 76  1  0  0  0
 74 78  1  0  0  0
 74147  1  0  0  0
 74148  1  0  0  0
 75 77  1  0  0  0
 75 78  1  0  0  0
 75149  1  0  0  0
 75150  1  0  0  0
 76 82  1  0  0  0
 76151  1  0  0  0
 76152  1  0  0  0
 77 82  1  0  0  0
 77153  1  0  0  0
 77154  1  0  0  0
 78 81  1  0  0  0
 78155  1  0  0  0
 79 80  1  0  0  0
 79 81  1  0  0  0
 79156  1  0  0  0
 80157  1  0  0  0
 80158  1  0  0  0
M  ISO  4   1 100  68 101  80 101  82 100
M  END
> <chiral flag>
0

> <version>
0

> <s_m_source_file>
/data/baiqing/PycharmProjects/Reinvent-master-3.2/result/LINK_invent/BTK/process_docking_weight1_custom_sum_contain_oxygen_bond_distance_aromatic_linkinvent_7_9_3/rearranged_h_0178.sdf

> <i_m_source_file_index>
57

> <r_mmod_Potential_Energy-OPLS-2005>
1298.87280273438

> <r_mmod_Stretch_Energy-OPLS-2005>
442.287872314453

> <r_mmod_Bend_Energy-OPLS-2005>
476.971893310547

> <r_mmod_Torsional_Energy-OPLS-2005>
401.068756103516

> <r_mmod_Improper_Torsional_Energy-OPLS-2005>
6.63629865646362

> <r_mmod_Van_der_Waal_Energy-OPLS-2005>
120.722114562988

> <r_mmod_Electrostatic_Energy-OPLS-2005>
-277.461212158203

> <r_mmod_Solvation_Energy-OPLS-2005>
-225.494812011719

> <b_mmod_Minimization_Converged-OPLS-2005>
0

> <r_mmod_RMS_Derivative-OPLS-2005>
10.2597808837891

$$$$
58
                    3D
 Structure written by MMmdl.
156165  0  0  1  0            999 V2000
  -30.5129  -15.0192   20.3354 C   0  0  0  0  0  0
  -30.4444  -12.6282   19.4905 C   0  0  0  0  0  0
  -29.5272  -12.5284   18.2444 C   0  0  0  0  0  0
  -28.0573  -12.3306   18.6604 C   0  0  0  0  0  0
  -27.6260  -13.2600   19.8266 C   0  0  2  0  0  0
  -28.6719  -13.3171   20.9591 C   0  0  0  0  0  0
  -25.2451  -13.8202   20.5729 C   0  0  0  0  0  0
  -24.1803  -13.0403   20.9219 C   0  0  0  0  0  0
  -24.6418  -11.6894   20.8723 C   0  0  0  0  0  0
  -23.9082  -10.4256   21.0420 C   0  0  0  0  0  0
  -24.3631   -9.4163   21.9178 C   0  0  0  0  0  0
  -23.6320   -8.2186   22.0728 C   0  0  0  0  0  0
  -22.4289   -8.0232   21.3526 C   0  0  0  0  0  0
  -21.9959   -9.0206   20.4623 C   0  0  0  0  0  0
  -22.7270  -10.2088   20.3051 C   0  0  0  0  0  0
  -21.6813   -6.0739   22.5270 C   0  0  0  0  0  0
  -21.4017   -6.5637   23.8226 C   0  0  0  0  0  0
  -21.3666   -5.6780   24.9179 C   0  0  0  0  0  0
  -21.6042   -4.3047   24.7237 C   0  0  0  0  0  0
  -21.8853   -3.8144   23.4357 C   0  0  0  0  0  0
  -21.9207   -4.6968   22.3418 C   0  0  0  0  0  0
  -22.7818  -13.5144   21.1894 C   0  0  0  0  0  0
  -22.1701   -4.2147   21.1000 F   0  0  0  0  0  0
  -21.5608   -3.4544   25.7743 F   0  0  0  0  0  0
  -29.9432  -13.7404   20.3569 N   0  0  0  0  0  0
  -26.2875  -12.9468   20.3194 N   0  0  0  0  0  0
  -25.9351  -11.6573   20.5670 N   0  0  0  0  0  0
  -22.0540  -12.8114   22.0454 N   0  0  0  0  0  0
  -25.4107  -15.1960   20.4185 N   0  0  0  0  0  0
  -31.7092  -15.0817   20.0286 O   0  0  0  0  0  0
  -21.6624   -6.8860   21.4208 O   0  0  0  0  0  0
  -22.3511  -14.5454   20.6759 O   0  0  0  0  0  0
  -24.6456  -31.8488   23.1853 C   0  0  0  0  0  0
  -25.9204  -32.4745   23.8280 C   0  0  1  0  0  0
  -27.2752  -27.1403   20.1616 C   0  0  0  0  0  0
  -25.6050  -33.8559   24.2301 N   0  0  0  0  0  0
  -23.4597  -30.4543   21.5245 C   0  0  2  0  0  0
  -24.9249  -28.8751   20.1159 C   0  0  0  0  0  0
  -22.7658  -29.4531   22.4839 C   0  0  0  0  0  0
  -18.0329  -28.1325   22.8445 C   0  0  0  0  0  0
  -24.1548  -36.7228   23.2645 C   0  0  0  0  0  0
  -26.0125  -30.7167   21.3926 C   0  0  0  0  0  0
  -26.0930  -29.3214   20.7465 C   0  0  0  0  0  0
  -27.2623  -28.4680   20.7577 C   0  0  0  0  0  0
  -26.0855  -26.8039   19.4767 C   0  0  0  0  0  0
  -24.9365  -27.6310   19.4614 C   0  0  0  0  0  0
  -23.7008  -29.7779   20.1480 C   0  0  0  0  0  0
  -25.4147  -36.3070   24.0371 C   0  0  1  0  0  0
  -20.5941  -28.3707   23.1236 C   0  0  2  0  0  0
  -20.6819  -26.9405   22.5391 C   0  0  0  0  0  0
  -19.5805  -26.6338   21.5188 C   0  0  0  0  0  0
  -18.1980  -26.7869   22.1569 C   0  0  0  0  0  0
  -19.1556  -28.8809   23.2841 C   0  0  0  0  0  0
  -18.9467  -30.1393   23.8892 C   0  0  0  0  0  0
  -17.6449  -30.6523   24.0495 C   0  0  0  0  0  0
  -25.9080  -34.9450   23.5114 C   0  0  0  0  0  0
  -16.5361  -29.8997   23.6277 C   0  0  0  0  0  0
  -16.7296  -28.6398   23.0350 C   0  0  0  0  0  0
  -26.4543  -31.6524   25.0640 C   0  0  0  0  0  0
  -25.3743  -31.3574   26.1329 C   0  0  0  0  0  0
  -27.0439  -30.2988   24.6068 C   0  0  0  0  0  0
  -27.6218  -32.4133   25.7360 C   0  0  0  0  0  0
  -27.5609  -37.1810   24.8465 C   0  0  0  0  0  0
  -21.4322  -29.3067   22.3620 N   0  0  0  0  0  0
  -26.4314  -37.3764   23.9425 N   0  0  0  0  0  0
  -24.7232  -31.0312   22.0884 N   0  0  0  0  0  0
  -23.4321  -28.8088   23.2961 O   0  0  0  0  0  0
  -28.3634  -26.1846   20.1749 O   0  0  0  0  0  0
  -26.5556  -34.8926   22.4631 O   0  0  0  0  0  0
  -23.5542  -32.1419   23.6993 O   0  0  0  0  0  0
  -29.2773  -20.4808   19.8038 C   0  0  0  0  0  0
  -30.0997  -20.3628   22.3728 C   0  0  0  0  0  0
  -29.3318  -21.7992   20.5088 C   0  0  0  0  0  0
  -29.8363  -21.6436   21.8214 C   0  0  0  0  0  0
  -29.6206  -19.1605   20.4255 C   0  0  0  0  0  0
  -30.2959  -22.8840   22.5809 C   0  0  0  0  0  0
  -31.1697  -23.8064   21.6894 C   0  0  0  0  0  0
  -30.7101  -23.9139   20.2056 C   0  0  0  0  0  0
  -29.2714  -23.3838   19.9556 C   0  0  2  0  0  0
  -29.7683  -17.6524   19.7333 C   0  0  0  0  0  0
  -28.1955  -24.6405   20.4048 C   0  0  0  0  0  0
  -29.9850  -19.1808   21.7194 N   0  0  0  0  0  0
  -29.7189  -16.2092   20.4196 N   0  0  0  0  0  0
  -31.4724  -12.8113   19.1636 H   0  0  0  0  0  0
  -30.4570  -11.6827   20.0391 H   0  0  0  0  0  0
  -29.8464  -11.7114   17.5960 H   0  0  0  0  0  0
  -29.6157  -13.4408   17.6548 H   0  0  0  0  0  0
  -27.9477  -11.2912   18.9644 H   0  0  0  0  0  0
  -27.4009  -12.4707   17.7996 H   0  0  0  0  0  0
  -27.5711  -14.2574   19.3821 H   0  0  0  0  0  0
  -28.7720  -12.3407   21.4380 H   0  0  0  0  0  0
  -28.3567  -14.0150   21.7389 H   0  0  0  0  0  0
  -25.2831   -9.5621   22.4663 H   0  0  0  0  0  0
  -24.0048   -7.4582   22.7456 H   0  0  0  0  0  0
  -21.0895   -8.8749   19.8910 H   0  0  0  0  0  0
  -22.3811  -10.9596   19.6121 H   0  0  0  0  0  0
  -21.1980   -7.6162   23.9733 H   0  0  0  0  0  0
  -21.1461   -6.0510   25.9070 H   0  0  0  0  0  0
  -22.0620   -2.7600   23.2870 H   0  0  0  0  0  0
  -22.4291  -11.9807   22.4833 H   0  0  0  0  0  0
  -21.1095  -13.1001   22.2573 H   0  0  0  0  0  0
  -24.6295  -15.8364   20.5027 H   0  0  0  0  0  0
  -26.2379  -15.6268   20.0253 H   0  0  0  0  0  0
  -26.7292  -32.5409   23.1033 H   0  0  0  0  0  0
  -25.0516  -33.9686   25.0661 H   0  0  0  0  0  0
  -22.7615  -31.2746   21.3611 H   0  0  0  0  0  0
  -23.3864  -35.9494   23.3206 H   0  0  0  0  0  0
  -24.3703  -36.8896   22.2085 H   0  0  0  0  0  0
  -23.7214  -37.6386   23.6656 H   0  0  0  0  0  0
  -26.1718  -31.4725   20.6227 H   0  0  0  0  0  0
  -26.8842  -30.7834   22.0299 H   0  0  0  0  0  0
  -28.1447  -28.8091   21.2862 H   0  0  0  0  0  0
  -26.0521  -25.8783   18.9184 H   0  0  0  0  0  0
  -24.0597  -27.2956   18.9242 H   0  0  0  0  0  0
  -23.8644  -30.5604   19.4103 H   0  0  0  0  0  0
  -22.8202  -29.2341   19.8077 H   0  0  0  0  0  0
  -25.1342  -36.1929   25.0861 H   0  0  0  0  0  0
  -20.9992  -28.3210   24.1369 H   0  0  0  0  0  0
  -20.5711  -26.2292   23.3608 H   0  0  0  0  0  0
  -21.6699  -26.7419   22.1200 H   0  0  0  0  0  0
  -19.6999  -25.6246   21.1239 H   0  0  0  0  0  0
  -19.6699  -27.3120   20.6710 H   0  0  0  0  0  0
  -17.4282  -26.6613   21.3947 H   0  0  0  0  0  0
  -18.0323  -25.9978   22.8934 H   0  0  0  0  0  0
  -19.7939  -30.7161   24.2330 H   0  0  0  0  0  0
  -17.5006  -31.6226   24.5046 H   0  0  0  0  0  0
  -15.5350  -30.2878   23.7588 H   0  0  0  0  0  0
  -15.8734  -28.0690   22.7110 H   0  0  0  0  0  0
  -24.6120  -30.6686   25.7632 H   0  0  0  0  0  0
  -24.8634  -32.2635   26.4610 H   0  0  0  0  0  0
  -25.8094  -30.8939   27.0203 H   0  0  0  0  0  0
  -26.3044  -29.6639   24.1176 H   0  0  0  0  0  0
  -27.4343  -29.7291   25.4507 H   0  0  0  0  0  0
  -27.8819  -30.4340   23.9218 H   0  0  0  0  0  0
  -27.3112  -33.3572   26.1835 H   0  0  0  0  0  0
  -28.4092  -32.6391   25.0146 H   0  0  0  0  0  0
  -28.0796  -31.8207   26.5296 H   0  0  0  0  0  0
  -28.2623  -38.0137   24.7619 H   0  0  0  0  0  0
  -28.1148  -36.2684   24.6190 H   0  0  0  0  0  0
  -27.2344  -37.1345   25.8875 H   0  0  0  0  0  0
  -20.9511  -29.8879   21.6909 H   0  0  0  0  0  0
  -26.0202  -38.2855   24.1356 H   0  0  0  0  0  0
  -29.0438  -20.4931   18.7444 H   0  0  0  0  0  0
  -30.5202  -20.2845   23.3655 H   0  0  0  0  0  0
  -30.8692  -22.5870   23.4612 H   0  0  0  0  0  0
  -29.4361  -23.4279   22.9783 H   0  0  0  0  0  0
  -32.1936  -23.4195   21.7061 H   0  0  0  0  0  0
  -31.2495  -24.7992   22.1426 H   0  0  0  0  0  0
  -31.3901  -23.3315   19.5830 H   0  0  0  0  0  0
  -30.8200  -24.9370   19.8412 H   0  0  0  0  0  0
  -29.1681  -23.2849   18.8717 H   0  0  0  0  0  0
  -30.6533  -17.6692   19.0979 H   0  0  0  0  0  0
  -28.9525  -17.6196   19.0084 H   0  0  0  0  0  0
  -28.0794  -24.5804   21.4879 H   0  0  0  0  0  0
  -27.2121  -24.3585   20.0275 H   0  0  0  0  0  0
  -28.8030  -16.0209   20.7911 H   0  0  0  0  0  0
  1 25  1  0  0  0
  1 30  2  0  0  0
  1 83  1  0  0  0
  2  3  1  0  0  0
  2 25  1  0  0  0
  2 84  1  0  0  0
  2 85  1  0  0  0
  3  4  1  0  0  0
  3 86  1  0  0  0
  3 87  1  0  0  0
  4  5  1  0  0  0
  4 88  1  0  0  0
  4 89  1  0  0  0
  5  6  1  0  0  0
  5 26  1  0  0  0
  5 90  1  0  0  0
  6 25  1  0  0  0
  6 91  1  0  0  0
  6 92  1  0  0  0
  7  8  2  0  0  0
  7 26  1  0  0  0
  7 29  1  0  0  0
  8  9  1  0  0  0
  8 22  1  0  0  0
  9 10  1  0  0  0
  9 27  2  0  0  0
 10 11  2  0  0  0
 10 15  1  0  0  0
 11 12  1  0  0  0
 11 93  1  0  0  0
 12 13  2  0  0  0
 12 94  1  0  0  0
 13 14  1  0  0  0
 13 31  1  0  0  0
 14 15  2  0  0  0
 14 95  1  0  0  0
 15 96  1  0  0  0
 16 17  2  0  0  0
 16 21  1  0  0  0
 16 31  1  0  0  0
 17 18  1  0  0  0
 17 97  1  0  0  0
 18 19  2  0  0  0
 18 98  1  0  0  0
 19 20  1  0  0  0
 19 24  1  0  0  0
 20 21  2  0  0  0
 20 99  1  0  0  0
 21 23  1  0  0  0
 22 28  1  0  0  0
 22 32  2  0  0  0
 26 27  1  0  0  0
 28100  1  0  0  0
 28101  1  0  0  0
 29102  1  0  0  0
 29103  1  0  0  0
 33 34  1  0  0  0
 33 66  1  0  0  0
 33 70  2  0  0  0
 34 36  1  0  0  0
 34 59  1  0  0  0
 34104  1  0  0  0
 35 44  2  0  0  0
 35 45  1  0  0  0
 35 68  1  0  0  0
 36 56  1  0  0  0
 36105  1  0  0  0
 37 39  1  0  0  0
 37 47  1  0  0  0
 37 66  1  0  0  0
 37106  1  0  0  0
 38 43  2  0  0  0
 38 46  1  0  0  0
 38 47  1  0  0  0
 39 64  1  0  0  0
 39 67  2  0  0  0
 40 52  1  0  0  0
 40 53  2  0  0  0
 40 58  1  0  0  0
 41107  1  0  0  0
 41108  1  0  0  0
 41109  1  0  0  0
 41 48  1  0  0  0
 42 43  1  0  0  0
 42 66  1  0  0  0
 42110  1  0  0  0
 42111  1  0  0  0
 43 44  1  0  0  0
 44112  1  0  0  0
 45 46  2  0  0  0
 45113  1  0  0  0
 46114  1  0  0  0
 47115  1  0  0  0
 47116  1  0  0  0
 48 56  1  0  0  0
 48 65  1  0  0  0
 48117  1  0  0  0
 49 50  1  0  0  0
 49 53  1  0  0  0
 49 64  1  0  0  0
 49118  1  0  0  0
 50 51  1  0  0  0
 50119  1  0  0  0
 50120  1  0  0  0
 51 52  1  0  0  0
 51121  1  0  0  0
 51122  1  0  0  0
 52123  1  0  0  0
 52124  1  0  0  0
 53 54  1  0  0  0
 54 55  2  0  0  0
 54125  1  0  0  0
 55 57  1  0  0  0
 55126  1  0  0  0
 56 69  2  0  0  0
 57 58  2  0  0  0
 57127  1  0  0  0
 58128  1  0  0  0
 59 60  1  0  0  0
 59 61  1  0  0  0
 59 62  1  0  0  0
 60129  1  0  0  0
 60130  1  0  0  0
 60131  1  0  0  0
 61132  1  0  0  0
 61133  1  0  0  0
 61134  1  0  0  0
 62135  1  0  0  0
 62136  1  0  0  0
 62137  1  0  0  0
 63 65  1  0  0  0
 63138  1  0  0  0
 63139  1  0  0  0
 63140  1  0  0  0
 64141  1  0  0  0
 65142  1  0  0  0
 68 81  1  0  0  0
 71 73  2  0  0  0
 71 75  1  0  0  0
 71143  1  0  0  0
 72 74  2  0  0  0
 72 82  1  0  0  0
 72144  1  0  0  0
 73 74  1  0  0  0
 73 79  1  0  0  0
 74 76  1  0  0  0
 75 80  1  0  0  0
 75 82  2  0  0  0
 76 77  1  0  0  0
 76145  1  0  0  0
 76146  1  0  0  0
 77 78  1  0  0  0
 77147  1  0  0  0
 77148  1  0  0  0
 78 79  1  0  0  0
 78149  1  0  0  0
 78150  1  0  0  0
 79 81  1  0  0  0
 79151  1  0  0  0
 80 83  1  0  0  0
 80152  1  0  0  0
 80153  1  0  0  0
 81154  1  0  0  0
 81155  1  0  0  0
 83156  1  0  0  0
M  ISO  4   1 100  68 101  81 101  83 100
M  END
> <chiral flag>
0

> <version>
0

> <s_m_source_file>
/data/baiqing/PycharmProjects/Reinvent-master-3.2/result/LINK_invent/BTK/process_docking_weight1_custom_sum_contain_oxygen_bond_distance_aromatic_linkinvent_7_9_3/rearranged_h_0178.sdf

> <i_m_source_file_index>
58

> <r_mmod_Potential_Energy-OPLS-2005>
407.322998046875

> <r_mmod_Stretch_Energy-OPLS-2005>
304.311309814453

> <r_mmod_Bend_Energy-OPLS-2005>
287.319152832031

> <r_mmod_Torsional_Energy-OPLS-2005>
263.51025390625

> <r_mmod_Improper_Torsional_Energy-OPLS-2005>
10.7768850326538

> <r_mmod_Van_der_Waal_Energy-OPLS-2005>
135.246917724609

> <r_mmod_Electrostatic_Energy-OPLS-2005>
-577.466857910156

> <r_mmod_Solvation_Energy-OPLS-2005>
-235.336364746094

> <b_mmod_Minimization_Converged-OPLS-2005>
0

> <r_mmod_RMS_Derivative-OPLS-2005>
8.52807331085205

$$$$
59
                    3D
 Structure written by MMmdl.
146154  0  0  1  0            999 V2000
  -30.2960  -15.6131   20.3262 C   0  0  0  0  0  0
  -30.4298  -13.0600   19.5434 C   0  0  0  0  0  0
  -29.5518  -12.6551   18.3237 C   0  0  0  0  0  0
  -28.1242  -12.2989   18.7649 C   0  0  0  0  0  0
  -27.5989  -13.3038   19.8153 C   0  0  2  0  0  0
  -28.6156  -13.6217   20.9380 C   0  0  0  0  0  0
  -25.2329  -13.8273   20.5773 C   0  0  0  0  0  0
  -24.1717  -13.0426   20.9279 C   0  0  0  0  0  0
  -24.6415  -11.6938   20.8758 C   0  0  0  0  0  0
  -23.9110  -10.4290   21.0393 C   0  0  0  0  0  0
  -24.3648   -9.4203   21.9174 C   0  0  0  0  0  0
  -23.6310   -8.2245   22.0752 C   0  0  0  0  0  0
  -22.4292   -8.0287   21.3544 C   0  0  0  0  0  0
  -21.9935   -9.0262   20.4646 C   0  0  0  0  0  0
  -22.7274  -10.2132   20.3050 C   0  0  0  0  0  0
  -21.6861   -6.0737   22.5274 C   0  0  0  0  0  0
  -21.4019   -6.5641   23.8205 C   0  0  0  0  0  0
  -21.3660   -5.6795   24.9166 C   0  0  0  0  0  0
  -21.6043   -4.3056   24.7220 C   0  0  0  0  0  0
  -21.8819   -3.8148   23.4343 C   0  0  0  0  0  0
  -21.9195   -4.6965   22.3399 C   0  0  0  0  0  0
  -22.7730  -13.5162   21.1914 C   0  0  0  0  0  0
  -22.1663   -4.2149   21.0975 F   0  0  0  0  0  0
  -21.5627   -3.4541   25.7733 F   0  0  0  0  0  0
  -29.7987  -14.2375   20.2935 N   0  0  0  0  0  0
  -26.2780  -12.9601   20.3223 N   0  0  0  0  0  0
  -25.9361  -11.6678   20.5700 N   0  0  0  0  0  0
  -22.0398  -12.8149   22.0472 N   0  0  0  0  0  0
  -25.3900  -15.2014   20.4186 N   0  0  0  0  0  0
  -31.5277  -15.5760   20.1277 O   0  0  0  0  0  0
  -21.6649   -6.8889   21.4242 O   0  0  0  0  0  0
  -22.3414  -14.5462   20.6751 O   0  0  0  0  0  0
  -24.6846  -31.7989   23.1505 C   0  0  0  0  0  0
  -25.9427  -32.4459   23.8044 C   0  0  1  0  0  0
  -27.2301  -26.7052   20.2072 C   0  0  0  0  0  0
  -25.6002  -33.8285   24.1944 N   0  0  0  0  0  0
  -23.5107  -30.4026   21.5019 C   0  0  2  0  0  0
  -24.9697  -28.7447   20.1125 C   0  0  0  0  0  0
  -22.7774  -29.4331   22.4685 C   0  0  0  0  0  0
  -18.0352  -28.1450   22.8468 C   0  0  0  0  0  0
  -24.1474  -36.7140   23.2655 C   0  0  0  0  0  0
  -26.0915  -30.5328   21.4156 C   0  0  0  0  0  0
  -26.1579  -29.0980   20.7637 C   0  0  0  0  0  0
  -27.2708  -28.1052   20.7821 C   0  0  0  0  0  0
  -26.0124  -26.5646   19.4924 C   0  0  0  0  0  0
  -24.9368  -27.5038   19.4529 C   0  0  0  0  0  0
  -23.7645  -29.6986   20.1370 C   0  0  0  0  0  0
  -25.4132  -36.2888   24.0279 C   0  0  1  0  0  0
  -20.5988  -28.3806   23.1138 C   0  0  2  0  0  0
  -20.6816  -26.9463   22.5407 C   0  0  0  0  0  0
  -19.5782  -26.6395   21.5225 C   0  0  0  0  0  0
  -18.1965  -26.7984   22.1629 C   0  0  0  0  0  0
  -19.1623  -28.8953   23.2786 C   0  0  0  0  0  0
  -18.9529  -30.1537   23.8832 C   0  0  0  0  0  0
  -17.6518  -30.6629   24.0566 C   0  0  0  0  0  0
  -25.9117  -34.9281   23.4946 C   0  0  0  0  0  0
  -16.5405  -29.9115   23.6364 C   0  0  0  0  0  0
  -16.7332  -28.6538   23.0377 C   0  0  0  0  0  0
  -26.4614  -31.6498   25.0667 C   0  0  0  0  0  0
  -25.3677  -31.3839   26.1277 C   0  0  0  0  0  0
  -27.0546  -30.2829   24.6586 C   0  0  0  0  0  0
  -27.6052  -32.4368   25.7490 C   0  0  0  0  0  0
  -27.5547  -37.1735   24.8481 C   0  0  0  0  0  0
  -21.4420  -29.3042   22.3434 N   0  0  0  0  0  0
  -26.4262  -37.3649   23.9409 N   0  0  0  0  0  0
  -24.7856  -30.9447   22.0747 N   0  0  0  0  0  0
  -23.4219  -28.7938   23.3035 O   0  0  0  0  0  0
  -28.1781  -25.4762   20.3098 O   0  0  0  0  0  0
  -26.5755  -34.8861   22.4565 O   0  0  0  0  0  0
  -23.5868  -32.1065   23.6462 O   0  0  0  0  0  0
  -27.8093  -20.8774   20.7599 C   0  0  0  0  0  0
  -28.1298  -19.3950   20.8041 C   0  0  0  0  0  0
  -28.5903  -22.0356   20.2640 C   0  0  0  0  0  0
  -29.7830  -21.2254   19.8261 C   0  0  0  0  0  0
  -29.3264  -18.6469   20.3635 C   0  0  0  0  0  0
  -30.8939  -21.9942   19.1421 C   0  0  0  0  0  0
  -27.9289  -23.7722   19.9854 C   0  0  0  0  0  0
  -30.0944  -19.7720   19.8921 N   0  0  0  0  0  0
  -29.4681  -16.9277   20.4321 N   0  0  0  0  0  0
  -31.4254  -13.3207   19.1825 H   0  0  0  0  0  0
  -30.5832  -12.2082   20.2084 H   0  0  0  0  0  0
  -30.0022  -11.8196   17.7860 H   0  0  0  0  0  0
  -29.5124  -13.4875   17.6191 H   0  0  0  0  0  0
  -28.1489  -11.2988   19.1993 H   0  0  0  0  0  0
  -27.4538  -12.2455   17.9061 H   0  0  0  0  0  0
  -27.4666  -14.2291   19.2525 H   0  0  0  0  0  0
  -28.8669  -12.7338   21.5203 H   0  0  0  0  0  0
  -28.1848  -14.3371   21.6404 H   0  0  0  0  0  0
  -25.2794   -9.5678   22.4745 H   0  0  0  0  0  0
  -24.0011   -7.4644   22.7485 H   0  0  0  0  0  0
  -21.0858   -8.8787   19.8962 H   0  0  0  0  0  0
  -22.3729  -10.9670   19.6158 H   0  0  0  0  0  0
  -21.2013   -7.6150   23.9708 H   0  0  0  0  0  0
  -21.1482   -6.0523   25.9067 H   0  0  0  0  0  0
  -22.0598   -2.7611   23.2838 H   0  0  0  0  0  0
  -22.4046  -11.9813   22.4845 H   0  0  0  0  0  0
  -21.1011  -13.1149   22.2686 H   0  0  0  0  0  0
  -24.6050  -15.8373   20.5079 H   0  0  0  0  0  0
  -26.2121  -15.6422   20.0293 H   0  0  0  0  0  0
  -26.7501  -32.4933   23.0747 H   0  0  0  0  0  0
  -25.0070  -33.9308   25.0044 H   0  0  0  0  0  0
  -22.8376  -31.2409   21.3108 H   0  0  0  0  0  0
  -23.3742  -35.9463   23.3306 H   0  0  0  0  0  0
  -24.3532  -36.8813   22.2070 H   0  0  0  0  0  0
  -23.7224  -37.6316   23.6737 H   0  0  0  0  0  0
  -26.2991  -31.2603   20.6299 H   0  0  0  0  0  0
  -26.9404  -30.5968   22.0840 H   0  0  0  0  0  0
  -28.1603  -28.3783   21.3318 H   0  0  0  0  0  0
  -25.8463  -25.6254   18.9840 H   0  0  0  0  0  0
  -24.0414  -27.2259   18.9143 H   0  0  0  0  0  0
  -23.9359  -30.4575   19.3726 H   0  0  0  0  0  0
  -22.8699  -29.1635   19.8142 H   0  0  0  0  0  0
  -25.1345  -36.1647   25.0768 H   0  0  0  0  0  0
  -21.0091  -28.3437   24.1255 H   0  0  0  0  0  0
  -20.5701  -26.2427   23.3674 H   0  0  0  0  0  0
  -21.6670  -26.7420   22.1205 H   0  0  0  0  0  0
  -19.6931  -25.6288   21.1297 H   0  0  0  0  0  0
  -19.6718  -27.3181   20.6733 H   0  0  0  0  0  0
  -17.4236  -26.6754   21.4023 H   0  0  0  0  0  0
  -18.0336  -26.0157   22.9050 H   0  0  0  0  0  0
  -19.8004  -30.7387   24.2154 H   0  0  0  0  0  0
  -17.5068  -31.6297   24.5196 H   0  0  0  0  0  0
  -15.5403  -30.2998   23.7733 H   0  0  0  0  0  0
  -15.8730  -28.0840   22.7119 H   0  0  0  0  0  0
  -24.5876  -30.7173   25.7584 H   0  0  0  0  0  0
  -24.8849  -32.3070   26.4486 H   0  0  0  0  0  0
  -25.7841  -30.9146   27.0194 H   0  0  0  0  0  0
  -26.3272  -29.6429   24.1584 H   0  0  0  0  0  0
  -27.3970  -29.7291   25.5337 H   0  0  0  0  0  0
  -27.9247  -30.3940   24.0114 H   0  0  0  0  0  0
  -27.2582  -33.3744   26.1846 H   0  0  0  0  0  0
  -28.3976  -32.6820   25.0403 H   0  0  0  0  0  0
  -28.0589  -31.8648   26.5592 H   0  0  0  0  0  0
  -28.2577  -38.0018   24.7482 H   0  0  0  0  0  0
  -28.1026  -36.2543   24.6365 H   0  0  0  0  0  0
  -27.2261  -37.1446   25.8885 H   0  0  0  0  0  0
  -20.9723  -29.8654   21.6465 H   0  0  0  0  0  0
  -26.0085  -38.2694   24.1420 H   0  0  0  0  0  0
  -26.8198  -21.1270   21.1138 H   0  0  0  0  0  0
  -27.3384  -18.7794   21.2088 H   0  0  0  0  0  0
  -30.5944  -23.0183   18.9220 H   0  0  0  0  0  0
  -31.1680  -21.5171   18.2016 H   0  0  0  0  0  0
  -31.7780  -22.0305   19.7787 H   0  0  0  0  0  0
  -26.8960  -23.6507   20.3129 H   0  0  0  0  0  0
  -27.8487  -23.7853   18.8983 H   0  0  0  0  0  0
  -28.5456  -16.5804   20.6400 H   0  0  0  0  0  0
  1 25  1  0  0  0
  1 30  2  0  0  0
  1 79  1  0  0  0
  2  3  1  0  0  0
  2 25  1  0  0  0
  2 80  1  0  0  0
  2 81  1  0  0  0
  3  4  1  0  0  0
  3 82  1  0  0  0
  3 83  1  0  0  0
  4  5  1  0  0  0
  4 84  1  0  0  0
  4 85  1  0  0  0
  5  6  1  0  0  0
  5 26  1  0  0  0
  5 86  1  0  0  0
  6 25  1  0  0  0
  6 87  1  0  0  0
  6 88  1  0  0  0
  7  8  2  0  0  0
  7 26  1  0  0  0
  7 29  1  0  0  0
  8  9  1  0  0  0
  8 22  1  0  0  0
  9 10  1  0  0  0
  9 27  2  0  0  0
 10 11  2  0  0  0
 10 15  1  0  0  0
 11 12  1  0  0  0
 11 89  1  0  0  0
 12 13  2  0  0  0
 12 90  1  0  0  0
 13 14  1  0  0  0
 13 31  1  0  0  0
 14 15  2  0  0  0
 14 91  1  0  0  0
 15 92  1  0  0  0
 16 17  2  0  0  0
 16 21  1  0  0  0
 16 31  1  0  0  0
 17 18  1  0  0  0
 17 93  1  0  0  0
 18 19  2  0  0  0
 18 94  1  0  0  0
 19 20  1  0  0  0
 19 24  1  0  0  0
 20 21  2  0  0  0
 20 95  1  0  0  0
 21 23  1  0  0  0
 22 28  1  0  0  0
 22 32  2  0  0  0
 26 27  1  0  0  0
 28 96  1  0  0  0
 28 97  1  0  0  0
 29 98  1  0  0  0
 29 99  1  0  0  0
 33 34  1  0  0  0
 33 66  1  0  0  0
 33 70  2  0  0  0
 34 36  1  0  0  0
 34 59  1  0  0  0
 34100  1  0  0  0
 35 44  2  0  0  0
 35 45  1  0  0  0
 35 68  1  0  0  0
 36 56  1  0  0  0
 36101  1  0  0  0
 37 39  1  0  0  0
 37 47  1  0  0  0
 37 66  1  0  0  0
 37102  1  0  0  0
 38 43  2  0  0  0
 38 46  1  0  0  0
 38 47  1  0  0  0
 39 64  1  0  0  0
 39 67  2  0  0  0
 40 52  1  0  0  0
 40 53  2  0  0  0
 40 58  1  0  0  0
 41103  1  0  0  0
 41104  1  0  0  0
 41105  1  0  0  0
 41 48  1  0  0  0
 42 43  1  0  0  0
 42 66  1  0  0  0
 42106  1  0  0  0
 42107  1  0  0  0
 43 44  1  0  0  0
 44108  1  0  0  0
 45 46  2  0  0  0
 45109  1  0  0  0
 46110  1  0  0  0
 47111  1  0  0  0
 47112  1  0  0  0
 48 56  1  0  0  0
 48 65  1  0  0  0
 48113  1  0  0  0
 49 50  1  0  0  0
 49 53  1  0  0  0
 49 64  1  0  0  0
 49114  1  0  0  0
 50 51  1  0  0  0
 50115  1  0  0  0
 50116  1  0  0  0
 51 52  1  0  0  0
 51117  1  0  0  0
 51118  1  0  0  0
 52119  1  0  0  0
 52120  1  0  0  0
 53 54  1  0  0  0
 54 55  2  0  0  0
 54121  1  0  0  0
 55 57  1  0  0  0
 55122  1  0  0  0
 56 69  2  0  0  0
 57 58  2  0  0  0
 57123  1  0  0  0
 58124  1  0  0  0
 59 60  1  0  0  0
 59 61  1  0  0  0
 59 62  1  0  0  0
 60125  1  0  0  0
 60126  1  0  0  0
 60127  1  0  0  0
 61128  1  0  0  0
 61129  1  0  0  0
 61130  1  0  0  0
 62131  1  0  0  0
 62132  1  0  0  0
 62133  1  0  0  0
 63 65  1  0  0  0
 63134  1  0  0  0
 63135  1  0  0  0
 63136  1  0  0  0
 64137  1  0  0  0
 65138  1  0  0  0
 68 77  1  0  0  0
 71 72  2  0  0  0
 71 73  1  0  0  0
 71139  1  0  0  0
 72 75  1  0  0  0
 72140  1  0  0  0
 73 74  2  0  0  0
 73 77  1  0  0  0
 74 76  1  0  0  0
 74 78  1  0  0  0
 75 78  2  0  0  0
 75 79  1  0  0  0
 76141  1  0  0  0
 76142  1  0  0  0
 76143  1  0  0  0
 77144  1  0  0  0
 77145  1  0  0  0
 79146  1  0  0  0
M  ISO  4   1 100  68 101  77 101  79 100
M  END
> <chiral flag>
0

> <version>
0

> <s_m_source_file>
/data/baiqing/PycharmProjects/Reinvent-master-3.2/result/LINK_invent/BTK/process_docking_weight1_custom_sum_contain_oxygen_bond_distance_aromatic_linkinvent_7_9_3/rearranged_h_0178.sdf

> <i_m_source_file_index>
59

> <r_mmod_Potential_Energy-OPLS-2005>
2154.05810546875

> <r_mmod_Stretch_Energy-OPLS-2005>
937.371032714844

> <r_mmod_Bend_Energy-OPLS-2005>
692.173034667969

> <r_mmod_Torsional_Energy-OPLS-2005>
219.083602905273

> <r_mmod_Improper_Torsional_Energy-OPLS-2005>
6.6822681427002

> <r_mmod_Van_der_Waal_Energy-OPLS-2005>
134.004669189453

> <r_mmod_Electrostatic_Energy-OPLS-2005>
-483.310485839844

> <r_mmod_Solvation_Energy-OPLS-2005>
-237.927536010742

> <b_mmod_Minimization_Converged-OPLS-2005>
0

> <r_mmod_RMS_Derivative-OPLS-2005>
1.33145105838776

$$$$
60
                    3D
 Structure written by MMmdl.
158167  0  0  1  0            999 V2000
  -30.5242  -14.9909   20.4200 C   0  0  0  0  0  0
  -30.4399  -12.6155   19.5138 C   0  0  0  0  0  0
  -29.5272  -12.5391   18.2665 C   0  0  0  0  0  0
  -28.0593  -12.3186   18.6787 C   0  0  0  0  0  0
  -27.6278  -13.2523   19.8398 C   0  0  2  0  0  0
  -28.6669  -13.2900   20.9805 C   0  0  0  0  0  0
  -25.2442  -13.8216   20.5705 C   0  0  0  0  0  0
  -24.1768  -13.0439   20.9243 C   0  0  0  0  0  0
  -24.6389  -11.6929   20.8760 C   0  0  0  0  0  0
  -23.9072  -10.4294   21.0410 C   0  0  0  0  0  0
  -24.3621   -9.4207   21.9189 C   0  0  0  0  0  0
  -23.6294   -8.2242   22.0754 C   0  0  0  0  0  0
  -22.4277   -8.0281   21.3541 C   0  0  0  0  0  0
  -21.9914   -9.0256   20.4644 C   0  0  0  0  0  0
  -22.7243  -10.2134   20.3057 C   0  0  0  0  0  0
  -21.6856   -6.0733   22.5278 C   0  0  0  0  0  0
  -21.4018   -6.5637   23.8212 C   0  0  0  0  0  0
  -21.3664   -5.6789   24.9175 C   0  0  0  0  0  0
  -21.6041   -4.3051   24.7225 C   0  0  0  0  0  0
  -21.8817   -3.8144   23.4346 C   0  0  0  0  0  0
  -21.9193   -4.6960   22.3401 C   0  0  0  0  0  0
  -22.7789  -13.5210   21.1894 C   0  0  0  0  0  0
  -22.1662   -4.2145   21.0978 F   0  0  0  0  0  0
  -21.5630   -3.4535   25.7736 F   0  0  0  0  0  0
  -29.9390  -13.7207   20.3872 N   0  0  0  0  0  0
  -26.2870  -12.9459   20.3238 N   0  0  0  0  0  0
  -25.9321  -11.6585   20.5731 N   0  0  0  0  0  0
  -22.0440  -12.8194   22.0446 N   0  0  0  0  0  0
  -25.4074  -15.1937   20.4068 N   0  0  0  0  0  0
  -31.7216  -15.0510   20.1215 O   0  0  0  0  0  0
  -21.6641   -6.8878   21.4240 O   0  0  0  0  0  0
  -22.3468  -14.5513   20.6737 O   0  0  0  0  0  0
  -24.6467  -31.8411   23.1845 C   0  0  0  0  0  0
  -25.9224  -32.4681   23.8253 C   0  0  1  0  0  0
  -27.2172  -27.0949   20.1620 C   0  0  0  0  0  0
  -25.5955  -33.8485   24.2172 N   0  0  0  0  0  0
  -23.4522  -30.4582   21.5322 C   0  0  2  0  0  0
  -24.9028  -28.8761   20.1136 C   0  0  0  0  0  0
  -22.7585  -29.4536   22.4857 C   0  0  0  0  0  0
  -18.0312  -28.1393   22.8481 C   0  0  0  0  0  0
  -24.1491  -36.7241   23.2643 C   0  0  0  0  0  0
  -26.0111  -30.7009   21.3897 C   0  0  0  0  0  0
  -26.0820  -29.3075   20.7342 C   0  0  0  0  0  0
  -27.2405  -28.4352   20.7366 C   0  0  0  0  0  0
  -26.0120  -26.7779   19.4981 C   0  0  0  0  0  0
  -24.8831  -27.6268   19.4772 C   0  0  0  0  0  0
  -23.6810  -29.7832   20.1539 C   0  0  0  0  0  0
  -25.4122  -36.3020   24.0316 C   0  0  1  0  0  0
  -20.5924  -28.3727   23.1224 C   0  0  2  0  0  0
  -20.6791  -26.9426   22.5399 C   0  0  0  0  0  0
  -19.5765  -26.6384   21.5209 C   0  0  0  0  0  0
  -18.1949  -26.7934   22.1624 C   0  0  0  0  0  0
  -19.1568  -28.8883   23.2842 C   0  0  0  0  0  0
  -18.9480  -30.1480   23.8872 C   0  0  0  0  0  0
  -17.6475  -30.6592   24.0560 C   0  0  0  0  0  0
  -25.9077  -34.9399   23.5055 C   0  0  0  0  0  0
  -16.5366  -29.9082   23.6341 C   0  0  0  0  0  0
  -16.7297  -28.6495   23.0368 C   0  0  0  0  0  0
  -26.4524  -31.6560   25.0711 C   0  0  0  0  0  0
  -25.3694  -31.3765   26.1397 C   0  0  0  0  0  0
  -27.0401  -30.2953   24.6323 C   0  0  0  0  0  0
  -27.6051  -32.4333   25.7495 C   0  0  0  0  0  0
  -27.5572  -37.1774   24.8464 C   0  0  0  0  0  0
  -21.4276  -29.3043   22.3593 N   0  0  0  0  0  0
  -26.4282  -37.3739   23.9409 N   0  0  0  0  0  0
  -24.7237  -31.0225   22.0907 N   0  0  0  0  0  0
  -23.4204  -28.8105   23.3041 O   0  0  0  0  0  0
  -28.2678  -26.0916   20.1994 O   0  0  0  0  0  0
  -26.5669  -34.8903   22.4637 O   0  0  0  0  0  0
  -23.5577  -32.1321   23.7033 O   0  0  0  0  0  0
  -28.6925  -19.0776   22.1100 C   0  0  0  0  0  0
  -29.3096  -19.1108   20.8334 C   0  0  0  0  0  0
  -28.2857  -21.4097   22.1174 C   0  0  0  0  0  0
  -28.8345  -21.6177   20.8224 C   0  0  0  0  0  0
  -27.4421  -16.8889   22.8331 C   0  0  0  0  0  0
  -27.6170  -17.6842   24.0963 C   0  0  0  0  0  0
  -28.6167  -17.8368   22.9616 C   0  0  0  0  0  0
  -27.8115  -22.5400   23.0076 C   0  0  0  0  0  0
  -29.0195  -23.1863   20.2439 C   0  0  0  0  0  0
  -30.0345  -17.7244   20.2382 C   0  0  0  0  0  0
  -27.9808  -24.5498   20.3904 C   0  0  0  0  0  0
  -28.2086  -20.1930   22.7131 N   0  0  0  0  0  0
  -29.3587  -20.4168   20.2172 N   0  0  0  0  0  0
  -29.7501  -16.1857   20.5732 N   0  0  0  0  0  0
  -31.4738  -12.7762   19.2047 H   0  0  0  0  0  0
  -30.4387  -11.6676   20.0543 H   0  0  0  0  0  0
  -29.8559  -11.7365   17.6048 H   0  0  0  0  0  0
  -29.6114  -13.4638   17.6939 H   0  0  0  0  0  0
  -27.9603  -11.2788   18.9912 H   0  0  0  0  0  0
  -27.3981  -12.4422   17.8195 H   0  0  0  0  0  0
  -27.5872  -14.2531   19.4091 H   0  0  0  0  0  0
  -28.7623  -12.3142   21.4596 H   0  0  0  0  0  0
  -28.3568  -13.9838   21.7608 H   0  0  0  0  0  0
  -25.2766   -9.5688   22.4766 H   0  0  0  0  0  0
  -24.0006   -7.4635   22.7473 H   0  0  0  0  0  0
  -21.0849   -8.8771   19.8948 H   0  0  0  0  0  0
  -22.3704  -10.9672   19.6164 H   0  0  0  0  0  0
  -21.2014   -7.6147   23.9714 H   0  0  0  0  0  0
  -21.1488   -6.0520   25.9075 H   0  0  0  0  0  0
  -22.0592   -2.7608   23.2843 H   0  0  0  0  0  0
  -22.4061  -11.9864   22.4847 H   0  0  0  0  0  0
  -21.1050  -13.1202   22.2635 H   0  0  0  0  0  0
  -24.6327  -15.8386   20.5153 H   0  0  0  0  0  0
  -26.2287  -15.6280   20.0090 H   0  0  0  0  0  0
  -26.7294  -32.5274   23.0981 H   0  0  0  0  0  0
  -25.0062  -33.9590   25.0293 H   0  0  0  0  0  0
  -22.7560  -31.2844   21.3742 H   0  0  0  0  0  0
  -23.3761  -35.9566   23.3290 H   0  0  0  0  0  0
  -24.3572  -36.8889   22.2058 H   0  0  0  0  0  0
  -23.7236  -37.6426   23.6696 H   0  0  0  0  0  0
  -26.1719  -31.4520   20.6145 H   0  0  0  0  0  0
  -26.8783  -30.7521   22.0355 H   0  0  0  0  0  0
  -28.1402  -28.7635   21.2373 H   0  0  0  0  0  0
  -25.9117  -25.8328   18.9878 H   0  0  0  0  0  0
  -23.9870  -27.2935   18.9716 H   0  0  0  0  0  0
  -23.8165  -30.5547   19.3953 H   0  0  0  0  0  0
  -22.7962  -29.2232   19.8459 H   0  0  0  0  0  0
  -25.1314  -36.1842   25.0810 H   0  0  0  0  0  0
  -21.0015  -28.3318   24.1346 H   0  0  0  0  0  0
  -20.5678  -26.2340   23.3619 H   0  0  0  0  0  0
  -21.6657  -26.7425   22.1198 H   0  0  0  0  0  0
  -19.6914  -25.6291   21.1250 H   0  0  0  0  0  0
  -19.6694  -27.3182   20.6731 H   0  0  0  0  0  0
  -17.4211  -26.6683   21.4030 H   0  0  0  0  0  0
  -18.0349  -26.0074   22.9022 H   0  0  0  0  0  0
  -19.7957  -30.7306   24.2214 H   0  0  0  0  0  0
  -17.5031  -31.6269   24.5167 H   0  0  0  0  0  0
  -15.5366  -30.2974   23.7684 H   0  0  0  0  0  0
  -15.8696  -28.0808   22.7102 H   0  0  0  0  0  0
  -24.5869  -30.7128   25.7702 H   0  0  0  0  0  0
  -24.8885  -32.2955   26.4764 H   0  0  0  0  0  0
  -25.7951  -30.8962   27.0217 H   0  0  0  0  0  0
  -26.3038  -29.6654   24.1320 H   0  0  0  0  0  0
  -27.3987  -29.7276   25.4917 H   0  0  0  0  0  0
  -27.8957  -30.4171   23.9677 H   0  0  0  0  0  0
  -27.2648  -33.3657   26.2011 H   0  0  0  0  0  0
  -28.3891  -32.6853   25.0343 H   0  0  0  0  0  0
  -28.0693  -31.8501   26.5456 H   0  0  0  0  0  0
  -28.2582  -38.0079   24.7521 H   0  0  0  0  0  0
  -28.1078  -36.2607   24.6289 H   0  0  0  0  0  0
  -27.2293  -37.1421   25.8868 H   0  0  0  0  0  0
  -20.9498  -29.8722   21.6737 H   0  0  0  0  0  0
  -26.0144  -38.2806   24.1418 H   0  0  0  0  0  0
  -26.6200  -17.1757   22.1802 H   0  0  0  0  0  0
  -27.6247  -15.8212   22.9165 H   0  0  0  0  0  0
  -27.9349  -17.1329   24.9791 H   0  0  0  0  0  0
  -26.9021  -18.4831   24.2813 H   0  0  0  0  0  0
  -29.6059  -17.4113   23.1213 H   0  0  0  0  0  0
  -26.8514  -22.9226   22.6619 H   0  0  0  0  0  0
  -28.5472  -23.3437   23.0375 H   0  0  0  0  0  0
  -27.6740  -22.2038   24.0358 H   0  0  0  0  0  0
  -29.2393  -23.0807   19.1813 H   0  0  0  0  0  0
  -29.9648  -23.5029   20.6826 H   0  0  0  0  0  0
  -31.0968  -17.8647   20.4391 H   0  0  0  0  0  0
  -29.9529  -17.8006   19.1538 H   0  0  0  0  0  0
  -27.5844  -24.5482   21.3987 H   0  0  0  0  0  0
  -27.1233  -24.2943   19.7731 H   0  0  0  0  0  0
  -28.7883  -16.0039   20.8130 H   0  0  0  0  0  0
  1 25  1  0  0  0
  1 30  2  0  0  0
  1 84  1  0  0  0
  2  3  1  0  0  0
  2 25  1  0  0  0
  2 85  1  0  0  0
  2 86  1  0  0  0
  3  4  1  0  0  0
  3 87  1  0  0  0
  3 88  1  0  0  0
  4  5  1  0  0  0
  4 89  1  0  0  0
  4 90  1  0  0  0
  5  6  1  0  0  0
  5 26  1  0  0  0
  5 91  1  0  0  0
  6 25  1  0  0  0
  6 92  1  0  0  0
  6 93  1  0  0  0
  7  8  2  0  0  0
  7 26  1  0  0  0
  7 29  1  0  0  0
  8  9  1  0  0  0
  8 22  1  0  0  0
  9 10  1  0  0  0
  9 27  2  0  0  0
 10 11  2  0  0  0
 10 15  1  0  0  0
 11 12  1  0  0  0
 11 94  1  0  0  0
 12 13  2  0  0  0
 12 95  1  0  0  0
 13 14  1  0  0  0
 13 31  1  0  0  0
 14 15  2  0  0  0
 14 96  1  0  0  0
 15 97  1  0  0  0
 16 17  2  0  0  0
 16 21  1  0  0  0
 16 31  1  0  0  0
 17 18  1  0  0  0
 17 98  1  0  0  0
 18 19  2  0  0  0
 18 99  1  0  0  0
 19 20  1  0  0  0
 19 24  1  0  0  0
 20 21  2  0  0  0
 20100  1  0  0  0
 21 23  1  0  0  0
 22 28  1  0  0  0
 22 32  2  0  0  0
 26 27  1  0  0  0
 28101  1  0  0  0
 28102  1  0  0  0
 29103  1  0  0  0
 29104  1  0  0  0
 33 34  1  0  0  0
 33 66  1  0  0  0
 33 70  2  0  0  0
 34 36  1  0  0  0
 34 59  1  0  0  0
 34105  1  0  0  0
 35 44  2  0  0  0
 35 45  1  0  0  0
 35 68  1  0  0  0
 36 56  1  0  0  0
 36106  1  0  0  0
 37 39  1  0  0  0
 37 47  1  0  0  0
 37 66  1  0  0  0
 37107  1  0  0  0
 38 43  2  0  0  0
 38 46  1  0  0  0
 38 47  1  0  0  0
 39 64  1  0  0  0
 39 67  2  0  0  0
 40 52  1  0  0  0
 40 53  2  0  0  0
 40 58  1  0  0  0
 41108  1  0  0  0
 41109  1  0  0  0
 41110  1  0  0  0
 41 48  1  0  0  0
 42 43  1  0  0  0
 42 66  1  0  0  0
 42111  1  0  0  0
 42112  1  0  0  0
 43 44  1  0  0  0
 44113  1  0  0  0
 45 46  2  0  0  0
 45114  1  0  0  0
 46115  1  0  0  0
 47116  1  0  0  0
 47117  1  0  0  0
 48 56  1  0  0  0
 48 65  1  0  0  0
 48118  1  0  0  0
 49 50  1  0  0  0
 49 53  1  0  0  0
 49 64  1  0  0  0
 49119  1  0  0  0
 50 51  1  0  0  0
 50120  1  0  0  0
 50121  1  0  0  0
 51 52  1  0  0  0
 51122  1  0  0  0
 51123  1  0  0  0
 52124  1  0  0  0
 52125  1  0  0  0
 53 54  1  0  0  0
 54 55  2  0  0  0
 54126  1  0  0  0
 55 57  1  0  0  0
 55127  1  0  0  0
 56 69  2  0  0  0
 57 58  2  0  0  0
 57128  1  0  0  0
 58129  1  0  0  0
 59 60  1  0  0  0
 59 61  1  0  0  0
 59 62  1  0  0  0
 60130  1  0  0  0
 60131  1  0  0  0
 60132  1  0  0  0
 61133  1  0  0  0
 61134  1  0  0  0
 61135  1  0  0  0
 62136  1  0  0  0
 62137  1  0  0  0
 62138  1  0  0  0
 63 65  1  0  0  0
 63139  1  0  0  0
 63140  1  0  0  0
 63141  1  0  0  0
 64142  1  0  0  0
 65143  1  0  0  0
 68 81  1  0  0  0
 71 72  1  0  0  0
 71 82  2  0  0  0
 71 77  1  0  0  0
 72 80  1  0  0  0
 72 83  2  0  0  0
 73 74  2  0  0  0
 73 78  1  0  0  0
 73 82  1  0  0  0
 74 79  1  0  0  0
 74 83  1  0  0  0
 75 76  1  0  0  0
 75 77  1  0  0  0
 75144  1  0  0  0
 75145  1  0  0  0
 76 77  1  0  0  0
 76146  1  0  0  0
 76147  1  0  0  0
 77148  1  0  0  0
 78149  1  0  0  0
 78150  1  0  0  0
 78151  1  0  0  0
 79 81  1  0  0  0
 79152  1  0  0  0
 79153  1  0  0  0
 80 84  1  0  0  0
 80154  1  0  0  0
 80155  1  0  0  0
 81156  1  0  0  0
 81157  1  0  0  0
 84158  1  0  0  0
M  ISO  4   1 100  68 101  81 101  84 100
M  END
> <chiral flag>
0

> <version>
0

> <s_m_source_file>
/data/baiqing/PycharmProjects/Reinvent-master-3.2/result/LINK_invent/BTK/process_docking_weight1_custom_sum_contain_oxygen_bond_distance_aromatic_linkinvent_7_9_3/rearranged_h_0178.sdf

> <i_m_source_file_index>
60

> <r_mmod_Potential_Energy-OPLS-2005>
602.630065917969

> <r_mmod_Stretch_Energy-OPLS-2005>
323.447723388672

> <r_mmod_Bend_Energy-OPLS-2005>
289.496398925781

> <r_mmod_Torsional_Energy-OPLS-2005>
240.616912841797

> <r_mmod_Improper_Torsional_Energy-OPLS-2005>
6.57367515563965

> <r_mmod_Van_der_Waal_Energy-OPLS-2005>
129.187576293945

> <r_mmod_Electrostatic_Energy-OPLS-2005>
-383.216339111328

> <r_mmod_Solvation_Energy-OPLS-2005>
-227.072189331055

> <b_mmod_Minimization_Converged-OPLS-2005>
0

> <r_mmod_RMS_Derivative-OPLS-2005>
1.17748069763184

$$$$
61
                    3D
 Structure written by MMmdl.
162172  0  0  1  0            999 V2000
  -30.6782  -14.5023   20.5583 C   0  0  0  0  0  0
  -30.4219  -12.3234   19.4244 C   0  0  0  0  0  0
  -29.4945  -12.5133   18.2075 C   0  0  0  0  0  0
  -28.0154  -12.3723   18.6151 C   0  0  0  0  0  0
  -27.6579  -13.2094   19.8732 C   0  0  2  0  0  0
  -28.6991  -12.9994   20.9934 C   0  0  0  0  0  0
  -25.2581  -13.8163   20.5676 C   0  0  0  0  0  0
  -24.1834  -13.0442   20.9171 C   0  0  0  0  0  0
  -24.6382  -11.6907   20.8721 C   0  0  0  0  0  0
  -23.9048  -10.4290   21.0393 C   0  0  0  0  0  0
  -24.3613   -9.4212   21.9172 C   0  0  0  0  0  0
  -23.6295   -8.2249   22.0743 C   0  0  0  0  0  0
  -22.4281   -8.0274   21.3536 C   0  0  0  0  0  0
  -21.9899   -9.0242   20.4643 C   0  0  0  0  0  0
  -22.7214  -10.2130   20.3042 C   0  0  0  0  0  0
  -21.6869   -6.0727   22.5271 C   0  0  0  0  0  0
  -21.4014   -6.5631   23.8202 C   0  0  0  0  0  0
  -21.3663   -5.6786   24.9167 C   0  0  0  0  0  0
  -21.6053   -4.3047   24.7232 C   0  0  0  0  0  0
  -21.8819   -3.8141   23.4352 C   0  0  0  0  0  0
  -21.9201   -4.6953   22.3402 C   0  0  0  0  0  0
  -22.7864  -13.5240   21.1846 C   0  0  0  0  0  0
  -22.1667   -4.2135   21.0979 F   0  0  0  0  0  0
  -21.5639   -3.4535   25.7749 F   0  0  0  0  0  0
  -30.0259  -13.3120   20.4405 N   0  0  0  0  0  0
  -26.3004  -12.9330   20.3356 N   0  0  0  0  0  0
  -25.9315  -11.6491   20.5770 N   0  0  0  0  0  0
  -22.0516  -12.8220   22.0402 N   0  0  0  0  0  0
  -25.4346  -15.1881   20.4065 N   0  0  0  0  0  0
  -31.8163  -14.6818   20.1155 O   0  0  0  0  0  0
  -21.6651   -6.8869   21.4230 O   0  0  0  0  0  0
  -22.3539  -14.5541   20.6689 O   0  0  0  0  0  0
  -24.6154  -31.8677   23.2078 C   0  0  0  0  0  0
  -25.9035  -32.4824   23.8379 C   0  0  1  0  0  0
  -27.2359  -27.4080   20.1132 C   0  0  0  0  0  0
  -25.5880  -33.8620   24.2326 N   0  0  0  0  0  0
  -23.4074  -30.4886   21.5480 C   0  0  2  0  0  0
  -24.8595  -28.9533   20.1090 C   0  0  0  0  0  0
  -22.7432  -29.4647   22.4964 C   0  0  0  0  0  0
  -18.0279  -28.1394   22.8490 C   0  0  0  0  0  0
  -24.1491  -36.7315   23.2641 C   0  0  0  0  0  0
  -25.9382  -30.8253   21.3675 C   0  0  0  0  0  0
  -26.0167  -29.4562   20.7172 C   0  0  0  0  0  0
  -27.2093  -28.6912   20.7187 C   0  0  0  0  0  0
  -26.0704  -26.9339   19.4810 C   0  0  0  0  0  0
  -24.8832  -27.6934   19.4829 C   0  0  0  0  0  0
  -23.6202  -29.8208   20.1617 C   0  0  0  0  0  0
  -25.4113  -36.3118   24.0349 C   0  0  1  0  0  0
  -20.5869  -28.3678   23.1326 C   0  0  2  0  0  0
  -20.6770  -26.9411   22.5422 C   0  0  0  0  0  0
  -19.5742  -26.6391   21.5229 C   0  0  0  0  0  0
  -18.1921  -26.7933   22.1635 C   0  0  0  0  0  0
  -19.1526  -28.8848   23.2906 C   0  0  0  0  0  0
  -18.9448  -30.1457   23.8915 C   0  0  0  0  0  0
  -17.6448  -30.6596   24.0571 C   0  0  0  0  0  0
  -25.9035  -34.9480   23.5142 C   0  0  0  0  0  0
  -16.5346  -29.9098   23.6317 C   0  0  0  0  0  0
  -16.7265  -28.6518   23.0332 C   0  0  0  0  0  0
  -26.4449  -31.6581   25.0700 C   0  0  0  0  0  0
  -25.3718  -31.3690   26.1453 C   0  0  0  0  0  0
  -27.0241  -30.3010   24.6064 C   0  0  0  0  0  0
  -27.6038  -32.4277   25.7450 C   0  0  0  0  0  0
  -27.5588  -37.1816   24.8465 C   0  0  0  0  0  0
  -21.4152  -29.3042   22.3724 N   0  0  0  0  0  0
  -26.4299  -37.3805   23.9410 N   0  0  0  0  0  0
  -24.6718  -31.0748   22.1000 N   0  0  0  0  0  0
  -23.4197  -28.8205   23.3022 O   0  0  0  0  0  0
  -28.3429  -26.5790   20.1436 O   0  0  0  0  0  0
  -26.5609  -34.8935   22.4712 O   0  0  0  0  0  0
  -23.5336  -32.1424   23.7457 O   0  0  0  0  0  0
  -30.5161  -22.7217   21.2221 C   0  0  0  0  0  0
  -29.5035  -20.6427   20.4454 C   0  0  0  0  0  0
  -30.6585  -21.3704   20.8390 C   0  0  0  0  0  0
  -29.2540  -23.3501   21.2097 C   0  0  0  0  0  0
  -28.2696  -21.3566   20.4481 C   0  0  0  0  0  0
  -29.6190  -19.2325   19.9159 C   0  0  0  0  0  0
  -30.1173  -25.7770   21.5934 C   0  0  0  0  0  0
  -29.8741  -17.8396   22.1421 C   0  0  0  0  0  0
  -29.0919  -24.7033   21.9002 C   0  0  1  0  0  0
  -29.2419  -18.0361   20.7885 C   0  0  2  0  0  0
  -30.3101  -16.9394   21.0017 C   0  0  2  0  0  0
  -28.6591  -26.1312   21.4752 C   0  0  2  0  0  0
  -32.0523  -20.7576   20.9154 C   0  0  0  0  0  0
  -26.9647  -20.7043   20.0154 C   0  0  0  0  0  0
  -28.1503  -22.6618   20.8341 N   0  0  0  0  0  0
  -29.9370  -15.5331   21.0259 N   0  0  0  0  0  0
  -30.0044  -19.0235   18.7631 O   0  0  0  0  0  0
  -31.4660  -12.4250   19.1232 H   0  0  0  0  0  0
  -30.3272  -11.3134   19.8241 H   0  0  0  0  0  0
  -29.7375  -11.7913   17.4266 H   0  0  0  0  0  0
  -29.6621  -13.4994   17.7731 H   0  0  0  0  0  0
  -27.8220  -11.3164   18.8043 H   0  0  0  0  0  0
  -27.3700  -12.6547   17.7819 H   0  0  0  0  0  0
  -27.6979  -14.2575   19.5753 H   0  0  0  0  0  0
  -28.6807  -11.9643   21.3364 H   0  0  0  0  0  0
  -28.4616  -13.6008   21.8710 H   0  0  0  0  0  0
  -25.2767   -9.5704   22.4740 H   0  0  0  0  0  0
  -24.0023   -7.4640   22.7453 H   0  0  0  0  0  0
  -21.0843   -8.8730   19.8936 H   0  0  0  0  0  0
  -22.3659  -10.9657   19.6146 H   0  0  0  0  0  0
  -21.1978   -7.6136   23.9695 H   0  0  0  0  0  0
  -21.1498   -6.0521   25.9066 H   0  0  0  0  0  0
  -22.0600   -2.7603   23.2859 H   0  0  0  0  0  0
  -22.4157  -11.9893   22.4787 H   0  0  0  0  0  0
  -21.1114  -13.1207   22.2582 H   0  0  0  0  0  0
  -24.6721  -15.8499   20.5031 H   0  0  0  0  0  0
  -26.2847  -15.6160   20.0637 H   0  0  0  0  0  0
  -26.7109  -32.5547   23.1144 H   0  0  0  0  0  0
  -24.9956  -33.9776   25.0417 H   0  0  0  0  0  0
  -22.6964  -31.3059   21.4075 H   0  0  0  0  0  0
  -23.3754  -35.9646   23.3305 H   0  0  0  0  0  0
  -24.3586  -36.8926   22.2054 H   0  0  0  0  0  0
  -23.7232  -37.6522   23.6642 H   0  0  0  0  0  0
  -26.0536  -31.5876   20.5964 H   0  0  0  0  0  0
  -26.8258  -30.8823   21.9851 H   0  0  0  0  0  0
  -28.0986  -29.0756   21.1972 H   0  0  0  0  0  0
  -26.0765  -25.9598   19.0118 H   0  0  0  0  0  0
  -23.9948  -27.3035   19.0047 H   0  0  0  0  0  0
  -23.7295  -30.5981   19.4047 H   0  0  0  0  0  0
  -22.7446  -29.2421   19.8626 H   0  0  0  0  0  0
  -25.1285  -36.1985   25.0841 H   0  0  0  0  0  0
  -20.9963  -28.3241   24.1449 H   0  0  0  0  0  0
  -20.5702  -26.2284   23.3610 H   0  0  0  0  0  0
  -21.6638  -26.7464   22.1205 H   0  0  0  0  0  0
  -19.6911  -25.6306   21.1249 H   0  0  0  0  0  0
  -19.6697  -27.3215   20.6768 H   0  0  0  0  0  0
  -17.4200  -26.6693   21.4028 H   0  0  0  0  0  0
  -18.0319  -26.0091   22.9039 H   0  0  0  0  0  0
  -19.7922  -30.7280   24.2295 H   0  0  0  0  0  0
  -17.4998  -31.6280   24.5163 H   0  0  0  0  0  0
  -15.5346  -30.3009   23.7627 H   0  0  0  0  0  0
  -15.8664  -28.0856   22.7016 H   0  0  0  0  0  0
  -24.5890  -30.7040   25.7770 H   0  0  0  0  0  0
  -24.8919  -32.2854   26.4897 H   0  0  0  0  0  0
  -25.8073  -30.8836   27.0200 H   0  0  0  0  0  0
  -26.2764  -29.6826   24.1082 H   0  0  0  0  0  0
  -27.3954  -29.7183   25.4498 H   0  0  0  0  0  0
  -27.8641  -30.4289   23.9239 H   0  0  0  0  0  0
  -27.2656  -33.3552   26.2066 H   0  0  0  0  0  0
  -28.3818  -32.6873   25.0262 H   0  0  0  0  0  0
  -28.0729  -31.8378   26.5336 H   0  0  0  0  0  0
  -28.2600  -38.0114   24.7510 H   0  0  0  0  0  0
  -28.1092  -36.2649   24.6290 H   0  0  0  0  0  0
  -27.2315  -37.1461   25.8872 H   0  0  0  0  0  0
  -20.9316  -29.8758   21.6940 H   0  0  0  0  0  0
  -26.0194  -38.2885   24.1420 H   0  0  0  0  0  0
  -31.3775  -23.2671   21.5821 H   0  0  0  0  0  0
  -30.6777  -25.6850   20.6655 H   0  0  0  0  0  0
  -30.6809  -26.1733   22.4353 H   0  0  0  0  0  0
  -29.2396  -17.4182   22.9189 H   0  0  0  0  0  0
  -30.5796  -18.5917   22.4866 H   0  0  0  0  0  0
  -28.9255  -24.4887   22.9541 H   0  0  0  0  0  0
  -28.2254  -17.6718   20.6549 H   0  0  0  0  0  0
  -31.2989  -17.1604   20.6003 H   0  0  0  0  0  0
  -28.2764  -26.7835   22.2599 H   0  0  0  0  0  0
  -32.7966  -21.4770   20.5776 H   0  0  0  0  0  0
  -32.1788  -19.8651   20.3047 H   0  0  0  0  0  0
  -32.2857  -20.4942   21.9487 H   0  0  0  0  0  0
  -26.6538  -19.9514   20.7410 H   0  0  0  0  0  0
  -27.0703  -20.2232   19.0414 H   0  0  0  0  0  0
  -26.1616  -21.4375   19.9317 H   0  0  0  0  0  0
  -29.0096  -15.2975   21.3448 H   0  0  0  0  0  0
  1 25  1  0  0  0
  1 30  2  0  0  0
  1 86  1  0  0  0
  2  3  1  0  0  0
  2 25  1  0  0  0
  2 88  1  0  0  0
  2 89  1  0  0  0
  3  4  1  0  0  0
  3 90  1  0  0  0
  3 91  1  0  0  0
  4  5  1  0  0  0
  4 92  1  0  0  0
  4 93  1  0  0  0
  5  6  1  0  0  0
  5 26  1  0  0  0
  5 94  1  0  0  0
  6 25  1  0  0  0
  6 95  1  0  0  0
  6 96  1  0  0  0
  7  8  2  0  0  0
  7 26  1  0  0  0
  7 29  1  0  0  0
  8  9  1  0  0  0
  8 22  1  0  0  0
  9 10  1  0  0  0
  9 27  2  0  0  0
 10 11  2  0  0  0
 10 15  1  0  0  0
 11 12  1  0  0  0
 11 97  1  0  0  0
 12 13  2  0  0  0
 12 98  1  0  0  0
 13 14  1  0  0  0
 13 31  1  0  0  0
 14 15  2  0  0  0
 14 99  1  0  0  0
 15100  1  0  0  0
 16 17  2  0  0  0
 16 21  1  0  0  0
 16 31  1  0  0  0
 17 18  1  0  0  0
 17101  1  0  0  0
 18 19  2  0  0  0
 18102  1  0  0  0
 19 20  1  0  0  0
 19 24  1  0  0  0
 20 21  2  0  0  0
 20103  1  0  0  0
 21 23  1  0  0  0
 22 28  1  0  0  0
 22 32  2  0  0  0
 26 27  1  0  0  0
 28104  1  0  0  0
 28105  1  0  0  0
 29106  1  0  0  0
 29107  1  0  0  0
 33 34  1  0  0  0
 33 66  1  0  0  0
 33 70  2  0  0  0
 34 36  1  0  0  0
 34 59  1  0  0  0
 34108  1  0  0  0
 35 44  2  0  0  0
 35 45  1  0  0  0
 35 68  1  0  0  0
 36 56  1  0  0  0
 36109  1  0  0  0
 37 39  1  0  0  0
 37 47  1  0  0  0
 37 66  1  0  0  0
 37110  1  0  0  0
 38 43  2  0  0  0
 38 46  1  0  0  0
 38 47  1  0  0  0
 39 64  1  0  0  0
 39 67  2  0  0  0
 40 52  1  0  0  0
 40 53  2  0  0  0
 40 58  1  0  0  0
 41111  1  0  0  0
 41112  1  0  0  0
 41113  1  0  0  0
 41 48  1  0  0  0
 42 43  1  0  0  0
 42 66  1  0  0  0
 42114  1  0  0  0
 42115  1  0  0  0
 43 44  1  0  0  0
 44116  1  0  0  0
 45 46  2  0  0  0
 45117  1  0  0  0
 46118  1  0  0  0
 47119  1  0  0  0
 47120  1  0  0  0
 48 56  1  0  0  0
 48 65  1  0  0  0
 48121  1  0  0  0
 49 50  1  0  0  0
 49 53  1  0  0  0
 49 64  1  0  0  0
 49122  1  0  0  0
 50 51  1  0  0  0
 50123  1  0  0  0
 50124  1  0  0  0
 51 52  1  0  0  0
 51125  1  0  0  0
 51126  1  0  0  0
 52127  1  0  0  0
 52128  1  0  0  0
 53 54  1  0  0  0
 54 55  2  0  0  0
 54129  1  0  0  0
 55 57  1  0  0  0
 55130  1  0  0  0
 56 69  2  0  0  0
 57 58  2  0  0  0
 57131  1  0  0  0
 58132  1  0  0  0
 59 60  1  0  0  0
 59 61  1  0  0  0
 59 62  1  0  0  0
 60133  1  0  0  0
 60134  1  0  0  0
 60135  1  0  0  0
 61136  1  0  0  0
 61137  1  0  0  0
 61138  1  0  0  0
 62139  1  0  0  0
 62140  1  0  0  0
 62141  1  0  0  0
 63 65  1  0  0  0
 63142  1  0  0  0
 63143  1  0  0  0
 63144  1  0  0  0
 64145  1  0  0  0
 65146  1  0  0  0
 68 82  1  0  0  0
 71 73  2  0  0  0
 71 74  1  0  0  0
 71147  1  0  0  0
 72 73  1  0  0  0
 72 75  2  0  0  0
 72 76  1  0  0  0
 73 83  1  0  0  0
 74 85  2  0  0  0
 74 79  1  0  0  0
 75 84  1  0  0  0
 75 85  1  0  0  0
 76 87  2  0  0  0
 76 80  1  0  0  0
 77 79  1  0  0  0
 77 82  1  0  0  0
 77148  1  0  0  0
 77149  1  0  0  0
 78 80  1  0  0  0
 78 81  1  0  0  0
 78150  1  0  0  0
 78151  1  0  0  0
 79 82  1  0  0  0
 79152  1  0  0  0
 80 81  1  0  0  0
 80153  1  0  0  0
 81 86  1  0  0  0
 81154  1  0  0  0
 82155  1  0  0  0
 83156  1  0  0  0
 83157  1  0  0  0
 83158  1  0  0  0
 84159  1  0  0  0
 84160  1  0  0  0
 84161  1  0  0  0
 86162  1  0  0  0
M  ISO  4   1 100  68 101  82 101  86 100
M  END
> <chiral flag>
0

> <version>
0

> <s_m_source_file>
/data/baiqing/PycharmProjects/Reinvent-master-3.2/result/LINK_invent/BTK/process_docking_weight1_custom_sum_contain_oxygen_bond_distance_aromatic_linkinvent_7_9_3/rearranged_h_0178.sdf

> <i_m_source_file_index>
61

> <r_mmod_Potential_Energy-OPLS-2005>
25.2429943084717

> <r_mmod_Stretch_Energy-OPLS-2005>
47.8513870239258

> <r_mmod_Bend_Energy-OPLS-2005>
138.302352905273

> <r_mmod_Torsional_Energy-OPLS-2005>
335.006164550781

> <r_mmod_Improper_Torsional_Energy-OPLS-2005>
6.28597450256348

> <r_mmod_Van_der_Waal_Energy-OPLS-2005>
142.663558959961

> <r_mmod_Electrostatic_Energy-OPLS-2005>
-420.988708496094

> <r_mmod_Solvation_Energy-OPLS-2005>
-243.006988525391

> <b_mmod_Minimization_Converged-OPLS-2005>
0

> <r_mmod_RMS_Derivative-OPLS-2005>
2.35370945930481

$$$$
62
                    3D
 Structure written by MMmdl.
154163  0  0  1  0            999 V2000
  -30.5396  -14.9345   20.4224 C   0  0  0  0  0  0
  -30.4453  -12.5803   19.4858 C   0  0  0  0  0  0
  -29.5201  -12.5277   18.2481 C   0  0  0  0  0  0
  -28.0524  -12.3181   18.6681 C   0  0  0  0  0  0
  -27.6321  -13.2451   19.8383 C   0  0  2  0  0  0
  -28.6788  -13.2594   20.9724 C   0  0  0  0  0  0
  -25.2477  -13.8209   20.5710 C   0  0  0  0  0  0
  -24.1790  -13.0434   20.9232 C   0  0  0  0  0  0
  -24.6403  -11.6919   20.8754 C   0  0  0  0  0  0
  -23.9086  -10.4290   21.0410 C   0  0  0  0  0  0
  -24.3630   -9.4202   21.9190 C   0  0  0  0  0  0
  -23.6299   -8.2237   22.0758 C   0  0  0  0  0  0
  -22.4281   -8.0280   21.3546 C   0  0  0  0  0  0
  -21.9926   -9.0254   20.4643 C   0  0  0  0  0  0
  -22.7259  -10.2131   20.3056 C   0  0  0  0  0  0
  -21.6855   -6.0737   22.5281 C   0  0  0  0  0  0
  -21.4017   -6.5640   23.8212 C   0  0  0  0  0  0
  -21.3660   -5.6796   24.9176 C   0  0  0  0  0  0
  -21.6046   -4.3058   24.7224 C   0  0  0  0  0  0
  -21.8820   -3.8147   23.4347 C   0  0  0  0  0  0
  -21.9196   -4.6965   22.3405 C   0  0  0  0  0  0
  -22.7805  -13.5205   21.1879 C   0  0  0  0  0  0
  -22.1660   -4.2149   21.0982 F   0  0  0  0  0  0
  -21.5631   -3.4540   25.7738 F   0  0  0  0  0  0
  -29.9529  -13.6728   20.3700 N   0  0  0  0  0  0
  -26.2904  -12.9434   20.3250 N   0  0  0  0  0  0
  -25.9339  -11.6565   20.5747 N   0  0  0  0  0  0
  -22.0450  -12.8185   22.0427 N   0  0  0  0  0  0
  -25.4137  -15.1936   20.4117 N   0  0  0  0  0  0
  -31.7476  -15.0138   20.1772 O   0  0  0  0  0  0
  -21.6641   -6.8877   21.4243 O   0  0  0  0  0  0
  -22.3483  -14.5507   20.6721 O   0  0  0  0  0  0
  -24.6429  -31.8433   23.1882 C   0  0  0  0  0  0
  -25.9207  -32.4684   23.8265 C   0  0  1  0  0  0
  -27.2153  -27.1343   20.1523 C   0  0  0  0  0  0
  -25.5955  -33.8490   24.2184 N   0  0  0  0  0  0
  -23.4464  -30.4626   21.5344 C   0  0  2  0  0  0
  -24.8971  -28.8889   20.1120 C   0  0  0  0  0  0
  -22.7560  -29.4542   22.4867 C   0  0  0  0  0  0
  -18.0300  -28.1396   22.8482 C   0  0  0  0  0  0
  -24.1491  -36.7246   23.2642 C   0  0  0  0  0  0
  -26.0032  -30.7146   21.3897 C   0  0  0  0  0  0
  -26.0751  -29.3250   20.7338 C   0  0  0  0  0  0
  -27.2379  -28.4641   20.7379 C   0  0  0  0  0  0
  -26.0177  -26.8080   19.4806 C   0  0  0  0  0  0
  -24.8816  -27.6433   19.4685 C   0  0  0  0  0  0
  -23.6723  -29.7895   20.1551 C   0  0  0  0  0  0
  -25.4123  -36.3023   24.0316 C   0  0  1  0  0  0
  -20.5911  -28.3719   23.1237 C   0  0  2  0  0  0
  -20.6778  -26.9423   22.5405 C   0  0  0  0  0  0
  -19.5754  -26.6386   21.5209 C   0  0  0  0  0  0
  -18.1936  -26.7939   22.1621 C   0  0  0  0  0  0
  -19.1556  -28.8876   23.2852 C   0  0  0  0  0  0
  -18.9476  -30.1476   23.8874 C   0  0  0  0  0  0
  -17.6472  -30.6596   24.0558 C   0  0  0  0  0  0
  -25.9081  -34.9399   23.5061 C   0  0  0  0  0  0
  -16.5363  -29.9087   23.6343 C   0  0  0  0  0  0
  -16.7284  -28.6502   23.0371 C   0  0  0  0  0  0
  -26.4540  -31.6549   25.0702 C   0  0  0  0  0  0
  -25.3729  -31.3717   26.1396 C   0  0  0  0  0  0
  -27.0413  -30.2946   24.6282 C   0  0  0  0  0  0
  -27.6069  -32.4312   25.7491 C   0  0  0  0  0  0
  -27.5578  -37.1771   24.8461 C   0  0  0  0  0  0
  -21.4251  -29.3043   22.3607 N   0  0  0  0  0  0
  -26.4282  -37.3739   23.9414 N   0  0  0  0  0  0
  -24.7173  -31.0287   22.0919 N   0  0  0  0  0  0
  -23.4203  -28.8099   23.3027 O   0  0  0  0  0  0
  -28.2488  -26.1272   20.1745 O   0  0  0  0  0  0
  -26.5671  -34.8898   22.4643 O   0  0  0  0  0  0
  -23.5550  -32.1315   23.7104 O   0  0  0  0  0  0
  -28.8798  -21.2277   18.7713 C   0  0  0  0  0  0
  -28.5787  -22.6227   19.0196 C   0  0  0  0  0  0
  -28.9204  -22.2333   21.3329 C   0  0  0  0  0  0
  -29.1962  -20.2662   19.7879 C   0  0  0  0  0  0
  -29.2339  -20.8203   21.0889 C   0  0  0  0  0  0
  -28.5614  -23.2167   20.3194 C   0  0  0  0  0  0
  -29.4242  -18.6889   19.4972 C   0  0  0  0  0  0
  -29.6350  -19.8366   22.2098 C   0  0  0  0  0  0
  -29.3908  -18.2901   21.9582 C   0  0  0  0  0  0
  -29.9668  -17.6634   20.6441 C   0  0  1  0  0  0
  -27.8932  -24.6950   20.6648 C   0  0  0  0  0  0
  -29.7314  -16.0963   20.5482 N   0  0  0  0  0  0
  -31.4767  -12.7454   19.1702 H   0  0  0  0  0  0
  -30.4429  -11.6260   20.0148 H   0  0  0  0  0  0
  -29.8335  -11.7308   17.5725 H   0  0  0  0  0  0
  -29.6107  -13.4591   17.6866 H   0  0  0  0  0  0
  -27.9429  -11.2751   18.9678 H   0  0  0  0  0  0
  -27.3899  -12.4613   17.8134 H   0  0  0  0  0  0
  -27.5987  -14.2497   19.4157 H   0  0  0  0  0  0
  -28.7643  -12.2781   21.4420 H   0  0  0  0  0  0
  -28.3835  -13.9541   21.7599 H   0  0  0  0  0  0
  -25.2774   -9.5674   22.4767 H   0  0  0  0  0  0
  -24.0009   -7.4630   22.7478 H   0  0  0  0  0  0
  -21.0865   -8.8773   19.8940 H   0  0  0  0  0  0
  -22.3725  -10.9669   19.6160 H   0  0  0  0  0  0
  -21.2008   -7.6150   23.9714 H   0  0  0  0  0  0
  -21.1481   -6.0527   25.9081 H   0  0  0  0  0  0
  -22.0600   -2.7610   23.2851 H   0  0  0  0  0  0
  -22.4077  -11.9859   22.4828 H   0  0  0  0  0  0
  -21.1055  -13.1183   22.2605 H   0  0  0  0  0  0
  -24.6416  -15.8421   20.5193 H   0  0  0  0  0  0
  -26.2490  -15.6344   20.0503 H   0  0  0  0  0  0
  -26.7262  -32.5299   23.0983 H   0  0  0  0  0  0
  -25.0073  -33.9599   25.0311 H   0  0  0  0  0  0
  -22.7483  -31.2882   21.3793 H   0  0  0  0  0  0
  -23.3767  -35.9562   23.3269 H   0  0  0  0  0  0
  -24.3577  -36.8918   22.2064 H   0  0  0  0  0  0
  -23.7231  -37.6421   23.6709 H   0  0  0  0  0  0
  -26.1600  -31.4670   20.6156 H   0  0  0  0  0  0
  -26.8731  -30.7654   22.0328 H   0  0  0  0  0  0
  -28.1347  -28.7927   21.2443 H   0  0  0  0  0  0
  -25.9410  -25.8609   18.9660 H   0  0  0  0  0  0
  -23.9873  -27.3095   18.9599 H   0  0  0  0  0  0
  -23.8013  -30.5611   19.3952 H   0  0  0  0  0  0
  -22.7878  -29.2264   19.8510 H   0  0  0  0  0  0
  -25.1307  -36.1845   25.0806 H   0  0  0  0  0  0
  -21.0006  -28.3315   24.1357 H   0  0  0  0  0  0
  -20.5662  -26.2332   23.3622 H   0  0  0  0  0  0
  -21.6644  -26.7421   22.1211 H   0  0  0  0  0  0
  -19.6913  -25.6296   21.1244 H   0  0  0  0  0  0
  -19.6693  -27.3184   20.6731 H   0  0  0  0  0  0
  -17.4204  -26.6688   21.4028 H   0  0  0  0  0  0
  -18.0338  -26.0085   22.9019 H   0  0  0  0  0  0
  -19.7951  -30.7299   24.2231 H   0  0  0  0  0  0
  -17.5027  -31.6276   24.5162 H   0  0  0  0  0  0
  -15.5363  -30.2982   23.7681 H   0  0  0  0  0  0
  -15.8683  -28.0808   22.7114 H   0  0  0  0  0  0
  -24.5951  -30.7012   25.7718 H   0  0  0  0  0  0
  -24.8868  -32.2884   26.4742 H   0  0  0  0  0  0
  -25.8034  -30.8959   27.0218 H   0  0  0  0  0  0
  -26.3032  -29.6661   24.1286 H   0  0  0  0  0  0
  -27.4025  -29.7249   25.4855 H   0  0  0  0  0  0
  -27.8939  -30.4178   23.9599 H   0  0  0  0  0  0
  -27.2672  -33.3649   26.1980 H   0  0  0  0  0  0
  -28.3931  -32.6804   25.0353 H   0  0  0  0  0  0
  -28.0675  -31.8486   26.5479 H   0  0  0  0  0  0
  -28.2560  -38.0105   24.7550 H   0  0  0  0  0  0
  -28.1116  -36.2634   24.6241 H   0  0  0  0  0  0
  -27.2299  -37.1355   25.8864 H   0  0  0  0  0  0
  -20.9463  -29.8741   21.6768 H   0  0  0  0  0  0
  -26.0147  -38.2798   24.1448 H   0  0  0  0  0  0
  -28.8259  -20.8804   17.7483 H   0  0  0  0  0  0
  -28.2893  -23.2377   18.1790 H   0  0  0  0  0  0
  -28.9102  -22.5655   22.3619 H   0  0  0  0  0  0
  -30.0724  -18.6015   18.6242 H   0  0  0  0  0  0
  -28.4551  -18.3166   19.1642 H   0  0  0  0  0  0
  -29.1206  -20.1319   23.1253 H   0  0  0  0  0  0
  -30.6970  -19.9908   22.4035 H   0  0  0  0  0  0
  -28.3131  -18.1218   21.9661 H   0  0  0  0  0  0
  -29.7774  -17.7379   22.8153 H   0  0  0  0  0  0
  -31.0485  -17.7962   20.6935 H   0  0  0  0  0  0
  -27.9478  -24.7734   21.7508 H   0  0  0  0  0  0
  -26.8329  -24.5325   20.4809 H   0  0  0  0  0  0
  -28.7591  -15.8476   20.6518 H   0  0  0  0  0  0
  1 25  1  0  0  0
  1 30  2  0  0  0
  1 82  1  0  0  0
  2  3  1  0  0  0
  2 25  1  0  0  0
  2 83  1  0  0  0
  2 84  1  0  0  0
  3  4  1  0  0  0
  3 85  1  0  0  0
  3 86  1  0  0  0
  4  5  1  0  0  0
  4 87  1  0  0  0
  4 88  1  0  0  0
  5  6  1  0  0  0
  5 26  1  0  0  0
  5 89  1  0  0  0
  6 25  1  0  0  0
  6 90  1  0  0  0
  6 91  1  0  0  0
  7  8  2  0  0  0
  7 26  1  0  0  0
  7 29  1  0  0  0
  8  9  1  0  0  0
  8 22  1  0  0  0
  9 10  1  0  0  0
  9 27  2  0  0  0
 10 11  2  0  0  0
 10 15  1  0  0  0
 11 12  1  0  0  0
 11 92  1  0  0  0
 12 13  2  0  0  0
 12 93  1  0  0  0
 13 14  1  0  0  0
 13 31  1  0  0  0
 14 15  2  0  0  0
 14 94  1  0  0  0
 15 95  1  0  0  0
 16 17  2  0  0  0
 16 21  1  0  0  0
 16 31  1  0  0  0
 17 18  1  0  0  0
 17 96  1  0  0  0
 18 19  2  0  0  0
 18 97  1  0  0  0
 19 20  1  0  0  0
 19 24  1  0  0  0
 20 21  2  0  0  0
 20 98  1  0  0  0
 21 23  1  0  0  0
 22 28  1  0  0  0
 22 32  2  0  0  0
 26 27  1  0  0  0
 28 99  1  0  0  0
 28100  1  0  0  0
 29101  1  0  0  0
 29102  1  0  0  0
 33 34  1  0  0  0
 33 66  1  0  0  0
 33 70  2  0  0  0
 34 36  1  0  0  0
 34 59  1  0  0  0
 34103  1  0  0  0
 35 44  2  0  0  0
 35 45  1  0  0  0
 35 68  1  0  0  0
 36 56  1  0  0  0
 36104  1  0  0  0
 37 39  1  0  0  0
 37 47  1  0  0  0
 37 66  1  0  0  0
 37105  1  0  0  0
 38 43  2  0  0  0
 38 46  1  0  0  0
 38 47  1  0  0  0
 39 64  1  0  0  0
 39 67  2  0  0  0
 40 52  1  0  0  0
 40 53  2  0  0  0
 40 58  1  0  0  0
 41106  1  0  0  0
 41107  1  0  0  0
 41108  1  0  0  0
 41 48  1  0  0  0
 42 43  1  0  0  0
 42 66  1  0  0  0
 42109  1  0  0  0
 42110  1  0  0  0
 43 44  1  0  0  0
 44111  1  0  0  0
 45 46  2  0  0  0
 45112  1  0  0  0
 46113  1  0  0  0
 47114  1  0  0  0
 47115  1  0  0  0
 48 56  1  0  0  0
 48 65  1  0  0  0
 48116  1  0  0  0
 49 50  1  0  0  0
 49 53  1  0  0  0
 49 64  1  0  0  0
 49117  1  0  0  0
 50 51  1  0  0  0
 50118  1  0  0  0
 50119  1  0  0  0
 51 52  1  0  0  0
 51120  1  0  0  0
 51121  1  0  0  0
 52122  1  0  0  0
 52123  1  0  0  0
 53 54  1  0  0  0
 54 55  2  0  0  0
 54124  1  0  0  0
 55 57  1  0  0  0
 55125  1  0  0  0
 56 69  2  0  0  0
 57 58  2  0  0  0
 57126  1  0  0  0
 58127  1  0  0  0
 59 60  1  0  0  0
 59 61  1  0  0  0
 59 62  1  0  0  0
 60128  1  0  0  0
 60129  1  0  0  0
 60130  1  0  0  0
 61131  1  0  0  0
 61132  1  0  0  0
 61133  1  0  0  0
 62134  1  0  0  0
 62135  1  0  0  0
 62136  1  0  0  0
 63 65  1  0  0  0
 63137  1  0  0  0
 63138  1  0  0  0
 63139  1  0  0  0
 64140  1  0  0  0
 65141  1  0  0  0
 68 81  1  0  0  0
 71 72  2  0  0  0
 71 74  1  0  0  0
 71142  1  0  0  0
 72 76  1  0  0  0
 72143  1  0  0  0
 73 75  1  0  0  0
 73 76  2  0  0  0
 73144  1  0  0  0
 74 75  2  0  0  0
 74 77  1  0  0  0
 75 78  1  0  0  0
 76 81  1  0  0  0
 77 80  1  0  0  0
 77145  1  0  0  0
 77146  1  0  0  0
 78 79  1  0  0  0
 78147  1  0  0  0
 78148  1  0  0  0
 79 80  1  0  0  0
 79149  1  0  0  0
 79150  1  0  0  0
 80 82  1  0  0  0
 80151  1  0  0  0
 81152  1  0  0  0
 81153  1  0  0  0
 82154  1  0  0  0
M  ISO  4   1 100  68 101  81 101  82 100
M  END
> <chiral flag>
0

> <version>
0

> <s_m_source_file>
/data/baiqing/PycharmProjects/Reinvent-master-3.2/result/LINK_invent/BTK/process_docking_weight1_custom_sum_contain_oxygen_bond_distance_aromatic_linkinvent_7_9_3/rearranged_h_0178.sdf

> <i_m_source_file_index>
62

> <r_mmod_Potential_Energy-OPLS-2005>
459.381286621094

> <r_mmod_Stretch_Energy-OPLS-2005>
219.59130859375

> <r_mmod_Bend_Energy-OPLS-2005>
242.499099731445

> <r_mmod_Torsional_Energy-OPLS-2005>
239.750152587891

> <r_mmod_Improper_Torsional_Energy-OPLS-2005>
6.61181402206421

> <r_mmod_Van_der_Waal_Energy-OPLS-2005>
130.917663574219

> <r_mmod_Electrostatic_Energy-OPLS-2005>
-360.459259033203

> <r_mmod_Solvation_Energy-OPLS-2005>
-209.707824707031

> <b_mmod_Minimization_Converged-OPLS-2005>
0

> <r_mmod_RMS_Derivative-OPLS-2005>
0.900226891040802

$$$$
63
                    3D
 Structure written by MMmdl.
149158  0  0  1  0            999 V2000
  -30.4523  -15.1983   20.4250 C   0  0  0  0  0  0
  -30.4445  -12.7655   19.5196 C   0  0  0  0  0  0
  -29.5339  -12.5770   18.2801 C   0  0  0  0  0  0
  -28.0785  -12.3103   18.7037 C   0  0  0  0  0  0
  -27.6196  -13.2674   19.8318 C   0  0  2  0  0  0
  -28.6556  -13.3873   20.9684 C   0  0  0  0  0  0
  -25.2429  -13.8239   20.5750 C   0  0  0  0  0  0
  -24.1758  -13.0439   20.9233 C   0  0  0  0  0  0
  -24.6400  -11.6931   20.8746 C   0  0  0  0  0  0
  -23.9091  -10.4293   21.0399 C   0  0  0  0  0  0
  -24.3635   -9.4209   21.9180 C   0  0  0  0  0  0
  -23.6303   -8.2247   22.0754 C   0  0  0  0  0  0
  -22.4284   -8.0285   21.3545 C   0  0  0  0  0  0
  -21.9924   -9.0258   20.4645 C   0  0  0  0  0  0
  -22.7260  -10.2134   20.3051 C   0  0  0  0  0  0
  -21.6856   -6.0739   22.5278 C   0  0  0  0  0  0
  -21.4017   -6.5641   23.8212 C   0  0  0  0  0  0
  -21.3660   -5.6793   24.9174 C   0  0  0  0  0  0
  -21.6043   -4.3056   24.7224 C   0  0  0  0  0  0
  -21.8819   -3.8148   23.4345 C   0  0  0  0  0  0
  -21.9194   -4.6966   22.3401 C   0  0  0  0  0  0
  -22.7777  -13.5197   21.1889 C   0  0  0  0  0  0
  -22.1662   -4.2151   21.0979 F   0  0  0  0  0  0
  -21.5628   -3.4539   25.7736 F   0  0  0  0  0  0
  -29.8988  -13.8908   20.3597 N   0  0  0  0  0  0
  -26.2852  -12.9497   20.3241 N   0  0  0  0  0  0
  -25.9339  -11.6608   20.5721 N   0  0  0  0  0  0
  -22.0436  -12.8178   22.0444 N   0  0  0  0  0  0
  -25.4111  -15.1973   20.4234 N   0  0  0  0  0  0
  -31.6426  -15.2489   20.0820 O   0  0  0  0  0  0
  -21.6645   -6.8883   21.4241 O   0  0  0  0  0  0
  -22.3454  -14.5500   20.6734 O   0  0  0  0  0  0
  -24.6598  -31.8274   23.1745 C   0  0  0  0  0  0
  -25.9295  -32.4608   23.8193 C   0  0  1  0  0  0
  -27.2181  -26.9626   20.1740 C   0  0  0  0  0  0
  -25.5978  -33.8422   24.2098 N   0  0  0  0  0  0
  -23.4732  -30.4413   21.5228 C   0  0  2  0  0  0
  -24.9277  -28.8397   20.1086 C   0  0  0  0  0  0
  -22.7656  -29.4460   22.4790 C   0  0  0  0  0  0
  -18.0321  -28.1407   22.8470 C   0  0  0  0  0  0
  -24.1493  -36.7214   23.2646 C   0  0  0  0  0  0
  -26.0412  -30.6440   21.4022 C   0  0  0  0  0  0
  -26.1101  -29.2383   20.7447 C   0  0  0  0  0  0
  -27.2497  -28.3188   20.7587 C   0  0  0  0  0  0
  -26.0114  -26.7189   19.4771 C   0  0  0  0  0  0
  -24.9023  -27.5993   19.4548 C   0  0  0  0  0  0
  -23.7115  -29.7620   20.1469 C   0  0  0  0  0  0
  -25.4133  -36.2979   24.0302 C   0  0  1  0  0  0
  -20.5945  -28.3749   23.1194 C   0  0  2  0  0  0
  -20.6799  -26.9434   22.5401 C   0  0  0  0  0  0
  -19.5772  -26.6378   21.5215 C   0  0  0  0  0  0
  -18.1954  -26.7941   22.1624 C   0  0  0  0  0  0
  -19.1582  -28.8899   23.2820 C   0  0  0  0  0  0
  -18.9493  -30.1489   23.8853 C   0  0  0  0  0  0
  -17.6486  -30.6597   24.0556 C   0  0  0  0  0  0
  -25.9096  -34.9361   23.5018 C   0  0  0  0  0  0
  -16.5377  -29.9085   23.6343 C   0  0  0  0  0  0
  -16.7304  -28.6505   23.0363 C   0  0  0  0  0  0
  -26.4556  -31.6540   25.0708 C   0  0  0  0  0  0
  -25.3690  -31.3783   26.1368 C   0  0  0  0  0  0
  -27.0450  -30.2909   24.6423 C   0  0  0  0  0  0
  -27.6052  -32.4344   25.7509 C   0  0  0  0  0  0
  -27.5570  -37.1766   24.8467 C   0  0  0  0  0  0
  -21.4327  -29.3046   22.3544 N   0  0  0  0  0  0
  -26.4280  -37.3712   23.9408 N   0  0  0  0  0  0
  -24.7457  -30.9968   22.0867 N   0  0  0  0  0  0
  -23.4218  -28.8021   23.3014 O   0  0  0  0  0  0
  -28.2008  -25.8497   20.2780 O   0  0  0  0  0  0
  -26.5701  -34.8891   22.4610 O   0  0  0  0  0  0
  -23.5675  -32.1230   23.6855 O   0  0  0  0  0  0
  -27.6912  -21.6142   20.7420 C   0  0  0  0  0  0
  -29.7297  -22.0208   19.8792 C   0  0  0  0  0  0
  -28.5039  -22.7096   20.2624 C   0  0  0  0  0  0
  -29.1890  -19.6604   20.4675 C   0  0  0  0  0  0
  -30.3770  -17.7822   22.3031 C   0  0  0  0  0  0
  -29.6935  -16.3987   22.2993 C   0  0  0  0  0  0
  -29.6245  -18.0622   21.0332 C   0  0  2  0  0  0
  -27.8605  -24.2952   19.9273 C   0  0  0  0  0  0
  -28.0097  -20.2435   20.8476 N   0  0  0  0  0  0
  -30.0496  -20.6303   20.0070 N   0  0  0  0  0  0
  -29.6832  -16.3998   20.8024 N   0  0  0  0  0  0
  -31.4652  -12.9665   19.1918 H   0  0  0  0  0  0
  -30.5032  -11.8433   20.1001 H   0  0  0  0  0  0
  -29.9008  -11.7594   17.6582 H   0  0  0  0  0  0
  -29.5745  -13.4751   17.6619 H   0  0  0  0  0  0
  -28.0204  -11.2789   19.0532 H   0  0  0  0  0  0
  -27.4103  -12.3808   17.8445 H   0  0  0  0  0  0
  -27.5521  -14.2495   19.3622 H   0  0  0  0  0  0
  -28.8076  -12.4319   21.4724 H   0  0  0  0  0  0
  -28.2966  -14.0812   21.7285 H   0  0  0  0  0  0
  -25.2778   -9.5685   22.4758 H   0  0  0  0  0  0
  -24.0008   -7.4639   22.7476 H   0  0  0  0  0  0
  -21.0855   -8.8780   19.8951 H   0  0  0  0  0  0
  -22.3717  -10.9673   19.6161 H   0  0  0  0  0  0
  -21.2011   -7.6150   23.9716 H   0  0  0  0  0  0
  -21.1482   -6.0524   25.9076 H   0  0  0  0  0  0
  -22.0597   -2.7611   23.2843 H   0  0  0  0  0  0
  -22.4067  -11.9844   22.4829 H   0  0  0  0  0  0
  -21.1049  -13.1185   22.2653 H   0  0  0  0  0  0
  -24.6492  -15.8547   20.5498 H   0  0  0  0  0  0
  -26.2722  -15.6402   20.1282 H   0  0  0  0  0  0
  -26.7363  -32.5156   23.0909 H   0  0  0  0  0  0
  -25.0086  -33.9507   25.0221 H   0  0  0  0  0  0
  -22.7846  -31.2720   21.3557 H   0  0  0  0  0  0
  -23.3767  -35.9533   23.3281 H   0  0  0  0  0  0
  -24.3572  -36.8884   22.2065 H   0  0  0  0  0  0
  -23.7239  -37.6392   23.6715 H   0  0  0  0  0  0
  -26.2191  -31.3877   20.6242 H   0  0  0  0  0  0
  -26.9025  -30.6988   22.0559 H   0  0  0  0  0  0
  -28.1399  -28.6177   21.2943 H   0  0  0  0  0  0
  -25.8786  -25.7777   18.9656 H   0  0  0  0  0  0
  -24.0060  -27.2907   18.9343 H   0  0  0  0  0  0
  -23.8629  -30.5331   19.3905 H   0  0  0  0  0  0
  -22.8224  -29.2142   19.8296 H   0  0  0  0  0  0
  -25.1330  -36.1780   25.0793 H   0  0  0  0  0  0
  -21.0035  -28.3354   24.1316 H   0  0  0  0  0  0
  -20.5682  -26.2368   23.3639 H   0  0  0  0  0  0
  -21.6662  -26.7413   22.1206 H   0  0  0  0  0  0
  -19.6931  -25.6277   21.1272 H   0  0  0  0  0  0
  -19.6709  -27.3166   20.6727 H   0  0  0  0  0  0
  -17.4222  -26.6685   21.4028 H   0  0  0  0  0  0
  -18.0349  -26.0094   22.9030 H   0  0  0  0  0  0
  -19.7968  -30.7319   24.2202 H   0  0  0  0  0  0
  -17.5037  -31.6273   24.5166 H   0  0  0  0  0  0
  -15.5375  -30.2973   23.7692 H   0  0  0  0  0  0
  -15.8705  -28.0809   22.7103 H   0  0  0  0  0  0
  -24.5893  -30.7108   25.7681 H   0  0  0  0  0  0
  -24.8855  -32.2981   26.4668 H   0  0  0  0  0  0
  -25.7930  -30.9038   27.0227 H   0  0  0  0  0  0
  -26.3113  -29.6592   24.1403 H   0  0  0  0  0  0
  -27.3964  -29.7266   25.5070 H   0  0  0  0  0  0
  -27.9063  -30.4096   23.9847 H   0  0  0  0  0  0
  -27.2624  -33.3689   26.1964 H   0  0  0  0  0  0
  -28.3929  -32.6832   25.0384 H   0  0  0  0  0  0
  -28.0648  -31.8550   26.5526 H   0  0  0  0  0  0
  -28.2572  -38.0075   24.7511 H   0  0  0  0  0  0
  -28.1080  -36.2601   24.6299 H   0  0  0  0  0  0
  -27.2285  -37.1414   25.8869 H   0  0  0  0  0  0
  -20.9573  -29.8739   21.6681 H   0  0  0  0  0  0
  -26.0130  -38.2771   24.1414 H   0  0  0  0  0  0
  -26.6771  -21.8386   21.0383 H   0  0  0  0  0  0
  -30.5072  -22.6040   19.4083 H   0  0  0  0  0  0
  -31.4575  -17.7560   22.1557 H   0  0  0  0  0  0
  -30.0972  -18.4196   23.1424 H   0  0  0  0  0  0
  -28.6966  -16.3945   22.7474 H   0  0  0  0  0  0
  -30.3086  -15.6505   22.8086 H   0  0  0  0  0  0
  -28.5833  -18.0959   21.3661 H   0  0  0  0  0  0
  -26.8350  -24.1887   20.2815 H   0  0  0  0  0  0
  -27.7688  -24.2962   18.8409 H   0  0  0  0  0  0
  1 25  1  0  0  0
  1 30  2  0  0  0
  1 81  1  0  0  0
  2  3  1  0  0  0
  2 25  1  0  0  0
  2 82  1  0  0  0
  2 83  1  0  0  0
  3  4  1  0  0  0
  3 84  1  0  0  0
  3 85  1  0  0  0
  4  5  1  0  0  0
  4 86  1  0  0  0
  4 87  1  0  0  0
  5  6  1  0  0  0
  5 26  1  0  0  0
  5 88  1  0  0  0
  6 25  1  0  0  0
  6 89  1  0  0  0
  6 90  1  0  0  0
  7  8  2  0  0  0
  7 26  1  0  0  0
  7 29  1  0  0  0
  8  9  1  0  0  0
  8 22  1  0  0  0
  9 10  1  0  0  0
  9 27  2  0  0  0
 10 11  2  0  0  0
 10 15  1  0  0  0
 11 12  1  0  0  0
 11 91  1  0  0  0
 12 13  2  0  0  0
 12 92  1  0  0  0
 13 14  1  0  0  0
 13 31  1  0  0  0
 14 15  2  0  0  0
 14 93  1  0  0  0
 15 94  1  0  0  0
 16 17  2  0  0  0
 16 21  1  0  0  0
 16 31  1  0  0  0
 17 18  1  0  0  0
 17 95  1  0  0  0
 18 19  2  0  0  0
 18 96  1  0  0  0
 19 20  1  0  0  0
 19 24  1  0  0  0
 20 21  2  0  0  0
 20 97  1  0  0  0
 21 23  1  0  0  0
 22 28  1  0  0  0
 22 32  2  0  0  0
 26 27  1  0  0  0
 28 98  1  0  0  0
 28 99  1  0  0  0
 29100  1  0  0  0
 29101  1  0  0  0
 33 34  1  0  0  0
 33 66  1  0  0  0
 33 70  2  0  0  0
 34 36  1  0  0  0
 34 59  1  0  0  0
 34102  1  0  0  0
 35 44  2  0  0  0
 35 45  1  0  0  0
 35 68  1  0  0  0
 36 56  1  0  0  0
 36103  1  0  0  0
 37 39  1  0  0  0
 37 47  1  0  0  0
 37 66  1  0  0  0
 37104  1  0  0  0
 38 43  2  0  0  0
 38 46  1  0  0  0
 38 47  1  0  0  0
 39 64  1  0  0  0
 39 67  2  0  0  0
 40 52  1  0  0  0
 40 53  2  0  0  0
 40 58  1  0  0  0
 41105  1  0  0  0
 41106  1  0  0  0
 41107  1  0  0  0
 41 48  1  0  0  0
 42 43  1  0  0  0
 42 66  1  0  0  0
 42108  1  0  0  0
 42109  1  0  0  0
 43 44  1  0  0  0
 44110  1  0  0  0
 45 46  2  0  0  0
 45111  1  0  0  0
 46112  1  0  0  0
 47113  1  0  0  0
 47114  1  0  0  0
 48 56  1  0  0  0
 48 65  1  0  0  0
 48115  1  0  0  0
 49 50  1  0  0  0
 49 53  1  0  0  0
 49 64  1  0  0  0
 49116  1  0  0  0
 50 51  1  0  0  0
 50117  1  0  0  0
 50118  1  0  0  0
 51 52  1  0  0  0
 51119  1  0  0  0
 51120  1  0  0  0
 52121  1  0  0  0
 52122  1  0  0  0
 53 54  1  0  0  0
 54 55  2  0  0  0
 54123  1  0  0  0
 55 57  1  0  0  0
 55124  1  0  0  0
 56 69  2  0  0  0
 57 58  2  0  0  0
 57125  1  0  0  0
 58126  1  0  0  0
 59 60  1  0  0  0
 59 61  1  0  0  0
 59 62  1  0  0  0
 60127  1  0  0  0
 60128  1  0  0  0
 60129  1  0  0  0
 61130  1  0  0  0
 61131  1  0  0  0
 61132  1  0  0  0
 62133  1  0  0  0
 62134  1  0  0  0
 62135  1  0  0  0
 63 65  1  0  0  0
 63136  1  0  0  0
 63137  1  0  0  0
 63138  1  0  0  0
 64139  1  0  0  0
 65140  1  0  0  0
 68 78  1  0  0  0
 71 73  2  0  0  0
 71 79  1  0  0  0
 71141  1  0  0  0
 72 73  1  0  0  0
 72 80  2  0  0  0
 72142  1  0  0  0
 73 78  1  0  0  0
 74 79  2  0  0  0
 74 80  1  0  0  0
 74 77  1  0  0  0
 75 76  1  0  0  0
 75 77  1  0  0  0
 75143  1  0  0  0
 75144  1  0  0  0
 76 81  1  0  0  0
 76145  1  0  0  0
 76146  1  0  0  0
 77 81  1  0  0  0
 77147  1  0  0  0
 78148  1  0  0  0
 78149  1  0  0  0
M  ISO  4   1 100  68 101  78 101  81 100
M  END
> <chiral flag>
0

> <version>
0

> <s_m_source_file>
/data/baiqing/PycharmProjects/Reinvent-master-3.2/result/LINK_invent/BTK/process_docking_weight1_custom_sum_contain_oxygen_bond_distance_aromatic_linkinvent_7_9_3/rearranged_h_0178.sdf

> <i_m_source_file_index>
63

> <r_mmod_Potential_Energy-OPLS-2005>
913.791076660156

> <r_mmod_Stretch_Energy-OPLS-2005>
486.156768798828

> <r_mmod_Bend_Energy-OPLS-2005>
624.1904296875

> <r_mmod_Torsional_Energy-OPLS-2005>
247.493011474609

> <r_mmod_Improper_Torsional_Energy-OPLS-2005>
17.7910480499268

> <r_mmod_Van_der_Waal_Energy-OPLS-2005>
158.352111816406

> <r_mmod_Electrostatic_Energy-OPLS-2005>
-787.020141601562

> <r_mmod_Solvation_Energy-OPLS-2005>
-235.228302001953

> <b_mmod_Minimization_Converged-OPLS-2005>
0

> <r_mmod_RMS_Derivative-OPLS-2005>
0.243775755167007

$$$$
64
                    3D
 Structure written by MMmdl.
165174  0  0  1  0            999 V2000
  -30.7094  -14.7276   20.4600 C   0  0  0  0  0  0
  -30.3973  -12.4571   19.4618 C   0  0  0  0  0  0
  -29.4888  -12.5007   18.2201 C   0  0  0  0  0  0
  -28.0193  -12.3178   18.6415 C   0  0  0  0  0  0
  -27.6266  -13.2266   19.8356 C   0  0  2  0  0  0
  -28.6801  -13.2163   20.9684 C   0  0  0  0  0  0
  -25.2439  -13.8135   20.5710 C   0  0  0  0  0  0
  -24.1743  -13.0362   20.9240 C   0  0  0  0  0  0
  -24.6343  -11.6860   20.8786 C   0  0  0  0  0  0
  -23.9020  -10.4244   21.0442 C   0  0  0  0  0  0
  -24.3554   -9.4144   21.9205 C   0  0  0  0  0  0
  -23.6224   -8.2176   22.0742 C   0  0  0  0  0  0
  -22.4208   -8.0236   21.3535 C   0  0  0  0  0  0
  -21.9860   -9.0215   20.4637 C   0  0  0  0  0  0
  -22.7204  -10.2087   20.3062 C   0  0  0  0  0  0
  -21.6798   -6.0714   22.5279 C   0  0  0  0  0  0
  -21.4004   -6.5616   23.8220 C   0  0  0  0  0  0
  -21.3670   -5.6768   24.9176 C   0  0  0  0  0  0
  -21.6040   -4.3029   24.7220 C   0  0  0  0  0  0
  -21.8807   -3.8127   23.4339 C   0  0  0  0  0  0
  -21.9163   -4.6950   22.3400 C   0  0  0  0  0  0
  -22.7761  -13.5158   21.1841 C   0  0  0  0  0  0
  -22.1635   -4.2137   21.0978 F   0  0  0  0  0  0
  -21.5631   -3.4513   25.7735 F   0  0  0  0  0  0
  -29.9640  -13.5660   20.3544 N   0  0  0  0  0  0
  -26.2853  -12.9328   20.3250 N   0  0  0  0  0  0
  -25.9271  -11.6487   20.5770 N   0  0  0  0  0  0
  -22.0403  -12.8180   22.0424 N   0  0  0  0  0  0
  -25.4048  -15.1835   20.4120 N   0  0  0  0  0  0
  -31.9146  -14.6299   20.2150 O   0  0  0  0  0  0
  -21.6548   -6.8850   21.4238 O   0  0  0  0  0  0
  -22.3473  -14.5447   20.6612 O   0  0  0  0  0  0
  -24.6367  -31.8540   23.2001 C   0  0  0  0  0  0
  -25.9180  -32.4740   23.8353 C   0  0  1  0  0  0
  -27.2058  -27.2480   20.1396 C   0  0  0  0  0  0
  -25.5966  -33.8539   24.2292 N   0  0  0  0  0  0
  -23.4332  -30.4816   21.5417 C   0  0  2  0  0  0
  -24.8797  -28.9356   20.1063 C   0  0  0  0  0  0
  -22.7524  -29.4605   22.4869 C   0  0  0  0  0  0
  -18.0290  -28.1394   22.8462 C   0  0  0  0  0  0
  -24.1488  -36.7258   23.2636 C   0  0  0  0  0  0
  -25.9822  -30.7654   21.3831 C   0  0  0  0  0  0
  -26.0534  -29.3874   20.7255 C   0  0  0  0  0  0
  -27.2225  -28.5552   20.7360 C   0  0  0  0  0  0
  -26.0239  -26.8907   19.4528 C   0  0  0  0  0  0
  -24.8712  -27.6949   19.4565 C   0  0  0  0  0  0
  -23.6531  -29.8241   20.1551 C   0  0  0  0  0  0
  -25.4098  -36.3059   24.0350 C   0  0  1  0  0  0
  -20.5907  -28.3705   23.1255 C   0  0  2  0  0  0
  -20.6779  -26.9414   22.5402 C   0  0  0  0  0  0
  -19.5753  -26.6385   21.5196 C   0  0  0  0  0  0
  -18.1928  -26.7936   22.1597 C   0  0  0  0  0  0
  -19.1545  -28.8861   23.2864 C   0  0  0  0  0  0
  -18.9457  -30.1460   23.8891 C   0  0  0  0  0  0
  -17.6459  -30.6595   24.0551 C   0  0  0  0  0  0
  -25.9054  -34.9431   23.5122 C   0  0  0  0  0  0
  -16.5353  -29.9083   23.6341 C   0  0  0  0  0  0
  -16.7277  -28.6502   23.0355 C   0  0  0  0  0  0
  -26.4533  -31.6557   25.0751 C   0  0  0  0  0  0
  -25.3755  -31.3684   26.1473 C   0  0  0  0  0  0
  -27.0376  -30.2965   24.6252 C   0  0  0  0  0  0
  -27.6107  -32.4289   25.7510 C   0  0  0  0  0  0
  -27.5585  -37.1764   24.8457 C   0  0  0  0  0  0
  -21.4220  -29.3046   22.3626 N   0  0  0  0  0  0
  -26.4263  -37.3775   23.9453 N   0  0  0  0  0  0
  -24.7032  -31.0510   22.0974 N   0  0  0  0  0  0
  -23.4220  -28.8128   23.2955 O   0  0  0  0  0  0
  -28.2250  -26.2670   20.2344 O   0  0  0  0  0  0
  -26.5614  -34.8903   22.4684 O   0  0  0  0  0  0
  -23.5508  -32.1364   23.7281 O   0  0  0  0  0  0
  -28.4969  -22.8046   22.0494 C   0  0  0  0  0  0
  -28.7832  -21.4045   22.1183 C   0  0  0  0  0  0
  -28.4551  -23.5282   20.8263 C   0  0  0  0  0  0
  -29.1048  -20.6741   20.9362 C   0  0  0  0  0  0
  -28.7542  -22.7109   19.6919 C   0  0  0  0  0  0
  -28.4072  -18.0194   20.7057 C   0  0  0  0  0  0
  -30.6592  -18.6469   20.0932 C   0  0  0  0  0  0
  -28.8539  -16.5202   21.0299 C   0  0  0  0  0  0
  -31.1488  -17.1648   20.3335 C   0  0  0  0  0  0
  -29.4849  -19.1092   20.9721 C   0  0  0  0  0  0
  -28.6736  -23.2869   18.2905 C   0  0  0  0  0  0
  -29.9190  -20.5509   24.2728 C   0  0  0  0  0  0
  -28.6194  -20.7022   23.4681 C   0  0  0  0  0  0
  -27.7418  -24.9669   20.8286 C   0  0  0  0  0  0
  -29.0709  -21.3635   19.7531 N   0  0  0  0  0  0
  -30.1692  -16.0333   20.5067 N   0  0  0  0  0  0
  -31.4412  -12.5264   19.1538 H   0  0  0  0  0  0
  -30.3083  -11.4966   19.9714 H   0  0  0  0  0  0
  -29.7767  -11.7288   17.5020 H   0  0  0  0  0  0
  -29.6075  -13.4601   17.7142 H   0  0  0  0  0  0
  -27.8761  -11.2688   18.9041 H   0  0  0  0  0  0
  -27.3622  -12.5105   17.7941 H   0  0  0  0  0  0
  -27.5965  -14.2260   19.4036 H   0  0  0  0  0  0
  -28.7365  -12.2377   21.4494 H   0  0  0  0  0  0
  -28.4204  -13.9237   21.7565 H   0  0  0  0  0  0
  -25.2687   -9.5580   22.4789 H   0  0  0  0  0  0
  -23.9902   -7.4539   22.7436 H   0  0  0  0  0  0
  -21.0789   -8.8743   19.8940 H   0  0  0  0  0  0
  -22.3673  -10.9622   19.6145 H   0  0  0  0  0  0
  -21.2007   -7.6120   23.9736 H   0  0  0  0  0  0
  -21.1517   -6.0489   25.9088 H   0  0  0  0  0  0
  -22.0578   -2.7589   23.2830 H   0  0  0  0  0  0
  -22.3992  -11.9824   22.4848 H   0  0  0  0  0  0
  -21.1050  -13.1306   22.2641 H   0  0  0  0  0  0
  -24.6218  -15.8200   20.5200 H   0  0  0  0  0  0
  -26.2363  -15.6356   20.0552 H   0  0  0  0  0  0
  -26.7248  -32.5396   23.1086 H   0  0  0  0  0  0
  -25.0164  -33.9653   25.0477 H   0  0  0  0  0  0
  -22.7304  -31.3053   21.3997 H   0  0  0  0  0  0
  -23.3779  -35.9558   23.3244 H   0  0  0  0  0  0
  -24.3601  -36.8917   22.2063 H   0  0  0  0  0  0
  -23.7188  -37.6416   23.6688 H   0  0  0  0  0  0
  -26.1255  -31.5219   20.6113 H   0  0  0  0  0  0
  -26.8596  -30.8160   22.0170 H   0  0  0  0  0  0
  -28.1118  -28.8844   21.2547 H   0  0  0  0  0  0
  -25.9636  -25.9461   18.9303 H   0  0  0  0  0  0
  -23.9785  -27.3503   18.9498 H   0  0  0  0  0  0
  -23.7811  -30.6049   19.4042 H   0  0  0  0  0  0
  -22.7699  -29.2613   19.8482 H   0  0  0  0  0  0
  -25.1258  -36.1894   25.0838 H   0  0  0  0  0  0
  -21.0014  -28.3290   24.1369 H   0  0  0  0  0  0
  -20.5650  -26.2302   23.3597 H   0  0  0  0  0  0
  -21.6646  -26.7421   22.1214 H   0  0  0  0  0  0
  -19.6922  -25.6289   21.1226 H   0  0  0  0  0  0
  -19.6711  -27.3187   20.6718 H   0  0  0  0  0  0
  -17.4205  -26.6687   21.4003 H   0  0  0  0  0  0
  -18.0332  -26.0085   22.9004 H   0  0  0  0  0  0
  -19.7935  -30.7276   24.2260 H   0  0  0  0  0  0
  -17.5014  -31.6267   24.5153 H   0  0  0  0  0  0
  -15.5349  -30.2978   23.7678 H   0  0  0  0  0  0
  -15.8669  -28.0822   22.7085 H   0  0  0  0  0  0
  -24.5994  -30.6954   25.7808 H   0  0  0  0  0  0
  -24.8860  -32.2824   26.4839 H   0  0  0  0  0  0
  -25.8092  -30.8925   27.0282 H   0  0  0  0  0  0
  -26.2971  -29.6692   24.1280 H   0  0  0  0  0  0
  -27.4034  -29.7241   25.4783 H   0  0  0  0  0  0
  -27.8866  -30.4196   23.9532 H   0  0  0  0  0  0
  -27.2767  -33.3624   26.2036 H   0  0  0  0  0  0
  -28.3939  -32.6765   25.0344 H   0  0  0  0  0  0
  -28.0770  -31.8440   26.5441 H   0  0  0  0  0  0
  -28.2528  -38.0131   24.7595 H   0  0  0  0  0  0
  -28.1140  -36.2657   24.6157 H   0  0  0  0  0  0
  -27.2333  -37.1289   25.8862 H   0  0  0  0  0  0
  -20.9406  -29.8734   21.6809 H   0  0  0  0  0  0
  -26.0130  -38.2834   24.1492 H   0  0  0  0  0  0
  -28.2142  -23.3131   22.9612 H   0  0  0  0  0  0
  -27.5187  -18.2547   21.2926 H   0  0  0  0  0  0
  -28.0896  -18.0856   19.6649 H   0  0  0  0  0  0
  -30.3860  -18.7689   19.0441 H   0  0  0  0  0  0
  -31.4998  -19.3227   20.2535 H   0  0  0  0  0  0
  -28.0615  -15.8765   20.6717 H   0  0  0  0  0  0
  -28.8784  -16.3938   22.1122 H   0  0  0  0  0  0
  -31.7915  -17.1590   21.2145 H   0  0  0  0  0  0
  -31.8068  -16.9388   19.4925 H   0  0  0  0  0  0
  -29.8266  -18.9199   21.9856 H   0  0  0  0  0  0
  -27.6399  -23.4999   18.0178 H   0  0  0  0  0  0
  -29.0801  -22.5922   17.5534 H   0  0  0  0  0  0
  -29.2405  -24.2169   18.2253 H   0  0  0  0  0  0
  -29.7237  -20.0035   25.1967 H   0  0  0  0  0  0
  -30.3440  -21.5157   24.5480 H   0  0  0  0  0  0
  -30.6820  -19.9942   23.7296 H   0  0  0  0  0  0
  -28.1648  -19.7233   23.3167 H   0  0  0  0  0  0
  -27.8974  -21.2504   24.0751 H   0  0  0  0  0  0
  -27.5824  -25.2133   21.8777 H   0  0  0  0  0  0
  -26.7447  -24.7211   20.4737 H   0  0  0  0  0  0
  1 25  1  0  0  0
  1 30  2  0  0  0
  1 86  1  0  0  0
  2  3  1  0  0  0
  2 25  1  0  0  0
  2 87  1  0  0  0
  2 88  1  0  0  0
  3  4  1  0  0  0
  3 89  1  0  0  0
  3 90  1  0  0  0
  4  5  1  0  0  0
  4 91  1  0  0  0
  4 92  1  0  0  0
  5  6  1  0  0  0
  5 26  1  0  0  0
  5 93  1  0  0  0
  6 25  1  0  0  0
  6 94  1  0  0  0
  6 95  1  0  0  0
  7  8  2  0  0  0
  7 26  1  0  0  0
  7 29  1  0  0  0
  8  9  1  0  0  0
  8 22  1  0  0  0
  9 10  1  0  0  0
  9 27  2  0  0  0
 10 11  2  0  0  0
 10 15  1  0  0  0
 11 12  1  0  0  0
 11 96  1  0  0  0
 12 13  2  0  0  0
 12 97  1  0  0  0
 13 14  1  0  0  0
 13 31  1  0  0  0
 14 15  2  0  0  0
 14 98  1  0  0  0
 15 99  1  0  0  0
 16 17  2  0  0  0
 16 21  1  0  0  0
 16 31  1  0  0  0
 17 18  1  0  0  0
 17100  1  0  0  0
 18 19  2  0  0  0
 18101  1  0  0  0
 19 20  1  0  0  0
 19 24  1  0  0  0
 20 21  2  0  0  0
 20102  1  0  0  0
 21 23  1  0  0  0
 22 28  1  0  0  0
 22 32  2  0  0  0
 26 27  1  0  0  0
 28103  1  0  0  0
 28104  1  0  0  0
 29105  1  0  0  0
 29106  1  0  0  0
 33 34  1  0  0  0
 33 66  1  0  0  0
 33 70  2  0  0  0
 34 36  1  0  0  0
 34 59  1  0  0  0
 34107  1  0  0  0
 35 44  2  0  0  0
 35 45  1  0  0  0
 35 68  1  0  0  0
 36 56  1  0  0  0
 36108  1  0  0  0
 37 39  1  0  0  0
 37 47  1  0  0  0
 37 66  1  0  0  0
 37109  1  0  0  0
 38 43  2  0  0  0
 38 46  1  0  0  0
 38 47  1  0  0  0
 39 64  1  0  0  0
 39 67  2  0  0  0
 40 52  1  0  0  0
 40 53  2  0  0  0
 40 58  1  0  0  0
 41110  1  0  0  0
 41111  1  0  0  0
 41112  1  0  0  0
 41 48  1  0  0  0
 42 43  1  0  0  0
 42 66  1  0  0  0
 42113  1  0  0  0
 42114  1  0  0  0
 43 44  1  0  0  0
 44115  1  0  0  0
 45 46  2  0  0  0
 45116  1  0  0  0
 46117  1  0  0  0
 47118  1  0  0  0
 47119  1  0  0  0
 48 56  1  0  0  0
 48 65  1  0  0  0
 48120  1  0  0  0
 49 50  1  0  0  0
 49 53  1  0  0  0
 49 64  1  0  0  0
 49121  1  0  0  0
 50 51  1  0  0  0
 50122  1  0  0  0
 50123  1  0  0  0
 51 52  1  0  0  0
 51124  1  0  0  0
 51125  1  0  0  0
 52126  1  0  0  0
 52127  1  0  0  0
 53 54  1  0  0  0
 54 55  2  0  0  0
 54128  1  0  0  0
 55 57  1  0  0  0
 55129  1  0  0  0
 56 69  2  0  0  0
 57 58  2  0  0  0
 57130  1  0  0  0
 58131  1  0  0  0
 59 60  1  0  0  0
 59 61  1  0  0  0
 59 62  1  0  0  0
 60132  1  0  0  0
 60133  1  0  0  0
 60134  1  0  0  0
 61135  1  0  0  0
 61136  1  0  0  0
 61137  1  0  0  0
 62138  1  0  0  0
 62139  1  0  0  0
 62140  1  0  0  0
 63 65  1  0  0  0
 63141  1  0  0  0
 63142  1  0  0  0
 63143  1  0  0  0
 64144  1  0  0  0
 65145  1  0  0  0
 68 84  1  0  0  0
 71 72  2  0  0  0
 71 73  1  0  0  0
 71146  1  0  0  0
 72 74  1  0  0  0
 72 83  1  0  0  0
 73 75  2  0  0  0
 73 84  1  0  0  0
 74 85  2  0  0  0
 74 80  1  0  0  0
 75 81  1  0  0  0
 75 85  1  0  0  0
 76 78  1  0  0  0
 76 80  1  0  0  0
 76147  1  0  0  0
 76148  1  0  0  0
 77 79  1  0  0  0
 77 80  1  0  0  0
 77149  1  0  0  0
 77150  1  0  0  0
 78 86  1  0  0  0
 78151  1  0  0  0
 78152  1  0  0  0
 79 86  1  0  0  0
 79153  1  0  0  0
 79154  1  0  0  0
 80155  1  0  0  0
 81156  1  0  0  0
 81157  1  0  0  0
 81158  1  0  0  0
 82 83  1  0  0  0
 82159  1  0  0  0
 82160  1  0  0  0
 82161  1  0  0  0
 83162  1  0  0  0
 83163  1  0  0  0
 84164  1  0  0  0
 84165  1  0  0  0
M  ISO  4   1 100  68 101  84 101  86 100
M  END
> <chiral flag>
0

> <version>
0

> <s_m_source_file>
/data/baiqing/PycharmProjects/Reinvent-master-3.2/result/LINK_invent/BTK/process_docking_weight1_custom_sum_contain_oxygen_bond_distance_aromatic_linkinvent_7_9_3/rearranged_h_0178.sdf

> <i_m_source_file_index>
64

> <r_mmod_Potential_Energy-OPLS-2005>
326.277801513672

> <r_mmod_Stretch_Energy-OPLS-2005>
126.673141479492

> <r_mmod_Bend_Energy-OPLS-2005>
229.955810546875

> <r_mmod_Torsional_Energy-OPLS-2005>
325.085632324219

> <r_mmod_Improper_Torsional_Energy-OPLS-2005>
12.4782390594482

> <r_mmod_Van_der_Waal_Energy-OPLS-2005>
155.76774597168

> <r_mmod_Electrostatic_Energy-OPLS-2005>
-417.258758544922

> <r_mmod_Solvation_Energy-OPLS-2005>
-211.262603759766

> <b_mmod_Minimization_Converged-OPLS-2005>
0

> <r_mmod_RMS_Derivative-OPLS-2005>
4.08764839172363

$$$$
65
                    3D
 Structure written by MMmdl.
161170  0  0  1  0            999 V2000
  -30.6653  -14.6732   20.4210 C   0  0  0  0  0  0
  -30.4235  -12.4028   19.4520 C   0  0  0  0  0  0
  -29.4961  -12.4793   18.2219 C   0  0  0  0  0  0
  -28.0226  -12.3184   18.6456 C   0  0  0  0  0  0
  -27.6374  -13.2102   19.8573 C   0  0  2  0  0  0
  -28.6979  -13.1607   20.9787 C   0  0  0  0  0  0
  -25.2528  -13.8135   20.5756 C   0  0  0  0  0  0
  -24.1786  -13.0412   20.9224 C   0  0  0  0  0  0
  -24.6354  -11.6881   20.8784 C   0  0  0  0  0  0
  -23.9028  -10.4273   21.0430 C   0  0  0  0  0  0
  -24.3592   -9.4193   21.9198 C   0  0  0  0  0  0
  -23.6279   -8.2224   22.0757 C   0  0  0  0  0  0
  -22.4263   -8.0266   21.3543 C   0  0  0  0  0  0
  -21.9897   -9.0237   20.4649 C   0  0  0  0  0  0
  -22.7214  -10.2119   20.3066 C   0  0  0  0  0  0
  -21.6844   -6.0732   22.5278 C   0  0  0  0  0  0
  -21.4008   -6.5640   23.8210 C   0  0  0  0  0  0
  -21.3660   -5.6793   24.9174 C   0  0  0  0  0  0
  -21.6047   -4.3055   24.7225 C   0  0  0  0  0  0
  -21.8823   -3.8147   23.4346 C   0  0  0  0  0  0
  -21.9189   -4.6961   22.3403 C   0  0  0  0  0  0
  -22.7813  -13.5216   21.1870 C   0  0  0  0  0  0
  -22.1657   -4.2146   21.0980 F   0  0  0  0  0  0
  -21.5631   -3.4542   25.7741 F   0  0  0  0  0  0
  -29.9997  -13.4735   20.3738 N   0  0  0  0  0  0
  -26.2930  -12.9282   20.3404 N   0  0  0  0  0  0
  -25.9283  -11.6450   20.5836 N   0  0  0  0  0  0
  -22.0451  -12.8211   22.0427 N   0  0  0  0  0  0
  -25.4263  -15.1862   20.4184 N   0  0  0  0  0  0
  -31.8801  -14.7264   20.2130 O   0  0  0  0  0  0
  -21.6622   -6.8870   21.4241 O   0  0  0  0  0  0
  -22.3510  -14.5526   20.6717 O   0  0  0  0  0  0
  -24.6257  -31.8606   23.2034 C   0  0  0  0  0  0
  -25.9104  -32.4786   23.8361 C   0  0  1  0  0  0
  -27.2208  -27.3307   20.1203 C   0  0  0  0  0  0
  -25.5927  -33.8584   24.2290 N   0  0  0  0  0  0
  -23.4193  -30.4846   21.5448 C   0  0  2  0  0  0
  -24.8689  -28.9439   20.1077 C   0  0  0  0  0  0
  -22.7474  -29.4627   22.4926 C   0  0  0  0  0  0
  -18.0283  -28.1382   22.8482 C   0  0  0  0  0  0
  -24.1488  -36.7299   23.2636 C   0  0  0  0  0  0
  -25.9599  -30.7963   21.3729 C   0  0  0  0  0  0
  -26.0364  -29.4241   20.7158 C   0  0  0  0  0  0
  -27.2203  -28.6281   20.7149 C   0  0  0  0  0  0
  -26.0407  -26.9088   19.4723 C   0  0  0  0  0  0
  -24.8717  -27.6909   19.4750 C   0  0  0  0  0  0
  -23.6344  -29.8211   20.1592 C   0  0  0  0  0  0
  -25.4112  -36.3090   24.0330 C   0  0  1  0  0  0
  -20.5886  -28.3691   23.1276 C   0  0  2  0  0  0
  -20.6775  -26.9410   22.5408 C   0  0  0  0  0  0
  -19.5752  -26.6385   21.5208 C   0  0  0  0  0  0
  -18.1931  -26.7926   22.1621 C   0  0  0  0  0  0
  -19.1536  -28.8850   23.2877 C   0  0  0  0  0  0
  -18.9462  -30.1452   23.8896 C   0  0  0  0  0  0
  -17.6464  -30.6585   24.0561 C   0  0  0  0  0  0
  -25.9047  -34.9456   23.5109 C   0  0  0  0  0  0
  -16.5354  -29.9085   23.6325 C   0  0  0  0  0  0
  -16.7273  -28.6500   23.0347 C   0  0  0  0  0  0
  -26.4491  -31.6583   25.0722 C   0  0  0  0  0  0
  -25.3732  -31.3719   26.1456 C   0  0  0  0  0  0
  -27.0330  -30.3011   24.6160 C   0  0  0  0  0  0
  -27.6052  -32.4312   25.7494 C   0  0  0  0  0  0
  -27.5578  -37.1807   24.8464 C   0  0  0  0  0  0
  -21.4187  -29.3048   22.3673 N   0  0  0  0  0  0
  -26.4290  -37.3785   23.9409 N   0  0  0  0  0  0
  -24.6870  -31.0631   22.0976 N   0  0  0  0  0  0
  -23.4201  -28.8156   23.2994 O   0  0  0  0  0  0
  -28.2966  -26.4372   20.1683 O   0  0  0  0  0  0
  -26.5608  -34.8920   22.4671 O   0  0  0  0  0  0
  -23.5421  -32.1392   23.7369 O   0  0  0  0  0  0
  -28.6789  -21.7694   19.4331 C   0  0  0  0  0  0
  -29.6117  -23.1955   21.5231 C   0  0  0  0  0  0
  -29.5664  -21.1431   20.3632 C   0  0  0  0  0  0
  -28.7130  -23.8194   20.6038 C   0  0  0  0  0  0
  -28.7625  -17.7007   19.3423 C   0  0  0  0  0  0
  -29.4358  -16.3348   19.1190 C   0  0  0  0  0  0
  -30.3587  -17.1349   21.0398 C   0  0  0  0  0  0
  -29.4766  -18.3536   20.5309 C   0  0  1  0  0  0
  -28.1445  -21.0312   18.2225 C   0  0  0  0  0  0
  -30.1537  -23.9317   22.7336 C   0  0  0  0  0  0
  -30.2255  -19.7193   20.1758 C   0  0  0  0  0  0
  -27.9918  -25.1905   20.9046 C   0  0  0  0  0  0
  -30.0218  -21.8932   21.4047 N   0  0  0  0  0  0
  -28.2550  -23.0697   19.5594 N   0  0  0  0  0  0
  -29.9212  -15.8411   20.4154 N   0  0  0  0  0  0
  -31.4652  -12.5064   19.1435 H   0  0  0  0  0  0
  -30.3457  -11.4288   19.9383 H   0  0  0  0  0  0
  -29.7622  -11.7056   17.5005 H   0  0  0  0  0  0
  -29.6324  -13.4327   17.7095 H   0  0  0  0  0  0
  -27.8702  -11.2685   18.9000 H   0  0  0  0  0  0
  -27.3613  -12.5229   17.8028 H   0  0  0  0  0  0
  -27.6036  -14.2248   19.4842 H   0  0  0  0  0  0
  -28.7241  -12.1775   21.4503 H   0  0  0  0  0  0
  -28.4565  -13.8787   21.7641 H   0  0  0  0  0  0
  -25.2741   -9.5671   22.4763 H   0  0  0  0  0  0
  -23.9994   -7.4610   22.7467 H   0  0  0  0  0  0
  -21.0831   -8.8751   19.8947 H   0  0  0  0  0  0
  -22.3679  -10.9656   19.6168 H   0  0  0  0  0  0
  -21.1998   -7.6147   23.9712 H   0  0  0  0  0  0
  -21.1478   -6.0526   25.9076 H   0  0  0  0  0  0
  -22.0604   -2.7611   23.2843 H   0  0  0  0  0  0
  -22.4061  -11.9864   22.4802 H   0  0  0  0  0  0
  -21.1071  -13.1238   22.2628 H   0  0  0  0  0  0
  -24.6687  -15.8489   20.5426 H   0  0  0  0  0  0
  -26.2972  -15.6245   20.1483 H   0  0  0  0  0  0
  -26.7174  -32.5467   23.1114 H   0  0  0  0  0  0
  -25.0091  -33.9730   25.0448 H   0  0  0  0  0  0
  -22.7132  -31.3054   21.4020 H   0  0  0  0  0  0
  -23.3747  -35.9634   23.3301 H   0  0  0  0  0  0
  -24.3579  -36.8916   22.2049 H   0  0  0  0  0  0
  -23.7243  -37.6504   23.6652 H   0  0  0  0  0  0
  -26.0877  -31.5598   20.6043 H   0  0  0  0  0  0
  -26.8411  -30.8472   21.9999 H   0  0  0  0  0  0
  -28.1142  -28.9868   21.2055 H   0  0  0  0  0  0
  -26.0138  -25.9461   18.9811 H   0  0  0  0  0  0
  -23.9797  -27.3200   18.9889 H   0  0  0  0  0  0
  -23.7504  -30.5980   19.4030 H   0  0  0  0  0  0
  -22.7562  -29.2481   19.8568 H   0  0  0  0  0  0
  -25.1293  -36.1945   25.0823 H   0  0  0  0  0  0
  -20.9978  -28.3265   24.1397 H   0  0  0  0  0  0
  -20.5669  -26.2301   23.3608 H   0  0  0  0  0  0
  -21.6645  -26.7438   22.1204 H   0  0  0  0  0  0
  -19.6914  -25.6296   21.1234 H   0  0  0  0  0  0
  -19.6688  -27.3195   20.6735 H   0  0  0  0  0  0
  -17.4201  -26.6662   21.4025 H   0  0  0  0  0  0
  -18.0336  -26.0069   22.9018 H   0  0  0  0  0  0
  -19.7941  -30.7262   24.2265 H   0  0  0  0  0  0
  -17.5023  -31.6264   24.5166 H   0  0  0  0  0  0
  -15.5354  -30.2991   23.7652 H   0  0  0  0  0  0
  -15.8671  -28.0824   22.7062 H   0  0  0  0  0  0
  -24.5909  -30.7061   25.7794 H   0  0  0  0  0  0
  -24.8919  -32.2885   26.4882 H   0  0  0  0  0  0
  -25.8068  -30.8905   27.0232 H   0  0  0  0  0  0
  -26.2904  -29.6772   24.1173 H   0  0  0  0  0  0
  -27.4025  -29.7254   25.4655 H   0  0  0  0  0  0
  -27.8774  -30.4301   23.9383 H   0  0  0  0  0  0
  -27.2662  -33.3609   26.2077 H   0  0  0  0  0  0
  -28.3862  -32.6878   25.0321 H   0  0  0  0  0  0
  -28.0719  -31.8433   26.5407 H   0  0  0  0  0  0
  -28.2601  -38.0099   24.7509 H   0  0  0  0  0  0
  -28.1068  -36.2631   24.6294 H   0  0  0  0  0  0
  -27.2295  -37.1462   25.8867 H   0  0  0  0  0  0
  -20.9356  -29.8789   21.6905 H   0  0  0  0  0  0
  -26.0173  -38.2861   24.1409 H   0  0  0  0  0  0
  -27.7078  -17.5595   19.5830 H   0  0  0  0  0  0
  -28.8027  -18.2997   18.4338 H   0  0  0  0  0  0
  -30.2999  -16.4713   18.4641 H   0  0  0  0  0  0
  -28.7798  -15.6506   18.5891 H   0  0  0  0  0  0
  -30.3156  -17.0552   22.1271 H   0  0  0  0  0  0
  -31.4063  -17.3086   20.7855 H   0  0  0  0  0  0
  -28.7435  -18.5731   21.3094 H   0  0  0  0  0  0
  -28.9564  -20.5813   17.6521 H   0  0  0  0  0  0
  -27.6013  -21.7001   17.5543 H   0  0  0  0  0  0
  -27.4572  -20.2460   18.5370 H   0  0  0  0  0  0
  -30.4680  -24.9395   22.4613 H   0  0  0  0  0  0
  -31.0192  -23.4210   23.1568 H   0  0  0  0  0  0
  -29.3913  -24.0038   23.5094 H   0  0  0  0  0  0
  -31.1267  -19.7406   20.7898 H   0  0  0  0  0  0
  -30.6134  -19.6613   19.1586 H   0  0  0  0  0  0
  -28.1328  -25.4286   21.9581 H   0  0  0  0  0  0
  -26.9293  -24.9548   20.8474 H   0  0  0  0  0  0
  1 25  1  0  0  0
  1 30  2  0  0  0
  1 85  1  0  0  0
  2  3  1  0  0  0
  2 25  1  0  0  0
  2 86  1  0  0  0
  2 87  1  0  0  0
  3  4  1  0  0  0
  3 88  1  0  0  0
  3 89  1  0  0  0
  4  5  1  0  0  0
  4 90  1  0  0  0
  4 91  1  0  0  0
  5  6  1  0  0  0
  5 26  1  0  0  0
  5 92  1  0  0  0
  6 25  1  0  0  0
  6 93  1  0  0  0
  6 94  1  0  0  0
  7  8  2  0  0  0
  7 26  1  0  0  0
  7 29  1  0  0  0
  8  9  1  0  0  0
  8 22  1  0  0  0
  9 10  1  0  0  0
  9 27  2  0  0  0
 10 11  2  0  0  0
 10 15  1  0  0  0
 11 12  1  0  0  0
 11 95  1  0  0  0
 12 13  2  0  0  0
 12 96  1  0  0  0
 13 14  1  0  0  0
 13 31  1  0  0  0
 14 15  2  0  0  0
 14 97  1  0  0  0
 15 98  1  0  0  0
 16 17  2  0  0  0
 16 21  1  0  0  0
 16 31  1  0  0  0
 17 18  1  0  0  0
 17 99  1  0  0  0
 18 19  2  0  0  0
 18100  1  0  0  0
 19 20  1  0  0  0
 19 24  1  0  0  0
 20 21  2  0  0  0
 20101  1  0  0  0
 21 23  1  0  0  0
 22 28  1  0  0  0
 22 32  2  0  0  0
 26 27  1  0  0  0
 28102  1  0  0  0
 28103  1  0  0  0
 29104  1  0  0  0
 29105  1  0  0  0
 33 34  1  0  0  0
 33 66  1  0  0  0
 33 70  2  0  0  0
 34 36  1  0  0  0
 34 59  1  0  0  0
 34106  1  0  0  0
 35 44  2  0  0  0
 35 45  1  0  0  0
 35 68  1  0  0  0
 36 56  1  0  0  0
 36107  1  0  0  0
 37 39  1  0  0  0
 37 47  1  0  0  0
 37 66  1  0  0  0
 37108  1  0  0  0
 38 43  2  0  0  0
 38 46  1  0  0  0
 38 47  1  0  0  0
 39 64  1  0  0  0
 39 67  2  0  0  0
 40 52  1  0  0  0
 40 53  2  0  0  0
 40 58  1  0  0  0
 41109  1  0  0  0
 41110  1  0  0  0
 41111  1  0  0  0
 41 48  1  0  0  0
 42 43  1  0  0  0
 42 66  1  0  0  0
 42112  1  0  0  0
 42113  1  0  0  0
 43 44  1  0  0  0
 44114  1  0  0  0
 45 46  2  0  0  0
 45115  1  0  0  0
 46116  1  0  0  0
 47117  1  0  0  0
 47118  1  0  0  0
 48 56  1  0  0  0
 48 65  1  0  0  0
 48119  1  0  0  0
 49 50  1  0  0  0
 49 53  1  0  0  0
 49 64  1  0  0  0
 49120  1  0  0  0
 50 51  1  0  0  0
 50121  1  0  0  0
 50122  1  0  0  0
 51 52  1  0  0  0
 51123  1  0  0  0
 51124  1  0  0  0
 52125  1  0  0  0
 52126  1  0  0  0
 53 54  1  0  0  0
 54 55  2  0  0  0
 54127  1  0  0  0
 55 57  1  0  0  0
 55128  1  0  0  0
 56 69  2  0  0  0
 57 58  2  0  0  0
 57129  1  0  0  0
 58130  1  0  0  0
 59 60  1  0  0  0
 59 61  1  0  0  0
 59 62  1  0  0  0
 60131  1  0  0  0
 60132  1  0  0  0
 60133  1  0  0  0
 61134  1  0  0  0
 61135  1  0  0  0
 61136  1  0  0  0
 62137  1  0  0  0
 62138  1  0  0  0
 62139  1  0  0  0
 63 65  1  0  0  0
 63140  1  0  0  0
 63141  1  0  0  0
 63142  1  0  0  0
 64143  1  0  0  0
 65144  1  0  0  0
 68 82  1  0  0  0
 71 73  2  0  0  0
 71 79  1  0  0  0
 71 84  1  0  0  0
 72 74  1  0  0  0
 72 80  1  0  0  0
 72 83  2  0  0  0
 73 81  1  0  0  0
 73 83  1  0  0  0
 74 82  1  0  0  0
 74 84  2  0  0  0
 75 76  1  0  0  0
 75 78  1  0  0  0
 75145  1  0  0  0
 75146  1  0  0  0
 76 85  1  0  0  0
 76147  1  0  0  0
 76148  1  0  0  0
 77 78  1  0  0  0
 77 85  1  0  0  0
 77149  1  0  0  0
 77150  1  0  0  0
 78 81  1  0  0  0
 78151  1  0  0  0
 79152  1  0  0  0
 79153  1  0  0  0
 79154  1  0  0  0
 80155  1  0  0  0
 80156  1  0  0  0
 80157  1  0  0  0
 81158  1  0  0  0
 81159  1  0  0  0
 82160  1  0  0  0
 82161  1  0  0  0
M  ISO  4   1 100  68 101  82 101  85 100
M  END
> <chiral flag>
0

> <version>
0

> <s_m_source_file>
/data/baiqing/PycharmProjects/Reinvent-master-3.2/result/LINK_invent/BTK/process_docking_weight1_custom_sum_contain_oxygen_bond_distance_aromatic_linkinvent_7_9_3/rearranged_h_0178.sdf

> <i_m_source_file_index>
65

> <r_mmod_Potential_Energy-OPLS-2005>
412.672546386719

> <r_mmod_Stretch_Energy-OPLS-2005>
84.3290863037109

> <r_mmod_Bend_Energy-OPLS-2005>
172.005767822266

> <r_mmod_Torsional_Energy-OPLS-2005>
381.341979980469

> <r_mmod_Improper_Torsional_Energy-OPLS-2005>
14.24684715271

> <r_mmod_Van_der_Waal_Energy-OPLS-2005>
141.544052124023

> <r_mmod_Electrostatic_Energy-OPLS-2005>
-232.462768554688

> <r_mmod_Solvation_Energy-OPLS-2005>
-211.846633911133

> <b_mmod_Minimization_Converged-OPLS-2005>
0

> <r_mmod_RMS_Derivative-OPLS-2005>
0.913641929626465

$$$$
66
                    3D
 Structure written by MMmdl.
159169  0  0  1  0            999 V2000
  -30.6242  -14.6666   20.5333 C   0  0  0  0  0  0
  -30.4333  -12.4204   19.4650 C   0  0  0  0  0  0
  -29.5050  -12.5158   18.2352 C   0  0  0  0  0  0
  -28.0277  -12.3512   18.6407 C   0  0  0  0  0  0
  -27.6457  -13.2223   19.8632 C   0  0  2  0  0  0
  -28.6855  -13.0869   20.9939 C   0  0  0  0  0  0
  -25.2534  -13.8188   20.5706 C   0  0  0  0  0  0
  -24.1815  -13.0471   20.9216 C   0  0  0  0  0  0
  -24.6376  -11.6931   20.8773 C   0  0  0  0  0  0
  -23.9065  -10.4308   21.0425 C   0  0  0  0  0  0
  -24.3628   -9.4216   21.9187 C   0  0  0  0  0  0
  -23.6309   -8.2249   22.0745 C   0  0  0  0  0  0
  -22.4290   -8.0296   21.3543 C   0  0  0  0  0  0
  -21.9926   -9.0266   20.4637 C   0  0  0  0  0  0
  -22.7255  -10.2149   20.3056 C   0  0  0  0  0  0
  -21.6862   -6.0763   22.5300 C   0  0  0  0  0  0
  -21.4012   -6.5644   23.8241 C   0  0  0  0  0  0
  -21.3659   -5.6775   24.9188 C   0  0  0  0  0  0
  -21.6057   -4.3048   24.7198 C   0  0  0  0  0  0
  -21.8814   -3.8155   23.4307 C   0  0  0  0  0  0
  -21.9191   -4.6996   22.3383 C   0  0  0  0  0  0
  -22.7820  -13.5225   21.1884 C   0  0  0  0  0  0
  -22.1673   -4.2196   21.0954 F   0  0  0  0  0  0
  -21.5629   -3.4526   25.7695 F   0  0  0  0  0  0
  -29.9972  -13.4465   20.4378 N   0  0  0  0  0  0
  -26.2947  -12.9378   20.3329 N   0  0  0  0  0  0
  -25.9299  -11.6527   20.5795 N   0  0  0  0  0  0
  -22.0467  -12.8252   22.0445 N   0  0  0  0  0  0
  -25.4274  -15.1911   20.4094 N   0  0  0  0  0  0
  -31.7729  -14.8081   20.0989 O   0  0  0  0  0  0
  -21.6636   -6.8914   21.4264 O   0  0  0  0  0  0
  -22.3496  -14.5530   20.6711 O   0  0  0  0  0  0
  -24.6246  -31.8648   23.2004 C   0  0  0  0  0  0
  -25.9117  -32.4792   23.8346 C   0  0  1  0  0  0
  -27.2281  -27.3217   20.1245 C   0  0  0  0  0  0
  -25.5990  -33.8591   24.2324 N   0  0  0  0  0  0
  -23.4170  -30.4834   21.5427 C   0  0  2  0  0  0
  -24.8648  -28.9353   20.1087 C   0  0  0  0  0  0
  -22.7474  -29.4644   22.4958 C   0  0  0  0  0  0
  -18.0299  -28.1385   22.8477 C   0  0  0  0  0  0
  -24.1486  -36.7249   23.2635 C   0  0  0  0  0  0
  -25.9543  -30.7946   21.3666 C   0  0  0  0  0  0
  -26.0311  -29.4180   20.7163 C   0  0  0  0  0  0
  -27.2168  -28.6240   20.7109 C   0  0  0  0  0  0
  -26.0451  -26.8869   19.4907 C   0  0  0  0  0  0
  -24.8767  -27.6754   19.4821 C   0  0  0  0  0  0
  -23.6298  -29.8170   20.1553 C   0  0  0  0  0  0
  -25.4108  -36.3063   24.0316 C   0  0  1  0  0  0
  -20.5899  -28.3710   23.1277 C   0  0  2  0  0  0
  -20.6789  -26.9437   22.5400 C   0  0  0  0  0  0
  -19.5759  -26.6388   21.5210 C   0  0  0  0  0  0
  -18.1940  -26.7923   22.1613 C   0  0  0  0  0  0
  -19.1550  -28.8856   23.2882 C   0  0  0  0  0  0
  -18.9476  -30.1454   23.8900 C   0  0  0  0  0  0
  -17.6474  -30.6586   24.0559 C   0  0  0  0  0  0
  -25.9075  -34.9447   23.5113 C   0  0  0  0  0  0
  -16.5369  -29.9084   23.6316 C   0  0  0  0  0  0
  -16.7285  -28.6504   23.0338 C   0  0  0  0  0  0
  -26.4530  -31.6558   25.0689 C   0  0  0  0  0  0
  -25.3793  -31.3634   26.1421 C   0  0  0  0  0  0
  -27.0381  -30.3002   24.6078 C   0  0  0  0  0  0
  -27.6126  -32.4266   25.7452 C   0  0  0  0  0  0
  -27.5560  -37.1756   24.8479 C   0  0  0  0  0  0
  -21.4200  -29.3068   22.3688 N   0  0  0  0  0  0
  -26.4273  -37.3763   23.9440 N   0  0  0  0  0  0
  -24.6837  -31.0658   22.0931 N   0  0  0  0  0  0
  -23.4200  -28.8221   23.3071 O   0  0  0  0  0  0
  -28.3535  -26.4872   20.1364 O   0  0  0  0  0  0
  -26.5639  -34.8897   22.4677 O   0  0  0  0  0  0
  -23.5423  -32.1464   23.7351 O   0  0  0  0  0  0
  -27.8495  -20.3311   20.1171 C   0  0  0  0  0  0
  -30.0594  -20.5733   20.8611 C   0  0  0  0  0  0
  -29.0045  -19.6717   20.6015 C   0  0  0  0  0  0
  -28.8389  -22.4399   20.1466 C   0  0  0  0  0  0
  -28.7388  -24.1303   18.1326 C   0  0  0  0  0  0
  -30.0555  -24.3392   18.7970 C   0  0  0  0  0  0
  -29.5251  -17.7235   22.3221 C   0  0  0  0  0  0
  -29.6868  -16.1848   22.2708 C   0  0  0  0  0  0
  -29.7628  -17.0472   20.0688 C   0  0  0  0  0  0
  -29.0156  -18.1228   20.9414 C   0  0  2  0  0  0
  -28.8515  -23.9352   19.6391 C   0  0  0  0  0  0
  -28.2043  -25.0584   20.5395 C   0  0  0  0  0  0
  -27.7787  -21.6733   19.8808 N   0  0  0  0  0  0
  -29.9655  -21.9217   20.6555 N   0  0  0  0  0  0
  -29.8554  -15.7728   20.8645 N   0  0  0  0  0  0
  -31.4707  -12.5568   19.1539 H   0  0  0  0  0  0
  -30.3836  -11.4268   19.9135 H   0  0  0  0  0  0
  -29.7788  -11.7544   17.5038 H   0  0  0  0  0  0
  -29.6486  -13.4802   17.7451 H   0  0  0  0  0  0
  -27.8636  -11.2992   18.8748 H   0  0  0  0  0  0
  -27.3694  -12.5797   17.8022 H   0  0  0  0  0  0
  -27.6602  -14.2551   19.5143 H   0  0  0  0  0  0
  -28.7024  -12.0637   21.3718 H   0  0  0  0  0  0
  -28.4147  -13.7105   21.8432 H   0  0  0  0  0  0
  -25.2794   -9.5686   22.4740 H   0  0  0  0  0  0
  -24.0064   -7.4605   22.7409 H   0  0  0  0  0  0
  -21.0886   -8.8757   19.8887 H   0  0  0  0  0  0
  -22.3750  -10.9671   19.6133 H   0  0  0  0  0  0
  -21.2014   -7.6154   23.9776 H   0  0  0  0  0  0
  -21.1496   -6.0488   25.9107 H   0  0  0  0  0  0
  -22.0588   -2.7618   23.2778 H   0  0  0  0  0  0
  -22.4075  -11.9960   22.4922 H   0  0  0  0  0  0
  -21.1050  -13.1222   22.2559 H   0  0  0  0  0  0
  -24.6636  -15.8476   20.5309 H   0  0  0  0  0  0
  -26.2928  -15.6323   20.1238 H   0  0  0  0  0  0
  -26.7214  -32.5452   23.1107 H   0  0  0  0  0  0
  -25.0212  -33.9796   25.0519 H   0  0  0  0  0  0
  -22.7051  -31.3000   21.4024 H   0  0  0  0  0  0
  -23.3769  -35.9572   23.3329 H   0  0  0  0  0  0
  -24.3583  -36.8838   22.2052 H   0  0  0  0  0  0
  -23.7188  -37.6424   23.6658 H   0  0  0  0  0  0
  -26.0868  -31.5557   20.5948 H   0  0  0  0  0  0
  -26.8294  -30.8422   22.0019 H   0  0  0  0  0  0
  -28.1136  -28.9927   21.1897 H   0  0  0  0  0  0
  -26.0243  -25.9270   18.9944 H   0  0  0  0  0  0
  -23.9897  -27.3072   18.9840 H   0  0  0  0  0  0
  -23.7414  -30.5969   19.3992 H   0  0  0  0  0  0
  -22.7431  -29.2533   19.8590 H   0  0  0  0  0  0
  -25.1263  -36.1918   25.0795 H   0  0  0  0  0  0
  -21.0024  -28.3307   24.1383 H   0  0  0  0  0  0
  -20.5726  -26.2347   23.3616 H   0  0  0  0  0  0
  -21.6651  -26.7461   22.1188 H   0  0  0  0  0  0
  -19.6958  -25.6309   21.1231 H   0  0  0  0  0  0
  -19.6683  -27.3206   20.6754 H   0  0  0  0  0  0
  -17.4216  -26.6693   21.4009 H   0  0  0  0  0  0
  -18.0333  -26.0046   22.8997 H   0  0  0  0  0  0
  -19.7958  -30.7259   24.2290 H   0  0  0  0  0  0
  -17.5025  -31.6248   24.5179 H   0  0  0  0  0  0
  -15.5371  -30.2990   23.7605 H   0  0  0  0  0  0
  -15.8695  -28.0805   22.7070 H   0  0  0  0  0  0
  -24.6042  -30.6904   25.7741 H   0  0  0  0  0  0
  -24.8904  -32.2767   26.4818 H   0  0  0  0  0  0
  -25.8144  -30.8851   27.0207 H   0  0  0  0  0  0
  -26.2927  -29.6713   24.1204 H   0  0  0  0  0  0
  -27.4269  -29.7239   25.4484 H   0  0  0  0  0  0
  -27.8710  -30.4337   23.9169 H   0  0  0  0  0  0
  -27.2811  -33.3611   26.1977 H   0  0  0  0  0  0
  -28.3948  -32.6730   25.0267 H   0  0  0  0  0  0
  -28.0790  -31.8416   26.5384 H   0  0  0  0  0  0
  -28.2561  -38.0070   24.7529 H   0  0  0  0  0  0
  -28.1054  -36.2584   24.6286 H   0  0  0  0  0  0
  -27.2306  -37.1361   25.8893 H   0  0  0  0  0  0
  -20.9424  -29.8777   21.6853 H   0  0  0  0  0  0
  -26.0143  -38.2837   24.1466 H   0  0  0  0  0  0
  -26.9477  -19.7696   19.9265 H   0  0  0  0  0  0
  -30.9959  -20.2050   21.2526 H   0  0  0  0  0  0
  -28.6250  -23.2421   17.5148 H   0  0  0  0  0  0
  -28.2213  -25.0132   17.7671 H   0  0  0  0  0  0
  -30.4175  -25.3614   18.8865 H   0  0  0  0  0  0
  -30.8208  -23.5882   18.6129 H   0  0  0  0  0  0
  -30.5023  -18.1755   22.4946 H   0  0  0  0  0  0
  -28.8620  -18.0365   23.1331 H   0  0  0  0  0  0
  -30.5359  -15.8787   22.8842 H   0  0  0  0  0  0
  -28.7962  -15.7133   22.6882 H   0  0  0  0  0  0
  -29.2377  -16.8713   19.1301 H   0  0  0  0  0  0
  -30.7692  -17.3829   19.8151 H   0  0  0  0  0  0
  -27.9648  -17.8240   20.9273 H   0  0  0  0  0  0
  -28.6726  -24.9813   21.5201 H   0  0  0  0  0  0
  -27.1581  -24.8030   20.6980 H   0  0  0  0  0  0
  1 25  1  0  0  0
  1 30  2  0  0  0
  1 85  1  0  0  0
  2  3  1  0  0  0
  2 25  1  0  0  0
  2 86  1  0  0  0
  2 87  1  0  0  0
  3  4  1  0  0  0
  3 88  1  0  0  0
  3 89  1  0  0  0
  4  5  1  0  0  0
  4 90  1  0  0  0
  4 91  1  0  0  0
  5  6  1  0  0  0
  5 26  1  0  0  0
  5 92  1  0  0  0
  6 25  1  0  0  0
  6 93  1  0  0  0
  6 94  1  0  0  0
  7  8  2  0  0  0
  7 26  1  0  0  0
  7 29  1  0  0  0
  8  9  1  0  0  0
  8 22  1  0  0  0
  9 10  1  0  0  0
  9 27  2  0  0  0
 10 11  2  0  0  0
 10 15  1  0  0  0
 11 12  1  0  0  0
 11 95  1  0  0  0
 12 13  2  0  0  0
 12 96  1  0  0  0
 13 14  1  0  0  0
 13 31  1  0  0  0
 14 15  2  0  0  0
 14 97  1  0  0  0
 15 98  1  0  0  0
 16 17  2  0  0  0
 16 21  1  0  0  0
 16 31  1  0  0  0
 17 18  1  0  0  0
 17 99  1  0  0  0
 18 19  2  0  0  0
 18100  1  0  0  0
 19 20  1  0  0  0
 19 24  1  0  0  0
 20 21  2  0  0  0
 20101  1  0  0  0
 21 23  1  0  0  0
 22 28  1  0  0  0
 22 32  2  0  0  0
 26 27  1  0  0  0
 28102  1  0  0  0
 28103  1  0  0  0
 29104  1  0  0  0
 29105  1  0  0  0
 33 34  1  0  0  0
 33 66  1  0  0  0
 33 70  2  0  0  0
 34 36  1  0  0  0
 34 59  1  0  0  0
 34106  1  0  0  0
 35 44  2  0  0  0
 35 45  1  0  0  0
 35 68  1  0  0  0
 36 56  1  0  0  0
 36107  1  0  0  0
 37 39  1  0  0  0
 37 47  1  0  0  0
 37 66  1  0  0  0
 37108  1  0  0  0
 38 43  2  0  0  0
 38 46  1  0  0  0
 38 47  1  0  0  0
 39 64  1  0  0  0
 39 67  2  0  0  0
 40 52  1  0  0  0
 40 53  2  0  0  0
 40 58  1  0  0  0
 41109  1  0  0  0
 41110  1  0  0  0
 41111  1  0  0  0
 41 48  1  0  0  0
 42 43  1  0  0  0
 42 66  1  0  0  0
 42112  1  0  0  0
 42113  1  0  0  0
 43 44  1  0  0  0
 44114  1  0  0  0
 45 46  2  0  0  0
 45115  1  0  0  0
 46116  1  0  0  0
 47117  1  0  0  0
 47118  1  0  0  0
 48 56  1  0  0  0
 48 65  1  0  0  0
 48119  1  0  0  0
 49 50  1  0  0  0
 49 53  1  0  0  0
 49 64  1  0  0  0
 49120  1  0  0  0
 50 51  1  0  0  0
 50121  1  0  0  0
 50122  1  0  0  0
 51 52  1  0  0  0
 51123  1  0  0  0
 51124  1  0  0  0
 52125  1  0  0  0
 52126  1  0  0  0
 53 54  1  0  0  0
 54 55  2  0  0  0
 54127  1  0  0  0
 55 57  1  0  0  0
 55128  1  0  0  0
 56 69  2  0  0  0
 57 58  2  0  0  0
 57129  1  0  0  0
 58130  1  0  0  0
 59 60  1  0  0  0
 59 61  1  0  0  0
 59 62  1  0  0  0
 60131  1  0  0  0
 60132  1  0  0  0
 60133  1  0  0  0
 61134  1  0  0  0
 61135  1  0  0  0
 61136  1  0  0  0
 62137  1  0  0  0
 62138  1  0  0  0
 62139  1  0  0  0
 63 65  1  0  0  0
 63140  1  0  0  0
 63141  1  0  0  0
 63142  1  0  0  0
 64143  1  0  0  0
 65144  1  0  0  0
 68 82  1  0  0  0
 71 73  2  0  0  0
 71 83  1  0  0  0
 71145  1  0  0  0
 72 73  1  0  0  0
 72 84  2  0  0  0
 72146  1  0  0  0
 73 80  1  0  0  0
 74 81  1  0  0  0
 74 83  2  0  0  0
 74 84  1  0  0  0
 75 76  1  0  0  0
 75 81  1  0  0  0
 75147  1  0  0  0
 75148  1  0  0  0
 76 81  1  0  0  0
 76149  1  0  0  0
 76150  1  0  0  0
 77 78  1  0  0  0
 77 80  1  0  0  0
 77151  1  0  0  0
 77152  1  0  0  0
 78 85  1  0  0  0
 78153  1  0  0  0
 78154  1  0  0  0
 79 80  1  0  0  0
 79 85  1  0  0  0
 79155  1  0  0  0
 79156  1  0  0  0
 80157  1  0  0  0
 81 82  1  0  0  0
 82158  1  0  0  0
 82159  1  0  0  0
M  ISO  4   1 100  68 101  82 101  85 100
M  END
> <chiral flag>
0

> <version>
0

> <s_m_source_file>
/data/baiqing/PycharmProjects/Reinvent-master-3.2/result/LINK_invent/BTK/process_docking_weight1_custom_sum_contain_oxygen_bond_distance_aromatic_linkinvent_7_9_3/rearranged_h_0178.sdf

> <i_m_source_file_index>
66

> <r_mmod_Potential_Energy-OPLS-2005>
-94.0267028808594

> <r_mmod_Stretch_Energy-OPLS-2005>
88.1670455932617

> <r_mmod_Bend_Energy-OPLS-2005>
171.929229736328

> <r_mmod_Torsional_Energy-OPLS-2005>
342.962615966797

> <r_mmod_Improper_Torsional_Energy-OPLS-2005>
10.6559715270996

> <r_mmod_Van_der_Waal_Energy-OPLS-2005>
134.908554077148

> <r_mmod_Electrostatic_Energy-OPLS-2005>
-678.3115234375

> <r_mmod_Solvation_Energy-OPLS-2005>
-214.148468017578

> <b_mmod_Minimization_Converged-OPLS-2005>
0

> <r_mmod_RMS_Derivative-OPLS-2005>
4.55102491378784

$$$$
67
                    3D
 Structure written by MMmdl.
153162  0  0  1  0            999 V2000
  -30.2929  -15.6166   20.3295 C   0  0  0  0  0  0
  -30.4288  -13.0679   19.5306 C   0  0  0  0  0  0
  -29.5486  -12.6545   18.3163 C   0  0  0  0  0  0
  -28.1237  -12.2932   18.7635 C   0  0  0  0  0  0
  -27.5962  -13.3015   19.8088 C   0  0  2  0  0  0
  -28.6141  -13.6282   20.9261 C   0  0  0  0  0  0
  -25.2329  -13.8278   20.5782 C   0  0  0  0  0  0
  -24.1707  -13.0432   20.9274 C   0  0  0  0  0  0
  -24.6391  -11.6939   20.8749 C   0  0  0  0  0  0
  -23.9090  -10.4290   21.0398 C   0  0  0  0  0  0
  -24.3632   -9.4206   21.9182 C   0  0  0  0  0  0
  -23.6295   -8.2249   22.0757 C   0  0  0  0  0  0
  -22.4282   -8.0288   21.3545 C   0  0  0  0  0  0
  -21.9916   -9.0259   20.4644 C   0  0  0  0  0  0
  -22.7257  -10.2132   20.3046 C   0  0  0  0  0  0
  -21.6866   -6.0727   22.5277 C   0  0  0  0  0  0
  -21.4027   -6.5632   23.8208 C   0  0  0  0  0  0
  -21.3657   -5.6786   24.9170 C   0  0  0  0  0  0
  -21.6042   -4.3048   24.7221 C   0  0  0  0  0  0
  -21.8817   -3.8139   23.4342 C   0  0  0  0  0  0
  -21.9195   -4.6953   22.3399 C   0  0  0  0  0  0
  -22.7724  -13.5178   21.1907 C   0  0  0  0  0  0
  -22.1665   -4.2136   21.0974 F   0  0  0  0  0  0
  -21.5624   -3.4533   25.7733 F   0  0  0  0  0  0
  -29.7905  -14.2450   20.2691 N   0  0  0  0  0  0
  -26.2764  -12.9591   20.3217 N   0  0  0  0  0  0
  -25.9336  -11.6671   20.5679 N   0  0  0  0  0  0
  -22.0381  -12.8172   22.0461 N   0  0  0  0  0  0
  -25.3938  -15.2014   20.4251 N   0  0  0  0  0  0
  -31.5346  -15.5739   20.2036 O   0  0  0  0  0  0
  -21.6649   -6.8883   21.4244 O   0  0  0  0  0  0
  -22.3413  -14.5478   20.6744 O   0  0  0  0  0  0
  -24.6849  -31.7993   23.1519 C   0  0  0  0  0  0
  -25.9437  -32.4471   23.8046 C   0  0  1  0  0  0
  -27.2274  -26.7053   20.2128 C   0  0  0  0  0  0
  -25.6010  -33.8297   24.1939 N   0  0  0  0  0  0
  -23.5105  -30.4024   21.5067 C   0  0  2  0  0  0
  -24.9676  -28.7418   20.1239 C   0  0  0  0  0  0
  -22.7772  -29.4327   22.4728 C   0  0  0  0  0  0
  -18.0367  -28.1416   22.8440 C   0  0  0  0  0  0
  -24.1506  -36.7165   23.2648 C   0  0  0  0  0  0
  -26.0912  -30.5338   21.4149 C   0  0  0  0  0  0
  -26.1585  -29.0970   20.7687 C   0  0  0  0  0  0
  -27.2777  -28.1086   20.7775 C   0  0  0  0  0  0
  -26.0021  -26.5597   19.5149 C   0  0  0  0  0  0
  -24.9272  -27.4977   19.4742 C   0  0  0  0  0  0
  -23.7651  -29.6978   20.1431 C   0  0  0  0  0  0
  -25.4156  -36.2901   24.0274 C   0  0  1  0  0  0
  -20.5988  -28.3804   23.1158 C   0  0  2  0  0  0
  -20.6859  -26.9477   22.5388 C   0  0  0  0  0  0
  -19.5860  -26.6425   21.5178 C   0  0  0  0  0  0
  -18.2029  -26.7959   22.1582 C   0  0  0  0  0  0
  -19.1613  -28.8928   23.2792 C   0  0  0  0  0  0
  -18.9496  -30.1504   23.8847 C   0  0  0  0  0  0
  -17.6479  -30.6589   24.0567 C   0  0  0  0  0  0
  -25.9131  -34.9289   23.4948 C   0  0  0  0  0  0
  -16.5387  -29.9056   23.6338 C   0  0  0  0  0  0
  -16.7342  -28.6489   23.0337 C   0  0  0  0  0  0
  -26.4615  -31.6495   25.0660 C   0  0  0  0  0  0
  -25.3680  -31.3805   26.1273 C   0  0  0  0  0  0
  -27.0524  -30.2833   24.6534 C   0  0  0  0  0  0
  -27.6072  -32.4328   25.7473 C   0  0  0  0  0  0
  -27.5575  -37.1750   24.8468 C   0  0  0  0  0  0
  -21.4416  -29.3076   22.3503 N   0  0  0  0  0  0
  -26.4289  -37.3658   23.9400 N   0  0  0  0  0  0
  -24.7856  -30.9436   22.0779 N   0  0  0  0  0  0
  -23.4230  -28.7899   23.3045 O   0  0  0  0  0  0
  -28.1903  -25.4840   20.2247 O   0  0  0  0  0  0
  -26.5767  -34.8868   22.4566 O   0  0  0  0  0  0
  -23.5873  -32.1068   23.6480 O   0  0  0  0  0  0
  -28.2085  -19.3909   19.6577 C   0  0  0  0  0  0
  -29.6674  -21.2255   20.8585 C   0  0  0  0  0  0
  -27.8484  -20.8707   19.6416 C   0  0  0  0  0  0
  -28.5545  -22.0352   20.2522 C   0  0  0  0  0  0
  -29.3267  -18.6515   20.2813 C   0  0  0  0  0  0
  -25.3412  -21.7513   19.5724 C   0  0  0  0  0  0
  -25.3323  -20.3113   19.1335 C   0  0  0  0  0  0
  -26.5672  -21.1634   18.9064 C   0  0  0  0  0  0
  -27.4938  -23.8443   21.9487 C   0  0  0  0  0  0
  -27.8736  -23.7777   20.4658 C   0  0  1  0  0  0
  -30.0055  -19.7789   20.8607 N   0  0  0  0  0  0
  -29.4587  -16.9300   20.2992 N   0  0  0  0  0  0
  -31.4219  -13.3367   19.1669 H   0  0  0  0  0  0
  -30.5899  -12.2229   20.2035 H   0  0  0  0  0  0
  -30.0029  -11.8213   17.7789 H   0  0  0  0  0  0
  -29.5009  -13.4867   17.6111 H   0  0  0  0  0  0
  -28.1559  -11.2974   19.2052 H   0  0  0  0  0  0
  -27.4512  -12.2304   17.9063 H   0  0  0  0  0  0
  -27.4599  -14.2204   19.2377 H   0  0  0  0  0  0
  -28.8709  -12.7472   21.5168 H   0  0  0  0  0  0
  -28.1828  -14.3502   21.6217 H   0  0  0  0  0  0
  -25.2770   -9.5688   22.4766 H   0  0  0  0  0  0
  -23.9992   -7.4644   22.7488 H   0  0  0  0  0  0
  -21.0840   -8.8777   19.8954 H   0  0  0  0  0  0
  -22.3708  -10.9667   19.6156 H   0  0  0  0  0  0
  -21.2036   -7.6142   23.9707 H   0  0  0  0  0  0
  -21.1484   -6.0519   25.9073 H   0  0  0  0  0  0
  -22.0596   -2.7599   23.2843 H   0  0  0  0  0  0
  -22.4009  -11.9832   22.4847 H   0  0  0  0  0  0
  -21.0992  -13.1202   22.2663 H   0  0  0  0  0  0
  -24.6205  -15.8497   20.5303 H   0  0  0  0  0  0
  -26.2359  -15.6453   20.0866 H   0  0  0  0  0  0
  -26.7509  -32.4947   23.0751 H   0  0  0  0  0  0
  -25.0074  -33.9312   25.0037 H   0  0  0  0  0  0
  -22.8352  -31.2394   21.3153 H   0  0  0  0  0  0
  -23.3775  -35.9492   23.3277 H   0  0  0  0  0  0
  -24.3571  -36.8861   22.2067 H   0  0  0  0  0  0
  -23.7261  -37.6340   23.6737 H   0  0  0  0  0  0
  -26.2906  -31.2534   20.6189 H   0  0  0  0  0  0
  -26.9459  -30.6070   22.0770 H   0  0  0  0  0  0
  -28.1791  -28.3891   21.3046 H   0  0  0  0  0  0
  -25.8392  -25.6206   19.0049 H   0  0  0  0  0  0
  -24.0322  -27.2175   18.9358 H   0  0  0  0  0  0
  -23.9451  -30.4550   19.3790 H   0  0  0  0  0  0
  -22.8698  -29.1637   19.8198 H   0  0  0  0  0  0
  -25.1369  -36.1679   25.0763 H   0  0  0  0  0  0
  -21.0067  -28.3410   24.1281 H   0  0  0  0  0  0
  -20.5753  -26.2419   23.3639 H   0  0  0  0  0  0
  -21.6722  -26.7473   22.1188 H   0  0  0  0  0  0
  -19.7068  -25.6338   21.1202 H   0  0  0  0  0  0
  -19.6823  -27.3248   20.6717 H   0  0  0  0  0  0
  -17.4312  -26.6698   21.3977 H   0  0  0  0  0  0
  -18.0433  -26.0095   22.8974 H   0  0  0  0  0  0
  -19.7969  -30.7335   24.2197 H   0  0  0  0  0  0
  -17.5016  -31.6262   24.5194 H   0  0  0  0  0  0
  -15.5375  -30.2930   23.7670 H   0  0  0  0  0  0
  -15.8760  -28.0792   22.7038 H   0  0  0  0  0  0
  -24.5901  -30.7117   25.7563 H   0  0  0  0  0  0
  -24.8826  -32.3018   26.4494 H   0  0  0  0  0  0
  -25.7855  -30.9101   27.0181 H   0  0  0  0  0  0
  -26.3226  -29.6467   24.1515 H   0  0  0  0  0  0
  -27.3948  -29.7259   25.5257 H   0  0  0  0  0  0
  -27.9214  -30.3956   24.0050 H   0  0  0  0  0  0
  -27.2640  -33.3700   26.1873 H   0  0  0  0  0  0
  -28.3985  -32.6778   25.0370 H   0  0  0  0  0  0
  -28.0640  -31.8571   26.5540 H   0  0  0  0  0  0
  -28.2573  -38.0058   24.7490 H   0  0  0  0  0  0
  -28.1082  -36.2579   24.6328 H   0  0  0  0  0  0
  -27.2279  -37.1432   25.8865 H   0  0  0  0  0  0
  -20.9721  -29.8781   21.6612 H   0  0  0  0  0  0
  -26.0124  -38.2719   24.1381 H   0  0  0  0  0  0
  -27.5164  -18.7481   19.1318 H   0  0  0  0  0  0
  -30.3534  -21.7870   21.4751 H   0  0  0  0  0  0
  -25.3802  -21.9453   20.6424 H   0  0  0  0  0  0
  -24.7476  -22.4531   18.9885 H   0  0  0  0  0  0
  -24.7276  -20.0551   18.2648 H   0  0  0  0  0  0
  -25.3496  -19.5664   19.9283 H   0  0  0  0  0  0
  -26.7788  -21.4645   17.8811 H   0  0  0  0  0  0
  -26.7379  -24.6057   22.1420 H   0  0  0  0  0  0
  -28.3675  -24.0887   22.5532 H   0  0  0  0  0  0
  -27.1037  -22.8922   22.3065 H   0  0  0  0  0  0
  -26.9476  -23.7024   19.9056 H   0  0  0  0  0  0
  -28.5183  -16.5787   20.2160 H   0  0  0  0  0  0
  1 25  1  0  0  0
  1 30  2  0  0  0
  1 82  1  0  0  0
  2  3  1  0  0  0
  2 25  1  0  0  0
  2 83  1  0  0  0
  2 84  1  0  0  0
  3  4  1  0  0  0
  3 85  1  0  0  0
  3 86  1  0  0  0
  4  5  1  0  0  0
  4 87  1  0  0  0
  4 88  1  0  0  0
  5  6  1  0  0  0
  5 26  1  0  0  0
  5 89  1  0  0  0
  6 25  1  0  0  0
  6 90  1  0  0  0
  6 91  1  0  0  0
  7  8  2  0  0  0
  7 26  1  0  0  0
  7 29  1  0  0  0
  8  9  1  0  0  0
  8 22  1  0  0  0
  9 10  1  0  0  0
  9 27  2  0  0  0
 10 11  2  0  0  0
 10 15  1  0  0  0
 11 12  1  0  0  0
 11 92  1  0  0  0
 12 13  2  0  0  0
 12 93  1  0  0  0
 13 14  1  0  0  0
 13 31  1  0  0  0
 14 15  2  0  0  0
 14 94  1  0  0  0
 15 95  1  0  0  0
 16 17  2  0  0  0
 16 21  1  0  0  0
 16 31  1  0  0  0
 17 18  1  0  0  0
 17 96  1  0  0  0
 18 19  2  0  0  0
 18 97  1  0  0  0
 19 20  1  0  0  0
 19 24  1  0  0  0
 20 21  2  0  0  0
 20 98  1  0  0  0
 21 23  1  0  0  0
 22 28  1  0  0  0
 22 32  2  0  0  0
 26 27  1  0  0  0
 28 99  1  0  0  0
 28100  1  0  0  0
 29101  1  0  0  0
 29102  1  0  0  0
 33 34  1  0  0  0
 33 66  1  0  0  0
 33 70  2  0  0  0
 34 36  1  0  0  0
 34 59  1  0  0  0
 34103  1  0  0  0
 35 44  2  0  0  0
 35 45  1  0  0  0
 35 68  1  0  0  0
 36 56  1  0  0  0
 36104  1  0  0  0
 37 39  1  0  0  0
 37 47  1  0  0  0
 37 66  1  0  0  0
 37105  1  0  0  0
 38 43  2  0  0  0
 38 46  1  0  0  0
 38 47  1  0  0  0
 39 64  1  0  0  0
 39 67  2  0  0  0
 40 52  1  0  0  0
 40 53  2  0  0  0
 40 58  1  0  0  0
 41106  1  0  0  0
 41107  1  0  0  0
 41108  1  0  0  0
 41 48  1  0  0  0
 42 43  1  0  0  0
 42 66  1  0  0  0
 42109  1  0  0  0
 42110  1  0  0  0
 43 44  1  0  0  0
 44111  1  0  0  0
 45 46  2  0  0  0
 45112  1  0  0  0
 46113  1  0  0  0
 47114  1  0  0  0
 47115  1  0  0  0
 48 56  1  0  0  0
 48 65  1  0  0  0
 48116  1  0  0  0
 49 50  1  0  0  0
 49 53  1  0  0  0
 49 64  1  0  0  0
 49117  1  0  0  0
 50 51  1  0  0  0
 50118  1  0  0  0
 50119  1  0  0  0
 51 52  1  0  0  0
 51120  1  0  0  0
 51121  1  0  0  0
 52122  1  0  0  0
 52123  1  0  0  0
 53 54  1  0  0  0
 54 55  2  0  0  0
 54124  1  0  0  0
 55 57  1  0  0  0
 55125  1  0  0  0
 56 69  2  0  0  0
 57 58  2  0  0  0
 57126  1  0  0  0
 58127  1  0  0  0
 59 60  1  0  0  0
 59 61  1  0  0  0
 59 62  1  0  0  0
 60128  1  0  0  0
 60129  1  0  0  0
 60130  1  0  0  0
 61131  1  0  0  0
 61132  1  0  0  0
 61133  1  0  0  0
 62134  1  0  0  0
 62135  1  0  0  0
 62136  1  0  0  0
 63 65  1  0  0  0
 63137  1  0  0  0
 63138  1  0  0  0
 63139  1  0  0  0
 64140  1  0  0  0
 65141  1  0  0  0
 68 80  1  0  0  0
 71 73  2  0  0  0
 71 75  1  0  0  0
 71142  1  0  0  0
 72 74  2  0  0  0
 72 81  1  0  0  0
 72143  1  0  0  0
 73 74  1  0  0  0
 73 78  1  0  0  0
 74 80  1  0  0  0
 75 81  2  0  0  0
 75 82  1  0  0  0
 76 77  1  0  0  0
 76 78  1  0  0  0
 76144  1  0  0  0
 76145  1  0  0  0
 77 78  1  0  0  0
 77146  1  0  0  0
 77147  1  0  0  0
 78148  1  0  0  0
 79149  1  0  0  0
 79150  1  0  0  0
 79151  1  0  0  0
 79 80  1  0  0  0
 80152  1  0  0  0
 82153  1  0  0  0
M  ISO  4   1 100  68 101  80 101  82 100
M  END
> <chiral flag>
0

> <version>
0

> <s_m_source_file>
/data/baiqing/PycharmProjects/Reinvent-master-3.2/result/LINK_invent/BTK/process_docking_weight1_custom_sum_contain_oxygen_bond_distance_aromatic_linkinvent_7_9_3/rearranged_h_0178.sdf

> <i_m_source_file_index>
67

> <r_mmod_Potential_Energy-OPLS-2005>
2216.28076171875

> <r_mmod_Stretch_Energy-OPLS-2005>
941.240783691406

> <r_mmod_Bend_Energy-OPLS-2005>
699.018615722656

> <r_mmod_Torsional_Energy-OPLS-2005>
270.931488037109

> <r_mmod_Improper_Torsional_Energy-OPLS-2005>
9.31202793121338

> <r_mmod_Van_der_Waal_Energy-OPLS-2005>
131.376358032227

> <r_mmod_Electrostatic_Energy-OPLS-2005>
-486.755554199219

> <r_mmod_Solvation_Energy-OPLS-2005>
-234.515228271484

> <b_mmod_Minimization_Converged-OPLS-2005>
0

> <r_mmod_RMS_Derivative-OPLS-2005>
2.46069478988647

$$$$
68
                    3D
 Structure written by MMmdl.
155164  0  0  1  0            999 V2000
  -30.5096  -15.0702   20.4152 C   0  0  0  0  0  0
  -30.4335  -12.6687   19.5234 C   0  0  0  0  0  0
  -29.5271  -12.5568   18.2749 C   0  0  0  0  0  0
  -28.0621  -12.3282   18.6865 C   0  0  0  0  0  0
  -27.6235  -13.2664   19.8422 C   0  0  2  0  0  0
  -28.6616  -13.3365   20.9827 C   0  0  0  0  0  0
  -25.2423  -13.8247   20.5755 C   0  0  0  0  0  0
  -24.1757  -13.0436   20.9242 C   0  0  0  0  0  0
  -24.6402  -11.6929   20.8771 C   0  0  0  0  0  0
  -23.9096  -10.4291   21.0415 C   0  0  0  0  0  0
  -24.3639   -9.4205   21.9194 C   0  0  0  0  0  0
  -23.6309   -8.2240   22.0752 C   0  0  0  0  0  0
  -22.4290   -8.0290   21.3542 C   0  0  0  0  0  0
  -21.9936   -9.0264   20.4645 C   0  0  0  0  0  0
  -22.7265  -10.2142   20.3062 C   0  0  0  0  0  0
  -21.6859   -6.0752   22.5287 C   0  0  0  0  0  0
  -21.4020   -6.5651   23.8225 C   0  0  0  0  0  0
  -21.3658   -5.6796   24.9182 C   0  0  0  0  0  0
  -21.6045   -4.3062   24.7231 C   0  0  0  0  0  0
  -21.8816   -3.8162   23.4354 C   0  0  0  0  0  0
  -21.9192   -4.6980   22.3409 C   0  0  0  0  0  0
  -22.7777  -13.5205   21.1898 C   0  0  0  0  0  0
  -22.1660   -4.2171   21.0980 F   0  0  0  0  0  0
  -21.5626   -3.4536   25.7737 F   0  0  0  0  0  0
  -29.9223  -13.7901   20.3799 N   0  0  0  0  0  0
  -26.2861  -12.9507   20.3278 N   0  0  0  0  0  0
  -25.9342  -11.6618   20.5760 N   0  0  0  0  0  0
  -22.0429  -12.8193   22.0456 N   0  0  0  0  0  0
  -25.4083  -15.1981   20.4224 N   0  0  0  0  0  0
  -31.6933  -15.1036   20.0526 O   0  0  0  0  0  0
  -21.6638   -6.8897   21.4251 O   0  0  0  0  0  0
  -22.3461  -14.5502   20.6738 O   0  0  0  0  0  0
  -24.6511  -31.8336   23.1767 C   0  0  0  0  0  0
  -25.9242  -32.4640   23.8208 C   0  0  1  0  0  0
  -27.2319  -27.0535   20.1636 C   0  0  0  0  0  0
  -25.5962  -33.8448   24.2126 N   0  0  0  0  0  0
  -23.4607  -30.4448   21.5222 C   0  0  2  0  0  0
  -24.9159  -28.8523   20.1004 C   0  0  0  0  0  0
  -22.7613  -29.4469   22.4807 C   0  0  0  0  0  0
  -18.0312  -28.1390   22.8467 C   0  0  0  0  0  0
  -24.1494  -36.7228   23.2649 C   0  0  0  0  0  0
  -26.0193  -30.6806   21.3866 C   0  0  0  0  0  0
  -26.0892  -29.2821   20.7303 C   0  0  0  0  0  0
  -27.2383  -28.3968   20.7467 C   0  0  0  0  0  0
  -26.0383  -26.7410   19.4804 C   0  0  0  0  0  0
  -24.9085  -27.5994   19.4595 C   0  0  0  0  0  0
  -23.6918  -29.7614   20.1447 C   0  0  0  0  0  0
  -25.4132  -36.2997   24.0308 C   0  0  1  0  0  0
  -20.5927  -28.3717   23.1217 C   0  0  2  0  0  0
  -20.6779  -26.9404   22.5412 C   0  0  0  0  0  0
  -19.5761  -26.6363   21.5209 C   0  0  0  0  0  0
  -18.1943  -26.7925   22.1617 C   0  0  0  0  0  0
  -19.1572  -28.8875   23.2830 C   0  0  0  0  0  0
  -18.9485  -30.1467   23.8857 C   0  0  0  0  0  0
  -17.6476  -30.6577   24.0548 C   0  0  0  0  0  0
  -25.9088  -34.9376   23.5031 C   0  0  0  0  0  0
  -16.5367  -29.9064   23.6331 C   0  0  0  0  0  0
  -16.7295  -28.6488   23.0349 C   0  0  0  0  0  0
  -26.4538  -31.6551   25.0695 C   0  0  0  0  0  0
  -25.3701  -31.3748   26.1377 C   0  0  0  0  0  0
  -27.0420  -30.2942   24.6341 C   0  0  0  0  0  0
  -27.6063  -32.4330   25.7486 C   0  0  0  0  0  0
  -27.5565  -37.1765   24.8469 C   0  0  0  0  0  0
  -21.4293  -29.3025   22.3574 N   0  0  0  0  0  0
  -26.4281  -37.3723   23.9405 N   0  0  0  0  0  0
  -24.7306  -31.0119   22.0824 N   0  0  0  0  0  0
  -23.4214  -28.8040   23.3010 O   0  0  0  0  0  0
  -28.2810  -26.0517   20.3265 O   0  0  0  0  0  0
  -26.5686  -34.8893   22.4617 O   0  0  0  0  0  0
  -23.5611  -32.1254   23.6937 O   0  0  0  0  0  0
  -26.7984  -22.8733   20.6329 C   0  0  0  0  0  0
  -26.3008  -21.5832   20.8295 C   0  0  0  0  0  0
  -28.1382  -23.0492   20.2842 C   0  0  0  0  0  0
  -28.3725  -20.5180   20.4718 C   0  0  0  0  0  0
  -29.3934  -18.3835   22.0751 C   0  0  0  0  0  0
  -29.4394  -16.7947   21.9743 C   0  0  0  0  0  0
  -29.7136  -17.6980   19.8329 C   0  0  0  0  0  0
  -28.9898  -18.9202   20.6976 C   0  0  2  0  0  0
  -24.8344  -21.3491   21.1263 C   0  0  0  0  0  0
  -28.4995  -24.5956   19.7106 C   0  0  0  0  0  0
  -27.0649  -20.4805   20.7366 N   0  0  0  0  0  0
  -28.9218  -21.8155   20.2394 N   0  0  0  0  0  0
  -29.7665  -16.3097   20.6048 N   0  0  0  0  0  0
  -31.4663  -12.8276   19.2104 H   0  0  0  0  0  0
  -30.4417  -11.7306   20.0817 H   0  0  0  0  0  0
  -29.8660  -11.7483   17.6244 H   0  0  0  0  0  0
  -29.6044  -13.4736   17.6895 H   0  0  0  0  0  0
  -27.9674  -11.2891   19.0013 H   0  0  0  0  0  0
  -27.4006  -12.4482   17.8270 H   0  0  0  0  0  0
  -27.5722  -14.2620   19.4001 H   0  0  0  0  0  0
  -28.7760  -12.3687   21.4721 H   0  0  0  0  0  0
  -28.3372  -14.0355   21.7537 H   0  0  0  0  0  0
  -25.2782   -9.5682   22.4776 H   0  0  0  0  0  0
  -24.0027   -7.4624   22.7459 H   0  0  0  0  0  0
  -21.0875   -8.8777   19.8945 H   0  0  0  0  0  0
  -22.3723  -10.9679   19.6175 H   0  0  0  0  0  0
  -21.2010   -7.6162   23.9740 H   0  0  0  0  0  0
  -21.1483   -6.0523   25.9083 H   0  0  0  0  0  0
  -22.0597   -2.7628   23.2835 H   0  0  0  0  0  0
  -22.4053  -11.9874   22.4868 H   0  0  0  0  0  0
  -21.1034  -13.1202   22.2623 H   0  0  0  0  0  0
  -24.6425  -15.8543   20.5365 H   0  0  0  0  0  0
  -26.2663  -15.6399   20.1180 H   0  0  0  0  0  0
  -26.7309  -32.5216   23.0930 H   0  0  0  0  0  0
  -25.0078  -33.9552   25.0257 H   0  0  0  0  0  0
  -22.7671  -31.2717   21.3561 H   0  0  0  0  0  0
  -23.3760  -35.9549   23.3295 H   0  0  0  0  0  0
  -24.3589  -36.8891   22.2068 H   0  0  0  0  0  0
  -23.7240  -37.6413   23.6709 H   0  0  0  0  0  0
  -26.1845  -31.4269   20.6081 H   0  0  0  0  0  0
  -26.8846  -30.7364   22.0351 H   0  0  0  0  0  0
  -28.1261  -28.7161   21.2739 H   0  0  0  0  0  0
  -25.9465  -25.7753   19.0050 H   0  0  0  0  0  0
  -24.0126  -27.2645   18.9571 H   0  0  0  0  0  0
  -23.8290  -30.5289   19.3824 H   0  0  0  0  0  0
  -22.8062  -29.2017   19.8378 H   0  0  0  0  0  0
  -25.1319  -36.1805   25.0797 H   0  0  0  0  0  0
  -21.0026  -28.3310   24.1335 H   0  0  0  0  0  0
  -20.5642  -26.2332   23.3639 H   0  0  0  0  0  0
  -21.6643  -26.7374   22.1224 H   0  0  0  0  0  0
  -19.6918  -25.6264   21.1252 H   0  0  0  0  0  0
  -19.6702  -27.3148   20.6723 H   0  0  0  0  0  0
  -17.4212  -26.6672   21.4015 H   0  0  0  0  0  0
  -18.0335  -26.0077   22.9024 H   0  0  0  0  0  0
  -19.7961  -30.7295   24.2208 H   0  0  0  0  0  0
  -17.5029  -31.6259   24.5150 H   0  0  0  0  0  0
  -15.5364  -30.2947   23.7689 H   0  0  0  0  0  0
  -15.8698  -28.0797   22.7073 H   0  0  0  0  0  0
  -24.5912  -30.7071   25.7684 H   0  0  0  0  0  0
  -24.8858  -32.2922   26.4731 H   0  0  0  0  0  0
  -25.7978  -30.8973   27.0206 H   0  0  0  0  0  0
  -26.3058  -29.6640   24.1345 H   0  0  0  0  0  0
  -27.3998  -29.7284   25.4954 H   0  0  0  0  0  0
  -27.8977  -30.4168   23.9697 H   0  0  0  0  0  0
  -27.2673  -33.3675   26.1972 H   0  0  0  0  0  0
  -28.3920  -32.6820   25.0336 H   0  0  0  0  0  0
  -28.0681  -31.8515   26.5480 H   0  0  0  0  0  0
  -28.2569  -38.0074   24.7510 H   0  0  0  0  0  0
  -28.1068  -36.2598   24.6292 H   0  0  0  0  0  0
  -27.2288  -37.1409   25.8877 H   0  0  0  0  0  0
  -20.9522  -29.8755   21.6749 H   0  0  0  0  0  0
  -26.0135  -38.2783   24.1416 H   0  0  0  0  0  0
  -26.1375  -23.7299   20.6632 H   0  0  0  0  0  0
  -30.3669  -18.7869   22.3503 H   0  0  0  0  0  0
  -28.6880  -18.7028   22.8437 H   0  0  0  0  0  0
  -30.1317  -16.3854   22.7126 H   0  0  0  0  0  0
  -28.4564  -16.3945   22.2260 H   0  0  0  0  0  0
  -29.1890  -17.5490   18.8885 H   0  0  0  0  0  0
  -30.7316  -17.9920   19.5765 H   0  0  0  0  0  0
  -28.0109  -18.4457   20.6229 H   0  0  0  0  0  0
  -24.3894  -20.7078   20.3652 H   0  0  0  0  0  0
  -24.2757  -22.2840   21.1427 H   0  0  0  0  0  0
  -24.7120  -20.8656   22.0965 H   0  0  0  0  0  0
  -28.0573  -24.6361   18.7159 H   0  0  0  0  0  0
  -29.5710  -24.5561   19.5151 H   0  0  0  0  0  0
  1 25  1  0  0  0
  1 30  2  0  0  0
  1 83  1  0  0  0
  2  3  1  0  0  0
  2 25  1  0  0  0
  2 84  1  0  0  0
  2 85  1  0  0  0
  3  4  1  0  0  0
  3 86  1  0  0  0
  3 87  1  0  0  0
  4  5  1  0  0  0
  4 88  1  0  0  0
  4 89  1  0  0  0
  5  6  1  0  0  0
  5 26  1  0  0  0
  5 90  1  0  0  0
  6 25  1  0  0  0
  6 91  1  0  0  0
  6 92  1  0  0  0
  7  8  2  0  0  0
  7 26  1  0  0  0
  7 29  1  0  0  0
  8  9  1  0  0  0
  8 22  1  0  0  0
  9 10  1  0  0  0
  9 27  2  0  0  0
 10 11  2  0  0  0
 10 15  1  0  0  0
 11 12  1  0  0  0
 11 93  1  0  0  0
 12 13  2  0  0  0
 12 94  1  0  0  0
 13 14  1  0  0  0
 13 31  1  0  0  0
 14 15  2  0  0  0
 14 95  1  0  0  0
 15 96  1  0  0  0
 16 17  2  0  0  0
 16 21  1  0  0  0
 16 31  1  0  0  0
 17 18  1  0  0  0
 17 97  1  0  0  0
 18 19  2  0  0  0
 18 98  1  0  0  0
 19 20  1  0  0  0
 19 24  1  0  0  0
 20 21  2  0  0  0
 20 99  1  0  0  0
 21 23  1  0  0  0
 22 28  1  0  0  0
 22 32  2  0  0  0
 26 27  1  0  0  0
 28100  1  0  0  0
 28101  1  0  0  0
 29102  1  0  0  0
 29103  1  0  0  0
 33 34  1  0  0  0
 33 66  1  0  0  0
 33 70  2  0  0  0
 34 36  1  0  0  0
 34 59  1  0  0  0
 34104  1  0  0  0
 35 44  2  0  0  0
 35 45  1  0  0  0
 35 68  1  0  0  0
 36 56  1  0  0  0
 36105  1  0  0  0
 37 39  1  0  0  0
 37 47  1  0  0  0
 37 66  1  0  0  0
 37106  1  0  0  0
 38 43  2  0  0  0
 38 46  1  0  0  0
 38 47  1  0  0  0
 39 64  1  0  0  0
 39 67  2  0  0  0
 40 52  1  0  0  0
 40 53  2  0  0  0
 40 58  1  0  0  0
 41107  1  0  0  0
 41108  1  0  0  0
 41109  1  0  0  0
 41 48  1  0  0  0
 42 43  1  0  0  0
 42 66  1  0  0  0
 42110  1  0  0  0
 42111  1  0  0  0
 43 44  1  0  0  0
 44112  1  0  0  0
 45 46  2  0  0  0
 45113  1  0  0  0
 46114  1  0  0  0
 47115  1  0  0  0
 47116  1  0  0  0
 48 56  1  0  0  0
 48 65  1  0  0  0
 48117  1  0  0  0
 49 50  1  0  0  0
 49 53  1  0  0  0
 49 64  1  0  0  0
 49118  1  0  0  0
 50 51  1  0  0  0
 50119  1  0  0  0
 50120  1  0  0  0
 51 52  1  0  0  0
 51121  1  0  0  0
 51122  1  0  0  0
 52123  1  0  0  0
 52124  1  0  0  0
 53 54  1  0  0  0
 54 55  2  0  0  0
 54125  1  0  0  0
 55 57  1  0  0  0
 55126  1  0  0  0
 56 69  2  0  0  0
 57 58  2  0  0  0
 57127  1  0  0  0
 58128  1  0  0  0
 59 60  1  0  0  0
 59 61  1  0  0  0
 59 62  1  0  0  0
 60129  1  0  0  0
 60130  1  0  0  0
 60131  1  0  0  0
 61132  1  0  0  0
 61133  1  0  0  0
 61134  1  0  0  0
 62135  1  0  0  0
 62136  1  0  0  0
 62137  1  0  0  0
 63 65  1  0  0  0
 63138  1  0  0  0
 63139  1  0  0  0
 63140  1  0  0  0
 64141  1  0  0  0
 65142  1  0  0  0
 68 80  1  0  0  0
 71 72  2  0  0  0
 71 73  1  0  0  0
 71143  1  0  0  0
 72 79  1  0  0  0
 72 81  1  0  0  0
 73 80  1  0  0  0
 73 82  2  0  0  0
 74 81  2  0  0  0
 74 82  1  0  0  0
 74 78  1  0  0  0
 75 76  1  0  0  0
 75 78  1  0  0  0
 75144  1  0  0  0
 75145  1  0  0  0
 76 83  1  0  0  0
 76146  1  0  0  0
 76147  1  0  0  0
 77 78  1  0  0  0
 77 83  1  0  0  0
 77148  1  0  0  0
 77149  1  0  0  0
 78150  1  0  0  0
 79151  1  0  0  0
 79152  1  0  0  0
 79153  1  0  0  0
 80154  1  0  0  0
 80155  1  0  0  0
M  ISO  4   1 100  68 101  80 101  83 100
M  END
> <chiral flag>
0

> <version>
0

> <s_m_source_file>
/data/baiqing/PycharmProjects/Reinvent-master-3.2/result/LINK_invent/BTK/process_docking_weight1_custom_sum_contain_oxygen_bond_distance_aromatic_linkinvent_7_9_3/rearranged_h_0178.sdf

> <i_m_source_file_index>
68

> <r_mmod_Potential_Energy-OPLS-2005>
694.753112792969

> <r_mmod_Stretch_Energy-OPLS-2005>
369.521911621094

> <r_mmod_Bend_Energy-OPLS-2005>
489.937164306641

> <r_mmod_Torsional_Energy-OPLS-2005>
306.99169921875

> <r_mmod_Improper_Torsional_Energy-OPLS-2005>
10.7541589736938

> <r_mmod_Van_der_Waal_Energy-OPLS-2005>
128.001800537109

> <r_mmod_Electrostatic_Energy-OPLS-2005>
-656.884765625

> <r_mmod_Solvation_Energy-OPLS-2005>
-232.995498657227

> <b_mmod_Minimization_Converged-OPLS-2005>
0

> <r_mmod_RMS_Derivative-OPLS-2005>
1.89232134819031

$$$$
69
                    3D
 Structure written by MMmdl.
153162  0  0  1  0            999 V2000
  -30.4656  -15.1602   20.4090 C   0  0  0  0  0  0
  -30.4381  -12.7348   19.5144 C   0  0  0  0  0  0
  -29.5280  -12.5544   18.2744 C   0  0  0  0  0  0
  -28.0703  -12.3045   18.6988 C   0  0  0  0  0  0
  -27.6176  -13.2641   19.8288 C   0  0  2  0  0  0
  -28.6542  -13.3773   20.9665 C   0  0  0  0  0  0
  -25.2411  -13.8256   20.5740 C   0  0  0  0  0  0
  -24.1741  -13.0452   20.9258 C   0  0  0  0  0  0
  -24.6374  -11.6943   20.8754 C   0  0  0  0  0  0
  -23.9056  -10.4304   21.0405 C   0  0  0  0  0  0
  -24.3608   -9.4231   21.9187 C   0  0  0  0  0  0
  -23.6294   -8.2260   22.0760 C   0  0  0  0  0  0
  -22.4280   -8.0280   21.3548 C   0  0  0  0  0  0
  -21.9910   -9.0246   20.4644 C   0  0  0  0  0  0
  -22.7225  -10.2136   20.3056 C   0  0  0  0  0  0
  -21.6855   -6.0734   22.5282 C   0  0  0  0  0  0
  -21.4007   -6.5638   23.8214 C   0  0  0  0  0  0
  -21.3661   -5.6791   24.9177 C   0  0  0  0  0  0
  -21.6050   -4.3054   24.7229 C   0  0  0  0  0  0
  -21.8818   -3.8146   23.4349 C   0  0  0  0  0  0
  -21.9193   -4.6963   22.3406 C   0  0  0  0  0  0
  -22.7760  -13.5217   21.1922 C   0  0  0  0  0  0
  -22.1658   -4.2145   21.0984 F   0  0  0  0  0  0
  -21.5639   -3.4538   25.7745 F   0  0  0  0  0  0
  -29.8994  -13.8623   20.3552 N   0  0  0  0  0  0
  -26.2827  -12.9494   20.3219 N   0  0  0  0  0  0
  -25.9303  -11.6616   20.5723 N   0  0  0  0  0  0
  -22.0390  -12.8181   22.0456 N   0  0  0  0  0  0
  -25.4085  -15.1980   20.4187 N   0  0  0  0  0  0
  -31.6598  -15.1922   20.0782 O   0  0  0  0  0  0
  -21.6645   -6.8872   21.4241 O   0  0  0  0  0  0
  -22.3449  -14.5531   20.6787 O   0  0  0  0  0  0
  -24.6612  -31.8307   23.1757 C   0  0  0  0  0  0
  -25.9321  -32.4624   23.8201 C   0  0  1  0  0  0
  -27.1916  -26.9743   20.1612 C   0  0  0  0  0  0
  -25.6025  -33.8430   24.2136 N   0  0  0  0  0  0
  -23.4695  -30.4476   21.5253 C   0  0  2  0  0  0
  -24.9148  -28.8531   20.1060 C   0  0  0  0  0  0
  -22.7658  -29.4472   22.4805 C   0  0  0  0  0  0
  -18.0321  -28.1413   22.8474 C   0  0  0  0  0  0
  -24.1483  -36.7202   23.2634 C   0  0  0  0  0  0
  -26.0364  -30.6567   21.3908 C   0  0  0  0  0  0
  -26.1007  -29.2505   20.7366 C   0  0  0  0  0  0
  -27.2388  -28.3282   20.7436 C   0  0  0  0  0  0
  -25.9799  -26.7299   19.4751 C   0  0  0  0  0  0
  -24.8764  -27.6128   19.4572 C   0  0  0  0  0  0
  -23.7022  -29.7768   20.1459 C   0  0  0  0  0  0
  -25.4115  -36.2984   24.0312 C   0  0  1  0  0  0
  -20.5951  -28.3745   23.1210 C   0  0  2  0  0  0
  -20.6795  -26.9437   22.5404 C   0  0  0  0  0  0
  -19.5768  -26.6407   21.5208 C   0  0  0  0  0  0
  -18.1952  -26.7954   22.1623 C   0  0  0  0  0  0
  -19.1580  -28.8895   23.2840 C   0  0  0  0  0  0
  -18.9489  -30.1487   23.8879 C   0  0  0  0  0  0
  -17.6482  -30.6599   24.0564 C   0  0  0  0  0  0
  -25.9093  -34.9370   23.5032 C   0  0  0  0  0  0
  -16.5374  -29.9095   23.6339 C   0  0  0  0  0  0
  -16.7307  -28.6514   23.0364 C   0  0  0  0  0  0
  -26.4584  -31.6517   25.0683 C   0  0  0  0  0  0
  -25.3739  -31.3755   26.1362 C   0  0  0  0  0  0
  -27.0409  -30.2884   24.6309 C   0  0  0  0  0  0
  -27.6111  -32.4253   25.7507 C   0  0  0  0  0  0
  -27.5560  -37.1766   24.8474 C   0  0  0  0  0  0
  -21.4328  -29.3054   22.3572 N   0  0  0  0  0  0
  -26.4257  -37.3721   23.9430 N   0  0  0  0  0  0
  -24.7438  -31.0028   22.0859 N   0  0  0  0  0  0
  -23.4243  -28.8026   23.2998 O   0  0  0  0  0  0
  -28.1619  -25.8555   20.2499 O   0  0  0  0  0  0
  -26.5658  -34.8902   22.4602 O   0  0  0  0  0  0
  -23.5694  -32.1240   23.6905 O   0  0  0  0  0  0
  -27.6267  -21.6401   20.7775 C   0  0  0  0  0  0
  -29.5985  -22.0746   19.7096 C   0  0  0  0  0  0
  -28.4095  -22.7318   20.2224 C   0  0  0  0  0  0
  -27.9736  -20.2011   20.8206 C   0  0  0  0  0  0
  -29.2263  -19.6492   20.3293 C   0  0  0  0  0  0
  -30.0775  -17.9259   21.9568 C   0  0  0  0  0  0
  -29.2546  -16.6443   21.9889 C   0  0  0  0  0  0
  -29.9098  -18.0437   20.4294 C   0  0  2  0  0  0
  -26.9194  -19.2652   21.3966 C   0  0  0  0  0  0
  -27.7562  -24.3133   19.9443 C   0  0  0  0  0  0
  -29.9740  -20.7016   19.7936 N   0  0  0  0  0  0
  -29.7022  -16.4015   20.6222 N   0  0  0  0  0  0
  -31.4613  -12.9184   19.1835 H   0  0  0  0  0  0
  -30.4855  -11.8112   20.0927 H   0  0  0  0  0  0
  -29.8846  -11.7246   17.6615 H   0  0  0  0  0  0
  -29.5808  -13.4451   17.6469 H   0  0  0  0  0  0
  -28.0029  -11.2724   19.0452 H   0  0  0  0  0  0
  -27.4033  -12.3803   17.8381 H   0  0  0  0  0  0
  -27.5539  -14.2466   19.3597 H   0  0  0  0  0  0
  -28.7998  -12.4237   21.4760 H   0  0  0  0  0  0
  -28.3070  -14.0811   21.7233 H   0  0  0  0  0  0
  -25.2744   -9.5735   22.4765 H   0  0  0  0  0  0
  -24.0011   -7.4665   22.7485 H   0  0  0  0  0  0
  -21.0844   -8.8743   19.8946 H   0  0  0  0  0  0
  -22.3658  -10.9667   19.6164 H   0  0  0  0  0  0
  -21.1977   -7.6139   23.9713 H   0  0  0  0  0  0
  -21.1489   -6.0522   25.9084 H   0  0  0  0  0  0
  -22.0593   -2.7601   23.2851 H   0  0  0  0  0  0
  -22.3981  -11.9819   22.4817 H   0  0  0  0  0  0
  -21.1008  -13.1204   22.2659 H   0  0  0  0  0  0
  -24.6416  -15.8500   20.5408 H   0  0  0  0  0  0
  -26.2541  -15.6373   20.0791 H   0  0  0  0  0  0
  -26.7403  -32.5190   23.0933 H   0  0  0  0  0  0
  -25.0225  -33.9517   25.0325 H   0  0  0  0  0  0
  -22.7783  -31.2780   21.3652 H   0  0  0  0  0  0
  -23.3753  -35.9520   23.3273 H   0  0  0  0  0  0
  -24.3574  -36.8846   22.2051 H   0  0  0  0  0  0
  -23.7227  -37.6393   23.6673 H   0  0  0  0  0  0
  -26.1969  -31.3992   20.6077 H   0  0  0  0  0  0
  -26.9063  -30.7236   22.0317 H   0  0  0  0  0  0
  -28.1363  -28.6267   21.2655 H   0  0  0  0  0  0
  -25.8314  -25.7880   18.9690 H   0  0  0  0  0  0
  -23.9736  -27.3070   18.9440 H   0  0  0  0  0  0
  -23.8585  -30.5509   19.3939 H   0  0  0  0  0  0
  -22.8103  -29.2357   19.8253 H   0  0  0  0  0  0
  -25.1304  -36.1776   25.0796 H   0  0  0  0  0  0
  -21.0038  -28.3331   24.1336 H   0  0  0  0  0  0
  -20.5651  -26.2365   23.3635 H   0  0  0  0  0  0
  -21.6663  -26.7412   22.1222 H   0  0  0  0  0  0
  -19.6919  -25.6318   21.1238 H   0  0  0  0  0  0
  -19.6697  -27.3211   20.6730 H   0  0  0  0  0  0
  -17.4223  -26.6708   21.4027 H   0  0  0  0  0  0
  -18.0343  -26.0106   22.9025 H   0  0  0  0  0  0
  -19.7959  -30.7312   24.2244 H   0  0  0  0  0  0
  -17.5031  -31.6270   24.5179 H   0  0  0  0  0  0
  -15.5370  -30.2992   23.7662 H   0  0  0  0  0  0
  -15.8714  -28.0820   22.7094 H   0  0  0  0  0  0
  -24.6020  -30.6950   25.7755 H   0  0  0  0  0  0
  -24.8800  -32.2927   26.4571 H   0  0  0  0  0  0
  -25.8040  -30.9164   27.0271 H   0  0  0  0  0  0
  -26.3030  -29.6655   24.1234 H   0  0  0  0  0  0
  -27.3897  -29.7144   25.4904 H   0  0  0  0  0  0
  -27.9012  -30.4087   23.9718 H   0  0  0  0  0  0
  -27.2750  -33.3644   26.1911 H   0  0  0  0  0  0
  -28.4061  -32.6617   25.0423 H   0  0  0  0  0  0
  -28.0600  -31.8436   26.5571 H   0  0  0  0  0  0
  -28.2564  -38.0076   24.7530 H   0  0  0  0  0  0
  -28.1068  -36.2607   24.6277 H   0  0  0  0  0  0
  -27.2294  -37.1395   25.8884 H   0  0  0  0  0  0
  -20.9554  -29.8785   21.6761 H   0  0  0  0  0  0
  -26.0097  -38.2772   24.1454 H   0  0  0  0  0  0
  -26.6538  -21.9139   21.1619 H   0  0  0  0  0  0
  -30.2881  -22.6740   19.1348 H   0  0  0  0  0  0
  -31.1182  -17.7830   22.2527 H   0  0  0  0  0  0
  -29.6325  -18.7191   22.5604 H   0  0  0  0  0  0
  -28.1794  -16.7886   22.0789 H   0  0  0  0  0  0
  -29.6136  -15.9442   22.7472 H   0  0  0  0  0  0
  -28.9707  -17.9828   19.8780 H   0  0  0  0  0  0
  -25.9230  -19.7077   21.3373 H   0  0  0  0  0  0
  -27.1230  -19.0429   22.4443 H   0  0  0  0  0  0
  -26.8733  -18.3253   20.8463 H   0  0  0  0  0  0
  -26.7671  -24.2239   20.3951 H   0  0  0  0  0  0
  -27.5657  -24.3002   18.8706 H   0  0  0  0  0  0
  1 25  1  0  0  0
  1 30  2  0  0  0
  1 82  1  0  0  0
  2  3  1  0  0  0
  2 25  1  0  0  0
  2 83  1  0  0  0
  2 84  1  0  0  0
  3  4  1  0  0  0
  3 85  1  0  0  0
  3 86  1  0  0  0
  4  5  1  0  0  0
  4 87  1  0  0  0
  4 88  1  0  0  0
  5  6  1  0  0  0
  5 26  1  0  0  0
  5 89  1  0  0  0
  6 25  1  0  0  0
  6 90  1  0  0  0
  6 91  1  0  0  0
  7  8  2  0  0  0
  7 26  1  0  0  0
  7 29  1  0  0  0
  8  9  1  0  0  0
  8 22  1  0  0  0
  9 10  1  0  0  0
  9 27  2  0  0  0
 10 11  2  0  0  0
 10 15  1  0  0  0
 11 12  1  0  0  0
 11 92  1  0  0  0
 12 13  2  0  0  0
 12 93  1  0  0  0
 13 14  1  0  0  0
 13 31  1  0  0  0
 14 15  2  0  0  0
 14 94  1  0  0  0
 15 95  1  0  0  0
 16 17  2  0  0  0
 16 21  1  0  0  0
 16 31  1  0  0  0
 17 18  1  0  0  0
 17 96  1  0  0  0
 18 19  2  0  0  0
 18 97  1  0  0  0
 19 20  1  0  0  0
 19 24  1  0  0  0
 20 21  2  0  0  0
 20 98  1  0  0  0
 21 23  1  0  0  0
 22 28  1  0  0  0
 22 32  2  0  0  0
 26 27  1  0  0  0
 28 99  1  0  0  0
 28100  1  0  0  0
 29101  1  0  0  0
 29102  1  0  0  0
 33 34  1  0  0  0
 33 66  1  0  0  0
 33 70  2  0  0  0
 34 36  1  0  0  0
 34 59  1  0  0  0
 34103  1  0  0  0
 35 44  2  0  0  0
 35 45  1  0  0  0
 35 68  1  0  0  0
 36 56  1  0  0  0
 36104  1  0  0  0
 37 39  1  0  0  0
 37 47  1  0  0  0
 37 66  1  0  0  0
 37105  1  0  0  0
 38 43  2  0  0  0
 38 46  1  0  0  0
 38 47  1  0  0  0
 39 64  1  0  0  0
 39 67  2  0  0  0
 40 52  1  0  0  0
 40 53  2  0  0  0
 40 58  1  0  0  0
 41106  1  0  0  0
 41107  1  0  0  0
 41108  1  0  0  0
 41 48  1  0  0  0
 42 43  1  0  0  0
 42 66  1  0  0  0
 42109  1  0  0  0
 42110  1  0  0  0
 43 44  1  0  0  0
 44111  1  0  0  0
 45 46  2  0  0  0
 45112  1  0  0  0
 46113  1  0  0  0
 47114  1  0  0  0
 47115  1  0  0  0
 48 56  1  0  0  0
 48 65  1  0  0  0
 48116  1  0  0  0
 49 50  1  0  0  0
 49 53  1  0  0  0
 49 64  1  0  0  0
 49117  1  0  0  0
 50 51  1  0  0  0
 50118  1  0  0  0
 50119  1  0  0  0
 51 52  1  0  0  0
 51120  1  0  0  0
 51121  1  0  0  0
 52122  1  0  0  0
 52123  1  0  0  0
 53 54  1  0  0  0
 54 55  2  0  0  0
 54124  1  0  0  0
 55 57  1  0  0  0
 55125  1  0  0  0
 56 69  2  0  0  0
 57 58  2  0  0  0
 57126  1  0  0  0
 58127  1  0  0  0
 59 60  1  0  0  0
 59 61  1  0  0  0
 59 62  1  0  0  0
 60128  1  0  0  0
 60129  1  0  0  0
 60130  1  0  0  0
 61131  1  0  0  0
 61132  1  0  0  0
 61133  1  0  0  0
 62134  1  0  0  0
 62135  1  0  0  0
 62136  1  0  0  0
 63 65  1  0  0  0
 63137  1  0  0  0
 63138  1  0  0  0
 63139  1  0  0  0
 64140  1  0  0  0
 65141  1  0  0  0
 68 80  1  0  0  0
 71 73  2  0  0  0
 71 74  1  0  0  0
 71142  1  0  0  0
 72 73  1  0  0  0
 72 81  2  0  0  0
 72143  1  0  0  0
 73 80  1  0  0  0
 74 75  2  0  0  0
 74 79  1  0  0  0
 75 81  1  0  0  0
 75 78  1  0  0  0
 76 77  1  0  0  0
 76 78  1  0  0  0
 76144  1  0  0  0
 76145  1  0  0  0
 77 82  1  0  0  0
 77146  1  0  0  0
 77147  1  0  0  0
 78 82  1  0  0  0
 78148  1  0  0  0
 79149  1  0  0  0
 79150  1  0  0  0
 79151  1  0  0  0
 80152  1  0  0  0
 80153  1  0  0  0
M  ISO  4   1 100  68 101  80 101  82 100
M  END
> <chiral flag>
0

> <version>
0

> <s_m_source_file>
/data/baiqing/PycharmProjects/Reinvent-master-3.2/result/LINK_invent/BTK/process_docking_weight1_custom_sum_contain_oxygen_bond_distance_aromatic_linkinvent_7_9_3/rearranged_h_0178.sdf

> <i_m_source_file_index>
69

> <r_mmod_Potential_Energy-OPLS-2005>
1175.40295410156

> <r_mmod_Stretch_Energy-OPLS-2005>
459.445953369141

> <r_mmod_Bend_Energy-OPLS-2005>
643.615905761719

> <r_mmod_Torsional_Energy-OPLS-2005>
266.569915771484

> <r_mmod_Improper_Torsional_Energy-OPLS-2005>
13.8201446533203

> <r_mmod_Van_der_Waal_Energy-OPLS-2005>
135.676544189453

> <r_mmod_Electrostatic_Energy-OPLS-2005>
-494.327880859375

> <r_mmod_Solvation_Energy-OPLS-2005>
-224.328720092773

> <b_mmod_Minimization_Converged-OPLS-2005>
0

> <r_mmod_RMS_Derivative-OPLS-2005>
2.65422391891479

$$$$
70
                    3D
 Structure written by MMmdl.
156164  0  0  1  0            999 V2000
  -30.4170  -15.3209   20.3622 C   0  0  0  0  0  0
  -30.4332  -12.8580   19.5087 C   0  0  0  0  0  0
  -29.5292  -12.5819   18.2815 C   0  0  0  0  0  0
  -28.0847  -12.2914   18.7220 C   0  0  0  0  0  0
  -27.6034  -13.2781   19.8135 C   0  0  2  0  0  0
  -28.6366  -13.4879   20.9389 C   0  0  0  0  0  0
  -25.2378  -13.8254   20.5775 C   0  0  0  0  0  0
  -24.1732  -13.0439   20.9254 C   0  0  0  0  0  0
  -24.6395  -11.6935   20.8763 C   0  0  0  0  0  0
  -23.9098  -10.4294   21.0410 C   0  0  0  0  0  0
  -24.3643   -9.4204   21.9185 C   0  0  0  0  0  0
  -23.6309   -8.2246   22.0754 C   0  0  0  0  0  0
  -22.4287   -8.0292   21.3548 C   0  0  0  0  0  0
  -21.9932   -9.0266   20.4644 C   0  0  0  0  0  0
  -22.7272  -10.2138   20.3053 C   0  0  0  0  0  0
  -21.6856   -6.0745   22.5279 C   0  0  0  0  0  0
  -21.4019   -6.5646   23.8213 C   0  0  0  0  0  0
  -21.3652   -5.6796   24.9172 C   0  0  0  0  0  0
  -21.6041   -4.3058   24.7223 C   0  0  0  0  0  0
  -21.8820   -3.8152   23.4342 C   0  0  0  0  0  0
  -21.9197   -4.6973   22.3399 C   0  0  0  0  0  0
  -22.7749  -13.5188   21.1899 C   0  0  0  0  0  0
  -22.1664   -4.2160   21.0977 F   0  0  0  0  0  0
  -21.5622   -3.4538   25.7732 F   0  0  0  0  0  0
  -29.8494  -14.0124   20.2905 N   0  0  0  0  0  0
  -26.2788  -12.9528   20.3210 N   0  0  0  0  0  0
  -25.9330  -11.6634   20.5716 N   0  0  0  0  0  0
  -22.0408  -12.8165   22.0447 N   0  0  0  0  0  0
  -25.4042  -15.1996   20.4277 N   0  0  0  0  0  0
  -31.6544  -15.2849   20.2605 O   0  0  0  0  0  0
  -21.6643   -6.8893   21.4243 O   0  0  0  0  0  0
  -22.3430  -14.5495   20.6745 O   0  0  0  0  0  0
  -24.6670  -31.8200   23.1675 C   0  0  0  0  0  0
  -25.9338  -32.4572   23.8146 C   0  0  1  0  0  0
  -27.2093  -26.8802   20.2068 C   0  0  0  0  0  0
  -25.5997  -33.8387   24.2059 N   0  0  0  0  0  0
  -23.4815  -30.4294   21.5191 C   0  0  2  0  0  0
  -24.9311  -28.8002   20.1249 C   0  0  0  0  0  0
  -22.7676  -29.4417   22.4794 C   0  0  0  0  0  0
  -18.0319  -28.1408   22.8463 C   0  0  0  0  0  0
  -24.1488  -36.7189   23.2647 C   0  0  0  0  0  0
  -26.0519  -30.6134   21.3993 C   0  0  0  0  0  0
  -26.1182  -29.1940   20.7555 C   0  0  0  0  0  0
  -27.2546  -28.2594   20.7625 C   0  0  0  0  0  0
  -25.9891  -26.6436   19.5359 C   0  0  0  0  0  0
  -24.8931  -27.5458   19.4950 C   0  0  0  0  0  0
  -23.7237  -29.7388   20.1492 C   0  0  0  0  0  0
  -25.4130  -36.2951   24.0297 C   0  0  1  0  0  0
  -20.5947  -28.3747   23.1190 C   0  0  2  0  0  0
  -20.6796  -26.9427   22.5406 C   0  0  0  0  0  0
  -19.5771  -26.6382   21.5208 C   0  0  0  0  0  0
  -18.1949  -26.7946   22.1609 C   0  0  0  0  0  0
  -19.1583  -28.8898   23.2810 C   0  0  0  0  0  0
  -18.9497  -30.1490   23.8845 C   0  0  0  0  0  0
  -17.6492  -30.6601   24.0555 C   0  0  0  0  0  0
  -25.9102  -34.9342   23.4999 C   0  0  0  0  0  0
  -16.5379  -29.9089   23.6346 C   0  0  0  0  0  0
  -16.7302  -28.6508   23.0362 C   0  0  0  0  0  0
  -26.4579  -31.6523   25.0682 C   0  0  0  0  0  0
  -25.3695  -31.3794   26.1335 C   0  0  0  0  0  0
  -27.0472  -30.2890   24.6414 C   0  0  0  0  0  0
  -27.6075  -32.4327   25.7485 C   0  0  0  0  0  0
  -27.5557  -37.1755   24.8469 C   0  0  0  0  0  0
  -21.4346  -29.3044   22.3548 N   0  0  0  0  0  0
  -26.4267  -37.3692   23.9407 N   0  0  0  0  0  0
  -24.7558  -30.9822   22.0832 N   0  0  0  0  0  0
  -23.4210  -28.7981   23.3044 O   0  0  0  0  0  0
  -28.2375  -25.7878   20.1730 O   0  0  0  0  0  0
  -26.5705  -34.8886   22.4592 O   0  0  0  0  0  0
  -23.5737  -32.1185   23.6753 O   0  0  0  0  0  0
  -28.9407  -18.7567   18.9831 C   0  0  0  0  0  0
  -28.9611  -17.1456   19.1492 C   0  0  0  0  0  0
  -28.9373  -19.4423   20.3709 C   0  0  1  0  0  0
  -29.8816  -18.1208   20.9809 C   0  0  1  0  0  0
  -29.7499  -18.0361   22.5081 C   0  0  0  0  0  0
  -28.8169  -22.6261   18.4811 C   0  0  0  0  0  0
  -28.2051  -24.1784   20.6405 C   0  0  0  0  0  0
  -28.3970  -22.4893   19.9530 C   0  0  2  0  0  0
  -29.6749  -16.6334   20.3640 N   0  0  0  0  0  0
  -29.1451  -21.1107   20.5823 N   0  3  0  0  0  0
  -31.4419  -13.0851   19.1607 H   0  0  0  0  0  0
  -30.5303  -11.9685   20.1336 H   0  0  0  0  0  0
  -29.9209  -11.7483   17.6973 H   0  0  0  0  0  0
  -29.5392  -13.4512   17.6225 H   0  0  0  0  0  0
  -28.0596  -11.2740   19.1149 H   0  0  0  0  0  0
  -27.4110  -12.3052   17.8642 H   0  0  0  0  0  0
  -27.5046  -14.2335   19.2971 H   0  0  0  0  0  0
  -28.8264  -12.5669   21.4924 H   0  0  0  0  0  0
  -28.2657  -14.2187   21.6599 H   0  0  0  0  0  0
  -25.2787   -9.5678   22.4761 H   0  0  0  0  0  0
  -24.0011   -7.4638   22.7477 H   0  0  0  0  0  0
  -21.0859   -8.8800   19.8950 H   0  0  0  0  0  0
  -22.3741  -10.9683   19.6161 H   0  0  0  0  0  0
  -21.2016   -7.6155   23.9723 H   0  0  0  0  0  0
  -21.1464   -6.0521   25.9076 H   0  0  0  0  0  0
  -22.0605   -2.7617   23.2838 H   0  0  0  0  0  0
  -22.4042  -11.9828   22.4825 H   0  0  0  0  0  0
  -21.1018  -13.1170   22.2650 H   0  0  0  0  0  0
  -24.6410  -15.8537   20.5615 H   0  0  0  0  0  0
  -26.2664  -15.6468   20.1464 H   0  0  0  0  0  0
  -26.7399  -32.5101   23.0852 H   0  0  0  0  0  0
  -25.0126  -33.9458   25.0199 H   0  0  0  0  0  0
  -22.7967  -31.2616   21.3450 H   0  0  0  0  0  0
  -23.3760  -35.9513   23.3305 H   0  0  0  0  0  0
  -24.3553  -36.8838   22.2060 H   0  0  0  0  0  0
  -23.7248  -37.6377   23.6706 H   0  0  0  0  0  0
  -26.2267  -31.3456   20.6099 H   0  0  0  0  0  0
  -26.9151  -30.6807   22.0500 H   0  0  0  0  0  0
  -28.1631  -28.5689   21.2595 H   0  0  0  0  0  0
  -25.8608  -25.6905   19.0419 H   0  0  0  0  0  0
  -23.9904  -27.2376   18.9855 H   0  0  0  0  0  0
  -23.8904  -30.5043   19.3901 H   0  0  0  0  0  0
  -22.8297  -29.2003   19.8283 H   0  0  0  0  0  0
  -25.1331  -36.1738   25.0788 H   0  0  0  0  0  0
  -21.0017  -28.3356   24.1321 H   0  0  0  0  0  0
  -20.5670  -26.2362   23.3646 H   0  0  0  0  0  0
  -21.6658  -26.7406   22.1213 H   0  0  0  0  0  0
  -19.6933  -25.6285   21.1260 H   0  0  0  0  0  0
  -19.6724  -27.3176   20.6725 H   0  0  0  0  0  0
  -17.4225  -26.6700   21.4005 H   0  0  0  0  0  0
  -18.0329  -26.0093   22.9007 H   0  0  0  0  0  0
  -19.7977  -30.7309   24.2198 H   0  0  0  0  0  0
  -17.5051  -31.6275   24.5165 H   0  0  0  0  0  0
  -15.5379  -30.2973   23.7713 H   0  0  0  0  0  0
  -15.8698  -28.0816   22.7107 H   0  0  0  0  0  0
  -24.5924  -30.7076   25.7665 H   0  0  0  0  0  0
  -24.8823  -32.2996   26.4570 H   0  0  0  0  0  0
  -25.7925  -30.9114   27.0236 H   0  0  0  0  0  0
  -26.3141  -29.6565   24.1396 H   0  0  0  0  0  0
  -27.3983  -29.7256   25.5069 H   0  0  0  0  0  0
  -27.9087  -30.4077   23.9843 H   0  0  0  0  0  0
  -27.2678  -33.3724   26.1857 H   0  0  0  0  0  0
  -28.3997  -32.6719   25.0375 H   0  0  0  0  0  0
  -28.0604  -31.8565   26.5565 H   0  0  0  0  0  0
  -28.2567  -38.0057   24.7490 H   0  0  0  0  0  0
  -28.1060  -36.2580   24.6327 H   0  0  0  0  0  0
  -27.2269  -37.1432   25.8871 H   0  0  0  0  0  0
  -20.9607  -29.8748   21.6688 H   0  0  0  0  0  0
  -26.0111  -38.2750   24.1427 H   0  0  0  0  0  0
  -28.0855  -19.0768   18.3870 H   0  0  0  0  0  0
  -29.8311  -19.0694   18.4363 H   0  0  0  0  0  0
  -29.3779  -16.6875   18.2506 H   0  0  0  0  0  0
  -27.9341  -16.7865   19.2163 H   0  0  0  0  0  0
  -27.9341  -19.2850   20.7693 H   0  0  0  0  0  0
  -30.9258  -18.3586   20.7673 H   0  0  0  0  0  0
  -28.7340  -17.7640   22.7985 H   0  0  0  0  0  0
  -29.9852  -18.9906   22.9802 H   0  0  0  0  0  0
  -30.4248  -17.2889   22.9263 H   0  0  0  0  0  0
  -28.1970  -23.3617   17.9673 H   0  0  0  0  0  0
  -28.7038  -21.6812   17.9479 H   0  0  0  0  0  0
  -29.8555  -22.9439   18.3881 H   0  0  0  0  0  0
  -28.9793  -24.1930   21.4077 H   0  0  0  0  0  0
  -27.2906  -24.1203   21.2305 H   0  0  0  0  0  0
  -27.3598  -22.1547   19.9054 H   0  0  0  0  0  0
  -30.1326  -21.2660   20.4563 H   0  0  0  0  0  0
  -29.0078  -21.2124   21.5764 H   0  0  0  0  0  0
  1 25  1  0  0  0
  1 30  2  0  0  0
  1 79  1  0  0  0
  2  3  1  0  0  0
  2 25  1  0  0  0
  2 81  1  0  0  0
  2 82  1  0  0  0
  3  4  1  0  0  0
  3 83  1  0  0  0
  3 84  1  0  0  0
  4  5  1  0  0  0
  4 85  1  0  0  0
  4 86  1  0  0  0
  5  6  1  0  0  0
  5 26  1  0  0  0
  5 87  1  0  0  0
  6 25  1  0  0  0
  6 88  1  0  0  0
  6 89  1  0  0  0
  7  8  2  0  0  0
  7 26  1  0  0  0
  7 29  1  0  0  0
  8  9  1  0  0  0
  8 22  1  0  0  0
  9 10  1  0  0  0
  9 27  2  0  0  0
 10 11  2  0  0  0
 10 15  1  0  0  0
 11 12  1  0  0  0
 11 90  1  0  0  0
 12 13  2  0  0  0
 12 91  1  0  0  0
 13 14  1  0  0  0
 13 31  1  0  0  0
 14 15  2  0  0  0
 14 92  1  0  0  0
 15 93  1  0  0  0
 16 17  2  0  0  0
 16 21  1  0  0  0
 16 31  1  0  0  0
 17 18  1  0  0  0
 17 94  1  0  0  0
 18 19  2  0  0  0
 18 95  1  0  0  0
 19 20  1  0  0  0
 19 24  1  0  0  0
 20 21  2  0  0  0
 20 96  1  0  0  0
 21 23  1  0  0  0
 22 28  1  0  0  0
 22 32  2  0  0  0
 26 27  1  0  0  0
 28 97  1  0  0  0
 28 98  1  0  0  0
 29 99  1  0  0  0
 29100  1  0  0  0
 33 34  1  0  0  0
 33 66  1  0  0  0
 33 70  2  0  0  0
 34 36  1  0  0  0
 34 59  1  0  0  0
 34101  1  0  0  0
 35 44  2  0  0  0
 35 45  1  0  0  0
 35 68  1  0  0  0
 36 56  1  0  0  0
 36102  1  0  0  0
 37 39  1  0  0  0
 37 47  1  0  0  0
 37 66  1  0  0  0
 37103  1  0  0  0
 38 43  2  0  0  0
 38 46  1  0  0  0
 38 47  1  0  0  0
 39 64  1  0  0  0
 39 67  2  0  0  0
 40 52  1  0  0  0
 40 53  2  0  0  0
 40 58  1  0  0  0
 41104  1  0  0  0
 41105  1  0  0  0
 41106  1  0  0  0
 41 48  1  0  0  0
 42 43  1  0  0  0
 42 66  1  0  0  0
 42107  1  0  0  0
 42108  1  0  0  0
 43 44  1  0  0  0
 44109  1  0  0  0
 45 46  2  0  0  0
 45110  1  0  0  0
 46111  1  0  0  0
 47112  1  0  0  0
 47113  1  0  0  0
 48 56  1  0  0  0
 48 65  1  0  0  0
 48114  1  0  0  0
 49 50  1  0  0  0
 49 53  1  0  0  0
 49 64  1  0  0  0
 49115  1  0  0  0
 50 51  1  0  0  0
 50116  1  0  0  0
 50117  1  0  0  0
 51 52  1  0  0  0
 51118  1  0  0  0
 51119  1  0  0  0
 52120  1  0  0  0
 52121  1  0  0  0
 53 54  1  0  0  0
 54 55  2  0  0  0
 54122  1  0  0  0
 55 57  1  0  0  0
 55123  1  0  0  0
 56 69  2  0  0  0
 57 58  2  0  0  0
 57124  1  0  0  0
 58125  1  0  0  0
 59 60  1  0  0  0
 59 61  1  0  0  0
 59 62  1  0  0  0
 60126  1  0  0  0
 60127  1  0  0  0
 60128  1  0  0  0
 61129  1  0  0  0
 61130  1  0  0  0
 61131  1  0  0  0
 62132  1  0  0  0
 62133  1  0  0  0
 62134  1  0  0  0
 63 65  1  0  0  0
 63135  1  0  0  0
 63136  1  0  0  0
 63137  1  0  0  0
 64138  1  0  0  0
 65139  1  0  0  0
 68 77  1  0  0  0
 71 72  1  0  0  0
 71 73  1  0  0  0
 71140  1  0  0  0
 71141  1  0  0  0
 72 79  1  0  0  0
 72142  1  0  0  0
 72143  1  0  0  0
 73 74  1  0  0  0
 73 80  1  0  0  0
 73144  1  0  0  0
 74 75  1  0  0  0
 74 79  1  0  0  0
 74145  1  0  0  0
 75146  1  0  0  0
 75147  1  0  0  0
 75148  1  0  0  0
 76149  1  0  0  0
 76150  1  0  0  0
 76151  1  0  0  0
 76 78  1  0  0  0
 77 78  1  0  0  0
 77152  1  0  0  0
 77153  1  0  0  0
 78 80  1  0  0  0
 78154  1  0  0  0
 80155  1  0  0  0
 80156  1  0  0  0
M  CHG  1  80   1
M  ISO  4   1 100  68 101  77 101  79 100
M  END
> <chiral flag>
0

> <version>
0

> <s_m_source_file>
/data/baiqing/PycharmProjects/Reinvent-master-3.2/result/LINK_invent/BTK/process_docking_weight1_custom_sum_contain_oxygen_bond_distance_aromatic_linkinvent_7_9_3/rearranged_h_0178.sdf

> <i_m_source_file_index>
70

> <r_mmod_Potential_Energy-OPLS-2005>
1577.09204101562

> <r_mmod_Stretch_Energy-OPLS-2005>
635.372924804688

> <r_mmod_Bend_Energy-OPLS-2005>
552.021667480469

> <r_mmod_Torsional_Energy-OPLS-2005>
379.335723876953

> <r_mmod_Improper_Torsional_Energy-OPLS-2005>
6.84462261199951

> <r_mmod_Van_der_Waal_Energy-OPLS-2005>
94.5852661132812

> <r_mmod_Electrostatic_Energy-OPLS-2005>
-166.546722412109

> <r_mmod_Solvation_Energy-OPLS-2005>
-440.829162597656

> <b_mmod_Minimization_Converged-OPLS-2005>
0

> <r_mmod_RMS_Derivative-OPLS-2005>
1.27029705047607

$$$$
71
                    3D
 Structure written by MMmdl.
157166  0  0  1  0            999 V2000
  -30.5928  -14.7643   20.4309 C   0  0  0  0  0  0
  -30.4340  -12.4595   19.4812 C   0  0  0  0  0  0
  -29.5126  -12.5066   18.2417 C   0  0  0  0  0  0
  -28.0396  -12.3207   18.6540 C   0  0  0  0  0  0
  -27.6396  -13.2196   19.8524 C   0  0  2  0  0  0
  -28.6855  -13.1728   20.9898 C   0  0  0  0  0  0
  -25.2512  -13.8149   20.5710 C   0  0  0  0  0  0
  -24.1792  -13.0413   20.9205 C   0  0  0  0  0  0
  -24.6374  -11.6891   20.8748 C   0  0  0  0  0  0
  -23.9051  -10.4278   21.0411 C   0  0  0  0  0  0
  -24.3608   -9.4196   21.9187 C   0  0  0  0  0  0
  -23.6284   -8.2235   22.0757 C   0  0  0  0  0  0
  -22.4268   -8.0272   21.3543 C   0  0  0  0  0  0
  -21.9896   -9.0246   20.4648 C   0  0  0  0  0  0
  -22.7226  -10.2125   20.3057 C   0  0  0  0  0  0
  -21.6849   -6.0726   22.5277 C   0  0  0  0  0  0
  -21.4012   -6.5633   23.8209 C   0  0  0  0  0  0
  -21.3660   -5.6785   24.9170 C   0  0  0  0  0  0
  -21.6042   -4.3047   24.7221 C   0  0  0  0  0  0
  -21.8821   -3.8141   23.4345 C   0  0  0  0  0  0
  -21.9195   -4.6956   22.3402 C   0  0  0  0  0  0
  -22.7819  -13.5213   21.1858 C   0  0  0  0  0  0
  -22.1664   -4.2144   21.0978 F   0  0  0  0  0  0
  -21.5629   -3.4535   25.7737 F   0  0  0  0  0  0
  -29.9881  -13.5242   20.4110 N   0  0  0  0  0  0
  -26.2925  -12.9329   20.3304 N   0  0  0  0  0  0
  -25.9300  -11.6485   20.5765 N   0  0  0  0  0  0
  -22.0458  -12.8221   22.0417 N   0  0  0  0  0  0
  -25.4196  -15.1869   20.4140 N   0  0  0  0  0  0
  -31.7779  -14.8679   20.0991 O   0  0  0  0  0  0
  -21.6633   -6.8870   21.4239 O   0  0  0  0  0  0
  -22.3522  -14.5525   20.6711 O   0  0  0  0  0  0
  -24.6295  -31.8541   23.1958 C   0  0  0  0  0  0
  -25.9124  -32.4749   23.8309 C   0  0  1  0  0  0
  -27.2326  -27.2672   20.1239 C   0  0  0  0  0  0
  -25.5917  -33.8550   24.2234 N   0  0  0  0  0  0
  -23.4260  -30.4729   21.5392 C   0  0  2  0  0  0
  -24.8748  -28.9139   20.1073 C   0  0  0  0  0  0
  -22.7489  -29.4590   22.4922 C   0  0  0  0  0  0
  -18.0286  -28.1389   22.8489 C   0  0  0  0  0  0
  -24.1485  -36.7277   23.2641 C   0  0  0  0  0  0
  -25.9689  -30.7673   21.3733 C   0  0  0  0  0  0
  -26.0419  -29.3888   20.7166 C   0  0  0  0  0  0
  -27.2175  -28.5752   20.7161 C   0  0  0  0  0  0
  -26.0411  -26.8489   19.4932 C   0  0  0  0  0  0
  -24.8791  -27.6522   19.4865 C   0  0  0  0  0  0
  -23.6429  -29.7991   20.1566 C   0  0  0  0  0  0
  -25.4116  -36.3065   24.0324 C   0  0  1  0  0  0
  -20.5886  -28.3695   23.1281 C   0  0  2  0  0  0
  -20.6771  -26.9414   22.5415 C   0  0  0  0  0  0
  -19.5746  -26.6384   21.5217 C   0  0  0  0  0  0
  -18.1927  -26.7930   22.1630 C   0  0  0  0  0  0
  -19.1537  -28.8861   23.2878 C   0  0  0  0  0  0
  -18.9462  -30.1462   23.8894 C   0  0  0  0  0  0
  -17.6461  -30.6592   24.0564 C   0  0  0  0  0  0
  -25.9057  -34.9438   23.5088 C   0  0  0  0  0  0
  -16.5354  -29.9090   23.6332 C   0  0  0  0  0  0
  -16.7271  -28.6506   23.0357 C   0  0  0  0  0  0
  -26.4489  -31.6582   25.0707 C   0  0  0  0  0  0
  -25.3708  -31.3743   26.1426 C   0  0  0  0  0  0
  -27.0343  -30.3001   24.6201 C   0  0  0  0  0  0
  -27.6040  -32.4330   25.7484 C   0  0  0  0  0  0
  -27.5575  -37.1794   24.8464 C   0  0  0  0  0  0
  -21.4197  -29.3036   22.3665 N   0  0  0  0  0  0
  -26.4286  -37.3770   23.9411 N   0  0  0  0  0  0
  -24.6938  -31.0502   22.0928 N   0  0  0  0  0  0
  -23.4192  -28.8146   23.3028 O   0  0  0  0  0  0
  -28.3622  -26.4240   20.2194 O   0  0  0  0  0  0
  -26.5639  -34.8919   22.4662 O   0  0  0  0  0  0
  -23.5448  -32.1362   23.7262 O   0  0  0  0  0  0
  -29.8959  -18.3197   22.5815 C   0  0  0  0  0  0
  -29.7477  -18.4983   21.2329 C   0  0  0  0  0  0
  -29.6416  -19.5790   23.1769 C   0  0  0  0  0  0
  -28.9034  -16.4795   19.6876 C   0  0  0  0  0  0
  -30.0154  -17.3254   20.2303 C   0  0  2  0  0  0
  -29.6976  -19.9531   24.6278 C   0  0  0  0  0  0
  -29.3247  -22.4004   19.9330 C   0  0  0  0  0  0
  -28.3644  -23.6433   20.3652 C   0  0  0  0  0  0
  -28.9408  -20.8096   19.9437 C   0  0  0  0  0  0
  -28.5109  -25.0686   19.5932 C   0  0  0  0  0  0
  -29.3246  -20.4943   22.2839 N   0  0  0  0  0  0
  -29.3801  -19.8978   21.0698 N   0  0  0  0  0  0
  -29.8046  -15.8946   20.6366 N   0  0  0  0  0  0
  -31.4756  -12.5825   19.1796 H   0  0  0  0  0  0
  -30.3788  -11.4843   19.9672 H   0  0  0  0  0  0
  -29.8014  -11.7359   17.5259 H   0  0  0  0  0  0
  -29.6337  -13.4614   17.7275 H   0  0  0  0  0  0
  -27.9013  -11.2720   18.9191 H   0  0  0  0  0  0
  -27.3821  -12.5089   17.8046 H   0  0  0  0  0  0
  -27.6179  -14.2306   19.4560 H   0  0  0  0  0  0
  -28.7251  -12.1824   21.4452 H   0  0  0  0  0  0
  -28.4161  -13.8689   21.7859 H   0  0  0  0  0  0
  -25.2754   -9.5672   22.4759 H   0  0  0  0  0  0
  -23.9992   -7.4625   22.7476 H   0  0  0  0  0  0
  -21.0825   -8.8768   19.8955 H   0  0  0  0  0  0
  -22.3687  -10.9668   19.6165 H   0  0  0  0  0  0
  -21.2005   -7.6142   23.9711 H   0  0  0  0  0  0
  -21.1479   -6.0514   25.9073 H   0  0  0  0  0  0
  -22.0602   -2.7606   23.2846 H   0  0  0  0  0  0
  -22.4071  -11.9891   22.4819 H   0  0  0  0  0  0
  -21.1079  -13.1260   22.2624 H   0  0  0  0  0  0
  -24.6548  -15.8426   20.5321 H   0  0  0  0  0  0
  -26.2787  -15.6272   20.1158 H   0  0  0  0  0  0
  -26.7187  -32.5397   23.1047 H   0  0  0  0  0  0
  -25.0047  -33.9682   25.0367 H   0  0  0  0  0  0
  -22.7224  -31.2946   21.3909 H   0  0  0  0  0  0
  -23.3751  -35.9604   23.3302 H   0  0  0  0  0  0
  -24.3571  -36.8905   22.2055 H   0  0  0  0  0  0
  -23.7231  -37.6475   23.6670 H   0  0  0  0  0  0
  -26.1050  -31.5276   20.6029 H   0  0  0  0  0  0
  -26.8471  -30.8190   22.0055 H   0  0  0  0  0  0
  -28.1108  -28.9338   21.2076 H   0  0  0  0  0  0
  -25.9764  -25.8752   19.0315 H   0  0  0  0  0  0
  -23.9821  -27.2804   19.0110 H   0  0  0  0  0  0
  -23.7626  -30.5719   19.3968 H   0  0  0  0  0  0
  -22.7621  -29.2288   19.8567 H   0  0  0  0  0  0
  -25.1297  -36.1910   25.0816 H   0  0  0  0  0  0
  -20.9977  -28.3274   24.1402 H   0  0  0  0  0  0
  -20.5673  -26.2304   23.3619 H   0  0  0  0  0  0
  -21.6641  -26.7441   22.1210 H   0  0  0  0  0  0
  -19.6908  -25.6294   21.1250 H   0  0  0  0  0  0
  -19.6683  -27.3192   20.6745 H   0  0  0  0  0  0
  -17.4196  -26.6673   21.4036 H   0  0  0  0  0  0
  -18.0332  -26.0077   22.9031 H   0  0  0  0  0  0
  -19.7938  -30.7277   24.2264 H   0  0  0  0  0  0
  -17.5018  -31.6274   24.5162 H   0  0  0  0  0  0
  -15.5353  -30.2993   23.7661 H   0  0  0  0  0  0
  -15.8670  -28.0823   22.7081 H   0  0  0  0  0  0
  -24.5886  -30.7088   25.7754 H   0  0  0  0  0  0
  -24.8892  -32.2918   26.4823 H   0  0  0  0  0  0
  -25.8016  -30.8941   27.0220 H   0  0  0  0  0  0
  -26.2933  -29.6749   24.1206 H   0  0  0  0  0  0
  -27.4002  -29.7268   25.4727 H   0  0  0  0  0  0
  -27.8813  -30.4276   23.9458 H   0  0  0  0  0  0
  -27.2645  -33.3640   26.2035 H   0  0  0  0  0  0
  -28.3864  -32.6874   25.0321 H   0  0  0  0  0  0
  -28.0690  -31.8471   26.5423 H   0  0  0  0  0  0
  -28.2591  -38.0094   24.7523 H   0  0  0  0  0  0
  -28.1076  -36.2628   24.6279 H   0  0  0  0  0  0
  -27.2296  -37.1427   25.8867 H   0  0  0  0  0  0
  -20.9388  -29.8743   21.6855 H   0  0  0  0  0  0
  -26.0162  -38.2841   24.1422 H   0  0  0  0  0  0
  -30.1719  -17.3995   23.0770 H   0  0  0  0  0  0
  -28.9785  -16.1477   18.6537 H   0  0  0  0  0  0
  -27.8959  -16.6924   20.0354 H   0  0  0  0  0  0
  -30.8663  -17.5355   19.5846 H   0  0  0  0  0  0
  -28.7620  -20.4045   24.9582 H   0  0  0  0  0  0
  -30.4986  -20.6681   24.8176 H   0  0  0  0  0  0
  -29.8817  -19.0803   25.2546 H   0  0  0  0  0  0
  -30.2874  -22.5231   20.4303 H   0  0  0  0  0  0
  -29.5553  -22.6012   18.8864 H   0  0  0  0  0  0
  -28.5157  -23.8140   21.4312 H   0  0  0  0  0  0
  -27.3248  -23.3276   20.2769 H   0  0  0  0  0  0
  -29.3552  -20.3684   19.0363 H   0  0  0  0  0  0
  -27.8610  -20.7047   19.8348 H   0  0  0  0  0  0
  -27.9493  -25.0254   18.6607 H   0  0  0  0  0  0
  -29.5459  -25.0914   19.2521 H   0  0  0  0  0  0
  1 25  1  0  0  0
  1 30  2  0  0  0
  1 83  1  0  0  0
  2  3  1  0  0  0
  2 25  1  0  0  0
  2 84  1  0  0  0
  2 85  1  0  0  0
  3  4  1  0  0  0
  3 86  1  0  0  0
  3 87  1  0  0  0
  4  5  1  0  0  0
  4 88  1  0  0  0
  4 89  1  0  0  0
  5  6  1  0  0  0
  5 26  1  0  0  0
  5 90  1  0  0  0
  6 25  1  0  0  0
  6 91  1  0  0  0
  6 92  1  0  0  0
  7  8  2  0  0  0
  7 26  1  0  0  0
  7 29  1  0  0  0
  8  9  1  0  0  0
  8 22  1  0  0  0
  9 10  1  0  0  0
  9 27  2  0  0  0
 10 11  2  0  0  0
 10 15  1  0  0  0
 11 12  1  0  0  0
 11 93  1  0  0  0
 12 13  2  0  0  0
 12 94  1  0  0  0
 13 14  1  0  0  0
 13 31  1  0  0  0
 14 15  2  0  0  0
 14 95  1  0  0  0
 15 96  1  0  0  0
 16 17  2  0  0  0
 16 21  1  0  0  0
 16 31  1  0  0  0
 17 18  1  0  0  0
 17 97  1  0  0  0
 18 19  2  0  0  0
 18 98  1  0  0  0
 19 20  1  0  0  0
 19 24  1  0  0  0
 20 21  2  0  0  0
 20 99  1  0  0  0
 21 23  1  0  0  0
 22 28  1  0  0  0
 22 32  2  0  0  0
 26 27  1  0  0  0
 28100  1  0  0  0
 28101  1  0  0  0
 29102  1  0  0  0
 29103  1  0  0  0
 33 34  1  0  0  0
 33 66  1  0  0  0
 33 70  2  0  0  0
 34 36  1  0  0  0
 34 59  1  0  0  0
 34104  1  0  0  0
 35 44  2  0  0  0
 35 45  1  0  0  0
 35 68  1  0  0  0
 36 56  1  0  0  0
 36105  1  0  0  0
 37 39  1  0  0  0
 37 47  1  0  0  0
 37 66  1  0  0  0
 37106  1  0  0  0
 38 43  2  0  0  0
 38 46  1  0  0  0
 38 47  1  0  0  0
 39 64  1  0  0  0
 39 67  2  0  0  0
 40 52  1  0  0  0
 40 53  2  0  0  0
 40 58  1  0  0  0
 41107  1  0  0  0
 41108  1  0  0  0
 41109  1  0  0  0
 41 48  1  0  0  0
 42 43  1  0  0  0
 42 66  1  0  0  0
 42110  1  0  0  0
 42111  1  0  0  0
 43 44  1  0  0  0
 44112  1  0  0  0
 45 46  2  0  0  0
 45113  1  0  0  0
 46114  1  0  0  0
 47115  1  0  0  0
 47116  1  0  0  0
 48 56  1  0  0  0
 48 65  1  0  0  0
 48117  1  0  0  0
 49 50  1  0  0  0
 49 53  1  0  0  0
 49 64  1  0  0  0
 49118  1  0  0  0
 50 51  1  0  0  0
 50119  1  0  0  0
 50120  1  0  0  0
 51 52  1  0  0  0
 51121  1  0  0  0
 51122  1  0  0  0
 52123  1  0  0  0
 52124  1  0  0  0
 53 54  1  0  0  0
 54 55  2  0  0  0
 54125  1  0  0  0
 55 57  1  0  0  0
 55126  1  0  0  0
 56 69  2  0  0  0
 57 58  2  0  0  0
 57127  1  0  0  0
 58128  1  0  0  0
 59 60  1  0  0  0
 59 61  1  0  0  0
 59 62  1  0  0  0
 60129  1  0  0  0
 60130  1  0  0  0
 60131  1  0  0  0
 61132  1  0  0  0
 61133  1  0  0  0
 61134  1  0  0  0
 62135  1  0  0  0
 62136  1  0  0  0
 62137  1  0  0  0
 63 65  1  0  0  0
 63138  1  0  0  0
 63139  1  0  0  0
 63140  1  0  0  0
 64141  1  0  0  0
 65142  1  0  0  0
 68 80  1  0  0  0
 71 72  2  0  0  0
 71 73  1  0  0  0
 71143  1  0  0  0
 72 82  1  0  0  0
 72 75  1  0  0  0
 73 76  1  0  0  0
 73 81  2  0  0  0
 74 75  1  0  0  0
 74 83  1  0  0  0
 74144  1  0  0  0
 74145  1  0  0  0
 75 83  1  0  0  0
 75146  1  0  0  0
 76147  1  0  0  0
 76148  1  0  0  0
 76149  1  0  0  0
 77 78  1  0  0  0
 77 79  1  0  0  0
 77150  1  0  0  0
 77151  1  0  0  0
 78 80  1  0  0  0
 78152  1  0  0  0
 78153  1  0  0  0
 79 82  1  0  0  0
 79154  1  0  0  0
 79155  1  0  0  0
 80156  1  0  0  0
 80157  1  0  0  0
 81 82  1  0  0  0
M  ISO  4   1 100  68 101  80 101  83 100
M  END
> <chiral flag>
0

> <version>
0

> <s_m_source_file>
/data/baiqing/PycharmProjects/Reinvent-master-3.2/result/LINK_invent/BTK/process_docking_weight1_custom_sum_contain_oxygen_bond_distance_aromatic_linkinvent_7_9_3/rearranged_h_0178.sdf

> <i_m_source_file_index>
71

> <r_mmod_Potential_Energy-OPLS-2005>
275.065490722656

> <r_mmod_Stretch_Energy-OPLS-2005>
129.819915771484

> <r_mmod_Bend_Energy-OPLS-2005>
216.529861450195

> <r_mmod_Torsional_Energy-OPLS-2005>
333.080139160156

> <r_mmod_Improper_Torsional_Energy-OPLS-2005>
12.7167291641235

> <r_mmod_Van_der_Waal_Energy-OPLS-2005>
105.757316589355

> <r_mmod_Electrostatic_Energy-OPLS-2005>
-390.566192626953

> <r_mmod_Solvation_Energy-OPLS-2005>
-219.252487182617

> <b_mmod_Minimization_Converged-OPLS-2005>
0

> <r_mmod_RMS_Derivative-OPLS-2005>
0.915173411369324

$$$$
72
                    3D
 Structure written by MMmdl.
161170  0  0  1  0            999 V2000
  -30.6134  -14.8607   20.4480 C   0  0  0  0  0  0
  -30.4231  -12.5405   19.4796 C   0  0  0  0  0  0
  -29.5068  -12.5196   18.2375 C   0  0  0  0  0  0
  -28.0395  -12.3178   18.6585 C   0  0  0  0  0  0
  -27.6258  -13.2435   19.8333 C   0  0  2  0  0  0
  -28.6707  -13.2685   20.9673 C   0  0  0  0  0  0
  -25.2440  -13.8205   20.5695 C   0  0  0  0  0  0
  -24.1754  -13.0436   20.9216 C   0  0  0  0  0  0
  -24.6375  -11.6923   20.8742 C   0  0  0  0  0  0
  -23.9061  -10.4292   21.0401 C   0  0  0  0  0  0
  -24.3619   -9.4213   21.9178 C   0  0  0  0  0  0
  -23.6304   -8.2243   22.0746 C   0  0  0  0  0  0
  -22.4284   -8.0272   21.3539 C   0  0  0  0  0  0
  -21.9918   -9.0246   20.4639 C   0  0  0  0  0  0
  -22.7240  -10.2129   20.3052 C   0  0  0  0  0  0
  -21.6858   -6.0732   22.5281 C   0  0  0  0  0  0
  -21.4012   -6.5635   23.8213 C   0  0  0  0  0  0
  -21.3658   -5.6786   24.9174 C   0  0  0  0  0  0
  -21.6045   -4.3050   24.7223 C   0  0  0  0  0  0
  -21.8817   -3.8141   23.4341 C   0  0  0  0  0  0
  -21.9192   -4.6957   22.3401 C   0  0  0  0  0  0
  -22.7777  -13.5213   21.1877 C   0  0  0  0  0  0
  -22.1659   -4.2137   21.0980 F   0  0  0  0  0  0
  -21.5638   -3.4536   25.7739 F   0  0  0  0  0  0
  -29.9537  -13.6428   20.3619 N   0  0  0  0  0  0
  -26.2860  -12.9432   20.3237 N   0  0  0  0  0  0
  -25.9302  -11.6563   20.5732 N   0  0  0  0  0  0
  -22.0425  -12.8210   22.0437 N   0  0  0  0  0  0
  -25.4126  -15.1932   20.4106 N   0  0  0  0  0  0
  -31.8251  -14.8701   20.2074 O   0  0  0  0  0  0
  -21.6641   -6.8877   21.4242 O   0  0  0  0  0  0
  -22.3463  -14.5515   20.6724 O   0  0  0  0  0  0
  -24.6383  -31.8502   23.1952 C   0  0  0  0  0  0
  -25.9178  -32.4731   23.8310 C   0  0  1  0  0  0
  -27.2071  -27.1837   20.1530 C   0  0  0  0  0  0
  -25.5950  -33.8535   24.2222 N   0  0  0  0  0  0
  -23.4383  -30.4721   21.5406 C   0  0  2  0  0  0
  -24.8864  -28.9114   20.1119 C   0  0  0  0  0  0
  -22.7538  -29.4574   22.4896 C   0  0  0  0  0  0
  -18.0296  -28.1393   22.8483 C   0  0  0  0  0  0
  -24.1491  -36.7268   23.2638 C   0  0  0  0  0  0
  -25.9920  -30.7385   21.3885 C   0  0  0  0  0  0
  -26.0624  -29.3545   20.7308 C   0  0  0  0  0  0
  -27.2278  -28.5070   20.7361 C   0  0  0  0  0  0
  -26.0133  -26.8419   19.4784 C   0  0  0  0  0  0
  -24.8724  -27.6665   19.4688 C   0  0  0  0  0  0
  -23.6615  -29.8074   20.1575 C   0  0  0  0  0  0
  -25.4124  -36.3053   24.0316 C   0  0  1  0  0  0
  -20.5905  -28.3711   23.1259 C   0  0  2  0  0  0
  -20.6786  -26.9422   22.5407 C   0  0  0  0  0  0
  -19.5761  -26.6380   21.5217 C   0  0  0  0  0  0
  -18.1939  -26.7934   22.1624 C   0  0  0  0  0  0
  -19.1549  -28.8870   23.2861 C   0  0  0  0  0  0
  -18.9467  -30.1472   23.8884 C   0  0  0  0  0  0
  -17.6466  -30.6593   24.0560 C   0  0  0  0  0  0
  -25.9072  -34.9427   23.5073 C   0  0  0  0  0  0
  -16.5355  -29.9084   23.6342 C   0  0  0  0  0  0
  -16.7278  -28.6502   23.0365 C   0  0  0  0  0  0
  -26.4513  -31.6586   25.0735 C   0  0  0  0  0  0
  -25.3702  -31.3765   26.1434 C   0  0  0  0  0  0
  -27.0367  -30.2986   24.6281 C   0  0  0  0  0  0
  -27.6049  -32.4345   25.7520 C   0  0  0  0  0  0
  -27.5584  -37.1786   24.8458 C   0  0  0  0  0  0
  -21.4239  -29.3046   22.3641 N   0  0  0  0  0  0
  -26.4285  -37.3766   23.9413 N   0  0  0  0  0  0
  -24.7090  -31.0395   22.0969 N   0  0  0  0  0  0
  -23.4209  -28.8119   23.3020 O   0  0  0  0  0  0
  -28.2539  -26.2089   20.2045 O   0  0  0  0  0  0
  -26.5648  -34.8912   22.4645 O   0  0  0  0  0  0
  -23.5516  -32.1357   23.7204 O   0  0  0  0  0  0
  -28.4826  -22.0404   20.6655 C   0  0  0  0  0  0
  -29.4032  -20.9439   20.3636 C   0  0  0  0  0  0
  -28.8087  -23.4332   20.3179 C   0  0  0  0  0  0
  -30.7807  -22.5858   19.4658 C   0  0  0  0  0  0
  -29.0735  -18.3346   19.4920 C   0  0  0  0  0  0
  -30.4709  -18.6497   21.4134 C   0  0  0  0  0  0
  -28.9366  -16.7621   19.8202 C   0  0  0  0  0  0
  -30.4053  -17.0788   21.7403 C   0  0  0  0  0  0
  -29.2615  -19.3423   20.6858 C   0  0  0  0  0  0
  -27.1685  -21.7087   21.3533 C   0  0  0  0  0  0
  -32.1005  -22.8962   18.7936 C   0  0  0  0  0  0
  -27.8839  -24.7541   20.5545 C   0  0  0  0  0  0
  -30.5422  -21.2995   19.7384 N   0  0  0  0  0  0
  -29.9956  -23.6357   19.7151 N   0  0  0  0  0  0
  -29.9447  -16.0871   20.7076 N   0  0  0  0  0  0
  -31.4617  -12.6688   19.1714 H   0  0  0  0  0  0
  -30.3833  -11.5853   20.0068 H   0  0  0  0  0  0
  -29.8146  -11.7279   17.5525 H   0  0  0  0  0  0
  -29.6056  -13.4585   17.6894 H   0  0  0  0  0  0
  -27.9222  -11.2742   18.9531 H   0  0  0  0  0  0
  -27.3763  -12.4671   17.8052 H   0  0  0  0  0  0
  -27.5889  -14.2454   19.4075 H   0  0  0  0  0  0
  -28.7403  -12.2997   21.4642 H   0  0  0  0  0  0
  -28.3841  -13.9952   21.7295 H   0  0  0  0  0  0
  -25.2756   -9.5702   22.4760 H   0  0  0  0  0  0
  -24.0013   -7.4636   22.7470 H   0  0  0  0  0  0
  -21.0848   -8.8763   19.8951 H   0  0  0  0  0  0
  -22.3690  -10.9665   19.6166 H   0  0  0  0  0  0
  -21.2005   -7.6146   23.9716 H   0  0  0  0  0  0
  -21.1486   -6.0514   25.9079 H   0  0  0  0  0  0
  -22.0604   -2.7604   23.2837 H   0  0  0  0  0  0
  -22.4044  -11.9876   22.4829 H   0  0  0  0  0  0
  -21.1037  -13.1232   22.2631 H   0  0  0  0  0  0
  -24.6498  -15.8506   20.5286 H   0  0  0  0  0  0
  -26.2684  -15.6308   20.0970 H   0  0  0  0  0  0
  -26.7244  -32.5355   23.1043 H   0  0  0  0  0  0
  -25.0086  -33.9651   25.0360 H   0  0  0  0  0  0
  -22.7377  -31.2970   21.3924 H   0  0  0  0  0  0
  -23.3767  -35.9586   23.3280 H   0  0  0  0  0  0
  -24.3581  -36.8920   22.2058 H   0  0  0  0  0  0
  -23.7223  -37.6450   23.6682 H   0  0  0  0  0  0
  -26.1402  -31.4956   20.6174 H   0  0  0  0  0  0
  -26.8663  -30.7872   22.0258 H   0  0  0  0  0  0
  -28.1245  -28.8410   21.2387 H   0  0  0  0  0  0
  -25.9317  -25.9054   18.9483 H   0  0  0  0  0  0
  -23.9795  -27.3283   18.9606 H   0  0  0  0  0  0
  -23.7934  -30.5850   19.4044 H   0  0  0  0  0  0
  -22.7775  -29.2465   19.8492 H   0  0  0  0  0  0
  -25.1307  -36.1890   25.0807 H   0  0  0  0  0  0
  -20.9987  -28.3290   24.1386 H   0  0  0  0  0  0
  -20.5700  -26.2319   23.3613 H   0  0  0  0  0  0
  -21.6649  -26.7448   22.1192 H   0  0  0  0  0  0
  -19.6923  -25.6285   21.1260 H   0  0  0  0  0  0
  -19.6709  -27.3182   20.6741 H   0  0  0  0  0  0
  -17.4214  -26.6687   21.4020 H   0  0  0  0  0  0
  -18.0332  -26.0074   22.9018 H   0  0  0  0  0  0
  -19.7944  -30.7289   24.2245 H   0  0  0  0  0  0
  -17.5019  -31.6275   24.5154 H   0  0  0  0  0  0
  -15.5354  -30.2983   23.7674 H   0  0  0  0  0  0
  -15.8676  -28.0813   22.7097 H   0  0  0  0  0  0
  -24.5871  -30.7131   25.7748 H   0  0  0  0  0  0
  -24.8902  -32.2951   26.4821 H   0  0  0  0  0  0
  -25.7982  -30.8952   27.0236 H   0  0  0  0  0  0
  -26.2973  -29.6727   24.1272 H   0  0  0  0  0  0
  -27.3979  -29.7264   25.4836 H   0  0  0  0  0  0
  -27.8882  -30.4237   23.9589 H   0  0  0  0  0  0
  -27.2636  -33.3652   26.2063 H   0  0  0  0  0  0
  -28.3876  -32.6900   25.0367 H   0  0  0  0  0  0
  -28.0695  -31.8497   26.5466 H   0  0  0  0  0  0
  -28.2574  -38.0112   24.7542 H   0  0  0  0  0  0
  -28.1101  -36.2638   24.6236 H   0  0  0  0  0  0
  -27.2299  -37.1377   25.8857 H   0  0  0  0  0  0
  -20.9440  -29.8756   21.6827 H   0  0  0  0  0  0
  -26.0158  -38.2828   24.1443 H   0  0  0  0  0  0
  -28.1954  -18.6474   18.9256 H   0  0  0  0  0  0
  -29.9125  -18.4683   18.8083 H   0  0  0  0  0  0
  -31.3625  -18.8226   20.8102 H   0  0  0  0  0  0
  -30.6561  -19.1850   22.3456 H   0  0  0  0  0  0
  -28.8907  -16.2203   18.8744 H   0  0  0  0  0  0
  -27.9678  -16.6073   20.2936 H   0  0  0  0  0  0
  -29.7368  -16.9466   22.5912 H   0  0  0  0  0  0
  -31.3865  -16.7730   22.1074 H   0  0  0  0  0  0
  -28.3942  -19.2389   21.3377 H   0  0  0  0  0  0
  -26.6342  -20.9397   20.7937 H   0  0  0  0  0  0
  -26.5059  -22.5692   21.4428 H   0  0  0  0  0  0
  -27.3598  -21.3265   22.3571 H   0  0  0  0  0  0
  -32.7770  -22.0413   18.8232 H   0  0  0  0  0  0
  -32.5967  -23.7332   19.2859 H   0  0  0  0  0  0
  -31.9364  -23.1636   17.7504 H   0  0  0  0  0  0
  -27.6675  -24.7671   21.6234 H   0  0  0  0  0  0
  -26.9383  -24.4887   20.0907 H   0  0  0  0  0  0
  1 25  1  0  0  0
  1 30  2  0  0  0
  1 85  1  0  0  0
  2  3  1  0  0  0
  2 25  1  0  0  0
  2 86  1  0  0  0
  2 87  1  0  0  0
  3  4  1  0  0  0
  3 88  1  0  0  0
  3 89  1  0  0  0
  4  5  1  0  0  0
  4 90  1  0  0  0
  4 91  1  0  0  0
  5  6  1  0  0  0
  5 26  1  0  0  0
  5 92  1  0  0  0
  6 25  1  0  0  0
  6 93  1  0  0  0
  6 94  1  0  0  0
  7  8  2  0  0  0
  7 26  1  0  0  0
  7 29  1  0  0  0
  8  9  1  0  0  0
  8 22  1  0  0  0
  9 10  1  0  0  0
  9 27  2  0  0  0
 10 11  2  0  0  0
 10 15  1  0  0  0
 11 12  1  0  0  0
 11 95  1  0  0  0
 12 13  2  0  0  0
 12 96  1  0  0  0
 13 14  1  0  0  0
 13 31  1  0  0  0
 14 15  2  0  0  0
 14 97  1  0  0  0
 15 98  1  0  0  0
 16 17  2  0  0  0
 16 21  1  0  0  0
 16 31  1  0  0  0
 17 18  1  0  0  0
 17 99  1  0  0  0
 18 19  2  0  0  0
 18100  1  0  0  0
 19 20  1  0  0  0
 19 24  1  0  0  0
 20 21  2  0  0  0
 20101  1  0  0  0
 21 23  1  0  0  0
 22 28  1  0  0  0
 22 32  2  0  0  0
 26 27  1  0  0  0
 28102  1  0  0  0
 28103  1  0  0  0
 29104  1  0  0  0
 29105  1  0  0  0
 33 34  1  0  0  0
 33 66  1  0  0  0
 33 70  2  0  0  0
 34 36  1  0  0  0
 34 59  1  0  0  0
 34106  1  0  0  0
 35 44  2  0  0  0
 35 45  1  0  0  0
 35 68  1  0  0  0
 36 56  1  0  0  0
 36107  1  0  0  0
 37 39  1  0  0  0
 37 47  1  0  0  0
 37 66  1  0  0  0
 37108  1  0  0  0
 38 43  2  0  0  0
 38 46  1  0  0  0
 38 47  1  0  0  0
 39 64  1  0  0  0
 39 67  2  0  0  0
 40 52  1  0  0  0
 40 53  2  0  0  0
 40 58  1  0  0  0
 41109  1  0  0  0
 41110  1  0  0  0
 41111  1  0  0  0
 41 48  1  0  0  0
 42 43  1  0  0  0
 42 66  1  0  0  0
 42112  1  0  0  0
 42113  1  0  0  0
 43 44  1  0  0  0
 44114  1  0  0  0
 45 46  2  0  0  0
 45115  1  0  0  0
 46116  1  0  0  0
 47117  1  0  0  0
 47118  1  0  0  0
 48 56  1  0  0  0
 48 65  1  0  0  0
 48119  1  0  0  0
 49 50  1  0  0  0
 49 53  1  0  0  0
 49 64  1  0  0  0
 49120  1  0  0  0
 50 51  1  0  0  0
 50121  1  0  0  0
 50122  1  0  0  0
 51 52  1  0  0  0
 51123  1  0  0  0
 51124  1  0  0  0
 52125  1  0  0  0
 52126  1  0  0  0
 53 54  1  0  0  0
 54 55  2  0  0  0
 54127  1  0  0  0
 55 57  1  0  0  0
 55128  1  0  0  0
 56 69  2  0  0  0
 57 58  2  0  0  0
 57129  1  0  0  0
 58130  1  0  0  0
 59 60  1  0  0  0
 59 61  1  0  0  0
 59 62  1  0  0  0
 60131  1  0  0  0
 60132  1  0  0  0
 60133  1  0  0  0
 61134  1  0  0  0
 61135  1  0  0  0
 61136  1  0  0  0
 62137  1  0  0  0
 62138  1  0  0  0
 62139  1  0  0  0
 63 65  1  0  0  0
 63140  1  0  0  0
 63141  1  0  0  0
 63142  1  0  0  0
 64143  1  0  0  0
 65144  1  0  0  0
 68 82  1  0  0  0
 71 72  2  0  0  0
 71 73  1  0  0  0
 71 80  1  0  0  0
 72 83  1  0  0  0
 72 79  1  0  0  0
 73 82  1  0  0  0
 73 84  2  0  0  0
 74 81  1  0  0  0
 74 83  2  0  0  0
 74 84  1  0  0  0
 75 77  1  0  0  0
 75 79  1  0  0  0
 75145  1  0  0  0
 75146  1  0  0  0
 76 78  1  0  0  0
 76 79  1  0  0  0
 76147  1  0  0  0
 76148  1  0  0  0
 77 85  1  0  0  0
 77149  1  0  0  0
 77150  1  0  0  0
 78 85  1  0  0  0
 78151  1  0  0  0
 78152  1  0  0  0
 79153  1  0  0  0
 80154  1  0  0  0
 80155  1  0  0  0
 80156  1  0  0  0
 81157  1  0  0  0
 81158  1  0  0  0
 81159  1  0  0  0
 82160  1  0  0  0
 82161  1  0  0  0
M  ISO  4   1 100  68 101  82 101  85 100
M  END
> <chiral flag>
0

> <version>
0

> <s_m_source_file>
/data/baiqing/PycharmProjects/Reinvent-master-3.2/result/LINK_invent/BTK/process_docking_weight1_custom_sum_contain_oxygen_bond_distance_aromatic_linkinvent_7_9_3/rearranged_h_0178.sdf

> <i_m_source_file_index>
72

> <r_mmod_Potential_Energy-OPLS-2005>
150.033096313477

> <r_mmod_Stretch_Energy-OPLS-2005>
178.450531005859

> <r_mmod_Bend_Energy-OPLS-2005>
224.696502685547

> <r_mmod_Torsional_Energy-OPLS-2005>
331.490173339844

> <r_mmod_Improper_Torsional_Energy-OPLS-2005>
2.5555214881897

> <r_mmod_Van_der_Waal_Energy-OPLS-2005>
139.562210083008

> <r_mmod_Electrostatic_Energy-OPLS-2005>
-643.674438476562

> <r_mmod_Solvation_Energy-OPLS-2005>
-231.075408935547

> <b_mmod_Minimization_Converged-OPLS-2005>
0

> <r_mmod_RMS_Derivative-OPLS-2005>
1.4508718252182

$$$$
73
                    3D
 Structure written by MMmdl.
155164  0  0  1  0            999 V2000
  -30.5423  -15.0701   20.3570 C   0  0  0  0  0  0
  -30.4352  -12.6578   19.5085 C   0  0  0  0  0  0
  -29.5277  -12.5304   18.2613 C   0  0  0  0  0  0
  -28.0687  -12.3031   18.6915 C   0  0  0  0  0  0
  -27.6246  -13.2630   19.8257 C   0  0  2  0  0  0
  -28.6682  -13.3646   20.9581 C   0  0  0  0  0  0
  -25.2474  -13.8245   20.5749 C   0  0  0  0  0  0
  -24.1777  -13.0463   20.9217 C   0  0  0  0  0  0
  -24.6393  -11.6937   20.8702 C   0  0  0  0  0  0
  -23.9044  -10.4323   21.0370 C   0  0  0  0  0  0
  -24.3601   -9.4254   21.9149 C   0  0  0  0  0  0
  -23.6319   -8.2270   22.0735 C   0  0  0  0  0  0
  -22.4304   -8.0279   21.3519 C   0  0  0  0  0  0
  -21.9904   -9.0228   20.4635 C   0  0  0  0  0  0
  -22.7193  -10.2130   20.3049 C   0  0  0  0  0  0
  -21.6902   -6.0704   22.5220 C   0  0  0  0  0  0
  -21.4013   -6.5603   23.8133 C   0  0  0  0  0  0
  -21.3693   -5.6771   24.9112 C   0  0  0  0  0  0
  -21.6054   -4.3023   24.7180 C   0  0  0  0  0  0
  -21.8840   -3.8114   23.4311 C   0  0  0  0  0  0
  -21.9213   -4.6928   22.3365 C   0  0  0  0  0  0
  -22.7794  -13.5215   21.1903 C   0  0  0  0  0  0
  -22.1709   -4.2116   21.0955 F   0  0  0  0  0  0
  -21.5659   -3.4526   25.7701 F   0  0  0  0  0  0
  -29.9298  -13.7993   20.3378 N   0  0  0  0  0  0
  -26.2883  -12.9486   20.3221 N   0  0  0  0  0  0
  -25.9325  -11.6592   20.5667 N   0  0  0  0  0  0
  -22.0477  -12.8167   22.0457 N   0  0  0  0  0  0
  -25.4178  -15.1999   20.4241 N   0  0  0  0  0  0
  -31.7423  -15.0716   20.0548 O   0  0  0  0  0  0
  -21.6701   -6.8853   21.4183 O   0  0  0  0  0  0
  -22.3430  -14.5490   20.6738 O   0  0  0  0  0  0
  -24.6491  -31.8350   23.1801 C   0  0  0  0  0  0
  -25.9233  -32.4640   23.8206 C   0  0  1  0  0  0
  -27.2134  -27.0625   20.1467 C   0  0  0  0  0  0
  -25.5955  -33.8448   24.2131 N   0  0  0  0  0  0
  -23.4573  -30.4519   21.5274 C   0  0  2  0  0  0
  -24.9067  -28.8648   20.1142 C   0  0  0  0  0  0
  -22.7598  -29.4480   22.4818 C   0  0  0  0  0  0
  -18.0299  -28.1345   22.8459 C   0  0  0  0  0  0
  -24.1510  -36.7237   23.2642 C   0  0  0  0  0  0
  -26.0192  -30.6848   21.3905 C   0  0  0  0  0  0
  -26.0905  -29.2881   20.7319 C   0  0  0  0  0  0
  -27.2481  -28.4068   20.7236 C   0  0  0  0  0  0
  -26.0034  -26.7575   19.4916 C   0  0  0  0  0  0
  -24.8800  -27.6154   19.4772 C   0  0  0  0  0  0
  -23.6877  -29.7765   20.1507 C   0  0  0  0  0  0
  -25.4148  -36.3004   24.0299 C   0  0  1  0  0  0
  -20.5909  -28.3667   23.1218 C   0  0  2  0  0  0
  -20.6766  -26.9368   22.5393 C   0  0  0  0  0  0
  -19.5755  -26.6333   21.5185 C   0  0  0  0  0  0
  -18.1935  -26.7881   22.1607 C   0  0  0  0  0  0
  -19.1554  -28.8826   23.2826 C   0  0  0  0  0  0
  -18.9484  -30.1419   23.8849 C   0  0  0  0  0  0
  -17.6491  -30.6543   24.0527 C   0  0  0  0  0  0
  -25.9089  -34.9388   23.5020 C   0  0  0  0  0  0
  -16.5371  -29.9037   23.6323 C   0  0  0  0  0  0
  -16.7293  -28.6451   23.0348 C   0  0  0  0  0  0
  -26.4552  -31.6518   25.0658 C   0  0  0  0  0  0
  -25.3733  -31.3731   26.1344 C   0  0  0  0  0  0
  -27.0404  -30.2898   24.6275 C   0  0  0  0  0  0
  -27.6058  -32.4313   25.7463 C   0  0  0  0  0  0
  -27.5584  -37.1781   24.8477 C   0  0  0  0  0  0
  -21.4267  -29.3024   22.3609 N   0  0  0  0  0  0
  -26.4312  -37.3717   23.9390 N   0  0  0  0  0  0
  -24.7284  -31.0120   22.0886 N   0  0  0  0  0  0
  -23.4221  -28.8000   23.2972 O   0  0  0  0  0  0
  -28.2464  -26.0316   20.1431 O   0  0  0  0  0  0
  -26.5682  -34.8894   22.4619 O   0  0  0  0  0  0
  -23.5593  -32.1272   23.6983 O   0  0  0  0  0  0
  -29.8020  -20.8941   18.5392 C   0  0  0  0  0  0
  -29.2659  -20.6301   19.8115 C   0  0  0  0  0  0
  -29.7393  -22.1949   17.9918 C   0  0  0  0  0  0
  -28.7081  -23.1085   19.8617 C   0  0  0  0  0  0
  -29.6293  -18.5582   21.6914 C   0  0  0  0  0  0
  -29.5412  -16.9670   21.7527 C   0  0  0  0  0  0
  -29.8595  -17.6606   19.5940 C   0  0  0  0  0  0
  -29.1644  -19.0063   20.3024 C   0  0  2  0  0  0
  -30.2062  -22.4573   16.5718 C   0  0  0  0  0  0
  -27.9501  -24.4961   20.4530 C   0  0  0  0  0  0
  -28.6943  -21.7996   20.4271 N   0  0  0  0  0  0
  -29.2273  -23.2617   18.6464 N   0  0  0  0  0  0
  -29.8169  -16.3290   20.4424 N   0  0  0  0  0  0
  -31.4745  -12.7894   19.2007 H   0  0  0  0  0  0
  -30.4213  -11.7334   20.0851 H   0  0  0  0  0  0
  -29.8630  -11.7041   17.6328 H   0  0  0  0  0  0
  -29.6059  -13.4320   17.6499 H   0  0  0  0  0  0
  -28.0009  -11.2731   19.0397 H   0  0  0  0  0  0
  -27.3954  -12.3779   17.8374 H   0  0  0  0  0  0
  -27.5612  -14.2448   19.3571 H   0  0  0  0  0  0
  -28.7831  -12.4071   21.4695 H   0  0  0  0  0  0
  -28.3561  -14.0837   21.7155 H   0  0  0  0  0  0
  -25.2748   -9.5763   22.4695 H   0  0  0  0  0  0
  -24.0067   -7.4655   22.7426 H   0  0  0  0  0  0
  -21.0860   -8.8679   19.8932 H   0  0  0  0  0  0
  -22.3601  -10.9639   19.6160 H   0  0  0  0  0  0
  -21.1989   -7.6108   23.9612 H   0  0  0  0  0  0
  -21.1524   -6.0518   25.9012 H   0  0  0  0  0  0
  -22.0611   -2.7579   23.2795 H   0  0  0  0  0  0
  -22.4197  -11.9920   22.4901 H   0  0  0  0  0  0
  -21.1042  -13.1030   22.2577 H   0  0  0  0  0  0
  -24.6538  -15.8570   20.5531 H   0  0  0  0  0  0
  -26.2821  -15.6382   20.1316 H   0  0  0  0  0  0
  -26.7273  -32.5224   23.0898 H   0  0  0  0  0  0
  -25.0078  -33.9570   25.0261 H   0  0  0  0  0  0
  -22.7635  -31.2796   21.3674 H   0  0  0  0  0  0
  -23.3764  -35.9579   23.3334 H   0  0  0  0  0  0
  -24.3580  -36.8836   22.2047 H   0  0  0  0  0  0
  -23.7298  -37.6450   23.6673 H   0  0  0  0  0  0
  -26.1896  -31.4361   20.6172 H   0  0  0  0  0  0
  -26.8866  -30.7330   22.0389 H   0  0  0  0  0  0
  -28.1557  -28.7361   21.2106 H   0  0  0  0  0  0
  -25.9026  -25.8101   18.9817 H   0  0  0  0  0  0
  -23.9808  -27.2915   18.9716 H   0  0  0  0  0  0
  -23.8340  -30.5495   19.3958 H   0  0  0  0  0  0
  -22.8002  -29.2215   19.8354 H   0  0  0  0  0  0
  -25.1354  -36.1815   25.0790 H   0  0  0  0  0  0
  -21.0008  -28.3229   24.1334 H   0  0  0  0  0  0
  -20.5586  -26.2283   23.3604 H   0  0  0  0  0  0
  -21.6633  -26.7298   22.1237 H   0  0  0  0  0  0
  -19.6915  -25.6241   21.1213 H   0  0  0  0  0  0
  -19.6691  -27.3129   20.6704 H   0  0  0  0  0  0
  -17.4195  -26.6585   21.4024 H   0  0  0  0  0  0
  -18.0363  -26.0016   22.9006 H   0  0  0  0  0  0
  -19.7963  -30.7224   24.2214 H   0  0  0  0  0  0
  -17.5040  -31.6239   24.5106 H   0  0  0  0  0  0
  -15.5364  -30.2928   23.7665 H   0  0  0  0  0  0
  -15.8683  -28.0752   22.7107 H   0  0  0  0  0  0
  -24.5924  -30.7057   25.7682 H   0  0  0  0  0  0
  -24.8908  -32.2909   26.4702 H   0  0  0  0  0  0
  -25.8003  -30.8952   27.0165 H   0  0  0  0  0  0
  -26.2996  -29.6610   24.1304 H   0  0  0  0  0  0
  -27.4017  -29.7208   25.4851 H   0  0  0  0  0  0
  -27.8929  -30.4108   23.9588 H   0  0  0  0  0  0
  -27.2617  -33.3646   26.1949 H   0  0  0  0  0  0
  -28.3918  -32.6811   25.0323 H   0  0  0  0  0  0
  -28.0667  -31.8485   26.5449 H   0  0  0  0  0  0
  -28.2608  -38.0067   24.7462 H   0  0  0  0  0  0
  -28.1055  -36.2572   24.6382 H   0  0  0  0  0  0
  -27.2265  -37.1531   25.8873 H   0  0  0  0  0  0
  -20.9466  -29.8822   21.6866 H   0  0  0  0  0  0
  -26.0160  -38.2783   24.1363 H   0  0  0  0  0  0
  -30.2094  -20.0874   17.9424 H   0  0  0  0  0  0
  -30.6644  -18.8769   21.8266 H   0  0  0  0  0  0
  -29.0477  -19.0329   22.4829 H   0  0  0  0  0  0
  -28.5291  -16.6710   22.0312 H   0  0  0  0  0  0
  -30.2042  -16.5725   22.5285 H   0  0  0  0  0  0
  -29.4145  -17.4853   18.6143 H   0  0  0  0  0  0
  -30.9119  -17.8815   19.4021 H   0  0  0  0  0  0
  -28.0916  -18.8189   20.2688 H   0  0  0  0  0  0
  -31.2741  -22.6767   16.5468 H   0  0  0  0  0  0
  -29.6694  -23.2962   16.1264 H   0  0  0  0  0  0
  -30.0205  -21.5905   15.9347 H   0  0  0  0  0  0
  -28.0314  -24.4164   21.5372 H   0  0  0  0  0  0
  -26.8950  -24.3177   20.2553 H   0  0  0  0  0  0
  1 25  1  0  0  0
  1 30  2  0  0  0
  1 83  1  0  0  0
  2  3  1  0  0  0
  2 25  1  0  0  0
  2 84  1  0  0  0
  2 85  1  0  0  0
  3  4  1  0  0  0
  3 86  1  0  0  0
  3 87  1  0  0  0
  4  5  1  0  0  0
  4 88  1  0  0  0
  4 89  1  0  0  0
  5  6  1  0  0  0
  5 26  1  0  0  0
  5 90  1  0  0  0
  6 25  1  0  0  0
  6 91  1  0  0  0
  6 92  1  0  0  0
  7  8  2  0  0  0
  7 26  1  0  0  0
  7 29  1  0  0  0
  8  9  1  0  0  0
  8 22  1  0  0  0
  9 10  1  0  0  0
  9 27  2  0  0  0
 10 11  2  0  0  0
 10 15  1  0  0  0
 11 12  1  0  0  0
 11 93  1  0  0  0
 12 13  2  0  0  0
 12 94  1  0  0  0
 13 14  1  0  0  0
 13 31  1  0  0  0
 14 15  2  0  0  0
 14 95  1  0  0  0
 15 96  1  0  0  0
 16 17  2  0  0  0
 16 21  1  0  0  0
 16 31  1  0  0  0
 17 18  1  0  0  0
 17 97  1  0  0  0
 18 19  2  0  0  0
 18 98  1  0  0  0
 19 20  1  0  0  0
 19 24  1  0  0  0
 20 21  2  0  0  0
 20 99  1  0  0  0
 21 23  1  0  0  0
 22 28  1  0  0  0
 22 32  2  0  0  0
 26 27  1  0  0  0
 28100  1  0  0  0
 28101  1  0  0  0
 29102  1  0  0  0
 29103  1  0  0  0
 33 34  1  0  0  0
 33 66  1  0  0  0
 33 70  2  0  0  0
 34 36  1  0  0  0
 34 59  1  0  0  0
 34104  1  0  0  0
 35 44  2  0  0  0
 35 45  1  0  0  0
 35 68  1  0  0  0
 36 56  1  0  0  0
 36105  1  0  0  0
 37 39  1  0  0  0
 37 47  1  0  0  0
 37 66  1  0  0  0
 37106  1  0  0  0
 38 43  2  0  0  0
 38 46  1  0  0  0
 38 47  1  0  0  0
 39 64  1  0  0  0
 39 67  2  0  0  0
 40 52  1  0  0  0
 40 53  2  0  0  0
 40 58  1  0  0  0
 41107  1  0  0  0
 41108  1  0  0  0
 41109  1  0  0  0
 41 48  1  0  0  0
 42 43  1  0  0  0
 42 66  1  0  0  0
 42110  1  0  0  0
 42111  1  0  0  0
 43 44  1  0  0  0
 44112  1  0  0  0
 45 46  2  0  0  0
 45113  1  0  0  0
 46114  1  0  0  0
 47115  1  0  0  0
 47116  1  0  0  0
 48 56  1  0  0  0
 48 65  1  0  0  0
 48117  1  0  0  0
 49 50  1  0  0  0
 49 53  1  0  0  0
 49 64  1  0  0  0
 49118  1  0  0  0
 50 51  1  0  0  0
 50119  1  0  0  0
 50120  1  0  0  0
 51 52  1  0  0  0
 51121  1  0  0  0
 51122  1  0  0  0
 52123  1  0  0  0
 52124  1  0  0  0
 53 54  1  0  0  0
 54 55  2  0  0  0
 54125  1  0  0  0
 55 57  1  0  0  0
 55126  1  0  0  0
 56 69  2  0  0  0
 57 58  2  0  0  0
 57127  1  0  0  0
 58128  1  0  0  0
 59 60  1  0  0  0
 59 61  1  0  0  0
 59 62  1  0  0  0
 60129  1  0  0  0
 60130  1  0  0  0
 60131  1  0  0  0
 61132  1  0  0  0
 61133  1  0  0  0
 61134  1  0  0  0
 62135  1  0  0  0
 62136  1  0  0  0
 62137  1  0  0  0
 63 65  1  0  0  0
 63138  1  0  0  0
 63139  1  0  0  0
 63140  1  0  0  0
 64141  1  0  0  0
 65142  1  0  0  0
 68 80  1  0  0  0
 71 72  2  0  0  0
 71 73  1  0  0  0
 71143  1  0  0  0
 72 81  1  0  0  0
 72 78  1  0  0  0
 73 79  1  0  0  0
 73 82  2  0  0  0
 74 80  1  0  0  0
 74 81  2  0  0  0
 74 82  1  0  0  0
 75 76  1  0  0  0
 75 78  1  0  0  0
 75144  1  0  0  0
 75145  1  0  0  0
 76 83  1  0  0  0
 76146  1  0  0  0
 76147  1  0  0  0
 77 78  1  0  0  0
 77 83  1  0  0  0
 77148  1  0  0  0
 77149  1  0  0  0
 78150  1  0  0  0
 79151  1  0  0  0
 79152  1  0  0  0
 79153  1  0  0  0
 80154  1  0  0  0
 80155  1  0  0  0
M  ISO  4   1 100  68 101  80 101  83 100
M  END
> <chiral flag>
0

> <version>
0

> <s_m_source_file>
/data/baiqing/PycharmProjects/Reinvent-master-3.2/result/LINK_invent/BTK/process_docking_weight1_custom_sum_contain_oxygen_bond_distance_aromatic_linkinvent_7_9_3/rearranged_h_0178.sdf

> <i_m_source_file_index>
73

> <r_mmod_Potential_Energy-OPLS-2005>
553.460144042969

> <r_mmod_Stretch_Energy-OPLS-2005>
340.414794921875

> <r_mmod_Bend_Energy-OPLS-2005>
351.034637451172

> <r_mmod_Torsional_Energy-OPLS-2005>
328.106597900391

> <r_mmod_Improper_Torsional_Energy-OPLS-2005>
11.1666316986084

> <r_mmod_Van_der_Waal_Energy-OPLS-2005>
126.052589416504

> <r_mmod_Electrostatic_Energy-OPLS-2005>
-640.755310058594

> <r_mmod_Solvation_Energy-OPLS-2005>
-235.539260864258

> <b_mmod_Minimization_Converged-OPLS-2005>
0

> <r_mmod_RMS_Derivative-OPLS-2005>
4.50076484680176

$$$$
74
                    3D
 Structure written by MMmdl.
162172  0  0  1  0            999 V2000
  -30.6229  -14.7265   20.4613 C   0  0  0  0  0  0
  -30.4354  -12.4428   19.4699 C   0  0  0  0  0  0
  -29.5138  -12.5034   18.2320 C   0  0  0  0  0  0
  -28.0380  -12.3353   18.6428 C   0  0  0  0  0  0
  -27.6450  -13.2306   19.8488 C   0  0  2  0  0  0
  -28.6906  -13.1532   20.9836 C   0  0  0  0  0  0
  -25.2532  -13.8194   20.5667 C   0  0  0  0  0  0
  -24.1835  -13.0449   20.9242 C   0  0  0  0  0  0
  -24.6416  -11.6921   20.8758 C   0  0  0  0  0  0
  -23.9087  -10.4301   21.0418 C   0  0  0  0  0  0
  -24.3624   -9.4206   21.9190 C   0  0  0  0  0  0
  -23.6296   -8.2244   22.0756 C   0  0  0  0  0  0
  -22.4280   -8.0287   21.3546 C   0  0  0  0  0  0
  -21.9923   -9.0273   20.4650 C   0  0  0  0  0  0
  -22.7259  -10.2154   20.3063 C   0  0  0  0  0  0
  -21.6858   -6.0735   22.5285 C   0  0  0  0  0  0
  -21.4026   -6.5636   23.8221 C   0  0  0  0  0  0
  -21.3657   -5.6790   24.9178 C   0  0  0  0  0  0
  -21.6043   -4.3053   24.7234 C   0  0  0  0  0  0
  -21.8815   -3.8142   23.4358 C   0  0  0  0  0  0
  -21.9194   -4.6958   22.3411 C   0  0  0  0  0  0
  -22.7847  -13.5243   21.1862 C   0  0  0  0  0  0
  -22.1657   -4.2149   21.0989 F   0  0  0  0  0  0
  -21.5625   -3.4530   25.7741 F   0  0  0  0  0  0
  -29.9926  -13.5048   20.4029 N   0  0  0  0  0  0
  -26.2952  -12.9394   20.3256 N   0  0  0  0  0  0
  -25.9339  -11.6542   20.5741 N   0  0  0  0  0  0
  -22.0460  -12.8273   22.0408 N   0  0  0  0  0  0
  -25.4204  -15.1910   20.3981 N   0  0  0  0  0  0
  -31.8098  -14.8178   20.1349 O   0  0  0  0  0  0
  -21.6640   -6.8886   21.4248 O   0  0  0  0  0  0
  -22.3546  -14.5528   20.6668 O   0  0  0  0  0  0
  -24.6324  -31.8544   23.1989 C   0  0  0  0  0  0
  -25.9152  -32.4749   23.8321 C   0  0  1  0  0  0
  -27.2263  -27.2715   20.1212 C   0  0  0  0  0  0
  -25.5952  -33.8553   24.2242 N   0  0  0  0  0  0
  -23.4272  -30.4778   21.5446 C   0  0  2  0  0  0
  -24.8731  -28.9212   20.1156 C   0  0  0  0  0  0
  -22.7485  -29.4614   22.4934 C   0  0  0  0  0  0
  -18.0280  -28.1399   22.8471 C   0  0  0  0  0  0
  -24.1495  -36.7290   23.2634 C   0  0  0  0  0  0
  -25.9721  -30.7707   21.3756 C   0  0  0  0  0  0
  -26.0459  -29.3942   20.7166 C   0  0  0  0  0  0
  -27.2258  -28.5851   20.7014 C   0  0  0  0  0  0
  -26.0291  -26.8615   19.4949 C   0  0  0  0  0  0
  -24.8692  -27.6625   19.4945 C   0  0  0  0  0  0
  -23.6430  -29.8081   20.1620 C   0  0  0  0  0  0
  -25.4121  -36.3062   24.0306 C   0  0  1  0  0  0
  -20.5878  -28.3712   23.1263 C   0  0  2  0  0  0
  -20.6765  -26.9430   22.5411 C   0  0  0  0  0  0
  -19.5749  -26.6391   21.5201 C   0  0  0  0  0  0
  -18.1930  -26.7940   22.1614 C   0  0  0  0  0  0
  -19.1531  -28.8871   23.2862 C   0  0  0  0  0  0
  -18.9451  -30.1465   23.8890 C   0  0  0  0  0  0
  -17.6450  -30.6591   24.0566 C   0  0  0  0  0  0
  -25.9066  -34.9434   23.5073 C   0  0  0  0  0  0
  -16.5341  -29.9085   23.6340 C   0  0  0  0  0  0
  -16.7266  -28.6511   23.0344 C   0  0  0  0  0  0
  -26.4520  -31.6574   25.0717 C   0  0  0  0  0  0
  -25.3747  -31.3730   26.1433 C   0  0  0  0  0  0
  -27.0335  -30.2973   24.6210 C   0  0  0  0  0  0
  -27.6069  -32.4328   25.7495 C   0  0  0  0  0  0
  -27.5581  -37.1796   24.8454 C   0  0  0  0  0  0
  -21.4197  -29.3051   22.3653 N   0  0  0  0  0  0
  -26.4297  -37.3763   23.9404 N   0  0  0  0  0  0
  -24.6972  -31.0501   22.0970 N   0  0  0  0  0  0
  -23.4170  -28.8166   23.3057 O   0  0  0  0  0  0
  -28.3467  -26.4106   20.1443 O   0  0  0  0  0  0
  -26.5631  -34.8911   22.4636 O   0  0  0  0  0  0
  -23.5481  -32.1368   23.7294 O   0  0  0  0  0  0
  -28.4026  -18.5455   21.6963 C   0  0  0  0  0  0
  -28.1997  -20.8808   21.7291 C   0  0  0  0  0  0
  -29.2175  -21.0251   20.7524 C   0  0  0  0  0  0
  -29.4775  -18.6070   20.7832 C   0  0  0  0  0  0
  -28.4281  -22.9983   23.2548 C   0  0  0  0  0  0
  -27.4656  -22.0798   23.9507 C   0  0  0  0  0  0
  -29.6238  -23.0555   19.0055 C   0  0  0  0  0  0
  -27.5725  -22.0478   22.4360 C   0  0  0  0  0  0
  -29.8569  -22.4115   20.3388 C   0  0  1  0  0  0
  -29.4859  -23.9906   20.2083 C   0  0  1  0  0  0
  -30.6422  -24.9033   20.5975 C   0  0  0  0  0  0
  -30.3272  -17.3092   20.4061 C   0  0  0  0  0  0
  -28.1771  -24.9138   20.2278 C   0  0  0  0  0  0
  -27.7678  -19.6594   22.1505 N   0  0  0  0  0  0
  -29.8488  -19.8615   20.3020 N   0  0  0  0  0  0
  -29.8703  -15.8705   20.6597 N   0  0  0  0  0  0
  -31.4764  -12.5640   19.1635 H   0  0  0  0  0  0
  -30.3756  -11.4628   19.9471 H   0  0  0  0  0  0
  -29.7890  -11.7298   17.5130 H   0  0  0  0  0  0
  -29.6509  -13.4571   17.7196 H   0  0  0  0  0  0
  -27.8904  -11.2858   18.8994 H   0  0  0  0  0  0
  -27.3830  -12.5331   17.7932 H   0  0  0  0  0  0
  -27.6422  -14.2543   19.4747 H   0  0  0  0  0  0
  -28.7249  -12.1501   21.4112 H   0  0  0  0  0  0
  -28.4285  -13.8278   21.8005 H   0  0  0  0  0  0
  -25.2773   -9.5668   22.4757 H   0  0  0  0  0  0
  -23.9995   -7.4638   22.7480 H   0  0  0  0  0  0
  -21.0852   -8.8798   19.8963 H   0  0  0  0  0  0
  -22.3718  -10.9687   19.6163 H   0  0  0  0  0  0
  -21.2017   -7.6146   23.9730 H   0  0  0  0  0  0
  -21.1488   -6.0517   25.9090 H   0  0  0  0  0  0
  -22.0593   -2.7606   23.2862 H   0  0  0  0  0  0
  -22.4043  -11.9954   22.4864 H   0  0  0  0  0  0
  -21.1064  -13.1295   22.2524 H   0  0  0  0  0  0
  -24.6400  -15.8343   20.4819 H   0  0  0  0  0  0
  -26.2331  -15.6134   19.9689 H   0  0  0  0  0  0
  -26.7216  -32.5394   23.1062 H   0  0  0  0  0  0
  -25.0114  -33.9701   25.0394 H   0  0  0  0  0  0
  -22.7264  -31.3016   21.3983 H   0  0  0  0  0  0
  -23.3743  -35.9635   23.3302 H   0  0  0  0  0  0
  -24.3571  -36.8920   22.2047 H   0  0  0  0  0  0
  -23.7263  -37.6494   23.6667 H   0  0  0  0  0  0
  -26.1051  -31.5316   20.6065 H   0  0  0  0  0  0
  -26.8520  -30.8192   22.0068 H   0  0  0  0  0  0
  -28.1307  -28.9509   21.1668 H   0  0  0  0  0  0
  -25.9667  -25.9084   18.9923 H   0  0  0  0  0  0
  -23.9728  -27.2976   19.0122 H   0  0  0  0  0  0
  -23.7644  -30.5832   19.4046 H   0  0  0  0  0  0
  -22.7623  -29.2399   19.8610 H   0  0  0  0  0  0
  -25.1306  -36.1898   25.0796 H   0  0  0  0  0  0
  -20.9956  -28.3299   24.1390 H   0  0  0  0  0  0
  -20.5635  -26.2337   23.3620 H   0  0  0  0  0  0
  -21.6641  -26.7440   22.1231 H   0  0  0  0  0  0
  -19.6925  -25.6296   21.1254 H   0  0  0  0  0  0
  -19.6700  -27.3188   20.6717 H   0  0  0  0  0  0
  -17.4199  -26.6668   21.4019 H   0  0  0  0  0  0
  -18.0346  -26.0077   22.9012 H   0  0  0  0  0  0
  -19.7922  -30.7279   24.2267 H   0  0  0  0  0  0
  -17.5000  -31.6273   24.5164 H   0  0  0  0  0  0
  -15.5343  -30.2981   23.7669 H   0  0  0  0  0  0
  -15.8666  -28.0828   22.7059 H   0  0  0  0  0  0
  -24.5933  -30.7068   25.7765 H   0  0  0  0  0  0
  -24.8928  -32.2897   26.4844 H   0  0  0  0  0  0
  -25.8063  -30.8922   27.0223 H   0  0  0  0  0  0
  -26.2893  -29.6748   24.1228 H   0  0  0  0  0  0
  -27.3973  -29.7218   25.4735 H   0  0  0  0  0  0
  -27.8808  -30.4207   23.9459 H   0  0  0  0  0  0
  -27.2663  -33.3638   26.2041 H   0  0  0  0  0  0
  -28.3898  -32.6875   25.0340 H   0  0  0  0  0  0
  -28.0718  -31.8476   26.5447 H   0  0  0  0  0  0
  -28.2588  -38.0105   24.7496 H   0  0  0  0  0  0
  -28.1089  -36.2629   24.6281 H   0  0  0  0  0  0
  -27.2301  -37.1445   25.8860 H   0  0  0  0  0  0
  -20.9387  -29.8753   21.6831 H   0  0  0  0  0  0
  -26.0168  -38.2835   24.1401 H   0  0  0  0  0  0
  -28.0795  -17.6015   22.1126 H   0  0  0  0  0  0
  -29.4895  -22.7759   23.3509 H   0  0  0  0  0  0
  -28.1751  -24.0562   23.2585 H   0  0  0  0  0  0
  -26.5866  -22.5433   24.3937 H   0  0  0  0  0  0
  -27.8882  -21.2508   24.5159 H   0  0  0  0  0  0
  -28.7084  -22.7955   18.4766 H   0  0  0  0  0  0
  -30.4904  -23.1875   18.3600 H   0  0  0  0  0  0
  -26.7423  -22.4533   21.8616 H   0  0  0  0  0  0
  -30.9004  -22.2589   20.6046 H   0  0  0  0  0  0
  -31.5913  -24.3677   20.6110 H   0  0  0  0  0  0
  -30.4783  -25.3211   21.5906 H   0  0  0  0  0  0
  -30.7462  -25.7201   19.8834 H   0  0  0  0  0  0
  -30.5850  -17.3890   19.3498 H   0  0  0  0  0  0
  -31.2757  -17.4229   20.9317 H   0  0  0  0  0  0
  -27.6400  -24.7193   21.1537 H   0  0  0  0  0  0
  -27.5256  -24.5640   19.4306 H   0  0  0  0  0  0
  -28.8957  -15.7338   20.8765 H   0  0  0  0  0  0
  1 25  1  0  0  0
  1 30  2  0  0  0
  1 86  1  0  0  0
  2  3  1  0  0  0
  2 25  1  0  0  0
  2 87  1  0  0  0
  2 88  1  0  0  0
  3  4  1  0  0  0
  3 89  1  0  0  0
  3 90  1  0  0  0
  4  5  1  0  0  0
  4 91  1  0  0  0
  4 92  1  0  0  0
  5  6  1  0  0  0
  5 26  1  0  0  0
  5 93  1  0  0  0
  6 25  1  0  0  0
  6 94  1  0  0  0
  6 95  1  0  0  0
  7  8  2  0  0  0
  7 26  1  0  0  0
  7 29  1  0  0  0
  8  9  1  0  0  0
  8 22  1  0  0  0
  9 10  1  0  0  0
  9 27  2  0  0  0
 10 11  2  0  0  0
 10 15  1  0  0  0
 11 12  1  0  0  0
 11 96  1  0  0  0
 12 13  2  0  0  0
 12 97  1  0  0  0
 13 14  1  0  0  0
 13 31  1  0  0  0
 14 15  2  0  0  0
 14 98  1  0  0  0
 15 99  1  0  0  0
 16 17  2  0  0  0
 16 21  1  0  0  0
 16 31  1  0  0  0
 17 18  1  0  0  0
 17100  1  0  0  0
 18 19  2  0  0  0
 18101  1  0  0  0
 19 20  1  0  0  0
 19 24  1  0  0  0
 20 21  2  0  0  0
 20102  1  0  0  0
 21 23  1  0  0  0
 22 28  1  0  0  0
 22 32  2  0  0  0
 26 27  1  0  0  0
 28103  1  0  0  0
 28104  1  0  0  0
 29105  1  0  0  0
 29106  1  0  0  0
 33 34  1  0  0  0
 33 66  1  0  0  0
 33 70  2  0  0  0
 34 36  1  0  0  0
 34 59  1  0  0  0
 34107  1  0  0  0
 35 44  2  0  0  0
 35 45  1  0  0  0
 35 68  1  0  0  0
 36 56  1  0  0  0
 36108  1  0  0  0
 37 39  1  0  0  0
 37 47  1  0  0  0
 37 66  1  0  0  0
 37109  1  0  0  0
 38 43  2  0  0  0
 38 46  1  0  0  0
 38 47  1  0  0  0
 39 64  1  0  0  0
 39 67  2  0  0  0
 40 52  1  0  0  0
 40 53  2  0  0  0
 40 58  1  0  0  0
 41110  1  0  0  0
 41111  1  0  0  0
 41112  1  0  0  0
 41 48  1  0  0  0
 42 43  1  0  0  0
 42 66  1  0  0  0
 42113  1  0  0  0
 42114  1  0  0  0
 43 44  1  0  0  0
 44115  1  0  0  0
 45 46  2  0  0  0
 45116  1  0  0  0
 46117  1  0  0  0
 47118  1  0  0  0
 47119  1  0  0  0
 48 56  1  0  0  0
 48 65  1  0  0  0
 48120  1  0  0  0
 49 50  1  0  0  0
 49 53  1  0  0  0
 49 64  1  0  0  0
 49121  1  0  0  0
 50 51  1  0  0  0
 50122  1  0  0  0
 50123  1  0  0  0
 51 52  1  0  0  0
 51124  1  0  0  0
 51125  1  0  0  0
 52126  1  0  0  0
 52127  1  0  0  0
 53 54  1  0  0  0
 54 55  2  0  0  0
 54128  1  0  0  0
 55 57  1  0  0  0
 55129  1  0  0  0
 56 69  2  0  0  0
 57 58  2  0  0  0
 57130  1  0  0  0
 58131  1  0  0  0
 59 60  1  0  0  0
 59 61  1  0  0  0
 59 62  1  0  0  0
 60132  1  0  0  0
 60133  1  0  0  0
 60134  1  0  0  0
 61135  1  0  0  0
 61136  1  0  0  0
 61137  1  0  0  0
 62138  1  0  0  0
 62139  1  0  0  0
 62140  1  0  0  0
 63 65  1  0  0  0
 63141  1  0  0  0
 63142  1  0  0  0
 63143  1  0  0  0
 64144  1  0  0  0
 65145  1  0  0  0
 68 83  1  0  0  0
 71 74  2  0  0  0
 71 84  1  0  0  0
 71146  1  0  0  0
 72 73  1  0  0  0
 72 84  2  0  0  0
 72 78  1  0  0  0
 73 85  2  0  0  0
 73 79  1  0  0  0
 74 82  1  0  0  0
 74 85  1  0  0  0
 75 76  1  0  0  0
 75 78  1  0  0  0
 75147  1  0  0  0
 75148  1  0  0  0
 76 78  1  0  0  0
 76149  1  0  0  0
 76150  1  0  0  0
 77 79  1  0  0  0
 77 80  1  0  0  0
 77151  1  0  0  0
 77152  1  0  0  0
 78153  1  0  0  0
 79 80  1  0  0  0
 79154  1  0  0  0
 80 81  1  0  0  0
 80 83  1  0  0  0
 81155  1  0  0  0
 81156  1  0  0  0
 81157  1  0  0  0
 82 86  1  0  0  0
 82158  1  0  0  0
 82159  1  0  0  0
 83160  1  0  0  0
 83161  1  0  0  0
 86162  1  0  0  0
M  ISO  4   1 100  68 101  83 101  86 100
M  END
> <chiral flag>
0

> <version>
0

> <s_m_source_file>
/data/baiqing/PycharmProjects/Reinvent-master-3.2/result/LINK_invent/BTK/process_docking_weight1_custom_sum_contain_oxygen_bond_distance_aromatic_linkinvent_7_9_3/rearranged_h_0178.sdf

> <i_m_source_file_index>
74

> <r_mmod_Potential_Energy-OPLS-2005>
261.591918945312

> <r_mmod_Stretch_Energy-OPLS-2005>
131.134674072266

> <r_mmod_Bend_Energy-OPLS-2005>
213.720489501953

> <r_mmod_Torsional_Energy-OPLS-2005>
268.662475585938

> <r_mmod_Improper_Torsional_Energy-OPLS-2005>
7.48273468017578

> <r_mmod_Van_der_Waal_Energy-OPLS-2005>
134.4638671875

> <r_mmod_Electrostatic_Energy-OPLS-2005>
-348.796966552734

> <r_mmod_Solvation_Energy-OPLS-2005>
-219.952819824219

> <b_mmod_Minimization_Converged-OPLS-2005>
0

> <r_mmod_RMS_Derivative-OPLS-2005>
3.26282072067261

$$$$
75
                    3D
 Structure written by MMmdl.
174183  0  0  1  0            999 V2000
  -30.5393  -14.9985   20.3993 C   0  0  0  0  0  0
  -30.4399  -12.6215   19.4995 C   0  0  0  0  0  0
  -29.5284  -12.5292   18.2559 C   0  0  0  0  0  0
  -28.0590  -12.3210   18.6703 C   0  0  0  0  0  0
  -27.6258  -13.2589   19.8291 C   0  0  2  0  0  0
  -28.6698  -13.3177   20.9642 C   0  0  0  0  0  0
  -25.2460  -13.8236   20.5726 C   0  0  0  0  0  0
  -24.1788  -13.0453   20.9236 C   0  0  0  0  0  0
  -24.6412  -11.6942   20.8755 C   0  0  0  0  0  0
  -23.9100  -10.4310   21.0405 C   0  0  0  0  0  0
  -24.3651   -9.4225   21.9180 C   0  0  0  0  0  0
  -23.6322   -8.2265   22.0765 C   0  0  0  0  0  0
  -22.4300   -8.0310   21.3560 C   0  0  0  0  0  0
  -21.9940   -9.0280   20.4650 C   0  0  0  0  0  0
  -22.7277  -10.2155   20.3052 C   0  0  0  0  0  0
  -21.6874   -6.0751   22.5281 C   0  0  0  0  0  0
  -21.4016   -6.5644   23.8210 C   0  0  0  0  0  0
  -21.3663   -5.6791   24.9169 C   0  0  0  0  0  0
  -21.6054   -4.3057   24.7222 C   0  0  0  0  0  0
  -21.8822   -3.8162   23.4339 C   0  0  0  0  0  0
  -21.9200   -4.6978   22.3396 C   0  0  0  0  0  0
  -22.7807  -13.5227   21.1876 C   0  0  0  0  0  0
  -22.1678   -4.2163   21.0974 F   0  0  0  0  0  0
  -21.5621   -3.4532   25.7730 F   0  0  0  0  0  0
  -29.9373  -13.7376   20.3538 N   0  0  0  0  0  0
  -26.2877  -12.9486   20.3212 N   0  0  0  0  0  0
  -25.9339  -11.6602   20.5709 N   0  0  0  0  0  0
  -22.0461  -12.8207   22.0428 N   0  0  0  0  0  0
  -25.4117  -15.1971   20.4179 N   0  0  0  0  0  0
  -31.7531  -15.0388   20.1697 O   0  0  0  0  0  0
  -21.6676   -6.8905   21.4248 O   0  0  0  0  0  0
  -22.3481  -14.5519   20.6706 O   0  0  0  0  0  0
  -24.6475  -31.8394   23.1858 C   0  0  0  0  0  0
  -25.9239  -32.4666   23.8253 C   0  0  1  0  0  0
  -27.2239  -27.1072   20.1540 C   0  0  0  0  0  0
  -25.5972  -33.8475   24.2176 N   0  0  0  0  0  0
  -23.4530  -30.4589   21.5299 C   0  0  2  0  0  0
  -24.9038  -28.8775   20.1100 C   0  0  0  0  0  0
  -22.7585  -29.4536   22.4830 C   0  0  0  0  0  0
  -18.0315  -28.1387   22.8479 C   0  0  0  0  0  0
  -24.1487  -36.7250   23.2639 C   0  0  0  0  0  0
  -26.0102  -30.7048   21.3876 C   0  0  0  0  0  0
  -26.0818  -29.3125   20.7290 C   0  0  0  0  0  0
  -27.2424  -28.4451   20.7314 C   0  0  0  0  0  0
  -26.0200  -26.7823   19.4895 C   0  0  0  0  0  0
  -24.8872  -27.6262   19.4730 C   0  0  0  0  0  0
  -23.6816  -29.7843   20.1509 C   0  0  0  0  0  0
  -25.4126  -36.3025   24.0307 C   0  0  1  0  0  0
  -20.5930  -28.3729   23.1217 C   0  0  2  0  0  0
  -20.6787  -26.9426   22.5402 C   0  0  0  0  0  0
  -19.5765  -26.6372   21.5207 C   0  0  0  0  0  0
  -18.1951  -26.7925   22.1624 C   0  0  0  0  0  0
  -19.1575  -28.8875   23.2841 C   0  0  0  0  0  0
  -18.9483  -30.1467   23.8865 C   0  0  0  0  0  0
  -17.6477  -30.6581   24.0558 C   0  0  0  0  0  0
  -25.9078  -34.9395   23.5060 C   0  0  0  0  0  0
  -16.5369  -29.9074   23.6330 C   0  0  0  0  0  0
  -16.7299  -28.6496   23.0351 C   0  0  0  0  0  0
  -26.4546  -31.6533   25.0702 C   0  0  0  0  0  0
  -25.3726  -31.3736   26.1396 C   0  0  0  0  0  0
  -27.0410  -30.2915   24.6305 C   0  0  0  0  0  0
  -27.6062  -32.4306   25.7502 C   0  0  0  0  0  0
  -27.5583  -37.1787   24.8469 C   0  0  0  0  0  0
  -21.4270  -29.3058   22.3581 N   0  0  0  0  0  0
  -26.4290  -37.3749   23.9411 N   0  0  0  0  0  0
  -24.7234  -31.0235   22.0899 N   0  0  0  0  0  0
  -23.4207  -28.8073   23.2988 O   0  0  0  0  0  0
  -28.2659  -26.1019   20.2382 O   0  0  0  0  0  0
  -26.5669  -34.8901   22.4636 O   0  0  0  0  0  0
  -23.5586  -32.1279   23.7069 O   0  0  0  0  0  0
  -30.9661  -22.5124   21.7384 C   0  0  0  0  0  0
  -30.0481  -23.5457   21.4235 C   0  0  0  0  0  0
  -30.8026  -21.1811   21.2435 C   0  0  0  0  0  0
  -28.9715  -23.2878   20.5419 C   0  0  0  0  0  0
  -29.6193  -20.8040   20.5468 C   0  0  0  0  0  0
  -30.2115  -24.9460   22.0464 C   0  0  0  0  0  0
  -31.5989  -23.7851   23.8011 C   0  0  0  0  0  0
  -32.1100  -22.8658   22.6877 C   0  0  2  0  0  0
  -31.9188  -20.1728   21.4897 C   0  0  0  0  0  0
  -33.3421  -23.4201   21.9454 C   0  0  0  0  0  0
  -31.5105  -26.4258   25.3528 C   0  0  0  0  0  0
  -29.2405  -25.3449   25.0558 C   0  0  0  0  0  0
  -29.2543  -19.1760   20.2575 C   0  0  0  0  0  0
  -27.9867  -24.5578   20.0719 C   0  0  0  0  0  0
  -30.2011  -17.7570   20.5383 C   0  0  0  0  0  0
  -30.4613  -25.9552   24.3273 C   0  0  0  0  0  0
  -28.7698  -21.9060   20.1876 N   0  0  0  0  0  0
  -29.7816  -16.2115   20.4949 N   0  0  0  0  0  0
  -31.0491  -25.0608   23.2806 N   0  3  2  0  0  0
  -31.4742  -12.7805   19.1901 H   0  0  0  0  0  0
  -30.4364  -11.6809   20.0520 H   0  0  0  0  0  0
  -29.8542  -11.7091   17.6127 H   0  0  0  0  0  0
  -29.6208  -13.4421   17.6642 H   0  0  0  0  0  0
  -27.9549  -11.2812   18.9793 H   0  0  0  0  0  0
  -27.4011  -12.4491   17.8092 H   0  0  0  0  0  0
  -27.5778  -14.2571   19.3925 H   0  0  0  0  0  0
  -28.7691  -12.3518   21.4612 H   0  0  0  0  0  0
  -28.3634  -14.0339   21.7289 H   0  0  0  0  0  0
  -25.2791   -9.5700   22.4760 H   0  0  0  0  0  0
  -24.0037   -7.4653   22.7478 H   0  0  0  0  0  0
  -21.0878   -8.8796   19.8942 H   0  0  0  0  0  0
  -22.3737  -10.9698   19.6171 H   0  0  0  0  0  0
  -21.2003   -7.6152   23.9709 H   0  0  0  0  0  0
  -21.1484   -6.0523   25.9062 H   0  0  0  0  0  0
  -22.0595   -2.7626   23.2832 H   0  0  0  0  0  0
  -22.4115  -11.9882   22.4802 H   0  0  0  0  0  0
  -21.1061  -13.1198   22.2611 H   0  0  0  0  0  0
  -24.6402  -15.8462   20.5282 H   0  0  0  0  0  0
  -26.2438  -15.6368   20.0473 H   0  0  0  0  0  0
  -26.7302  -32.5259   23.0970 H   0  0  0  0  0  0
  -25.0099  -33.9592   25.0314 H   0  0  0  0  0  0
  -22.7583  -31.2862   21.3717 H   0  0  0  0  0  0
  -23.3760  -35.9573   23.3285 H   0  0  0  0  0  0
  -24.3564  -36.8906   22.2057 H   0  0  0  0  0  0
  -23.7233  -37.6433   23.6688 H   0  0  0  0  0  0
  -26.1728  -31.4569   20.6142 H   0  0  0  0  0  0
  -26.8791  -30.7546   22.0322 H   0  0  0  0  0  0
  -28.1384  -28.7759   21.2366 H   0  0  0  0  0  0
  -25.9229  -25.8286   18.9925 H   0  0  0  0  0  0
  -23.9912  -27.2899   18.9703 H   0  0  0  0  0  0
  -23.8254  -30.5575   19.3951 H   0  0  0  0  0  0
  -22.7959  -29.2293   19.8367 H   0  0  0  0  0  0
  -25.1317  -36.1844   25.0799 H   0  0  0  0  0  0
  -21.0044  -28.3320   24.1328 H   0  0  0  0  0  0
  -20.5651  -26.2355   23.3633 H   0  0  0  0  0  0
  -21.6651  -26.7395   22.1218 H   0  0  0  0  0  0
  -19.6927  -25.6271   21.1264 H   0  0  0  0  0  0
  -19.6692  -27.3154   20.6709 H   0  0  0  0  0  0
  -17.4216  -26.6671   21.4029 H   0  0  0  0  0  0
  -18.0353  -26.0060   22.9015 H   0  0  0  0  0  0
  -19.7956  -30.7305   24.2209 H   0  0  0  0  0  0
  -17.5025  -31.6258   24.5168 H   0  0  0  0  0  0
  -15.5370  -30.2966   23.7663 H   0  0  0  0  0  0
  -15.8701  -28.0808   22.7065 H   0  0  0  0  0  0
  -24.5906  -30.7085   25.7724 H   0  0  0  0  0  0
  -24.8917  -32.2919   26.4767 H   0  0  0  0  0  0
  -25.8001  -30.8943   27.0214 H   0  0  0  0  0  0
  -26.3028  -29.6632   24.1309 H   0  0  0  0  0  0
  -27.4004  -29.7220   25.4890 H   0  0  0  0  0  0
  -27.8949  -30.4139   23.9641 H   0  0  0  0  0  0
  -27.2644  -33.3631   26.2005 H   0  0  0  0  0  0
  -28.3911  -32.6826   25.0360 H   0  0  0  0  0  0
  -28.0679  -31.8477   26.5481 H   0  0  0  0  0  0
  -28.2589  -38.0095   24.7513 H   0  0  0  0  0  0
  -28.1090  -36.2623   24.6290 H   0  0  0  0  0  0
  -27.2303  -37.1427   25.8874 H   0  0  0  0  0  0
  -20.9476  -29.8795   21.6785 H   0  0  0  0  0  0
  -26.0151  -38.2819   24.1398 H   0  0  0  0  0  0
  -29.2158  -25.3101   22.2897 H   0  0  0  0  0  0
  -30.6153  -25.6280   21.2972 H   0  0  0  0  0  0
  -32.4072  -23.9838   24.5057 H   0  0  0  0  0  0
  -30.8283  -23.2483   24.3543 H   0  0  0  0  0  0
  -32.4275  -21.9740   23.2259 H   0  0  0  0  0  0
  -31.7306  -19.5889   22.3910 H   0  0  0  0  0  0
  -32.8945  -20.6400   21.5930 H   0  0  0  0  0  0
  -32.0579  -19.5256   20.6295 H   0  0  0  0  0  0
  -33.1021  -24.3063   21.3586 H   0  0  0  0  0  0
  -33.7486  -22.6847   21.2522 H   0  0  0  0  0  0
  -34.1420  -23.6804   22.6401 H   0  0  0  0  0  0
  -31.0969  -27.2026   25.9964 H   0  0  0  0  0  0
  -32.3949  -26.8428   24.8704 H   0  0  0  0  0  0
  -31.8350  -25.6180   26.0093 H   0  0  0  0  0  0
  -28.7671  -26.0916   25.6942 H   0  0  0  0  0  0
  -29.5192  -24.5137   25.7027 H   0  0  0  0  0  0
  -28.4740  -24.9842   24.3710 H   0  0  0  0  0  0
  -28.9589  -19.1421   19.2069 H   0  0  0  0  0  0
  -28.3241  -19.0208   20.8032 H   0  0  0  0  0  0
  -27.0332  -24.3639   20.5641 H   0  0  0  0  0  0
  -27.7986  -24.4009   19.0096 H   0  0  0  0  0  0
  -30.5973  -17.8501   21.5471 H   0  0  0  0  0  0
  -31.0620  -17.8136   19.8720 H   0  0  0  0  0  0
  -30.1183  -26.8547   23.8113 H   0  0  0  0  0  0
  -28.7924  -16.0477   20.6136 H   0  0  0  0  0  0
  -31.8594  -25.5646   22.9508 H   0  0  0  0  0  0
  1 25  1  0  0  0
  1 30  2  0  0  0
  1 88  1  0  0  0
  2  3  1  0  0  0
  2 25  1  0  0  0
  2 90  1  0  0  0
  2 91  1  0  0  0
  3  4  1  0  0  0
  3 92  1  0  0  0
  3 93  1  0  0  0
  4  5  1  0  0  0
  4 94  1  0  0  0
  4 95  1  0  0  0
  5  6  1  0  0  0
  5 26  1  0  0  0
  5 96  1  0  0  0
  6 25  1  0  0  0
  6 97  1  0  0  0
  6 98  1  0  0  0
  7  8  2  0  0  0
  7 26  1  0  0  0
  7 29  1  0  0  0
  8  9  1  0  0  0
  8 22  1  0  0  0
  9 10  1  0  0  0
  9 27  2  0  0  0
 10 11  2  0  0  0
 10 15  1  0  0  0
 11 12  1  0  0  0
 11 99  1  0  0  0
 12 13  2  0  0  0
 12100  1  0  0  0
 13 14  1  0  0  0
 13 31  1  0  0  0
 14 15  2  0  0  0
 14101  1  0  0  0
 15102  1  0  0  0
 16 17  2  0  0  0
 16 21  1  0  0  0
 16 31  1  0  0  0
 17 18  1  0  0  0
 17103  1  0  0  0
 18 19  2  0  0  0
 18104  1  0  0  0
 19 20  1  0  0  0
 19 24  1  0  0  0
 20 21  2  0  0  0
 20105  1  0  0  0
 21 23  1  0  0  0
 22 28  1  0  0  0
 22 32  2  0  0  0
 26 27  1  0  0  0
 28106  1  0  0  0
 28107  1  0  0  0
 29108  1  0  0  0
 29109  1  0  0  0
 33 34  1  0  0  0
 33 66  1  0  0  0
 33 70  2  0  0  0
 34 36  1  0  0  0
 34 59  1  0  0  0
 34110  1  0  0  0
 35 44  2  0  0  0
 35 45  1  0  0  0
 35 68  1  0  0  0
 36 56  1  0  0  0
 36111  1  0  0  0
 37 39  1  0  0  0
 37 47  1  0  0  0
 37 66  1  0  0  0
 37112  1  0  0  0
 38 43  2  0  0  0
 38 46  1  0  0  0
 38 47  1  0  0  0
 39 64  1  0  0  0
 39 67  2  0  0  0
 40 52  1  0  0  0
 40 53  2  0  0  0
 40 58  1  0  0  0
 41113  1  0  0  0
 41114  1  0  0  0
 41115  1  0  0  0
 41 48  1  0  0  0
 42 43  1  0  0  0
 42 66  1  0  0  0
 42116  1  0  0  0
 42117  1  0  0  0
 43 44  1  0  0  0
 44118  1  0  0  0
 45 46  2  0  0  0
 45119  1  0  0  0
 46120  1  0  0  0
 47121  1  0  0  0
 47122  1  0  0  0
 48 56  1  0  0  0
 48 65  1  0  0  0
 48123  1  0  0  0
 49 50  1  0  0  0
 49 53  1  0  0  0
 49 64  1  0  0  0
 49124  1  0  0  0
 50 51  1  0  0  0
 50125  1  0  0  0
 50126  1  0  0  0
 51 52  1  0  0  0
 51127  1  0  0  0
 51128  1  0  0  0
 52129  1  0  0  0
 52130  1  0  0  0
 53 54  1  0  0  0
 54 55  2  0  0  0
 54131  1  0  0  0
 55 57  1  0  0  0
 55132  1  0  0  0
 56 69  2  0  0  0
 57 58  2  0  0  0
 57133  1  0  0  0
 58134  1  0  0  0
 59 60  1  0  0  0
 59 61  1  0  0  0
 59 62  1  0  0  0
 60135  1  0  0  0
 60136  1  0  0  0
 60137  1  0  0  0
 61138  1  0  0  0
 61139  1  0  0  0
 61140  1  0  0  0
 62141  1  0  0  0
 62142  1  0  0  0
 62143  1  0  0  0
 63 65  1  0  0  0
 63144  1  0  0  0
 63145  1  0  0  0
 63146  1  0  0  0
 64147  1  0  0  0
 65148  1  0  0  0
 68 84  1  0  0  0
 71 72  1  0  0  0
 71 73  2  0  0  0
 71 78  1  0  0  0
 72 74  2  0  0  0
 72 76  1  0  0  0
 73 75  1  0  0  0
 73 79  1  0  0  0
 74 84  1  0  0  0
 74 87  1  0  0  0
 75 83  1  0  0  0
 75 87  2  0  0  0
 76149  1  0  0  0
 76150  1  0  0  0
 76 89  1  0  0  0
 77 78  1  0  0  0
 77 89  1  0  0  0
 77151  1  0  0  0
 77152  1  0  0  0
 78 80  1  0  0  0
 78153  1  0  0  0
 79154  1  0  0  0
 79155  1  0  0  0
 79156  1  0  0  0
 80157  1  0  0  0
 80158  1  0  0  0
 80159  1  0  0  0
 81160  1  0  0  0
 81161  1  0  0  0
 81162  1  0  0  0
 81 86  1  0  0  0
 82 86  1  0  0  0
 82163  1  0  0  0
 82164  1  0  0  0
 82165  1  0  0  0
 83 85  1  0  0  0
 83166  1  0  0  0
 83167  1  0  0  0
 84168  1  0  0  0
 84169  1  0  0  0
 85 88  1  0  0  0
 85170  1  0  0  0
 85171  1  0  0  0
 86 89  1  0  0  0
 86172  1  0  0  0
 88173  1  0  0  0
 89174  1  0  0  0
M  CHG  1  89   1
M  ISO  4   1 100  68 101  84 101  88 100
M  END
> <chiral flag>
0

> <version>
0

> <s_m_source_file>
/data/baiqing/PycharmProjects/Reinvent-master-3.2/result/LINK_invent/BTK/process_docking_weight1_custom_sum_contain_oxygen_bond_distance_aromatic_linkinvent_7_9_3/rearranged_h_0178.sdf

> <i_m_source_file_index>
75

> <r_mmod_Potential_Energy-OPLS-2005>
436.893798828125

> <r_mmod_Stretch_Energy-OPLS-2005>
332.467620849609

> <r_mmod_Bend_Energy-OPLS-2005>
297.93212890625

> <r_mmod_Torsional_Energy-OPLS-2005>
262.347991943359

> <r_mmod_Improper_Torsional_Energy-OPLS-2005>
4.66427612304688

> <r_mmod_Van_der_Waal_Energy-OPLS-2005>
155.545257568359

> <r_mmod_Electrostatic_Energy-OPLS-2005>
-402.864654541016

> <r_mmod_Solvation_Energy-OPLS-2005>
-440.096649169922

> <b_mmod_Minimization_Converged-OPLS-2005>
0

> <r_mmod_RMS_Derivative-OPLS-2005>
2.3363311290741

$$$$
76
                    3D
 Structure written by MMmdl.
159168  0  0  1  0            999 V2000
  -30.6061  -14.9043   20.4853 C   0  0  0  0  0  0
  -30.4327  -12.5633   19.5416 C   0  0  0  0  0  0
  -29.5356  -12.5660   18.2822 C   0  0  0  0  0  0
  -28.0585  -12.3719   18.6671 C   0  0  0  0  0  0
  -27.6369  -13.2681   19.8620 C   0  0  2  0  0  0
  -28.6732  -13.2574   21.0076 C   0  0  0  0  0  0
  -25.2330  -13.8216   20.5615 C   0  0  0  0  0  0
  -24.1730  -13.0397   20.9255 C   0  0  0  0  0  0
  -24.6453  -11.6924   20.8812 C   0  0  0  0  0  0
  -23.9153  -10.4284   21.0435 C   0  0  0  0  0  0
  -24.3685   -9.4180   21.9209 C   0  0  0  0  0  0
  -23.6341   -8.2228   22.0770 C   0  0  0  0  0  0
  -22.4321   -8.0285   21.3571 C   0  0  0  0  0  0
  -21.9964   -9.0271   20.4679 C   0  0  0  0  0  0
  -22.7318  -10.2137   20.3086 C   0  0  0  0  0  0
  -21.6855   -6.0726   22.5263 C   0  0  0  0  0  0
  -21.4015   -6.5634   23.8188 C   0  0  0  0  0  0
  -21.3674   -5.6797   24.9159 C   0  0  0  0  0  0
  -21.6052   -4.3055   24.7218 C   0  0  0  0  0  0
  -21.8826   -3.8146   23.4335 C   0  0  0  0  0  0
  -21.9194   -4.6958   22.3383 C   0  0  0  0  0  0
  -22.7748  -13.5135   21.1874 C   0  0  0  0  0  0
  -22.1675   -4.2153   21.0955 F   0  0  0  0  0  0
  -21.5638   -3.4531   25.7721 F   0  0  0  0  0  0
  -29.9685  -13.6621   20.4393 N   0  0  0  0  0  0
  -26.2895  -12.9557   20.3316 N   0  0  0  0  0  0
  -25.9411  -11.6658   20.5848 N   0  0  0  0  0  0
  -22.0421  -12.8154   22.0458 N   0  0  0  0  0  0
  -25.3664  -15.1911   20.3723 N   0  0  0  0  0  0
  -31.7554  -14.9626   20.0333 O   0  0  0  0  0  0
  -21.6672   -6.8882   21.4241 O   0  0  0  0  0  0
  -22.3396  -14.5418   20.6684 O   0  0  0  0  0  0
  -24.6419  -31.8466   23.1886 C   0  0  0  0  0  0
  -25.9210  -32.4694   23.8284 C   0  0  1  0  0  0
  -27.2291  -27.1833   20.1323 C   0  0  0  0  0  0
  -25.5956  -33.8494   24.2210 N   0  0  0  0  0  0
  -23.4438  -30.4682   21.5324 C   0  0  2  0  0  0
  -24.8932  -28.8985   20.1134 C   0  0  0  0  0  0
  -22.7553  -29.4580   22.4847 C   0  0  0  0  0  0
  -18.0320  -28.1372   22.8486 C   0  0  0  0  0  0
  -24.1484  -36.7267   23.2638 C   0  0  0  0  0  0
  -25.9968  -30.7384   21.3770 C   0  0  0  0  0  0
  -26.0702  -29.3516   20.7206 C   0  0  0  0  0  0
  -27.2426  -28.5110   20.7101 C   0  0  0  0  0  0
  -26.0207  -26.8180   19.5001 C   0  0  0  0  0  0
  -24.8775  -27.6425   19.4891 C   0  0  0  0  0  0
  -23.6671  -29.7941   20.1530 C   0  0  0  0  0  0
  -25.4105  -36.3038   24.0329 C   0  0  1  0  0  0
  -20.5926  -28.3710   23.1214 C   0  0  2  0  0  0
  -20.6783  -26.9408   22.5386 C   0  0  0  0  0  0
  -19.5748  -26.6375   21.5195 C   0  0  0  0  0  0
  -18.1946  -26.7916   22.1628 C   0  0  0  0  0  0
  -19.1576  -28.8857   23.2853 C   0  0  0  0  0  0
  -18.9486  -30.1451   23.8883 C   0  0  0  0  0  0
  -17.6478  -30.6565   24.0567 C   0  0  0  0  0  0
  -25.9065  -34.9409   23.5089 C   0  0  0  0  0  0
  -16.5372  -29.9067   23.6317 C   0  0  0  0  0  0
  -16.7311  -28.6481   23.0358 C   0  0  0  0  0  0
  -26.4532  -31.6540   25.0712 C   0  0  0  0  0  0
  -25.3738  -31.3704   26.1425 C   0  0  0  0  0  0
  -27.0391  -30.2941   24.6259 C   0  0  0  0  0  0
  -27.6071  -32.4291   25.7492 C   0  0  0  0  0  0
  -27.5574  -37.1776   24.8457 C   0  0  0  0  0  0
  -21.4247  -29.3064   22.3595 N   0  0  0  0  0  0
  -26.4265  -37.3755   23.9430 N   0  0  0  0  0  0
  -24.7139  -31.0368   22.0892 N   0  0  0  0  0  0
  -23.4212  -28.8127   23.2987 O   0  0  0  0  0  0
  -28.3108  -26.2419   20.1704 O   0  0  0  0  0  0
  -26.5650  -34.8909   22.4661 O   0  0  0  0  0  0
  -23.5544  -32.1313   23.7137 O   0  0  0  0  0  0
  -30.2911  -19.7287   21.0169 C   0  0  0  0  0  0
  -30.2379  -21.1793   21.0147 C   0  0  0  0  0  0
  -29.2392  -21.9393   20.2934 C   0  0  0  0  0  0
  -29.3575  -18.9345   20.3003 C   0  0  0  0  0  0
  -28.3407  -21.0563   19.6145 C   0  0  0  0  0  0
  -28.2205  -16.9497   21.4752 C   0  0  0  0  0  0
  -29.4354  -16.4055   22.2288 C   0  0  0  0  0  0
  -29.1585  -17.3013   20.3161 C   0  0  2  0  0  0
  -31.3033  -21.9082   21.8139 C   0  0  0  0  0  0
  -27.1988  -21.6294   18.7965 C   0  0  0  0  0  0
  -29.2917  -23.5897   20.1627 C   0  0  0  0  0  0
  -28.0724  -24.7162   20.1279 C   0  0  0  0  0  0
  -28.4046  -19.6671   19.6296 N   0  0  0  0  0  0
  -29.9778  -16.1037   20.9094 N   0  0  0  0  0  0
  -30.3748  -11.6046   20.0578 H   0  0  0  0  0  0
  -31.4820  -12.6762   19.2629 H   0  0  0  0  0  0
  -29.8484  -11.7862   17.5888 H   0  0  0  0  0  0
  -29.6558  -13.5143   17.7557 H   0  0  0  0  0  0
  -27.9204  -11.3224   18.9263 H   0  0  0  0  0  0
  -27.4154  -12.5664   17.8079 H   0  0  0  0  0  0
  -27.6117  -14.2852   19.4697 H   0  0  0  0  0  0
  -28.3550  -13.9303   21.8008 H   0  0  0  0  0  0
  -28.7436  -12.2722   21.4679 H   0  0  0  0  0  0
  -25.2818   -9.5633   22.4804 H   0  0  0  0  0  0
  -24.0033   -7.4602   22.7476 H   0  0  0  0  0  0
  -21.0887   -8.8816   19.8984 H   0  0  0  0  0  0
  -22.3791  -10.9697   19.6211 H   0  0  0  0  0  0
  -21.2025   -7.6151   23.9694 H   0  0  0  0  0  0
  -21.1493   -6.0526   25.9058 H   0  0  0  0  0  0
  -22.0602   -2.7610   23.2823 H   0  0  0  0  0  0
  -22.4079  -11.9831   22.4843 H   0  0  0  0  0  0
  -21.1048  -13.1177   22.2678 H   0  0  0  0  0  0
  -24.5696  -15.8148   20.4440 H   0  0  0  0  0  0
  -26.1706  -15.6255   19.9401 H   0  0  0  0  0  0
  -26.7286  -32.5327   23.1029 H   0  0  0  0  0  0
  -25.0073  -33.9592   25.0339 H   0  0  0  0  0  0
  -22.7492  -31.2960   21.3760 H   0  0  0  0  0  0
  -23.3750  -35.9590   23.3247 H   0  0  0  0  0  0
  -24.3594  -36.8942   22.2063 H   0  0  0  0  0  0
  -23.7212  -37.6443   23.6696 H   0  0  0  0  0  0
  -26.1490  -31.4940   20.6038 H   0  0  0  0  0  0
  -26.8686  -30.7881   22.0176 H   0  0  0  0  0  0
  -28.1455  -28.8638   21.1906 H   0  0  0  0  0  0
  -25.9249  -25.8635   19.0089 H   0  0  0  0  0  0
  -23.9791  -27.2884   19.0024 H   0  0  0  0  0  0
  -23.7982  -30.5652   19.3921 H   0  0  0  0  0  0
  -22.7840  -29.2291   19.8459 H   0  0  0  0  0  0
  -25.1270  -36.1878   25.0816 H   0  0  0  0  0  0
  -21.0065  -28.3303   24.1317 H   0  0  0  0  0  0
  -20.5628  -26.2339   23.3622 H   0  0  0  0  0  0
  -21.6649  -26.7376   22.1201 H   0  0  0  0  0  0
  -19.6897  -25.6284   21.1226 H   0  0  0  0  0  0
  -19.6649  -27.3187   20.6722 H   0  0  0  0  0  0
  -17.4201  -26.6678   21.4053 H   0  0  0  0  0  0
  -18.0346  -26.0044   22.9005 H   0  0  0  0  0  0
  -19.7963  -30.7277   24.2243 H   0  0  0  0  0  0
  -17.5030  -31.6243   24.5171 H   0  0  0  0  0  0
  -15.5371  -30.2969   23.7614 H   0  0  0  0  0  0
  -15.8723  -28.0787   22.7079 H   0  0  0  0  0  0
  -24.5947  -30.7008   25.7749 H   0  0  0  0  0  0
  -24.8903  -32.2879   26.4794 H   0  0  0  0  0  0
  -25.8062  -30.8931   27.0236 H   0  0  0  0  0  0
  -26.3001  -29.6657   24.1279 H   0  0  0  0  0  0
  -27.4024  -29.7228   25.4809 H   0  0  0  0  0  0
  -27.8896  -30.4148   23.9548 H   0  0  0  0  0  0
  -27.2676  -33.3607   26.2019 H   0  0  0  0  0  0
  -28.3917  -32.6815   25.0350 H   0  0  0  0  0  0
  -28.0711  -31.8457   26.5453 H   0  0  0  0  0  0
  -28.2545  -38.0117   24.7565 H   0  0  0  0  0  0
  -28.1124  -36.2657   24.6199 H   0  0  0  0  0  0
  -27.2328  -37.1319   25.8866 H   0  0  0  0  0  0
  -20.9453  -29.8823   21.6810 H   0  0  0  0  0  0
  -26.0141  -38.2821   24.1454 H   0  0  0  0  0  0
  -31.0511  -19.2165   21.5928 H   0  0  0  0  0  0
  -27.7232  -17.7921   21.9588 H   0  0  0  0  0  0
  -27.5128  -16.1663   21.2290 H   0  0  0  0  0  0
  -29.2133  -15.5642   22.8839 H   0  0  0  0  0  0
  -30.0021  -17.1685   22.7661 H   0  0  0  0  0  0
  -28.7063  -17.0240   19.3615 H   0  0  0  0  0  0
  -31.9199  -21.2088   22.3801 H   0  0  0  0  0  0
  -30.8518  -22.5941   22.5310 H   0  0  0  0  0  0
  -31.9602  -22.4790   21.1571 H   0  0  0  0  0  0
  -26.6291  -20.8492   18.2899 H   0  0  0  0  0  0
  -26.5104  -22.1671   19.4487 H   0  0  0  0  0  0
  -27.5618  -22.3215   18.0371 H   0  0  0  0  0  0
  -29.8466  -23.7543   19.2388 H   0  0  0  0  0  0
  -29.9666  -23.9479   20.9365 H   0  0  0  0  0  0
  -27.3960  -24.4964   20.9544 H   0  0  0  0  0  0
  -27.5106  -24.5037   19.2213 H   0  0  0  0  0  0
  1 25  1  0  0  0
  1 30  2  0  0  0
  1 84  1  0  0  0
  2  3  1  0  0  0
  2 25  1  0  0  0
  2 85  1  0  0  0
  2 86  1  0  0  0
  3  4  1  0  0  0
  3 87  1  0  0  0
  3 88  1  0  0  0
  4  5  1  0  0  0
  4 89  1  0  0  0
  4 90  1  0  0  0
  5  6  1  0  0  0
  5 26  1  0  0  0
  5 91  1  0  0  0
  6 25  1  0  0  0
  6 92  1  0  0  0
  6 93  1  0  0  0
  7  8  2  0  0  0
  7 26  1  0  0  0
  7 29  1  0  0  0
  8  9  1  0  0  0
  8 22  1  0  0  0
  9 10  1  0  0  0
  9 27  2  0  0  0
 10 11  2  0  0  0
 10 15  1  0  0  0
 11 12  1  0  0  0
 11 94  1  0  0  0
 12 13  2  0  0  0
 12 95  1  0  0  0
 13 14  1  0  0  0
 13 31  1  0  0  0
 14 15  2  0  0  0
 14 96  1  0  0  0
 15 97  1  0  0  0
 16 17  2  0  0  0
 16 21  1  0  0  0
 16 31  1  0  0  0
 17 18  1  0  0  0
 17 98  1  0  0  0
 18 19  2  0  0  0
 18 99  1  0  0  0
 19 20  1  0  0  0
 19 24  1  0  0  0
 20 21  2  0  0  0
 20100  1  0  0  0
 21 23  1  0  0  0
 22 28  1  0  0  0
 22 32  2  0  0  0
 26 27  1  0  0  0
 28101  1  0  0  0
 28102  1  0  0  0
 29103  1  0  0  0
 29104  1  0  0  0
 33 34  1  0  0  0
 33 66  1  0  0  0
 33 70  2  0  0  0
 34 36  1  0  0  0
 34 59  1  0  0  0
 34105  1  0  0  0
 35 44  2  0  0  0
 35 45  1  0  0  0
 35 68  1  0  0  0
 36 56  1  0  0  0
 36106  1  0  0  0
 37 39  1  0  0  0
 37 47  1  0  0  0
 37 66  1  0  0  0
 37107  1  0  0  0
 38 43  2  0  0  0
 38 46  1  0  0  0
 38 47  1  0  0  0
 39 64  1  0  0  0
 39 67  2  0  0  0
 40 52  1  0  0  0
 40 53  2  0  0  0
 40 58  1  0  0  0
 41108  1  0  0  0
 41109  1  0  0  0
 41110  1  0  0  0
 41 48  1  0  0  0
 42 43  1  0  0  0
 42 66  1  0  0  0
 42111  1  0  0  0
 42112  1  0  0  0
 43 44  1  0  0  0
 44113  1  0  0  0
 45 46  2  0  0  0
 45114  1  0  0  0
 46115  1  0  0  0
 47116  1  0  0  0
 47117  1  0  0  0
 48 56  1  0  0  0
 48 65  1  0  0  0
 48118  1  0  0  0
 49 50  1  0  0  0
 49 53  1  0  0  0
 49 64  1  0  0  0
 49119  1  0  0  0
 50 51  1  0  0  0
 50120  1  0  0  0
 50121  1  0  0  0
 51 52  1  0  0  0
 51122  1  0  0  0
 51123  1  0  0  0
 52124  1  0  0  0
 52125  1  0  0  0
 53 54  1  0  0  0
 54 55  2  0  0  0
 54126  1  0  0  0
 55 57  1  0  0  0
 55127  1  0  0  0
 56 69  2  0  0  0
 57 58  2  0  0  0
 57128  1  0  0  0
 58129  1  0  0  0
 59 60  1  0  0  0
 59 61  1  0  0  0
 59 62  1  0  0  0
 60130  1  0  0  0
 60131  1  0  0  0
 60132  1  0  0  0
 61133  1  0  0  0
 61134  1  0  0  0
 61135  1  0  0  0
 62136  1  0  0  0
 62137  1  0  0  0
 62138  1  0  0  0
 63 65  1  0  0  0
 63139  1  0  0  0
 63140  1  0  0  0
 63141  1  0  0  0
 64142  1  0  0  0
 65143  1  0  0  0
 68 82  1  0  0  0
 71 72  2  0  0  0
 71 74  1  0  0  0
 71144  1  0  0  0
 72 73  1  0  0  0
 72 79  1  0  0  0
 73 75  2  0  0  0
 73 81  1  0  0  0
 74 83  2  0  0  0
 74 78  1  0  0  0
 75 80  1  0  0  0
 75 83  1  0  0  0
 76 77  1  0  0  0
 76 78  1  0  0  0
 76145  1  0  0  0
 76146  1  0  0  0
 77 84  1  0  0  0
 77147  1  0  0  0
 77148  1  0  0  0
 78 84  1  0  0  0
 78149  1  0  0  0
 79150  1  0  0  0
 79151  1  0  0  0
 79152  1  0  0  0
 80153  1  0  0  0
 80154  1  0  0  0
 80155  1  0  0  0
 81 82  1  0  0  0
 81156  1  0  0  0
 81157  1  0  0  0
 82158  1  0  0  0
 82159  1  0  0  0
M  ISO  4   1 100  68 101  82 101  84 100
M  END
> <chiral flag>
0

> <version>
0

> <s_m_source_file>
/data/baiqing/PycharmProjects/Reinvent-master-3.2/result/LINK_invent/BTK/process_docking_weight1_custom_sum_contain_oxygen_bond_distance_aromatic_linkinvent_7_9_3/rearranged_h_0178.sdf

> <i_m_source_file_index>
76

> <r_mmod_Potential_Energy-OPLS-2005>
337.351501464844

> <r_mmod_Stretch_Energy-OPLS-2005>
209.8603515625

> <r_mmod_Bend_Energy-OPLS-2005>
304.201538085938

> <r_mmod_Torsional_Energy-OPLS-2005>
296.275970458984

> <r_mmod_Improper_Torsional_Energy-OPLS-2005>
6.09711837768555

> <r_mmod_Van_der_Waal_Energy-OPLS-2005>
135.923919677734

> <r_mmod_Electrostatic_Energy-OPLS-2005>
-547.789245605469

> <r_mmod_Solvation_Energy-OPLS-2005>
-219.728057861328

> <b_mmod_Minimization_Converged-OPLS-2005>
0

> <r_mmod_RMS_Derivative-OPLS-2005>
3.3817241191864

$$$$
77
                    3D
 Structure written by MMmdl.
151159  0  0  1  0            999 V2000
  -30.5509  -14.9776   20.4091 C   0  0  0  0  0  0
  -30.4310  -12.5926   19.5224 C   0  0  0  0  0  0
  -29.5392  -12.5707   18.2582 C   0  0  0  0  0  0
  -28.0627  -12.3700   18.6466 C   0  0  0  0  0  0
  -27.6388  -13.2660   19.8421 C   0  0  2  0  0  0
  -28.6786  -13.2865   20.9847 C   0  0  0  0  0  0
  -25.2492  -13.8245   20.5723 C   0  0  0  0  0  0
  -24.1822  -13.0440   20.9184 C   0  0  0  0  0  0
  -24.6454  -11.6948   20.8693 C   0  0  0  0  0  0
  -23.9111  -10.4306   21.0344 C   0  0  0  0  0  0
  -24.3661   -9.4215   21.9119 C   0  0  0  0  0  0
  -23.6346   -8.2247   22.0719 C   0  0  0  0  0  0
  -22.4301   -8.0269   21.3529 C   0  0  0  0  0  0
  -21.9953   -9.0271   20.4635 C   0  0  0  0  0  0
  -22.7275  -10.2126   20.3017 C   0  0  0  0  0  0
  -21.6864   -6.0729   22.5275 C   0  0  0  0  0  0
  -21.4060   -6.5632   23.8218 C   0  0  0  0  0  0
  -21.3711   -5.6779   24.9166 C   0  0  0  0  0  0
  -21.6040   -4.3024   24.7205 C   0  0  0  0  0  0
  -21.8832   -3.8153   23.4319 C   0  0  0  0  0  0
  -21.9216   -4.6972   22.3380 C   0  0  0  0  0  0
  -22.7830  -13.5195   21.1825 C   0  0  0  0  0  0
  -22.1633   -4.2169   21.0962 F   0  0  0  0  0  0
  -21.5639   -3.4491   25.7723 F   0  0  0  0  0  0
  -29.9623  -13.7053   20.4074 N   0  0  0  0  0  0
  -26.2923  -12.9518   20.3206 N   0  0  0  0  0  0
  -25.9391  -11.6614   20.5687 N   0  0  0  0  0  0
  -22.0464  -12.8205   22.0417 N   0  0  0  0  0  0
  -25.4212  -15.1944   20.4191 N   0  0  0  0  0  0
  -31.7119  -15.0329   19.9810 O   0  0  0  0  0  0
  -21.6653   -6.8873   21.4252 O   0  0  0  0  0  0
  -22.3482  -14.5489   20.6647 O   0  0  0  0  0  0
  -24.6525  -31.8410   23.1834 C   0  0  0  0  0  0
  -25.9313  -32.4638   23.8217 C   0  0  1  0  0  0
  -27.2138  -27.1050   20.1263 C   0  0  0  0  0  0
  -25.6039  -33.8453   24.2141 N   0  0  0  0  0  0
  -23.4541  -30.4607   21.5288 C   0  0  2  0  0  0
  -24.8960  -28.8741   20.1018 C   0  0  0  0  0  0
  -22.7588  -29.4553   22.4814 C   0  0  0  0  0  0
  -18.0350  -28.1401   22.8477 C   0  0  0  0  0  0
  -24.1506  -36.7255   23.2624 C   0  0  0  0  0  0
  -26.0130  -30.6901   21.3948 C   0  0  0  0  0  0
  -26.0696  -29.3024   20.7256 C   0  0  0  0  0  0
  -27.2256  -28.4369   20.7274 C   0  0  0  0  0  0
  -26.0086  -26.7768   19.4679 C   0  0  0  0  0  0
  -24.8759  -27.6244   19.4582 C   0  0  0  0  0  0
  -23.6781  -29.7914   20.1459 C   0  0  0  0  0  0
  -25.4132  -36.2998   24.0294 C   0  0  1  0  0  0
  -20.5959  -28.3757   23.1199 C   0  0  2  0  0  0
  -20.6836  -26.9459   22.5373 C   0  0  0  0  0  0
  -19.5789  -26.6376   21.5210 C   0  0  0  0  0  0
  -18.1984  -26.7948   22.1629 C   0  0  0  0  0  0
  -19.1594  -28.8901   23.2835 C   0  0  0  0  0  0
  -18.9512  -30.1484   23.8855 C   0  0  0  0  0  0
  -17.6487  -30.6597   24.0548 C   0  0  0  0  0  0
  -25.9120  -34.9372   23.4998 C   0  0  0  0  0  0
  -16.5390  -29.9075   23.6316 C   0  0  0  0  0  0
  -16.7312  -28.6503   23.0355 C   0  0  0  0  0  0
  -26.4562  -31.6557   25.0737 C   0  0  0  0  0  0
  -25.3644  -31.3898   26.1376 C   0  0  0  0  0  0
  -27.0486  -30.2915   24.6466 C   0  0  0  0  0  0
  -27.6073  -32.4313   25.7567 C   0  0  0  0  0  0
  -27.5582  -37.1780   24.8445 C   0  0  0  0  0  0
  -21.4306  -29.3066   22.3546 N   0  0  0  0  0  0
  -26.4285  -37.3708   23.9402 N   0  0  0  0  0  0
  -24.7248  -31.0218   22.0861 N   0  0  0  0  0  0
  -23.4233  -28.8134   23.2999 O   0  0  0  0  0  0
  -28.2844  -26.1439   20.2303 O   0  0  0  0  0  0
  -26.5665  -34.8879   22.4588 O   0  0  0  0  0  0
  -23.5635  -32.1340   23.7000 O   0  0  0  0  0  0
  -29.2355  -21.8197   20.0583 C   0  0  0  0  0  0
  -30.7572  -19.0032   19.0819 C   0  0  0  0  0  0
  -30.0465  -17.7152   18.6119 C   0  0  0  0  0  0
  -29.8768  -19.1126   20.3567 C   0  0  2  0  0  0
  -29.3916  -17.5268   20.0121 C   0  0  2  0  0  0
  -28.2854  -23.1516   20.4104 C   0  0  0  0  0  0
  -28.3707  -24.6813   19.6562 C   0  0  0  0  0  0
  -28.9613  -20.4329   20.3374 N   0  0  0  0  0  0
  -29.8727  -16.1791   20.7509 N   0  0  0  0  0  0
  -30.3115  -22.0890   19.5372 O   0  0  0  0  0  0
  -31.4823  -12.6965   19.2414 H   0  0  0  0  0  0
  -30.3605  -11.6331   20.0420 H   0  0  0  0  0  0
  -29.8616  -11.7896   17.5675 H   0  0  0  0  0  0
  -29.6557  -13.5125   17.7165 H   0  0  0  0  0  0
  -27.9097  -11.3205   18.8871 H   0  0  0  0  0  0
  -27.4284  -12.5771   17.7844 H   0  0  0  0  0  0
  -27.6058  -14.2795   19.4470 H   0  0  0  0  0  0
  -28.7567  -12.3065   21.4608 H   0  0  0  0  0  0
  -28.3740  -13.9858   21.7620 H   0  0  0  0  0  0
  -25.2832   -9.5666   22.4641 H   0  0  0  0  0  0
  -24.0073   -7.4642   22.7417 H   0  0  0  0  0  0
  -21.0870   -8.8779   19.8951 H   0  0  0  0  0  0
  -22.3751  -10.9636   19.6101 H   0  0  0  0  0  0
  -21.2045   -7.6155   23.9732 H   0  0  0  0  0  0
  -21.1511   -6.0473   25.9068 H   0  0  0  0  0  0
  -22.0576   -2.7604   23.2784 H   0  0  0  0  0  0
  -22.4133  -11.9938   22.4893 H   0  0  0  0  0  0
  -21.1052  -13.1198   22.2576 H   0  0  0  0  0  0
  -24.6647  -15.8603   20.5325 H   0  0  0  0  0  0
  -26.2906  -15.6277   20.1298 H   0  0  0  0  0  0
  -26.7389  -32.5174   23.0943 H   0  0  0  0  0  0
  -25.0171  -33.9529   25.0262 H   0  0  0  0  0  0
  -22.7575  -31.2913   21.3737 H   0  0  0  0  0  0
  -23.3746  -35.9613   23.3248 H   0  0  0  0  0  0
  -24.3585  -36.8930   22.2051 H   0  0  0  0  0  0
  -23.7289  -37.6441   23.6692 H   0  0  0  0  0  0
  -26.2011  -31.4426   20.6299 H   0  0  0  0  0  0
  -26.8699  -30.7150   22.0569 H   0  0  0  0  0  0
  -28.1183  -28.7500   21.2424 H   0  0  0  0  0  0
  -25.9057  -25.8159   18.9843 H   0  0  0  0  0  0
  -23.9762  -27.2902   18.9616 H   0  0  0  0  0  0
  -23.8333  -30.5705   19.3962 H   0  0  0  0  0  0
  -22.7869  -29.2541   19.8203 H   0  0  0  0  0  0
  -25.1317  -36.1792   25.0772 H   0  0  0  0  0  0
  -21.0075  -28.3371   24.1307 H   0  0  0  0  0  0
  -20.5807  -26.2375   23.3609 H   0  0  0  0  0  0
  -21.6696  -26.7505   22.1115 H   0  0  0  0  0  0
  -19.6954  -25.6271   21.1291 H   0  0  0  0  0  0
  -19.6704  -27.3136   20.6706 H   0  0  0  0  0  0
  -17.4250  -26.6688   21.4031 H   0  0  0  0  0  0
  -18.0383  -26.0101   22.9038 H   0  0  0  0  0  0
  -19.7975  -30.7330   24.2212 H   0  0  0  0  0  0
  -17.5035  -31.6275   24.5158 H   0  0  0  0  0  0
  -15.5377  -30.2952   23.7672 H   0  0  0  0  0  0
  -15.8741  -28.0790   22.7081 H   0  0  0  0  0  0
  -24.5703  -30.7421   25.7624 H   0  0  0  0  0  0
  -24.8998  -32.3187   26.4683 H   0  0  0  0  0  0
  -25.7761  -30.9033   27.0220 H   0  0  0  0  0  0
  -26.3192  -29.6564   24.1420 H   0  0  0  0  0  0
  -27.3981  -29.7295   25.5137 H   0  0  0  0  0  0
  -27.9124  -30.4104   23.9930 H   0  0  0  0  0  0
  -27.2638  -33.3560   26.2195 H   0  0  0  0  0  0
  -28.3901  -32.6941   25.0453 H   0  0  0  0  0  0
  -28.0740  -31.8418   26.5461 H   0  0  0  0  0  0
  -28.2552  -38.0107   24.7483 H   0  0  0  0  0  0
  -28.1116  -36.2635   24.6257 H   0  0  0  0  0  0
  -27.2309  -37.1405   25.8841 H   0  0  0  0  0  0
  -20.9554  -29.8723   21.6649 H   0  0  0  0  0  0
  -26.0147  -38.2783   24.1320 H   0  0  0  0  0  0
  -30.6729  -19.8121   18.3552 H   0  0  0  0  0  0
  -31.8139  -18.8417   19.3117 H   0  0  0  0  0  0
  -30.7481  -16.9558   18.2625 H   0  0  0  0  0  0
  -29.3183  -17.9096   17.8100 H   0  0  0  0  0  0
  -30.4954  -19.1032   21.2587 H   0  0  0  0  0  0
  -28.3005  -17.5185   19.8917 H   0  0  0  0  0  0
  -28.4484  -23.3279   21.4753 H   0  0  0  0  0  0
  -27.2437  -22.8254   20.3593 H   0  0  0  0  0  0
  -27.7323  -24.6414   18.7702 H   0  0  0  0  0  0
  -29.3647  -24.6914   19.2091 H   0  0  0  0  0  0
  -28.0562  -20.2962   20.7695 H   0  0  0  0  0  0
  -29.7507  -16.2125   21.7781 H   0  0  0  0  0  0
  1 25  1  0  0  0
  1 30  2  0  0  0
  1 79  1  0  0  0
  2  3  1  0  0  0
  2 25  1  0  0  0
  2 81  1  0  0  0
  2 82  1  0  0  0
  3  4  1  0  0  0
  3 83  1  0  0  0
  3 84  1  0  0  0
  4  5  1  0  0  0
  4 85  1  0  0  0
  4 86  1  0  0  0
  5  6  1  0  0  0
  5 26  1  0  0  0
  5 87  1  0  0  0
  6 25  1  0  0  0
  6 88  1  0  0  0
  6 89  1  0  0  0
  7  8  2  0  0  0
  7 26  1  0  0  0
  7 29  1  0  0  0
  8  9  1  0  0  0
  8 22  1  0  0  0
  9 10  1  0  0  0
  9 27  2  0  0  0
 10 11  2  0  0  0
 10 15  1  0  0  0
 11 12  1  0  0  0
 11 90  1  0  0  0
 12 13  2  0  0  0
 12 91  1  0  0  0
 13 14  1  0  0  0
 13 31  1  0  0  0
 14 15  2  0  0  0
 14 92  1  0  0  0
 15 93  1  0  0  0
 16 17  2  0  0  0
 16 21  1  0  0  0
 16 31  1  0  0  0
 17 18  1  0  0  0
 17 94  1  0  0  0
 18 19  2  0  0  0
 18 95  1  0  0  0
 19 20  1  0  0  0
 19 24  1  0  0  0
 20 21  2  0  0  0
 20 96  1  0  0  0
 21 23  1  0  0  0
 22 28  1  0  0  0
 22 32  2  0  0  0
 26 27  1  0  0  0
 28 97  1  0  0  0
 28 98  1  0  0  0
 29 99  1  0  0  0
 29100  1  0  0  0
 33 34  1  0  0  0
 33 66  1  0  0  0
 33 70  2  0  0  0
 34 36  1  0  0  0
 34 59  1  0  0  0
 34101  1  0  0  0
 35 44  2  0  0  0
 35 45  1  0  0  0
 35 68  1  0  0  0
 36 56  1  0  0  0
 36102  1  0  0  0
 37 39  1  0  0  0
 37 47  1  0  0  0
 37 66  1  0  0  0
 37103  1  0  0  0
 38 43  2  0  0  0
 38 46  1  0  0  0
 38 47  1  0  0  0
 39 64  1  0  0  0
 39 67  2  0  0  0
 40 52  1  0  0  0
 40 53  2  0  0  0
 40 58  1  0  0  0
 41104  1  0  0  0
 41105  1  0  0  0
 41106  1  0  0  0
 41 48  1  0  0  0
 42 43  1  0  0  0
 42 66  1  0  0  0
 42107  1  0  0  0
 42108  1  0  0  0
 43 44  1  0  0  0
 44109  1  0  0  0
 45 46  2  0  0  0
 45110  1  0  0  0
 46111  1  0  0  0
 47112  1  0  0  0
 47113  1  0  0  0
 48 56  1  0  0  0
 48 65  1  0  0  0
 48114  1  0  0  0
 49 50  1  0  0  0
 49 53  1  0  0  0
 49 64  1  0  0  0
 49115  1  0  0  0
 50 51  1  0  0  0
 50116  1  0  0  0
 50117  1  0  0  0
 51 52  1  0  0  0
 51118  1  0  0  0
 51119  1  0  0  0
 52120  1  0  0  0
 52121  1  0  0  0
 53 54  1  0  0  0
 54 55  2  0  0  0
 54122  1  0  0  0
 55 57  1  0  0  0
 55123  1  0  0  0
 56 69  2  0  0  0
 57 58  2  0  0  0
 57124  1  0  0  0
 58125  1  0  0  0
 59 60  1  0  0  0
 59 61  1  0  0  0
 59 62  1  0  0  0
 60126  1  0  0  0
 60127  1  0  0  0
 60128  1  0  0  0
 61129  1  0  0  0
 61130  1  0  0  0
 61131  1  0  0  0
 62132  1  0  0  0
 62133  1  0  0  0
 62134  1  0  0  0
 63 65  1  0  0  0
 63135  1  0  0  0
 63136  1  0  0  0
 63137  1  0  0  0
 64138  1  0  0  0
 65139  1  0  0  0
 68 77  1  0  0  0
 71 76  1  0  0  0
 71 78  1  0  0  0
 71 80  2  0  0  0
 72 73  1  0  0  0
 72 74  1  0  0  0
 72140  1  0  0  0
 72141  1  0  0  0
 73 75  1  0  0  0
 73142  1  0  0  0
 73143  1  0  0  0
 74 75  1  0  0  0
 74 78  1  0  0  0
 74144  1  0  0  0
 75 79  1  0  0  0
 75145  1  0  0  0
 76 77  1  0  0  0
 76146  1  0  0  0
 76147  1  0  0  0
 77148  1  0  0  0
 77149  1  0  0  0
 78150  1  0  0  0
 79151  1  0  0  0
M  ISO  4   1 100  68 101  77 101  79 100
M  END
> <chiral flag>
0

> <version>
0

> <s_m_source_file>
/data/baiqing/PycharmProjects/Reinvent-master-3.2/result/LINK_invent/BTK/process_docking_weight1_custom_sum_contain_oxygen_bond_distance_aromatic_linkinvent_7_9_3/rearranged_h_0178.sdf

> <i_m_source_file_index>
77

> <r_mmod_Potential_Energy-OPLS-2005>
604.001892089844

> <r_mmod_Stretch_Energy-OPLS-2005>
313.52685546875

> <r_mmod_Bend_Energy-OPLS-2005>
335.402038574219

> <r_mmod_Torsional_Energy-OPLS-2005>
314.889007568359

> <r_mmod_Improper_Torsional_Energy-OPLS-2005>
3.51300477981567

> <r_mmod_Van_der_Waal_Energy-OPLS-2005>
108.501724243164

> <r_mmod_Electrostatic_Energy-OPLS-2005>
-428.146575927734

> <r_mmod_Solvation_Energy-OPLS-2005>
-254.493179321289

> <b_mmod_Minimization_Converged-OPLS-2005>
0

> <r_mmod_RMS_Derivative-OPLS-2005>
9.49557876586914

$$$$
78
                    3D
 Structure written by MMmdl.
158167  0  0  1  0            999 V2000
  -30.4255  -15.2794   20.4391 C   0  0  0  0  0  0
  -30.4339  -12.8255   19.5619 C   0  0  0  0  0  0
  -29.5453  -12.6243   18.3067 C   0  0  0  0  0  0
  -28.0922  -12.3313   18.7106 C   0  0  0  0  0  0
  -27.6100  -13.2815   19.8348 C   0  0  2  0  0  0
  -28.6352  -13.4443   20.9827 C   0  0  0  0  0  0
  -25.2379  -13.8259   20.5770 C   0  0  0  0  0  0
  -24.1741  -13.0449   20.9289 C   0  0  0  0  0  0
  -24.6355  -11.6905   20.8695 C   0  0  0  0  0  0
  -23.9048  -10.4286   21.0380 C   0  0  0  0  0  0
  -24.3619   -9.4234   21.9170 C   0  0  0  0  0  0
  -23.6290   -8.2276   22.0735 C   0  0  0  0  0  0
  -22.4283   -8.0260   21.3528 C   0  0  0  0  0  0
  -21.9917   -9.0202   20.4615 C   0  0  0  0  0  0
  -22.7202  -10.2102   20.3042 C   0  0  0  0  0  0
  -21.6895   -6.0722   22.5277 C   0  0  0  0  0  0
  -21.3977   -6.5629   23.8193 C   0  0  0  0  0  0
  -21.3702   -5.6798   24.9184 C   0  0  0  0  0  0
  -21.6079   -4.3057   24.7232 C   0  0  0  0  0  0
  -21.8819   -3.8149   23.4354 C   0  0  0  0  0  0
  -21.9215   -4.6948   22.3404 C   0  0  0  0  0  0
  -22.7763  -13.5172   21.1914 C   0  0  0  0  0  0
  -22.1700   -4.2166   21.0956 F   0  0  0  0  0  0
  -21.5652   -3.4504   25.7738 F   0  0  0  0  0  0
  -29.8789  -13.9600   20.3916 N   0  0  0  0  0  0
  -26.2772  -12.9488   20.3235 N   0  0  0  0  0  0
  -25.9312  -11.6595   20.5647 N   0  0  0  0  0  0
  -22.0472  -12.8097   22.0463 N   0  0  0  0  0  0
  -25.4099  -15.1980   20.4230 N   0  0  0  0  0  0
  -31.6279  -15.3052   20.1373 O   0  0  0  0  0  0
  -21.6686   -6.8842   21.4232 O   0  0  0  0  0  0
  -22.3462  -14.5504   20.6806 O   0  0  0  0  0  0
  -24.6630  -31.8222   23.1634 C   0  0  0  0  0  0
  -25.9314  -32.4581   23.8117 C   0  0  1  0  0  0
  -27.2265  -26.8948   20.2103 C   0  0  0  0  0  0
  -25.5986  -33.8396   24.2052 N   0  0  0  0  0  0
  -23.4749  -30.4222   21.5229 C   0  0  2  0  0  0
  -24.9291  -28.7956   20.1197 C   0  0  0  0  0  0
  -22.7643  -29.4386   22.4870 C   0  0  0  0  0  0
  -18.0309  -28.1375   22.8482 C   0  0  0  0  0  0
  -24.1498  -36.7204   23.2628 C   0  0  0  0  0  0
  -26.0424  -30.6141   21.3921 C   0  0  0  0  0  0
  -26.1121  -29.1943   20.7540 C   0  0  0  0  0  0
  -27.2548  -28.2689   20.7690 C   0  0  0  0  0  0
  -26.0103  -26.6474   19.5341 C   0  0  0  0  0  0
  -24.9049  -27.5389   19.4906 C   0  0  0  0  0  0
  -23.7125  -29.7246   20.1542 C   0  0  0  0  0  0
  -25.4147  -36.2974   24.0294 C   0  0  1  0  0  0
  -20.5905  -28.3725   23.1225 C   0  0  2  0  0  0
  -20.6780  -26.9416   22.5426 C   0  0  0  0  0  0
  -19.5766  -26.6368   21.5226 C   0  0  0  0  0  0
  -18.1950  -26.7926   22.1617 C   0  0  0  0  0  0
  -19.1565  -28.8889   23.2814 C   0  0  0  0  0  0
  -18.9465  -30.1480   23.8852 C   0  0  0  0  0  0
  -17.6449  -30.6565   24.0558 C   0  0  0  0  0  0
  -25.9131  -34.9349   23.5005 C   0  0  0  0  0  0
  -16.5350  -29.9047   23.6333 C   0  0  0  0  0  0
  -16.7292  -28.6462   23.0381 C   0  0  0  0  0  0
  -26.4570  -31.6464   25.0615 C   0  0  0  0  0  0
  -25.3687  -31.3706   26.1276 C   0  0  0  0  0  0
  -27.0415  -30.2817   24.6234 C   0  0  0  0  0  0
  -27.6071  -32.4246   25.7434 C   0  0  0  0  0  0
  -27.5605  -37.1760   24.8458 C   0  0  0  0  0  0
  -21.4330  -29.3007   22.3638 N   0  0  0  0  0  0
  -26.4289  -37.3716   23.9438 N   0  0  0  0  0  0
  -24.7510  -30.9802   22.0812 N   0  0  0  0  0  0
  -23.4217  -28.7985   23.3136 O   0  0  0  0  0  0
  -28.2542  -25.7989   20.2332 O   0  0  0  0  0  0
  -26.5764  -34.8905   22.4628 O   0  0  0  0  0  0
  -23.5721  -32.1251   23.6694 O   0  0  0  0  0  0
  -29.1217  -21.7884   22.4596 C   0  0  0  0  0  0
  -29.2309  -21.1586   23.7022 C   0  0  0  0  0  0
  -29.3487  -19.0346   22.5915 C   0  0  0  0  0  0
  -29.0707  -21.1682   21.1796 C   0  0  0  0  0  0
  -29.3227  -19.5762   21.2637 C   0  0  0  0  0  0
  -29.3134  -19.7772   23.7848 C   0  0  0  0  0  0
  -28.7269  -22.2492   18.6468 C   0  0  0  0  0  0
  -30.0442  -22.7339   19.1745 C   0  0  0  0  0  0
  -28.8673  -22.5823   20.1326 C   0  0  0  0  0  0
  -30.5059  -18.4043   25.3135 C   0  0  0  0  0  0
  -29.7192  -18.1837   20.3009 C   0  0  0  0  0  0
  -28.0633  -24.1703   20.5416 C   0  0  0  0  0  0
  -29.6506  -16.5320   20.6410 N   0  0  0  0  0  0
  -29.3741  -19.2200   25.0443 O   0  0  0  0  0  0
  -31.4565  -13.0329   19.2474 H   0  0  0  0  0  0
  -30.4889  -11.9053   20.1399 H   0  0  0  0  0  0
  -29.9348  -11.8212   17.6794 H   0  0  0  0  0  0
  -29.5822  -13.5283   17.6979 H   0  0  0  0  0  0
  -28.0416  -11.2947   19.0530 H   0  0  0  0  0  0
  -27.4324  -12.4084   17.8442 H   0  0  0  0  0  0
  -27.5160  -14.2525   19.3471 H   0  0  0  0  0  0
  -28.8001  -12.5048   21.5101 H   0  0  0  0  0  0
  -28.2556  -14.1470   21.7256 H   0  0  0  0  0  0
  -25.2786   -9.5769   22.4724 H   0  0  0  0  0  0
  -24.0079   -7.4682   22.7395 H   0  0  0  0  0  0
  -21.0900   -8.8645   19.8852 H   0  0  0  0  0  0
  -22.3663  -10.9611   19.6126 H   0  0  0  0  0  0
  -21.1961   -7.6129   23.9681 H   0  0  0  0  0  0
  -21.1506   -6.0540   25.9076 H   0  0  0  0  0  0
  -22.0585   -2.7597   23.2848 H   0  0  0  0  0  0
  -22.4118  -11.9781   22.4895 H   0  0  0  0  0  0
  -21.1029  -13.0987   22.2536 H   0  0  0  0  0  0
  -24.6470  -15.8564   20.5216 H   0  0  0  0  0  0
  -26.2450  -15.6150   20.0312 H   0  0  0  0  0  0
  -26.7383  -32.5111   23.0840 H   0  0  0  0  0  0
  -25.0095  -33.9495   25.0173 H   0  0  0  0  0  0
  -22.7837  -31.2521   21.3523 H   0  0  0  0  0  0
  -23.3798  -35.9484   23.3214 H   0  0  0  0  0  0
  -24.3539  -36.8942   22.2043 H   0  0  0  0  0  0
  -23.7188  -37.6350   23.6730 H   0  0  0  0  0  0
  -26.2035  -31.3327   20.5891 H   0  0  0  0  0  0
  -26.9134  -30.6898   22.0303 H   0  0  0  0  0  0
  -28.1497  -28.5774   21.2897 H   0  0  0  0  0  0
  -25.8857  -25.6891   19.0467 H   0  0  0  0  0  0
  -24.0058  -27.2230   18.9789 H   0  0  0  0  0  0
  -23.8605  -30.4918   19.3937 H   0  0  0  0  0  0
  -22.8190  -29.1796   19.8402 H   0  0  0  0  0  0
  -25.1319  -36.1795   25.0769 H   0  0  0  0  0  0
  -20.9953  -28.3330   24.1348 H   0  0  0  0  0  0
  -20.5640  -26.2368   23.3668 H   0  0  0  0  0  0
  -21.6657  -26.7391   22.1244 H   0  0  0  0  0  0
  -19.6930  -25.6271   21.1275 H   0  0  0  0  0  0
  -19.6688  -27.3167   20.6743 H   0  0  0  0  0  0
  -17.4216  -26.6673   21.3997 H   0  0  0  0  0  0
  -18.0316  -26.0048   22.8989 H   0  0  0  0  0  0
  -19.7964  -30.7300   24.2198 H   0  0  0  0  0  0
  -17.5018  -31.6254   24.5160 H   0  0  0  0  0  0
  -15.5357  -30.2947   23.7653 H   0  0  0  0  0  0
  -15.8706  -28.0743   22.7164 H   0  0  0  0  0  0
  -24.5949  -30.6955   25.7607 H   0  0  0  0  0  0
  -24.8792  -32.2893   26.4487 H   0  0  0  0  0  0
  -25.7921  -30.9056   27.0182 H   0  0  0  0  0  0
  -26.3012  -29.6566   24.1222 H   0  0  0  0  0  0
  -27.3999  -29.7069   25.4783 H   0  0  0  0  0  0
  -27.8952  -30.4020   23.9561 H   0  0  0  0  0  0
  -27.2629  -33.3585   26.1883 H   0  0  0  0  0  0
  -28.3939  -32.6731   25.0300 H   0  0  0  0  0  0
  -28.0665  -31.8453   26.5456 H   0  0  0  0  0  0
  -28.2556  -38.0130   24.7594 H   0  0  0  0  0  0
  -28.1203  -36.2660   24.6187 H   0  0  0  0  0  0
  -27.2354  -37.1273   25.8873 H   0  0  0  0  0  0
  -20.9642  -29.8740   21.6768 H   0  0  0  0  0  0
  -26.0160  -38.2788   24.1471 H   0  0  0  0  0  0
  -29.1263  -22.8582   22.5395 H   0  0  0  0  0  0
  -29.2704  -21.7493   24.6093 H   0  0  0  0  0  0
  -29.4520  -17.9678   22.7265 H   0  0  0  0  0  0
  -28.6546  -21.2042   18.3483 H   0  0  0  0  0  0
  -28.1812  -22.9352   18.0009 H   0  0  0  0  0  0
  -30.3579  -23.7461   18.9189 H   0  0  0  0  0  0
  -30.8448  -21.9910   19.1875 H   0  0  0  0  0  0
  -30.7230  -18.4235   26.3860 H   0  0  0  0  0  0
  -31.4073  -18.7591   24.8082 H   0  0  0  0  0  0
  -30.3236  -17.3653   25.0386 H   0  0  0  0  0  0
  -30.7588  -18.3393   20.0040 H   0  0  0  0  0  0
  -29.1501  -18.3017   19.3794 H   0  0  0  0  0  0
  -27.9935  -24.2069   21.6235 H   0  0  0  0  0  0
  -27.0257  -23.9890   20.2694 H   0  0  0  0  0  0
  -28.7220  -16.2907   20.9597 H   0  0  0  0  0  0
  1 25  1  0  0  0
  1 30  2  0  0  0
  1 83  1  0  0  0
  2  3  1  0  0  0
  2 25  1  0  0  0
  2 85  1  0  0  0
  2 86  1  0  0  0
  3  4  1  0  0  0
  3 87  1  0  0  0
  3 88  1  0  0  0
  4  5  1  0  0  0
  4 89  1  0  0  0
  4 90  1  0  0  0
  5  6  1  0  0  0
  5 26  1  0  0  0
  5 91  1  0  0  0
  6 25  1  0  0  0
  6 92  1  0  0  0
  6 93  1  0  0  0
  7  8  2  0  0  0
  7 26  1  0  0  0
  7 29  1  0  0  0
  8  9  1  0  0  0
  8 22  1  0  0  0
  9 10  1  0  0  0
  9 27  2  0  0  0
 10 11  2  0  0  0
 10 15  1  0  0  0
 11 12  1  0  0  0
 11 94  1  0  0  0
 12 13  2  0  0  0
 12 95  1  0  0  0
 13 14  1  0  0  0
 13 31  1  0  0  0
 14 15  2  0  0  0
 14 96  1  0  0  0
 15 97  1  0  0  0
 16 17  2  0  0  0
 16 21  1  0  0  0
 16 31  1  0  0  0
 17 18  1  0  0  0
 17 98  1  0  0  0
 18 19  2  0  0  0
 18 99  1  0  0  0
 19 20  1  0  0  0
 19 24  1  0  0  0
 20 21  2  0  0  0
 20100  1  0  0  0
 21 23  1  0  0  0
 22 28  1  0  0  0
 22 32  2  0  0  0
 26 27  1  0  0  0
 28101  1  0  0  0
 28102  1  0  0  0
 29103  1  0  0  0
 29104  1  0  0  0
 33 34  1  0  0  0
 33 66  1  0  0  0
 33 70  2  0  0  0
 34 36  1  0  0  0
 34 59  1  0  0  0
 34105  1  0  0  0
 35 44  2  0  0  0
 35 45  1  0  0  0
 35 68  1  0  0  0
 36 56  1  0  0  0
 36106  1  0  0  0
 37 39  1  0  0  0
 37 47  1  0  0  0
 37 66  1  0  0  0
 37107  1  0  0  0
 38 43  2  0  0  0
 38 46  1  0  0  0
 38 47  1  0  0  0
 39 64  1  0  0  0
 39 67  2  0  0  0
 40 52  1  0  0  0
 40 53  2  0  0  0
 40 58  1  0  0  0
 41108  1  0  0  0
 41109  1  0  0  0
 41110  1  0  0  0
 41 48  1  0  0  0
 42 43  1  0  0  0
 42 66  1  0  0  0
 42111  1  0  0  0
 42112  1  0  0  0
 43 44  1  0  0  0
 44113  1  0  0  0
 45 46  2  0  0  0
 45114  1  0  0  0
 46115  1  0  0  0
 47116  1  0  0  0
 47117  1  0  0  0
 48 56  1  0  0  0
 48 65  1  0  0  0
 48118  1  0  0  0
 49 50  1  0  0  0
 49 53  1  0  0  0
 49 64  1  0  0  0
 49119  1  0  0  0
 50 51  1  0  0  0
 50120  1  0  0  0
 50121  1  0  0  0
 51 52  1  0  0  0
 51122  1  0  0  0
 51123  1  0  0  0
 52124  1  0  0  0
 52125  1  0  0  0
 53 54  1  0  0  0
 54 55  2  0  0  0
 54126  1  0  0  0
 55 57  1  0  0  0
 55127  1  0  0  0
 56 69  2  0  0  0
 57 58  2  0  0  0
 57128  1  0  0  0
 58129  1  0  0  0
 59 60  1  0  0  0
 59 61  1  0  0  0
 59 62  1  0  0  0
 60130  1  0  0  0
 60131  1  0  0  0
 60132  1  0  0  0
 61133  1  0  0  0
 61134  1  0  0  0
 61135  1  0  0  0
 62136  1  0  0  0
 62137  1  0  0  0
 62138  1  0  0  0
 63 65  1  0  0  0
 63139  1  0  0  0
 63140  1  0  0  0
 63141  1  0  0  0
 64142  1  0  0  0
 65143  1  0  0  0
 68 82  1  0  0  0
 71 72  2  0  0  0
 71 74  1  0  0  0
 71144  1  0  0  0
 72 76  1  0  0  0
 72145  1  0  0  0
 73 75  1  0  0  0
 73 76  2  0  0  0
 73146  1  0  0  0
 74 75  2  0  0  0
 74 79  1  0  0  0
 75 81  1  0  0  0
 76 84  1  0  0  0
 77 78  1  0  0  0
 77 79  1  0  0  0
 77147  1  0  0  0
 77148  1  0  0  0
 78 79  1  0  0  0
 78149  1  0  0  0
 78150  1  0  0  0
 79 82  1  0  0  0
 80 84  1  0  0  0
 80151  1  0  0  0
 80152  1  0  0  0
 80153  1  0  0  0
 81 83  1  0  0  0
 81154  1  0  0  0
 81155  1  0  0  0
 82156  1  0  0  0
 82157  1  0  0  0
 83158  1  0  0  0
M  ISO  4   1 100  68 101  82 101  83 100
M  END
> <chiral flag>
0

> <version>
0

> <s_m_source_file>
/data/baiqing/PycharmProjects/Reinvent-master-3.2/result/LINK_invent/BTK/process_docking_weight1_custom_sum_contain_oxygen_bond_distance_aromatic_linkinvent_7_9_3/rearranged_h_0178.sdf

> <i_m_source_file_index>
78

> <r_mmod_Potential_Energy-OPLS-2005>
1534.12744140625

> <r_mmod_Stretch_Energy-OPLS-2005>
711.144897460938

> <r_mmod_Bend_Energy-OPLS-2005>
546.152221679688

> <r_mmod_Torsional_Energy-OPLS-2005>
286.390197753906

> <r_mmod_Improper_Torsional_Energy-OPLS-2005>
5.19082355499268

> <r_mmod_Van_der_Waal_Energy-OPLS-2005>
129.419906616211

> <r_mmod_Electrostatic_Energy-OPLS-2005>
-405.934814453125

> <r_mmod_Solvation_Energy-OPLS-2005>
-218.873580932617

> <b_mmod_Minimization_Converged-OPLS-2005>
0

> <r_mmod_RMS_Derivative-OPLS-2005>
7.45680570602417

$$$$
79
                    3D
 Structure written by MMmdl.
152161  0  0  1  0            999 V2000
  -30.4957  -15.0344   20.4072 C   0  0  0  0  0  0
  -30.4369  -12.6456   19.5049 C   0  0  0  0  0  0
  -29.5235  -12.5398   18.2607 C   0  0  0  0  0  0
  -28.0584  -12.3101   18.6770 C   0  0  0  0  0  0
  -27.6204  -13.2522   19.8292 C   0  0  2  0  0  0
  -28.6589  -13.3136   20.9680 C   0  0  0  0  0  0
  -25.2424  -13.8213   20.5701 C   0  0  0  0  0  0
  -24.1756  -13.0430   20.9226 C   0  0  0  0  0  0
  -24.6374  -11.6915   20.8738 C   0  0  0  0  0  0
  -23.9069  -10.4283   21.0393 C   0  0  0  0  0  0
  -24.3620   -9.4204   21.9175 C   0  0  0  0  0  0
  -23.6294   -8.2243   22.0754 C   0  0  0  0  0  0
  -22.4277   -8.0275   21.3544 C   0  0  0  0  0  0
  -21.9910   -9.0244   20.4645 C   0  0  0  0  0  0
  -22.7241  -10.2123   20.3049 C   0  0  0  0  0  0
  -21.6855   -6.0729   22.5280 C   0  0  0  0  0  0
  -21.4016   -6.5637   23.8209 C   0  0  0  0  0  0
  -21.3657   -5.6789   24.9175 C   0  0  0  0  0  0
  -21.6047   -4.3056   24.7224 C   0  0  0  0  0  0
  -21.8821   -3.8142   23.4348 C   0  0  0  0  0  0
  -21.9195   -4.6954   22.3405 C   0  0  0  0  0  0
  -22.7777  -13.5203   21.1879 C   0  0  0  0  0  0
  -22.1663   -4.2139   21.0981 F   0  0  0  0  0  0
  -21.5628   -3.4538   25.7737 F   0  0  0  0  0  0
  -29.9202  -13.7565   20.3622 N   0  0  0  0  0  0
  -26.2833  -12.9445   20.3194 N   0  0  0  0  0  0
  -25.9302  -11.6573   20.5707 N   0  0  0  0  0  0
  -22.0435  -12.8183   22.0433 N   0  0  0  0  0  0
  -25.4064  -15.1948   20.4126 N   0  0  0  0  0  0
  -31.7082  -15.0871   20.1667 O   0  0  0  0  0  0
  -21.6647   -6.8871   21.4241 O   0  0  0  0  0  0
  -22.3461  -14.5506   20.6727 O   0  0  0  0  0  0
  -24.6488  -31.8373   23.1804 C   0  0  0  0  0  0
  -25.9250  -32.4633   23.8213 C   0  0  1  0  0  0
  -27.2205  -27.0684   20.1765 C   0  0  0  0  0  0
  -25.5982  -33.8443   24.2141 N   0  0  0  0  0  0
  -23.4539  -30.4503   21.5284 C   0  0  2  0  0  0
  -24.9023  -28.8534   20.1177 C   0  0  0  0  0  0
  -22.7589  -29.4516   22.4866 C   0  0  0  0  0  0
  -18.0309  -28.1397   22.8467 C   0  0  0  0  0  0
  -24.1494  -36.7224   23.2636 C   0  0  0  0  0  0
  -26.0107  -30.6875   21.3887 C   0  0  0  0  0  0
  -26.0781  -29.2885   20.7408 C   0  0  0  0  0  0
  -27.2334  -28.4133   20.7479 C   0  0  0  0  0  0
  -26.0178  -26.7415   19.5136 C   0  0  0  0  0  0
  -24.8877  -27.5962   19.4888 C   0  0  0  0  0  0
  -23.6824  -29.7660   20.1528 C   0  0  0  0  0  0
  -25.4131  -36.2994   24.0301 C   0  0  1  0  0  0
  -20.5921  -28.3730   23.1224 C   0  0  2  0  0  0
  -20.6781  -26.9425   22.5409 C   0  0  0  0  0  0
  -19.5760  -26.6385   21.5208 C   0  0  0  0  0  0
  -18.1947  -26.7931   22.1624 C   0  0  0  0  0  0
  -19.1565  -28.8884   23.2831 C   0  0  0  0  0  0
  -18.9478  -30.1482   23.8849 C   0  0  0  0  0  0
  -17.6470  -30.6583   24.0561 C   0  0  0  0  0  0
  -25.9092  -34.9371   23.5040 C   0  0  0  0  0  0
  -16.5360  -29.9076   23.6340 C   0  0  0  0  0  0
  -16.7295  -28.6511   23.0341 C   0  0  0  0  0  0
  -26.4558  -31.6512   25.0676 C   0  0  0  0  0  0
  -25.3721  -31.3751   26.1362 C   0  0  0  0  0  0
  -27.0401  -30.2873   24.6312 C   0  0  0  0  0  0
  -27.6089  -32.4269   25.7471 C   0  0  0  0  0  0
  -27.5580  -37.1765   24.8466 C   0  0  0  0  0  0
  -21.4283  -29.3036   22.3589 N   0  0  0  0  0  0
  -26.4289  -37.3714   23.9401 N   0  0  0  0  0  0
  -24.7244  -31.0164   22.0871 N   0  0  0  0  0  0
  -23.4202  -28.8109   23.3072 O   0  0  0  0  0  0
  -28.3328  -26.1311   20.1769 O   0  0  0  0  0  0
  -26.5697  -34.8894   22.4626 O   0  0  0  0  0  0
  -23.5596  -32.1295   23.6992 O   0  0  0  0  0  0
  -27.9543  -22.4621   21.0215 C   0  0  0  0  0  0
  -28.9600  -21.7374   20.2719 C   0  0  0  0  0  0
  -29.6009  -22.7169   19.4349 C   0  0  0  0  0  0
  -28.3497  -24.6712   20.1247 C   0  0  0  0  0  0
  -29.2348  -18.8896   21.4200 C   0  0  0  0  0  0
  -29.4385  -18.8435   19.4064 C   0  0  0  0  0  0
  -29.4750  -20.1215   20.4002 C   0  0  1  0  0  0
  -30.0215  -17.8149   20.5027 C   0  0  2  0  0  0
  -30.7366  -22.2847   18.5276 C   0  0  0  0  0  0
  -27.6748  -23.8430   20.9618 N   0  0  0  0  0  0
  -29.3187  -24.0813   19.3885 N   0  0  0  0  0  0
  -29.7047  -16.2356   20.5220 N   0  0  0  0  0  0
  -31.4675  -12.8190   19.1921 H   0  0  0  0  0  0
  -30.4500  -11.7050   20.0579 H   0  0  0  0  0  0
  -29.8608  -11.7328   17.6088 H   0  0  0  0  0  0
  -29.5969  -13.4582   17.6757 H   0  0  0  0  0  0
  -27.9656  -11.2704   18.9940 H   0  0  0  0  0  0
  -27.3971  -12.4256   17.8175 H   0  0  0  0  0  0
  -27.5720  -14.2470   19.3849 H   0  0  0  0  0  0
  -28.7686  -12.3439   21.4566 H   0  0  0  0  0  0
  -28.3409  -14.0168   21.7395 H   0  0  0  0  0  0
  -25.2763   -9.5683   22.4748 H   0  0  0  0  0  0
  -23.9997   -7.4641   22.7481 H   0  0  0  0  0  0
  -21.0843   -8.8764   19.8950 H   0  0  0  0  0  0
  -22.3700  -10.9657   19.6156 H   0  0  0  0  0  0
  -21.2016   -7.6146   23.9714 H   0  0  0  0  0  0
  -21.1478   -6.0521   25.9076 H   0  0  0  0  0  0
  -22.0606   -2.7600   23.2857 H   0  0  0  0  0  0
  -22.4068  -11.9850   22.4814 H   0  0  0  0  0  0
  -21.1048  -13.1188   22.2639 H   0  0  0  0  0  0
  -24.6302  -15.8385   20.5221 H   0  0  0  0  0  0
  -26.2405  -15.6402   20.0532 H   0  0  0  0  0  0
  -26.7307  -32.5217   23.0925 H   0  0  0  0  0  0
  -25.0071  -33.9524   25.0252 H   0  0  0  0  0  0
  -22.7594  -31.2774   21.3667 H   0  0  0  0  0  0
  -23.3749  -35.9567   23.3317 H   0  0  0  0  0  0
  -24.3571  -36.8830   22.2047 H   0  0  0  0  0  0
  -23.7265  -37.6427   23.6668 H   0  0  0  0  0  0
  -26.1706  -31.4335   20.6090 H   0  0  0  0  0  0
  -26.8788  -30.7433   22.0338 H   0  0  0  0  0  0
  -28.1374  -28.7538   21.2332 H   0  0  0  0  0  0
  -25.9353  -25.7797   19.0267 H   0  0  0  0  0  0
  -23.9894  -27.2596   18.9886 H   0  0  0  0  0  0
  -23.8226  -30.5338   19.3911 H   0  0  0  0  0  0
  -22.7944  -29.2096   19.8475 H   0  0  0  0  0  0
  -25.1313  -36.1809   25.0788 H   0  0  0  0  0  0
  -20.9991  -28.3331   24.1354 H   0  0  0  0  0  0
  -20.5657  -26.2347   23.3636 H   0  0  0  0  0  0
  -21.6653  -26.7420   22.1217 H   0  0  0  0  0  0
  -19.6929  -25.6301   21.1232 H   0  0  0  0  0  0
  -19.6691  -27.3198   20.6743 H   0  0  0  0  0  0
  -17.4206  -26.6659   21.4040 H   0  0  0  0  0  0
  -18.0373  -26.0083   22.9039 H   0  0  0  0  0  0
  -19.7951  -30.7318   24.2192 H   0  0  0  0  0  0
  -17.5014  -31.6249   24.5189 H   0  0  0  0  0  0
  -15.5357  -30.2950   23.7695 H   0  0  0  0  0  0
  -15.8705  -28.0819   22.7055 H   0  0  0  0  0  0
  -24.5929  -30.7057   25.7704 H   0  0  0  0  0  0
  -24.8883  -32.2943   26.4667 H   0  0  0  0  0  0
  -25.7983  -30.9020   27.0214 H   0  0  0  0  0  0
  -26.3022  -29.6576   24.1320 H   0  0  0  0  0  0
  -27.3961  -29.7200   25.4924 H   0  0  0  0  0  0
  -27.8961  -30.4046   23.9661 H   0  0  0  0  0  0
  -27.2707  -33.3618   26.1952 H   0  0  0  0  0  0
  -28.3968  -32.6723   25.0338 H   0  0  0  0  0  0
  -28.0671  -31.8428   26.5461 H   0  0  0  0  0  0
  -28.2582  -38.0074   24.7503 H   0  0  0  0  0  0
  -28.1086  -36.2600   24.6302 H   0  0  0  0  0  0
  -27.2293  -37.1409   25.8866 H   0  0  0  0  0  0
  -20.9535  -29.8676   21.6678 H   0  0  0  0  0  0
  -26.0150  -38.2771   24.1407 H   0  0  0  0  0  0
  -27.3619  -21.9190   21.7430 H   0  0  0  0  0  0
  -28.1769  -18.6466   21.5485 H   0  0  0  0  0  0
  -29.6910  -19.0394   22.3992 H   0  0  0  0  0  0
  -30.0775  -18.9517   18.5293 H   0  0  0  0  0  0
  -28.4233  -18.5947   19.0863 H   0  0  0  0  0  0
  -30.5393  -20.3261   20.5273 H   0  0  0  0  0  0
  -31.0960  -17.9799   20.6073 H   0  0  0  0  0  0
  -31.6223  -22.0422   19.1150 H   0  0  0  0  0  0
  -31.0059  -23.0689   17.8200 H   0  0  0  0  0  0
  -30.4542  -21.4035   17.9521 H   0  0  0  0  0  0
  -28.7254  -16.0274   20.6526 H   0  0  0  0  0  0
  1 25  1  0  0  0
  1 30  2  0  0  0
  1 82  1  0  0  0
  2  3  1  0  0  0
  2 25  1  0  0  0
  2 83  1  0  0  0
  2 84  1  0  0  0
  3  4  1  0  0  0
  3 85  1  0  0  0
  3 86  1  0  0  0
  4  5  1  0  0  0
  4 87  1  0  0  0
  4 88  1  0  0  0
  5  6  1  0  0  0
  5 26  1  0  0  0
  5 89  1  0  0  0
  6 25  1  0  0  0
  6 90  1  0  0  0
  6 91  1  0  0  0
  7  8  2  0  0  0
  7 26  1  0  0  0
  7 29  1  0  0  0
  8  9  1  0  0  0
  8 22  1  0  0  0
  9 10  1  0  0  0
  9 27  2  0  0  0
 10 11  2  0  0  0
 10 15  1  0  0  0
 11 12  1  0  0  0
 11 92  1  0  0  0
 12 13  2  0  0  0
 12 93  1  0  0  0
 13 14  1  0  0  0
 13 31  1  0  0  0
 14 15  2  0  0  0
 14 94  1  0  0  0
 15 95  1  0  0  0
 16 17  2  0  0  0
 16 21  1  0  0  0
 16 31  1  0  0  0
 17 18  1  0  0  0
 17 96  1  0  0  0
 18 19  2  0  0  0
 18 97  1  0  0  0
 19 20  1  0  0  0
 19 24  1  0  0  0
 20 21  2  0  0  0
 20 98  1  0  0  0
 21 23  1  0  0  0
 22 28  1  0  0  0
 22 32  2  0  0  0
 26 27  1  0  0  0
 28 99  1  0  0  0
 28100  1  0  0  0
 29101  1  0  0  0
 29102  1  0  0  0
 33 34  1  0  0  0
 33 66  1  0  0  0
 33 70  2  0  0  0
 34 36  1  0  0  0
 34 59  1  0  0  0
 34103  1  0  0  0
 35 44  2  0  0  0
 35 45  1  0  0  0
 35 68  1  0  0  0
 36 56  1  0  0  0
 36104  1  0  0  0
 37 39  1  0  0  0
 37 47  1  0  0  0
 37 66  1  0  0  0
 37105  1  0  0  0
 38 43  2  0  0  0
 38 46  1  0  0  0
 38 47  1  0  0  0
 39 64  1  0  0  0
 39 67  2  0  0  0
 40 52  1  0  0  0
 40 53  2  0  0  0
 40 58  1  0  0  0
 41106  1  0  0  0
 41107  1  0  0  0
 41108  1  0  0  0
 41 48  1  0  0  0
 42 43  1  0  0  0
 42 66  1  0  0  0
 42109  1  0  0  0
 42110  1  0  0  0
 43 44  1  0  0  0
 44111  1  0  0  0
 45 46  2  0  0  0
 45112  1  0  0  0
 46113  1  0  0  0
 47114  1  0  0  0
 47115  1  0  0  0
 48 56  1  0  0  0
 48 65  1  0  0  0
 48116  1  0  0  0
 49 50  1  0  0  0
 49 53  1  0  0  0
 49 64  1  0  0  0
 49117  1  0  0  0
 50 51  1  0  0  0
 50118  1  0  0  0
 50119  1  0  0  0
 51 52  1  0  0  0
 51120  1  0  0  0
 51121  1  0  0  0
 52122  1  0  0  0
 52123  1  0  0  0
 53 54  1  0  0  0
 54 55  2  0  0  0
 54124  1  0  0  0
 55 57  1  0  0  0
 55125  1  0  0  0
 56 69  2  0  0  0
 57 58  2  0  0  0
 57126  1  0  0  0
 58127  1  0  0  0
 59 60  1  0  0  0
 59 61  1  0  0  0
 59 62  1  0  0  0
 60128  1  0  0  0
 60129  1  0  0  0
 60130  1  0  0  0
 61131  1  0  0  0
 61132  1  0  0  0
 61133  1  0  0  0
 62134  1  0  0  0
 62135  1  0  0  0
 62136  1  0  0  0
 63 65  1  0  0  0
 63137  1  0  0  0
 63138  1  0  0  0
 63139  1  0  0  0
 64140  1  0  0  0
 65141  1  0  0  0
 68 74  1  0  0  0
 71 72  2  0  0  0
 71 80  1  0  0  0
 71142  1  0  0  0
 72 73  1  0  0  0
 72 77  1  0  0  0
 73 79  1  0  0  0
 73 81  2  0  0  0
 74 80  2  0  0  0
 74 81  1  0  0  0
 75 77  1  0  0  0
 75 78  1  0  0  0
 75143  1  0  0  0
 75144  1  0  0  0
 76 77  1  0  0  0
 76 78  1  0  0  0
 76145  1  0  0  0
 76146  1  0  0  0
 77147  1  0  0  0
 78 82  1  0  0  0
 78148  1  0  0  0
 79149  1  0  0  0
 79150  1  0  0  0
 79151  1  0  0  0
 82152  1  0  0  0
M  ISO  4   1 100  68 101  74 101  82 100
M  END
> <chiral flag>
0

> <version>
0

> <s_m_source_file>
/data/baiqing/PycharmProjects/Reinvent-master-3.2/result/LINK_invent/BTK/process_docking_weight1_custom_sum_contain_oxygen_bond_distance_aromatic_linkinvent_7_9_3/rearranged_h_0178.sdf

> <i_m_source_file_index>
79

> <r_mmod_Potential_Energy-OPLS-2005>
312.879608154297

> <r_mmod_Stretch_Energy-OPLS-2005>
273.639434814453

> <r_mmod_Bend_Energy-OPLS-2005>
355.752563476562

> <r_mmod_Torsional_Energy-OPLS-2005>
224.790649414062

> <r_mmod_Improper_Torsional_Energy-OPLS-2005>
6.64110898971558

> <r_mmod_Van_der_Waal_Energy-OPLS-2005>
133.922988891602

> <r_mmod_Electrostatic_Energy-OPLS-2005>
-695.544677734375

> <r_mmod_Solvation_Energy-OPLS-2005>
-231.124649047852

> <b_mmod_Minimization_Converged-OPLS-2005>
0

> <r_mmod_RMS_Derivative-OPLS-2005>
1.65492832660675

$$$$
80
                    3D
 Structure written by MMmdl.
170179  0  0  1  0            999 V2000
  -30.5573  -15.0004   20.3853 C   0  0  0  0  0  0
  -30.4309  -12.6299   19.4775 C   0  0  0  0  0  0
  -29.5103  -12.5193   18.2430 C   0  0  0  0  0  0
  -28.0501  -12.2951   18.6774 C   0  0  0  0  0  0
  -27.6197  -13.2439   19.8260 C   0  0  2  0  0  0
  -28.6697  -13.3393   20.9496 C   0  0  0  0  0  0
  -25.2464  -13.8205   20.5753 C   0  0  0  0  0  0
  -24.1770  -13.0433   20.9239 C   0  0  0  0  0  0
  -24.6379  -11.6917   20.8764 C   0  0  0  0  0  0
  -23.9066  -10.4290   21.0414 C   0  0  0  0  0  0
  -24.3618   -9.4205   21.9190 C   0  0  0  0  0  0
  -23.6293   -8.2239   22.0755 C   0  0  0  0  0  0
  -22.4275   -8.0278   21.3543 C   0  0  0  0  0  0
  -21.9912   -9.0255   20.4648 C   0  0  0  0  0  0
  -22.7240  -10.2134   20.3063 C   0  0  0  0  0  0
  -21.6855   -6.0732   22.5279 C   0  0  0  0  0  0
  -21.4015   -6.5637   23.8212 C   0  0  0  0  0  0
  -21.3660   -5.6791   24.9175 C   0  0  0  0  0  0
  -21.6047   -4.3054   24.7227 C   0  0  0  0  0  0
  -21.8819   -3.8145   23.4348 C   0  0  0  0  0  0
  -21.9194   -4.6960   22.3403 C   0  0  0  0  0  0
  -22.7795  -13.5213   21.1887 C   0  0  0  0  0  0
  -22.1662   -4.2147   21.0980 F   0  0  0  0  0  0
  -21.5630   -3.4538   25.7738 F   0  0  0  0  0  0
  -29.9201  -13.7596   20.3074 N   0  0  0  0  0  0
  -26.2859  -12.9417   20.3258 N   0  0  0  0  0  0
  -25.9308  -11.6554   20.5755 N   0  0  0  0  0  0
  -22.0443  -12.8200   22.0442 N   0  0  0  0  0  0
  -25.4164  -15.1931   20.4227 N   0  0  0  0  0  0
  -31.7918  -14.9587   20.3016 O   0  0  0  0  0  0
  -21.6639   -6.8876   21.4241 O   0  0  0  0  0  0
  -22.3478  -14.5513   20.6726 O   0  0  0  0  0  0
  -24.6455  -31.8419   23.1849 C   0  0  0  0  0  0
  -25.9217  -32.4683   23.8252 C   0  0  1  0  0  0
  -27.2168  -27.1130   20.1664 C   0  0  0  0  0  0
  -25.5959  -33.8489   24.2171 N   0  0  0  0  0  0
  -23.4505  -30.4587   21.5314 C   0  0  2  0  0  0
  -24.9002  -28.8753   20.1163 C   0  0  0  0  0  0
  -22.7579  -29.4537   22.4856 C   0  0  0  0  0  0
  -18.0307  -28.1396   22.8477 C   0  0  0  0  0  0
  -24.1492  -36.7249   23.2643 C   0  0  0  0  0  0
  -26.0073  -30.7092   21.3854 C   0  0  0  0  0  0
  -26.0792  -29.3158   20.7322 C   0  0  0  0  0  0
  -27.2423  -28.4535   20.7326 C   0  0  0  0  0  0
  -26.0117  -26.7722   19.5196 C   0  0  0  0  0  0
  -24.8801  -27.6176   19.4930 C   0  0  0  0  0  0
  -23.6789  -29.7823   20.1533 C   0  0  0  0  0  0
  -25.4124  -36.3024   24.0313 C   0  0  1  0  0  0
  -20.5922  -28.3726   23.1231 C   0  0  2  0  0  0
  -20.6793  -26.9429   22.5403 C   0  0  0  0  0  0
  -19.5765  -26.6381   21.5214 C   0  0  0  0  0  0
  -18.1946  -26.7935   22.1624 C   0  0  0  0  0  0
  -19.1564  -28.8880   23.2846 C   0  0  0  0  0  0
  -18.9479  -30.1475   23.8872 C   0  0  0  0  0  0
  -17.6475  -30.6592   24.0558 C   0  0  0  0  0  0
  -25.9076  -34.9401   23.5051 C   0  0  0  0  0  0
  -16.5366  -29.9084   23.6336 C   0  0  0  0  0  0
  -16.7293  -28.6503   23.0357 C   0  0  0  0  0  0
  -26.4531  -31.6559   25.0703 C   0  0  0  0  0  0
  -25.3710  -31.3754   26.1393 C   0  0  0  0  0  0
  -27.0402  -30.2954   24.6299 C   0  0  0  0  0  0
  -27.6053  -32.4332   25.7495 C   0  0  0  0  0  0
  -27.5572  -37.1782   24.8465 C   0  0  0  0  0  0
  -21.4270  -29.3049   22.3603 N   0  0  0  0  0  0
  -26.4286  -37.3738   23.9405 N   0  0  0  0  0  0
  -24.7211  -31.0255   22.0891 N   0  0  0  0  0  0
  -23.4209  -28.8095   23.3023 O   0  0  0  0  0  0
  -28.2707  -26.1239   20.1644 O   0  0  0  0  0  0
  -26.5669  -34.8905   22.4633 O   0  0  0  0  0  0
  -23.5569  -32.1305   23.7057 O   0  0  0  0  0  0
  -28.8317  -21.9252   20.3426 C   0  0  0  0  0  0
  -28.4492  -23.2483   19.9267 C   0  0  0  0  0  0
  -27.6874  -20.3897   18.6842 C   0  0  0  0  0  0
  -27.2523  -18.9443   18.4360 C   0  0  0  0  0  0
  -29.4762  -17.6061   20.6448 C   0  0  0  0  0  0
  -30.3377  -16.7419   18.6925 C   0  0  0  0  0  0
  -29.7315  -18.9682   19.6950 C   0  0  1  0  0  0
  -29.6892  -18.1230   18.3783 C   0  0  2  0  0  0
  -29.0483  -20.5651   19.4094 C   0  0  2  0  0  0
  -28.2723  -18.0699   17.6667 C   0  0  1  0  0  0
  -30.0698  -21.1585   18.3884 C   0  0  0  0  0  0
  -27.6546  -16.6522   17.6421 C   0  0  0  0  0  0
  -27.1831  -18.5312   15.3010 C   0  0  0  0  0  0
  -28.0605  -24.6642   20.6910 C   0  0  0  0  0  0
  -28.4384  -18.5492   16.1923 C   0  0  0  0  0  0
  -29.8914  -16.2224   19.9931 N   0  0  0  0  0  0
  -31.4596  -12.7930   19.1525 H   0  0  0  0  0  0
  -30.4397  -11.6986   20.0459 H   0  0  0  0  0  0
  -29.8380  -11.7059   17.5943 H   0  0  0  0  0  0
  -29.5803  -13.4326   17.6499 H   0  0  0  0  0  0
  -27.9628  -11.2589   19.0063 H   0  0  0  0  0  0
  -27.3787  -12.4019   17.8244 H   0  0  0  0  0  0
  -27.5608  -14.2262   19.3678 H   0  0  0  0  0  0
  -28.7855  -12.3893   21.4731 H   0  0  0  0  0  0
  -28.3647  -14.0780   21.6927 H   0  0  0  0  0  0
  -25.2762   -9.5682   22.4768 H   0  0  0  0  0  0
  -24.0004   -7.4629   22.7469 H   0  0  0  0  0  0
  -21.0847   -8.8775   19.8948 H   0  0  0  0  0  0
  -22.3701  -10.9675   19.6174 H   0  0  0  0  0  0
  -21.2005   -7.6145   23.9715 H   0  0  0  0  0  0
  -21.1483   -6.0520   25.9078 H   0  0  0  0  0  0
  -22.0598   -2.7607   23.2848 H   0  0  0  0  0  0
  -22.4066  -11.9863   22.4829 H   0  0  0  0  0  0
  -21.1057  -13.1218   22.2643 H   0  0  0  0  0  0
  -24.6523  -15.8490   20.5412 H   0  0  0  0  0  0
  -26.2754  -15.6335   20.1220 H   0  0  0  0  0  0
  -26.7283  -32.5284   23.0981 H   0  0  0  0  0  0
  -25.0084  -33.9598   25.0304 H   0  0  0  0  0  0
  -22.7543  -31.2846   21.3733 H   0  0  0  0  0  0
  -23.3758  -35.9577   23.3293 H   0  0  0  0  0  0
  -24.3575  -36.8896   22.2059 H   0  0  0  0  0  0
  -23.7244  -37.6439   23.6693 H   0  0  0  0  0  0
  -26.1628  -31.4599   20.6094 H   0  0  0  0  0  0
  -26.8775  -30.7633   22.0279 H   0  0  0  0  0  0
  -28.1462  -28.7924   21.2190 H   0  0  0  0  0  0
  -25.9335  -25.8060   19.0417 H   0  0  0  0  0  0
  -23.9808  -27.2747   18.9997 H   0  0  0  0  0  0
  -23.8192  -30.5541   19.3955 H   0  0  0  0  0  0
  -22.7928  -29.2256   19.8424 H   0  0  0  0  0  0
  -25.1314  -36.1846   25.0805 H   0  0  0  0  0  0
  -21.0008  -28.3318   24.1355 H   0  0  0  0  0  0
  -20.5685  -26.2342   23.3626 H   0  0  0  0  0  0
  -21.6658  -26.7435   22.1201 H   0  0  0  0  0  0
  -19.6927  -25.6285   21.1262 H   0  0  0  0  0  0
  -19.6698  -27.3175   20.6731 H   0  0  0  0  0  0
  -17.4215  -26.6679   21.4029 H   0  0  0  0  0  0
  -18.0346  -26.0083   22.9025 H   0  0  0  0  0  0
  -19.7953  -30.7299   24.2228 H   0  0  0  0  0  0
  -17.5027  -31.6270   24.5165 H   0  0  0  0  0  0
  -15.5364  -30.2976   23.7674 H   0  0  0  0  0  0
  -15.8694  -28.0811   22.7086 H   0  0  0  0  0  0
  -24.5897  -30.7094   25.7711 H   0  0  0  0  0  0
  -24.8889  -32.2937   26.4755 H   0  0  0  0  0  0
  -25.7984  -30.8968   27.0213 H   0  0  0  0  0  0
  -26.3025  -29.6667   24.1301 H   0  0  0  0  0  0
  -27.4005  -29.7263   25.4879 H   0  0  0  0  0  0
  -27.8936  -30.4185   23.9626 H   0  0  0  0  0  0
  -27.2641  -33.3655   26.2006 H   0  0  0  0  0  0
  -28.3902  -32.6854   25.0355 H   0  0  0  0  0  0
  -28.0682  -31.8504   26.5468 H   0  0  0  0  0  0
  -28.2584  -38.0084   24.7508 H   0  0  0  0  0  0
  -28.1076  -36.2612   24.6302 H   0  0  0  0  0  0
  -27.2292  -37.1438   25.8870 H   0  0  0  0  0  0
  -20.9488  -29.8751   21.6768 H   0  0  0  0  0  0
  -26.0150  -38.2805   24.1404 H   0  0  0  0  0  0
  -28.9774  -21.7617   21.4014 H   0  0  0  0  0  0
  -28.2999  -23.3673   18.8646 H   0  0  0  0  0  0
  -26.8925  -20.8481   19.2749 H   0  0  0  0  0  0
  -27.6761  -20.9376   17.7412 H   0  0  0  0  0  0
  -26.2901  -18.9524   17.9247 H   0  0  0  0  0  0
  -27.0327  -18.4895   19.4015 H   0  0  0  0  0  0
  -28.4200  -17.5303   20.8997 H   0  0  0  0  0  0
  -29.9977  -17.7188   21.5957 H   0  0  0  0  0  0
  -30.2024  -16.0128   17.8942 H   0  0  0  0  0  0
  -31.4171  -16.9010   18.7436 H   0  0  0  0  0  0
  -30.7824  -19.1807   19.8982 H   0  0  0  0  0  0
  -30.3967  -18.5458   17.6697 H   0  0  0  0  0  0
  -29.7757  -22.1216   17.9782 H   0  0  0  0  0  0
  -30.2386  -20.5621   17.5018 H   0  0  0  0  0  0
  -31.0429  -21.3063   18.8583 H   0  0  0  0  0  0
  -27.5910  -16.2462   18.6465 H   0  0  0  0  0  0
  -28.2122  -15.9559   17.0162 H   0  0  0  0  0  0
  -26.6327  -16.6588   17.2627 H   0  0  0  0  0  0
  -27.4226  -18.9123   14.3080 H   0  0  0  0  0  0
  -26.3872  -19.1599   15.6984 H   0  0  0  0  0  0
  -26.7896  -17.5243   15.1654 H   0  0  0  0  0  0
  -28.5463  -24.6233   21.6661 H   0  0  0  0  0  0
  -26.9982  -24.5709   20.9170 H   0  0  0  0  0  0
  -29.1995  -17.9363   15.7069 H   0  0  0  0  0  0
  -28.8319  -19.5634   16.1708 H   0  0  0  0  0  0
  1 25  1  0  0  0
  1 30  2  0  0  0
  1 86  1  0  0  0
  2  3  1  0  0  0
  2 25  1  0  0  0
  2 87  1  0  0  0
  2 88  1  0  0  0
  3  4  1  0  0  0
  3 89  1  0  0  0
  3 90  1  0  0  0
  4  5  1  0  0  0
  4 91  1  0  0  0
  4 92  1  0  0  0
  5  6  1  0  0  0
  5 26  1  0  0  0
  5 93  1  0  0  0
  6 25  1  0  0  0
  6 94  1  0  0  0
  6 95  1  0  0  0
  7  8  2  0  0  0
  7 26  1  0  0  0
  7 29  1  0  0  0
  8  9  1  0  0  0
  8 22  1  0  0  0
  9 10  1  0  0  0
  9 27  2  0  0  0
 10 11  2  0  0  0
 10 15  1  0  0  0
 11 12  1  0  0  0
 11 96  1  0  0  0
 12 13  2  0  0  0
 12 97  1  0  0  0
 13 14  1  0  0  0
 13 31  1  0  0  0
 14 15  2  0  0  0
 14 98  1  0  0  0
 15 99  1  0  0  0
 16 17  2  0  0  0
 16 21  1  0  0  0
 16 31  1  0  0  0
 17 18  1  0  0  0
 17100  1  0  0  0
 18 19  2  0  0  0
 18101  1  0  0  0
 19 20  1  0  0  0
 19 24  1  0  0  0
 20 21  2  0  0  0
 20102  1  0  0  0
 21 23  1  0  0  0
 22 28  1  0  0  0
 22 32  2  0  0  0
 26 27  1  0  0  0
 28103  1  0  0  0
 28104  1  0  0  0
 29105  1  0  0  0
 29106  1  0  0  0
 33 34  1  0  0  0
 33 66  1  0  0  0
 33 70  2  0  0  0
 34 36  1  0  0  0
 34 59  1  0  0  0
 34107  1  0  0  0
 35 44  2  0  0  0
 35 45  1  0  0  0
 35 68  1  0  0  0
 36 56  1  0  0  0
 36108  1  0  0  0
 37 39  1  0  0  0
 37 47  1  0  0  0
 37 66  1  0  0  0
 37109  1  0  0  0
 38 43  2  0  0  0
 38 46  1  0  0  0
 38 47  1  0  0  0
 39 64  1  0  0  0
 39 67  2  0  0  0
 40 52  1  0  0  0
 40 53  2  0  0  0
 40 58  1  0  0  0
 41110  1  0  0  0
 41111  1  0  0  0
 41112  1  0  0  0
 41 48  1  0  0  0
 42 43  1  0  0  0
 42 66  1  0  0  0
 42113  1  0  0  0
 42114  1  0  0  0
 43 44  1  0  0  0
 44115  1  0  0  0
 45 46  2  0  0  0
 45116  1  0  0  0
 46117  1  0  0  0
 47118  1  0  0  0
 47119  1  0  0  0
 48 56  1  0  0  0
 48 65  1  0  0  0
 48120  1  0  0  0
 49 50  1  0  0  0
 49 53  1  0  0  0
 49 64  1  0  0  0
 49121  1  0  0  0
 50 51  1  0  0  0
 50122  1  0  0  0
 50123  1  0  0  0
 51 52  1  0  0  0
 51124  1  0  0  0
 51125  1  0  0  0
 52126  1  0  0  0
 52127  1  0  0  0
 53 54  1  0  0  0
 54 55  2  0  0  0
 54128  1  0  0  0
 55 57  1  0  0  0
 55129  1  0  0  0
 56 69  2  0  0  0
 57 58  2  0  0  0
 57130  1  0  0  0
 58131  1  0  0  0
 59 60  1  0  0  0
 59 61  1  0  0  0
 59 62  1  0  0  0
 60132  1  0  0  0
 60133  1  0  0  0
 60134  1  0  0  0
 61135  1  0  0  0
 61136  1  0  0  0
 61137  1  0  0  0
 62138  1  0  0  0
 62139  1  0  0  0
 62140  1  0  0  0
 63 65  1  0  0  0
 63141  1  0  0  0
 63142  1  0  0  0
 63143  1  0  0  0
 64144  1  0  0  0
 65145  1  0  0  0
 68 84  1  0  0  0
 71 72  2  0  0  0
 71146  1  0  0  0
 71 79  1  0  0  0
 72 84  1  0  0  0
 72147  1  0  0  0
 73 74  1  0  0  0
 73 79  1  0  0  0
 73148  1  0  0  0
 73149  1  0  0  0
 74 80  1  0  0  0
 74150  1  0  0  0
 74151  1  0  0  0
 75 86  1  0  0  0
 75152  1  0  0  0
 75153  1  0  0  0
 75 77  1  0  0  0
 76 86  1  0  0  0
 76154  1  0  0  0
 76155  1  0  0  0
 76 78  1  0  0  0
 77 78  1  0  0  0
 77 79  1  0  0  0
 77156  1  0  0  0
 78 80  1  0  0  0
 78157  1  0  0  0
 79 81  1  0  0  0
 80 82  1  0  0  0
 80 85  1  0  0  0
 81158  1  0  0  0
 81159  1  0  0  0
 81160  1  0  0  0
 82161  1  0  0  0
 82162  1  0  0  0
 82163  1  0  0  0
 83 85  1  0  0  0
 83164  1  0  0  0
 83165  1  0  0  0
 83166  1  0  0  0
 84167  1  0  0  0
 84168  1  0  0  0
 85169  1  0  0  0
 85170  1  0  0  0
M  ISO  4   1 100  68 101  84 101  86 100
M  END
> <chiral flag>
0

> <version>
0

> <s_m_source_file>
/data/baiqing/PycharmProjects/Reinvent-master-3.2/result/LINK_invent/BTK/process_docking_weight1_custom_sum_contain_oxygen_bond_distance_aromatic_linkinvent_7_9_3/rearranged_h_0178.sdf

> <i_m_source_file_index>
80

> <r_mmod_Potential_Energy-OPLS-2005>
1083.482421875

> <r_mmod_Stretch_Energy-OPLS-2005>
325.540405273438

> <r_mmod_Bend_Energy-OPLS-2005>
435.0244140625

> <r_mmod_Torsional_Energy-OPLS-2005>
439.933685302734

> <r_mmod_Improper_Torsional_Energy-OPLS-2005>
24.5661487579346

> <r_mmod_Van_der_Waal_Energy-OPLS-2005>
139.118545532227

> <r_mmod_Electrostatic_Energy-OPLS-2005>
-332.096466064453

> <r_mmod_Solvation_Energy-OPLS-2005>
-174.585784912109

> <b_mmod_Minimization_Converged-OPLS-2005>
0

> <r_mmod_RMS_Derivative-OPLS-2005>
0.542083621025085

$$$$
81
                    3D
 Structure written by MMmdl.
165174  0  0  1  0            999 V2000
  -30.6105  -14.8955   20.4604 C   0  0  0  0  0  0
  -30.4291  -12.5664   19.4977 C   0  0  0  0  0  0
  -29.5124  -12.5334   18.2556 C   0  0  0  0  0  0
  -28.0413  -12.3416   18.6668 C   0  0  0  0  0  0
  -27.6315  -13.2604   19.8492 C   0  0  2  0  0  0
  -28.6759  -13.2761   20.9873 C   0  0  0  0  0  0
  -25.2432  -13.8248   20.5733 C   0  0  0  0  0  0
  -24.1759  -13.0429   20.9223 C   0  0  0  0  0  0
  -24.6408  -11.6940   20.8742 C   0  0  0  0  0  0
  -23.9115  -10.4297   21.0387 C   0  0  0  0  0  0
  -24.3665   -9.4207   21.9161 C   0  0  0  0  0  0
  -23.6327   -8.2248   22.0737 C   0  0  0  0  0  0
  -22.4302   -8.0295   21.3533 C   0  0  0  0  0  0
  -21.9947   -9.0267   20.4629 C   0  0  0  0  0  0
  -22.7288  -10.2137   20.3031 C   0  0  0  0  0  0
  -21.6862   -6.0758   22.5276 C   0  0  0  0  0  0
  -21.4020   -6.5646   23.8208 C   0  0  0  0  0  0
  -21.3647   -5.6789   24.9165 C   0  0  0  0  0  0
  -21.6049   -4.3058   24.7209 C   0  0  0  0  0  0
  -21.8831   -3.8156   23.4320 C   0  0  0  0  0  0
  -21.9208   -4.6982   22.3388 C   0  0  0  0  0  0
  -22.7775  -13.5179   21.1874 C   0  0  0  0  0  0
  -22.1666   -4.2172   21.0961 F   0  0  0  0  0  0
  -21.5619   -3.4527   25.7710 F   0  0  0  0  0  0
  -29.9612  -13.6647   20.3940 N   0  0  0  0  0  0
  -26.2894  -12.9518   20.3331 N   0  0  0  0  0  0
  -25.9348  -11.6632   20.5781 N   0  0  0  0  0  0
  -22.0469  -12.8144   22.0454 N   0  0  0  0  0  0
  -25.4024  -15.1985   20.4168 N   0  0  0  0  0  0
  -31.7892  -14.9242   20.0870 O   0  0  0  0  0  0
  -21.6645   -6.8906   21.4239 O   0  0  0  0  0  0
  -22.3422  -14.5472   20.6728 O   0  0  0  0  0  0
  -24.6474  -31.8433   23.1876 C   0  0  0  0  0  0
  -25.9240  -32.4695   23.8271 C   0  0  1  0  0  0
  -27.2107  -27.1252   20.1297 C   0  0  0  0  0  0
  -25.5956  -33.8494   24.2192 N   0  0  0  0  0  0
  -23.4500  -30.4652   21.5328 C   0  0  2  0  0  0
  -24.8961  -28.8932   20.1043 C   0  0  0  0  0  0
  -22.7552  -29.4576   22.4845 C   0  0  0  0  0  0
  -18.0299  -28.1401   22.8463 C   0  0  0  0  0  0
  -24.1479  -36.7266   23.2641 C   0  0  0  0  0  0
  -26.0089  -30.7089   21.3880 C   0  0  0  0  0  0
  -26.0743  -29.3204   20.7272 C   0  0  0  0  0  0
  -27.2289  -28.4511   20.7277 C   0  0  0  0  0  0
  -26.0007  -26.8019   19.4733 C   0  0  0  0  0  0
  -24.8741  -27.6488   19.4616 C   0  0  0  0  0  0
  -23.6763  -29.7986   20.1507 C   0  0  0  0  0  0
  -25.4113  -36.3031   24.0315 C   0  0  1  0  0  0
  -20.5911  -28.3741   23.1244 C   0  0  2  0  0  0
  -20.6770  -26.9414   22.5521 C   0  0  0  0  0  0
  -19.5819  -26.6407   21.5213 C   0  0  0  0  0  0
  -18.1953  -26.7963   22.1553 C   0  0  0  0  0  0
  -19.1546  -28.8870   23.2864 C   0  0  0  0  0  0
  -18.9471  -30.1445   23.8903 C   0  0  0  0  0  0
  -17.6472  -30.6572   24.0591 C   0  0  0  0  0  0
  -25.9074  -34.9405   23.5070 C   0  0  0  0  0  0
  -16.5354  -29.9074   23.6331 C   0  0  0  0  0  0
  -16.7289  -28.6508   23.0340 C   0  0  0  0  0  0
  -26.4540  -31.6565   25.0716 C   0  0  0  0  0  0
  -25.3715  -31.3769   26.1407 C   0  0  0  0  0  0
  -27.0417  -30.2959   24.6310 C   0  0  0  0  0  0
  -27.6048  -32.4346   25.7511 C   0  0  0  0  0  0
  -27.5583  -37.1792   24.8477 C   0  0  0  0  0  0
  -21.4240  -29.3071   22.3603 N   0  0  0  0  0  0
  -26.4289  -37.3738   23.9415 N   0  0  0  0  0  0
  -24.7227  -31.0267   22.0913 N   0  0  0  0  0  0
  -23.4210  -28.8112   23.2991 O   0  0  0  0  0  0
  -28.2564  -26.1328   20.2486 O   0  0  0  0  0  0
  -26.5664  -34.8903   22.4646 O   0  0  0  0  0  0
  -23.5592  -32.1312   23.7086 O   0  0  0  0  0  0
  -27.5455  -22.2102   19.8672 C   0  0  0  0  0  0
  -27.7513  -20.7825   20.0459 C   0  0  0  0  0  0
  -28.5391  -23.2240   20.0474 C   0  0  0  0  0  0
  -29.0307  -20.2521   20.4558 C   0  0  0  0  0  0
  -29.7786  -22.5970   20.4192 C   0  0  0  0  0  0
  -30.6519  -18.4084   21.6822 C   0  0  0  0  0  0
  -30.6586  -16.8683   21.9760 C   0  0  0  0  0  0
  -29.3851  -17.2797   20.0872 C   0  0  0  0  0  0
  -29.3552  -18.6882   20.9257 C   0  0  2  0  0  0
  -31.0154  -23.4573   20.5738 C   0  0  0  0  0  0
  -26.0485  -18.9985   20.8781 C   0  0  0  0  0  0
  -26.7089  -19.1315   18.4050 C   0  0  0  0  0  0
  -28.3049  -24.7715   19.4997 C   0  0  0  0  0  0
  -26.5372  -19.8943   19.7269 C   0  0  0  0  0  0
  -29.9941  -21.2278   20.6223 N   0  0  0  0  0  0
  -29.9879  -16.1026   20.8952 N   0  0  0  0  0  0
  -31.4618  -12.7038   19.1726 H   0  0  0  0  0  0
  -30.4133  -11.6108   20.0261 H   0  0  0  0  0  0
  -29.8189  -11.7289   17.5858 H   0  0  0  0  0  0
  -29.6190  -13.4647   17.6954 H   0  0  0  0  0  0
  -27.9065  -11.2952   18.9421 H   0  0  0  0  0  0
  -27.3847  -12.5102   17.8114 H   0  0  0  0  0  0
  -27.6023  -14.2691   19.4358 H   0  0  0  0  0  0
  -28.7494  -12.3004   21.4697 H   0  0  0  0  0  0
  -28.3839  -13.9851   21.7657 H   0  0  0  0  0  0
  -25.2814   -9.5663   22.4732 H   0  0  0  0  0  0
  -24.0039   -7.4637   22.7440 H   0  0  0  0  0  0
  -21.0885   -8.8780   19.8936 H   0  0  0  0  0  0
  -22.3749  -10.9671   19.6136 H   0  0  0  0  0  0
  -21.2005   -7.6149   23.9711 H   0  0  0  0  0  0
  -21.1449   -6.0511   25.9065 H   0  0  0  0  0  0
  -22.0627   -2.7623   23.2801 H   0  0  0  0  0  0
  -22.4137  -11.9855   22.4889 H   0  0  0  0  0  0
  -21.1056  -13.1087   22.2592 H   0  0  0  0  0  0
  -24.6223  -15.8377   20.5216 H   0  0  0  0  0  0
  -26.2508  -15.6557   20.1095 H   0  0  0  0  0  0
  -26.7334  -32.5299   23.1033 H   0  0  0  0  0  0
  -25.0083  -33.9613   25.0329 H   0  0  0  0  0  0
  -22.7555  -31.2932   21.3822 H   0  0  0  0  0  0
  -23.3735  -35.9616   23.3293 H   0  0  0  0  0  0
  -24.3566  -36.8907   22.2062 H   0  0  0  0  0  0
  -23.7239  -37.6458   23.6689 H   0  0  0  0  0  0
  -26.1706  -31.4603   20.6133 H   0  0  0  0  0  0
  -26.8761  -30.7546   22.0351 H   0  0  0  0  0  0
  -28.1260  -28.7708   21.2392 H   0  0  0  0  0  0
  -25.8491  -25.8476   18.9947 H   0  0  0  0  0  0
  -23.9743  -27.3120   18.9639 H   0  0  0  0  0  0
  -23.8169  -30.5764   19.3983 H   0  0  0  0  0  0
  -22.7899  -29.2465   19.8373 H   0  0  0  0  0  0
  -25.1295  -36.1867   25.0810 H   0  0  0  0  0  0
  -21.0030  -28.3404   24.1351 H   0  0  0  0  0  0
  -21.6701  -26.7313   22.1513 H   0  0  0  0  0  0
  -20.5439  -26.2388   23.3765 H   0  0  0  0  0  0
  -19.7053  -25.6337   21.1228 H   0  0  0  0  0  0
  -19.6812  -27.3230   20.6760 H   0  0  0  0  0  0
  -17.4253  -26.6817   21.3903 H   0  0  0  0  0  0
  -18.0225  -26.0090   22.8888 H   0  0  0  0  0  0
  -19.7976  -30.7220   24.2275 H   0  0  0  0  0  0
  -17.5046  -31.6234   24.5224 H   0  0  0  0  0  0
  -15.5364  -30.2992   23.7623 H   0  0  0  0  0  0
  -15.8688  -28.0841   22.7018 H   0  0  0  0  0  0
  -24.5879  -30.7147   25.7727 H   0  0  0  0  0  0
  -24.8928  -32.2959   26.4800 H   0  0  0  0  0  0
  -25.7970  -30.8952   27.0220 H   0  0  0  0  0  0
  -26.3048  -29.6665   24.1319 H   0  0  0  0  0  0
  -27.4035  -29.7277   25.4895 H   0  0  0  0  0  0
  -27.8950  -30.4197   23.9636 H   0  0  0  0  0  0
  -27.2621  -33.3661   26.2038 H   0  0  0  0  0  0
  -28.3882  -32.6891   25.0358 H   0  0  0  0  0  0
  -28.0702  -31.8510   26.5476 H   0  0  0  0  0  0
  -28.2590  -38.0089   24.7498 H   0  0  0  0  0  0
  -28.1066  -36.2617   24.6315 H   0  0  0  0  0  0
  -27.2310  -37.1470   25.8879 H   0  0  0  0  0  0
  -20.9458  -29.8791   21.6791 H   0  0  0  0  0  0
  -26.0153  -38.2822   24.1361 H   0  0  0  0  0  0
  -26.5757  -22.5433   19.5196 H   0  0  0  0  0  0
  -31.5002  -18.6661   21.0491 H   0  0  0  0  0  0
  -30.7354  -19.0012   22.5928 H   0  0  0  0  0  0
  -31.6784  -16.5286   22.1733 H   0  0  0  0  0  0
  -30.0963  -16.6769   22.8910 H   0  0  0  0  0  0
  -28.3839  -16.9814   19.7801 H   0  0  0  0  0  0
  -29.9808  -17.4034   19.1815 H   0  0  0  0  0  0
  -28.6120  -18.5450   21.7049 H   0  0  0  0  0  0
  -31.3073  -23.8830   19.6131 H   0  0  0  0  0  0
  -30.8164  -24.2784   21.2633 H   0  0  0  0  0  0
  -31.8600  -22.8873   20.9610 H   0  0  0  0  0  0
  -25.9601  -19.5579   21.8115 H   0  0  0  0  0  0
  -26.6865  -18.1385   21.0486 H   0  0  0  0  0  0
  -25.0626  -18.5878   20.6480 H   0  0  0  0  0  0
  -26.8218  -19.8175   17.5648 H   0  0  0  0  0  0
  -25.8381  -18.5064   18.2015 H   0  0  0  0  0  0
  -27.5807  -18.4855   18.4117 H   0  0  0  0  0  0
  -27.4794  -24.6939   18.7989 H   0  0  0  0  0  0
  -29.1518  -24.9137   18.8264 H   0  0  0  0  0  0
  -25.6929  -20.5612   19.5505 H   0  0  0  0  0  0
  1 25  1  0  0  0
  1 30  2  0  0  0
  1 86  1  0  0  0
  2  3  1  0  0  0
  2 25  1  0  0  0
  2 87  1  0  0  0
  2 88  1  0  0  0
  3  4  1  0  0  0
  3 89  1  0  0  0
  3 90  1  0  0  0
  4  5  1  0  0  0
  4 91  1  0  0  0
  4 92  1  0  0  0
  5  6  1  0  0  0
  5 26  1  0  0  0
  5 93  1  0  0  0
  6 25  1  0  0  0
  6 94  1  0  0  0
  6 95  1  0  0  0
  7  8  2  0  0  0
  7 26  1  0  0  0
  7 29  1  0  0  0
  8  9  1  0  0  0
  8 22  1  0  0  0
  9 10  1  0  0  0
  9 27  2  0  0  0
 10 11  2  0  0  0
 10 15  1  0  0  0
 11 12  1  0  0  0
 11 96  1  0  0  0
 12 13  2  0  0  0
 12 97  1  0  0  0
 13 14  1  0  0  0
 13 31  1  0  0  0
 14 15  2  0  0  0
 14 98  1  0  0  0
 15 99  1  0  0  0
 16 17  2  0  0  0
 16 21  1  0  0  0
 16 31  1  0  0  0
 17 18  1  0  0  0
 17100  1  0  0  0
 18 19  2  0  0  0
 18101  1  0  0  0
 19 20  1  0  0  0
 19 24  1  0  0  0
 20 21  2  0  0  0
 20102  1  0  0  0
 21 23  1  0  0  0
 22 28  1  0  0  0
 22 32  2  0  0  0
 26 27  1  0  0  0
 28103  1  0  0  0
 28104  1  0  0  0
 29105  1  0  0  0
 29106  1  0  0  0
 33 34  1  0  0  0
 33 66  1  0  0  0
 33 70  2  0  0  0
 34 36  1  0  0  0
 34 59  1  0  0  0
 34107  1  0  0  0
 35 44  2  0  0  0
 35 45  1  0  0  0
 35 68  1  0  0  0
 36 56  1  0  0  0
 36108  1  0  0  0
 37 39  1  0  0  0
 37 47  1  0  0  0
 37 66  1  0  0  0
 37109  1  0  0  0
 38 43  2  0  0  0
 38 46  1  0  0  0
 38 47  1  0  0  0
 39 64  1  0  0  0
 39 67  2  0  0  0
 40 52  1  0  0  0
 40 53  2  0  0  0
 40 58  1  0  0  0
 41110  1  0  0  0
 41111  1  0  0  0
 41112  1  0  0  0
 41 48  1  0  0  0
 42 43  1  0  0  0
 42 66  1  0  0  0
 42113  1  0  0  0
 42114  1  0  0  0
 43 44  1  0  0  0
 44115  1  0  0  0
 45 46  2  0  0  0
 45116  1  0  0  0
 46117  1  0  0  0
 47118  1  0  0  0
 47119  1  0  0  0
 48 56  1  0  0  0
 48 65  1  0  0  0
 48120  1  0  0  0
 49 50  1  0  0  0
 49 53  1  0  0  0
 49 64  1  0  0  0
 49121  1  0  0  0
 50 51  1  0  0  0
 50122  1  0  0  0
 50123  1  0  0  0
 51 52  1  0  0  0
 51124  1  0  0  0
 51125  1  0  0  0
 52126  1  0  0  0
 52127  1  0  0  0
 53 54  1  0  0  0
 54 55  2  0  0  0
 54128  1  0  0  0
 55 57  1  0  0  0
 55129  1  0  0  0
 56 69  2  0  0  0
 57 58  2  0  0  0
 57130  1  0  0  0
 58131  1  0  0  0
 59 60  1  0  0  0
 59 61  1  0  0  0
 59 62  1  0  0  0
 60132  1  0  0  0
 60133  1  0  0  0
 60134  1  0  0  0
 61135  1  0  0  0
 61136  1  0  0  0
 61137  1  0  0  0
 62138  1  0  0  0
 62139  1  0  0  0
 62140  1  0  0  0
 63 65  1  0  0  0
 63141  1  0  0  0
 63142  1  0  0  0
 63143  1  0  0  0
 64144  1  0  0  0
 65145  1  0  0  0
 68 83  1  0  0  0
 71 72  2  0  0  0
 71 73  1  0  0  0
 71146  1  0  0  0
 72 74  1  0  0  0
 72 84  1  0  0  0
 73 75  2  0  0  0
 73 83  1  0  0  0
 74 85  2  0  0  0
 74 79  1  0  0  0
 75 80  1  0  0  0
 75 85  1  0  0  0
 76 77  1  0  0  0
 76 79  1  0  0  0
 76147  1  0  0  0
 76148  1  0  0  0
 77 86  1  0  0  0
 77149  1  0  0  0
 77150  1  0  0  0
 78 79  1  0  0  0
 78 86  1  0  0  0
 78151  1  0  0  0
 78152  1  0  0  0
 79153  1  0  0  0
 80154  1  0  0  0
 80155  1  0  0  0
 80156  1  0  0  0
 81157  1  0  0  0
 81158  1  0  0  0
 81159  1  0  0  0
 81 84  1  0  0  0
 82 84  1  0  0  0
 82160  1  0  0  0
 82161  1  0  0  0
 82162  1  0  0  0
 83163  1  0  0  0
 83164  1  0  0  0
 84165  1  0  0  0
M  ISO  4   1 100  68 101  83 101  86 100
M  END
> <chiral flag>
0

> <version>
0

> <s_m_source_file>
/data/baiqing/PycharmProjects/Reinvent-master-3.2/result/LINK_invent/BTK/process_docking_weight1_custom_sum_contain_oxygen_bond_distance_aromatic_linkinvent_7_9_3/rearranged_h_0178.sdf

> <i_m_source_file_index>
81

> <r_mmod_Potential_Energy-OPLS-2005>
609.278442382812

> <r_mmod_Stretch_Energy-OPLS-2005>
227.427108764648

> <r_mmod_Bend_Energy-OPLS-2005>
337.38623046875

> <r_mmod_Torsional_Energy-OPLS-2005>
346.772796630859

> <r_mmod_Improper_Torsional_Energy-OPLS-2005>
10.2092761993408

> <r_mmod_Van_der_Waal_Energy-OPLS-2005>
131.729156494141

> <r_mmod_Electrostatic_Energy-OPLS-2005>
-412.594146728516

> <r_mmod_Solvation_Energy-OPLS-2005>
-209.830764770508

> <b_mmod_Minimization_Converged-OPLS-2005>
0

> <r_mmod_RMS_Derivative-OPLS-2005>
4.20423126220703

$$$$
82
                    3D
 Structure written by MMmdl.
162171  0  0  1  0            999 V2000
  -30.5267  -14.8776   20.4454 C   0  0  0  0  0  0
  -30.4511  -12.5391   19.4822 C   0  0  0  0  0  0
  -29.5184  -12.5247   18.2467 C   0  0  0  0  0  0
  -28.0487  -12.3212   18.6647 C   0  0  0  0  0  0
  -27.6409  -13.2329   19.8505 C   0  0  2  0  0  0
  -28.6872  -13.1859   20.9860 C   0  0  0  0  0  0
  -25.2526  -13.8191   20.5701 C   0  0  0  0  0  0
  -24.1820  -13.0434   20.9224 C   0  0  0  0  0  0
  -24.6414  -11.6911   20.8764 C   0  0  0  0  0  0
  -23.9084  -10.4285   21.0410 C   0  0  0  0  0  0
  -24.3626   -9.4195   21.9189 C   0  0  0  0  0  0
  -23.6298   -8.2240   22.0760 C   0  0  0  0  0  0
  -22.4278   -8.0289   21.3546 C   0  0  0  0  0  0
  -21.9917   -9.0263   20.4650 C   0  0  0  0  0  0
  -22.7255  -10.2135   20.3062 C   0  0  0  0  0  0
  -21.6845   -6.0751   22.5280 C   0  0  0  0  0  0
  -21.4007   -6.5644   23.8214 C   0  0  0  0  0  0
  -21.3658   -5.6793   24.9177 C   0  0  0  0  0  0
  -21.6042   -4.3063   24.7218 C   0  0  0  0  0  0
  -21.8825   -3.8159   23.4332 C   0  0  0  0  0  0
  -21.9187   -4.6977   22.3395 C   0  0  0  0  0  0
  -22.7832  -13.5220   21.1866 C   0  0  0  0  0  0
  -22.1662   -4.2172   21.0970 F   0  0  0  0  0  0
  -21.5623   -3.4538   25.7721 F   0  0  0  0  0  0
  -29.9737  -13.6025   20.4075 N   0  0  0  0  0  0
  -26.2950  -12.9396   20.3284 N   0  0  0  0  0  0
  -25.9344  -11.6540   20.5754 N   0  0  0  0  0  0
  -22.0468  -12.8209   22.0408 N   0  0  0  0  0  0
  -25.4215  -15.1913   20.4103 N   0  0  0  0  0  0
  -31.7103  -15.0072   20.1058 O   0  0  0  0  0  0
  -21.6644   -6.8888   21.4239 O   0  0  0  0  0  0
  -22.3514  -14.5524   20.6701 O   0  0  0  0  0  0
  -24.6384  -31.8493   23.1895 C   0  0  0  0  0  0
  -25.9175  -32.4711   23.8261 C   0  0  1  0  0  0
  -27.2204  -27.1816   20.1498 C   0  0  0  0  0  0
  -25.5961  -33.8505   24.2203 N   0  0  0  0  0  0
  -23.4397  -30.4686   21.5346 C   0  0  2  0  0  0
  -24.8893  -28.8980   20.1137 C   0  0  0  0  0  0
  -22.7550  -29.4570   22.4874 C   0  0  0  0  0  0
  -18.0314  -28.1394   22.8477 C   0  0  0  0  0  0
  -24.1491  -36.7226   23.2625 C   0  0  0  0  0  0
  -25.9913  -30.7364   21.3821 C   0  0  0  0  0  0
  -26.0659  -29.3505   20.7248 C   0  0  0  0  0  0
  -27.2358  -28.5107   20.7228 C   0  0  0  0  0  0
  -26.0217  -26.8169   19.5032 C   0  0  0  0  0  0
  -24.8777  -27.6417   19.4867 C   0  0  0  0  0  0
  -23.6652  -29.7970   20.1541 C   0  0  0  0  0  0
  -25.4111  -36.3018   24.0328 C   0  0  1  0  0  0
  -20.5927  -28.3690   23.1242 C   0  0  2  0  0  0
  -20.6791  -26.9396   22.5405 C   0  0  0  0  0  0
  -19.5772  -26.6376   21.5194 C   0  0  0  0  0  0
  -18.1951  -26.7936   22.1604 C   0  0  0  0  0  0
  -19.1570  -28.8859   23.2859 C   0  0  0  0  0  0
  -18.9494  -30.1461   23.8877 C   0  0  0  0  0  0
  -17.6490  -30.6589   24.0575 C   0  0  0  0  0  0
  -25.9086  -34.9408   23.5070 C   0  0  0  0  0  0
  -16.5374  -29.9076   23.6354 C   0  0  0  0  0  0
  -16.7302  -28.6503   23.0358 C   0  0  0  0  0  0
  -26.4510  -31.6553   25.0679 C   0  0  0  0  0  0
  -25.3702  -31.3781   26.1387 C   0  0  0  0  0  0
  -27.0363  -30.2957   24.6217 C   0  0  0  0  0  0
  -27.6059  -32.4284   25.7454 C   0  0  0  0  0  0
  -27.5598  -37.1737   24.8432 C   0  0  0  0  0  0
  -21.4255  -29.3043   22.3633 N   0  0  0  0  0  0
  -26.4246  -37.3759   23.9468 N   0  0  0  0  0  0
  -24.7091  -31.0383   22.0899 N   0  0  0  0  0  0
  -23.4226  -28.8136   23.3003 O   0  0  0  0  0  0
  -28.2928  -26.2332   20.1531 O   0  0  0  0  0  0
  -26.5636  -34.8901   22.4634 O   0  0  0  0  0  0
  -23.5514  -32.1335   23.7147 O   0  0  0  0  0  0
  -28.5312  -18.1118   21.3239 C   0  0  0  0  0  0
  -28.3325  -19.5348   21.3101 C   0  0  0  0  0  0
  -29.1563  -20.4290   20.6057 C   0  0  0  0  0  0
  -30.2349  -19.7478   19.9458 C   0  0  0  0  0  0
  -29.6124  -17.4726   20.6413 C   0  0  0  0  0  0
  -27.4182  -21.7629   21.6427 C   0  0  0  0  0  0
  -28.7865  -21.9811   20.9534 C   0  0  2  0  0  0
  -27.3291  -20.2941   22.1594 C   0  0  0  0  0  0
  -31.3023  -20.5377   19.2178 C   0  0  0  0  0  0
  -25.8985  -19.7366   22.0310 C   0  0  0  0  0  0
  -27.7780  -20.2336   23.6296 C   0  0  0  0  0  0
  -28.7349  -23.3595   20.0194 C   0  0  0  0  0  0
  -28.0699  -24.7783   20.6093 C   0  0  0  0  0  0
  -30.4315  -18.3573   19.9602 N   0  0  0  0  0  0
  -29.6715  -15.9574   20.7445 N   0  0  0  0  0  0
  -31.4825  -12.7079   19.1687 H   0  0  0  0  0  0
  -30.4476  -11.5678   19.9799 H   0  0  0  0  0  0
  -29.8188  -11.7375   17.5543 H   0  0  0  0  0  0
  -29.6186  -13.4642   17.7021 H   0  0  0  0  0  0
  -27.9296  -11.2749   18.9497 H   0  0  0  0  0  0
  -27.3846  -12.4814   17.8152 H   0  0  0  0  0  0
  -27.6238  -14.2487   19.4554 H   0  0  0  0  0  0
  -28.7605  -12.1807   21.4046 H   0  0  0  0  0  0
  -28.3976  -13.8333   21.8153 H   0  0  0  0  0  0
  -25.2768   -9.5667   22.4770 H   0  0  0  0  0  0
  -24.0003   -7.4621   22.7474 H   0  0  0  0  0  0
  -21.0851   -8.8787   19.8946 H   0  0  0  0  0  0
  -22.3722  -10.9679   19.6179 H   0  0  0  0  0  0
  -21.2011   -7.6155   23.9722 H   0  0  0  0  0  0
  -21.1466   -6.0526   25.9078 H   0  0  0  0  0  0
  -22.0605   -2.7626   23.2822 H   0  0  0  0  0  0
  -22.4066  -11.9858   22.4783 H   0  0  0  0  0  0
  -21.1096  -13.1247   22.2614 H   0  0  0  0  0  0
  -24.6475  -15.8382   20.5170 H   0  0  0  0  0  0
  -26.2482  -15.6249   20.0206 H   0  0  0  0  0  0
  -26.7227  -32.5346   23.0981 H   0  0  0  0  0  0
  -25.0168  -33.9623   25.0383 H   0  0  0  0  0  0
  -22.7418  -31.2948   21.3845 H   0  0  0  0  0  0
  -23.3795  -35.9504   23.3185 H   0  0  0  0  0  0
  -24.3623  -36.8963   22.2064 H   0  0  0  0  0  0
  -23.7166  -37.6365   23.6704 H   0  0  0  0  0  0
  -26.1442  -31.4955   20.6137 H   0  0  0  0  0  0
  -26.8609  -30.7829   22.0259 H   0  0  0  0  0  0
  -28.1369  -28.8610   21.2057 H   0  0  0  0  0  0
  -25.9620  -25.8578   19.0085 H   0  0  0  0  0  0
  -23.9815  -27.2955   18.9894 H   0  0  0  0  0  0
  -23.8038  -30.5718   19.3989 H   0  0  0  0  0  0
  -22.7805  -29.2404   19.8417 H   0  0  0  0  0  0
  -25.1285  -36.1821   25.0811 H   0  0  0  0  0  0
  -21.0026  -28.3248   24.1355 H   0  0  0  0  0  0
  -20.5626  -26.2306   23.3624 H   0  0  0  0  0  0
  -21.6671  -26.7389   22.1242 H   0  0  0  0  0  0
  -19.6915  -25.6275   21.1237 H   0  0  0  0  0  0
  -19.6703  -27.3189   20.6728 H   0  0  0  0  0  0
  -17.4232  -26.6704   21.3992 H   0  0  0  0  0  0
  -18.0343  -26.0070   22.8998 H   0  0  0  0  0  0
  -19.7968  -30.7302   24.2203 H   0  0  0  0  0  0
  -17.5043  -31.6265   24.5191 H   0  0  0  0  0  0
  -15.5369  -30.2980   23.7665 H   0  0  0  0  0  0
  -15.8723  -28.0821   22.7046 H   0  0  0  0  0  0
  -24.5909  -30.7070   25.7756 H   0  0  0  0  0  0
  -24.8826  -32.2975   26.4642 H   0  0  0  0  0  0
  -25.7989  -30.9113   27.0264 H   0  0  0  0  0  0
  -26.2977  -29.6695   24.1195 H   0  0  0  0  0  0
  -27.4004  -29.7237   25.4760 H   0  0  0  0  0  0
  -27.8871  -30.4241   23.9518 H   0  0  0  0  0  0
  -27.2696  -33.3627   26.1961 H   0  0  0  0  0  0
  -28.3901  -32.6768   25.0288 H   0  0  0  0  0  0
  -28.0663  -31.8427   26.5426 H   0  0  0  0  0  0
  -28.2483  -38.0169   24.7711 H   0  0  0  0  0  0
  -28.1241  -36.2732   24.5956 H   0  0  0  0  0  0
  -27.2388  -37.1028   25.8839 H   0  0  0  0  0  0
  -20.9426  -29.8778   21.6872 H   0  0  0  0  0  0
  -26.0110  -38.2790   24.1611 H   0  0  0  0  0  0
  -27.8503  -17.5087   21.9084 H   0  0  0  0  0  0
  -26.6508  -21.9099   20.8795 H   0  0  0  0  0  0
  -27.2082  -22.5031   22.4157 H   0  0  0  0  0  0
  -29.4957  -22.2203   21.7463 H   0  0  0  0  0  0
  -31.0255  -21.5868   19.1225 H   0  0  0  0  0  0
  -31.4615  -20.1427   18.2138 H   0  0  0  0  0  0
  -32.2478  -20.4851   19.7589 H   0  0  0  0  0  0
  -25.5476  -19.7605   20.9982 H   0  0  0  0  0  0
  -25.1995  -20.3162   22.6341 H   0  0  0  0  0  0
  -25.8392  -18.7049   22.3771 H   0  0  0  0  0  0
  -28.7922  -20.6185   23.7461 H   0  0  0  0  0  0
  -27.7735  -19.2092   24.0025 H   0  0  0  0  0  0
  -27.1250  -20.8218   24.2739 H   0  0  0  0  0  0
  -28.2019  -23.1174   19.0990 H   0  0  0  0  0  0
  -29.7521  -23.5799   19.7001 H   0  0  0  0  0  0
  -28.3552  -24.8103   21.6622 H   0  0  0  0  0  0
  -26.9946  -24.6037   20.6419 H   0  0  0  0  0  0
  -28.8087  -15.5889   21.1089 H   0  0  0  0  0  0
  1 25  1  0  0  0
  1 30  2  0  0  0
  1 85  1  0  0  0
  2  3  1  0  0  0
  2 25  1  0  0  0
  2 86  1  0  0  0
  2 87  1  0  0  0
  3  4  1  0  0  0
  3 88  1  0  0  0
  3 89  1  0  0  0
  4  5  1  0  0  0
  4 90  1  0  0  0
  4 91  1  0  0  0
  5  6  1  0  0  0
  5 26  1  0  0  0
  5 92  1  0  0  0
  6 25  1  0  0  0
  6 93  1  0  0  0
  6 94  1  0  0  0
  7  8  2  0  0  0
  7 26  1  0  0  0
  7 29  1  0  0  0
  8  9  1  0  0  0
  8 22  1  0  0  0
  9 10  1  0  0  0
  9 27  2  0  0  0
 10 11  2  0  0  0
 10 15  1  0  0  0
 11 12  1  0  0  0
 11 95  1  0  0  0
 12 13  2  0  0  0
 12 96  1  0  0  0
 13 14  1  0  0  0
 13 31  1  0  0  0
 14 15  2  0  0  0
 14 97  1  0  0  0
 15 98  1  0  0  0
 16 17  2  0  0  0
 16 21  1  0  0  0
 16 31  1  0  0  0
 17 18  1  0  0  0
 17 99  1  0  0  0
 18 19  2  0  0  0
 18100  1  0  0  0
 19 20  1  0  0  0
 19 24  1  0  0  0
 20 21  2  0  0  0
 20101  1  0  0  0
 21 23  1  0  0  0
 22 28  1  0  0  0
 22 32  2  0  0  0
 26 27  1  0  0  0
 28102  1  0  0  0
 28103  1  0  0  0
 29104  1  0  0  0
 29105  1  0  0  0
 33 34  1  0  0  0
 33 66  1  0  0  0
 33 70  2  0  0  0
 34 36  1  0  0  0
 34 59  1  0  0  0
 34106  1  0  0  0
 35 44  2  0  0  0
 35 45  1  0  0  0
 35 68  1  0  0  0
 36 56  1  0  0  0
 36107  1  0  0  0
 37 39  1  0  0  0
 37 47  1  0  0  0
 37 66  1  0  0  0
 37108  1  0  0  0
 38 43  2  0  0  0
 38 46  1  0  0  0
 38 47  1  0  0  0
 39 64  1  0  0  0
 39 67  2  0  0  0
 40 52  1  0  0  0
 40 53  2  0  0  0
 40 58  1  0  0  0
 41109  1  0  0  0
 41110  1  0  0  0
 41111  1  0  0  0
 41 48  1  0  0  0
 42 43  1  0  0  0
 42 66  1  0  0  0
 42112  1  0  0  0
 42113  1  0  0  0
 43 44  1  0  0  0
 44114  1  0  0  0
 45 46  2  0  0  0
 45115  1  0  0  0
 46116  1  0  0  0
 47117  1  0  0  0
 47118  1  0  0  0
 48 56  1  0  0  0
 48 65  1  0  0  0
 48119  1  0  0  0
 49 50  1  0  0  0
 49 53  1  0  0  0
 49 64  1  0  0  0
 49120  1  0  0  0
 50 51  1  0  0  0
 50121  1  0  0  0
 50122  1  0  0  0
 51 52  1  0  0  0
 51123  1  0  0  0
 51124  1  0  0  0
 52125  1  0  0  0
 52126  1  0  0  0
 53 54  1  0  0  0
 54 55  2  0  0  0
 54127  1  0  0  0
 55 57  1  0  0  0
 55128  1  0  0  0
 56 69  2  0  0  0
 57 58  2  0  0  0
 57129  1  0  0  0
 58130  1  0  0  0
 59 60  1  0  0  0
 59 61  1  0  0  0
 59 62  1  0  0  0
 60131  1  0  0  0
 60132  1  0  0  0
 60133  1  0  0  0
 61134  1  0  0  0
 61135  1  0  0  0
 61136  1  0  0  0
 62137  1  0  0  0
 62138  1  0  0  0
 62139  1  0  0  0
 63 65  1  0  0  0
 63140  1  0  0  0
 63141  1  0  0  0
 63142  1  0  0  0
 64143  1  0  0  0
 65144  1  0  0  0
 68 83  1  0  0  0
 71 72  2  0  0  0
 71 75  1  0  0  0
 71145  1  0  0  0
 72 73  1  0  0  0
 72 78  1  0  0  0
 73 74  2  0  0  0
 73 77  1  0  0  0
 74 79  1  0  0  0
 74 84  1  0  0  0
 75 84  2  0  0  0
 75 85  1  0  0  0
 76 77  1  0  0  0
 76 78  1  0  0  0
 76146  1  0  0  0
 76147  1  0  0  0
 77 82  1  0  0  0
 77148  1  0  0  0
 78 80  1  0  0  0
 78 81  1  0  0  0
 79149  1  0  0  0
 79150  1  0  0  0
 79151  1  0  0  0
 80152  1  0  0  0
 80153  1  0  0  0
 80154  1  0  0  0
 81155  1  0  0  0
 81156  1  0  0  0
 81157  1  0  0  0
 82 83  1  0  0  0
 82158  1  0  0  0
 82159  1  0  0  0
 83160  1  0  0  0
 83161  1  0  0  0
 85162  1  0  0  0
M  ISO  4   1 100  68 101  83 101  85 100
M  END
> <chiral flag>
0

> <version>
0

> <s_m_source_file>
/data/baiqing/PycharmProjects/Reinvent-master-3.2/result/LINK_invent/BTK/process_docking_weight1_custom_sum_contain_oxygen_bond_distance_aromatic_linkinvent_7_9_3/rearranged_h_0178.sdf

> <i_m_source_file_index>
82

> <r_mmod_Potential_Energy-OPLS-2005>
254.453414916992

> <r_mmod_Stretch_Energy-OPLS-2005>
195.175277709961

> <r_mmod_Bend_Energy-OPLS-2005>
314.952789306641

> <r_mmod_Torsional_Energy-OPLS-2005>
240.990158081055

> <r_mmod_Improper_Torsional_Energy-OPLS-2005>
5.34316205978394

> <r_mmod_Van_der_Waal_Energy-OPLS-2005>
124.656051635742

> <r_mmod_Electrostatic_Energy-OPLS-2005>
-545.882385253906

> <r_mmod_Solvation_Energy-OPLS-2005>
-226.471832275391

> <b_mmod_Minimization_Converged-OPLS-2005>
0

> <r_mmod_RMS_Derivative-OPLS-2005>
2.98720097541809

$$$$
83
                    3D
 Structure written by MMmdl.
163172  0  0  1  0            999 V2000
  -30.5065  -15.0881   20.4180 C   0  0  0  0  0  0
  -30.4369  -12.6901   19.5107 C   0  0  0  0  0  0
  -29.5240  -12.5615   18.2677 C   0  0  0  0  0  0
  -28.0616  -12.3212   18.6849 C   0  0  0  0  0  0
  -27.6221  -13.2599   19.8390 C   0  0  2  0  0  0
  -28.6660  -13.3201   20.9761 C   0  0  0  0  0  0
  -25.2375  -13.8210   20.5666 C   0  0  0  0  0  0
  -24.1743  -13.0414   20.9242 C   0  0  0  0  0  0
  -24.6399  -11.6915   20.8777 C   0  0  0  0  0  0
  -23.9093  -10.4279   21.0414 C   0  0  0  0  0  0
  -24.3644   -9.4193   21.9193 C   0  0  0  0  0  0
  -23.6309   -8.2230   22.0752 C   0  0  0  0  0  0
  -22.4290   -8.0276   21.3538 C   0  0  0  0  0  0
  -21.9933   -9.0255   20.4640 C   0  0  0  0  0  0
  -22.7266  -10.2128   20.3055 C   0  0  0  0  0  0
  -21.6853   -6.0742   22.5283 C   0  0  0  0  0  0
  -21.4015   -6.5638   23.8222 C   0  0  0  0  0  0
  -21.3660   -5.6785   24.9177 C   0  0  0  0  0  0
  -21.6037   -4.3048   24.7216 C   0  0  0  0  0  0
  -21.8824   -3.8146   23.4334 C   0  0  0  0  0  0
  -21.9198   -4.6971   22.3397 C   0  0  0  0  0  0
  -22.7761  -13.5176   21.1879 C   0  0  0  0  0  0
  -22.1662   -4.2160   21.0976 F   0  0  0  0  0  0
  -21.5631   -3.4533   25.7726 F   0  0  0  0  0  0
  -29.9115  -13.8081   20.3647 N   0  0  0  0  0  0
  -26.2847  -12.9481   20.3261 N   0  0  0  0  0  0
  -25.9339  -11.6597   20.5784 N   0  0  0  0  0  0
  -22.0403  -12.8181   22.0440 N   0  0  0  0  0  0
  -25.3879  -15.1931   20.3963 N   0  0  0  0  0  0
  -31.7098  -15.0934   20.1229 O   0  0  0  0  0  0
  -21.6638   -6.8885   21.4242 O   0  0  0  0  0  0
  -22.3441  -14.5469   20.6702 O   0  0  0  0  0  0
  -24.6515  -31.8350   23.1788 C   0  0  0  0  0  0
  -25.9246  -32.4650   23.8218 C   0  0  1  0  0  0
  -27.2178  -27.0439   20.1684 C   0  0  0  0  0  0
  -25.5959  -33.8458   24.2132 N   0  0  0  0  0  0
  -23.4595  -30.4502   21.5266 C   0  0  2  0  0  0
  -24.9089  -28.8534   20.1124 C   0  0  0  0  0  0
  -22.7610  -29.4505   22.4829 C   0  0  0  0  0  0
  -18.0313  -28.1401   22.8472 C   0  0  0  0  0  0
  -24.1491  -36.7240   23.2643 C   0  0  0  0  0  0
  -26.0208  -30.6799   21.3884 C   0  0  0  0  0  0
  -26.0896  -29.2800   20.7332 C   0  0  0  0  0  0
  -27.2420  -28.3937   20.7369 C   0  0  0  0  0  0
  -26.0096  -26.7341   19.5089 C   0  0  0  0  0  0
  -24.8869  -27.5974   19.4825 C   0  0  0  0  0  0
  -23.6909  -29.7699   20.1500 C   0  0  0  0  0  0
  -25.4129  -36.3007   24.0303 C   0  0  1  0  0  0
  -20.5928  -28.3739   23.1211 C   0  0  2  0  0  0
  -20.6795  -26.9429   22.5401 C   0  0  0  0  0  0
  -19.5770  -26.6377   21.5212 C   0  0  0  0  0  0
  -18.1951  -26.7937   22.1621 C   0  0  0  0  0  0
  -19.1567  -28.8888   23.2836 C   0  0  0  0  0  0
  -18.9485  -30.1484   23.8868 C   0  0  0  0  0  0
  -17.6479  -30.6598   24.0555 C   0  0  0  0  0  0
  -25.9088  -34.9385   23.5031 C   0  0  0  0  0  0
  -16.5369  -29.9090   23.6336 C   0  0  0  0  0  0
  -16.7293  -28.6505   23.0358 C   0  0  0  0  0  0
  -26.4542  -31.6551   25.0698 C   0  0  0  0  0  0
  -25.3697  -31.3770   26.1374 C   0  0  0  0  0  0
  -27.0402  -30.2926   24.6336 C   0  0  0  0  0  0
  -27.6054  -32.4331   25.7501 C   0  0  0  0  0  0
  -27.5572  -37.1782   24.8466 C   0  0  0  0  0  0
  -21.4289  -29.3053   22.3576 N   0  0  0  0  0  0
  -26.4289  -37.3727   23.9400 N   0  0  0  0  0  0
  -24.7315  -31.0123   22.0859 N   0  0  0  0  0  0
  -23.4212  -28.8066   23.3025 O   0  0  0  0  0  0
  -28.2717  -26.0332   20.2343 O   0  0  0  0  0  0
  -26.5689  -34.8899   22.4626 O   0  0  0  0  0  0
  -23.5614  -32.1269   23.6955 O   0  0  0  0  0  0
  -29.4136  -23.3314   20.1552 C   0  0  0  0  0  0
  -30.6738  -23.9920   19.9796 C   0  0  0  0  0  0
  -29.6148  -21.7970   20.2767 C   0  0  0  0  0  0
  -31.9078  -22.0874   20.2001 C   0  0  0  0  0  0
  -28.0871  -18.1237   21.1431 C   0  0  0  0  0  0
  -28.5953  -16.6398   21.3305 C   0  0  0  0  0  0
  -29.2698  -19.0519   20.8041 C   0  0  1  0  0  0
  -30.1254  -17.8361   20.0384 C   0  0  2  0  0  0
  -30.8554  -25.4706   19.6774 C   0  0  0  0  0  0
  -33.2631  -21.4153   20.2194 C   0  0  0  0  0  0
  -29.9491  -17.9565   18.5190 C   0  0  0  0  0  0
  -28.1285  -24.4350   20.1325 C   0  0  0  0  0  0
  -31.8695  -23.3825   20.0151 N   0  0  0  0  0  0
  -30.8622  -21.3116   20.3301 N   0  0  0  0  0  0
  -29.7766  -16.3560   20.4904 N   0  0  0  0  0  0
  -28.8463  -20.5211   20.2973 N   0  0  0  0  0  0
  -31.4643  -12.8668   19.1901 H   0  0  0  0  0  0
  -30.4670  -11.7529   20.0687 H   0  0  0  0  0  0
  -29.8686  -11.7522   17.6230 H   0  0  0  0  0  0
  -29.5875  -13.4752   17.6754 H   0  0  0  0  0  0
  -27.9770  -11.2821   19.0041 H   0  0  0  0  0  0
  -27.3979  -12.4286   17.8257 H   0  0  0  0  0  0
  -27.5698  -14.2542   19.3951 H   0  0  0  0  0  0
  -28.8001  -12.3388   21.4313 H   0  0  0  0  0  0
  -28.3430  -13.9711   21.7869 H   0  0  0  0  0  0
  -25.2781   -9.5672   22.4784 H   0  0  0  0  0  0
  -24.0013   -7.4622   22.7471 H   0  0  0  0  0  0
  -21.0865   -8.8775   19.8953 H   0  0  0  0  0  0
  -22.3721  -10.9676   19.6174 H   0  0  0  0  0  0
  -21.2000   -7.6147   23.9729 H   0  0  0  0  0  0
  -21.1480   -6.0510   25.9085 H   0  0  0  0  0  0
  -22.0604   -2.7610   23.2829 H   0  0  0  0  0  0
  -22.4016  -11.9871   22.4879 H   0  0  0  0  0  0
  -21.1017  -13.1219   22.2610 H   0  0  0  0  0  0
  -24.6067  -15.8312   20.5013 H   0  0  0  0  0  0
  -26.2188  -15.6398   20.0325 H   0  0  0  0  0  0
  -26.7309  -32.5234   23.0941 H   0  0  0  0  0  0
  -25.0062  -33.9563   25.0248 H   0  0  0  0  0  0
  -22.7673  -31.2790   21.3635 H   0  0  0  0  0  0
  -23.3755  -35.9572   23.3302 H   0  0  0  0  0  0
  -24.3566  -36.8886   22.2058 H   0  0  0  0  0  0
  -23.7252  -37.6433   23.6693 H   0  0  0  0  0  0
  -26.1833  -31.4273   20.6107 H   0  0  0  0  0  0
  -26.8889  -30.7371   22.0342 H   0  0  0  0  0  0
  -28.1423  -28.7177   21.2391 H   0  0  0  0  0  0
  -25.9068  -25.7739   19.0244 H   0  0  0  0  0  0
  -23.9865  -27.2649   18.9846 H   0  0  0  0  0  0
  -23.8349  -30.5400   19.3911 H   0  0  0  0  0  0
  -22.8031  -29.2178   19.8380 H   0  0  0  0  0  0
  -25.1325  -36.1824   25.0795 H   0  0  0  0  0  0
  -21.0026  -28.3333   24.1330 H   0  0  0  0  0  0
  -20.5675  -26.2358   23.3633 H   0  0  0  0  0  0
  -21.6662  -26.7414   22.1207 H   0  0  0  0  0  0
  -19.6925  -25.6276   21.1275 H   0  0  0  0  0  0
  -19.6708  -27.3161   20.6721 H   0  0  0  0  0  0
  -17.4217  -26.6674   21.4027 H   0  0  0  0  0  0
  -18.0347  -26.0088   22.9027 H   0  0  0  0  0  0
  -19.7958  -30.7307   24.2223 H   0  0  0  0  0  0
  -17.5029  -31.6275   24.5161 H   0  0  0  0  0  0
  -15.5367  -30.2985   23.7674 H   0  0  0  0  0  0
  -15.8691  -28.0816   22.7092 H   0  0  0  0  0  0
  -24.5891  -30.7106   25.7687 H   0  0  0  0  0  0
  -24.8877  -32.2961   26.4711 H   0  0  0  0  0  0
  -25.7957  -30.8998   27.0209 H   0  0  0  0  0  0
  -26.3021  -29.6647   24.1333 H   0  0  0  0  0  0
  -27.3959  -29.7246   25.4945 H   0  0  0  0  0  0
  -27.8963  -30.4132   23.9693 H   0  0  0  0  0  0
  -27.2629  -33.3655   26.2004 H   0  0  0  0  0  0
  -28.3913  -32.6854   25.0367 H   0  0  0  0  0  0
  -28.0668  -31.8506   26.5490 H   0  0  0  0  0  0
  -28.2586  -38.0078   24.7492 H   0  0  0  0  0  0
  -28.1069  -36.2604   24.6319 H   0  0  0  0  0  0
  -27.2287  -37.1460   25.8870 H   0  0  0  0  0  0
  -20.9509  -29.8758   21.6737 H   0  0  0  0  0  0
  -26.0147  -38.2793   24.1394 H   0  0  0  0  0  0
  -27.5354  -18.4689   22.0178 H   0  0  0  0  0  0
  -27.3814  -18.1395   20.3111 H   0  0  0  0  0  0
  -27.7859  -15.9581   21.0968 H   0  0  0  0  0  0
  -28.8655  -16.4703   22.3733 H   0  0  0  0  0  0
  -29.7976  -19.2305   21.7427 H   0  0  0  0  0  0
  -31.1834  -17.9941   20.2541 H   0  0  0  0  0  0
  -30.6566  -26.0766   20.5612 H   0  0  0  0  0  0
  -30.2221  -25.7877   18.8490 H   0  0  0  0  0  0
  -31.8779  -25.6959   19.3721 H   0  0  0  0  0  0
  -34.0038  -22.0066   19.6809 H   0  0  0  0  0  0
  -33.2150  -20.4311   19.7501 H   0  0  0  0  0  0
  -33.6049  -21.2847   21.2451 H   0  0  0  0  0  0
  -28.9068  -17.8154   18.2307 H   0  0  0  0  0  0
  -30.5510  -17.2173   17.9905 H   0  0  0  0  0  0
  -30.2573  -18.9453   18.1768 H   0  0  0  0  0  0
  -27.4553  -24.1341   20.9357 H   0  0  0  0  0  0
  -27.5863  -24.2246   19.2111 H   0  0  0  0  0  0
  -27.8468  -20.6550   20.1880 H   0  0  0  0  0  0
  1 25  1  0  0  0
  1 30  2  0  0  0
  1 85  1  0  0  0
  2  3  1  0  0  0
  2 25  1  0  0  0
  2 87  1  0  0  0
  2 88  1  0  0  0
  3  4  1  0  0  0
  3 89  1  0  0  0
  3 90  1  0  0  0
  4  5  1  0  0  0
  4 91  1  0  0  0
  4 92  1  0  0  0
  5  6  1  0  0  0
  5 26  1  0  0  0
  5 93  1  0  0  0
  6 25  1  0  0  0
  6 94  1  0  0  0
  6 95  1  0  0  0
  7  8  2  0  0  0
  7 26  1  0  0  0
  7 29  1  0  0  0
  8  9  1  0  0  0
  8 22  1  0  0  0
  9 10  1  0  0  0
  9 27  2  0  0  0
 10 11  2  0  0  0
 10 15  1  0  0  0
 11 12  1  0  0  0
 11 96  1  0  0  0
 12 13  2  0  0  0
 12 97  1  0  0  0
 13 14  1  0  0  0
 13 31  1  0  0  0
 14 15  2  0  0  0
 14 98  1  0  0  0
 15 99  1  0  0  0
 16 17  2  0  0  0
 16 21  1  0  0  0
 16 31  1  0  0  0
 17 18  1  0  0  0
 17100  1  0  0  0
 18 19  2  0  0  0
 18101  1  0  0  0
 19 20  1  0  0  0
 19 24  1  0  0  0
 20 21  2  0  0  0
 20102  1  0  0  0
 21 23  1  0  0  0
 22 28  1  0  0  0
 22 32  2  0  0  0
 26 27  1  0  0  0
 28103  1  0  0  0
 28104  1  0  0  0
 29105  1  0  0  0
 29106  1  0  0  0
 33 34  1  0  0  0
 33 66  1  0  0  0
 33 70  2  0  0  0
 34 36  1  0  0  0
 34 59  1  0  0  0
 34107  1  0  0  0
 35 44  2  0  0  0
 35 45  1  0  0  0
 35 68  1  0  0  0
 36 56  1  0  0  0
 36108  1  0  0  0
 37 39  1  0  0  0
 37 47  1  0  0  0
 37 66  1  0  0  0
 37109  1  0  0  0
 38 43  2  0  0  0
 38 46  1  0  0  0
 38 47  1  0  0  0
 39 64  1  0  0  0
 39 67  2  0  0  0
 40 52  1  0  0  0
 40 53  2  0  0  0
 40 58  1  0  0  0
 41110  1  0  0  0
 41111  1  0  0  0
 41112  1  0  0  0
 41 48  1  0  0  0
 42 43  1  0  0  0
 42 66  1  0  0  0
 42113  1  0  0  0
 42114  1  0  0  0
 43 44  1  0  0  0
 44115  1  0  0  0
 45 46  2  0  0  0
 45116  1  0  0  0
 46117  1  0  0  0
 47118  1  0  0  0
 47119  1  0  0  0
 48 56  1  0  0  0
 48 65  1  0  0  0
 48120  1  0  0  0
 49 50  1  0  0  0
 49 53  1  0  0  0
 49 64  1  0  0  0
 49121  1  0  0  0
 50 51  1  0  0  0
 50122  1  0  0  0
 50123  1  0  0  0
 51 52  1  0  0  0
 51124  1  0  0  0
 51125  1  0  0  0
 52126  1  0  0  0
 52127  1  0  0  0
 53 54  1  0  0  0
 54 55  2  0  0  0
 54128  1  0  0  0
 55 57  1  0  0  0
 55129  1  0  0  0
 56 69  2  0  0  0
 57 58  2  0  0  0
 57130  1  0  0  0
 58131  1  0  0  0
 59 60  1  0  0  0
 59 61  1  0  0  0
 59 62  1  0  0  0
 60132  1  0  0  0
 60133  1  0  0  0
 60134  1  0  0  0
 61135  1  0  0  0
 61136  1  0  0  0
 61137  1  0  0  0
 62138  1  0  0  0
 62139  1  0  0  0
 62140  1  0  0  0
 63 65  1  0  0  0
 63141  1  0  0  0
 63142  1  0  0  0
 63143  1  0  0  0
 64144  1  0  0  0
 65145  1  0  0  0
 68 82  1  0  0  0
 71 72  2  0  0  0
 71 73  1  0  0  0
 71 82  1  0  0  0
 72 79  1  0  0  0
 72 83  1  0  0  0
 73 84  2  0  0  0
 73 86  1  0  0  0
 74 80  1  0  0  0
 74 83  2  0  0  0
 74 84  1  0  0  0
 75 76  1  0  0  0
 75 77  1  0  0  0
 75146  1  0  0  0
 75147  1  0  0  0
 76 85  1  0  0  0
 76148  1  0  0  0
 76149  1  0  0  0
 77 78  1  0  0  0
 77 86  1  0  0  0
 77150  1  0  0  0
 78 81  1  0  0  0
 78 85  1  0  0  0
 78151  1  0  0  0
 79152  1  0  0  0
 79153  1  0  0  0
 79154  1  0  0  0
 80155  1  0  0  0
 80156  1  0  0  0
 80157  1  0  0  0
 81158  1  0  0  0
 81159  1  0  0  0
 81160  1  0  0  0
 82161  1  0  0  0
 82162  1  0  0  0
 86163  1  0  0  0
M  ISO  4   1 100  68 101  82 101  85 100
M  END
> <chiral flag>
0

> <version>
0

> <s_m_source_file>
/data/baiqing/PycharmProjects/Reinvent-master-3.2/result/LINK_invent/BTK/process_docking_weight1_custom_sum_contain_oxygen_bond_distance_aromatic_linkinvent_7_9_3/rearranged_h_0178.sdf

> <i_m_source_file_index>
83

> <r_mmod_Potential_Energy-OPLS-2005>
551.055541992188

> <r_mmod_Stretch_Energy-OPLS-2005>
377.262512207031

> <r_mmod_Bend_Energy-OPLS-2005>
441.839050292969

> <r_mmod_Torsional_Energy-OPLS-2005>
322.295166015625

> <r_mmod_Improper_Torsional_Energy-OPLS-2005>
8.93713760375977

> <r_mmod_Van_der_Waal_Energy-OPLS-2005>
141.025756835938

> <r_mmod_Electrostatic_Energy-OPLS-2005>
-793.758361816406

> <r_mmod_Solvation_Energy-OPLS-2005>
-230.097900390625

> <b_mmod_Minimization_Converged-OPLS-2005>
0

> <r_mmod_RMS_Derivative-OPLS-2005>
1.62283420562744

$$$$
84
                    3D
 Structure written by MMmdl.
151160  0  0  1  0            999 V2000
  -30.5508  -14.9698   20.4014 C   0  0  0  0  0  0
  -30.4368  -12.6075   19.4892 C   0  0  0  0  0  0
  -29.5160  -12.5367   18.2502 C   0  0  0  0  0  0
  -28.0524  -12.3189   18.6745 C   0  0  0  0  0  0
  -27.6275  -13.2536   19.8379 C   0  0  2  0  0  0
  -28.6743  -13.3045   20.9709 C   0  0  0  0  0  0
  -25.2504  -13.8239   20.5871 C   0  0  0  0  0  0
  -24.1775  -13.0437   20.9241 C   0  0  0  0  0  0
  -24.6388  -11.6929   20.8728 C   0  0  0  0  0  0
  -23.9070  -10.4290   21.0387 C   0  0  0  0  0  0
  -24.3625   -9.4210   21.9172 C   0  0  0  0  0  0
  -23.6298   -8.2245   22.0749 C   0  0  0  0  0  0
  -22.4281   -8.0281   21.3540 C   0  0  0  0  0  0
  -21.9912   -9.0252   20.4644 C   0  0  0  0  0  0
  -22.7240  -10.2132   20.3046 C   0  0  0  0  0  0
  -21.6852   -6.0740   22.5276 C   0  0  0  0  0  0
  -21.4016   -6.5640   23.8212 C   0  0  0  0  0  0
  -21.3667   -5.6792   24.9174 C   0  0  0  0  0  0
  -21.6046   -4.3055   24.7221 C   0  0  0  0  0  0
  -21.8817   -3.8147   23.4339 C   0  0  0  0  0  0
  -21.9190   -4.6966   22.3399 C   0  0  0  0  0  0
  -22.7797  -13.5215   21.1893 C   0  0  0  0  0  0
  -22.1658   -4.2151   21.0975 F   0  0  0  0  0  0
  -21.5630   -3.4540   25.7730 F   0  0  0  0  0  0
  -29.9446  -13.7138   20.3595 N   0  0  0  0  0  0
  -26.2893  -12.9468   20.3303 N   0  0  0  0  0  0
  -25.9324  -11.6584   20.5717 N   0  0  0  0  0  0
  -22.0441  -12.8195   22.0446 N   0  0  0  0  0  0
  -25.4281  -15.1979   20.4610 N   0  0  0  0  0  0
  -31.7590  -15.0104   20.1423 O   0  0  0  0  0  0
  -21.6642   -6.8886   21.4241 O   0  0  0  0  0  0
  -22.3480  -14.5515   20.6737 O   0  0  0  0  0  0
  -24.6456  -31.8439   23.1902 C   0  0  0  0  0  0
  -25.9213  -32.4698   23.8303 C   0  0  1  0  0  0
  -27.2043  -27.1138   20.1386 C   0  0  0  0  0  0
  -25.5969  -33.8505   24.2224 N   0  0  0  0  0  0
  -23.4490  -30.4675   21.5363 C   0  0  2  0  0  0
  -24.8984  -28.9042   20.1045 C   0  0  0  0  0  0
  -22.7581  -29.4551   22.4855 C   0  0  0  0  0  0
  -18.0308  -28.1392   22.8494 C   0  0  0  0  0  0
  -24.1487  -36.7264   23.2642 C   0  0  0  0  0  0
  -26.0088  -30.7111   21.3920 C   0  0  0  0  0  0
  -26.0774  -29.3205   20.7356 C   0  0  0  0  0  0
  -27.2307  -28.4397   20.7436 C   0  0  0  0  0  0
  -26.0003  -26.8281   19.4486 C   0  0  0  0  0  0
  -24.8757  -27.6729   19.4435 C   0  0  0  0  0  0
  -23.6737  -29.8038   20.1524 C   0  0  0  0  0  0
  -25.4115  -36.3034   24.0322 C   0  0  1  0  0  0
  -20.5929  -28.3719   23.1233 C   0  0  2  0  0  0
  -20.6797  -26.9425   22.5398 C   0  0  0  0  0  0
  -19.5750  -26.6382   21.5218 C   0  0  0  0  0  0
  -18.1944  -26.7929   22.1652 C   0  0  0  0  0  0
  -19.1570  -28.8875   23.2858 C   0  0  0  0  0  0
  -18.9482  -30.1477   23.8866 C   0  0  0  0  0  0
  -17.6475  -30.6594   24.0551 C   0  0  0  0  0  0
  -25.9058  -34.9408   23.5077 C   0  0  0  0  0  0
  -16.5368  -29.9082   23.6333 C   0  0  0  0  0  0
  -16.7291  -28.6498   23.0360 C   0  0  0  0  0  0
  -26.4535  -31.6553   25.0732 C   0  0  0  0  0  0
  -25.3743  -31.3758   26.1451 C   0  0  0  0  0  0
  -27.0370  -30.2953   24.6270 C   0  0  0  0  0  0
  -27.6094  -32.4289   25.7497 C   0  0  0  0  0  0
  -27.5567  -37.1793   24.8467 C   0  0  0  0  0  0
  -21.4269  -29.3056   22.3608 N   0  0  0  0  0  0
  -26.4279  -37.3747   23.9408 N   0  0  0  0  0  0
  -24.7217  -31.0283   22.0948 N   0  0  0  0  0  0
  -23.4231  -28.8077   23.2987 O   0  0  0  0  0  0
  -28.2133  -26.0679   20.2158 O   0  0  0  0  0  0
  -26.5640  -34.8904   22.4649 O   0  0  0  0  0  0
  -23.5565  -32.1315   23.7103 O   0  0  0  0  0  0
  -29.6637  -21.0724   21.1403 C   0  0  0  0  0  0
  -28.3093  -20.6372   19.2743 C   0  0  0  0  0  0
  -29.3433  -22.5067   21.0493 C   0  0  0  0  0  0
  -27.9987  -22.0506   19.1836 C   0  0  0  0  0  0
  -29.1435  -20.0362   20.2719 C   0  0  0  0  0  0
  -28.4689  -23.0895   20.0614 C   0  0  0  0  0  0
  -29.6827  -17.2439   19.4075 C   0  0  0  0  0  0
  -30.1119  -17.4035   21.3537 C   0  0  0  0  0  0
  -29.2709  -18.3778   20.4308 C   0  0  0  0  0  0
  -27.7624  -24.5958   19.9480 C   0  0  0  0  0  0
  -29.7920  -16.1811   20.4957 N   0  0  0  0  0  0
  -31.4672  -12.7679   19.1683 H   0  0  0  0  0  0
  -30.4349  -11.6617   20.0314 H   0  0  0  0  0  0
  -29.8369  -11.7350   17.5839 H   0  0  0  0  0  0
  -29.5966  -13.4623   17.6766 H   0  0  0  0  0  0
  -27.9515  -11.2775   18.9827 H   0  0  0  0  0  0
  -27.3845  -12.4482   17.8219 H   0  0  0  0  0  0
  -27.5808  -14.2533   19.4049 H   0  0  0  0  0  0
  -28.7725  -12.3416   21.4719 H   0  0  0  0  0  0
  -28.3745  -14.0252   21.7332 H   0  0  0  0  0  0
  -25.2779   -9.5685   22.4739 H   0  0  0  0  0  0
  -24.0015   -7.4633   22.7461 H   0  0  0  0  0  0
  -21.0846   -8.8765   19.8948 H   0  0  0  0  0  0
  -22.3700  -10.9665   19.6147 H   0  0  0  0  0  0
  -21.2011   -7.6150   23.9715 H   0  0  0  0  0  0
  -21.1496   -6.0527   25.9080 H   0  0  0  0  0  0
  -22.0592   -2.7607   23.2834 H   0  0  0  0  0  0
  -22.4068  -11.9869   22.4835 H   0  0  0  0  0  0
  -21.1049  -13.1203   22.2630 H   0  0  0  0  0  0
  -24.6987  -15.8602   20.7017 H   0  0  0  0  0  0
  -26.3317  -15.6348   20.3252 H   0  0  0  0  0  0
  -26.7274  -32.5299   23.1026 H   0  0  0  0  0  0
  -25.0116  -33.9633   25.0373 H   0  0  0  0  0  0
  -22.7526  -31.2943   21.3848 H   0  0  0  0  0  0
  -23.3744  -35.9598   23.3281 H   0  0  0  0  0  0
  -24.3582  -36.8901   22.2059 H   0  0  0  0  0  0
  -23.7236  -37.6463   23.6674 H   0  0  0  0  0  0
  -26.1595  -31.4594   20.6122 H   0  0  0  0  0  0
  -26.8843  -30.7698   22.0279 H   0  0  0  0  0  0
  -28.1187  -28.7480   21.2772 H   0  0  0  0  0  0
  -25.8614  -25.9047   18.9121 H   0  0  0  0  0  0
  -23.9837  -27.3587   18.9197 H   0  0  0  0  0  0
  -23.8031  -30.5783   19.3954 H   0  0  0  0  0  0
  -22.7891  -29.2420   19.8443 H   0  0  0  0  0  0
  -25.1298  -36.1867   25.0815 H   0  0  0  0  0  0
  -21.0041  -28.3281   24.1344 H   0  0  0  0  0  0
  -20.5714  -26.2321   23.3611 H   0  0  0  0  0  0
  -21.6652  -26.7437   22.1163 H   0  0  0  0  0  0
  -19.6896  -25.6290   21.1247 H   0  0  0  0  0  0
  -19.6653  -27.3192   20.6744 H   0  0  0  0  0  0
  -17.4203  -26.6657   21.4069 H   0  0  0  0  0  0
  -18.0357  -26.0098   22.9077 H   0  0  0  0  0  0
  -19.7953  -30.7314   24.2219 H   0  0  0  0  0  0
  -17.5017  -31.6270   24.5151 H   0  0  0  0  0  0
  -15.5361  -30.2967   23.7670 H   0  0  0  0  0  0
  -15.8696  -28.0796   22.7095 H   0  0  0  0  0  0
  -24.5749  -30.7342   25.7725 H   0  0  0  0  0  0
  -24.9178  -32.2980   26.5057 H   0  0  0  0  0  0
  -25.8013  -30.8695   27.0116 H   0  0  0  0  0  0
  -26.2964  -29.6704   24.1276 H   0  0  0  0  0  0
  -27.3994  -29.7221   25.4809 H   0  0  0  0  0  0
  -27.8873  -30.4204   23.9568 H   0  0  0  0  0  0
  -27.2725  -33.3620   26.2022 H   0  0  0  0  0  0
  -28.3940  -32.6786   25.0343 H   0  0  0  0  0  0
  -28.0710  -31.8429   26.5451 H   0  0  0  0  0  0
  -28.2579  -38.0100   24.7526 H   0  0  0  0  0  0
  -28.1078  -36.2635   24.6285 H   0  0  0  0  0  0
  -27.2294  -37.1417   25.8875 H   0  0  0  0  0  0
  -20.9474  -29.8794   21.6813 H   0  0  0  0  0  0
  -26.0140  -38.2811   24.1421 H   0  0  0  0  0  0
  -30.3032  -20.7613   21.9549 H   0  0  0  0  0  0
  -27.8254  -19.9799   18.5650 H   0  0  0  0  0  0
  -29.7544  -23.1646   21.8013 H   0  0  0  0  0  0
  -27.2920  -22.3369   18.4152 H   0  0  0  0  0  0
  -30.6303  -17.4499   18.9038 H   0  0  0  0  0  0
  -28.9099  -17.0487   18.6630 H   0  0  0  0  0  0
  -29.7142  -17.3516   22.3669 H   0  0  0  0  0  0
  -31.1761  -17.6511   21.3856 H   0  0  0  0  0  0
  -28.2313  -18.1594   20.6830 H   0  0  0  0  0  0
  -26.8271  -24.4711   20.4961 H   0  0  0  0  0  0
  -27.4921  -24.6139   18.8932 H   0  0  0  0  0  0
  1 25  1  0  0  0
  1 30  2  0  0  0
  1 81  1  0  0  0
  2  3  1  0  0  0
  2 25  1  0  0  0
  2 82  1  0  0  0
  2 83  1  0  0  0
  3  4  1  0  0  0
  3 84  1  0  0  0
  3 85  1  0  0  0
  4  5  1  0  0  0
  4 86  1  0  0  0
  4 87  1  0  0  0
  5  6  1  0  0  0
  5 26  1  0  0  0
  5 88  1  0  0  0
  6 25  1  0  0  0
  6 89  1  0  0  0
  6 90  1  0  0  0
  7  8  2  0  0  0
  7 26  1  0  0  0
  7 29  1  0  0  0
  8  9  1  0  0  0
  8 22  1  0  0  0
  9 10  1  0  0  0
  9 27  2  0  0  0
 10 11  2  0  0  0
 10 15  1  0  0  0
 11 12  1  0  0  0
 11 91  1  0  0  0
 12 13  2  0  0  0
 12 92  1  0  0  0
 13 14  1  0  0  0
 13 31  1  0  0  0
 14 15  2  0  0  0
 14 93  1  0  0  0
 15 94  1  0  0  0
 16 17  2  0  0  0
 16 21  1  0  0  0
 16 31  1  0  0  0
 17 18  1  0  0  0
 17 95  1  0  0  0
 18 19  2  0  0  0
 18 96  1  0  0  0
 19 20  1  0  0  0
 19 24  1  0  0  0
 20 21  2  0  0  0
 20 97  1  0  0  0
 21 23  1  0  0  0
 22 28  1  0  0  0
 22 32  2  0  0  0
 26 27  1  0  0  0
 28 98  1  0  0  0
 28 99  1  0  0  0
 29100  1  0  0  0
 29101  1  0  0  0
 33 34  1  0  0  0
 33 66  1  0  0  0
 33 70  2  0  0  0
 34 36  1  0  0  0
 34 59  1  0  0  0
 34102  1  0  0  0
 35 44  2  0  0  0
 35 45  1  0  0  0
 35 68  1  0  0  0
 36 56  1  0  0  0
 36103  1  0  0  0
 37 39  1  0  0  0
 37 47  1  0  0  0
 37 66  1  0  0  0
 37104  1  0  0  0
 38 43  2  0  0  0
 38 46  1  0  0  0
 38 47  1  0  0  0
 39 64  1  0  0  0
 39 67  2  0  0  0
 40 52  1  0  0  0
 40 53  2  0  0  0
 40 58  1  0  0  0
 41105  1  0  0  0
 41106  1  0  0  0
 41107  1  0  0  0
 41 48  1  0  0  0
 42 43  1  0  0  0
 42 66  1  0  0  0
 42108  1  0  0  0
 42109  1  0  0  0
 43 44  1  0  0  0
 44110  1  0  0  0
 45 46  2  0  0  0
 45111  1  0  0  0
 46112  1  0  0  0
 47113  1  0  0  0
 47114  1  0  0  0
 48 56  1  0  0  0
 48 65  1  0  0  0
 48115  1  0  0  0
 49 50  1  0  0  0
 49 53  1  0  0  0
 49 64  1  0  0  0
 49116  1  0  0  0
 50 51  1  0  0  0
 50117  1  0  0  0
 50118  1  0  0  0
 51 52  1  0  0  0
 51119  1  0  0  0
 51120  1  0  0  0
 52121  1  0  0  0
 52122  1  0  0  0
 53 54  1  0  0  0
 54 55  2  0  0  0
 54123  1  0  0  0
 55 57  1  0  0  0
 55124  1  0  0  0
 56 69  2  0  0  0
 57 58  2  0  0  0
 57125  1  0  0  0
 58126  1  0  0  0
 59 60  1  0  0  0
 59 61  1  0  0  0
 59 62  1  0  0  0
 60127  1  0  0  0
 60128  1  0  0  0
 60129  1  0  0  0
 61130  1  0  0  0
 61131  1  0  0  0
 61132  1  0  0  0
 62133  1  0  0  0
 62134  1  0  0  0
 62135  1  0  0  0
 63 65  1  0  0  0
 63136  1  0  0  0
 63137  1  0  0  0
 63138  1  0  0  0
 64139  1  0  0  0
 65140  1  0  0  0
 68 80  1  0  0  0
 71 73  2  0  0  0
 71 75  1  0  0  0
 71141  1  0  0  0
 72 74  1  0  0  0
 72 75  2  0  0  0
 72142  1  0  0  0
 73 76  1  0  0  0
 73143  1  0  0  0
 74 76  2  0  0  0
 74144  1  0  0  0
 75 79  1  0  0  0
 76 80  1  0  0  0
 77 79  1  0  0  0
 77 81  1  0  0  0
 77145  1  0  0  0
 77146  1  0  0  0
 78 79  1  0  0  0
 78 81  1  0  0  0
 78147  1  0  0  0
 78148  1  0  0  0
 79149  1  0  0  0
 80150  1  0  0  0
 80151  1  0  0  0
M  ISO  4   1 100  68 101  80 101  81 100
M  END
> <chiral flag>
0

> <version>
0

> <s_m_source_file>
/data/baiqing/PycharmProjects/Reinvent-master-3.2/result/LINK_invent/BTK/process_docking_weight1_custom_sum_contain_oxygen_bond_distance_aromatic_linkinvent_7_9_3/rearranged_h_0178.sdf

> <i_m_source_file_index>
84

> <r_mmod_Potential_Energy-OPLS-2005>
677.493225097656

> <r_mmod_Stretch_Energy-OPLS-2005>
237.724945068359

> <r_mmod_Bend_Energy-OPLS-2005>
308.809631347656

> <r_mmod_Torsional_Energy-OPLS-2005>
274.152954101562

> <r_mmod_Improper_Torsional_Energy-OPLS-2005>
15.2296056747437

> <r_mmod_Van_der_Waal_Energy-OPLS-2005>
138.715057373047

> <r_mmod_Electrostatic_Energy-OPLS-2005>
-314.335845947266

> <r_mmod_Solvation_Energy-OPLS-2005>
-200.333297729492

> <b_mmod_Minimization_Converged-OPLS-2005>
0

> <r_mmod_RMS_Derivative-OPLS-2005>
2.2789933681488

$$$$
85
                    3D
 Structure written by MMmdl.
172182  0  0  1  0            999 V2000
  -30.5267  -14.9893   20.4027 C   0  0  0  0  0  0
  -30.4410  -12.6129   19.5041 C   0  0  0  0  0  0
  -29.5255  -12.5390   18.2597 C   0  0  0  0  0  0
  -28.0595  -12.3171   18.6769 C   0  0  0  0  0  0
  -27.6285  -13.2532   19.8358 C   0  0  2  0  0  0
  -28.6698  -13.2996   20.9746 C   0  0  0  0  0  0
  -25.2459  -13.8227   20.5705 C   0  0  0  0  0  0
  -24.1781  -13.0444   20.9231 C   0  0  0  0  0  0
  -24.6406  -11.6932   20.8755 C   0  0  0  0  0  0
  -23.9095  -10.4297   21.0412 C   0  0  0  0  0  0
  -24.3641   -9.4210   21.9187 C   0  0  0  0  0  0
  -23.6307   -8.2250   22.0761 C   0  0  0  0  0  0
  -22.4287   -8.0291   21.3553 C   0  0  0  0  0  0
  -21.9932   -9.0266   20.4650 C   0  0  0  0  0  0
  -22.7269  -10.2139   20.3058 C   0  0  0  0  0  0
  -21.6857   -6.0741   22.5282 C   0  0  0  0  0  0
  -21.4013   -6.5644   23.8215 C   0  0  0  0  0  0
  -21.3660   -5.6797   24.9175 C   0  0  0  0  0  0
  -21.6045   -4.3059   24.7226 C   0  0  0  0  0  0
  -21.8817   -3.8153   23.4346 C   0  0  0  0  0  0
  -21.9194   -4.6971   22.3404 C   0  0  0  0  0  0
  -22.7798  -13.5211   21.1880 C   0  0  0  0  0  0
  -22.1661   -4.2156   21.0981 F   0  0  0  0  0  0
  -21.5631   -3.4541   25.7740 F   0  0  0  0  0  0
  -29.9426  -13.7191   20.3750 N   0  0  0  0  0  0
  -26.2883  -12.9464   20.3230 N   0  0  0  0  0  0
  -25.9338  -11.6589   20.5732 N   0  0  0  0  0  0
  -22.0444  -12.8198   22.0432 N   0  0  0  0  0  0
  -25.4115  -15.1957   20.4120 N   0  0  0  0  0  0
  -31.7312  -15.0488   20.1307 O   0  0  0  0  0  0
  -21.6646   -6.8890   21.4247 O   0  0  0  0  0  0
  -22.3477  -14.5509   20.6720 O   0  0  0  0  0  0
  -24.6465  -31.8407   23.1846 C   0  0  0  0  0  0
  -25.9225  -32.4676   23.8252 C   0  0  1  0  0  0
  -27.2183  -27.1000   20.1581 C   0  0  0  0  0  0
  -25.5962  -33.8483   24.2170 N   0  0  0  0  0  0
  -23.4518  -30.4575   21.5311 C   0  0  2  0  0  0
  -24.9027  -28.8764   20.1124 C   0  0  0  0  0  0
  -22.7587  -29.4524   22.4853 C   0  0  0  0  0  0
  -18.0307  -28.1400   22.8471 C   0  0  0  0  0  0
  -24.1490  -36.7239   23.2643 C   0  0  0  0  0  0
  -26.0099  -30.7032   21.3890 C   0  0  0  0  0  0
  -26.0815  -29.3105   20.7310 C   0  0  0  0  0  0
  -27.2393  -28.4395   20.7336 C   0  0  0  0  0  0
  -26.0111  -26.7737   19.5021 C   0  0  0  0  0  0
  -24.8824  -27.6231   19.4820 C   0  0  0  0  0  0
  -23.6814  -29.7835   20.1521 C   0  0  0  0  0  0
  -25.4128  -36.3016   24.0308 C   0  0  1  0  0  0
  -20.5919  -28.3728   23.1231 C   0  0  2  0  0  0
  -20.6790  -26.9429   22.5404 C   0  0  0  0  0  0
  -19.5765  -26.6383   21.5213 C   0  0  0  0  0  0
  -18.1946  -26.7936   22.1620 C   0  0  0  0  0  0
  -19.1563  -28.8885   23.2835 C   0  0  0  0  0  0
  -18.9480  -30.1482   23.8862 C   0  0  0  0  0  0
  -17.6477  -30.6595   24.0558 C   0  0  0  0  0  0
  -25.9081  -34.9396   23.5050 C   0  0  0  0  0  0
  -16.5367  -29.9085   23.6342 C   0  0  0  0  0  0
  -16.7290  -28.6505   23.0358 C   0  0  0  0  0  0
  -26.4538  -31.6556   25.0709 C   0  0  0  0  0  0
  -25.3712  -31.3750   26.1395 C   0  0  0  0  0  0
  -27.0419  -30.2950   24.6318 C   0  0  0  0  0  0
  -27.6058  -32.4331   25.7505 C   0  0  0  0  0  0
  -27.5573  -37.1775   24.8465 C   0  0  0  0  0  0
  -21.4275  -29.3045   22.3605 N   0  0  0  0  0  0
  -26.4286  -37.3736   23.9406 N   0  0  0  0  0  0
  -24.7227  -31.0226   22.0900 N   0  0  0  0  0  0
  -23.4218  -28.8086   23.3024 O   0  0  0  0  0  0
  -28.2722  -26.1065   20.2238 O   0  0  0  0  0  0
  -26.5667  -34.8899   22.4631 O   0  0  0  0  0  0
  -23.5578  -32.1307   23.7044 O   0  0  0  0  0  0
  -30.9334  -21.0361   20.1509 C   0  0  0  0  0  0
  -31.4500  -22.3391   19.9855 C   0  0  0  0  0  0
  -30.5736  -23.4798   19.9097 C   0  0  0  0  0  0
  -29.5783  -20.7700   20.3017 C   0  0  0  0  0  0
  -29.1584  -23.2850   20.1331 C   0  0  0  0  0  0
  -33.4960  -23.8589   19.9857 C   0  0  0  0  0  0
  -32.6677  -24.8254   19.1599 C   0  0  0  0  0  0
  -29.1081  -18.3222   19.2053 C   0  0  0  0  0  0
  -29.1729  -19.1572   20.4493 C   0  0  1  0  0  0
  -30.0367  -17.7002   20.2374 C   0  0  1  0  0  0
  -32.9851  -22.4224   19.8446 C   0  0  0  0  0  0
  -31.1726  -24.8767   19.5663 C   0  0  0  0  0  0
  -33.7077  -21.6079   20.9455 C   0  0  0  0  0  0
  -33.3940  -21.8465   18.4710 C   0  0  0  0  0  0
  -30.5182  -25.4920   18.2981 C   0  0  0  0  0  0
  -31.1198  -25.8031   20.8092 C   0  0  0  0  0  0
  -28.0418  -24.5471   20.0983 C   0  0  0  0  0  0
  -28.7267  -21.9190   20.2985 N   0  0  0  0  0  0
  -29.7351  -16.1780   20.5059 N   0  0  0  0  0  0
  -31.4742  -12.7718   19.1927 H   0  0  0  0  0  0
  -30.4387  -11.6654   20.0445 H   0  0  0  0  0  0
  -29.8526  -11.7391   17.5939 H   0  0  0  0  0  0
  -29.6083  -13.4659   17.6895 H   0  0  0  0  0  0
  -27.9612  -11.2764   18.9883 H   0  0  0  0  0  0
  -27.3986  -12.4437   17.8187 H   0  0  0  0  0  0
  -27.5861  -14.2518   19.3999 H   0  0  0  0  0  0
  -28.7634  -12.3301   21.4653 H   0  0  0  0  0  0
  -28.3621  -14.0086   21.7449 H   0  0  0  0  0  0
  -25.2783   -9.5681   22.4764 H   0  0  0  0  0  0
  -24.0015   -7.4638   22.7478 H   0  0  0  0  0  0
  -21.0867   -8.8791   19.8944 H   0  0  0  0  0  0
  -22.3740  -10.9681   19.6166 H   0  0  0  0  0  0
  -21.2001   -7.6151   23.9718 H   0  0  0  0  0  0
  -21.1482   -6.0527   25.9079 H   0  0  0  0  0  0
  -22.0595   -2.7617   23.2846 H   0  0  0  0  0  0
  -22.4072  -11.9877   22.4846 H   0  0  0  0  0  0
  -21.1049  -13.1203   22.2603 H   0  0  0  0  0  0
  -24.6395  -15.8447   20.5185 H   0  0  0  0  0  0
  -26.2463  -15.6350   20.0471 H   0  0  0  0  0  0
  -26.7291  -32.5269   23.0975 H   0  0  0  0  0  0
  -25.0085  -33.9596   25.0301 H   0  0  0  0  0  0
  -22.7547  -31.2831   21.3733 H   0  0  0  0  0  0
  -23.3764  -35.9557   23.3288 H   0  0  0  0  0  0
  -24.3568  -36.8897   22.2061 H   0  0  0  0  0  0
  -23.7237  -37.6423   23.6702 H   0  0  0  0  0  0
  -26.1689  -31.4565   20.6165 H   0  0  0  0  0  0
  -26.8780  -30.7545   22.0343 H   0  0  0  0  0  0
  -28.1373  -28.7682   21.2377 H   0  0  0  0  0  0
  -25.9034  -25.8178   19.0141 H   0  0  0  0  0  0
  -23.9820  -27.2862   18.9871 H   0  0  0  0  0  0
  -23.8233  -30.5567   19.3961 H   0  0  0  0  0  0
  -22.7951  -29.2281   19.8398 H   0  0  0  0  0  0
  -25.1319  -36.1833   25.0799 H   0  0  0  0  0  0
  -20.9995  -28.3318   24.1358 H   0  0  0  0  0  0
  -20.5691  -26.2339   23.3624 H   0  0  0  0  0  0
  -21.6655  -26.7434   22.1201 H   0  0  0  0  0  0
  -19.6925  -25.6286   21.1264 H   0  0  0  0  0  0
  -19.6704  -27.3177   20.6732 H   0  0  0  0  0  0
  -17.4213  -26.6679   21.4024 H   0  0  0  0  0  0
  -18.0339  -26.0087   22.9027 H   0  0  0  0  0  0
  -19.7958  -30.7306   24.2212 H   0  0  0  0  0  0
  -17.5031  -31.6271   24.5170 H   0  0  0  0  0  0
  -15.5366  -30.2976   23.7690 H   0  0  0  0  0  0
  -15.8689  -28.0816   22.7092 H   0  0  0  0  0  0
  -24.5903  -30.7087   25.7710 H   0  0  0  0  0  0
  -24.8886  -32.2932   26.4754 H   0  0  0  0  0  0
  -25.7987  -30.8966   27.0217 H   0  0  0  0  0  0
  -26.3052  -29.6652   24.1318 H   0  0  0  0  0  0
  -27.4017  -29.7269   25.4907 H   0  0  0  0  0  0
  -27.8961  -30.4179   23.9656 H   0  0  0  0  0  0
  -27.2648  -33.3658   26.2013 H   0  0  0  0  0  0
  -28.3916  -32.6853   25.0369 H   0  0  0  0  0  0
  -28.0678  -31.8501   26.5484 H   0  0  0  0  0  0
  -28.2576  -38.0085   24.7521 H   0  0  0  0  0  0
  -28.1085  -36.2614   24.6287 H   0  0  0  0  0  0
  -27.2282  -37.1410   25.8865 H   0  0  0  0  0  0
  -20.9503  -29.8742   21.6759 H   0  0  0  0  0  0
  -26.0145  -38.2796   24.1430 H   0  0  0  0  0  0
  -31.5979  -20.1871   20.1402 H   0  0  0  0  0  0
  -33.4686  -24.1599   21.0320 H   0  0  0  0  0  0
  -34.5449  -23.9232   19.6938 H   0  0  0  0  0  0
  -32.7797  -24.5324   18.1161 H   0  0  0  0  0  0
  -33.1108  -25.8215   19.2101 H   0  0  0  0  0  0
  -29.5886  -18.7213   18.3143 H   0  0  0  0  0  0
  -28.1559  -17.8326   19.0124 H   0  0  0  0  0  0
  -28.3252  -19.0936   21.1281 H   0  0  0  0  0  0
  -31.1006  -17.8868   20.1019 H   0  0  0  0  0  0
  -33.3815  -21.9120   21.9404 H   0  0  0  0  0  0
  -34.7864  -21.7589   20.8971 H   0  0  0  0  0  0
  -33.5510  -20.5334   20.8636 H   0  0  0  0  0  0
  -32.8796  -22.3476   17.6515 H   0  0  0  0  0  0
  -33.1483  -20.7876   18.3917 H   0  0  0  0  0  0
  -34.4664  -21.9416   18.2984 H   0  0  0  0  0  0
  -30.6826  -24.8537   17.4285 H   0  0  0  0  0  0
  -30.9559  -26.4636   18.0642 H   0  0  0  0  0  0
  -29.4500  -25.6473   18.3221 H   0  0  0  0  0  0
  -31.8810  -25.5466   21.5437 H   0  0  0  0  0  0
  -30.1952  -25.7460   21.3721 H   0  0  0  0  0  0
  -31.2860  -26.8462   20.5376 H   0  0  0  0  0  0
  -27.3048  -24.3006   20.8630 H   0  0  0  0  0  0
  -27.5270  -24.3940   19.1508 H   0  0  0  0  0  0
  -28.7694  -15.9848   20.7266 H   0  0  0  0  0  0
  1 25  1  0  0  0
  1 30  2  0  0  0
  1 89  1  0  0  0
  2  3  1  0  0  0
  2 25  1  0  0  0
  2 90  1  0  0  0
  2 91  1  0  0  0
  3  4  1  0  0  0
  3 92  1  0  0  0
  3 93  1  0  0  0
  4  5  1  0  0  0
  4 94  1  0  0  0
  4 95  1  0  0  0
  5  6  1  0  0  0
  5 26  1  0  0  0
  5 96  1  0  0  0
  6 25  1  0  0  0
  6 97  1  0  0  0
  6 98  1  0  0  0
  7  8  2  0  0  0
  7 26  1  0  0  0
  7 29  1  0  0  0
  8  9  1  0  0  0
  8 22  1  0  0  0
  9 10  1  0  0  0
  9 27  2  0  0  0
 10 11  2  0  0  0
 10 15  1  0  0  0
 11 12  1  0  0  0
 11 99  1  0  0  0
 12 13  2  0  0  0
 12100  1  0  0  0
 13 14  1  0  0  0
 13 31  1  0  0  0
 14 15  2  0  0  0
 14101  1  0  0  0
 15102  1  0  0  0
 16 17  2  0  0  0
 16 21  1  0  0  0
 16 31  1  0  0  0
 17 18  1  0  0  0
 17103  1  0  0  0
 18 19  2  0  0  0
 18104  1  0  0  0
 19 20  1  0  0  0
 19 24  1  0  0  0
 20 21  2  0  0  0
 20105  1  0  0  0
 21 23  1  0  0  0
 22 28  1  0  0  0
 22 32  2  0  0  0
 26 27  1  0  0  0
 28106  1  0  0  0
 28107  1  0  0  0
 29108  1  0  0  0
 29109  1  0  0  0
 33 34  1  0  0  0
 33 66  1  0  0  0
 33 70  2  0  0  0
 34 36  1  0  0  0
 34 59  1  0  0  0
 34110  1  0  0  0
 35 44  2  0  0  0
 35 45  1  0  0  0
 35 68  1  0  0  0
 36 56  1  0  0  0
 36111  1  0  0  0
 37 39  1  0  0  0
 37 47  1  0  0  0
 37 66  1  0  0  0
 37112  1  0  0  0
 38 43  2  0  0  0
 38 46  1  0  0  0
 38 47  1  0  0  0
 39 64  1  0  0  0
 39 67  2  0  0  0
 40 52  1  0  0  0
 40 53  2  0  0  0
 40 58  1  0  0  0
 41113  1  0  0  0
 41114  1  0  0  0
 41115  1  0  0  0
 41 48  1  0  0  0
 42 43  1  0  0  0
 42 66  1  0  0  0
 42116  1  0  0  0
 42117  1  0  0  0
 43 44  1  0  0  0
 44118  1  0  0  0
 45 46  2  0  0  0
 45119  1  0  0  0
 46120  1  0  0  0
 47121  1  0  0  0
 47122  1  0  0  0
 48 56  1  0  0  0
 48 65  1  0  0  0
 48123  1  0  0  0
 49 50  1  0  0  0
 49 53  1  0  0  0
 49 64  1  0  0  0
 49124  1  0  0  0
 50 51  1  0  0  0
 50125  1  0  0  0
 50126  1  0  0  0
 51 52  1  0  0  0
 51127  1  0  0  0
 51128  1  0  0  0
 52129  1  0  0  0
 52130  1  0  0  0
 53 54  1  0  0  0
 54 55  2  0  0  0
 54131  1  0  0  0
 55 57  1  0  0  0
 55132  1  0  0  0
 56 69  2  0  0  0
 57 58  2  0  0  0
 57133  1  0  0  0
 58134  1  0  0  0
 59 60  1  0  0  0
 59 61  1  0  0  0
 59 62  1  0  0  0
 60135  1  0  0  0
 60136  1  0  0  0
 60137  1  0  0  0
 61138  1  0  0  0
 61139  1  0  0  0
 61140  1  0  0  0
 62141  1  0  0  0
 62142  1  0  0  0
 62143  1  0  0  0
 63 65  1  0  0  0
 63144  1  0  0  0
 63145  1  0  0  0
 63146  1  0  0  0
 64147  1  0  0  0
 65148  1  0  0  0
 68 87  1  0  0  0
 71 72  2  0  0  0
 71 74  1  0  0  0
 71149  1  0  0  0
 72 73  1  0  0  0
 72 81  1  0  0  0
 73 75  2  0  0  0
 73 82  1  0  0  0
 74 88  2  0  0  0
 74 79  1  0  0  0
 75 87  1  0  0  0
 75 88  1  0  0  0
 76 77  1  0  0  0
 76 81  1  0  0  0
 76150  1  0  0  0
 76151  1  0  0  0
 77 82  1  0  0  0
 77152  1  0  0  0
 77153  1  0  0  0
 78 79  1  0  0  0
 78 80  1  0  0  0
 78154  1  0  0  0
 78155  1  0  0  0
 79 80  1  0  0  0
 79156  1  0  0  0
 80 89  1  0  0  0
 80157  1  0  0  0
 81 83  1  0  0  0
 81 84  1  0  0  0
 82 85  1  0  0  0
 82 86  1  0  0  0
 83158  1  0  0  0
 83159  1  0  0  0
 83160  1  0  0  0
 84161  1  0  0  0
 84162  1  0  0  0
 84163  1  0  0  0
 85164  1  0  0  0
 85165  1  0  0  0
 85166  1  0  0  0
 86167  1  0  0  0
 86168  1  0  0  0
 86169  1  0  0  0
 87170  1  0  0  0
 87171  1  0  0  0
 89172  1  0  0  0
M  ISO  4   1 100  68 101  87 101  89 100
M  END
> <chiral flag>
0

> <version>
0

> <s_m_source_file>
/data/baiqing/PycharmProjects/Reinvent-master-3.2/result/LINK_invent/BTK/process_docking_weight1_custom_sum_contain_oxygen_bond_distance_aromatic_linkinvent_7_9_3/rearranged_h_0178.sdf

> <i_m_source_file_index>
85

> <r_mmod_Potential_Energy-OPLS-2005>
554.812438964844

> <r_mmod_Stretch_Energy-OPLS-2005>
334.804229736328

> <r_mmod_Bend_Energy-OPLS-2005>
298.404693603516

> <r_mmod_Torsional_Energy-OPLS-2005>
278.924774169922

> <r_mmod_Improper_Torsional_Energy-OPLS-2005>
5.33248376846313

> <r_mmod_Van_der_Waal_Energy-OPLS-2005>
157.730163574219

> <r_mmod_Electrostatic_Energy-OPLS-2005>
-524.497985839844

> <r_mmod_Solvation_Energy-OPLS-2005>
-218.108871459961

> <b_mmod_Minimization_Converged-OPLS-2005>
0

> <r_mmod_RMS_Derivative-OPLS-2005>
0.75544661283493

$$$$
86
                    3D
 Structure written by MMmdl.
168177  0  0  1  0            999 V2000
  -30.4526  -15.2134   20.3887 C   0  0  0  0  0  0
  -30.4418  -12.7851   19.4990 C   0  0  0  0  0  0
  -29.5290  -12.5551   18.2688 C   0  0  0  0  0  0
  -28.0766  -12.2886   18.7039 C   0  0  0  0  0  0
  -27.6096  -13.2652   19.8116 C   0  0  2  0  0  0
  -28.6487  -13.4284   20.9413 C   0  0  0  0  0  0
  -25.2401  -13.8223   20.5760 C   0  0  0  0  0  0
  -24.1760  -13.0420   20.9291 C   0  0  0  0  0  0
  -24.6396  -11.6919   20.8775 C   0  0  0  0  0  0
  -23.9080  -10.4287   21.0414 C   0  0  0  0  0  0
  -24.3622   -9.4201   21.9198 C   0  0  0  0  0  0
  -23.6293   -8.2242   22.0746 C   0  0  0  0  0  0
  -22.4266   -8.0286   21.3543 C   0  0  0  0  0  0
  -21.9925   -9.0263   20.4646 C   0  0  0  0  0  0
  -22.7258  -10.2145   20.3053 C   0  0  0  0  0  0
  -21.6854   -6.0745   22.5289 C   0  0  0  0  0  0
  -21.4024   -6.5647   23.8225 C   0  0  0  0  0  0
  -21.3644   -5.6792   24.9187 C   0  0  0  0  0  0
  -21.6038   -4.3054   24.7239 C   0  0  0  0  0  0
  -21.8813   -3.8149   23.4352 C   0  0  0  0  0  0
  -21.9213   -4.6971   22.3416 C   0  0  0  0  0  0
  -22.7784  -13.5204   21.1918 C   0  0  0  0  0  0
  -22.1669   -4.2165   21.0987 F   0  0  0  0  0  0
  -21.5618   -3.4528   25.7741 F   0  0  0  0  0  0
  -29.8780  -13.9241   20.3029 N   0  0  0  0  0  0
  -26.2804  -12.9486   20.3167 N   0  0  0  0  0  0
  -25.9318  -11.6597   20.5689 N   0  0  0  0  0  0
  -22.0418  -12.8202   22.0461 N   0  0  0  0  0  0
  -25.3989  -15.1964   20.4190 N   0  0  0  0  0  0
  -31.6846  -15.2243   20.2563 O   0  0  0  0  0  0
  -21.6621   -6.8885   21.4245 O   0  0  0  0  0  0
  -22.3496  -14.5520   20.6742 O   0  0  0  0  0  0
  -24.6652  -31.8262   23.1729 C   0  0  0  0  0  0
  -25.9355  -32.4599   23.8151 C   0  0  1  0  0  0
  -27.2148  -26.9619   20.1665 C   0  0  0  0  0  0
  -25.6027  -33.8400   24.2090 N   0  0  0  0  0  0
  -23.4742  -30.4455   21.5186 C   0  0  2  0  0  0
  -24.9232  -28.8386   20.1057 C   0  0  0  0  0  0
  -22.7666  -29.4493   22.4747 C   0  0  0  0  0  0
  -18.0334  -28.1454   22.8479 C   0  0  0  0  0  0
  -24.1450  -36.7159   23.2642 C   0  0  0  0  0  0
  -26.0406  -30.6472   21.3918 C   0  0  0  0  0  0
  -26.1079  -29.2386   20.7371 C   0  0  0  0  0  0
  -27.2472  -28.3201   20.7482 C   0  0  0  0  0  0
  -26.0048  -26.7149   19.4759 C   0  0  0  0  0  0
  -24.8949  -27.5963   19.4550 C   0  0  0  0  0  0
  -23.7103  -29.7649   20.1430 C   0  0  0  0  0  0
  -25.4093  -36.2943   24.0300 C   0  0  1  0  0  0
  -20.5963  -28.3784   23.1175 C   0  0  2  0  0  0
  -20.6790  -26.9462   22.5396 C   0  0  0  0  0  0
  -19.5749  -26.6430   21.5214 C   0  0  0  0  0  0
  -18.1939  -26.7994   22.1632 C   0  0  0  0  0  0
  -19.1606  -28.8937   23.2820 C   0  0  0  0  0  0
  -18.9510  -30.1529   23.8856 C   0  0  0  0  0  0
  -17.6498  -30.6634   24.0585 C   0  0  0  0  0  0
  -25.9074  -34.9341   23.4986 C   0  0  0  0  0  0
  -16.5397  -29.9120   23.6376 C   0  0  0  0  0  0
  -16.7325  -28.6550   23.0376 C   0  0  0  0  0  0
  -26.4622  -31.6532   25.0662 C   0  0  0  0  0  0
  -25.3773  -31.3814   26.1346 C   0  0  0  0  0  0
  -27.0488  -30.2903   24.6345 C   0  0  0  0  0  0
  -27.6121  -32.4311   25.7467 C   0  0  0  0  0  0
  -27.5530  -37.1729   24.8470 C   0  0  0  0  0  0
  -21.4341  -29.3070   22.3501 N   0  0  0  0  0  0
  -26.4216  -37.3716   23.9443 N   0  0  0  0  0  0
  -24.7487  -30.9997   22.0818 N   0  0  0  0  0  0
  -23.4222  -28.8058   23.2983 O   0  0  0  0  0  0
  -28.2008  -25.8518   20.2610 O   0  0  0  0  0  0
  -26.5664  -34.8902   22.4573 O   0  0  0  0  0  0
  -23.5739  -32.1200   23.6866 O   0  0  0  0  0  0
  -29.7881  -22.1245   19.7345 C   0  0  0  0  0  0
  -30.1683  -20.6878   19.8539 C   0  0  0  0  0  0
  -29.3630  -19.6353   20.4377 C   0  0  0  0  0  0
  -28.5649  -22.7233   20.2372 C   0  0  0  0  0  0
  -28.1483  -20.3060   20.8883 C   0  0  0  0  0  0
  -32.1901  -19.4476   20.6449 C   0  0  0  0  0  0
  -31.5370  -20.1643   19.4362 C   0  0  2  0  0  0
  -30.0202  -18.0585   20.8129 C   0  0  1  0  0  0
  -27.0860  -19.4847   21.5902 C   0  0  0  0  0  0
  -32.4808  -21.2320   18.8571 C   0  0  0  0  0  0
  -31.3330  -19.0896   23.6018 C   0  0  0  0  0  0
  -33.2242  -17.5481   22.8657 C   0  0  0  0  0  0
  -27.8546  -24.2907   19.9383 C   0  0  0  0  0  0
  -31.7576  -17.9575   22.6344 C   0  0  0  0  0  0
  -27.8010  -21.6841   20.7825 N   0  0  0  0  0  0
  -29.6957  -16.4792   20.4386 N   0  0  0  0  0  0
  -31.4642  -18.2496   21.1897 N   0  3  2  0  0  0
  -31.4568  -13.0027   19.1616 H   0  0  0  0  0  0
  -30.5188  -11.8819   20.1044 H   0  0  0  0  0  0
  -29.9010  -11.7219   17.6705 H   0  0  0  0  0  0
  -29.5600  -13.4326   17.6221 H   0  0  0  0  0  0
  -28.0314  -11.2661   19.0809 H   0  0  0  0  0  0
  -27.4061  -12.3319   17.8436 H   0  0  0  0  0  0
  -27.5252  -14.2308   19.3135 H   0  0  0  0  0  0
  -28.8175  -12.4924   21.4717 H   0  0  0  0  0  0
  -28.2986  -14.1503   21.6801 H   0  0  0  0  0  0
  -25.2763   -9.5697   22.4774 H   0  0  0  0  0  0
  -24.0029   -7.4628   22.7441 H   0  0  0  0  0  0
  -21.0868   -8.8777   19.8937 H   0  0  0  0  0  0
  -22.3711  -10.9684   19.6158 H   0  0  0  0  0  0
  -21.1995   -7.6148   23.9743 H   0  0  0  0  0  0
  -21.1460   -6.0507   25.9096 H   0  0  0  0  0  0
  -22.0600   -2.7613   23.2840 H   0  0  0  0  0  0
  -22.4022  -11.9861   22.4845 H   0  0  0  0  0  0
  -21.1014  -13.1223   22.2601 H   0  0  0  0  0  0
  -24.6069  -15.8237   20.5085 H   0  0  0  0  0  0
  -26.2087  -15.6425   20.0104 H   0  0  0  0  0  0
  -26.7414  -32.5178   23.0863 H   0  0  0  0  0  0
  -25.0225  -33.9451   25.0277 H   0  0  0  0  0  0
  -22.7857  -31.2780   21.3518 H   0  0  0  0  0  0
  -23.3744  -35.9457   23.3270 H   0  0  0  0  0  0
  -24.3538  -36.8840   22.2066 H   0  0  0  0  0  0
  -23.7152  -37.6318   23.6704 H   0  0  0  0  0  0
  -26.2092  -31.3889   20.6086 H   0  0  0  0  0  0
  -26.9053  -30.7083   22.0400 H   0  0  0  0  0  0
  -28.1406  -28.6216   21.2768 H   0  0  0  0  0  0
  -25.8718  -25.7746   18.9629 H   0  0  0  0  0  0
  -23.9948  -27.2885   18.9384 H   0  0  0  0  0  0
  -23.8628  -30.5317   19.3806 H   0  0  0  0  0  0
  -22.8184  -29.2172   19.8307 H   0  0  0  0  0  0
  -25.1287  -36.1707   25.0787 H   0  0  0  0  0  0
  -21.0092  -28.3412   24.1285 H   0  0  0  0  0  0
  -20.5637  -26.2429   23.3656 H   0  0  0  0  0  0
  -21.6652  -26.7407   22.1222 H   0  0  0  0  0  0
  -19.6874  -25.6332   21.1261 H   0  0  0  0  0  0
  -19.6684  -27.3217   20.6713 H   0  0  0  0  0  0
  -17.4216  -26.6805   21.4016 H   0  0  0  0  0  0
  -18.0289  -26.0145   22.9027 H   0  0  0  0  0  0
  -19.7978  -30.7364   24.2192 H   0  0  0  0  0  0
  -17.5059  -31.6301   24.5208 H   0  0  0  0  0  0
  -15.5383  -30.3006   23.7721 H   0  0  0  0  0  0
  -15.8737  -28.0852   22.7098 H   0  0  0  0  0  0
  -24.5977  -30.7107   25.7729 H   0  0  0  0  0  0
  -24.8951  -32.3034   26.4600 H   0  0  0  0  0  0
  -25.8074  -30.9155   27.0224 H   0  0  0  0  0  0
  -26.3149  -29.6617   24.1295 H   0  0  0  0  0  0
  -27.3994  -29.7229   25.4976 H   0  0  0  0  0  0
  -27.9106  -30.4101   23.9771 H   0  0  0  0  0  0
  -27.2727  -33.3701   26.1861 H   0  0  0  0  0  0
  -28.4071  -32.6719   25.0384 H   0  0  0  0  0  0
  -28.0626  -31.8525   26.5554 H   0  0  0  0  0  0
  -28.2543  -38.0031   24.7544 H   0  0  0  0  0  0
  -28.1027  -36.2568   24.6246 H   0  0  0  0  0  0
  -27.2278  -37.1334   25.8885 H   0  0  0  0  0  0
  -20.9587  -29.8776   21.6652 H   0  0  0  0  0  0
  -26.0044  -38.2746   24.1554 H   0  0  0  0  0  0
  -30.4604  -22.8060   19.2325 H   0  0  0  0  0  0
  -32.3249  -20.1959   21.4232 H   0  0  0  0  0  0
  -33.1958  -19.1229   20.3781 H   0  0  0  0  0  0
  -31.3700  -19.4287   18.6469 H   0  0  0  0  0  0
  -29.5072  -18.0017   21.7721 H   0  0  0  0  0  0
  -27.2595  -19.4703   22.6666 H   0  0  0  0  0  0
  -27.0806  -18.4577   21.2241 H   0  0  0  0  0  0
  -26.0943  -19.9022   21.4114 H   0  0  0  0  0  0
  -32.6743  -22.0306   19.5738 H   0  0  0  0  0  0
  -32.0685  -21.6777   17.9515 H   0  0  0  0  0  0
  -33.4431  -20.7940   18.5905 H   0  0  0  0  0  0
  -31.3256  -18.7293   24.6306 H   0  0  0  0  0  0
  -30.3315  -19.4634   23.3929 H   0  0  0  0  0  0
  -32.0155  -19.9379   23.5798 H   0  0  0  0  0  0
  -33.3925  -17.3008   23.9157 H   0  0  0  0  0  0
  -33.9221  -18.3434   22.6051 H   0  0  0  0  0  0
  -33.4870  -16.6632   22.2852 H   0  0  0  0  0  0
  -26.8531  -24.1704   20.3511 H   0  0  0  0  0  0
  -27.6986  -24.2803   18.8591 H   0  0  0  0  0  0
  -31.1726  -17.0786   22.9115 H   0  0  0  0  0  0
  -28.7034  -16.3132   20.3626 H   0  0  0  0  0  0
  -31.9085  -17.4849   20.6983 H   0  0  0  0  0  0
  1 25  1  0  0  0
  1 30  2  0  0  0
  1 86  1  0  0  0
  2  3  1  0  0  0
  2 25  1  0  0  0
  2 88  1  0  0  0
  2 89  1  0  0  0
  3  4  1  0  0  0
  3 90  1  0  0  0
  3 91  1  0  0  0
  4  5  1  0  0  0
  4 92  1  0  0  0
  4 93  1  0  0  0
  5  6  1  0  0  0
  5 26  1  0  0  0
  5 94  1  0  0  0
  6 25  1  0  0  0
  6 95  1  0  0  0
  6 96  1  0  0  0
  7  8  2  0  0  0
  7 26  1  0  0  0
  7 29  1  0  0  0
  8  9  1  0  0  0
  8 22  1  0  0  0
  9 10  1  0  0  0
  9 27  2  0  0  0
 10 11  2  0  0  0
 10 15  1  0  0  0
 11 12  1  0  0  0
 11 97  1  0  0  0
 12 13  2  0  0  0
 12 98  1  0  0  0
 13 14  1  0  0  0
 13 31  1  0  0  0
 14 15  2  0  0  0
 14 99  1  0  0  0
 15100  1  0  0  0
 16 17  2  0  0  0
 16 21  1  0  0  0
 16 31  1  0  0  0
 17 18  1  0  0  0
 17101  1  0  0  0
 18 19  2  0  0  0
 18102  1  0  0  0
 19 20  1  0  0  0
 19 24  1  0  0  0
 20 21  2  0  0  0
 20103  1  0  0  0
 21 23  1  0  0  0
 22 28  1  0  0  0
 22 32  2  0  0  0
 26 27  1  0  0  0
 28104  1  0  0  0
 28105  1  0  0  0
 29106  1  0  0  0
 29107  1  0  0  0
 33 34  1  0  0  0
 33 66  1  0  0  0
 33 70  2  0  0  0
 34 36  1  0  0  0
 34 59  1  0  0  0
 34108  1  0  0  0
 35 44  2  0  0  0
 35 45  1  0  0  0
 35 68  1  0  0  0
 36 56  1  0  0  0
 36109  1  0  0  0
 37 39  1  0  0  0
 37 47  1  0  0  0
 37 66  1  0  0  0
 37110  1  0  0  0
 38 43  2  0  0  0
 38 46  1  0  0  0
 38 47  1  0  0  0
 39 64  1  0  0  0
 39 67  2  0  0  0
 40 52  1  0  0  0
 40 53  2  0  0  0
 40 58  1  0  0  0
 41111  1  0  0  0
 41112  1  0  0  0
 41113  1  0  0  0
 41 48  1  0  0  0
 42 43  1  0  0  0
 42 66  1  0  0  0
 42114  1  0  0  0
 42115  1  0  0  0
 43 44  1  0  0  0
 44116  1  0  0  0
 45 46  2  0  0  0
 45117  1  0  0  0
 46118  1  0  0  0
 47119  1  0  0  0
 47120  1  0  0  0
 48 56  1  0  0  0
 48 65  1  0  0  0
 48121  1  0  0  0
 49 50  1  0  0  0
 49 53  1  0  0  0
 49 64  1  0  0  0
 49122  1  0  0  0
 50 51  1  0  0  0
 50123  1  0  0  0
 50124  1  0  0  0
 51 52  1  0  0  0
 51125  1  0  0  0
 51126  1  0  0  0
 52127  1  0  0  0
 52128  1  0  0  0
 53 54  1  0  0  0
 54 55  2  0  0  0
 54129  1  0  0  0
 55 57  1  0  0  0
 55130  1  0  0  0
 56 69  2  0  0  0
 57 58  2  0  0  0
 57131  1  0  0  0
 58132  1  0  0  0
 59 60  1  0  0  0
 59 61  1  0  0  0
 59 62  1  0  0  0
 60133  1  0  0  0
 60134  1  0  0  0
 60135  1  0  0  0
 61136  1  0  0  0
 61137  1  0  0  0
 61138  1  0  0  0
 62139  1  0  0  0
 62140  1  0  0  0
 62141  1  0  0  0
 63 65  1  0  0  0
 63142  1  0  0  0
 63143  1  0  0  0
 63144  1  0  0  0
 64145  1  0  0  0
 65146  1  0  0  0
 68 83  1  0  0  0
 71 72  2  0  0  0
 71 74  1  0  0  0
 71147  1  0  0  0
 72 73  1  0  0  0
 72 77  1  0  0  0
 73 75  2  0  0  0
 73 78  1  0  0  0
 74 83  1  0  0  0
 74 85  2  0  0  0
 75 79  1  0  0  0
 75 85  1  0  0  0
 76 77  1  0  0  0
 76148  1  0  0  0
 76149  1  0  0  0
 76 87  1  0  0  0
 77 80  1  0  0  0
 77150  1  0  0  0
 78 86  1  0  0  0
 78 87  1  0  0  0
 78151  1  0  0  0
 79152  1  0  0  0
 79153  1  0  0  0
 79154  1  0  0  0
 80155  1  0  0  0
 80156  1  0  0  0
 80157  1  0  0  0
 81158  1  0  0  0
 81159  1  0  0  0
 81160  1  0  0  0
 81 84  1  0  0  0
 82 84  1  0  0  0
 82161  1  0  0  0
 82162  1  0  0  0
 82163  1  0  0  0
 83164  1  0  0  0
 83165  1  0  0  0
 84 87  1  0  0  0
 84166  1  0  0  0
 86167  1  0  0  0
 87168  1  0  0  0
M  CHG  1  87   1
M  ISO  4   1 100  68 101  83 101  86 100
M  END
> <chiral flag>
0

> <version>
0

> <s_m_source_file>
/data/baiqing/PycharmProjects/Reinvent-master-3.2/result/LINK_invent/BTK/process_docking_weight1_custom_sum_contain_oxygen_bond_distance_aromatic_linkinvent_7_9_3/rearranged_h_0178.sdf

> <i_m_source_file_index>
86

> <r_mmod_Potential_Energy-OPLS-2005>
956.891845703125

> <r_mmod_Stretch_Energy-OPLS-2005>
478.837188720703

> <r_mmod_Bend_Energy-OPLS-2005>
463.584197998047

> <r_mmod_Torsional_Energy-OPLS-2005>
263.253692626953

> <r_mmod_Improper_Torsional_Energy-OPLS-2005>
9.30936813354492

> <r_mmod_Van_der_Waal_Energy-OPLS-2005>
137.369232177734

> <r_mmod_Electrostatic_Energy-OPLS-2005>
-388.874572753906

> <r_mmod_Solvation_Energy-OPLS-2005>
-425.052703857422

> <b_mmod_Minimization_Converged-OPLS-2005>
0

> <r_mmod_RMS_Derivative-OPLS-2005>
3.58652544021606

$$$$
87
                    3D
 Structure written by MMmdl.
154163  0  0  1  0            999 V2000
  -30.5481  -14.9579   20.4170 C   0  0  0  0  0  0
  -30.4384  -12.5946   19.5010 C   0  0  0  0  0  0
  -29.5218  -12.5307   18.2572 C   0  0  0  0  0  0
  -28.0553  -12.3155   18.6754 C   0  0  0  0  0  0
  -27.6287  -13.2505   19.8374 C   0  0  2  0  0  0
  -28.6711  -13.2895   20.9753 C   0  0  0  0  0  0
  -25.2455  -13.8220   20.5714 C   0  0  0  0  0  0
  -24.1778  -13.0440   20.9237 C   0  0  0  0  0  0
  -24.6397  -11.6927   20.8760 C   0  0  0  0  0  0
  -23.9083  -10.4294   21.0412 C   0  0  0  0  0  0
  -24.3629   -9.4206   21.9189 C   0  0  0  0  0  0
  -23.6298   -8.2245   22.0758 C   0  0  0  0  0  0
  -22.4279   -8.0285   21.3549 C   0  0  0  0  0  0
  -21.9920   -9.0261   20.4651 C   0  0  0  0  0  0
  -22.7254  -10.2137   20.3061 C   0  0  0  0  0  0
  -21.6853   -6.0738   22.5281 C   0  0  0  0  0  0
  -21.4016   -6.5641   23.8215 C   0  0  0  0  0  0
  -21.3662   -5.6795   24.9177 C   0  0  0  0  0  0
  -21.6044   -4.3057   24.7226 C   0  0  0  0  0  0
  -21.8817   -3.8148   23.4347 C   0  0  0  0  0  0
  -21.9191   -4.6965   22.3404 C   0  0  0  0  0  0
  -22.7796  -13.5211   21.1885 C   0  0  0  0  0  0
  -22.1659   -4.2151   21.0981 F   0  0  0  0  0  0
  -21.5628   -3.4541   25.7739 F   0  0  0  0  0  0
  -29.9459  -13.6999   20.3740 N   0  0  0  0  0  0
  -26.2882  -12.9457   20.3244 N   0  0  0  0  0  0
  -25.9331  -11.6585   20.5743 N   0  0  0  0  0  0
  -22.0441  -12.8203   22.0438 N   0  0  0  0  0  0
  -25.4101  -15.1950   20.4121 N   0  0  0  0  0  0
  -31.7521  -15.0101   20.1473 O   0  0  0  0  0  0
  -21.6642   -6.8883   21.4244 O   0  0  0  0  0  0
  -22.3485  -14.5514   20.6723 O   0  0  0  0  0  0
  -24.6453  -31.8426   23.1868 C   0  0  0  0  0  0
  -25.9218  -32.4688   23.8263 C   0  0  1  0  0  0
  -27.2155  -27.1180   20.1528 C   0  0  0  0  0  0
  -25.5958  -33.8494   24.2180 N   0  0  0  0  0  0
  -23.4499  -30.4616   21.5327 C   0  0  2  0  0  0
  -24.8998  -28.8867   20.1086 C   0  0  0  0  0  0
  -22.7579  -29.4538   22.4850 C   0  0  0  0  0  0
  -18.0310  -28.1398   22.8477 C   0  0  0  0  0  0
  -24.1492  -36.7251   23.2643 C   0  0  0  0  0  0
  -26.0075  -30.7100   21.3894 C   0  0  0  0  0  0
  -26.0780  -29.3200   20.7298 C   0  0  0  0  0  0
  -27.2363  -28.4520   20.7349 C   0  0  0  0  0  0
  -26.0121  -26.7934   19.4874 C   0  0  0  0  0  0
  -24.8810  -27.6377   19.4712 C   0  0  0  0  0  0
  -23.6777  -29.7915   20.1519 C   0  0  0  0  0  0
  -25.4125  -36.3028   24.0314 C   0  0  1  0  0  0
  -20.5923  -28.3727   23.1231 C   0  0  2  0  0  0
  -20.6795  -26.9428   22.5405 C   0  0  0  0  0  0
  -19.5768  -26.6382   21.5215 C   0  0  0  0  0  0
  -18.1949  -26.7937   22.1624 C   0  0  0  0  0  0
  -19.1567  -28.8881   23.2846 C   0  0  0  0  0  0
  -18.9482  -30.1475   23.8873 C   0  0  0  0  0  0
  -17.6478  -30.6593   24.0560 C   0  0  0  0  0  0
  -25.9077  -34.9404   23.5057 C   0  0  0  0  0  0
  -16.5369  -29.9085   23.6337 C   0  0  0  0  0  0
  -16.7294  -28.6505   23.0357 C   0  0  0  0  0  0
  -26.4532  -31.6562   25.0712 C   0  0  0  0  0  0
  -25.3705  -31.3759   26.1399 C   0  0  0  0  0  0
  -27.0407  -30.2957   24.6310 C   0  0  0  0  0  0
  -27.6056  -32.4332   25.7503 C   0  0  0  0  0  0
  -27.5576  -37.1783   24.8465 C   0  0  0  0  0  0
  -21.4269  -29.3048   22.3599 N   0  0  0  0  0  0
  -26.4288  -37.3742   23.9406 N   0  0  0  0  0  0
  -24.7208  -31.0264   22.0912 N   0  0  0  0  0  0
  -23.4213  -28.8089   23.3011 O   0  0  0  0  0  0
  -28.2540  -26.1131   20.2387 O   0  0  0  0  0  0
  -26.5665  -34.8904   22.4638 O   0  0  0  0  0  0
  -23.5566  -32.1313   23.7075 O   0  0  0  0  0  0
  -30.6242  -21.0199   21.1825 C   0  0  0  0  0  0
  -30.9509  -22.3684   21.4545 C   0  0  0  0  0  0
  -29.4388  -20.6519   20.5164 C   0  0  0  0  0  0
  -28.5862  -21.8289   20.1475 C   0  0  0  0  0  0
  -28.8982  -23.2730   20.4182 C   0  0  0  0  0  0
  -30.1299  -23.4631   21.0936 C   0  0  0  0  0  0
  -30.2185  -17.9414   18.8513 C   0  0  0  0  0  0
  -29.1995  -19.0167   20.2759 C   0  0  2  0  0  0
  -30.1985  -17.6773   20.3702 C   0  0  1  0  0  0
  -27.2758  -21.5471   19.4339 C   0  0  0  0  0  0
  -27.9488  -24.5883   20.0403 C   0  0  0  0  0  0
  -29.7902  -16.1533   20.5576 N   0  0  0  0  0  0
  -30.8256  -17.4620   17.8930 O   0  0  0  0  0  0
  -29.1396  -18.7907   18.8364 O   0  0  0  0  0  0
  -30.6895  -25.0410   21.5209 Cl  0  0  0  0  0  0
  -31.4729  -12.7486   19.1901 H   0  0  0  0  0  0
  -30.4287  -11.6454   20.0393 H   0  0  0  0  0  0
  -29.8429  -11.7309   17.5886 H   0  0  0  0  0  0
  -29.6096  -13.4589   17.6901 H   0  0  0  0  0  0
  -27.9534  -11.2746   18.9855 H   0  0  0  0  0  0
  -27.3924  -12.4446   17.8193 H   0  0  0  0  0  0
  -27.5888  -14.2505   19.4049 H   0  0  0  0  0  0
  -28.7601  -12.3182   21.4639 H   0  0  0  0  0  0
  -28.3696  -13.9986   21.7479 H   0  0  0  0  0  0
  -25.2771   -9.5679   22.4770 H   0  0  0  0  0  0
  -24.0003   -7.4635   22.7478 H   0  0  0  0  0  0
  -21.0852   -8.8785   19.8954 H   0  0  0  0  0  0
  -22.3716  -10.9679   19.6173 H   0  0  0  0  0  0
  -21.2012   -7.6150   23.9720 H   0  0  0  0  0  0
  -21.1487   -6.0525   25.9082 H   0  0  0  0  0  0
  -22.0592   -2.7610   23.2848 H   0  0  0  0  0  0
  -22.4058  -11.9870   22.4836 H   0  0  0  0  0  0
  -21.1058  -13.1230   22.2635 H   0  0  0  0  0  0
  -24.6331  -15.8390   20.5141 H   0  0  0  0  0  0
  -26.2394  -15.6346   20.0359 H   0  0  0  0  0  0
  -26.7283  -32.5288   23.0989 H   0  0  0  0  0  0
  -25.0081  -33.9606   25.0311 H   0  0  0  0  0  0
  -22.7534  -31.2883   21.3777 H   0  0  0  0  0  0
  -23.3762  -35.9575   23.3291 H   0  0  0  0  0  0
  -24.3576  -36.8899   22.2059 H   0  0  0  0  0  0
  -23.7241  -37.6440   23.6691 H   0  0  0  0  0  0
  -26.1671  -31.4642   20.6178 H   0  0  0  0  0  0
  -26.8762  -30.7590   22.0342 H   0  0  0  0  0  0
  -28.1312  -28.7759   21.2472 H   0  0  0  0  0  0
  -25.9078  -25.8398   18.9926 H   0  0  0  0  0  0
  -23.9826  -27.3018   18.9717 H   0  0  0  0  0  0
  -23.8172  -30.5667   19.3978 H   0  0  0  0  0  0
  -22.7917  -29.2360   19.8391 H   0  0  0  0  0  0
  -25.1316  -36.1853   25.0806 H   0  0  0  0  0  0
  -21.0017  -28.3320   24.1352 H   0  0  0  0  0  0
  -20.5695  -26.2339   23.3625 H   0  0  0  0  0  0
  -21.6660  -26.7436   22.1199 H   0  0  0  0  0  0
  -19.6930  -25.6286   21.1262 H   0  0  0  0  0  0
  -19.6705  -27.3177   20.6733 H   0  0  0  0  0  0
  -17.4219  -26.6682   21.4027 H   0  0  0  0  0  0
  -18.0346  -26.0085   22.9026 H   0  0  0  0  0  0
  -19.7956  -30.7299   24.2232 H   0  0  0  0  0  0
  -17.5030  -31.6271   24.5166 H   0  0  0  0  0  0
  -15.5368  -30.2979   23.7674 H   0  0  0  0  0  0
  -15.8695  -28.0814   22.7086 H   0  0  0  0  0  0
  -24.5892  -30.7103   25.7712 H   0  0  0  0  0  0
  -24.8887  -32.2944   26.4757 H   0  0  0  0  0  0
  -25.7975  -30.8971   27.0220 H   0  0  0  0  0  0
  -26.3033  -29.6667   24.1310 H   0  0  0  0  0  0
  -27.4009  -29.7269   25.4894 H   0  0  0  0  0  0
  -27.8944  -30.4192   23.9644 H   0  0  0  0  0  0
  -27.2646  -33.3652   26.2022 H   0  0  0  0  0  0
  -28.3901  -32.6859   25.0357 H   0  0  0  0  0  0
  -28.0688  -31.8495   26.5469 H   0  0  0  0  0  0
  -28.2586  -38.0087   24.7513 H   0  0  0  0  0  0
  -28.1081  -36.2616   24.6295 H   0  0  0  0  0  0
  -27.2292  -37.1430   25.8868 H   0  0  0  0  0  0
  -20.9484  -29.8752   21.6767 H   0  0  0  0  0  0
  -26.0154  -38.2810   24.1408 H   0  0  0  0  0  0
  -31.3148  -20.2521   21.5020 H   0  0  0  0  0  0
  -31.8778  -22.5740   21.9707 H   0  0  0  0  0  0
  -28.2436  -18.7683   20.7391 H   0  0  0  0  0  0
  -31.1471  -17.9213   20.8473 H   0  0  0  0  0  0
  -27.0807  -20.4807   19.3298 H   0  0  0  0  0  0
  -27.2889  -21.9812   18.4338 H   0  0  0  0  0  0
  -26.4403  -21.9814   19.9837 H   0  0  0  0  0  0
  -27.0090  -24.4009   20.5598 H   0  0  0  0  0  0
  -27.7238  -24.4699   18.9802 H   0  0  0  0  0  0
  -28.8075  -16.0086   20.7242 H   0  0  0  0  0  0
  1 25  1  0  0  0
  1 30  2  0  0  0
  1 82  1  0  0  0
  2  3  1  0  0  0
  2 25  1  0  0  0
  2 86  1  0  0  0
  2 87  1  0  0  0
  3  4  1  0  0  0
  3 88  1  0  0  0
  3 89  1  0  0  0
  4  5  1  0  0  0
  4 90  1  0  0  0
  4 91  1  0  0  0
  5  6  1  0  0  0
  5 26  1  0  0  0
  5 92  1  0  0  0
  6 25  1  0  0  0
  6 93  1  0  0  0
  6 94  1  0  0  0
  7  8  2  0  0  0
  7 26  1  0  0  0
  7 29  1  0  0  0
  8  9  1  0  0  0
  8 22  1  0  0  0
  9 10  1  0  0  0
  9 27  2  0  0  0
 10 11  2  0  0  0
 10 15  1  0  0  0
 11 12  1  0  0  0
 11 95  1  0  0  0
 12 13  2  0  0  0
 12 96  1  0  0  0
 13 14  1  0  0  0
 13 31  1  0  0  0
 14 15  2  0  0  0
 14 97  1  0  0  0
 15 98  1  0  0  0
 16 17  2  0  0  0
 16 21  1  0  0  0
 16 31  1  0  0  0
 17 18  1  0  0  0
 17 99  1  0  0  0
 18 19  2  0  0  0
 18100  1  0  0  0
 19 20  1  0  0  0
 19 24  1  0  0  0
 20 21  2  0  0  0
 20101  1  0  0  0
 21 23  1  0  0  0
 22 28  1  0  0  0
 22 32  2  0  0  0
 26 27  1  0  0  0
 28102  1  0  0  0
 28103  1  0  0  0
 29104  1  0  0  0
 29105  1  0  0  0
 33 34  1  0  0  0
 33 66  1  0  0  0
 33 70  2  0  0  0
 34 36  1  0  0  0
 34 59  1  0  0  0
 34106  1  0  0  0
 35 44  2  0  0  0
 35 45  1  0  0  0
 35 68  1  0  0  0
 36 56  1  0  0  0
 36107  1  0  0  0
 37 39  1  0  0  0
 37 47  1  0  0  0
 37 66  1  0  0  0
 37108  1  0  0  0
 38 43  2  0  0  0
 38 46  1  0  0  0
 38 47  1  0  0  0
 39 64  1  0  0  0
 39 67  2  0  0  0
 40 52  1  0  0  0
 40 53  2  0  0  0
 40 58  1  0  0  0
 41109  1  0  0  0
 41110  1  0  0  0
 41111  1  0  0  0
 41 48  1  0  0  0
 42 43  1  0  0  0
 42 66  1  0  0  0
 42112  1  0  0  0
 42113  1  0  0  0
 43 44  1  0  0  0
 44114  1  0  0  0
 45 46  2  0  0  0
 45115  1  0  0  0
 46116  1  0  0  0
 47117  1  0  0  0
 47118  1  0  0  0
 48 56  1  0  0  0
 48 65  1  0  0  0
 48119  1  0  0  0
 49 50  1  0  0  0
 49 53  1  0  0  0
 49 64  1  0  0  0
 49120  1  0  0  0
 50 51  1  0  0  0
 50121  1  0  0  0
 50122  1  0  0  0
 51 52  1  0  0  0
 51123  1  0  0  0
 51124  1  0  0  0
 52125  1  0  0  0
 52126  1  0  0  0
 53 54  1  0  0  0
 54 55  2  0  0  0
 54127  1  0  0  0
 55 57  1  0  0  0
 55128  1  0  0  0
 56 69  2  0  0  0
 57 58  2  0  0  0
 57129  1  0  0  0
 58130  1  0  0  0
 59 60  1  0  0  0
 59 61  1  0  0  0
 59 62  1  0  0  0
 60131  1  0  0  0
 60132  1  0  0  0
 60133  1  0  0  0
 61134  1  0  0  0
 61135  1  0  0  0
 61136  1  0  0  0
 62137  1  0  0  0
 62138  1  0  0  0
 62139  1  0  0  0
 63 65  1  0  0  0
 63140  1  0  0  0
 63141  1  0  0  0
 63142  1  0  0  0
 64143  1  0  0  0
 65144  1  0  0  0
 68 81  1  0  0  0
 71 72  2  0  0  0
 71 73  1  0  0  0
 71145  1  0  0  0
 72 76  1  0  0  0
 72146  1  0  0  0
 73 74  2  0  0  0
 73 78  1  0  0  0
 74 75  1  0  0  0
 74 80  1  0  0  0
 75 76  2  0  0  0
 75 81  1  0  0  0
 76 85  1  0  0  0
 77 79  1  0  0  0
 77 83  2  0  0  0
 77 84  1  0  0  0
 78 79  1  0  0  0
 78 84  1  0  0  0
 78147  1  0  0  0
 79 82  1  0  0  0
 79148  1  0  0  0
 80149  1  0  0  0
 80150  1  0  0  0
 80151  1  0  0  0
 81152  1  0  0  0
 81153  1  0  0  0
 82154  1  0  0  0
M  ISO  4   1 100  68 101  81 101  82 100
M  END
> <chiral flag>
0

> <version>
0

> <s_m_source_file>
/data/baiqing/PycharmProjects/Reinvent-master-3.2/result/LINK_invent/BTK/process_docking_weight1_custom_sum_contain_oxygen_bond_distance_aromatic_linkinvent_7_9_3/rearranged_h_0178.sdf

> <i_m_source_file_index>
87

> <r_mmod_Potential_Energy-OPLS-2005>
427.19384765625

> <r_mmod_Stretch_Energy-OPLS-2005>
273.171600341797

> <r_mmod_Bend_Energy-OPLS-2005>
272.466857910156

> <r_mmod_Torsional_Energy-OPLS-2005>
228.598007202148

> <r_mmod_Improper_Torsional_Energy-OPLS-2005>
6.33254098892212

> <r_mmod_Van_der_Waal_Energy-OPLS-2005>
124.615943908691

> <r_mmod_Electrostatic_Energy-OPLS-2005>
-433.006958007812

> <r_mmod_Solvation_Energy-OPLS-2005>
-250.791961669922

> <b_mmod_Minimization_Converged-OPLS-2005>
0

> <r_mmod_RMS_Derivative-OPLS-2005>
0.431231319904327

$$$$
88
                    3D
 Structure written by MMmdl.
157166  0  0  1  0            999 V2000
  -30.4566  -15.1503   20.3912 C   0  0  0  0  0  0
  -30.4432  -12.7221   19.5346 C   0  0  0  0  0  0
  -29.5355  -12.5627   18.2885 C   0  0  0  0  0  0
  -28.0752  -12.3123   18.7029 C   0  0  0  0  0  0
  -27.6215  -13.2658   19.8371 C   0  0  2  0  0  0
  -28.6545  -13.3703   20.9808 C   0  0  0  0  0  0
  -25.2418  -13.8238   20.5737 C   0  0  0  0  0  0
  -24.1755  -13.0440   20.9244 C   0  0  0  0  0  0
  -24.6395  -11.6931   20.8763 C   0  0  0  0  0  0
  -23.9086  -10.4296   21.0407 C   0  0  0  0  0  0
  -24.3632   -9.4209   21.9185 C   0  0  0  0  0  0
  -23.6302   -8.2246   22.0754 C   0  0  0  0  0  0
  -22.4285   -8.0283   21.3543 C   0  0  0  0  0  0
  -21.9925   -9.0258   20.4646 C   0  0  0  0  0  0
  -22.7258  -10.2136   20.3054 C   0  0  0  0  0  0
  -21.6854   -6.0739   22.5277 C   0  0  0  0  0  0
  -21.4016   -6.5643   23.8210 C   0  0  0  0  0  0
  -21.3656   -5.6796   24.9174 C   0  0  0  0  0  0
  -21.6046   -4.3058   24.7225 C   0  0  0  0  0  0
  -21.8817   -3.8151   23.4344 C   0  0  0  0  0  0
  -21.9195   -4.6968   22.3403 C   0  0  0  0  0  0
  -22.7769  -13.5196   21.1893 C   0  0  0  0  0  0
  -22.1663   -4.2151   21.0980 F   0  0  0  0  0  0
  -21.5626   -3.4539   25.7738 F   0  0  0  0  0  0
  -29.9096  -13.8458   20.3809 N   0  0  0  0  0  0
  -26.2848  -12.9505   20.3251 N   0  0  0  0  0  0
  -25.9332  -11.6618   20.5740 N   0  0  0  0  0  0
  -22.0427  -12.8181   22.0445 N   0  0  0  0  0  0
  -25.4077  -15.1976   20.4160 N   0  0  0  0  0  0
  -31.6519  -15.2037   20.0711 O   0  0  0  0  0  0
  -21.6643   -6.8884   21.4242 O   0  0  0  0  0  0
  -22.3450  -14.5501   20.6734 O   0  0  0  0  0  0
  -24.6548  -31.8301   23.1743 C   0  0  0  0  0  0
  -25.9268  -32.4619   23.8188 C   0  0  1  0  0  0
  -27.2246  -27.0011   20.1813 C   0  0  0  0  0  0
  -25.5962  -33.8429   24.2104 N   0  0  0  0  0  0
  -23.4664  -30.4388   21.5227 C   0  0  2  0  0  0
  -24.9198  -28.8351   20.1116 C   0  0  0  0  0  0
  -22.7634  -29.4445   22.4824 C   0  0  0  0  0  0
  -18.0315  -28.1390   22.8474 C   0  0  0  0  0  0
  -24.1485  -36.7214   23.2649 C   0  0  0  0  0  0
  -26.0289  -30.6596   21.3921 C   0  0  0  0  0  0
  -26.0990  -29.2555   20.7385 C   0  0  0  0  0  0
  -27.2460  -28.3577   20.7484 C   0  0  0  0  0  0
  -26.0187  -26.7074   19.5087 C   0  0  0  0  0  0
  -24.9003  -27.5807   19.4776 C   0  0  0  0  0  0
  -23.7008  -29.7526   20.1479 C   0  0  0  0  0  0
  -25.4127  -36.2990   24.0305 C   0  0  1  0  0  0
  -20.5929  -28.3723   23.1213 C   0  0  2  0  0  0
  -20.6782  -26.9413   22.5410 C   0  0  0  0  0  0
  -19.5758  -26.6369   21.5213 C   0  0  0  0  0  0
  -18.1940  -26.7932   22.1621 C   0  0  0  0  0  0
  -19.1574  -28.8881   23.2829 C   0  0  0  0  0  0
  -18.9489  -30.1469   23.8862 C   0  0  0  0  0  0
  -17.6486  -30.6587   24.0551 C   0  0  0  0  0  0
  -25.9090  -34.9369   23.5031 C   0  0  0  0  0  0
  -16.5373  -29.9073   23.6340 C   0  0  0  0  0  0
  -16.7302  -28.6484   23.0375 C   0  0  0  0  0  0
  -26.4546  -31.6543   25.0698 C   0  0  0  0  0  0
  -25.3687  -31.3776   26.1372 C   0  0  0  0  0  0
  -27.0439  -30.2922   24.6373 C   0  0  0  0  0  0
  -27.6048  -32.4351   25.7492 C   0  0  0  0  0  0
  -27.5567  -37.1762   24.8474 C   0  0  0  0  0  0
  -21.4312  -29.3022   22.3571 N   0  0  0  0  0  0
  -26.4282  -37.3720   23.9410 N   0  0  0  0  0  0
  -24.7373  -31.0024   22.0838 N   0  0  0  0  0  0
  -23.4217  -28.8016   23.3037 O   0  0  0  0  0  0
  -28.2756  -25.9730   20.2878 O   0  0  0  0  0  0
  -26.5698  -34.8895   22.4626 O   0  0  0  0  0  0
  -23.5633  -32.1245   23.6871 O   0  0  0  0  0  0
  -28.4918  -23.0433   21.1960 C   0  0  0  0  0  0
  -28.3250  -23.5373   22.5407 C   0  0  0  0  0  0
  -28.7980  -21.4942   21.1594 C   0  0  0  0  0  0
  -28.4892  -21.5016   23.5002 C   0  0  0  0  0  0
  -30.2607  -19.2101   20.8531 C   0  0  0  0  0  0
  -28.4087  -18.9268   20.2813 C   0  0  0  0  0  0
  -29.6730  -17.9346   20.0712 C   0  0  0  0  0  0
  -28.1396  -25.0015   22.9299 C   0  0  0  0  0  0
  -28.4673  -20.6443   24.7465 C   0  0  0  0  0  0
  -28.2531  -24.3502   20.1044 C   0  0  0  0  0  0
  -28.3230  -22.7841   23.6429 N   0  0  0  0  0  0
  -28.7071  -20.8947   22.3633 N   0  0  0  0  0  0
  -29.2246  -20.2237   20.3066 N   0  0  0  0  0  0
  -29.6597  -16.3636   20.5634 N   0  0  0  0  0  0
  -31.4683  -12.9101   19.2123 H   0  0  0  0  0  0
  -30.4851  -11.7945   20.1080 H   0  0  0  0  0  0
  -29.8928  -11.7470   17.6589 H   0  0  0  0  0  0
  -29.5923  -13.4672   17.6818 H   0  0  0  0  0  0
  -27.9999  -11.2785   19.0418 H   0  0  0  0  0  0
  -27.4126  -12.4015   17.8407 H   0  0  0  0  0  0
  -27.5610  -14.2513   19.3734 H   0  0  0  0  0  0
  -28.7878  -12.4114   21.4853 H   0  0  0  0  0  0
  -28.3141  -14.0771   21.7395 H   0  0  0  0  0  0
  -25.2771   -9.5684   22.4767 H   0  0  0  0  0  0
  -24.0007   -7.4636   22.7474 H   0  0  0  0  0  0
  -21.0856   -8.8782   19.8949 H   0  0  0  0  0  0
  -22.3716  -10.9677   19.6166 H   0  0  0  0  0  0
  -21.2009   -7.6149   23.9717 H   0  0  0  0  0  0
  -21.1478   -6.0523   25.9077 H   0  0  0  0  0  0
  -22.0601   -2.7609   23.2846 H   0  0  0  0  0  0
  -22.4054  -11.9846   22.4834 H   0  0  0  0  0  0
  -21.1037  -13.1190   22.2646 H   0  0  0  0  0  0
  -24.6362  -15.8473   20.5233 H   0  0  0  0  0  0
  -26.2422  -15.6336   20.0478 H   0  0  0  0  0  0
  -26.7339  -32.5182   23.0904 H   0  0  0  0  0  0
  -25.0067  -33.9513   25.0224 H   0  0  0  0  0  0
  -22.7753  -31.2669   21.3535 H   0  0  0  0  0  0
  -23.3759  -35.9537   23.3310 H   0  0  0  0  0  0
  -24.3558  -36.8857   22.2065 H   0  0  0  0  0  0
  -23.7224  -37.6393   23.6705 H   0  0  0  0  0  0
  -26.2006  -31.4033   20.6128 H   0  0  0  0  0  0
  -26.8927  -30.7155   22.0427 H   0  0  0  0  0  0
  -28.1409  -28.6742   21.2657 H   0  0  0  0  0  0
  -25.9137  -25.7432   19.0314 H   0  0  0  0  0  0
  -24.0012  -27.2508   18.9762 H   0  0  0  0  0  0
  -23.8447  -30.5191   19.3862 H   0  0  0  0  0  0
  -22.8125  -29.1979   19.8400 H   0  0  0  0  0  0
  -25.1316  -36.1808   25.0796 H   0  0  0  0  0  0
  -21.0019  -28.3328   24.1339 H   0  0  0  0  0  0
  -20.5660  -26.2341   23.3645 H   0  0  0  0  0  0
  -21.6645  -26.7391   22.1216 H   0  0  0  0  0  0
  -19.6921  -25.6275   21.1254 H   0  0  0  0  0  0
  -19.6696  -27.3163   20.6730 H   0  0  0  0  0  0
  -17.4213  -26.6692   21.4017 H   0  0  0  0  0  0
  -18.0327  -26.0072   22.9014 H   0  0  0  0  0  0
  -19.7967  -30.7288   24.2223 H   0  0  0  0  0  0
  -17.5039  -31.6270   24.5149 H   0  0  0  0  0  0
  -15.5369  -30.2964   23.7680 H   0  0  0  0  0  0
  -15.8698  -28.0775   22.7133 H   0  0  0  0  0  0
  -24.5877  -30.7113   25.7688 H   0  0  0  0  0  0
  -24.8857  -32.2968   26.4696 H   0  0  0  0  0  0
  -25.7928  -30.9014   27.0220 H   0  0  0  0  0  0
  -26.3093  -29.6613   24.1357 H   0  0  0  0  0  0
  -27.3982  -29.7266   25.4996 H   0  0  0  0  0  0
  -27.9026  -30.4128   23.9767 H   0  0  0  0  0  0
  -27.2623  -33.3692   26.1957 H   0  0  0  0  0  0
  -28.3909  -32.6851   25.0356 H   0  0  0  0  0  0
  -28.0671  -31.8562   26.5497 H   0  0  0  0  0  0
  -28.2582  -38.0058   24.7503 H   0  0  0  0  0  0
  -28.1060  -36.2581   24.6326 H   0  0  0  0  0  0
  -27.2285  -37.1436   25.8879 H   0  0  0  0  0  0
  -20.9573  -29.8712   21.6695 H   0  0  0  0  0  0
  -26.0141  -38.2787   24.1412 H   0  0  0  0  0  0
  -31.2809  -19.4577   20.5560 H   0  0  0  0  0  0
  -30.2291  -19.0611   21.9349 H   0  0  0  0  0  0
  -27.8808  -18.7414   21.2201 H   0  0  0  0  0  0
  -27.6965  -18.8953   19.4566 H   0  0  0  0  0  0
  -29.9931  -17.9912   19.0300 H   0  0  0  0  0  0
  -27.2164  -25.4155   22.5264 H   0  0  0  0  0  0
  -28.9897  -25.6016   22.6066 H   0  0  0  0  0  0
  -28.0780  -25.1294   24.0122 H   0  0  0  0  0  0
  -28.2540  -21.2341   25.6382 H   0  0  0  0  0  0
  -29.4321  -20.1570   24.8866 H   0  0  0  0  0  0
  -27.7025  -19.8720   24.6630 H   0  0  0  0  0  0
  -29.2652  -24.5490   20.4577 H   0  0  0  0  0  0
  -27.2575  -24.4112   20.5409 H   0  0  0  0  0  0
  -28.7517  -16.1146   20.9257 H   0  0  0  0  0  0
  1 25  1  0  0  0
  1 30  2  0  0  0
  1 84  1  0  0  0
  2  3  1  0  0  0
  2 25  1  0  0  0
  2 85  1  0  0  0
  2 86  1  0  0  0
  3  4  1  0  0  0
  3 87  1  0  0  0
  3 88  1  0  0  0
  4  5  1  0  0  0
  4 89  1  0  0  0
  4 90  1  0  0  0
  5  6  1  0  0  0
  5 26  1  0  0  0
  5 91  1  0  0  0
  6 25  1  0  0  0
  6 92  1  0  0  0
  6 93  1  0  0  0
  7  8  2  0  0  0
  7 26  1  0  0  0
  7 29  1  0  0  0
  8  9  1  0  0  0
  8 22  1  0  0  0
  9 10  1  0  0  0
  9 27  2  0  0  0
 10 11  2  0  0  0
 10 15  1  0  0  0
 11 12  1  0  0  0
 11 94  1  0  0  0
 12 13  2  0  0  0
 12 95  1  0  0  0
 13 14  1  0  0  0
 13 31  1  0  0  0
 14 15  2  0  0  0
 14 96  1  0  0  0
 15 97  1  0  0  0
 16 17  2  0  0  0
 16 21  1  0  0  0
 16 31  1  0  0  0
 17 18  1  0  0  0
 17 98  1  0  0  0
 18 19  2  0  0  0
 18 99  1  0  0  0
 19 20  1  0  0  0
 19 24  1  0  0  0
 20 21  2  0  0  0
 20100  1  0  0  0
 21 23  1  0  0  0
 22 28  1  0  0  0
 22 32  2  0  0  0
 26 27  1  0  0  0
 28101  1  0  0  0
 28102  1  0  0  0
 29103  1  0  0  0
 29104  1  0  0  0
 33 34  1  0  0  0
 33 66  1  0  0  0
 33 70  2  0  0  0
 34 36  1  0  0  0
 34 59  1  0  0  0
 34105  1  0  0  0
 35 44  2  0  0  0
 35 45  1  0  0  0
 35 68  1  0  0  0
 36 56  1  0  0  0
 36106  1  0  0  0
 37 39  1  0  0  0
 37 47  1  0  0  0
 37 66  1  0  0  0
 37107  1  0  0  0
 38 43  2  0  0  0
 38 46  1  0  0  0
 38 47  1  0  0  0
 39 64  1  0  0  0
 39 67  2  0  0  0
 40 52  1  0  0  0
 40 53  2  0  0  0
 40 58  1  0  0  0
 41108  1  0  0  0
 41109  1  0  0  0
 41110  1  0  0  0
 41 48  1  0  0  0
 42 43  1  0  0  0
 42 66  1  0  0  0
 42111  1  0  0  0
 42112  1  0  0  0
 43 44  1  0  0  0
 44113  1  0  0  0
 45 46  2  0  0  0
 45114  1  0  0  0
 46115  1  0  0  0
 47116  1  0  0  0
 47117  1  0  0  0
 48 56  1  0  0  0
 48 65  1  0  0  0
 48118  1  0  0  0
 49 50  1  0  0  0
 49 53  1  0  0  0
 49 64  1  0  0  0
 49119  1  0  0  0
 50 51  1  0  0  0
 50120  1  0  0  0
 50121  1  0  0  0
 51 52  1  0  0  0
 51122  1  0  0  0
 51123  1  0  0  0
 52124  1  0  0  0
 52125  1  0  0  0
 53 54  1  0  0  0
 54 55  2  0  0  0
 54126  1  0  0  0
 55 57  1  0  0  0
 55127  1  0  0  0
 56 69  2  0  0  0
 57 58  2  0  0  0
 57128  1  0  0  0
 58129  1  0  0  0
 59 60  1  0  0  0
 59 61  1  0  0  0
 59 62  1  0  0  0
 60130  1  0  0  0
 60131  1  0  0  0
 60132  1  0  0  0
 61133  1  0  0  0
 61134  1  0  0  0
 61135  1  0  0  0
 62136  1  0  0  0
 62137  1  0  0  0
 62138  1  0  0  0
 63 65  1  0  0  0
 63139  1  0  0  0
 63140  1  0  0  0
 63141  1  0  0  0
 64142  1  0  0  0
 65143  1  0  0  0
 68 80  1  0  0  0
 71 72  2  0  0  0
 71 73  1  0  0  0
 71 80  1  0  0  0
 72 78  1  0  0  0
 72 81  1  0  0  0
 73 82  2  0  0  0
 73 83  1  0  0  0
 74 79  1  0  0  0
 74 81  2  0  0  0
 74 82  1  0  0  0
 75 77  1  0  0  0
 75 83  1  0  0  0
 75144  1  0  0  0
 75145  1  0  0  0
 76 77  1  0  0  0
 76 83  1  0  0  0
 76146  1  0  0  0
 76147  1  0  0  0
 77 84  1  0  0  0
 77148  1  0  0  0
 78149  1  0  0  0
 78150  1  0  0  0
 78151  1  0  0  0
 79152  1  0  0  0
 79153  1  0  0  0
 79154  1  0  0  0
 80155  1  0  0  0
 80156  1  0  0  0
 84157  1  0  0  0
M  ISO  4   1 100  68 101  80 101  84 100
M  END
> <chiral flag>
0

> <version>
0

> <s_m_source_file>
/data/baiqing/PycharmProjects/Reinvent-master-3.2/result/LINK_invent/BTK/process_docking_weight1_custom_sum_contain_oxygen_bond_distance_aromatic_linkinvent_7_9_3/rearranged_h_0178.sdf

> <i_m_source_file_index>
88

> <r_mmod_Potential_Energy-OPLS-2005>
831.721313476562

> <r_mmod_Stretch_Energy-OPLS-2005>
466.933197021484

> <r_mmod_Bend_Energy-OPLS-2005>
696.165466308594

> <r_mmod_Torsional_Energy-OPLS-2005>
262.101409912109

> <r_mmod_Improper_Torsional_Energy-OPLS-2005>
13.1374769210815

> <r_mmod_Van_der_Waal_Energy-OPLS-2005>
162.479919433594

> <r_mmod_Electrostatic_Energy-OPLS-2005>
-858.291381835938

> <r_mmod_Solvation_Energy-OPLS-2005>
-256.852691650391

> <b_mmod_Minimization_Converged-OPLS-2005>
0

> <r_mmod_RMS_Derivative-OPLS-2005>
1.47234714031219

$$$$
89
                    3D
 Structure written by MMmdl.
163172  0  0  1  0            999 V2000
  -30.5161  -15.0214   20.4089 C   0  0  0  0  0  0
  -30.4396  -12.6388   19.5067 C   0  0  0  0  0  0
  -29.5226  -12.5391   18.2648 C   0  0  0  0  0  0
  -28.0605  -12.3086   18.6874 C   0  0  0  0  0  0
  -27.6235  -13.2543   19.8357 C   0  0  2  0  0  0
  -28.6643  -13.3174   20.9738 C   0  0  0  0  0  0
  -25.2432  -13.8219   20.5732 C   0  0  0  0  0  0
  -24.1759  -13.0435   20.9250 C   0  0  0  0  0  0
  -24.6391  -11.6926   20.8766 C   0  0  0  0  0  0
  -23.9082  -10.4292   21.0416 C   0  0  0  0  0  0
  -24.3626   -9.4209   21.9195 C   0  0  0  0  0  0
  -23.6290   -8.2251   22.0761 C   0  0  0  0  0  0
  -22.4273   -8.0292   21.3551 C   0  0  0  0  0  0
  -21.9908   -9.0269   20.4657 C   0  0  0  0  0  0
  -22.7250  -10.2141   20.3067 C   0  0  0  0  0  0
  -21.6852   -6.0742   22.5284 C   0  0  0  0  0  0
  -21.4025   -6.5644   23.8221 C   0  0  0  0  0  0
  -21.3658   -5.6794   24.9176 C   0  0  0  0  0  0
  -21.6042   -4.3060   24.7225 C   0  0  0  0  0  0
  -21.8815   -3.8151   23.4347 C   0  0  0  0  0  0
  -21.9192   -4.6968   22.3403 C   0  0  0  0  0  0
  -22.7777  -13.5206   21.1900 C   0  0  0  0  0  0
  -22.1661   -4.2162   21.0977 F   0  0  0  0  0  0
  -21.5619   -3.4538   25.7731 F   0  0  0  0  0  0
  -29.9315  -13.7497   20.3683 N   0  0  0  0  0  0
  -26.2856  -12.9464   20.3242 N   0  0  0  0  0  0
  -25.9324  -11.6587   20.5743 N   0  0  0  0  0  0
  -22.0421  -12.8201   22.0457 N   0  0  0  0  0  0
  -25.4065  -15.1954   20.4170 N   0  0  0  0  0  0
  -31.7252  -15.0741   20.1541 O   0  0  0  0  0  0
  -21.6642   -6.8888   21.4246 O   0  0  0  0  0  0
  -22.3471  -14.5512   20.6740 O   0  0  0  0  0  0
  -24.6491  -31.8379   23.1839 C   0  0  0  0  0  0
  -25.9238  -32.4663   23.8238 C   0  0  1  0  0  0
  -27.2185  -27.0733   20.1621 C   0  0  0  0  0  0
  -25.5965  -33.8479   24.2147 N   0  0  0  0  0  0
  -23.4560  -30.4544   21.5310 C   0  0  2  0  0  0
  -24.9067  -28.8702   20.1140 C   0  0  0  0  0  0
  -22.7598  -29.4506   22.4841 C   0  0  0  0  0  0
  -18.0308  -28.1384   22.8468 C   0  0  0  0  0  0
  -24.1500  -36.7253   23.2636 C   0  0  0  0  0  0
  -26.0161  -30.6919   21.3922 C   0  0  0  0  0  0
  -26.0869  -29.2963   20.7363 C   0  0  0  0  0  0
  -27.2401  -28.4158   20.7400 C   0  0  0  0  0  0
  -26.0108  -26.7669   19.4942 C   0  0  0  0  0  0
  -24.8861  -27.6218   19.4753 C   0  0  0  0  0  0
  -23.6867  -29.7798   20.1527 C   0  0  0  0  0  0
  -25.4130  -36.3013   24.0305 C   0  0  1  0  0  0
  -20.5924  -28.3722   23.1219 C   0  0  2  0  0  0
  -20.6799  -26.9419   22.5403 C   0  0  0  0  0  0
  -19.5774  -26.6367   21.5216 C   0  0  0  0  0  0
  -18.1953  -26.7915   22.1624 C   0  0  0  0  0  0
  -19.1565  -28.8873   23.2836 C   0  0  0  0  0  0
  -18.9479  -30.1470   23.8862 C   0  0  0  0  0  0
  -17.6476  -30.6577   24.0564 C   0  0  0  0  0  0
  -25.9088  -34.9393   23.5036 C   0  0  0  0  0  0
  -16.5366  -29.9073   23.6335 C   0  0  0  0  0  0
  -16.7294  -28.6495   23.0343 C   0  0  0  0  0  0
  -26.4524  -31.6560   25.0712 C   0  0  0  0  0  0
  -25.3684  -31.3776   26.1392 C   0  0  0  0  0  0
  -27.0387  -30.2940   24.6343 C   0  0  0  0  0  0
  -27.6047  -32.4333   25.7504 C   0  0  0  0  0  0
  -27.5584  -37.1768   24.8446 C   0  0  0  0  0  0
  -21.4280  -29.3044   22.3595 N   0  0  0  0  0  0
  -26.4272  -37.3746   23.9413 N   0  0  0  0  0  0
  -24.7277  -31.0175   22.0905 N   0  0  0  0  0  0
  -23.4208  -28.8061   23.3027 O   0  0  0  0  0  0
  -28.2744  -26.0701   20.2063 O   0  0  0  0  0  0
  -26.5684  -34.8905   22.4619 O   0  0  0  0  0  0
  -23.5601  -32.1274   23.7033 O   0  0  0  0  0  0
  -28.0922  -22.3200   21.6830 C   0  0  0  0  0  0
  -27.7538  -23.8759   21.6268 C   0  0  0  0  0  0
  -30.2607  -18.3890   19.0008 C   0  0  0  0  0  0
  -30.0204  -19.9646   19.0027 C   0  0  0  0  0  0
  -29.0252  -19.0427   20.8906 C   0  0  0  0  0  0
  -30.0251  -17.8035   20.4154 C   0  0  1  0  0  0
  -28.5869  -21.7889   20.3057 C   0  0  1  0  0  0
  -28.0570  -24.4937   20.2325 C   0  0  2  0  0  0
  -29.0755  -23.2774   19.7244 C   0  0  0  0  0  0
  -29.0732  -23.2684   18.1850 C   0  0  0  0  0  0
  -30.5047  -23.5854   20.2196 C   0  0  0  0  0  0
  -29.7342  -16.2230   20.5292 N   0  0  0  0  0  0
  -29.4707  -20.4295   20.3135 N   0  3  2  0  0  0
  -31.4712  -12.8067   19.1923 H   0  0  0  0  0  0
  -30.4486  -11.6978   20.0580 H   0  0  0  0  0  0
  -29.8527  -11.7333   17.6080 H   0  0  0  0  0  0
  -29.5965  -13.4585   17.6817 H   0  0  0  0  0  0
  -27.9744  -11.2708   19.0148 H   0  0  0  0  0  0
  -27.3940  -12.4171   17.8311 H   0  0  0  0  0  0
  -27.5750  -14.2480   19.3893 H   0  0  0  0  0  0
  -28.7685  -12.3526   21.4719 H   0  0  0  0  0  0
  -28.3495  -14.0282   21.7400 H   0  0  0  0  0  0
  -25.2771   -9.5673   22.4769 H   0  0  0  0  0  0
  -24.0001   -7.4632   22.7467 H   0  0  0  0  0  0
  -21.0838   -8.8786   19.8954 H   0  0  0  0  0  0
  -22.3713  -10.9678   19.6170 H   0  0  0  0  0  0
  -21.2039   -7.6158   23.9721 H   0  0  0  0  0  0
  -21.1474   -6.0529   25.9075 H   0  0  0  0  0  0
  -22.0594   -2.7618   23.2840 H   0  0  0  0  0  0
  -22.4040  -11.9873   22.4866 H   0  0  0  0  0  0
  -21.1037  -13.1216   22.2663 H   0  0  0  0  0  0
  -24.6292  -15.8371   20.5307 H   0  0  0  0  0  0
  -26.2358  -15.6410   20.0463 H   0  0  0  0  0  0
  -26.7302  -32.5245   23.0963 H   0  0  0  0  0  0
  -25.0068  -33.9574   25.0263 H   0  0  0  0  0  0
  -22.7623  -31.2826   21.3717 H   0  0  0  0  0  0
  -23.3777  -35.9565   23.3226 H   0  0  0  0  0  0
  -24.3600  -36.8969   22.2068 H   0  0  0  0  0  0
  -23.7243  -37.6417   23.6734 H   0  0  0  0  0  0
  -26.1767  -31.4417   20.6164 H   0  0  0  0  0  0
  -26.8854  -30.7454   22.0359 H   0  0  0  0  0  0
  -28.1382  -28.7416   21.2461 H   0  0  0  0  0  0
  -25.9013  -25.8264   18.9788 H   0  0  0  0  0  0
  -23.9884  -27.2948   18.9673 H   0  0  0  0  0  0
  -23.8297  -30.5523   19.3966 H   0  0  0  0  0  0
  -22.7997  -29.2259   19.8399 H   0  0  0  0  0  0
  -25.1321  -36.1810   25.0795 H   0  0  0  0  0  0
  -21.0007  -28.3311   24.1345 H   0  0  0  0  0  0
  -20.5696  -26.2333   23.3624 H   0  0  0  0  0  0
  -21.6663  -26.7422   22.1198 H   0  0  0  0  0  0
  -19.6942  -25.6272   21.1263 H   0  0  0  0  0  0
  -19.6704  -27.3159   20.6732 H   0  0  0  0  0  0
  -17.4222  -26.6646   21.4028 H   0  0  0  0  0  0
  -18.0354  -26.0062   22.9027 H   0  0  0  0  0  0
  -19.7957  -30.7301   24.2199 H   0  0  0  0  0  0
  -17.5026  -31.6246   24.5183 H   0  0  0  0  0  0
  -15.5368  -30.2966   23.7670 H   0  0  0  0  0  0
  -15.8692  -28.0818   22.7051 H   0  0  0  0  0  0
  -24.5853  -30.7138   25.7701 H   0  0  0  0  0  0
  -24.8885  -32.2972   26.4758 H   0  0  0  0  0  0
  -25.7934  -30.8971   27.0215 H   0  0  0  0  0  0
  -26.3000  -29.6646   24.1358 H   0  0  0  0  0  0
  -27.3970  -29.7273   25.4952 H   0  0  0  0  0  0
  -27.8936  -30.4152   23.9683 H   0  0  0  0  0  0
  -27.2626  -33.3654   26.2021 H   0  0  0  0  0  0
  -28.3889  -32.6858   25.0351 H   0  0  0  0  0  0
  -28.0676  -31.8495   26.5474 H   0  0  0  0  0  0
  -28.2539  -38.0129   24.7570 H   0  0  0  0  0  0
  -28.1141  -36.2659   24.6159 H   0  0  0  0  0  0
  -27.2310  -37.1280   25.8848 H   0  0  0  0  0  0
  -20.9499  -29.8756   21.6762 H   0  0  0  0  0  0
  -26.0122  -38.2792   24.1466 H   0  0  0  0  0  0
  -27.2301  -21.7470   22.0278 H   0  0  0  0  0  0
  -28.8738  -22.1656   22.4286 H   0  0  0  0  0  0
  -28.3577  -24.3905   22.3753 H   0  0  0  0  0  0
  -26.7149  -24.0627   21.9023 H   0  0  0  0  0  0
  -31.2558  -18.1399   18.6311 H   0  0  0  0  0  0
  -29.5558  -17.9327   18.3047 H   0  0  0  0  0  0
  -29.3172  -20.2136   18.2073 H   0  0  0  0  0  0
  -30.9427  -20.5051   18.7861 H   0  0  0  0  0  0
  -28.9577  -19.0967   21.9775 H   0  0  0  0  0  0
  -28.0158  -18.8430   20.5281 H   0  0  0  0  0  0
  -30.9520  -17.9456   20.9734 H   0  0  0  0  0  0
  -27.6885  -21.5279   19.7441 H   0  0  0  0  0  0
  -27.1579  -24.3138   19.6480 H   0  0  0  0  0  0
  -28.0846  -23.0272   17.7919 H   0  0  0  0  0  0
  -29.7768  -22.5432   17.7758 H   0  0  0  0  0  0
  -29.3480  -24.2462   17.7855 H   0  0  0  0  0  0
  -30.5660  -23.6172   21.3071 H   0  0  0  0  0  0
  -30.8493  -24.5529   19.8510 H   0  0  0  0  0  0
  -31.2196  -22.8365   19.8776 H   0  0  0  0  0  0
  -28.7621  -16.0182   20.7061 H   0  0  0  0  0  0
  -30.2850  -20.6657   20.8610 H   0  0  0  0  0  0
  1 25  1  0  0  0
  1 30  2  0  0  0
  1 82  1  0  0  0
  2  3  1  0  0  0
  2 25  1  0  0  0
  2 84  1  0  0  0
  2 85  1  0  0  0
  3  4  1  0  0  0
  3 86  1  0  0  0
  3 87  1  0  0  0
  4  5  1  0  0  0
  4 88  1  0  0  0
  4 89  1  0  0  0
  5  6  1  0  0  0
  5 26  1  0  0  0
  5 90  1  0  0  0
  6 25  1  0  0  0
  6 91  1  0  0  0
  6 92  1  0  0  0
  7  8  2  0  0  0
  7 26  1  0  0  0
  7 29  1  0  0  0
  8  9  1  0  0  0
  8 22  1  0  0  0
  9 10  1  0  0  0
  9 27  2  0  0  0
 10 11  2  0  0  0
 10 15  1  0  0  0
 11 12  1  0  0  0
 11 93  1  0  0  0
 12 13  2  0  0  0
 12 94  1  0  0  0
 13 14  1  0  0  0
 13 31  1  0  0  0
 14 15  2  0  0  0
 14 95  1  0  0  0
 15 96  1  0  0  0
 16 17  2  0  0  0
 16 21  1  0  0  0
 16 31  1  0  0  0
 17 18  1  0  0  0
 17 97  1  0  0  0
 18 19  2  0  0  0
 18 98  1  0  0  0
 19 20  1  0  0  0
 19 24  1  0  0  0
 20 21  2  0  0  0
 20 99  1  0  0  0
 21 23  1  0  0  0
 22 28  1  0  0  0
 22 32  2  0  0  0
 26 27  1  0  0  0
 28100  1  0  0  0
 28101  1  0  0  0
 29102  1  0  0  0
 29103  1  0  0  0
 33 34  1  0  0  0
 33 66  1  0  0  0
 33 70  2  0  0  0
 34 36  1  0  0  0
 34 59  1  0  0  0
 34104  1  0  0  0
 35 44  2  0  0  0
 35 45  1  0  0  0
 35 68  1  0  0  0
 36 56  1  0  0  0
 36105  1  0  0  0
 37 39  1  0  0  0
 37 47  1  0  0  0
 37 66  1  0  0  0
 37106  1  0  0  0
 38 43  2  0  0  0
 38 46  1  0  0  0
 38 47  1  0  0  0
 39 64  1  0  0  0
 39 67  2  0  0  0
 40 52  1  0  0  0
 40 53  2  0  0  0
 40 58  1  0  0  0
 41107  1  0  0  0
 41108  1  0  0  0
 41109  1  0  0  0
 41 48  1  0  0  0
 42 43  1  0  0  0
 42 66  1  0  0  0
 42110  1  0  0  0
 42111  1  0  0  0
 43 44  1  0  0  0
 44112  1  0  0  0
 45 46  2  0  0  0
 45113  1  0  0  0
 46114  1  0  0  0
 47115  1  0  0  0
 47116  1  0  0  0
 48 56  1  0  0  0
 48 65  1  0  0  0
 48117  1  0  0  0
 49 50  1  0  0  0
 49 53  1  0  0  0
 49 64  1  0  0  0
 49118  1  0  0  0
 50 51  1  0  0  0
 50119  1  0  0  0
 50120  1  0  0  0
 51 52  1  0  0  0
 51121  1  0  0  0
 51122  1  0  0  0
 52123  1  0  0  0
 52124  1  0  0  0
 53 54  1  0  0  0
 54 55  2  0  0  0
 54125  1  0  0  0
 55 57  1  0  0  0
 55126  1  0  0  0
 56 69  2  0  0  0
 57 58  2  0  0  0
 57127  1  0  0  0
 58128  1  0  0  0
 59 60  1  0  0  0
 59 61  1  0  0  0
 59 62  1  0  0  0
 60129  1  0  0  0
 60130  1  0  0  0
 60131  1  0  0  0
 61132  1  0  0  0
 61133  1  0  0  0
 61134  1  0  0  0
 62135  1  0  0  0
 62136  1  0  0  0
 62137  1  0  0  0
 63 65  1  0  0  0
 63138  1  0  0  0
 63139  1  0  0  0
 63140  1  0  0  0
 64141  1  0  0  0
 65142  1  0  0  0
 68 78  1  0  0  0
 71 72  1  0  0  0
 71143  1  0  0  0
 71144  1  0  0  0
 71 77  1  0  0  0
 72 78  1  0  0  0
 72145  1  0  0  0
 72146  1  0  0  0
 73 74  1  0  0  0
 73 76  1  0  0  0
 73147  1  0  0  0
 73148  1  0  0  0
 74149  1  0  0  0
 74150  1  0  0  0
 74 83  1  0  0  0
 75 76  1  0  0  0
 75 83  1  0  0  0
 75151  1  0  0  0
 75152  1  0  0  0
 76 82  1  0  0  0
 76153  1  0  0  0
 77 79  1  0  0  0
 77 83  1  0  0  0
 77154  1  0  0  0
 78 79  1  0  0  0
 78155  1  0  0  0
 79 80  1  0  0  0
 79 81  1  0  0  0
 80156  1  0  0  0
 80157  1  0  0  0
 80158  1  0  0  0
 81159  1  0  0  0
 81160  1  0  0  0
 81161  1  0  0  0
 82162  1  0  0  0
 83163  1  0  0  0
M  CHG  1  83   1
M  ISO  4   1 100  68 101  78 101  82 100
M  END
> <chiral flag>
0

> <version>
0

> <s_m_source_file>
/data/baiqing/PycharmProjects/Reinvent-master-3.2/result/LINK_invent/BTK/process_docking_weight1_custom_sum_contain_oxygen_bond_distance_aromatic_linkinvent_7_9_3/rearranged_h_0178.sdf

> <i_m_source_file_index>
89

> <r_mmod_Potential_Energy-OPLS-2005>
629.566162109375

> <r_mmod_Stretch_Energy-OPLS-2005>
300.40478515625

> <r_mmod_Bend_Energy-OPLS-2005>
361.322052001953

> <r_mmod_Torsional_Energy-OPLS-2005>
337.839508056641

> <r_mmod_Improper_Torsional_Energy-OPLS-2005>
4.22324228286743

> <r_mmod_Van_der_Waal_Energy-OPLS-2005>
101.19416809082

> <r_mmod_Electrostatic_Energy-OPLS-2005>
-267.015472412109

> <r_mmod_Solvation_Energy-OPLS-2005>
-454.914031982422

> <b_mmod_Minimization_Converged-OPLS-2005>
0

> <r_mmod_RMS_Derivative-OPLS-2005>
2.01253509521484

$$$$
90
                    3D
 Structure written by MMmdl.
167176  0  0  1  0            999 V2000
  -30.6501  -14.8596   20.4436 C   0  0  0  0  0  0
  -30.4202  -12.5457   19.4754 C   0  0  0  0  0  0
  -29.5022  -12.5126   18.2367 C   0  0  0  0  0  0
  -28.0378  -12.3149   18.6665 C   0  0  0  0  0  0
  -27.6286  -13.2488   19.8380 C   0  0  2  0  0  0
  -28.6811  -13.2678   20.9663 C   0  0  0  0  0  0
  -25.2500  -13.8206   20.5802 C   0  0  0  0  0  0
  -24.1788  -13.0429   20.9239 C   0  0  0  0  0  0
  -24.6403  -11.6918   20.8751 C   0  0  0  0  0  0
  -23.9090  -10.4287   21.0404 C   0  0  0  0  0  0
  -24.3638   -9.4201   21.9179 C   0  0  0  0  0  0
  -23.6305   -8.2237   22.0749 C   0  0  0  0  0  0
  -22.4283   -8.0282   21.3542 C   0  0  0  0  0  0
  -21.9927   -9.0259   20.4641 C   0  0  0  0  0  0
  -22.7264  -10.2134   20.3052 C   0  0  0  0  0  0
  -21.6852   -6.0743   22.5281 C   0  0  0  0  0  0
  -21.4012   -6.5644   23.8215 C   0  0  0  0  0  0
  -21.3656   -5.6797   24.9170 C   0  0  0  0  0  0
  -21.6042   -4.3061   24.7223 C   0  0  0  0  0  0
  -21.8821   -3.8154   23.4345 C   0  0  0  0  0  0
  -21.9194   -4.6972   22.3400 C   0  0  0  0  0  0
  -22.7813  -13.5215   21.1883 C   0  0  0  0  0  0
  -22.1664   -4.2159   21.0980 F   0  0  0  0  0  0
  -21.5630   -3.4541   25.7736 F   0  0  0  0  0  0
  -29.9509  -13.6621   20.3445 N   0  0  0  0  0  0
  -26.2905  -12.9441   20.3300 N   0  0  0  0  0  0
  -25.9340  -11.6565   20.5760 N   0  0  0  0  0  0
  -22.0462  -12.8182   22.0429 N   0  0  0  0  0  0
  -25.4227  -15.1921   20.4371 N   0  0  0  0  0  0
  -31.8621  -14.7920   20.2140 O   0  0  0  0  0  0
  -21.6642   -6.8883   21.4241 O   0  0  0  0  0  0
  -22.3499  -14.5525   20.6740 O   0  0  0  0  0  0
  -24.6379  -31.8495   23.1964 C   0  0  0  0  0  0
  -25.9182  -32.4717   23.8323 C   0  0  1  0  0  0
  -27.2005  -27.1837   20.1409 C   0  0  0  0  0  0
  -25.5952  -33.8522   24.2224 N   0  0  0  0  0  0
  -23.4366  -30.4767   21.5389 C   0  0  2  0  0  0
  -24.8833  -28.9191   20.1039 C   0  0  0  0  0  0
  -22.7536  -29.4589   22.4862 C   0  0  0  0  0  0
  -18.0297  -28.1396   22.8457 C   0  0  0  0  0  0
  -24.1480  -36.7258   23.2643 C   0  0  0  0  0  0
  -25.9908  -30.7365   21.3929 C   0  0  0  0  0  0
  -26.0572  -29.3542   20.7321 C   0  0  0  0  0  0
  -27.2153  -28.4975   20.7447 C   0  0  0  0  0  0
  -26.0102  -26.8575   19.4496 C   0  0  0  0  0  0
  -24.8700  -27.6822   19.4476 C   0  0  0  0  0  0
  -23.6591  -29.8172   20.1530 C   0  0  0  0  0  0
  -25.4109  -36.3037   24.0322 C   0  0  1  0  0  0
  -20.5908  -28.3716   23.1233 C   0  0  2  0  0  0
  -20.6791  -26.9418   22.5407 C   0  0  0  0  0  0
  -19.5775  -26.6375   21.5208 C   0  0  0  0  0  0
  -18.1943  -26.7937   22.1598 C   0  0  0  0  0  0
  -19.1556  -28.8867   23.2843 C   0  0  0  0  0  0
  -18.9479  -30.1471   23.8862 C   0  0  0  0  0  0
  -17.6480  -30.6592   24.0560 C   0  0  0  0  0  0
  -25.9054  -34.9411   23.5071 C   0  0  0  0  0  0
  -16.5368  -29.9084   23.6353 C   0  0  0  0  0  0
  -16.7287  -28.6512   23.0347 C   0  0  0  0  0  0
  -26.4528  -31.6574   25.0745 C   0  0  0  0  0  0
  -25.3716  -31.3770   26.1454 C   0  0  0  0  0  0
  -27.0401  -30.2971   24.6308 C   0  0  0  0  0  0
  -27.6068  -32.4342   25.7517 C   0  0  0  0  0  0
  -27.5569  -37.1781   24.8462 C   0  0  0  0  0  0
  -21.4231  -29.3056   22.3606 N   0  0  0  0  0  0
  -26.4271  -37.3748   23.9411 N   0  0  0  0  0  0
  -24.7074  -31.0412   22.0973 N   0  0  0  0  0  0
  -23.4211  -28.8118   23.2975 O   0  0  0  0  0  0
  -28.2397  -26.1998   20.2393 O   0  0  0  0  0  0
  -26.5630  -34.8904   22.4639 O   0  0  0  0  0  0
  -23.5515  -32.1354   23.7216 O   0  0  0  0  0  0
  -27.0041  -22.1409   18.8140 C   0  0  0  0  0  0
  -28.0682  -21.9592   19.6665 C   0  0  0  0  0  0
  -27.3540  -19.9610   18.8113 C   0  0  0  0  0  0
  -30.1767  -18.6392   19.3483 C   0  0  0  0  0  0
  -28.5589  -18.2837   21.2228 C   0  0  0  0  0  0
  -30.8667  -17.2898   19.8280 C   0  0  0  0  0  0
  -29.1703  -16.7926   21.4142 C   0  0  0  0  0  0
  -29.2473  -19.4294   20.3457 C   0  0  0  0  0  0
  -27.3057  -18.3851   16.8352 C   0  0  0  0  0  0
  -25.6115  -18.1360   18.6932 C   0  0  0  0  0  0
  -28.6899  -23.2923   20.3128 C   0  0  0  0  0  0
  -27.9156  -24.7286   19.9357 C   0  0  0  0  0  0
  -27.0521  -18.5474   18.3441 C   0  0  0  0  0  0
  -28.2805  -20.4937   19.6711 N   0  0  0  0  0  0
  -26.6198  -20.9497   18.3208 N   0  3  0  0  0  0
  -30.0410  -16.1522   20.3731 N   0  0  0  0  0  0
  -31.4560  -12.6617   19.1553 H   0  0  0  0  0  0
  -30.3853  -11.5959   20.0110 H   0  0  0  0  0  0
  -29.8062  -11.7130   17.5604 H   0  0  0  0  0  0
  -29.6012  -13.4440   17.6770 H   0  0  0  0  0  0
  -27.9299  -11.2738   18.9733 H   0  0  0  0  0  0
  -27.3685  -12.4513   17.8159 H   0  0  0  0  0  0
  -27.5943  -14.2532   19.4151 H   0  0  0  0  0  0
  -28.7647  -12.2890   21.4407 H   0  0  0  0  0  0
  -28.3978  -13.9602   21.7569 H   0  0  0  0  0  0
  -25.2780   -9.5674   22.4753 H   0  0  0  0  0  0
  -24.0016   -7.4627   22.7465 H   0  0  0  0  0  0
  -21.0857   -8.8778   19.8946 H   0  0  0  0  0  0
  -22.3723  -10.9675   19.6163 H   0  0  0  0  0  0
  -21.1999   -7.6152   23.9720 H   0  0  0  0  0  0
  -21.1477   -6.0524   25.9075 H   0  0  0  0  0  0
  -22.0602   -2.7619   23.2843 H   0  0  0  0  0  0
  -22.4103  -11.9842   22.4808 H   0  0  0  0  0  0
  -21.1073  -13.1184   22.2632 H   0  0  0  0  0  0
  -24.6620  -15.8476   20.5722 H   0  0  0  0  0  0
  -26.2887  -15.6328   20.1593 H   0  0  0  0  0  0
  -26.7238  -32.5337   23.1051 H   0  0  0  0  0  0
  -25.0163  -33.9655   25.0413 H   0  0  0  0  0  0
  -22.7359  -31.3020   21.3935 H   0  0  0  0  0  0
  -23.3751  -35.9584   23.3292 H   0  0  0  0  0  0
  -24.3575  -36.8897   22.2062 H   0  0  0  0  0  0
  -23.7231  -37.6445   23.6690 H   0  0  0  0  0  0
  -26.1451  -31.4919   20.6212 H   0  0  0  0  0  0
  -26.8634  -30.7816   22.0337 H   0  0  0  0  0  0
  -28.0992  -28.8151   21.2780 H   0  0  0  0  0  0
  -25.9126  -25.9264   18.9135 H   0  0  0  0  0  0
  -23.9787  -27.3510   18.9310 H   0  0  0  0  0  0
  -23.7886  -30.5979   19.4022 H   0  0  0  0  0  0
  -22.7743  -29.2591   19.8425 H   0  0  0  0  0  0
  -25.1296  -36.1870   25.0818 H   0  0  0  0  0  0
  -21.0010  -28.3315   24.1352 H   0  0  0  0  0  0
  -20.5683  -26.2331   23.3626 H   0  0  0  0  0  0
  -21.6659  -26.7431   22.1209 H   0  0  0  0  0  0
  -19.6942  -25.6278   21.1256 H   0  0  0  0  0  0
  -19.6729  -27.3172   20.6726 H   0  0  0  0  0  0
  -17.4226  -26.6698   21.3984 H   0  0  0  0  0  0
  -18.0316  -26.0076   22.8986 H   0  0  0  0  0  0
  -19.7960  -30.7293   24.2203 H   0  0  0  0  0  0
  -17.5044  -31.6271   24.5166 H   0  0  0  0  0  0
  -15.5380  -30.2987   23.7694 H   0  0  0  0  0  0
  -15.8684  -28.0842   22.7072 H   0  0  0  0  0  0
  -24.5941  -30.7043   25.7816 H   0  0  0  0  0  0
  -24.8855  -32.2951   26.4760 H   0  0  0  0  0  0
  -25.8025  -30.9071   27.0300 H   0  0  0  0  0  0
  -26.3026  -29.6689   24.1298 H   0  0  0  0  0  0
  -27.4014  -29.7283   25.4885 H   0  0  0  0  0  0
  -27.8930  -30.4236   23.9633 H   0  0  0  0  0  0
  -27.2675  -33.3687   26.2002 H   0  0  0  0  0  0
  -28.3923  -32.6816   25.0360 H   0  0  0  0  0  0
  -28.0673  -31.8513   26.5503 H   0  0  0  0  0  0
  -28.2577  -38.0082   24.7501 H   0  0  0  0  0  0
  -28.1070  -36.2615   24.6291 H   0  0  0  0  0  0
  -27.2295  -37.1427   25.8866 H   0  0  0  0  0  0
  -20.9414  -29.8793   21.6821 H   0  0  0  0  0  0
  -26.0141  -38.2812   24.1431 H   0  0  0  0  0  0
  -26.4857  -23.0331   18.4955 H   0  0  0  0  0  0
  -29.6794  -18.4291   18.4081 H   0  0  0  0  0  0
  -30.9703  -19.3252   19.0493 H   0  0  0  0  0  0
  -28.4499  -18.6986   22.2255 H   0  0  0  0  0  0
  -27.5187  -18.1671   20.9320 H   0  0  0  0  0  0
  -31.6164  -17.5399   20.5811 H   0  0  0  0  0  0
  -31.4375  -16.9238   18.9714 H   0  0  0  0  0  0
  -28.3325  -16.1276   21.6162 H   0  0  0  0  0  0
  -29.7568  -16.7911   22.3348 H   0  0  0  0  0  0
  -29.8997  -19.9973   21.0109 H   0  0  0  0  0  0
  -28.3260  -18.6581   16.5684 H   0  0  0  0  0  0
  -26.6356  -19.0048   16.2396 H   0  0  0  0  0  0
  -27.1557  -17.3512   16.5243 H   0  0  0  0  0  0
  -25.4244  -18.2141   19.7646 H   0  0  0  0  0  0
  -25.4200  -17.1036   18.4007 H   0  0  0  0  0  0
  -24.8726  -18.7551   18.1839 H   0  0  0  0  0  0
  -29.7337  -23.3573   20.0084 H   0  0  0  0  0  0
  -28.7000  -23.1680   21.3955 H   0  0  0  0  0  0
  -26.9084  -24.5692   20.3221 H   0  0  0  0  0  0
  -27.8368  -24.7339   18.8486 H   0  0  0  0  0  0
  -27.7047  -17.8433   18.8455 H   0  0  0  0  0  0
  -25.8699  -20.8261   17.6509 H   0  0  0  0  0  0
  1 25  1  0  0  0
  1 30  2  0  0  0
  1 86  1  0  0  0
  2  3  1  0  0  0
  2 25  1  0  0  0
  2 87  1  0  0  0
  2 88  1  0  0  0
  3  4  1  0  0  0
  3 89  1  0  0  0
  3 90  1  0  0  0
  4  5  1  0  0  0
  4 91  1  0  0  0
  4 92  1  0  0  0
  5  6  1  0  0  0
  5 26  1  0  0  0
  5 93  1  0  0  0
  6 25  1  0  0  0
  6 94  1  0  0  0
  6 95  1  0  0  0
  7  8  2  0  0  0
  7 26  1  0  0  0
  7 29  1  0  0  0
  8  9  1  0  0  0
  8 22  1  0  0  0
  9 10  1  0  0  0
  9 27  2  0  0  0
 10 11  2  0  0  0
 10 15  1  0  0  0
 11 12  1  0  0  0
 11 96  1  0  0  0
 12 13  2  0  0  0
 12 97  1  0  0  0
 13 14  1  0  0  0
 13 31  1  0  0  0
 14 15  2  0  0  0
 14 98  1  0  0  0
 15 99  1  0  0  0
 16 17  2  0  0  0
 16 21  1  0  0  0
 16 31  1  0  0  0
 17 18  1  0  0  0
 17100  1  0  0  0
 18 19  2  0  0  0
 18101  1  0  0  0
 19 20  1  0  0  0
 19 24  1  0  0  0
 20 21  2  0  0  0
 20102  1  0  0  0
 21 23  1  0  0  0
 22 28  1  0  0  0
 22 32  2  0  0  0
 26 27  1  0  0  0
 28103  1  0  0  0
 28104  1  0  0  0
 29105  1  0  0  0
 29106  1  0  0  0
 33 34  1  0  0  0
 33 66  1  0  0  0
 33 70  2  0  0  0
 34 36  1  0  0  0
 34 59  1  0  0  0
 34107  1  0  0  0
 35 44  2  0  0  0
 35 45  1  0  0  0
 35 68  1  0  0  0
 36 56  1  0  0  0
 36108  1  0  0  0
 37 39  1  0  0  0
 37 47  1  0  0  0
 37 66  1  0  0  0
 37109  1  0  0  0
 38 43  2  0  0  0
 38 46  1  0  0  0
 38 47  1  0  0  0
 39 64  1  0  0  0
 39 67  2  0  0  0
 40 52  1  0  0  0
 40 53  2  0  0  0
 40 58  1  0  0  0
 41110  1  0  0  0
 41111  1  0  0  0
 41112  1  0  0  0
 41 48  1  0  0  0
 42 43  1  0  0  0
 42 66  1  0  0  0
 42113  1  0  0  0
 42114  1  0  0  0
 43 44  1  0  0  0
 44115  1  0  0  0
 45 46  2  0  0  0
 45116  1  0  0  0
 46117  1  0  0  0
 47118  1  0  0  0
 47119  1  0  0  0
 48 56  1  0  0  0
 48 65  1  0  0  0
 48120  1  0  0  0
 49 50  1  0  0  0
 49 53  1  0  0  0
 49 64  1  0  0  0
 49121  1  0  0  0
 50 51  1  0  0  0
 50122  1  0  0  0
 50123  1  0  0  0
 51 52  1  0  0  0
 51124  1  0  0  0
 51125  1  0  0  0
 52126  1  0  0  0
 52127  1  0  0  0
 53 54  1  0  0  0
 54 55  2  0  0  0
 54128  1  0  0  0
 55 57  1  0  0  0
 55129  1  0  0  0
 56 69  2  0  0  0
 57 58  2  0  0  0
 57130  1  0  0  0
 58131  1  0  0  0
 59 60  1  0  0  0
 59 61  1  0  0  0
 59 62  1  0  0  0
 60132  1  0  0  0
 60133  1  0  0  0
 60134  1  0  0  0
 61135  1  0  0  0
 61136  1  0  0  0
 61137  1  0  0  0
 62138  1  0  0  0
 62139  1  0  0  0
 62140  1  0  0  0
 63 65  1  0  0  0
 63141  1  0  0  0
 63142  1  0  0  0
 63143  1  0  0  0
 64144  1  0  0  0
 65145  1  0  0  0
 68 82  1  0  0  0
 71 72  2  0  0  0
 71 85  1  0  0  0
 71146  1  0  0  0
 72 81  1  0  0  0
 72 84  1  0  0  0
 73 83  1  0  0  0
 73 84  1  0  0  0
 73 85  2  0  0  0
 74 76  1  0  0  0
 74 78  1  0  0  0
 74147  1  0  0  0
 74148  1  0  0  0
 75 77  1  0  0  0
 75 78  1  0  0  0
 75149  1  0  0  0
 75150  1  0  0  0
 76 86  1  0  0  0
 76151  1  0  0  0
 76152  1  0  0  0
 77 86  1  0  0  0
 77153  1  0  0  0
 77154  1  0  0  0
 78 84  1  0  0  0
 78155  1  0  0  0
 79156  1  0  0  0
 79157  1  0  0  0
 79158  1  0  0  0
 79 83  1  0  0  0
 80 83  1  0  0  0
 80159  1  0  0  0
 80160  1  0  0  0
 80161  1  0  0  0
 81 82  1  0  0  0
 81162  1  0  0  0
 81163  1  0  0  0
 82164  1  0  0  0
 82165  1  0  0  0
 83166  1  0  0  0
 85167  1  0  0  0
M  CHG  1  85   1
M  ISO  4   1 100  68 101  82 101  86 100
M  END
> <chiral flag>
0

> <version>
0

> <s_m_source_file>
/data/baiqing/PycharmProjects/Reinvent-master-3.2/result/LINK_invent/BTK/process_docking_weight1_custom_sum_contain_oxygen_bond_distance_aromatic_linkinvent_7_9_3/rearranged_h_0178.sdf

> <i_m_source_file_index>
90

> <r_mmod_Potential_Energy-OPLS-2005>
660.95703125

> <r_mmod_Stretch_Energy-OPLS-2005>
217.425048828125

> <r_mmod_Bend_Energy-OPLS-2005>
312.119445800781

> <r_mmod_Torsional_Energy-OPLS-2005>
358.081024169922

> <r_mmod_Improper_Torsional_Energy-OPLS-2005>
15.7238254547119

> <r_mmod_Van_der_Waal_Energy-OPLS-2005>
136.680938720703

> <r_mmod_Electrostatic_Energy-OPLS-2005>
-121.040626525879

> <r_mmod_Solvation_Energy-OPLS-2005>
-409.156005859375

> <b_mmod_Minimization_Converged-OPLS-2005>
0

> <r_mmod_RMS_Derivative-OPLS-2005>
2.08509540557861

$$$$
91
                    3D
 Structure written by MMmdl.
146155  0  0  1  0            999 V2000
  -30.3823  -15.5053   20.3526 C   0  0  0  0  0  0
  -30.4201  -12.9834   19.5438 C   0  0  0  0  0  0
  -29.5410  -12.6265   18.3154 C   0  0  0  0  0  0
  -28.1061  -12.2998   18.7532 C   0  0  0  0  0  0
  -27.5982  -13.3004   19.8179 C   0  0  2  0  0  0
  -28.6185  -13.5925   20.9433 C   0  0  0  0  0  0
  -25.2337  -13.8290   20.5800 C   0  0  0  0  0  0
  -24.1712  -13.0445   20.9280 C   0  0  0  0  0  0
  -24.6400  -11.6951   20.8766 C   0  0  0  0  0  0
  -23.9106  -10.4298   21.0400 C   0  0  0  0  0  0
  -24.3646   -9.4210   21.9180 C   0  0  0  0  0  0
  -23.6311   -8.2249   22.0752 C   0  0  0  0  0  0
  -22.4292   -8.0287   21.3543 C   0  0  0  0  0  0
  -21.9935   -9.0262   20.4643 C   0  0  0  0  0  0
  -22.7274  -10.2136   20.3051 C   0  0  0  0  0  0
  -21.6859   -6.0741   22.5278 C   0  0  0  0  0  0
  -21.4019   -6.5643   23.8212 C   0  0  0  0  0  0
  -21.3661   -5.6794   24.9173 C   0  0  0  0  0  0
  -21.6044   -4.3057   24.7224 C   0  0  0  0  0  0
  -21.8818   -3.8149   23.4344 C   0  0  0  0  0  0
  -21.9194   -4.6967   22.3401 C   0  0  0  0  0  0
  -22.7726  -13.5178   21.1916 C   0  0  0  0  0  0
  -22.1662   -4.2152   21.0978 F   0  0  0  0  0  0
  -21.5628   -3.4540   25.7736 F   0  0  0  0  0  0
  -29.8141  -14.1699   20.2944 N   0  0  0  0  0  0
  -26.2771  -12.9604   20.3249 N   0  0  0  0  0  0
  -25.9345  -11.6682   20.5719 N   0  0  0  0  0  0
  -22.0392  -12.8151   22.0467 N   0  0  0  0  0  0
  -25.3971  -15.2031   20.4265 N   0  0  0  0  0  0
  -31.6020  -15.4178   20.1142 O   0  0  0  0  0  0
  -21.6649   -6.8887   21.4242 O   0  0  0  0  0  0
  -22.3401  -14.5476   20.6753 O   0  0  0  0  0  0
  -24.6770  -31.8068   23.1574 C   0  0  0  0  0  0
  -25.9383  -32.4500   23.8094 C   0  0  1  0  0  0
  -27.2219  -26.7710   20.2009 C   0  0  0  0  0  0
  -25.5990  -33.8323   24.1985 N   0  0  0  0  0  0
  -23.5001  -30.4116   21.5090 C   0  0  2  0  0  0
  -24.9579  -28.7697   20.1099 C   0  0  0  0  0  0
  -22.7737  -29.4348   22.4723 C   0  0  0  0  0  0
  -18.0334  -28.1418   22.8459 C   0  0  0  0  0  0
  -24.1495  -36.7167   23.2651 C   0  0  0  0  0  0
  -26.0770  -30.5604   21.4140 C   0  0  0  0  0  0
  -26.1425  -29.1339   20.7604 C   0  0  0  0  0  0
  -27.2596  -28.1575   20.7823 C   0  0  0  0  0  0
  -26.0126  -26.6057   19.4818 C   0  0  0  0  0  0
  -24.9282  -27.5304   19.4479 C   0  0  0  0  0  0
  -23.7500  -29.7155   20.1402 C   0  0  0  0  0  0
  -25.4142  -36.2915   24.0286 C   0  0  1  0  0  0
  -20.5967  -28.3773   23.1155 C   0  0  2  0  0  0
  -20.6803  -26.9438   22.5403 C   0  0  0  0  0  0
  -19.5778  -26.6372   21.5216 C   0  0  0  0  0  0
  -18.1961  -26.7947   22.1621 C   0  0  0  0  0  0
  -19.1599  -28.8919   23.2789 C   0  0  0  0  0  0
  -18.9506  -30.1505   23.8832 C   0  0  0  0  0  0
  -17.6497  -30.6602   24.0552 C   0  0  0  0  0  0
  -25.9118  -34.9303   23.4968 C   0  0  0  0  0  0
  -16.5387  -29.9085   23.6349 C   0  0  0  0  0  0
  -16.7315  -28.6508   23.0366 C   0  0  0  0  0  0
  -26.4584  -31.6511   25.0691 C   0  0  0  0  0  0
  -25.3667  -31.3811   26.1316 C   0  0  0  0  0  0
  -27.0511  -30.2856   24.6550 C   0  0  0  0  0  0
  -27.6043  -32.4361   25.7504 C   0  0  0  0  0  0
  -27.5565  -37.1741   24.8466 C   0  0  0  0  0  0
  -21.4390  -29.3031   22.3480 N   0  0  0  0  0  0
  -26.4273  -37.3669   23.9408 N   0  0  0  0  0  0
  -24.7739  -30.9577   22.0794 N   0  0  0  0  0  0
  -23.4213  -28.7939   23.3036 O   0  0  0  0  0  0
  -28.1722  -25.5716   20.3336 O   0  0  0  0  0  0
  -26.5750  -34.8868   22.4580 O   0  0  0  0  0  0
  -23.5805  -32.1114   23.6568 O   0  0  0  0  0  0
  -28.0499  -21.6041   21.6021 C   0  0  0  0  0  0
  -28.7686  -19.2850   21.2166 C   0  0  0  0  0  0
  -29.3243  -19.7104   20.0457 C   0  0  0  0  0  0
  -28.5510  -22.2332   20.3919 C   0  0  0  0  0  0
  -28.9521  -17.6784   21.4504 C   0  0  0  0  0  0
  -29.9791  -18.2638   19.5020 C   0  0  0  0  0  0
  -28.0225  -23.9162   19.8758 C   0  0  0  0  0  0
  -28.1424  -20.2456   21.9942 N   0  0  0  0  0  0
  -29.2043  -21.1376   19.6217 N   0  0  0  0  0  0
  -29.7007  -16.8896   20.3336 N   0  0  0  0  0  0
  -31.4290  -13.2017   19.1924 H   0  0  0  0  0  0
  -30.5336  -12.1195   20.2011 H   0  0  0  0  0  0
  -29.9694  -11.7858   17.7681 H   0  0  0  0  0  0
  -29.5282  -13.4702   17.6238 H   0  0  0  0  0  0
  -28.1091  -11.2928   19.1721 H   0  0  0  0  0  0
  -27.4363  -12.2738   17.8928 H   0  0  0  0  0  0
  -27.4755  -14.2350   19.2686 H   0  0  0  0  0  0
  -28.8457  -12.6993   21.5272 H   0  0  0  0  0  0
  -28.2072  -14.3228   21.6419 H   0  0  0  0  0  0
  -25.2786   -9.5686   22.4763 H   0  0  0  0  0  0
  -24.0015   -7.4641   22.7476 H   0  0  0  0  0  0
  -21.0865   -8.8786   19.8950 H   0  0  0  0  0  0
  -22.3729  -10.9677   19.6163 H   0  0  0  0  0  0
  -21.2013   -7.6151   23.9716 H   0  0  0  0  0  0
  -21.1483   -6.0524   25.9076 H   0  0  0  0  0  0
  -22.0596   -2.7611   23.2844 H   0  0  0  0  0  0
  -22.4036  -11.9828   22.4861 H   0  0  0  0  0  0
  -21.0998  -13.1145   22.2667 H   0  0  0  0  0  0
  -24.6281  -15.8539   20.5437 H   0  0  0  0  0  0
  -26.2444  -15.6461   20.0959 H   0  0  0  0  0  0
  -26.7459  -32.4989   23.0804 H   0  0  0  0  0  0
  -25.0062  -33.9374   25.0086 H   0  0  0  0  0  0
  -22.8217  -31.2475   21.3255 H   0  0  0  0  0  0
  -23.3774  -35.9479   23.3267 H   0  0  0  0  0  0
  -24.3565  -36.8871   22.2074 H   0  0  0  0  0  0
  -23.7237  -37.6330   23.6751 H   0  0  0  0  0  0
  -26.2758  -31.2910   20.6287 H   0  0  0  0  0  0
  -26.9297  -30.6229   22.0777 H   0  0  0  0  0  0
  -28.1450  -28.4330   21.3376 H   0  0  0  0  0  0
  -25.8560  -25.6657   18.9732 H   0  0  0  0  0  0
  -24.0335  -27.2459   18.9112 H   0  0  0  0  0  0
  -23.9173  -30.4793   19.3799 H   0  0  0  0  0  0
  -22.8566  -29.1775   19.8183 H   0  0  0  0  0  0
  -25.1348  -36.1686   25.0777 H   0  0  0  0  0  0
  -21.0053  -28.3395   24.1279 H   0  0  0  0  0  0
  -20.5670  -26.2396   23.3660 H   0  0  0  0  0  0
  -21.6664  -26.7388   22.1219 H   0  0  0  0  0  0
  -19.6934  -25.6266   21.1288 H   0  0  0  0  0  0
  -19.6720  -27.3147   20.6718 H   0  0  0  0  0  0
  -17.4230  -26.6690   21.4025 H   0  0  0  0  0  0
  -18.0350  -26.0105   22.9032 H   0  0  0  0  0  0
  -19.7981  -30.7339   24.2171 H   0  0  0  0  0  0
  -17.5047  -31.6276   24.5167 H   0  0  0  0  0  0
  -15.5384  -30.2966   23.7711 H   0  0  0  0  0  0
  -15.8716  -28.0804   22.7118 H   0  0  0  0  0  0
  -24.5874  -30.7136   25.7619 H   0  0  0  0  0  0
  -24.8831  -32.3027   26.4562 H   0  0  0  0  0  0
  -25.7858  -30.9094   27.0213 H   0  0  0  0  0  0
  -26.3217  -29.6484   24.1539 H   0  0  0  0  0  0
  -27.3957  -29.7284   25.5272 H   0  0  0  0  0  0
  -27.9190  -30.3996   24.0054 H   0  0  0  0  0  0
  -27.2587  -33.3724   26.1900 H   0  0  0  0  0  0
  -28.3946  -32.6825   25.0401 H   0  0  0  0  0  0
  -28.0610  -31.8614   26.5572 H   0  0  0  0  0  0
  -28.2553  -38.0063   24.7515 H   0  0  0  0  0  0
  -28.1090  -36.2586   24.6292 H   0  0  0  0  0  0
  -27.2280  -37.1376   25.8868 H   0  0  0  0  0  0
  -20.9680  -29.8698   21.6565 H   0  0  0  0  0  0
  -26.0105  -38.2719   24.1421 H   0  0  0  0  0  0
  -27.4747  -22.2163   22.2815 H   0  0  0  0  0  0
  -27.9648  -17.2341   21.5781 H   0  0  0  0  0  0
  -29.4824  -17.5276   22.3910 H   0  0  0  0  0  0
  -31.0594  -18.3939   19.4332 H   0  0  0  0  0  0
  -29.6321  -18.1057   18.4809 H   0  0  0  0  0  0
  -26.9411  -23.7884   19.8404 H   0  0  0  0  0  0
  -28.3107  -23.9390   18.8251 H   0  0  0  0  0  0
  1 25  1  0  0  0
  1 30  2  0  0  0
  1 80  1  0  0  0
  2  3  1  0  0  0
  2 25  1  0  0  0
  2 81  1  0  0  0
  2 82  1  0  0  0
  3  4  1  0  0  0
  3 83  1  0  0  0
  3 84  1  0  0  0
  4  5  1  0  0  0
  4 85  1  0  0  0
  4 86  1  0  0  0
  5  6  1  0  0  0
  5 26  1  0  0  0
  5 87  1  0  0  0
  6 25  1  0  0  0
  6 88  1  0  0  0
  6 89  1  0  0  0
  7  8  2  0  0  0
  7 26  1  0  0  0
  7 29  1  0  0  0
  8  9  1  0  0  0
  8 22  1  0  0  0
  9 10  1  0  0  0
  9 27  2  0  0  0
 10 11  2  0  0  0
 10 15  1  0  0  0
 11 12  1  0  0  0
 11 90  1  0  0  0
 12 13  2  0  0  0
 12 91  1  0  0  0
 13 14  1  0  0  0
 13 31  1  0  0  0
 14 15  2  0  0  0
 14 92  1  0  0  0
 15 93  1  0  0  0
 16 17  2  0  0  0
 16 21  1  0  0  0
 16 31  1  0  0  0
 17 18  1  0  0  0
 17 94  1  0  0  0
 18 19  2  0  0  0
 18 95  1  0  0  0
 19 20  1  0  0  0
 19 24  1  0  0  0
 20 21  2  0  0  0
 20 96  1  0  0  0
 21 23  1  0  0  0
 22 28  1  0  0  0
 22 32  2  0  0  0
 26 27  1  0  0  0
 28 97  1  0  0  0
 28 98  1  0  0  0
 29 99  1  0  0  0
 29100  1  0  0  0
 33 34  1  0  0  0
 33 66  1  0  0  0
 33 70  2  0  0  0
 34 36  1  0  0  0
 34 59  1  0  0  0
 34101  1  0  0  0
 35 44  2  0  0  0
 35 45  1  0  0  0
 35 68  1  0  0  0
 36 56  1  0  0  0
 36102  1  0  0  0
 37 39  1  0  0  0
 37 47  1  0  0  0
 37 66  1  0  0  0
 37103  1  0  0  0
 38 43  2  0  0  0
 38 46  1  0  0  0
 38 47  1  0  0  0
 39 64  1  0  0  0
 39 67  2  0  0  0
 40 52  1  0  0  0
 40 53  2  0  0  0
 40 58  1  0  0  0
 41104  1  0  0  0
 41105  1  0  0  0
 41106  1  0  0  0
 41 48  1  0  0  0
 42 43  1  0  0  0
 42 66  1  0  0  0
 42107  1  0  0  0
 42108  1  0  0  0
 43 44  1  0  0  0
 44109  1  0  0  0
 45 46  2  0  0  0
 45110  1  0  0  0
 46111  1  0  0  0
 47112  1  0  0  0
 47113  1  0  0  0
 48 56  1  0  0  0
 48 65  1  0  0  0
 48114  1  0  0  0
 49 50  1  0  0  0
 49 53  1  0  0  0
 49 64  1  0  0  0
 49115  1  0  0  0
 50 51  1  0  0  0
 50116  1  0  0  0
 50117  1  0  0  0
 51 52  1  0  0  0
 51118  1  0  0  0
 51119  1  0  0  0
 52120  1  0  0  0
 52121  1  0  0  0
 53 54  1  0  0  0
 54 55  2  0  0  0
 54122  1  0  0  0
 55 57  1  0  0  0
 55123  1  0  0  0
 56 69  2  0  0  0
 57 58  2  0  0  0
 57124  1  0  0  0
 58125  1  0  0  0
 59 60  1  0  0  0
 59 61  1  0  0  0
 59 62  1  0  0  0
 60126  1  0  0  0
 60127  1  0  0  0
 60128  1  0  0  0
 61129  1  0  0  0
 61130  1  0  0  0
 61131  1  0  0  0
 62132  1  0  0  0
 62133  1  0  0  0
 62134  1  0  0  0
 63 65  1  0  0  0
 63135  1  0  0  0
 63136  1  0  0  0
 63137  1  0  0  0
 64138  1  0  0  0
 65139  1  0  0  0
 68 77  1  0  0  0
 71 74  2  0  0  0
 71 78  1  0  0  0
 71140  1  0  0  0
 72 73  1  0  0  0
 72 75  1  0  0  0
 72 78  2  0  0  0
 73 76  1  0  0  0
 73 79  2  0  0  0
 74 77  1  0  0  0
 74 79  1  0  0  0
 75 80  1  0  0  0
 75141  1  0  0  0
 75142  1  0  0  0
 76 80  1  0  0  0
 76143  1  0  0  0
 76144  1  0  0  0
 77145  1  0  0  0
 77146  1  0  0  0
M  ISO  4   1 100  68 101  77 101  80 100
M  END
> <chiral flag>
0

> <version>
0

> <s_m_source_file>
/data/baiqing/PycharmProjects/Reinvent-master-3.2/result/LINK_invent/BTK/process_docking_weight1_custom_sum_contain_oxygen_bond_distance_aromatic_linkinvent_7_9_3/rearranged_h_0178.sdf

> <i_m_source_file_index>
91

> <r_mmod_Potential_Energy-OPLS-2005>
1988.72058105469

> <r_mmod_Stretch_Energy-OPLS-2005>
774.833740234375

> <r_mmod_Bend_Energy-OPLS-2005>
605.795227050781

> <r_mmod_Torsional_Energy-OPLS-2005>
267.110900878906

> <r_mmod_Improper_Torsional_Energy-OPLS-2005>
13.4753284454346

> <r_mmod_Van_der_Waal_Energy-OPLS-2005>
120.583267211914

> <r_mmod_Electrostatic_Energy-OPLS-2005>
-294.260772705078

> <r_mmod_Solvation_Energy-OPLS-2005>
-235.960739135742

> <b_mmod_Minimization_Converged-OPLS-2005>
0

> <r_mmod_RMS_Derivative-OPLS-2005>
0.0706550180912018

$$$$
92
                    3D
 Structure written by MMmdl.
154163  0  0  1  0            999 V2000
  -30.5210  -15.0897   20.3944 C   0  0  0  0  0  0
  -30.4287  -12.6866   19.5094 C   0  0  0  0  0  0
  -29.5187  -12.5420   18.2676 C   0  0  0  0  0  0
  -28.0603  -12.3036   18.6945 C   0  0  0  0  0  0
  -27.6164  -13.2635   19.8286 C   0  0  2  0  0  0
  -28.6560  -13.3796   20.9625 C   0  0  0  0  0  0
  -25.2423  -13.8238   20.5752 C   0  0  0  0  0  0
  -24.1751  -13.0438   20.9239 C   0  0  0  0  0  0
  -24.6387  -11.6928   20.8764 C   0  0  0  0  0  0
  -23.9081  -10.4290   21.0419 C   0  0  0  0  0  0
  -24.3631   -9.4203   21.9194 C   0  0  0  0  0  0
  -23.6303   -8.2236   22.0756 C   0  0  0  0  0  0
  -22.4285   -8.0277   21.3546 C   0  0  0  0  0  0
  -21.9927   -9.0252   20.4646 C   0  0  0  0  0  0
  -22.7252  -10.2133   20.3063 C   0  0  0  0  0  0
  -21.6851   -6.0741   22.5284 C   0  0  0  0  0  0
  -21.4011   -6.5646   23.8216 C   0  0  0  0  0  0
  -21.3658   -5.6799   24.9178 C   0  0  0  0  0  0
  -21.6044   -4.3062   24.7230 C   0  0  0  0  0  0
  -21.8815   -3.8152   23.4348 C   0  0  0  0  0  0
  -21.9188   -4.6968   22.3406 C   0  0  0  0  0  0
  -22.7771  -13.5200   21.1889 C   0  0  0  0  0  0
  -22.1657   -4.2152   21.0984 F   0  0  0  0  0  0
  -21.5632   -3.4546   25.7745 F   0  0  0  0  0  0
  -29.9065  -13.8251   20.3356 N   0  0  0  0  0  0
  -26.2835  -12.9490   20.3250 N   0  0  0  0  0  0
  -25.9323  -11.6604   20.5748 N   0  0  0  0  0  0
  -22.0433  -12.8182   22.0444 N   0  0  0  0  0  0
  -25.4126  -15.1964   20.4206 N   0  0  0  0  0  0
  -31.7337  -15.0760   20.1477 O   0  0  0  0  0  0
  -21.6640   -6.8880   21.4243 O   0  0  0  0  0  0
  -22.3448  -14.5503   20.6728 O   0  0  0  0  0  0
  -24.6531  -31.8346   23.1809 C   0  0  0  0  0  0
  -25.9255  -32.4647   23.8239 C   0  0  1  0  0  0
  -27.2123  -27.0366   20.1633 C   0  0  0  0  0  0
  -25.5962  -33.8460   24.2150 N   0  0  0  0  0  0
  -23.4615  -30.4510   21.5278 C   0  0  2  0  0  0
  -24.9113  -28.8596   20.1098 C   0  0  0  0  0  0
  -22.7613  -29.4503   22.4823 C   0  0  0  0  0  0
  -18.0317  -28.1409   22.8476 C   0  0  0  0  0  0
  -24.1492  -36.7230   23.2647 C   0  0  0  0  0  0
  -26.0245  -30.6763   21.3938 C   0  0  0  0  0  0
  -26.0920  -29.2773   20.7360 C   0  0  0  0  0  0
  -27.2405  -28.3838   20.7432 C   0  0  0  0  0  0
  -26.0050  -26.7456   19.4901 C   0  0  0  0  0  0
  -24.8863  -27.6110   19.4697 C   0  0  0  0  0  0
  -23.6932  -29.7747   20.1498 C   0  0  0  0  0  0
  -25.4128  -36.3007   24.0315 C   0  0  1  0  0  0
  -20.5937  -28.3746   23.1216 C   0  0  2  0  0  0
  -20.6804  -26.9442   22.5409 C   0  0  0  0  0  0
  -19.5775  -26.6387   21.5225 C   0  0  0  0  0  0
  -18.1951  -26.7947   22.1628 C   0  0  0  0  0  0
  -19.1575  -28.8896   23.2837 C   0  0  0  0  0  0
  -18.9490  -30.1489   23.8867 C   0  0  0  0  0  0
  -17.6485  -30.6601   24.0563 C   0  0  0  0  0  0
  -25.9087  -34.9379   23.5045 C   0  0  0  0  0  0
  -16.5375  -29.9091   23.6342 C   0  0  0  0  0  0
  -16.7300  -28.6512   23.0364 C   0  0  0  0  0  0
  -26.4545  -31.6552   25.0718 C   0  0  0  0  0  0
  -25.3696  -31.3767   26.1387 C   0  0  0  0  0  0
  -27.0430  -30.2936   24.6373 C   0  0  0  0  0  0
  -27.6071  -32.4329   25.7496 C   0  0  0  0  0  0
  -27.5568  -37.1772   24.8468 C   0  0  0  0  0  0
  -21.4299  -29.3051   22.3571 N   0  0  0  0  0  0
  -26.4282  -37.3727   23.9406 N   0  0  0  0  0  0
  -24.7336  -31.0110   22.0886 N   0  0  0  0  0  0
  -23.4208  -28.8063   23.3021 O   0  0  0  0  0  0
  -28.2360  -25.9912   20.2469 O   0  0  0  0  0  0
  -26.5692  -34.8889   22.4638 O   0  0  0  0  0  0
  -23.5625  -32.1261   23.6968 O   0  0  0  0  0  0
  -31.3463  -18.5328   20.0026 C   0  0  0  0  0  0
  -30.8681  -20.0409   20.0598 C   0  0  0  0  0  0
  -29.0418  -17.2432   21.2651 C   0  0  0  0  0  0
  -28.9579  -18.5035   20.2534 C   0  0  2  0  0  0
  -30.1225  -17.6997   19.5973 C   0  0  2  0  0  0
  -29.3885  -20.1208   20.5568 C   0  0  2  0  0  0
  -28.9347  -23.0161   20.4288 C   0  0  0  0  0  0
  -27.9778  -24.4208   20.0326 C   0  0  0  0  0  0
  -29.8044  -16.3587   20.2986 N   0  0  0  0  0  0
  -28.5890  -21.4603   20.0828 N   0  3  0  0  0  0
  -31.4582  -12.8496   19.1876 H   0  0  0  0  0  0
  -30.4457  -11.7626   20.0901 H   0  0  0  0  0  0
  -29.8626  -11.7225   17.6352 H   0  0  0  0  0  0
  -29.5788  -13.4464   17.6594 H   0  0  0  0  0  0
  -27.9835  -11.2707   19.0360 H   0  0  0  0  0  0
  -27.3923  -12.3890   17.8368 H   0  0  0  0  0  0
  -27.5526  -14.2461   19.3597 H   0  0  0  0  0  0
  -28.7827  -12.4331   21.4895 H   0  0  0  0  0  0
  -28.3309  -14.1130   21.7027 H   0  0  0  0  0  0
  -25.2770   -9.5674   22.4781 H   0  0  0  0  0  0
  -24.0007   -7.4624   22.7476 H   0  0  0  0  0  0
  -21.0858   -8.8764   19.8955 H   0  0  0  0  0  0
  -22.3700  -10.9676   19.6181 H   0  0  0  0  0  0
  -21.2005   -7.6153   23.9719 H   0  0  0  0  0  0
  -21.1487   -6.0534   25.9081 H   0  0  0  0  0  0
  -22.0598   -2.7614   23.2851 H   0  0  0  0  0  0
  -22.4067  -11.9837   22.4814 H   0  0  0  0  0  0
  -21.1051  -13.1194   22.2677 H   0  0  0  0  0  0
  -24.6524  -15.8563   20.5412 H   0  0  0  0  0  0
  -26.2723  -15.6310   20.1098 H   0  0  0  0  0  0
  -26.7321  -32.5218   23.0958 H   0  0  0  0  0  0
  -25.0066  -33.9574   25.0269 H   0  0  0  0  0  0
  -22.7696  -31.2804   21.3667 H   0  0  0  0  0  0
  -23.3764  -35.9553   23.3298 H   0  0  0  0  0  0
  -24.3571  -36.8878   22.2066 H   0  0  0  0  0  0
  -23.7236  -37.6414   23.6700 H   0  0  0  0  0  0
  -26.1928  -31.4235   20.6170 H   0  0  0  0  0  0
  -26.8905  -30.7288   22.0423 H   0  0  0  0  0  0
  -28.1364  -28.6981   21.2604 H   0  0  0  0  0  0
  -25.8885  -25.7925   18.9956 H   0  0  0  0  0  0
  -23.9865  -27.2878   18.9643 H   0  0  0  0  0  0
  -23.8368  -30.5468   19.3928 H   0  0  0  0  0  0
  -22.8055  -29.2221   19.8372 H   0  0  0  0  0  0
  -25.1320  -36.1829   25.0810 H   0  0  0  0  0  0
  -21.0031  -28.3350   24.1338 H   0  0  0  0  0  0
  -20.5717  -26.2364   23.3641 H   0  0  0  0  0  0
  -21.6663  -26.7452   22.1194 H   0  0  0  0  0  0
  -19.6942  -25.6292   21.1273 H   0  0  0  0  0  0
  -19.6710  -27.3183   20.6745 H   0  0  0  0  0  0
  -17.4229  -26.6706   21.4022 H   0  0  0  0  0  0
  -18.0334  -26.0096   22.9029 H   0  0  0  0  0  0
  -19.7965  -30.7322   24.2212 H   0  0  0  0  0  0
  -17.5035  -31.6276   24.5179 H   0  0  0  0  0  0
  -15.5373  -30.2988   23.7682 H   0  0  0  0  0  0
  -15.8699  -28.0820   22.7101 H   0  0  0  0  0  0
  -24.5897  -30.7097   25.7686 H   0  0  0  0  0  0
  -24.8861  -32.2958   26.4708 H   0  0  0  0  0  0
  -25.7937  -30.8996   27.0232 H   0  0  0  0  0  0
  -26.3076  -29.6628   24.1362 H   0  0  0  0  0  0
  -27.3990  -29.7266   25.4989 H   0  0  0  0  0  0
  -27.9003  -30.4148   23.9747 H   0  0  0  0  0  0
  -27.2679  -33.3674   26.1971 H   0  0  0  0  0  0
  -28.3921  -32.6813   25.0340 H   0  0  0  0  0  0
  -28.0693  -31.8519   26.5485 H   0  0  0  0  0  0
  -28.2585  -38.0071   24.7503 H   0  0  0  0  0  0
  -28.1066  -36.2595   24.6308 H   0  0  0  0  0  0
  -27.2283  -37.1428   25.8873 H   0  0  0  0  0  0
  -20.9537  -29.8723   21.6697 H   0  0  0  0  0  0
  -26.0145  -38.2794   24.1404 H   0  0  0  0  0  0
  -31.7165  -18.2287   20.9824 H   0  0  0  0  0  0
  -32.1732  -18.4053   19.3030 H   0  0  0  0  0  0
  -30.9179  -20.4472   19.0494 H   0  0  0  0  0  0
  -31.5329  -20.6522   20.6706 H   0  0  0  0  0  0
  -28.0574  -16.8560   21.5314 H   0  0  0  0  0  0
  -29.6030  -17.4658   22.1747 H   0  0  0  0  0  0
  -28.0595  -18.4201   19.6406 H   0  0  0  0  0  0
  -29.9898  -17.6521   18.5146 H   0  0  0  0  0  0
  -29.4295  -20.2210   21.6417 H   0  0  0  0  0  0
  -29.0859  -23.0459   21.5074 H   0  0  0  0  0  0
  -29.9236  -23.1914   20.0054 H   0  0  0  0  0  0
  -27.0095  -24.2388   20.4990 H   0  0  0  0  0  0
  -27.7830  -24.3355   18.9636 H   0  0  0  0  0  0
  -27.6496  -21.3225   20.4211 H   0  0  0  0  0  0
  -28.5167  -21.4022   19.0790 H   0  0  0  0  0  0
  1 25  1  0  0  0
  1 30  2  0  0  0
  1 79  1  0  0  0
  2  3  1  0  0  0
  2 25  1  0  0  0
  2 81  1  0  0  0
  2 82  1  0  0  0
  3  4  1  0  0  0
  3 83  1  0  0  0
  3 84  1  0  0  0
  4  5  1  0  0  0
  4 85  1  0  0  0
  4 86  1  0  0  0
  5  6  1  0  0  0
  5 26  1  0  0  0
  5 87  1  0  0  0
  6 25  1  0  0  0
  6 88  1  0  0  0
  6 89  1  0  0  0
  7  8  2  0  0  0
  7 26  1  0  0  0
  7 29  1  0  0  0
  8  9  1  0  0  0
  8 22  1  0  0  0
  9 10  1  0  0  0
  9 27  2  0  0  0
 10 11  2  0  0  0
 10 15  1  0  0  0
 11 12  1  0  0  0
 11 90  1  0  0  0
 12 13  2  0  0  0
 12 91  1  0  0  0
 13 14  1  0  0  0
 13 31  1  0  0  0
 14 15  2  0  0  0
 14 92  1  0  0  0
 15 93  1  0  0  0
 16 17  2  0  0  0
 16 21  1  0  0  0
 16 31  1  0  0  0
 17 18  1  0  0  0
 17 94  1  0  0  0
 18 19  2  0  0  0
 18 95  1  0  0  0
 19 20  1  0  0  0
 19 24  1  0  0  0
 20 21  2  0  0  0
 20 96  1  0  0  0
 21 23  1  0  0  0
 22 28  1  0  0  0
 22 32  2  0  0  0
 26 27  1  0  0  0
 28 97  1  0  0  0
 28 98  1  0  0  0
 29 99  1  0  0  0
 29100  1  0  0  0
 33 34  1  0  0  0
 33 66  1  0  0  0
 33 70  2  0  0  0
 34 36  1  0  0  0
 34 59  1  0  0  0
 34101  1  0  0  0
 35 44  2  0  0  0
 35 45  1  0  0  0
 35 68  1  0  0  0
 36 56  1  0  0  0
 36102  1  0  0  0
 37 39  1  0  0  0
 37 47  1  0  0  0
 37 66  1  0  0  0
 37103  1  0  0  0
 38 43  2  0  0  0
 38 46  1  0  0  0
 38 47  1  0  0  0
 39 64  1  0  0  0
 39 67  2  0  0  0
 40 52  1  0  0  0
 40 53  2  0  0  0
 40 58  1  0  0  0
 41104  1  0  0  0
 41105  1  0  0  0
 41106  1  0  0  0
 41 48  1  0  0  0
 42 43  1  0  0  0
 42 66  1  0  0  0
 42107  1  0  0  0
 42108  1  0  0  0
 43 44  1  0  0  0
 44109  1  0  0  0
 45 46  2  0  0  0
 45110  1  0  0  0
 46111  1  0  0  0
 47112  1  0  0  0
 47113  1  0  0  0
 48 56  1  0  0  0
 48 65  1  0  0  0
 48114  1  0  0  0
 49 50  1  0  0  0
 49 53  1  0  0  0
 49 64  1  0  0  0
 49115  1  0  0  0
 50 51  1  0  0  0
 50116  1  0  0  0
 50117  1  0  0  0
 51 52  1  0  0  0
 51118  1  0  0  0
 51119  1  0  0  0
 52120  1  0  0  0
 52121  1  0  0  0
 53 54  1  0  0  0
 54 55  2  0  0  0
 54122  1  0  0  0
 55 57  1  0  0  0
 55123  1  0  0  0
 56 69  2  0  0  0
 57 58  2  0  0  0
 57124  1  0  0  0
 58125  1  0  0  0
 59 60  1  0  0  0
 59 61  1  0  0  0
 59 62  1  0  0  0
 60126  1  0  0  0
 60127  1  0  0  0
 60128  1  0  0  0
 61129  1  0  0  0
 61130  1  0  0  0
 61131  1  0  0  0
 62132  1  0  0  0
 62133  1  0  0  0
 62134  1  0  0  0
 63 65  1  0  0  0
 63135  1  0  0  0
 63136  1  0  0  0
 63137  1  0  0  0
 64138  1  0  0  0
 65139  1  0  0  0
 68 78  1  0  0  0
 71 72  1  0  0  0
 71140  1  0  0  0
 71141  1  0  0  0
 71 75  1  0  0  0
 72 76  1  0  0  0
 72142  1  0  0  0
 72143  1  0  0  0
 73 79  1  0  0  0
 73144  1  0  0  0
 73145  1  0  0  0
 73 74  1  0  0  0
 74 75  1  0  0  0
 74 76  1  0  0  0
 74146  1  0  0  0
 75 79  1  0  0  0
 75147  1  0  0  0
 76 80  1  0  0  0
 76148  1  0  0  0
 77 78  1  0  0  0
 77 80  1  0  0  0
 77149  1  0  0  0
 77150  1  0  0  0
 78151  1  0  0  0
 78152  1  0  0  0
 80153  1  0  0  0
 80154  1  0  0  0
M  CHG  1  80   1
M  ISO  4   1 100  68 101  78 101  79 100
M  END
> <chiral flag>
0

> <version>
0

> <s_m_source_file>
/data/baiqing/PycharmProjects/Reinvent-master-3.2/result/LINK_invent/BTK/process_docking_weight1_custom_sum_contain_oxygen_bond_distance_aromatic_linkinvent_7_9_3/rearranged_h_0178.sdf

> <i_m_source_file_index>
92

> <r_mmod_Potential_Energy-OPLS-2005>
855.177429199219

> <r_mmod_Stretch_Energy-OPLS-2005>
366.254425048828

> <r_mmod_Bend_Energy-OPLS-2005>
397.778442382812

> <r_mmod_Torsional_Energy-OPLS-2005>
325.754058837891

> <r_mmod_Improper_Torsional_Energy-OPLS-2005>
16.2877445220947

> <r_mmod_Van_der_Waal_Energy-OPLS-2005>
105.45401763916

> <r_mmod_Electrostatic_Energy-OPLS-2005>
-191.9130859375

> <r_mmod_Solvation_Energy-OPLS-2005>
-464.227478027344

> <b_mmod_Minimization_Converged-OPLS-2005>
0

> <r_mmod_RMS_Derivative-OPLS-2005>
1.06575763225555

$$$$
93
                    3D
 Structure written by MMmdl.
161170  0  0  1  0            999 V2000
  -30.6744  -14.5224   20.5502 C   0  0  0  0  0  0
  -30.4274  -12.3345   19.4177 C   0  0  0  0  0  0
  -29.4976  -12.5142   18.1997 C   0  0  0  0  0  0
  -28.0165  -12.3761   18.6100 C   0  0  0  0  0  0
  -27.6593  -13.2116   19.8695 C   0  0  2  0  0  0
  -28.7057  -13.0064   20.9881 C   0  0  0  0  0  0
  -25.2600  -13.8164   20.5675 C   0  0  0  0  0  0
  -24.1857  -13.0443   20.9171 C   0  0  0  0  0  0
  -24.6408  -11.6908   20.8720 C   0  0  0  0  0  0
  -23.9075  -10.4303   21.0407 C   0  0  0  0  0  0
  -24.3640   -9.4210   21.9172 C   0  0  0  0  0  0
  -23.6319   -8.2244   22.0743 C   0  0  0  0  0  0
  -22.4299   -8.0286   21.3537 C   0  0  0  0  0  0
  -21.9934   -9.0260   20.4638 C   0  0  0  0  0  0
  -22.7257  -10.2137   20.3054 C   0  0  0  0  0  0
  -21.6860   -6.0744   22.5275 C   0  0  0  0  0  0
  -21.4023   -6.5640   23.8208 C   0  0  0  0  0  0
  -21.3665   -5.6794   24.9169 C   0  0  0  0  0  0
  -21.6044   -4.3056   24.7218 C   0  0  0  0  0  0
  -21.8830   -3.8152   23.4344 C   0  0  0  0  0  0
  -21.9204   -4.6970   22.3405 C   0  0  0  0  0  0
  -22.7880  -13.5233   21.1847 C   0  0  0  0  0  0
  -22.1666   -4.2152   21.0985 F   0  0  0  0  0  0
  -21.5626   -3.4539   25.7735 F   0  0  0  0  0  0
  -30.0268  -13.3288   20.4264 N   0  0  0  0  0  0
  -26.3024  -12.9332   20.3336 N   0  0  0  0  0  0
  -25.9330  -11.6490   20.5732 N   0  0  0  0  0  0
  -22.0538  -12.8202   22.0391 N   0  0  0  0  0  0
  -25.4323  -15.1885   20.4074 N   0  0  0  0  0  0
  -31.8256  -14.6947   20.1452 O   0  0  0  0  0  0
  -21.6650   -6.8890   21.4243 O   0  0  0  0  0  0
  -22.3553  -14.5540   20.6712 O   0  0  0  0  0  0
  -24.6196  -31.8648   23.2091 C   0  0  0  0  0  0
  -25.9068  -32.4812   23.8394 C   0  0  1  0  0  0
  -27.2294  -27.3844   20.1088 C   0  0  0  0  0  0
  -25.5904  -33.8611   24.2319 N   0  0  0  0  0  0
  -23.4100  -30.4865   21.5524 C   0  0  2  0  0  0
  -24.8561  -28.9428   20.1253 C   0  0  0  0  0  0
  -22.7433  -29.4635   22.5013 C   0  0  0  0  0  0
  -18.0276  -28.1371   22.8505 C   0  0  0  0  0  0
  -24.1485  -36.7306   23.2641 C   0  0  0  0  0  0
  -25.9442  -30.8122   21.3721 C   0  0  0  0  0  0
  -26.0209  -29.4410   20.7236 C   0  0  0  0  0  0
  -27.2129  -28.6707   20.7098 C   0  0  0  0  0  0
  -26.0476  -26.9155   19.4996 C   0  0  0  0  0  0
  -24.8659  -27.6789   19.5130 C   0  0  0  0  0  0
  -23.6219  -29.8174   20.1693 C   0  0  0  0  0  0
  -25.4113  -36.3107   24.0338 C   0  0  1  0  0  0
  -20.5861  -28.3659   23.1330 C   0  0  2  0  0  0
  -20.6768  -26.9396   22.5431 C   0  0  0  0  0  0
  -19.5747  -26.6381   21.5233 C   0  0  0  0  0  0
  -18.1920  -26.7923   22.1631 C   0  0  0  0  0  0
  -19.1520  -28.8844   23.2903 C   0  0  0  0  0  0
  -18.9443  -30.1451   23.8902 C   0  0  0  0  0  0
  -17.6443  -30.6584   24.0568 C   0  0  0  0  0  0
  -25.9044  -34.9468   23.5133 C   0  0  0  0  0  0
  -16.5341  -29.9078   23.6331 C   0  0  0  0  0  0
  -16.7263  -28.6497   23.0357 C   0  0  0  0  0  0
  -26.4482  -31.6592   25.0732 C   0  0  0  0  0  0
  -25.3737  -31.3693   26.1470 C   0  0  0  0  0  0
  -27.0324  -30.3030   24.6133 C   0  0  0  0  0  0
  -27.6052  -32.4316   25.7494 C   0  0  0  0  0  0
  -27.5578  -37.1821   24.8474 C   0  0  0  0  0  0
  -21.4153  -29.3020   22.3736 N   0  0  0  0  0  0
  -26.4305  -37.3788   23.9395 N   0  0  0  0  0  0
  -24.6764  -31.0701   22.1023 N   0  0  0  0  0  0
  -23.4182  -28.8184   23.3076 O   0  0  0  0  0  0
  -28.3845  -26.6230   20.0311 O   0  0  0  0  0  0
  -26.5605  -34.8921   22.4689 O   0  0  0  0  0  0
  -23.5372  -32.1418   23.7454 O   0  0  0  0  0  0
  -28.8905  -21.7361   20.8177 C   0  0  0  0  0  0
  -29.5992  -20.6283   20.2912 C   0  0  0  0  0  0
  -28.7018  -22.8698   19.9886 C   0  0  0  0  0  0
  -29.8448  -21.7730   18.3187 C   0  0  0  0  0  0
  -29.2136  -18.0521   20.8592 C   0  0  0  0  0  0
  -31.5378  -17.5646   20.6950 C   0  0  0  0  0  0
  -29.9918  -19.3774   21.1063 C   0  0  1  0  0  0
  -30.2443  -16.9740   21.2878 C   0  0  2  0  0  0
  -30.3218  -21.7717   16.8831 C   0  0  0  0  0  0
  -27.8089  -24.0772   20.3672 C   0  0  0  0  0  0
  -28.4812  -25.4164   20.8416 C   0  0  0  0  0  0
  -30.0909  -20.6779   19.0352 N   0  0  0  0  0  0
  -29.1967  -22.8585   18.7353 N   0  0  0  0  0  0
  -29.9100  -15.5484   21.0000 N   0  0  0  0  0  0
  -31.3863  -19.0355   20.7879 N   0  3  0  0  0  0
  -31.4704  -12.4427   19.1141 H   0  0  0  0  0  0
  -30.3348  -11.3243   19.8190 H   0  0  0  0  0  0
  -29.7377  -11.7886   17.4216 H   0  0  0  0  0  0
  -29.6629  -13.4985   17.7570 H   0  0  0  0  0  0
  -27.8210  -11.3195   18.7966 H   0  0  0  0  0  0
  -27.3717  -12.6594   17.7774 H   0  0  0  0  0  0
  -27.6943  -14.2587   19.5673 H   0  0  0  0  0  0
  -28.6909  -11.9703   21.3331 H   0  0  0  0  0  0
  -28.4711  -13.6116   21.8654 H   0  0  0  0  0  0
  -25.2798   -9.5678   22.4736 H   0  0  0  0  0  0
  -24.0037   -7.4637   22.7469 H   0  0  0  0  0  0
  -21.0862   -8.8786   19.8945 H   0  0  0  0  0  0
  -22.3735  -10.9675   19.6160 H   0  0  0  0  0  0
  -21.2010   -7.6151   23.9710 H   0  0  0  0  0  0
  -21.1469   -6.0522   25.9072 H   0  0  0  0  0  0
  -22.0607   -2.7615   23.2842 H   0  0  0  0  0  0
  -22.4176  -11.9878   22.4791 H   0  0  0  0  0  0
  -21.1146  -13.1180   22.2584 H   0  0  0  0  0  0
  -24.6667  -15.8457   20.5134 H   0  0  0  0  0  0
  -26.2783  -15.6246   20.0633 H   0  0  0  0  0  0
  -26.7138  -32.5506   23.1148 H   0  0  0  0  0  0
  -25.0059  -33.9766   25.0469 H   0  0  0  0  0  0
  -22.7012  -31.3048   21.4114 H   0  0  0  0  0  0
  -23.3740  -35.9654   23.3354 H   0  0  0  0  0  0
  -24.3566  -36.8868   22.2046 H   0  0  0  0  0  0
  -23.7254  -37.6532   23.6625 H   0  0  0  0  0  0
  -26.0647  -31.5759   20.6018 H   0  0  0  0  0  0
  -26.8284  -30.8662   21.9962 H   0  0  0  0  0  0
  -28.1158  -29.0578   21.1610 H   0  0  0  0  0  0
  -26.0319  -25.9678   18.9865 H   0  0  0  0  0  0
  -23.9737  -27.2917   19.0408 H   0  0  0  0  0  0
  -23.7401  -30.5917   19.4105 H   0  0  0  0  0  0
  -22.7436  -29.2433   19.8695 H   0  0  0  0  0  0
  -25.1297  -36.1988   25.0837 H   0  0  0  0  0  0
  -20.9948  -28.3225   24.1452 H   0  0  0  0  0  0
  -20.5704  -26.2261   23.3610 H   0  0  0  0  0  0
  -21.6634  -26.7458   22.1205 H   0  0  0  0  0  0
  -19.6909  -25.6300   21.1244 H   0  0  0  0  0  0
  -19.6688  -27.3211   20.6776 H   0  0  0  0  0  0
  -17.4199  -26.6697   21.4014 H   0  0  0  0  0  0
  -18.0293  -26.0056   22.9012 H   0  0  0  0  0  0
  -19.7911  -30.7279   24.2263 H   0  0  0  0  0  0
  -17.4990  -31.6264   24.5159 H   0  0  0  0  0  0
  -15.5337  -30.2978   23.7658 H   0  0  0  0  0  0
  -15.8661  -28.0824   22.7061 H   0  0  0  0  0  0
  -24.5913  -30.7047   25.7786 H   0  0  0  0  0  0
  -24.8928  -32.2848   26.4929 H   0  0  0  0  0  0
  -25.8083  -30.8842   27.0220 H   0  0  0  0  0  0
  -26.2878  -29.6784   24.1184 H   0  0  0  0  0  0
  -27.4076  -29.7279   25.4608 H   0  0  0  0  0  0
  -27.8724  -30.4339   23.9306 H   0  0  0  0  0  0
  -27.2671  -33.3610   26.2086 H   0  0  0  0  0  0
  -28.3849  -32.6883   25.0312 H   0  0  0  0  0  0
  -28.0733  -31.8431   26.5392 H   0  0  0  0  0  0
  -28.2638  -38.0076   24.7475 H   0  0  0  0  0  0
  -28.1032  -36.2608   24.6373 H   0  0  0  0  0  0
  -27.2284  -37.1559   25.8875 H   0  0  0  0  0  0
  -20.9339  -29.8721   21.6925 H   0  0  0  0  0  0
  -26.0203  -38.2881   24.1356 H   0  0  0  0  0  0
  -28.4923  -21.7103   21.8238 H   0  0  0  0  0  0
  -28.9795  -17.9443   19.7991 H   0  0  0  0  0  0
  -28.2784  -18.0119   21.4163 H   0  0  0  0  0  0
  -31.6530  -17.2995   19.6441 H   0  0  0  0  0  0
  -32.4289  -17.2252   21.2258 H   0  0  0  0  0  0
  -29.9428  -19.6202   22.1674 H   0  0  0  0  0  0
  -30.3332  -17.0257   22.3751 H   0  0  0  0  0  0
  -30.4328  -20.7520   16.5145 H   0  0  0  0  0  0
  -31.2844  -22.2747   16.7995 H   0  0  0  0  0  0
  -29.6096  -22.2819   16.2342 H   0  0  0  0  0  0
  -27.1421  -23.7359   21.1605 H   0  0  0  0  0  0
  -27.1546  -24.2642   19.5209 H   0  0  0  0  0  0
  -29.5419  -25.2250   21.0045 H   0  0  0  0  0  0
  -28.0932  -25.6606   21.8316 H   0  0  0  0  0  0
  -28.9739  -15.2676   21.2546 H   0  0  0  0  0  0
  -31.5099  -19.4679   19.8805 H   0  0  0  0  0  0
  -32.0125  -19.4645   21.4473 H   0  0  0  0  0  0
  1 25  1  0  0  0
  1 30  2  0  0  0
  1 84  1  0  0  0
  2  3  1  0  0  0
  2 25  1  0  0  0
  2 86  1  0  0  0
  2 87  1  0  0  0
  3  4  1  0  0  0
  3 88  1  0  0  0
  3 89  1  0  0  0
  4  5  1  0  0  0
  4 90  1  0  0  0
  4 91  1  0  0  0
  5  6  1  0  0  0
  5 26  1  0  0  0
  5 92  1  0  0  0
  6 25  1  0  0  0
  6 93  1  0  0  0
  6 94  1  0  0  0
  7  8  2  0  0  0
  7 26  1  0  0  0
  7 29  1  0  0  0
  8  9  1  0  0  0
  8 22  1  0  0  0
  9 10  1  0  0  0
  9 27  2  0  0  0
 10 11  2  0  0  0
 10 15  1  0  0  0
 11 12  1  0  0  0
 11 95  1  0  0  0
 12 13  2  0  0  0
 12 96  1  0  0  0
 13 14  1  0  0  0
 13 31  1  0  0  0
 14 15  2  0  0  0
 14 97  1  0  0  0
 15 98  1  0  0  0
 16 17  2  0  0  0
 16 21  1  0  0  0
 16 31  1  0  0  0
 17 18  1  0  0  0
 17 99  1  0  0  0
 18 19  2  0  0  0
 18100  1  0  0  0
 19 20  1  0  0  0
 19 24  1  0  0  0
 20 21  2  0  0  0
 20101  1  0  0  0
 21 23  1  0  0  0
 22 28  1  0  0  0
 22 32  2  0  0  0
 26 27  1  0  0  0
 28102  1  0  0  0
 28103  1  0  0  0
 29104  1  0  0  0
 29105  1  0  0  0
 33 34  1  0  0  0
 33 66  1  0  0  0
 33 70  2  0  0  0
 34 36  1  0  0  0
 34 59  1  0  0  0
 34106  1  0  0  0
 35 44  2  0  0  0
 35 45  1  0  0  0
 35 68  1  0  0  0
 36 56  1  0  0  0
 36107  1  0  0  0
 37 39  1  0  0  0
 37 47  1  0  0  0
 37 66  1  0  0  0
 37108  1  0  0  0
 38 43  2  0  0  0
 38 46  1  0  0  0
 38 47  1  0  0  0
 39 64  1  0  0  0
 39 67  2  0  0  0
 40 52  1  0  0  0
 40 53  2  0  0  0
 40 58  1  0  0  0
 41109  1  0  0  0
 41110  1  0  0  0
 41111  1  0  0  0
 41 48  1  0  0  0
 42 43  1  0  0  0
 42 66  1  0  0  0
 42112  1  0  0  0
 42113  1  0  0  0
 43 44  1  0  0  0
 44114  1  0  0  0
 45 46  2  0  0  0
 45115  1  0  0  0
 46116  1  0  0  0
 47117  1  0  0  0
 47118  1  0  0  0
 48 56  1  0  0  0
 48 65  1  0  0  0
 48119  1  0  0  0
 49 50  1  0  0  0
 49 53  1  0  0  0
 49 64  1  0  0  0
 49120  1  0  0  0
 50 51  1  0  0  0
 50121  1  0  0  0
 50122  1  0  0  0
 51 52  1  0  0  0
 51123  1  0  0  0
 51124  1  0  0  0
 52125  1  0  0  0
 52126  1  0  0  0
 53 54  1  0  0  0
 54 55  2  0  0  0
 54127  1  0  0  0
 55 57  1  0  0  0
 55128  1  0  0  0
 56 69  2  0  0  0
 57 58  2  0  0  0
 57129  1  0  0  0
 58130  1  0  0  0
 59 60  1  0  0  0
 59 61  1  0  0  0
 59 62  1  0  0  0
 60131  1  0  0  0
 60132  1  0  0  0
 60133  1  0  0  0
 61134  1  0  0  0
 61135  1  0  0  0
 61136  1  0  0  0
 62137  1  0  0  0
 62138  1  0  0  0
 62139  1  0  0  0
 63 65  1  0  0  0
 63140  1  0  0  0
 63141  1  0  0  0
 63142  1  0  0  0
 64143  1  0  0  0
 65144  1  0  0  0
 68 81  1  0  0  0
 71 72  2  0  0  0
 71 73  1  0  0  0
 71145  1  0  0  0
 72 82  1  0  0  0
 72 77  1  0  0  0
 73 80  1  0  0  0
 73 83  2  0  0  0
 74 79  1  0  0  0
 74 82  2  0  0  0
 74 83  1  0  0  0
 75 77  1  0  0  0
 75 78  1  0  0  0
 75146  1  0  0  0
 75147  1  0  0  0
 76 78  1  0  0  0
 76 85  1  0  0  0
 76148  1  0  0  0
 76149  1  0  0  0
 77 85  1  0  0  0
 77150  1  0  0  0
 78 84  1  0  0  0
 78151  1  0  0  0
 79152  1  0  0  0
 79153  1  0  0  0
 79154  1  0  0  0
 80 81  1  0  0  0
 80155  1  0  0  0
 80156  1  0  0  0
 81157  1  0  0  0
 81158  1  0  0  0
 84159  1  0  0  0
 85160  1  0  0  0
 85161  1  0  0  0
M  CHG  1  85   1
M  ISO  4   1 100  68 101  81 101  84 100
M  END
> <chiral flag>
0

> <version>
0

> <s_m_source_file>
/data/baiqing/PycharmProjects/Reinvent-master-3.2/result/LINK_invent/BTK/process_docking_weight1_custom_sum_contain_oxygen_bond_distance_aromatic_linkinvent_7_9_3/rearranged_h_0178.sdf

> <i_m_source_file_index>
93

> <r_mmod_Potential_Energy-OPLS-2005>
-727.545593261719

> <r_mmod_Stretch_Energy-OPLS-2005>
46.8917198181152

> <r_mmod_Bend_Energy-OPLS-2005>
162.402282714844

> <r_mmod_Torsional_Energy-OPLS-2005>
271.366455078125

> <r_mmod_Improper_Torsional_Energy-OPLS-2005>
4.63274431228638

> <r_mmod_Van_der_Waal_Energy-OPLS-2005>
154.193893432617

> <r_mmod_Electrostatic_Energy-OPLS-2005>
-907.902526855469

> <r_mmod_Solvation_Energy-OPLS-2005>
-478.691162109375

> <b_mmod_Minimization_Converged-OPLS-2005>
0

> <r_mmod_RMS_Derivative-OPLS-2005>
2.0938024520874

$$$$
94
                    3D
 Structure written by MMmdl.
159168  0  0  1  0            999 V2000
  -30.5919  -14.7082   20.4704 C   0  0  0  0  0  0
  -30.4337  -12.4264   19.4749 C   0  0  0  0  0  0
  -29.5112  -12.5113   18.2373 C   0  0  0  0  0  0
  -28.0326  -12.3416   18.6392 C   0  0  0  0  0  0
  -27.6458  -13.2214   19.8568 C   0  0  2  0  0  0
  -28.6839  -13.1153   20.9955 C   0  0  0  0  0  0
  -25.2510  -13.8181   20.5641 C   0  0  0  0  0  0
  -24.1799  -13.0451   20.9168 C   0  0  0  0  0  0
  -24.6358  -11.6910   20.8718 C   0  0  0  0  0  0
  -23.9057  -10.4292   21.0385 C   0  0  0  0  0  0
  -24.3615   -9.4205   21.9141 C   0  0  0  0  0  0
  -23.6291   -8.2241   22.0733 C   0  0  0  0  0  0
  -22.4270   -8.0259   21.3526 C   0  0  0  0  0  0
  -21.9912   -9.0241   20.4625 C   0  0  0  0  0  0
  -22.7245  -10.2122   20.3027 C   0  0  0  0  0  0
  -21.6858   -6.0720   22.5265 C   0  0  0  0  0  0
  -21.4020   -6.5631   23.8196 C   0  0  0  0  0  0
  -21.3665   -5.6788   24.9159 C   0  0  0  0  0  0
  -21.6047   -4.3041   24.7216 C   0  0  0  0  0  0
  -21.8818   -3.8134   23.4332 C   0  0  0  0  0  0
  -21.9199   -4.6954   22.3388 C   0  0  0  0  0  0
  -22.7808  -13.5229   21.1835 C   0  0  0  0  0  0
  -22.1657   -4.2135   21.0968 F   0  0  0  0  0  0
  -21.5638   -3.4522   25.7729 F   0  0  0  0  0  0
  -29.9976  -13.4675   20.4352 N   0  0  0  0  0  0
  -26.2937  -12.9381   20.3280 N   0  0  0  0  0  0
  -25.9290  -11.6526   20.5721 N   0  0  0  0  0  0
  -22.0482  -12.8202   22.0408 N   0  0  0  0  0  0
  -25.4298  -15.1875   20.3943 N   0  0  0  0  0  0
  -31.7501  -14.8613   20.0753 O   0  0  0  0  0  0
  -21.6639   -6.8854   21.4221 O   0  0  0  0  0  0
  -22.3470  -14.5538   20.6678 O   0  0  0  0  0  0
  -24.6326  -31.8523   23.1986 C   0  0  0  0  0  0
  -25.9153  -32.4713   23.8307 C   0  0  1  0  0  0
  -27.2159  -27.2506   20.1574 C   0  0  0  0  0  0
  -25.5980  -33.8519   24.2234 N   0  0  0  0  0  0
  -23.4305  -30.4749   21.5390 C   0  0  2  0  0  0
  -24.8792  -28.9231   20.1125 C   0  0  0  0  0  0
  -22.7482  -29.4589   22.4882 C   0  0  0  0  0  0
  -18.0288  -28.1361   22.8482 C   0  0  0  0  0  0
  -24.1495  -36.7249   23.2631 C   0  0  0  0  0  0
  -25.9767  -30.7634   21.3812 C   0  0  0  0  0  0
  -26.0483  -29.3855   20.7291 C   0  0  0  0  0  0
  -27.2205  -28.5619   20.7433 C   0  0  0  0  0  0
  -26.0318  -26.8680   19.4886 C   0  0  0  0  0  0
  -24.8762  -27.6704   19.4806 C   0  0  0  0  0  0
  -23.6500  -29.8075   20.1552 C   0  0  0  0  0  0
  -25.4115  -36.3021   24.0320 C   0  0  1  0  0  0
  -20.5898  -28.3666   23.1258 C   0  0  2  0  0  0
  -20.6784  -26.9384   22.5403 C   0  0  0  0  0  0
  -19.5751  -26.6358   21.5203 C   0  0  0  0  0  0
  -18.1928  -26.7918   22.1606 C   0  0  0  0  0  0
  -19.1545  -28.8837   23.2868 C   0  0  0  0  0  0
  -18.9463  -30.1448   23.8875 C   0  0  0  0  0  0
  -17.6463  -30.6577   24.0549 C   0  0  0  0  0  0
  -25.9066  -34.9408   23.5067 C   0  0  0  0  0  0
  -16.5354  -29.9068   23.6338 C   0  0  0  0  0  0
  -16.7280  -28.6477   23.0366 C   0  0  0  0  0  0
  -26.4557  -31.6546   25.0692 C   0  0  0  0  0  0
  -25.3813  -31.3722   26.1428 C   0  0  0  0  0  0
  -27.0412  -30.2956   24.6205 C   0  0  0  0  0  0
  -27.6098  -32.4311   25.7489 C   0  0  0  0  0  0
  -27.5579  -37.1756   24.8452 C   0  0  0  0  0  0
  -21.4189  -29.3031   22.3638 N   0  0  0  0  0  0
  -26.4257  -37.3746   23.9437 N   0  0  0  0  0  0
  -24.6995  -31.0475   22.0965 N   0  0  0  0  0  0
  -23.4180  -28.8111   23.2970 O   0  0  0  0  0  0
  -28.2938  -26.3356   20.2166 O   0  0  0  0  0  0
  -26.5587  -34.8913   22.4609 O   0  0  0  0  0  0
  -23.5472  -32.1341   23.7280 O   0  0  0  0  0  0
  -26.5888  -20.7005   21.3427 C   0  0  0  0  0  0
  -27.0672  -21.9839   21.0441 C   0  0  0  0  0  0
  -27.4469  -19.5899   21.2858 C   0  0  0  0  0  0
  -28.4089  -22.1818   20.6645 C   0  0  0  0  0  0
  -28.8050  -19.7681   20.9255 C   0  0  0  0  0  0
  -29.7666  -23.7615   19.0152 C   0  0  0  0  0  0
  -30.4228  -23.9003   20.3648 C   0  0  0  0  0  0
  -28.9315  -23.6475   20.2760 C   0  0  0  0  0  0
  -26.8826  -18.2347   21.6842 C   0  0  0  0  0  0
  -29.8053  -18.5282   21.1042 C   0  0  0  0  0  0
  -27.9945  -24.9090   20.6240 C   0  0  0  0  0  0
  -29.7883  -17.2138   20.1576 C   0  0  0  0  0  0
  -29.2483  -21.0579   20.6184 N   0  0  0  0  0  0
  -29.7750  -15.7934   20.7338 N   0  0  0  0  0  0
  -31.4761  -12.5503   19.1725 H   0  0  0  0  0  0
  -30.3721  -11.4389   19.9354 H   0  0  0  0  0  0
  -29.7939  -11.7527   17.5057 H   0  0  0  0  0  0
  -29.6459  -13.4792   17.7497 H   0  0  0  0  0  0
  -27.8709  -11.2887   18.8727 H   0  0  0  0  0  0
  -27.3820  -12.5638   17.7919 H   0  0  0  0  0  0
  -27.6577  -14.2533   19.5012 H   0  0  0  0  0  0
  -28.6998  -12.1043   21.4031 H   0  0  0  0  0  0
  -28.4091  -13.7684   21.8242 H   0  0  0  0  0  0
  -25.2756   -9.5681   22.4707 H   0  0  0  0  0  0
  -24.0005   -7.4630   22.7436 H   0  0  0  0  0  0
  -21.0854   -8.8741   19.8916 H   0  0  0  0  0  0
  -22.3691  -10.9640   19.6113 H   0  0  0  0  0  0
  -21.2012   -7.6134   23.9705 H   0  0  0  0  0  0
  -21.1494   -6.0500   25.9067 H   0  0  0  0  0  0
  -22.0601   -2.7595   23.2834 H   0  0  0  0  0  0
  -22.4134  -11.9901   22.4836 H   0  0  0  0  0  0
  -21.1056  -13.1155   22.2582 H   0  0  0  0  0  0
  -24.6652  -15.8472   20.4741 H   0  0  0  0  0  0
  -26.2612  -15.5937   19.9930 H   0  0  0  0  0  0
  -26.7220  -32.5365   23.1037 H   0  0  0  0  0  0
  -25.0274  -33.9668   25.0485 H   0  0  0  0  0  0
  -22.7299  -31.2990   21.3867 H   0  0  0  0  0  0
  -23.3765  -35.9570   23.3248 H   0  0  0  0  0  0
  -24.3609  -36.8900   22.2058 H   0  0  0  0  0  0
  -23.7240  -37.6436   23.6685 H   0  0  0  0  0  0
  -26.1193  -31.5210   20.6088 H   0  0  0  0  0  0
  -26.8539  -30.8114   22.0156 H   0  0  0  0  0  0
  -28.1088  -28.9058   21.2561 H   0  0  0  0  0  0
  -25.9730  -25.9199   18.9758 H   0  0  0  0  0  0
  -23.9855  -27.3089   18.9856 H   0  0  0  0  0  0
  -23.7799  -30.5793   19.3956 H   0  0  0  0  0  0
  -22.7718  -29.2360   19.8461 H   0  0  0  0  0  0
  -25.1303  -36.1834   25.0807 H   0  0  0  0  0  0
  -21.0006  -28.3246   24.1367 H   0  0  0  0  0  0
  -20.5669  -26.2276   23.3601 H   0  0  0  0  0  0
  -21.6651  -26.7410   22.1190 H   0  0  0  0  0  0
  -19.6924  -25.6268   21.1228 H   0  0  0  0  0  0
  -19.6701  -27.3180   20.6741 H   0  0  0  0  0  0
  -17.4215  -26.6657   21.4006 H   0  0  0  0  0  0
  -18.0319  -26.0064   22.8999 H   0  0  0  0  0  0
  -19.7948  -30.7253   24.2224 H   0  0  0  0  0  0
  -17.5033  -31.6267   24.5119 H   0  0  0  0  0  0
  -15.5358  -30.2954   23.7696 H   0  0  0  0  0  0
  -15.8667  -28.0788   22.7104 H   0  0  0  0  0  0
  -24.5996  -30.7041   25.7801 H   0  0  0  0  0  0
  -24.9013  -32.2909   26.4817 H   0  0  0  0  0  0
  -25.8165  -30.8950   27.0216 H   0  0  0  0  0  0
  -26.2997  -29.6663   24.1266 H   0  0  0  0  0  0
  -27.4132  -29.7254   25.4727 H   0  0  0  0  0  0
  -27.8866  -30.4198   23.9430 H   0  0  0  0  0  0
  -27.2681  -33.3642   26.1986 H   0  0  0  0  0  0
  -28.3970  -32.6799   25.0360 H   0  0  0  0  0  0
  -28.0693  -31.8478   26.5473 H   0  0  0  0  0  0
  -28.2519  -38.0129   24.7595 H   0  0  0  0  0  0
  -28.1140  -36.2664   24.6140 H   0  0  0  0  0  0
  -27.2311  -37.1234   25.8849 H   0  0  0  0  0  0
  -20.9356  -29.8745   21.6846 H   0  0  0  0  0  0
  -26.0107  -38.2785   24.1530 H   0  0  0  0  0  0
  -25.5594  -20.5785   21.6449 H   0  0  0  0  0  0
  -26.3701  -22.8036   21.1217 H   0  0  0  0  0  0
  -29.9455  -22.8480   18.4489 H   0  0  0  0  0  0
  -29.6669  -24.6631   18.4133 H   0  0  0  0  0  0
  -30.7476  -24.8953   20.6611 H   0  0  0  0  0  0
  -31.0323  -23.0818   20.7440 H   0  0  0  0  0  0
  -25.7901  -18.2484   21.6936 H   0  0  0  0  0  0
  -27.2202  -17.9607   22.6821 H   0  0  0  0  0  0
  -27.1854  -17.4514   20.9957 H   0  0  0  0  0  0
  -29.6919  -18.1992   22.1364 H   0  0  0  0  0  0
  -30.8213  -18.9267   21.0663 H   0  0  0  0  0  0
  -27.9209  -24.9361   21.7120 H   0  0  0  0  0  0
  -27.0012  -24.6425   20.2829 H   0  0  0  0  0  0
  -28.9152  -17.2859   19.5092 H   0  0  0  0  0  0
  -30.6303  -17.2925   19.4691 H   0  0  0  0  0  0
  -28.8842  -15.5101   21.1129 H   0  0  0  0  0  0
  1 25  1  0  0  0
  1 30  2  0  0  0
  1 84  1  0  0  0
  2  3  1  0  0  0
  2 25  1  0  0  0
  2 85  1  0  0  0
  2 86  1  0  0  0
  3  4  1  0  0  0
  3 87  1  0  0  0
  3 88  1  0  0  0
  4  5  1  0  0  0
  4 89  1  0  0  0
  4 90  1  0  0  0
  5  6  1  0  0  0
  5 26  1  0  0  0
  5 91  1  0  0  0
  6 25  1  0  0  0
  6 92  1  0  0  0
  6 93  1  0  0  0
  7  8  2  0  0  0
  7 26  1  0  0  0
  7 29  1  0  0  0
  8  9  1  0  0  0
  8 22  1  0  0  0
  9 10  1  0  0  0
  9 27  2  0  0  0
 10 11  2  0  0  0
 10 15  1  0  0  0
 11 12  1  0  0  0
 11 94  1  0  0  0
 12 13  2  0  0  0
 12 95  1  0  0  0
 13 14  1  0  0  0
 13 31  1  0  0  0
 14 15  2  0  0  0
 14 96  1  0  0  0
 15 97  1  0  0  0
 16 17  2  0  0  0
 16 21  1  0  0  0
 16 31  1  0  0  0
 17 18  1  0  0  0
 17 98  1  0  0  0
 18 19  2  0  0  0
 18 99  1  0  0  0
 19 20  1  0  0  0
 19 24  1  0  0  0
 20 21  2  0  0  0
 20100  1  0  0  0
 21 23  1  0  0  0
 22 28  1  0  0  0
 22 32  2  0  0  0
 26 27  1  0  0  0
 28101  1  0  0  0
 28102  1  0  0  0
 29103  1  0  0  0
 29104  1  0  0  0
 33 34  1  0  0  0
 33 66  1  0  0  0
 33 70  2  0  0  0
 34 36  1  0  0  0
 34 59  1  0  0  0
 34105  1  0  0  0
 35 44  2  0  0  0
 35 45  1  0  0  0
 35 68  1  0  0  0
 36 56  1  0  0  0
 36106  1  0  0  0
 37 39  1  0  0  0
 37 47  1  0  0  0
 37 66  1  0  0  0
 37107  1  0  0  0
 38 43  2  0  0  0
 38 46  1  0  0  0
 38 47  1  0  0  0
 39 64  1  0  0  0
 39 67  2  0  0  0
 40 52  1  0  0  0
 40 53  2  0  0  0
 40 58  1  0  0  0
 41108  1  0  0  0
 41109  1  0  0  0
 41110  1  0  0  0
 41 48  1  0  0  0
 42 43  1  0  0  0
 42 66  1  0  0  0
 42111  1  0  0  0
 42112  1  0  0  0
 43 44  1  0  0  0
 44113  1  0  0  0
 45 46  2  0  0  0
 45114  1  0  0  0
 46115  1  0  0  0
 47116  1  0  0  0
 47117  1  0  0  0
 48 56  1  0  0  0
 48 65  1  0  0  0
 48118  1  0  0  0
 49 50  1  0  0  0
 49 53  1  0  0  0
 49 64  1  0  0  0
 49119  1  0  0  0
 50 51  1  0  0  0
 50120  1  0  0  0
 50121  1  0  0  0
 51 52  1  0  0  0
 51122  1  0  0  0
 51123  1  0  0  0
 52124  1  0  0  0
 52125  1  0  0  0
 53 54  1  0  0  0
 54 55  2  0  0  0
 54126  1  0  0  0
 55 57  1  0  0  0
 55127  1  0  0  0
 56 69  2  0  0  0
 57 58  2  0  0  0
 57128  1  0  0  0
 58129  1  0  0  0
 59 60  1  0  0  0
 59 61  1  0  0  0
 59 62  1  0  0  0
 60130  1  0  0  0
 60131  1  0  0  0
 60132  1  0  0  0
 61133  1  0  0  0
 61134  1  0  0  0
 61135  1  0  0  0
 62136  1  0  0  0
 62137  1  0  0  0
 62138  1  0  0  0
 63 65  1  0  0  0
 63139  1  0  0  0
 63140  1  0  0  0
 63141  1  0  0  0
 64142  1  0  0  0
 65143  1  0  0  0
 68 81  1  0  0  0
 71 72  2  0  0  0
 71 73  1  0  0  0
 71144  1  0  0  0
 72 74  1  0  0  0
 72145  1  0  0  0
 73 75  2  0  0  0
 73 79  1  0  0  0
 74 78  1  0  0  0
 74 83  2  0  0  0
 75 80  1  0  0  0
 75 83  1  0  0  0
 76 77  1  0  0  0
 76 78  1  0  0  0
 76146  1  0  0  0
 76147  1  0  0  0
 77 78  1  0  0  0
 77148  1  0  0  0
 77149  1  0  0  0
 78 81  1  0  0  0
 79150  1  0  0  0
 79151  1  0  0  0
 79152  1  0  0  0
 80 82  1  0  0  0
 80153  1  0  0  0
 80154  1  0  0  0
 81155  1  0  0  0
 81156  1  0  0  0
 82 84  1  0  0  0
 82157  1  0  0  0
 82158  1  0  0  0
 84159  1  0  0  0
M  ISO  4   1 100  68 101  81 101  84 100
M  END
> <chiral flag>
0

> <version>
0

> <s_m_source_file>
/data/baiqing/PycharmProjects/Reinvent-master-3.2/result/LINK_invent/BTK/process_docking_weight1_custom_sum_contain_oxygen_bond_distance_aromatic_linkinvent_7_9_3/rearranged_h_0178.sdf

> <i_m_source_file_index>
94

> <r_mmod_Potential_Energy-OPLS-2005>
93.5197296142578

> <r_mmod_Stretch_Energy-OPLS-2005>
135.638671875

> <r_mmod_Bend_Energy-OPLS-2005>
171.219619750977

> <r_mmod_Torsional_Energy-OPLS-2005>
276.878967285156

> <r_mmod_Improper_Torsional_Energy-OPLS-2005>
8.07570266723633

> <r_mmod_Van_der_Waal_Energy-OPLS-2005>
139.496398925781

> <r_mmod_Electrostatic_Energy-OPLS-2005>
-493.965240478516

> <r_mmod_Solvation_Energy-OPLS-2005>
-225.841674804688

> <b_mmod_Minimization_Converged-OPLS-2005>
0

> <r_mmod_RMS_Derivative-OPLS-2005>
4.68451976776123

$$$$
95
                    3D
 Structure written by MMmdl.
167175  0  0  1  0            999 V2000
  -30.6661  -14.6132   20.3985 C   0  0  0  0  0  0
  -30.4475  -12.3362   19.4590 C   0  0  0  0  0  0
  -29.5226  -12.3759   18.2241 C   0  0  0  0  0  0
  -28.0302  -12.3118   18.6301 C   0  0  0  0  0  0
  -27.6504  -13.1988   19.8492 C   0  0  2  0  0  0
  -28.7114  -13.1146   20.9685 C   0  0  0  0  0  0
  -25.2562  -13.8045   20.5663 C   0  0  0  0  0  0
  -24.1826  -13.0354   20.9181 C   0  0  0  0  0  0
  -24.6399  -11.6828   20.8776 C   0  0  0  0  0  0
  -23.9058  -10.4228   21.0423 C   0  0  0  0  0  0
  -24.3593   -9.4153   21.9216 C   0  0  0  0  0  0
  -23.6276   -8.2187   22.0762 C   0  0  0  0  0  0
  -22.4266   -8.0239   21.3539 C   0  0  0  0  0  0
  -21.9893   -9.0228   20.4655 C   0  0  0  0  0  0
  -22.7231  -10.2102   20.3083 C   0  0  0  0  0  0
  -21.6829   -6.0714   22.5278 C   0  0  0  0  0  0
  -21.3999   -6.5620   23.8212 C   0  0  0  0  0  0
  -21.3679   -5.6780   24.9182 C   0  0  0  0  0  0
  -21.6047   -4.3039   24.7238 C   0  0  0  0  0  0
  -21.8817   -3.8133   23.4352 C   0  0  0  0  0  0
  -21.9182   -4.6944   22.3405 C   0  0  0  0  0  0
  -22.7859  -13.5214   21.1789 C   0  0  0  0  0  0
  -22.1648   -4.2123   21.0983 F   0  0  0  0  0  0
  -21.5653   -3.4530   25.7757 F   0  0  0  0  0  0
  -30.0220  -13.4076   20.3699 N   0  0  0  0  0  0
  -26.3007  -12.9221   20.3344 N   0  0  0  0  0  0
  -25.9332  -11.6400   20.5822 N   0  0  0  0  0  0
  -22.0435  -12.8297   22.0355 N   0  0  0  0  0  0
  -25.4161  -15.1751   20.4004 N   0  0  0  0  0  0
  -31.8832  -14.7189   20.2330 O   0  0  0  0  0  0
  -21.6617   -6.8849   21.4233 O   0  0  0  0  0  0
  -22.3591  -14.5524   20.6616 O   0  0  0  0  0  0
  -24.6204  -31.8652   23.2096 C   0  0  0  0  0  0
  -25.9083  -32.4801   23.8407 C   0  0  1  0  0  0
  -27.2284  -27.3805   20.1045 C   0  0  0  0  0  0
  -25.5915  -33.8602   24.2334 N   0  0  0  0  0  0
  -23.4102  -30.4954   21.5471 C   0  0  2  0  0  0
  -24.8566  -28.9574   20.1096 C   0  0  0  0  0  0
  -22.7435  -29.4688   22.4935 C   0  0  0  0  0  0
  -18.0287  -28.1357   22.8504 C   0  0  0  0  0  0
  -24.1480  -36.7292   23.2649 C   0  0  0  0  0  0
  -25.9496  -30.8163   21.3732 C   0  0  0  0  0  0
  -26.0226  -29.4515   20.7063 C   0  0  0  0  0  0
  -27.2124  -28.6752   20.6925 C   0  0  0  0  0  0
  -26.0409  -26.9240   19.4867 C   0  0  0  0  0  0
  -24.8642  -27.6963   19.4929 C   0  0  0  0  0  0
  -23.6211  -29.8307   20.1616 C   0  0  0  0  0  0
  -25.4106  -36.3103   24.0356 C   0  0  1  0  0  0
  -20.5890  -28.3671   23.1275 C   0  0  2  0  0  0
  -20.6773  -26.9387   22.5410 C   0  0  0  0  0  0
  -19.5740  -26.6372   21.5212 C   0  0  0  0  0  0
  -18.1923  -26.7908   22.1625 C   0  0  0  0  0  0
  -19.1546  -28.8827   23.2893 C   0  0  0  0  0  0
  -18.9465  -30.1435   23.8902 C   0  0  0  0  0  0
  -17.6470  -30.6562   24.0561 C   0  0  0  0  0  0
  -25.9041  -34.9465   23.5140 C   0  0  0  0  0  0
  -16.5357  -29.9063   23.6327 C   0  0  0  0  0  0
  -16.7284  -28.6475   23.0361 C   0  0  0  0  0  0
  -26.4494  -31.6596   25.0750 C   0  0  0  0  0  0
  -25.3759  -31.3721   26.1501 C   0  0  0  0  0  0
  -27.0365  -30.3031   24.6196 C   0  0  0  0  0  0
  -27.6051  -32.4345   25.7499 C   0  0  0  0  0  0
  -27.5582  -37.1798   24.8466 C   0  0  0  0  0  0
  -21.4162  -29.3044   22.3667 N   0  0  0  0  0  0
  -26.4288  -37.3791   23.9416 N   0  0  0  0  0  0
  -24.6781  -31.0750   22.0984 N   0  0  0  0  0  0
  -23.4194  -28.8217   23.2981 O   0  0  0  0  0  0
  -28.3719  -26.5841   20.1526 O   0  0  0  0  0  0
  -26.5594  -34.8918   22.4699 O   0  0  0  0  0  0
  -23.5392  -32.1406   23.7467 O   0  0  0  0  0  0
  -28.2702  -17.3731   20.4331 C   0  0  0  0  0  0
  -29.4211  -16.0126   18.7941 C   0  0  0  0  0  0
  -28.2417  -16.9843   18.9517 C   0  0  2  0  0  0
  -29.6684  -16.9631   20.9178 C   0  0  2  0  0  0
  -28.2948  -18.1724   17.9767 C   0  0  0  0  0  0
  -30.5529  -22.1279   22.5058 C   0  0  0  0  0  0
  -30.7058  -18.1164   20.6227 C   0  0  0  0  0  0
  -29.4287  -24.2992   20.5565 C   0  0  0  0  0  0
  -30.7745  -20.6526   20.3690 C   0  0  0  0  0  0
  -28.1987  -25.1364   20.0606 C   0  0  0  0  0  0
  -30.4943  -22.0913   20.9676 C   0  0  1  0  0  0
  -29.8683  -15.6974   20.1570 N   0  0  0  0  0  0
  -29.2974  -22.8161   20.4674 N   0  0  0  0  0  0
  -30.2838  -19.4654   21.1430 N   0  3  0  0  0  0
  -31.4917  -12.4350   19.1591 H   0  0  0  0  0  0
  -30.3698  -11.3709   19.9620 H   0  0  0  0  0  0
  -29.7541  -11.5237   17.5823 H   0  0  0  0  0  0
  -29.7374  -13.2443   17.6069 H   0  0  0  0  0  0
  -27.8185  -11.2677   18.8656 H   0  0  0  0  0  0
  -27.3974  -12.5581   17.7764 H   0  0  0  0  0  0
  -27.6251  -14.2205   19.4894 H   0  0  0  0  0  0
  -28.7179  -12.1219   21.4243 H   0  0  0  0  0  0
  -28.4865  -13.8234   21.7667 H   0  0  0  0  0  0
  -25.2715   -9.5622   22.4828 H   0  0  0  0  0  0
  -23.9954   -7.4575   22.7501 H   0  0  0  0  0  0
  -21.0811   -8.8781   19.8973 H   0  0  0  0  0  0
  -22.3692  -10.9666   19.6220 H   0  0  0  0  0  0
  -21.1961   -7.6119   23.9721 H   0  0  0  0  0  0
  -21.1526   -6.0492   25.9085 H   0  0  0  0  0  0
  -22.0578   -2.7589   23.2862 H   0  0  0  0  0  0
  -22.3990  -12.0012   22.4880 H   0  0  0  0  0  0
  -21.1070  -13.1433   22.2475 H   0  0  0  0  0  0
  -24.6339  -15.8162   20.4798 H   0  0  0  0  0  0
  -26.2654  -15.6165   20.0765 H   0  0  0  0  0  0
  -26.7151  -32.5494   23.1164 H   0  0  0  0  0  0
  -25.0085  -33.9751   25.0492 H   0  0  0  0  0  0
  -22.7011  -31.3156   21.4089 H   0  0  0  0  0  0
  -23.3755  -35.9609   23.3312 H   0  0  0  0  0  0
  -24.3581  -36.8897   22.2063 H   0  0  0  0  0  0
  -23.7202  -37.6489   23.6654 H   0  0  0  0  0  0
  -26.0934  -31.5921   20.6198 H   0  0  0  0  0  0
  -26.8252  -30.8481   22.0108 H   0  0  0  0  0  0
  -28.1117  -29.0543   21.1575 H   0  0  0  0  0  0
  -25.9983  -25.9630   18.9970 H   0  0  0  0  0  0
  -23.9677  -27.3136   19.0246 H   0  0  0  0  0  0
  -23.7285  -30.6069   19.4034 H   0  0  0  0  0  0
  -22.7424  -29.2559   19.8652 H   0  0  0  0  0  0
  -25.1277  -36.1980   25.0853 H   0  0  0  0  0  0
  -21.0034  -28.3259   24.1373 H   0  0  0  0  0  0
  -20.5662  -26.2283   23.3618 H   0  0  0  0  0  0
  -21.6640  -26.7399   22.1204 H   0  0  0  0  0  0
  -19.6891  -25.6292   21.1211 H   0  0  0  0  0  0
  -19.6658  -27.3210   20.6760 H   0  0  0  0  0  0
  -17.4195  -26.6691   21.4017 H   0  0  0  0  0  0
  -18.0291  -26.0031   22.8998 H   0  0  0  0  0  0
  -19.7949  -30.7250   24.2264 H   0  0  0  0  0  0
  -17.5023  -31.6246   24.5154 H   0  0  0  0  0  0
  -15.5358  -30.2961   23.7647 H   0  0  0  0  0  0
  -15.8683  -28.0794   22.7071 H   0  0  0  0  0  0
  -24.5884  -30.7122   25.7841 H   0  0  0  0  0  0
  -24.9018  -32.2892   26.5009 H   0  0  0  0  0  0
  -25.8116  -30.8833   27.0224 H   0  0  0  0  0  0
  -26.2958  -29.6740   24.1245 H   0  0  0  0  0  0
  -27.4103  -29.7322   25.4708 H   0  0  0  0  0  0
  -27.8804  -30.4333   23.9414 H   0  0  0  0  0  0
  -27.2643  -33.3623   26.2109 H   0  0  0  0  0  0
  -28.3828  -32.6948   25.0305 H   0  0  0  0  0  0
  -28.0760  -31.8462   26.5382 H   0  0  0  0  0  0
  -28.2602  -38.0095   24.7536 H   0  0  0  0  0  0
  -28.1074  -36.2630   24.6264 H   0  0  0  0  0  0
  -27.2305  -37.1422   25.8869 H   0  0  0  0  0  0
  -20.9308  -29.8775   21.6901 H   0  0  0  0  0  0
  -26.0184  -38.2875   24.1406 H   0  0  0  0  0  0
  -27.5334  -16.7803   20.9754 H   0  0  0  0  0  0
  -27.9999  -18.4129   20.6105 H   0  0  0  0  0  0
  -30.2491  -16.4509   18.2347 H   0  0  0  0  0  0
  -29.1136  -15.1438   18.2231 H   0  0  0  0  0  0
  -27.3105  -16.4538   18.7513 H   0  0  0  0  0  0
  -29.6517  -16.7479   21.9873 H   0  0  0  0  0  0
  -29.2263  -18.7325   18.0529 H   0  0  0  0  0  0
  -27.4773  -18.8701   18.1634 H   0  0  0  0  0  0
  -28.2055  -17.8352   16.9436 H   0  0  0  0  0  0
  -31.3910  -21.5434   22.8867 H   0  0  0  0  0  0
  -29.6417  -21.7399   22.9630 H   0  0  0  0  0  0
  -30.7055  -23.1421   22.8751 H   0  0  0  0  0  0
  -30.8717  -18.2008   19.5505 H   0  0  0  0  0  0
  -31.6809  -17.8569   21.0383 H   0  0  0  0  0  0
  -29.6218  -24.5836   21.5908 H   0  0  0  0  0  0
  -30.3046  -24.6088   19.9856 H   0  0  0  0  0  0
  -31.8583  -20.5384   20.2981 H   0  0  0  0  0  0
  -30.4127  -20.5996   19.3412 H   0  0  0  0  0  0
  -27.3305  -24.8425   20.6532 H   0  0  0  0  0  0
  -27.9812  -24.8712   19.0253 H   0  0  0  0  0  0
  -31.3399  -22.6804   20.6084 H   0  0  0  0  0  0
  -28.4614  -22.5124   20.9613 H   0  0  0  0  0  0
  -30.5891  -19.5416   22.0993 H   0  0  0  0  0  0
  -29.2774  -19.5015   21.1351 H   0  0  0  0  0  0
  1 25  1  0  0  0
  1 30  2  0  0  0
  1 82  1  0  0  0
  2  3  1  0  0  0
  2 25  1  0  0  0
  2 85  1  0  0  0
  2 86  1  0  0  0
  3  4  1  0  0  0
  3 87  1  0  0  0
  3 88  1  0  0  0
  4  5  1  0  0  0
  4 89  1  0  0  0
  4 90  1  0  0  0
  5  6  1  0  0  0
  5 26  1  0  0  0
  5 91  1  0  0  0
  6 25  1  0  0  0
  6 92  1  0  0  0
  6 93  1  0  0  0
  7  8  2  0  0  0
  7 26  1  0  0  0
  7 29  1  0  0  0
  8  9  1  0  0  0
  8 22  1  0  0  0
  9 10  1  0  0  0
  9 27  2  0  0  0
 10 11  2  0  0  0
 10 15  1  0  0  0
 11 12  1  0  0  0
 11 94  1  0  0  0
 12 13  2  0  0  0
 12 95  1  0  0  0
 13 14  1  0  0  0
 13 31  1  0  0  0
 14 15  2  0  0  0
 14 96  1  0  0  0
 15 97  1  0  0  0
 16 17  2  0  0  0
 16 21  1  0  0  0
 16 31  1  0  0  0
 17 18  1  0  0  0
 17 98  1  0  0  0
 18 19  2  0  0  0
 18 99  1  0  0  0
 19 20  1  0  0  0
 19 24  1  0  0  0
 20 21  2  0  0  0
 20100  1  0  0  0
 21 23  1  0  0  0
 22 28  1  0  0  0
 22 32  2  0  0  0
 26 27  1  0  0  0
 28101  1  0  0  0
 28102  1  0  0  0
 29103  1  0  0  0
 29104  1  0  0  0
 33 34  1  0  0  0
 33 66  1  0  0  0
 33 70  2  0  0  0
 34 36  1  0  0  0
 34 59  1  0  0  0
 34105  1  0  0  0
 35 44  2  0  0  0
 35 45  1  0  0  0
 35 68  1  0  0  0
 36 56  1  0  0  0
 36106  1  0  0  0
 37 39  1  0  0  0
 37 47  1  0  0  0
 37 66  1  0  0  0
 37107  1  0  0  0
 38 43  2  0  0  0
 38 46  1  0  0  0
 38 47  1  0  0  0
 39 64  1  0  0  0
 39 67  2  0  0  0
 40 52  1  0  0  0
 40 53  2  0  0  0
 40 58  1  0  0  0
 41108  1  0  0  0
 41109  1  0  0  0
 41110  1  0  0  0
 41 48  1  0  0  0
 42 43  1  0  0  0
 42 66  1  0  0  0
 42111  1  0  0  0
 42112  1  0  0  0
 43 44  1  0  0  0
 44113  1  0  0  0
 45 46  2  0  0  0
 45114  1  0  0  0
 46115  1  0  0  0
 47116  1  0  0  0
 47117  1  0  0  0
 48 56  1  0  0  0
 48 65  1  0  0  0
 48118  1  0  0  0
 49 50  1  0  0  0
 49 53  1  0  0  0
 49 64  1  0  0  0
 49119  1  0  0  0
 50 51  1  0  0  0
 50120  1  0  0  0
 50121  1  0  0  0
 51 52  1  0  0  0
 51122  1  0  0  0
 51123  1  0  0  0
 52124  1  0  0  0
 52125  1  0  0  0
 53 54  1  0  0  0
 54 55  2  0  0  0
 54126  1  0  0  0
 55 57  1  0  0  0
 55127  1  0  0  0
 56 69  2  0  0  0
 57 58  2  0  0  0
 57128  1  0  0  0
 58129  1  0  0  0
 59 60  1  0  0  0
 59 61  1  0  0  0
 59 62  1  0  0  0
 60130  1  0  0  0
 60131  1  0  0  0
 60132  1  0  0  0
 61133  1  0  0  0
 61134  1  0  0  0
 61135  1  0  0  0
 62136  1  0  0  0
 62137  1  0  0  0
 62138  1  0  0  0
 63 65  1  0  0  0
 63139  1  0  0  0
 63140  1  0  0  0
 63141  1  0  0  0
 64142  1  0  0  0
 65143  1  0  0  0
 68 80  1  0  0  0
 71 73  1  0  0  0
 71 74  1  0  0  0
 71144  1  0  0  0
 71145  1  0  0  0
 72 73  1  0  0  0
 72 82  1  0  0  0
 72146  1  0  0  0
 72147  1  0  0  0
 73 75  1  0  0  0
 73148  1  0  0  0
 74 77  1  0  0  0
 74 82  1  0  0  0
 74149  1  0  0  0
 75150  1  0  0  0
 75151  1  0  0  0
 75152  1  0  0  0
 76153  1  0  0  0
 76154  1  0  0  0
 76155  1  0  0  0
 76 81  1  0  0  0
 77 84  1  0  0  0
 77156  1  0  0  0
 77157  1  0  0  0
 78 80  1  0  0  0
 78 83  1  0  0  0
 78158  1  0  0  0
 78159  1  0  0  0
 79 81  1  0  0  0
 79 84  1  0  0  0
 79160  1  0  0  0
 79161  1  0  0  0
 80162  1  0  0  0
 80163  1  0  0  0
 81 83  1  0  0  0
 81164  1  0  0  0
 83165  1  0  0  0
 84166  1  0  0  0
 84167  1  0  0  0
M  CHG  1  84   1
M  ISO  4   1 100  68 101  80 101  82 100
M  END
> <chiral flag>
0

> <version>
0

> <s_m_source_file>
/data/baiqing/PycharmProjects/Reinvent-master-3.2/result/LINK_invent/BTK/process_docking_weight1_custom_sum_contain_oxygen_bond_distance_aromatic_linkinvent_7_9_3/rearranged_h_0178.sdf

> <i_m_source_file_index>
95

> <r_mmod_Potential_Energy-OPLS-2005>
142.491012573242

> <r_mmod_Stretch_Energy-OPLS-2005>
58.9174423217773

> <r_mmod_Bend_Energy-OPLS-2005>
156.015960693359

> <r_mmod_Torsional_Energy-OPLS-2005>
406.417694091797

> <r_mmod_Improper_Torsional_Energy-OPLS-2005>
14.4150514602661

> <r_mmod_Van_der_Waal_Energy-OPLS-2005>
123.759300231934

> <r_mmod_Electrostatic_Energy-OPLS-2005>
-219.540313720703

> <r_mmod_Solvation_Energy-OPLS-2005>
-443.567138671875

> <b_mmod_Minimization_Converged-OPLS-2005>
0

> <r_mmod_RMS_Derivative-OPLS-2005>
3.07371401786804

$$$$
