0
                    3D
 Structure written by MMmdl.
162171  0  0  1  0            999 V2000
  -30.5832  -14.7573   20.4890 C   0  0  0  0  0  0
  -30.4338  -12.4814   19.4614 C   0  0  0  0  0  0
  -29.5012  -12.5147   18.2304 C   0  0  0  0  0  0
  -28.0301  -12.3297   18.6502 C   0  0  0  0  0  0
  -27.6328  -13.2288   19.8499 C   0  0  2  0  0  0
  -28.6743  -13.1613   20.9851 C   0  0  0  0  0  0
  -25.2446  -13.8158   20.5710 C   0  0  0  0  0  0
  -24.1737  -13.0404   20.9208 C   0  0  0  0  0  0
  -24.6342  -11.6891   20.8744 C   0  0  0  0  0  0
  -23.9035  -10.4261   21.0391 C   0  0  0  0  0  0
  -24.3599   -9.4188   21.9183 C   0  0  0  0  0  0
  -23.6280   -8.2216   22.0759 C   0  0  0  0  0  0
  -22.4275   -8.0243   21.3546 C   0  0  0  0  0  0
  -21.9918   -9.0208   20.4638 C   0  0  0  0  0  0
  -22.7216  -10.2100   20.3043 C   0  0  0  0  0  0
  -21.6839   -6.0700   22.5250 C   0  0  0  0  0  0
  -21.4005   -6.5620   23.8170 C   0  0  0  0  0  0
  -21.3673   -5.6796   24.9151 C   0  0  0  0  0  0
  -21.6044   -4.3051   24.7219 C   0  0  0  0  0  0
  -21.8817   -3.8127   23.4350 C   0  0  0  0  0  0
  -21.9204   -4.6923   22.3394 C   0  0  0  0  0  0
  -22.7765  -13.5189   21.1864 C   0  0  0  0  0  0
  -22.1671   -4.2109   21.0976 F   0  0  0  0  0  0
  -21.5645   -3.4552   25.7747 F   0  0  0  0  0  0
  -29.9732  -13.5287   20.3991 N   0  0  0  0  0  0
  -26.2864  -12.9362   20.3269 N   0  0  0  0  0  0
  -25.9265  -11.6507   20.5736 N   0  0  0  0  0  0
  -22.0436  -12.8154   22.0417 N   0  0  0  0  0  0
  -25.4165  -15.1875   20.4192 N   0  0  0  0  0  0
  -31.7825  -14.8745   20.2195 O   0  0  0  0  0  0
  -21.6636   -6.8838   21.4214 O   0  0  0  0  0  0
  -22.3455  -14.5511   20.6726 O   0  0  0  0  0  0
  -24.6330  -31.8518   23.1989 C   0  0  0  0  0  0
  -25.9135  -32.4750   23.8366 C   0  0  1  0  0  0
  -27.2277  -27.2465   20.1434 C   0  0  0  0  0  0
  -25.5917  -33.8561   24.2274 N   0  0  0  0  0  0
  -23.4334  -30.4730   21.5428 C   0  0  2  0  0  0
  -24.8848  -28.9262   20.1045 C   0  0  0  0  0  0
  -22.7517  -29.4564   22.4902 C   0  0  0  0  0  0
  -18.0279  -28.1370   22.8469 C   0  0  0  0  0  0
  -24.1469  -36.7312   23.2644 C   0  0  0  0  0  0
  -25.9762  -30.7656   21.3769 C   0  0  0  0  0  0
  -26.0535  -29.3837   20.7251 C   0  0  0  0  0  0
  -27.2260  -28.5570   20.7377 C   0  0  0  0  0  0
  -26.0405  -26.8766   19.4671 C   0  0  0  0  0  0
  -24.8856  -27.6815   19.4584 C   0  0  0  0  0  0
  -23.6520  -29.8100   20.1568 C   0  0  0  0  0  0
  -25.4092  -36.3081   24.0323 C   0  0  1  0  0  0
  -20.5880  -28.3684   23.1249 C   0  0  2  0  0  0
  -20.6756  -26.9394   22.5394 C   0  0  0  0  0  0
  -19.5737  -26.6365   21.5190 C   0  0  0  0  0  0
  -18.1916  -26.7909   22.1604 C   0  0  0  0  0  0
  -19.1536  -28.8841   23.2853 C   0  0  0  0  0  0
  -18.9466  -30.1438   23.8868 C   0  0  0  0  0  0
  -17.6470  -30.6569   24.0548 C   0  0  0  0  0  0
  -25.9041  -34.9438   23.5106 C   0  0  0  0  0  0
  -16.5352  -29.9070   23.6323 C   0  0  0  0  0  0
  -16.7268  -28.6496   23.0328 C   0  0  0  0  0  0
  -26.4503  -31.6584   25.0763 C   0  0  0  0  0  0
  -25.3747  -31.3693   26.1503 C   0  0  0  0  0  0
  -27.0366  -30.3016   24.6225 C   0  0  0  0  0  0
  -27.6039  -32.4337   25.7536 C   0  0  0  0  0  0
  -27.5555  -37.1803   24.8463 C   0  0  0  0  0  0
  -21.4220  -29.3040   22.3662 N   0  0  0  0  0  0
  -26.4258  -37.3779   23.9420 N   0  0  0  0  0  0
  -24.7005  -31.0455   22.0982 N   0  0  0  0  0  0
  -23.4209  -28.8086   23.2999 O   0  0  0  0  0  0
  -28.3017  -26.3188   20.2580 O   0  0  0  0  0  0
  -26.5628  -34.8905   22.4688 O   0  0  0  0  0  0
  -23.5471  -32.1347   23.7263 O   0  0  0  0  0  0
  -29.8226  -23.8418   21.6063 C   0  0  0  0  0  0
  -28.6313  -22.2578   20.2069 C   0  0  0  0  0  0
  -30.4788  -22.7476   22.2301 C   0  0  0  0  0  0
  -30.2384  -21.4000   21.8207 C   0  0  0  0  0  0
  -28.8710  -23.6420   20.5855 C   0  0  0  0  0  0
  -29.2974  -21.1086   20.7969 C   0  0  0  0  0  0
  -30.8780  -20.2540   22.6073 C   0  0  0  0  0  0
  -31.4128  -23.0417   23.4100 C   0  0  0  0  0  0
  -31.9662  -20.6761   23.6006 C   0  0  0  0  0  0
  -28.0202  -24.8572   19.9937 C   0  0  0  0  0  0
  -29.7205  -18.5455   20.0539 C   0  0  0  0  0  0
  -30.0876  -17.3171   21.0474 C   0  0  0  0  0  0
  -28.9006  -19.7368   20.5260 N   0  0  0  0  0  0
  -29.7742  -15.8642   20.6965 N   0  0  0  0  0  0
  -31.5601  -21.8909   24.3221 N   0  3  0  0  0  0
  -31.4682  -12.6400   19.1494 H   0  0  0  0  0  0
  -30.4056  -11.5040   19.9447 H   0  0  0  0  0  0
  -29.7857  -11.7366   17.5222 H   0  0  0  0  0  0
  -29.6134  -13.4628   17.7018 H   0  0  0  0  0  0
  -27.8960  -11.2823   18.9191 H   0  0  0  0  0  0
  -27.3665  -12.5118   17.8048 H   0  0  0  0  0  0
  -27.6248  -14.2506   19.4717 H   0  0  0  0  0  0
  -28.7095  -12.1611   21.4191 H   0  0  0  0  0  0
  -28.3959  -13.8321   21.7998 H   0  0  0  0  0  0
  -25.2750   -9.5667   22.4755 H   0  0  0  0  0  0
  -23.9979   -7.4617   22.7494 H   0  0  0  0  0  0
  -21.0861   -8.8720   19.8944 H   0  0  0  0  0  0
  -22.3661  -10.9648   19.6158 H   0  0  0  0  0  0
  -21.1980   -7.6134   23.9657 H   0  0  0  0  0  0
  -21.1511   -6.0533   25.9050 H   0  0  0  0  0  0
  -22.0595   -2.7586   23.2849 H   0  0  0  0  0  0
  -22.4142  -11.9879   22.4857 H   0  0  0  0  0  0
  -21.1010  -13.1068   22.2579 H   0  0  0  0  0  0
  -24.6505  -15.8406   20.5394 H   0  0  0  0  0  0
  -26.2612  -15.6339   20.0878 H   0  0  0  0  0  0
  -26.7207  -32.5399   23.1113 H   0  0  0  0  0  0
  -25.0001  -33.9688   25.0382 H   0  0  0  0  0  0
  -22.7300  -31.2952   21.3996 H   0  0  0  0  0  0
  -23.3712  -35.9664   23.3295 H   0  0  0  0  0  0
  -24.3564  -36.8966   22.2063 H   0  0  0  0  0  0
  -23.7221  -37.6504   23.6701 H   0  0  0  0  0  0
  -26.0937  -31.5160   20.5944 H   0  0  0  0  0  0
  -26.8593  -30.8343   22.0001 H   0  0  0  0  0  0
  -28.1126  -28.8998   21.2526 H   0  0  0  0  0  0
  -25.9650  -25.9321   18.9499 H   0  0  0  0  0  0
  -23.9977  -27.3254   18.9536 H   0  0  0  0  0  0
  -23.7727  -30.5913   19.4055 H   0  0  0  0  0  0
  -22.7699  -29.2441   19.8509 H   0  0  0  0  0  0
  -25.1251  -36.1935   25.0805 H   0  0  0  0  0  0
  -20.9948  -28.3253   24.1372 H   0  0  0  0  0  0
  -20.5609  -26.2286   23.3605 H   0  0  0  0  0  0
  -21.6624  -26.7377   22.1217 H   0  0  0  0  0  0
  -19.6896  -25.6279   21.1201 H   0  0  0  0  0  0
  -19.6664  -27.3177   20.6721 H   0  0  0  0  0  0
  -17.4174  -26.6624   21.4019 H   0  0  0  0  0  0
  -18.0339  -26.0051   22.9003 H   0  0  0  0  0  0
  -19.7948  -30.7249   24.2214 H   0  0  0  0  0  0
  -17.5030  -31.6234   24.5182 H   0  0  0  0  0  0
  -15.5354  -30.2960   23.7672 H   0  0  0  0  0  0
  -15.8665  -28.0822   22.7022 H   0  0  0  0  0  0
  -24.5953  -30.6982   25.7876 H   0  0  0  0  0  0
  -24.8882  -32.2818   26.4947 H   0  0  0  0  0  0
  -25.8100  -30.8908   27.0280 H   0  0  0  0  0  0
  -26.2949  -29.6748   24.1253 H   0  0  0  0  0  0
  -27.4069  -29.7292   25.4735 H   0  0  0  0  0  0
  -27.8816  -30.4320   23.9466 H   0  0  0  0  0  0
  -27.2665  -33.3681   26.2036 H   0  0  0  0  0  0
  -28.3900  -32.6812   25.0399 H   0  0  0  0  0  0
  -28.0661  -31.8511   26.5515 H   0  0  0  0  0  0
  -28.2558  -38.0114   24.7506 H   0  0  0  0  0  0
  -28.1047  -36.2625   24.6277 H   0  0  0  0  0  0
  -27.2277  -37.1454   25.8869 H   0  0  0  0  0  0
  -20.9403  -29.8860   21.6946 H   0  0  0  0  0  0
  -26.0133  -38.2839   24.1456 H   0  0  0  0  0  0
  -30.0164  -24.8490   21.9520 H   0  0  0  0  0  0
  -27.8721  -22.0791   19.4583 H   0  0  0  0  0  0
  -31.3314  -19.5539   21.9113 H   0  0  0  0  0  0
  -30.0846  -19.7202   23.1335 H   0  0  0  0  0  0
  -31.0391  -23.8923   23.9834 H   0  0  0  0  0  0
  -32.3926  -23.3309   23.0288 H   0  0  0  0  0  0
  -32.9006  -20.8640   23.0712 H   0  0  0  0  0  0
  -32.1715  -19.8638   24.3008 H   0  0  0  0  0  0
  -27.0177  -24.6394   20.3632 H   0  0  0  0  0  0
  -27.9847  -24.7233   18.9118 H   0  0  0  0  0  0
  -29.1799  -18.1260   19.2033 H   0  0  0  0  0  0
  -30.6471  -18.9315   19.6249 H   0  0  0  0  0  0
  -29.6210  -17.4994   22.0167 H   0  0  0  0  0  0
  -31.1591  -17.3648   21.2462 H   0  0  0  0  0  0
  -27.9543  -19.6874   20.1507 H   0  0  0  0  0  0
  -28.7928  -15.6388   20.7683 H   0  0  0  0  0  0
  -30.6868  -21.7235   24.7942 H   0  0  0  0  0  0
  -32.2485  -22.1089   25.0223 H   0  0  0  0  0  0
  1 25  1  0  0  0
  1 30  2  0  0  0
  1 84  1  0  0  0
  2  3  1  0  0  0
  2 25  1  0  0  0
  2 86  1  0  0  0
  2 87  1  0  0  0
  3  4  1  0  0  0
  3 88  1  0  0  0
  3 89  1  0  0  0
  4  5  1  0  0  0
  4 90  1  0  0  0
  4 91  1  0  0  0
  5  6  1  0  0  0
  5 26  1  0  0  0
  5 92  1  0  0  0
  6 25  1  0  0  0
  6 93  1  0  0  0
  6 94  1  0  0  0
  7  8  2  0  0  0
  7 26  1  0  0  0
  7 29  1  0  0  0
  8  9  1  0  0  0
  8 22  1  0  0  0
  9 10  1  0  0  0
  9 27  2  0  0  0
 10 11  2  0  0  0
 10 15  1  0  0  0
 11 12  1  0  0  0
 11 95  1  0  0  0
 12 13  2  0  0  0
 12 96  1  0  0  0
 13 14  1  0  0  0
 13 31  1  0  0  0
 14 15  2  0  0  0
 14 97  1  0  0  0
 15 98  1  0  0  0
 16 17  2  0  0  0
 16 21  1  0  0  0
 16 31  1  0  0  0
 17 18  1  0  0  0
 17 99  1  0  0  0
 18 19  2  0  0  0
 18100  1  0  0  0
 19 20  1  0  0  0
 19 24  1  0  0  0
 20 21  2  0  0  0
 20101  1  0  0  0
 21 23  1  0  0  0
 22 28  1  0  0  0
 22 32  2  0  0  0
 26 27  1  0  0  0
 28102  1  0  0  0
 28103  1  0  0  0
 29104  1  0  0  0
 29105  1  0  0  0
 33 34  1  0  0  0
 33 66  1  0  0  0
 33 70  2  0  0  0
 34 36  1  0  0  0
 34 59  1  0  0  0
 34106  1  0  0  0
 35 44  2  0  0  0
 35 45  1  0  0  0
 35 68  1  0  0  0
 36 56  1  0  0  0
 36107  1  0  0  0
 37 39  1  0  0  0
 37 47  1  0  0  0
 37 66  1  0  0  0
 37108  1  0  0  0
 38 43  2  0  0  0
 38 46  1  0  0  0
 38 47  1  0  0  0
 39 64  1  0  0  0
 39 67  2  0  0  0
 40 52  1  0  0  0
 40 53  2  0  0  0
 40 58  1  0  0  0
 41109  1  0  0  0
 41110  1  0  0  0
 41111  1  0  0  0
 41 48  1  0  0  0
 42 43  1  0  0  0
 42 66  1  0  0  0
 42112  1  0  0  0
 42113  1  0  0  0
 43 44  1  0  0  0
 44114  1  0  0  0
 45 46  2  0  0  0
 45115  1  0  0  0
 46116  1  0  0  0
 47117  1  0  0  0
 47118  1  0  0  0
 48 56  1  0  0  0
 48 65  1  0  0  0
 48119  1  0  0  0
 49 50  1  0  0  0
 49 53  1  0  0  0
 49 64  1  0  0  0
 49120  1  0  0  0
 50 51  1  0  0  0
 50121  1  0  0  0
 50122  1  0  0  0
 51 52  1  0  0  0
 51123  1  0  0  0
 51124  1  0  0  0
 52125  1  0  0  0
 52126  1  0  0  0
 53 54  1  0  0  0
 54 55  2  0  0  0
 54127  1  0  0  0
 55 57  1  0  0  0
 55128  1  0  0  0
 56 69  2  0  0  0
 57 58  2  0  0  0
 57129  1  0  0  0
 58130  1  0  0  0
 59 60  1  0  0  0
 59 61  1  0  0  0
 59 62  1  0  0  0
 60131  1  0  0  0
 60132  1  0  0  0
 60133  1  0  0  0
 61134  1  0  0  0
 61135  1  0  0  0
 61136  1  0  0  0
 62137  1  0  0  0
 62138  1  0  0  0
 62139  1  0  0  0
 63 65  1  0  0  0
 63140  1  0  0  0
 63141  1  0  0  0
 63142  1  0  0  0
 64143  1  0  0  0
 65144  1  0  0  0
 68 80  1  0  0  0
 71 73  2  0  0  0
 71 75  1  0  0  0
 71145  1  0  0  0
 72 75  2  0  0  0
 72 76  1  0  0  0
 72146  1  0  0  0
 73 74  1  0  0  0
 73 78  1  0  0  0
 74 76  2  0  0  0
 74 77  1  0  0  0
 75 80  1  0  0  0
 76 83  1  0  0  0
 77 79  1  0  0  0
 77147  1  0  0  0
 77148  1  0  0  0
 78 85  1  0  0  0
 78149  1  0  0  0
 78150  1  0  0  0
 79 85  1  0  0  0
 79151  1  0  0  0
 79152  1  0  0  0
 80153  1  0  0  0
 80154  1  0  0  0
 81 82  1  0  0  0
 81 83  1  0  0  0
 81155  1  0  0  0
 81156  1  0  0  0
 82 84  1  0  0  0
 82157  1  0  0  0
 82158  1  0  0  0
 83159  1  0  0  0
 84160  1  0  0  0
 85161  1  0  0  0
 85162  1  0  0  0
M  CHG  1  85   1
M  ISO  4   1 100  68 101  80 101  84 100
M  END
> <chiral flag>
0

> <version>
0

> <s_m_source_file>
/data/baiqing/PycharmProjects/Reinvent-master-3.2/result/LINK_invent/BTK/process_docking_weight1_custom_sum_contain_oxygen_bond_distance_aromatic_linkinvent_7_9_3/rearranged_h_0137.sdf

> <i_m_source_file_index>
1

> <r_mmod_Potential_Energy-OPLS-2005>
-90.0580062866211

> <r_mmod_Stretch_Energy-OPLS-2005>
124.887359619141

> <r_mmod_Bend_Energy-OPLS-2005>
186.139404296875

> <r_mmod_Torsional_Energy-OPLS-2005>
252.557006835938

> <r_mmod_Improper_Torsional_Energy-OPLS-2005>
8.88728904724121

> <r_mmod_Van_der_Waal_Energy-OPLS-2005>
148.859344482422

> <r_mmod_Electrostatic_Energy-OPLS-2005>
-420.222351074219

> <r_mmod_Solvation_Energy-OPLS-2005>
-491.063751220703

> <b_mmod_Minimization_Converged-OPLS-2005>
0

> <r_mmod_RMS_Derivative-OPLS-2005>
3.47754240036011

$$$$
1
                    3D
 Structure written by MMmdl.
155163  0  0  1  0            999 V2000
  -30.5933  -14.7377   20.4702 C   0  0  0  0  0  0
  -30.4300  -12.4504   19.4740 C   0  0  0  0  0  0
  -29.5008  -12.4942   18.2384 C   0  0  0  0  0  0
  -28.0293  -12.3134   18.6591 C   0  0  0  0  0  0
  -27.6376  -13.2219   19.8539 C   0  0  2  0  0  0
  -28.6810  -13.1463   20.9894 C   0  0  0  0  0  0
  -25.2486  -13.8174   20.5708 C   0  0  0  0  0  0
  -24.1766  -13.0436   20.9222 C   0  0  0  0  0  0
  -24.6334  -11.6906   20.8758 C   0  0  0  0  0  0
  -23.9014  -10.4284   21.0404 C   0  0  0  0  0  0
  -24.3580   -9.4204   21.9183 C   0  0  0  0  0  0
  -23.6277   -8.2231   22.0746 C   0  0  0  0  0  0
  -22.4269   -8.0251   21.3532 C   0  0  0  0  0  0
  -21.9886   -9.0216   20.4636 C   0  0  0  0  0  0
  -22.7185  -10.2113   20.3054 C   0  0  0  0  0  0
  -21.6845   -6.0720   22.5267 C   0  0  0  0  0  0
  -21.3995   -6.5630   23.8194 C   0  0  0  0  0  0
  -21.3669   -5.6796   24.9169 C   0  0  0  0  0  0
  -21.6049   -4.3055   24.7228 C   0  0  0  0  0  0
  -21.8821   -3.8138   23.4350 C   0  0  0  0  0  0
  -21.9185   -4.6948   22.3400 C   0  0  0  0  0  0
  -22.7790  -13.5222   21.1892 C   0  0  0  0  0  0
  -22.1657   -4.2124   21.0984 F   0  0  0  0  0  0
  -21.5649   -3.4551   25.7751 F   0  0  0  0  0  0
  -29.9820  -13.5060   20.4127 N   0  0  0  0  0  0
  -26.2890  -12.9359   20.3305 N   0  0  0  0  0  0
  -25.9259  -11.6514   20.5778 N   0  0  0  0  0  0
  -22.0449  -12.8192   22.0441 N   0  0  0  0  0  0
  -25.4224  -15.1892   20.4104 N   0  0  0  0  0  0
  -31.7734  -14.8558   20.1254 O   0  0  0  0  0  0
  -21.6636   -6.8851   21.4227 O   0  0  0  0  0  0
  -22.3474  -14.5533   20.6742 O   0  0  0  0  0  0
  -24.6272  -31.8535   23.1944 C   0  0  0  0  0  0
  -25.9090  -32.4730   23.8326 C   0  0  1  0  0  0
  -27.2261  -27.2609   20.1312 C   0  0  0  0  0  0
  -25.5901  -33.8533   24.2239 N   0  0  0  0  0  0
  -23.4246  -30.4709   21.5401 C   0  0  2  0  0  0
  -24.8738  -28.9139   20.1056 C   0  0  0  0  0  0
  -22.7484  -29.4556   22.4928 C   0  0  0  0  0  0
  -18.0277  -28.1329   22.8489 C   0  0  0  0  0  0
  -24.1486  -36.7265   23.2644 C   0  0  0  0  0  0
  -25.9664  -30.7646   21.3739 C   0  0  0  0  0  0
  -26.0402  -29.3850   20.7191 C   0  0  0  0  0  0
  -27.2131  -28.5684   20.7244 C   0  0  0  0  0  0
  -26.0365  -26.8482   19.4920 C   0  0  0  0  0  0
  -24.8774  -27.6543   19.4822 C   0  0  0  0  0  0
  -23.6406  -29.8001   20.1565 C   0  0  0  0  0  0
  -25.4109  -36.3050   24.0326 C   0  0  1  0  0  0
  -20.5881  -28.3642   23.1282 C   0  0  2  0  0  0
  -20.6768  -26.9358   22.5404 C   0  0  0  0  0  0
  -19.5744  -26.6353   21.5202 C   0  0  0  0  0  0
  -18.1922  -26.7882   22.1614 C   0  0  0  0  0  0
  -19.1534  -28.8805   23.2882 C   0  0  0  0  0  0
  -18.9458  -30.1422   23.8881 C   0  0  0  0  0  0
  -17.6457  -30.6547   24.0544 C   0  0  0  0  0  0
  -25.9052  -34.9422   23.5099 C   0  0  0  0  0  0
  -16.5352  -29.9030   23.6329 C   0  0  0  0  0  0
  -16.7272  -28.6448   23.0358 C   0  0  0  0  0  0
  -26.4489  -31.6546   25.0708 C   0  0  0  0  0  0
  -25.3727  -31.3651   26.1445 C   0  0  0  0  0  0
  -27.0350  -30.2984   24.6155 C   0  0  0  0  0  0
  -27.6048  -32.4312   25.7457 C   0  0  0  0  0  0
  -27.5578  -37.1773   24.8458 C   0  0  0  0  0  0
  -21.4191  -29.3002   22.3690 N   0  0  0  0  0  0
  -26.4271  -37.3759   23.9429 N   0  0  0  0  0  0
  -24.6916  -31.0491   22.0927 N   0  0  0  0  0  0
  -23.4196  -28.8115   23.3033 O   0  0  0  0  0  0
  -28.3505  -26.4120   20.2344 O   0  0  0  0  0  0
  -26.5641  -34.8903   22.4668 O   0  0  0  0  0  0
  -23.5430  -32.1370   23.7230 O   0  0  0  0  0  0
  -28.9447  -22.4246   20.0745 C   0  0  0  0  0  0
  -27.0443  -22.5495   22.0337 C   0  0  0  0  0  0
  -27.6402  -21.2875   21.7627 C   0  0  0  0  0  0
  -28.6522  -21.1733   20.7577 C   0  0  0  0  0  0
  -28.2971  -23.6943   20.3763 C   0  0  0  0  0  0
  -27.1491  -20.1198   22.6031 C   0  0  0  0  0  0
  -28.4928  -25.0642   19.5877 C   0  0  0  0  0  0
  -29.0774  -18.4878   20.8401 C   0  0  0  0  0  0
  -30.1590  -17.3334   20.4869 C   0  0  0  0  0  0
  -27.3816  -23.6720   21.3600 N   0  3  0  0  0  0
  -29.3571  -19.9308   20.4358 N   0  0  0  0  0  0
  -29.8104  -15.8593   20.7046 N   0  0  0  0  0  0
  -31.4689  -12.5817   19.1673 H   0  0  0  0  0  0
  -30.3840  -11.4737   19.9583 H   0  0  0  0  0  0
  -29.7806  -11.7134   17.5296 H   0  0  0  0  0  0
  -29.6166  -13.4441   17.7146 H   0  0  0  0  0  0
  -27.8986  -11.2665   18.9388 H   0  0  0  0  0  0
  -27.3632  -12.4843   17.8122 H   0  0  0  0  0  0
  -27.6368  -14.2416   19.4686 H   0  0  0  0  0  0
  -28.7179  -12.1404   21.4112 H   0  0  0  0  0  0
  -28.4151  -13.8116   21.8116 H   0  0  0  0  0  0
  -25.2721   -9.5705   22.4751 H   0  0  0  0  0  0
  -23.9994   -7.4634   22.7460 H   0  0  0  0  0  0
  -21.0823   -8.8707   19.8938 H   0  0  0  0  0  0
  -22.3615  -10.9647   19.6162 H   0  0  0  0  0  0
  -21.1962   -7.6134   23.9686 H   0  0  0  0  0  0
  -21.1503   -6.0537   25.9073 H   0  0  0  0  0  0
  -22.0588   -2.7592   23.2865 H   0  0  0  0  0  0
  -22.4095  -11.9861   22.4818 H   0  0  0  0  0  0
  -21.1048  -13.1162   22.2647 H   0  0  0  0  0  0
  -24.6577  -15.8477   20.5141 H   0  0  0  0  0  0
  -26.2633  -15.6165   20.0455 H   0  0  0  0  0  0
  -26.7145  -32.5398   23.1056 H   0  0  0  0  0  0
  -25.0092  -33.9696   25.0419 H   0  0  0  0  0  0
  -22.7187  -31.2903   21.3941 H   0  0  0  0  0  0
  -23.3764  -35.9575   23.3256 H   0  0  0  0  0  0
  -24.3610  -36.8928   22.2066 H   0  0  0  0  0  0
  -23.7217  -37.6438   23.6704 H   0  0  0  0  0  0
  -26.1034  -31.5227   20.6022 H   0  0  0  0  0  0
  -26.8435  -30.8177   22.0058 H   0  0  0  0  0  0
  -28.1071  -28.9215   21.2207 H   0  0  0  0  0  0
  -25.9616  -25.8802   19.0207 H   0  0  0  0  0  0
  -23.9824  -27.2877   18.9998 H   0  0  0  0  0  0
  -23.7540  -30.5757   19.3985 H   0  0  0  0  0  0
  -22.7598  -29.2279   19.8585 H   0  0  0  0  0  0
  -25.1274  -36.1893   25.0810 H   0  0  0  0  0  0
  -20.9982  -28.3195   24.1399 H   0  0  0  0  0  0
  -20.5658  -26.2226   23.3592 H   0  0  0  0  0  0
  -21.6636  -26.7377   22.1189 H   0  0  0  0  0  0
  -19.6900  -25.6272   21.1198 H   0  0  0  0  0  0
  -19.6668  -27.3188   20.6744 H   0  0  0  0  0  0
  -17.4194  -26.6642   21.4007 H   0  0  0  0  0  0
  -18.0320  -25.9995   22.8983 H   0  0  0  0  0  0
  -19.7937  -30.7247   24.2214 H   0  0  0  0  0  0
  -17.5006  -31.6231   24.5130 H   0  0  0  0  0  0
  -15.5346  -30.2919   23.7658 H   0  0  0  0  0  0
  -15.8677  -28.0762   22.7068 H   0  0  0  0  0  0
  -24.5935  -30.6947   25.7796 H   0  0  0  0  0  0
  -24.8880  -32.2782   26.4907 H   0  0  0  0  0  0
  -25.8087  -30.8842   27.0211 H   0  0  0  0  0  0
  -26.2925  -29.6722   24.1201 H   0  0  0  0  0  0
  -27.4092  -29.7238   25.4636 H   0  0  0  0  0  0
  -27.8760  -30.4281   23.9340 H   0  0  0  0  0  0
  -27.2675  -33.3657   26.1949 H   0  0  0  0  0  0
  -28.3881  -32.6799   25.0277 H   0  0  0  0  0  0
  -28.0684  -31.8494   26.5432 H   0  0  0  0  0  0
  -28.2525  -38.0134   24.7608 H   0  0  0  0  0  0
  -28.1142  -36.2684   24.6153 H   0  0  0  0  0  0
  -27.2331  -37.1249   25.8862 H   0  0  0  0  0  0
  -20.9356  -29.8742   21.6923 H   0  0  0  0  0  0
  -26.0138  -38.2807   24.1500 H   0  0  0  0  0  0
  -29.6766  -22.4185   19.2827 H   0  0  0  0  0  0
  -26.2797  -22.6954   22.7843 H   0  0  0  0  0  0
  -26.2626  -20.3859   23.1806 H   0  0  0  0  0  0
  -27.9143  -19.8105   23.3158 H   0  0  0  0  0  0
  -26.8562  -19.2774   21.9801 H   0  0  0  0  0  0
  -27.9066  -25.0177   18.6718 H   0  0  0  0  0  0
  -29.5237  -25.0395   19.2363 H   0  0  0  0  0  0
  -28.9336  -18.4416   21.9178 H   0  0  0  0  0  0
  -28.1255  -18.2042   20.3887 H   0  0  0  0  0  0
  -31.0683  -17.5358   21.0551 H   0  0  0  0  0  0
  -30.4377  -17.4345   19.4378 H   0  0  0  0  0  0
  -26.9055  -24.5462   21.5952 H   0  0  0  0  0  0
  -30.0892  -20.0348   19.7412 H   0  0  0  0  0  0
  -28.8540  -15.6653   20.9614 H   0  0  0  0  0  0
  1 25  1  0  0  0
  1 30  2  0  0  0
  1 82  1  0  0  0
  2  3  1  0  0  0
  2 25  1  0  0  0
  2 83  1  0  0  0
  2 84  1  0  0  0
  3  4  1  0  0  0
  3 85  1  0  0  0
  3 86  1  0  0  0
  4  5  1  0  0  0
  4 87  1  0  0  0
  4 88  1  0  0  0
  5  6  1  0  0  0
  5 26  1  0  0  0
  5 89  1  0  0  0
  6 25  1  0  0  0
  6 90  1  0  0  0
  6 91  1  0  0  0
  7  8  2  0  0  0
  7 26  1  0  0  0
  7 29  1  0  0  0
  8  9  1  0  0  0
  8 22  1  0  0  0
  9 10  1  0  0  0
  9 27  2  0  0  0
 10 11  2  0  0  0
 10 15  1  0  0  0
 11 12  1  0  0  0
 11 92  1  0  0  0
 12 13  2  0  0  0
 12 93  1  0  0  0
 13 14  1  0  0  0
 13 31  1  0  0  0
 14 15  2  0  0  0
 14 94  1  0  0  0
 15 95  1  0  0  0
 16 17  2  0  0  0
 16 21  1  0  0  0
 16 31  1  0  0  0
 17 18  1  0  0  0
 17 96  1  0  0  0
 18 19  2  0  0  0
 18 97  1  0  0  0
 19 20  1  0  0  0
 19 24  1  0  0  0
 20 21  2  0  0  0
 20 98  1  0  0  0
 21 23  1  0  0  0
 22 28  1  0  0  0
 22 32  2  0  0  0
 26 27  1  0  0  0
 28 99  1  0  0  0
 28100  1  0  0  0
 29101  1  0  0  0
 29102  1  0  0  0
 33 34  1  0  0  0
 33 66  1  0  0  0
 33 70  2  0  0  0
 34 36  1  0  0  0
 34 59  1  0  0  0
 34103  1  0  0  0
 35 44  2  0  0  0
 35 45  1  0  0  0
 35 68  1  0  0  0
 36 56  1  0  0  0
 36104  1  0  0  0
 37 39  1  0  0  0
 37 47  1  0  0  0
 37 66  1  0  0  0
 37105  1  0  0  0
 38 43  2  0  0  0
 38 46  1  0  0  0
 38 47  1  0  0  0
 39 64  1  0  0  0
 39 67  2  0  0  0
 40 52  1  0  0  0
 40 53  2  0  0  0
 40 58  1  0  0  0
 41106  1  0  0  0
 41107  1  0  0  0
 41108  1  0  0  0
 41 48  1  0  0  0
 42 43  1  0  0  0
 42 66  1  0  0  0
 42109  1  0  0  0
 42110  1  0  0  0
 43 44  1  0  0  0
 44111  1  0  0  0
 45 46  2  0  0  0
 45112  1  0  0  0
 46113  1  0  0  0
 47114  1  0  0  0
 47115  1  0  0  0
 48 56  1  0  0  0
 48 65  1  0  0  0
 48116  1  0  0  0
 49 50  1  0  0  0
 49 53  1  0  0  0
 49 64  1  0  0  0
 49117  1  0  0  0
 50 51  1  0  0  0
 50118  1  0  0  0
 50119  1  0  0  0
 51 52  1  0  0  0
 51120  1  0  0  0
 51121  1  0  0  0
 52122  1  0  0  0
 52123  1  0  0  0
 53 54  1  0  0  0
 54 55  2  0  0  0
 54124  1  0  0  0
 55 57  1  0  0  0
 55125  1  0  0  0
 56 69  2  0  0  0
 57 58  2  0  0  0
 57126  1  0  0  0
 58127  1  0  0  0
 59 60  1  0  0  0
 59 61  1  0  0  0
 59 62  1  0  0  0
 60128  1  0  0  0
 60129  1  0  0  0
 60130  1  0  0  0
 61131  1  0  0  0
 61132  1  0  0  0
 61133  1  0  0  0
 62134  1  0  0  0
 62135  1  0  0  0
 62136  1  0  0  0
 63 65  1  0  0  0
 63137  1  0  0  0
 63138  1  0  0  0
 63139  1  0  0  0
 64140  1  0  0  0
 65141  1  0  0  0
 68 77  1  0  0  0
 71 74  2  0  0  0
 71 75  1  0  0  0
 71142  1  0  0  0
 72 73  2  0  0  0
 72 80  1  0  0  0
 72143  1  0  0  0
 73 74  1  0  0  0
 73 76  1  0  0  0
 74 81  1  0  0  0
 75 77  1  0  0  0
 75 80  2  0  0  0
 76144  1  0  0  0
 76145  1  0  0  0
 76146  1  0  0  0
 77147  1  0  0  0
 77148  1  0  0  0
 78 79  1  0  0  0
 78 81  1  0  0  0
 78149  1  0  0  0
 78150  1  0  0  0
 79 82  1  0  0  0
 79151  1  0  0  0
 79152  1  0  0  0
 80153  1  0  0  0
 81154  1  0  0  0
 82155  1  0  0  0
M  CHG  1  80   1
M  ISO  4   1 100  68 101  77 101  82 100
M  END
> <chiral flag>
0

> <version>
0

> <s_m_source_file>
/data/baiqing/PycharmProjects/Reinvent-master-3.2/result/LINK_invent/BTK/process_docking_weight1_custom_sum_contain_oxygen_bond_distance_aromatic_linkinvent_7_9_3/rearranged_h_0137.sdf

> <i_m_source_file_index>
2

> <r_mmod_Potential_Energy-OPLS-2005>
-47.398796081543

> <r_mmod_Stretch_Energy-OPLS-2005>
121.819358825684

> <r_mmod_Bend_Energy-OPLS-2005>
190.162612915039

> <r_mmod_Torsional_Energy-OPLS-2005>
189.889694213867

> <r_mmod_Improper_Torsional_Energy-OPLS-2005>
5.40250253677368

> <r_mmod_Van_der_Waal_Energy-OPLS-2005>
140.934204101562

> <r_mmod_Electrostatic_Energy-OPLS-2005>
-349.437347412109

> <r_mmod_Solvation_Energy-OPLS-2005>
-428.870178222656

> <b_mmod_Minimization_Converged-OPLS-2005>
0

> <r_mmod_RMS_Derivative-OPLS-2005>
2.58823227882385

$$$$
2
                    3D
 Structure written by MMmdl.
167177  0  0  1  0            999 V2000
  -30.5782  -14.9723   20.4657 C   0  0  0  0  0  0
  -30.4289  -12.6286   19.5003 C   0  0  0  0  0  0
  -29.5137  -12.5542   18.2573 C   0  0  0  0  0  0
  -28.0549  -12.3230   18.6836 C   0  0  0  0  0  0
  -27.6291  -13.2546   19.8480 C   0  0  2  0  0  0
  -28.6700  -13.3118   20.9886 C   0  0  0  0  0  0
  -25.2385  -13.8163   20.5577 C   0  0  0  0  0  0
  -24.1751  -13.0391   20.9281 C   0  0  0  0  0  0
  -24.6411  -11.6899   20.8830 C   0  0  0  0  0  0
  -23.9079  -10.4269   21.0421 C   0  0  0  0  0  0
  -24.3609   -9.4180   21.9197 C   0  0  0  0  0  0
  -23.6298   -8.2215   22.0738 C   0  0  0  0  0  0
  -22.4291   -8.0255   21.3506 C   0  0  0  0  0  0
  -21.9924   -9.0219   20.4606 C   0  0  0  0  0  0
  -22.7242  -10.2119   20.3045 C   0  0  0  0  0  0
  -21.6852   -6.0730   22.5262 C   0  0  0  0  0  0
  -21.4050   -6.5638   23.8198 C   0  0  0  0  0  0
  -21.3647   -5.6779   24.9157 C   0  0  0  0  0  0
  -21.6029   -4.3042   24.7210 C   0  0  0  0  0  0
  -21.8817   -3.8140   23.4333 C   0  0  0  0  0  0
  -21.9212   -4.6965   22.3391 C   0  0  0  0  0  0
  -22.7794  -13.5167   21.1918 C   0  0  0  0  0  0
  -22.1665   -4.2143   21.0968 F   0  0  0  0  0  0
  -21.5620   -3.4529   25.7726 F   0  0  0  0  0  0
  -29.9429  -13.7279   20.3914 N   0  0  0  0  0  0
  -26.2867  -12.9441   20.3256 N   0  0  0  0  0  0
  -25.9337  -11.6563   20.5806 N   0  0  0  0  0  0
  -22.0426  -12.8143   22.0434 N   0  0  0  0  0  0
  -25.3927  -15.1840   20.3506 N   0  0  0  0  0  0
  -31.7523  -15.0040   20.0915 O   0  0  0  0  0  0
  -21.6620   -6.8874   21.4220 O   0  0  0  0  0  0
  -22.3538  -14.5479   20.6739 O   0  0  0  0  0  0
  -24.6463  -31.8438   23.1869 C   0  0  0  0  0  0
  -25.9225  -32.4703   23.8245 C   0  0  1  0  0  0
  -27.2184  -27.1137   20.1595 C   0  0  0  0  0  0
  -25.5966  -33.8501   24.2162 N   0  0  0  0  0  0
  -23.4475  -30.4645   21.5354 C   0  0  2  0  0  0
  -24.8948  -28.8852   20.1117 C   0  0  0  0  0  0
  -22.7549  -29.4591   22.4885 C   0  0  0  0  0  0
  -18.0293  -28.1416   22.8427 C   0  0  0  0  0  0
  -24.1484  -36.7259   23.2638 C   0  0  0  0  0  0
  -26.0063  -30.7114   21.3848 C   0  0  0  0  0  0
  -26.0762  -29.3213   20.7257 C   0  0  0  0  0  0
  -27.2383  -28.4533   20.7278 C   0  0  0  0  0  0
  -26.0101  -26.7897   19.4961 C   0  0  0  0  0  0
  -24.8762  -27.6334   19.4816 C   0  0  0  0  0  0
  -23.6695  -29.7908   20.1575 C   0  0  0  0  0  0
  -25.4121  -36.3026   24.0301 C   0  0  1  0  0  0
  -20.5909  -28.3715   23.1201 C   0  0  2  0  0  0
  -20.6771  -26.9463   22.5227 C   0  0  0  0  0  0
  -19.5739  -26.6553   21.5019 C   0  0  0  0  0  0
  -18.1929  -26.7999   22.1479 C   0  0  0  0  0  0
  -19.1542  -28.8866   23.2849 C   0  0  0  0  0  0
  -18.9485  -30.1439   23.8904 C   0  0  0  0  0  0
  -17.6482  -30.6565   24.0596 C   0  0  0  0  0  0
  -25.9089  -34.9408   23.5041 C   0  0  0  0  0  0
  -16.5372  -29.9073   23.6318 C   0  0  0  0  0  0
  -16.7290  -28.6504   23.0301 C   0  0  0  0  0  0
  -26.4512  -31.6576   25.0695 C   0  0  0  0  0  0
  -25.3681  -31.3778   26.1379 C   0  0  0  0  0  0
  -27.0377  -30.2971   24.6298 C   0  0  0  0  0  0
  -27.6012  -32.4350   25.7517 C   0  0  0  0  0  0
  -27.5567  -37.1790   24.8462 C   0  0  0  0  0  0
  -21.4250  -29.3081   22.3619 N   0  0  0  0  0  0
  -26.4281  -37.3750   23.9407 N   0  0  0  0  0  0
  -24.7203  -31.0285   22.0905 N   0  0  0  0  0  0
  -23.4190  -28.8161   23.3048 O   0  0  0  0  0  0
  -28.2545  -26.1017   20.2630 O   0  0  0  0  0  0
  -26.5678  -34.8918   22.4627 O   0  0  0  0  0  0
  -23.5588  -32.1336   23.7122 O   0  0  0  0  0  0
  -30.0128  -23.2986   21.1919 C   0  0  0  0  0  0
  -28.4277  -21.8293   20.1991 C   0  0  0  0  0  0
  -30.7084  -22.1128   21.5495 C   0  0  0  0  0  0
  -28.8006  -23.2341   20.4817 C   0  0  0  0  0  0
  -29.1335  -20.5873   20.6514 C   0  0  0  0  0  0
  -24.2636  -19.1289   21.6109 C   0  0  0  0  0  0
  -23.6843  -20.1579   20.6687 C   0  0  0  0  0  0
  -28.9457  -17.3919   18.7455 C   0  0  0  0  0  0
  -28.6159  -18.9744   20.7409 C   0  0  2  0  0  0
  -24.7628  -19.2126   20.1865 C   0  0  0  0  0  0
  -29.3353  -17.4857   20.2265 C   0  0  1  0  0  0
  -27.2945  -18.7287   19.9248 C   0  0  2  0  0  0
  -27.9020  -24.5838   20.1133 C   0  0  0  0  0  0
  -26.1380  -19.7690   19.8679 C   0  0  1  0  0  0
  -30.2884  -20.8327   21.3162 N   0  0  0  0  0  0
  -29.9605  -16.1822   20.9103 N   0  0  0  0  0  0
  -27.7829  -18.3023   18.5879 N   0  3  0  0  0  0
  -26.0175  -20.3065   18.5575 O   0  0  0  0  0  0
  -31.4639  -12.7773   19.1898 H   0  0  0  0  0  0
  -30.4243  -11.6817   20.0389 H   0  0  0  0  0  0
  -29.8405  -11.7580   17.5840 H   0  0  0  0  0  0
  -29.5844  -13.4843   17.6912 H   0  0  0  0  0  0
  -27.9695  -11.2835   18.9990 H   0  0  0  0  0  0
  -27.3819  -12.4382   17.8317 H   0  0  0  0  0  0
  -27.5904  -14.2547   19.4190 H   0  0  0  0  0  0
  -28.7669  -12.3506   21.4958 H   0  0  0  0  0  0
  -28.3622  -14.0365   21.7446 H   0  0  0  0  0  0
  -25.2729   -9.5665   22.4812 H   0  0  0  0  0  0
  -23.9974   -7.4619   22.7475 H   0  0  0  0  0  0
  -21.0848   -8.8714   19.8940 H   0  0  0  0  0  0
  -22.3647  -10.9655   19.6184 H   0  0  0  0  0  0
  -21.2060   -7.6150   23.9705 H   0  0  0  0  0  0
  -21.1461   -6.0510   25.9052 H   0  0  0  0  0  0
  -22.0621   -2.7608   23.2817 H   0  0  0  0  0  0
  -22.4025  -11.9852   22.4925 H   0  0  0  0  0  0
  -21.1044  -13.1197   22.2554 H   0  0  0  0  0  0
  -24.5204  -15.6895   20.2350 H   0  0  0  0  0  0
  -26.0569  -15.4247   19.6294 H   0  0  0  0  0  0
  -26.7283  -32.5275   23.0963 H   0  0  0  0  0  0
  -25.0070  -33.9613   25.0277 H   0  0  0  0  0  0
  -22.7523  -31.2920   21.3848 H   0  0  0  0  0  0
  -23.3756  -35.9580   23.3289 H   0  0  0  0  0  0
  -24.3564  -36.8927   22.2056 H   0  0  0  0  0  0
  -23.7234  -37.6444   23.6702 H   0  0  0  0  0  0
  -26.1595  -31.4647   20.6109 H   0  0  0  0  0  0
  -26.8764  -30.7607   22.0284 H   0  0  0  0  0  0
  -28.1336  -28.7872   21.2337 H   0  0  0  0  0  0
  -25.8954  -25.8347   19.0074 H   0  0  0  0  0  0
  -23.9716  -27.2924   18.9955 H   0  0  0  0  0  0
  -23.8023  -30.5703   19.4056 H   0  0  0  0  0  0
  -22.7782  -29.2388   19.8472 H   0  0  0  0  0  0
  -25.1315  -36.1845   25.0792 H   0  0  0  0  0  0
  -21.0044  -28.3209   24.1296 H   0  0  0  0  0  0
  -21.6617  -26.7507   22.0928 H   0  0  0  0  0  0
  -20.5641  -26.2307   23.3360 H   0  0  0  0  0  0
  -19.6902  -25.6557   21.0866 H   0  0  0  0  0  0
  -19.6659  -27.3490   20.6653 H   0  0  0  0  0  0
  -17.4188  -26.6816   21.3856 H   0  0  0  0  0  0
  -18.0380  -26.0069   22.8803 H   0  0  0  0  0  0
  -19.7941  -30.7261   24.2326 H   0  0  0  0  0  0
  -17.5025  -31.6185   24.5295 H   0  0  0  0  0  0
  -15.5383  -30.2938   23.7723 H   0  0  0  0  0  0
  -15.8698  -28.0821   22.7023 H   0  0  0  0  0  0
  -24.5852  -30.7150   25.7690 H   0  0  0  0  0  0
  -24.8876  -32.2967   26.4736 H   0  0  0  0  0  0
  -25.7931  -30.8978   27.0202 H   0  0  0  0  0  0
  -26.3004  -29.6717   24.1269 H   0  0  0  0  0  0
  -27.3938  -29.7249   25.4872 H   0  0  0  0  0  0
  -27.8918  -30.4196   23.9645 H   0  0  0  0  0  0
  -27.2562  -33.3663   26.2025 H   0  0  0  0  0  0
  -28.3871  -32.6914   25.0399 H   0  0  0  0  0  0
  -28.0621  -31.8531   26.5515 H   0  0  0  0  0  0
  -28.2573  -38.0095   24.7513 H   0  0  0  0  0  0
  -28.1077  -36.2630   24.6284 H   0  0  0  0  0  0
  -27.2287  -37.1422   25.8864 H   0  0  0  0  0  0
  -20.9475  -29.8764   21.6782 H   0  0  0  0  0  0
  -26.0144  -38.2816   24.1426 H   0  0  0  0  0  0
  -30.4116  -24.2597   21.4779 H   0  0  0  0  0  0
  -27.5254  -21.7846   19.6244 H   0  0  0  0  0  0
  -31.6444  -22.1924   22.0838 H   0  0  0  0  0  0
  -23.6433  -18.2729   21.8688 H   0  0  0  0  0  0
  -24.9252  -19.4797   22.4029 H   0  0  0  0  0  0
  -23.9524  -21.1999   20.8432 H   0  0  0  0  0  0
  -22.6768  -19.9981   20.2943 H   0  0  0  0  0  0
  -29.7642  -17.7143   18.1018 H   0  0  0  0  0  0
  -28.6679  -16.3781   18.4521 H   0  0  0  0  0  0
  -28.3626  -18.8649   21.7963 H   0  0  0  0  0  0
  -24.4277  -18.4204   19.5201 H   0  0  0  0  0  0
  -28.5095  -16.9039   20.6293 H   0  0  0  0  0  0
  -26.7926  -17.8601   20.3593 H   0  0  0  0  0  0
  -26.9937  -24.4503   20.7017 H   0  0  0  0  0  0
  -27.6008  -24.4357   19.0753 H   0  0  0  0  0  0
  -26.2921  -20.5255   20.6346 H   0  0  0  0  0  0
  -30.5341  -16.5032   21.6782 H   0  0  0  0  0  0
  -27.0376  -17.8663   18.0706 H   0  0  0  0  0  0
  -28.0484  -19.1309   18.0790 H   0  0  0  0  0  0
  -25.2721  -20.9022   18.5570 H   0  0  0  0  0  0
  1 25  1  0  0  0
  1 30  2  0  0  0
  1 86  1  0  0  0
  2  3  1  0  0  0
  2 25  1  0  0  0
  2 89  1  0  0  0
  2 90  1  0  0  0
  3  4  1  0  0  0
  3 91  1  0  0  0
  3 92  1  0  0  0
  4  5  1  0  0  0
  4 93  1  0  0  0
  4 94  1  0  0  0
  5  6  1  0  0  0
  5 26  1  0  0  0
  5 95  1  0  0  0
  6 25  1  0  0  0
  6 96  1  0  0  0
  6 97  1  0  0  0
  7  8  2  0  0  0
  7 26  1  0  0  0
  7 29  1  0  0  0
  8  9  1  0  0  0
  8 22  1  0  0  0
  9 10  1  0  0  0
  9 27  2  0  0  0
 10 11  2  0  0  0
 10 15  1  0  0  0
 11 12  1  0  0  0
 11 98  1  0  0  0
 12 13  2  0  0  0
 12 99  1  0  0  0
 13 14  1  0  0  0
 13 31  1  0  0  0
 14 15  2  0  0  0
 14100  1  0  0  0
 15101  1  0  0  0
 16 17  2  0  0  0
 16 21  1  0  0  0
 16 31  1  0  0  0
 17 18  1  0  0  0
 17102  1  0  0  0
 18 19  2  0  0  0
 18103  1  0  0  0
 19 20  1  0  0  0
 19 24  1  0  0  0
 20 21  2  0  0  0
 20104  1  0  0  0
 21 23  1  0  0  0
 22 28  1  0  0  0
 22 32  2  0  0  0
 26 27  1  0  0  0
 28105  1  0  0  0
 28106  1  0  0  0
 29107  1  0  0  0
 29108  1  0  0  0
 33 34  1  0  0  0
 33 66  1  0  0  0
 33 70  2  0  0  0
 34 36  1  0  0  0
 34 59  1  0  0  0
 34109  1  0  0  0
 35 44  2  0  0  0
 35 45  1  0  0  0
 35 68  1  0  0  0
 36 56  1  0  0  0
 36110  1  0  0  0
 37 39  1  0  0  0
 37 47  1  0  0  0
 37 66  1  0  0  0
 37111  1  0  0  0
 38 43  2  0  0  0
 38 46  1  0  0  0
 38 47  1  0  0  0
 39 64  1  0  0  0
 39 67  2  0  0  0
 40 52  1  0  0  0
 40 53  2  0  0  0
 40 58  1  0  0  0
 41112  1  0  0  0
 41113  1  0  0  0
 41114  1  0  0  0
 41 48  1  0  0  0
 42 43  1  0  0  0
 42 66  1  0  0  0
 42115  1  0  0  0
 42116  1  0  0  0
 43 44  1  0  0  0
 44117  1  0  0  0
 45 46  2  0  0  0
 45118  1  0  0  0
 46119  1  0  0  0
 47120  1  0  0  0
 47121  1  0  0  0
 48 56  1  0  0  0
 48 65  1  0  0  0
 48122  1  0  0  0
 49 50  1  0  0  0
 49 53  1  0  0  0
 49 64  1  0  0  0
 49123  1  0  0  0
 50 51  1  0  0  0
 50124  1  0  0  0
 50125  1  0  0  0
 51 52  1  0  0  0
 51126  1  0  0  0
 51127  1  0  0  0
 52128  1  0  0  0
 52129  1  0  0  0
 53 54  1  0  0  0
 54 55  2  0  0  0
 54130  1  0  0  0
 55 57  1  0  0  0
 55131  1  0  0  0
 56 69  2  0  0  0
 57 58  2  0  0  0
 57132  1  0  0  0
 58133  1  0  0  0
 59 60  1  0  0  0
 59 61  1  0  0  0
 59 62  1  0  0  0
 60134  1  0  0  0
 60135  1  0  0  0
 60136  1  0  0  0
 61137  1  0  0  0
 61138  1  0  0  0
 61139  1  0  0  0
 62140  1  0  0  0
 62141  1  0  0  0
 62142  1  0  0  0
 63 65  1  0  0  0
 63143  1  0  0  0
 63144  1  0  0  0
 63145  1  0  0  0
 64146  1  0  0  0
 65147  1  0  0  0
 68 83  1  0  0  0
 71 73  2  0  0  0
 71 74  1  0  0  0
 71148  1  0  0  0
 72 74  2  0  0  0
 72 75  1  0  0  0
 72149  1  0  0  0
 73 85  1  0  0  0
 73150  1  0  0  0
 74 83  1  0  0  0
 75 85  2  0  0  0
 75 79  1  0  0  0
 76 77  1  0  0  0
 76151  1  0  0  0
 76152  1  0  0  0
 76 80  1  0  0  0
 77 80  1  0  0  0
 77153  1  0  0  0
 77154  1  0  0  0
 78 81  1  0  0  0
 78 87  1  0  0  0
 78155  1  0  0  0
 78156  1  0  0  0
 79 81  1  0  0  0
 79 82  1  0  0  0
 79157  1  0  0  0
 80 84  1  0  0  0
 80158  1  0  0  0
 81 86  1  0  0  0
 81159  1  0  0  0
 82 84  1  0  0  0
 82 87  1  0  0  0
 82160  1  0  0  0
 83161  1  0  0  0
 83162  1  0  0  0
 84 88  1  0  0  0
 84163  1  0  0  0
 86164  1  0  0  0
 87165  1  0  0  0
 87166  1  0  0  0
 88167  1  0  0  0
M  CHG  1  87   1
M  ISO  4   1 100  68 101  83 101  86 100
M  END
> <chiral flag>
0

> <version>
0

> <s_m_source_file>
/data/baiqing/PycharmProjects/Reinvent-master-3.2/result/LINK_invent/BTK/process_docking_weight1_custom_sum_contain_oxygen_bond_distance_aromatic_linkinvent_7_9_3/rearranged_h_0137.sdf

> <i_m_source_file_index>
3

> <r_mmod_Potential_Energy-OPLS-2005>
589.754577636719

> <r_mmod_Stretch_Energy-OPLS-2005>
312.526641845703

> <r_mmod_Bend_Energy-OPLS-2005>
491.150482177734

> <r_mmod_Torsional_Energy-OPLS-2005>
432.424713134766

> <r_mmod_Improper_Torsional_Energy-OPLS-2005>
12.5640687942505

> <r_mmod_Van_der_Waal_Energy-OPLS-2005>
153.770980834961

> <r_mmod_Electrostatic_Energy-OPLS-2005>
-534.279846191406

> <r_mmod_Solvation_Energy-OPLS-2005>
-490.829040527344

> <b_mmod_Minimization_Converged-OPLS-2005>
0

> <r_mmod_RMS_Derivative-OPLS-2005>
4.94836568832397

$$$$
3
                    3D
 Structure written by MMmdl.
169178  0  0  1  0            999 V2000
  -30.7428  -14.4307   20.5921 C   0  0  0  0  0  0
  -30.4145  -12.2922   19.4177 C   0  0  0  0  0  0
  -29.4882  -12.5055   18.2042 C   0  0  0  0  0  0
  -28.0120  -12.3632   18.6210 C   0  0  0  0  0  0
  -27.6611  -13.2073   19.8757 C   0  0  2  0  0  0
  -28.7041  -12.9986   20.9977 C   0  0  0  0  0  0
  -25.2590  -13.8167   20.5699 C   0  0  0  0  0  0
  -24.1839  -13.0446   20.9192 C   0  0  0  0  0  0
  -24.6391  -11.6912   20.8748 C   0  0  0  0  0  0
  -23.9060  -10.4294   21.0412 C   0  0  0  0  0  0
  -24.3616   -9.4206   21.9184 C   0  0  0  0  0  0
  -23.6292   -8.2240   22.0751 C   0  0  0  0  0  0
  -22.4273   -8.0280   21.3549 C   0  0  0  0  0  0
  -21.9908   -9.0253   20.4649 C   0  0  0  0  0  0
  -22.7234  -10.2133   20.3057 C   0  0  0  0  0  0
  -21.6852   -6.0738   22.5279 C   0  0  0  0  0  0
  -21.4007   -6.5638   23.8213 C   0  0  0  0  0  0
  -21.3656   -5.6786   24.9174 C   0  0  0  0  0  0
  -21.6043   -4.3051   24.7217 C   0  0  0  0  0  0
  -21.8819   -3.8143   23.4339 C   0  0  0  0  0  0
  -21.9193   -4.6966   22.3402 C   0  0  0  0  0  0
  -22.7860  -13.5246   21.1850 C   0  0  0  0  0  0
  -22.1659   -4.2154   21.0980 F   0  0  0  0  0  0
  -21.5633   -3.4533   25.7729 F   0  0  0  0  0  0
  -30.0376  -13.2784   20.4410 N   0  0  0  0  0  0
  -26.3026  -12.9335   20.3386 N   0  0  0  0  0  0
  -25.9322  -11.6499   20.5791 N   0  0  0  0  0  0
  -22.0493  -12.8237   22.0400 N   0  0  0  0  0  0
  -25.4332  -15.1875   20.4073 N   0  0  0  0  0  0
  -31.8607  -14.6062   20.0973 O   0  0  0  0  0  0
  -21.6643   -6.8875   21.4241 O   0  0  0  0  0  0
  -22.3552  -14.5560   20.6705 O   0  0  0  0  0  0
  -24.6144  -31.8699   23.2127 C   0  0  0  0  0  0
  -25.9042  -32.4833   23.8410 C   0  0  1  0  0  0
  -27.2275  -27.4358   20.0877 C   0  0  0  0  0  0
  -25.5903  -33.8633   24.2340 N   0  0  0  0  0  0
  -23.4011  -30.4966   21.5534 C   0  0  2  0  0  0
  -24.8446  -28.9695   20.1119 C   0  0  0  0  0  0
  -22.7409  -29.4675   22.4993 C   0  0  0  0  0  0
  -18.0273  -28.1388   22.8492 C   0  0  0  0  0  0
  -24.1484  -36.7311   23.2634 C   0  0  0  0  0  0
  -25.9319  -30.8344   21.3672 C   0  0  0  0  0  0
  -26.0065  -29.4714   20.7110 C   0  0  0  0  0  0
  -27.1992  -28.7115   20.6985 C   0  0  0  0  0  0
  -26.0444  -26.9593   19.4706 C   0  0  0  0  0  0
  -24.8592  -27.7125   19.4888 C   0  0  0  0  0  0
  -23.6078  -29.8356   20.1655 C   0  0  0  0  0  0
  -25.4105  -36.3120   24.0338 C   0  0  1  0  0  0
  -20.5864  -28.3669   23.1326 C   0  0  2  0  0  0
  -20.6767  -26.9405   22.5434 C   0  0  0  0  0  0
  -19.5755  -26.6391   21.5225 C   0  0  0  0  0  0
  -18.1923  -26.7944   22.1606 C   0  0  0  0  0  0
  -19.1521  -28.8843   23.2913 C   0  0  0  0  0  0
  -18.9445  -30.1448   23.8924 C   0  0  0  0  0  0
  -17.6447  -30.6586   24.0578 C   0  0  0  0  0  0
  -25.9039  -34.9484   23.5135 C   0  0  0  0  0  0
  -16.5339  -29.9092   23.6331 C   0  0  0  0  0  0
  -16.7259  -28.6514   23.0341 C   0  0  0  0  0  0
  -26.4467  -31.6609   25.0733 C   0  0  0  0  0  0
  -25.3733  -31.3730   26.1489 C   0  0  0  0  0  0
  -27.0266  -30.3040   24.6106 C   0  0  0  0  0  0
  -27.6064  -32.4318   25.7474 C   0  0  0  0  0  0
  -27.5592  -37.1803   24.8451 C   0  0  0  0  0  0
  -21.4138  -29.3036   22.3724 N   0  0  0  0  0  0
  -26.4288  -37.3807   23.9418 N   0  0  0  0  0  0
  -24.6675  -31.0807   22.1025 N   0  0  0  0  0  0
  -23.4188  -28.8217   23.3031 O   0  0  0  0  0  0
  -28.3943  -26.6930   20.1256 O   0  0  0  0  0  0
  -26.5596  -34.8930   22.4694 O   0  0  0  0  0  0
  -23.5336  -32.1445   23.7525 O   0  0  0  0  0  0
  -31.8271  -23.8856   20.4644 C   0  0  0  0  0  0
  -31.5149  -22.6557   21.0735 C   0  0  0  0  0  0
  -29.1522  -23.1700   20.8908 C   0  0  0  0  0  0
  -29.4516  -24.4194   20.2905 C   0  0  0  0  0  0
  -30.8054  -24.7730   20.0575 C   0  0  0  0  0  0
  -30.1774  -22.2737   21.2875 C   0  0  0  0  0  0
  -29.7444  -16.5683   20.2465 C   0  0  0  0  0  0
  -30.6371  -15.9646   22.4321 C   0  0  0  0  0  0
  -28.8360  -17.6291   20.8967 C   0  0  0  0  0  0
  -29.7427  -17.0387   23.0873 C   0  0  0  0  0  0
  -32.2186  -25.9801   18.4623 C   0  0  0  0  0  0
  -28.2807  -25.2909   19.8296 C   0  0  0  0  0  0
  -28.6355  -19.2322   22.8041 C   0  0  0  0  0  0
  -28.6281  -20.5680   22.0300 C   0  0  0  0  0  0
  -30.0888  -15.4666   21.1626 N   0  0  0  0  0  0
  -31.1268  -25.9843   19.4290 N   0  0  0  0  0  0
  -29.4299  -18.1507   22.1529 N   0  3  0  0  0  0
  -29.9669  -21.0387   21.8727 O   0  0  0  0  0  0
  -31.4603  -12.3737   19.1152 H   0  0  0  0  0  0
  -30.3005  -11.2821   19.8158 H   0  0  0  0  0  0
  -29.7258  -11.7882   17.4174 H   0  0  0  0  0  0
  -29.6568  -13.4958   17.7777 H   0  0  0  0  0  0
  -27.8256  -11.3074   18.8221 H   0  0  0  0  0  0
  -27.3577  -12.6325   17.7912 H   0  0  0  0  0  0
  -27.7018  -14.2534   19.5724 H   0  0  0  0  0  0
  -28.6719  -11.9712   21.3628 H   0  0  0  0  0  0
  -28.4722  -13.6251   21.8602 H   0  0  0  0  0  0
  -25.2763   -9.5684   22.4755 H   0  0  0  0  0  0
  -24.0007   -7.4630   22.7464 H   0  0  0  0  0  0
  -21.0840   -8.8768   19.8954 H   0  0  0  0  0  0
  -22.3695  -10.9671   19.6164 H   0  0  0  0  0  0
  -21.1986   -7.6147   23.9718 H   0  0  0  0  0  0
  -21.1479   -6.0516   25.9078 H   0  0  0  0  0  0
  -22.0598   -2.7605   23.2836 H   0  0  0  0  0  0
  -22.4089  -11.9881   22.4771 H   0  0  0  0  0  0
  -21.1110  -13.1265   22.2605 H   0  0  0  0  0  0
  -24.6615  -15.8408   20.4912 H   0  0  0  0  0  0
  -26.2731  -15.6103   20.0366 H   0  0  0  0  0  0
  -26.7110  -32.5542   23.1173 H   0  0  0  0  0  0
  -25.0090  -33.9804   25.0509 H   0  0  0  0  0  0
  -22.6892  -31.3136   21.4187 H   0  0  0  0  0  0
  -23.3757  -35.9633   23.3287 H   0  0  0  0  0  0
  -24.3597  -36.8933   22.2052 H   0  0  0  0  0  0
  -23.7212  -37.6504   23.6650 H   0  0  0  0  0  0
  -26.0468  -31.6014   20.6001 H   0  0  0  0  0  0
  -26.8197  -30.8843   21.9861 H   0  0  0  0  0  0
  -28.0938  -29.0931   21.1716 H   0  0  0  0  0  0
  -26.0067  -26.0069   18.9633 H   0  0  0  0  0  0
  -23.9689  -27.3237   19.0138 H   0  0  0  0  0  0
  -23.7154  -30.6143   19.4095 H   0  0  0  0  0  0
  -22.7315  -29.2567   19.8683 H   0  0  0  0  0  0
  -25.1283  -36.1984   25.0831 H   0  0  0  0  0  0
  -20.9961  -28.3239   24.1445 H   0  0  0  0  0  0
  -20.5672  -26.2279   23.3623 H   0  0  0  0  0  0
  -21.6642  -26.7452   22.1223 H   0  0  0  0  0  0
  -19.6918  -25.6308   21.1240 H   0  0  0  0  0  0
  -19.6718  -27.3216   20.6772 H   0  0  0  0  0  0
  -17.4215  -26.6730   21.3982 H   0  0  0  0  0  0
  -18.0282  -26.0068   22.8973 H   0  0  0  0  0  0
  -19.7920  -30.7266   24.2303 H   0  0  0  0  0  0
  -17.4999  -31.6269   24.5176 H   0  0  0  0  0  0
  -15.5343  -30.3004   23.7650 H   0  0  0  0  0  0
  -15.8657  -28.0855   22.7031 H   0  0  0  0  0  0
  -24.5947  -30.7011   25.7860 H   0  0  0  0  0  0
  -24.8868  -32.2878   26.4882 H   0  0  0  0  0  0
  -25.8094  -30.8975   27.0281 H   0  0  0  0  0  0
  -26.2792  -29.6825   24.1155 H   0  0  0  0  0  0
  -27.4013  -29.7260   25.4562 H   0  0  0  0  0  0
  -27.8651  -30.4336   23.9260 H   0  0  0  0  0  0
  -27.2709  -33.3622   26.2065 H   0  0  0  0  0  0
  -28.3858  -32.6862   25.0279 H   0  0  0  0  0  0
  -28.0745  -31.8427   26.5368 H   0  0  0  0  0  0
  -28.2592  -38.0119   24.7536 H   0  0  0  0  0  0
  -28.1108  -36.2659   24.6213 H   0  0  0  0  0  0
  -27.2336  -37.1368   25.8860 H   0  0  0  0  0  0
  -20.9289  -29.8757   21.6950 H   0  0  0  0  0  0
  -26.0179  -38.2881   24.1455 H   0  0  0  0  0  0
  -32.8679  -24.1359   20.3180 H   0  0  0  0  0  0
  -32.3155  -21.9946   21.3718 H   0  0  0  0  0  0
  -28.1136  -22.9115   21.0294 H   0  0  0  0  0  0
  -30.6598  -17.0461   19.8899 H   0  0  0  0  0  0
  -29.2463  -16.1736   19.3588 H   0  0  0  0  0  0
  -30.7642  -15.1345   23.1303 H   0  0  0  0  0  0
  -31.6356  -16.3738   22.2611 H   0  0  0  0  0  0
  -27.8552  -17.2002   21.1077 H   0  0  0  0  0  0
  -28.6765  -18.4373   20.1829 H   0  0  0  0  0  0
  -30.2432  -17.4282   23.9751 H   0  0  0  0  0  0
  -28.8119  -16.5840   23.4306 H   0  0  0  0  0  0
  -32.1366  -26.8425   17.7986 H   0  0  0  0  0  0
  -32.1991  -25.0821   17.8415 H   0  0  0  0  0  0
  -33.1869  -26.0349   18.9611 H   0  0  0  0  0  0
  -27.3823  -24.8894   20.3011 H   0  0  0  0  0  0
  -28.1709  -25.1583   18.7523 H   0  0  0  0  0  0
  -27.6118  -18.8906   22.9623 H   0  0  0  0  0  0
  -29.0461  -19.4287   23.7954 H   0  0  0  0  0  0
  -28.0469  -21.2904   22.6049 H   0  0  0  0  0  0
  -28.1408  -20.4616   21.0607 H   0  0  0  0  0  0
  -30.3317  -26.5863   19.2154 H   0  0  0  0  0  0
  -30.3150  -18.5734   21.9079 H   0  0  0  0  0  0
  1 25  1  0  0  0
  1 30  2  0  0  0
  1 85  1  0  0  0
  2  3  1  0  0  0
  2 25  1  0  0  0
  2 89  1  0  0  0
  2 90  1  0  0  0
  3  4  1  0  0  0
  3 91  1  0  0  0
  3 92  1  0  0  0
  4  5  1  0  0  0
  4 93  1  0  0  0
  4 94  1  0  0  0
  5  6  1  0  0  0
  5 26  1  0  0  0
  5 95  1  0  0  0
  6 25  1  0  0  0
  6 96  1  0  0  0
  6 97  1  0  0  0
  7  8  2  0  0  0
  7 26  1  0  0  0
  7 29  1  0  0  0
  8  9  1  0  0  0
  8 22  1  0  0  0
  9 10  1  0  0  0
  9 27  2  0  0  0
 10 11  2  0  0  0
 10 15  1  0  0  0
 11 12  1  0  0  0
 11 98  1  0  0  0
 12 13  2  0  0  0
 12 99  1  0  0  0
 13 14  1  0  0  0
 13 31  1  0  0  0
 14 15  2  0  0  0
 14100  1  0  0  0
 15101  1  0  0  0
 16 17  2  0  0  0
 16 21  1  0  0  0
 16 31  1  0  0  0
 17 18  1  0  0  0
 17102  1  0  0  0
 18 19  2  0  0  0
 18103  1  0  0  0
 19 20  1  0  0  0
 19 24  1  0  0  0
 20 21  2  0  0  0
 20104  1  0  0  0
 21 23  1  0  0  0
 22 28  1  0  0  0
 22 32  2  0  0  0
 26 27  1  0  0  0
 28105  1  0  0  0
 28106  1  0  0  0
 29107  1  0  0  0
 29108  1  0  0  0
 33 34  1  0  0  0
 33 66  1  0  0  0
 33 70  2  0  0  0
 34 36  1  0  0  0
 34 59  1  0  0  0
 34109  1  0  0  0
 35 44  2  0  0  0
 35 45  1  0  0  0
 35 68  1  0  0  0
 36 56  1  0  0  0
 36110  1  0  0  0
 37 39  1  0  0  0
 37 47  1  0  0  0
 37 66  1  0  0  0
 37111  1  0  0  0
 38 43  2  0  0  0
 38 46  1  0  0  0
 38 47  1  0  0  0
 39 64  1  0  0  0
 39 67  2  0  0  0
 40 52  1  0  0  0
 40 53  2  0  0  0
 40 58  1  0  0  0
 41112  1  0  0  0
 41113  1  0  0  0
 41114  1  0  0  0
 41 48  1  0  0  0
 42 43  1  0  0  0
 42 66  1  0  0  0
 42115  1  0  0  0
 42116  1  0  0  0
 43 44  1  0  0  0
 44117  1  0  0  0
 45 46  2  0  0  0
 45118  1  0  0  0
 46119  1  0  0  0
 47120  1  0  0  0
 47121  1  0  0  0
 48 56  1  0  0  0
 48 65  1  0  0  0
 48122  1  0  0  0
 49 50  1  0  0  0
 49 53  1  0  0  0
 49 64  1  0  0  0
 49123  1  0  0  0
 50 51  1  0  0  0
 50124  1  0  0  0
 50125  1  0  0  0
 51 52  1  0  0  0
 51126  1  0  0  0
 51127  1  0  0  0
 52128  1  0  0  0
 52129  1  0  0  0
 53 54  1  0  0  0
 54 55  2  0  0  0
 54130  1  0  0  0
 55 57  1  0  0  0
 55131  1  0  0  0
 56 69  2  0  0  0
 57 58  2  0  0  0
 57132  1  0  0  0
 58133  1  0  0  0
 59 60  1  0  0  0
 59 61  1  0  0  0
 59 62  1  0  0  0
 60134  1  0  0  0
 60135  1  0  0  0
 60136  1  0  0  0
 61137  1  0  0  0
 61138  1  0  0  0
 61139  1  0  0  0
 62140  1  0  0  0
 62141  1  0  0  0
 62142  1  0  0  0
 63 65  1  0  0  0
 63143  1  0  0  0
 63144  1  0  0  0
 63145  1  0  0  0
 64146  1  0  0  0
 65147  1  0  0  0
 68 82  1  0  0  0
 71 72  2  0  0  0
 71 75  1  0  0  0
 71148  1  0  0  0
 72 76  1  0  0  0
 72149  1  0  0  0
 73 74  1  0  0  0
 73 76  2  0  0  0
 73150  1  0  0  0
 74 75  2  0  0  0
 74 82  1  0  0  0
 75 86  1  0  0  0
 76 88  1  0  0  0
 77 79  1  0  0  0
 77 85  1  0  0  0
 77151  1  0  0  0
 77152  1  0  0  0
 78 80  1  0  0  0
 78 85  1  0  0  0
 78153  1  0  0  0
 78154  1  0  0  0
 79 87  1  0  0  0
 79155  1  0  0  0
 79156  1  0  0  0
 80 87  1  0  0  0
 80157  1  0  0  0
 80158  1  0  0  0
 81 86  1  0  0  0
 81159  1  0  0  0
 81160  1  0  0  0
 81161  1  0  0  0
 82162  1  0  0  0
 82163  1  0  0  0
 83 84  1  0  0  0
 83164  1  0  0  0
 83165  1  0  0  0
 83 87  1  0  0  0
 84 88  1  0  0  0
 84166  1  0  0  0
 84167  1  0  0  0
 86168  1  0  0  0
 87169  1  0  0  0
M  CHG  1  87   1
M  ISO  4   1 100  68 101  82 101  85 100
M  END
> <chiral flag>
0

> <version>
0

> <s_m_source_file>
/data/baiqing/PycharmProjects/Reinvent-master-3.2/result/LINK_invent/BTK/process_docking_weight1_custom_sum_contain_oxygen_bond_distance_aromatic_linkinvent_7_9_3/rearranged_h_0137.sdf

> <i_m_source_file_index>
4

> <r_mmod_Potential_Energy-OPLS-2005>
95.4676666259766

> <r_mmod_Stretch_Energy-OPLS-2005>
39.272647857666

> <r_mmod_Bend_Energy-OPLS-2005>
113.141204833984

> <r_mmod_Torsional_Energy-OPLS-2005>
386.351623535156

> <r_mmod_Improper_Torsional_Energy-OPLS-2005>
11.4713068008423

> <r_mmod_Van_der_Waal_Energy-OPLS-2005>
169.925430297852

> <r_mmod_Electrostatic_Energy-OPLS-2005>
-196.946334838867

> <r_mmod_Solvation_Energy-OPLS-2005>
-440.233215332031

> <b_mmod_Minimization_Converged-OPLS-2005>
0

> <r_mmod_RMS_Derivative-OPLS-2005>
1.00194096565247

$$$$
4
                    3D
 Structure written by MMmdl.
159168  0  0  1  0            999 V2000
  -30.6835  -14.7494   20.4645 C   0  0  0  0  0  0
  -30.4126  -12.4687   19.4742 C   0  0  0  0  0  0
  -29.4985  -12.4935   18.2325 C   0  0  0  0  0  0
  -28.0311  -12.3031   18.6527 C   0  0  0  0  0  0
  -27.6280  -13.2242   19.8328 C   0  0  2  0  0  0
  -28.6774  -13.2269   20.9700 C   0  0  0  0  0  0
  -25.2471  -13.8160   20.5700 C   0  0  0  0  0  0
  -24.1782  -13.0402   20.9220 C   0  0  0  0  0  0
  -24.6383  -11.6887   20.8767 C   0  0  0  0  0  0
  -23.9067  -10.4279   21.0415 C   0  0  0  0  0  0
  -24.3625   -9.4188   21.9178 C   0  0  0  0  0  0
  -23.6299   -8.2226   22.0746 C   0  0  0  0  0  0
  -22.4281   -8.0274   21.3532 C   0  0  0  0  0  0
  -21.9909   -9.0247   20.4634 C   0  0  0  0  0  0
  -22.7238  -10.2127   20.3059 C   0  0  0  0  0  0
  -21.6859   -6.0732   22.5265 C   0  0  0  0  0  0
  -21.4019   -6.5639   23.8197 C   0  0  0  0  0  0
  -21.3657   -5.6789   24.9162 C   0  0  0  0  0  0
  -21.6050   -4.3052   24.7210 C   0  0  0  0  0  0
  -21.8819   -3.8144   23.4331 C   0  0  0  0  0  0
  -21.9190   -4.6959   22.3389 C   0  0  0  0  0  0
  -22.7813  -13.5185   21.1875 C   0  0  0  0  0  0
  -22.1664   -4.2145   21.0965 F   0  0  0  0  0  0
  -21.5625   -3.4533   25.7720 F   0  0  0  0  0  0
  -29.9727  -13.5671   20.3724 N   0  0  0  0  0  0
  -26.2874  -12.9349   20.3242 N   0  0  0  0  0  0
  -25.9306  -11.6502   20.5776 N   0  0  0  0  0  0
  -22.0506  -12.8172   22.0463 N   0  0  0  0  0  0
  -25.4107  -15.1888   20.4125 N   0  0  0  0  0  0
  -31.8873  -14.7212   20.1927 O   0  0  0  0  0  0
  -21.6643   -6.8877   21.4232 O   0  0  0  0  0  0
  -22.3481  -14.5480   20.6712 O   0  0  0  0  0  0
  -24.6360  -31.8560   23.2028 C   0  0  0  0  0  0
  -25.9173  -32.4759   23.8367 C   0  0  1  0  0  0
  -27.2000  -27.2286   20.1186 C   0  0  0  0  0  0
  -25.5977  -33.8559   24.2281 N   0  0  0  0  0  0
  -23.4343  -30.4865   21.5444 C   0  0  2  0  0  0
  -24.8777  -28.9471   20.1060 C   0  0  0  0  0  0
  -22.7533  -29.4618   22.4848 C   0  0  0  0  0  0
  -18.0306  -28.1382   22.8467 C   0  0  0  0  0  0
  -24.1501  -36.7299   23.2625 C   0  0  0  0  0  0
  -25.9875  -30.7570   21.3924 C   0  0  0  0  0  0
  -26.0559  -29.3816   20.7271 C   0  0  0  0  0  0
  -27.2193  -28.5348   20.7293 C   0  0  0  0  0  0
  -25.9932  -26.8997   19.4449 C   0  0  0  0  0  0
  -24.8537  -27.7130   19.4547 C   0  0  0  0  0  0
  -23.6560  -29.8408   20.1554 C   0  0  0  0  0  0
  -25.4117  -36.3051   24.0312 C   0  0  1  0  0  0
  -20.5921  -28.3711   23.1228 C   0  0  2  0  0  0
  -20.6794  -26.9427   22.5383 C   0  0  0  0  0  0
  -19.5774  -26.6372   21.5197 C   0  0  0  0  0  0
  -18.1960  -26.7921   22.1621 C   0  0  0  0  0  0
  -19.1558  -28.8866   23.2846 C   0  0  0  0  0  0
  -18.9474  -30.1455   23.8888 C   0  0  0  0  0  0
  -17.6471  -30.6581   24.0560 C   0  0  0  0  0  0
  -25.9063  -34.9427   23.5086 C   0  0  0  0  0  0
  -16.5366  -29.9081   23.6316 C   0  0  0  0  0  0
  -16.7292  -28.6494   23.0343 C   0  0  0  0  0  0
  -26.4530  -31.6568   25.0753 C   0  0  0  0  0  0
  -25.3740  -31.3747   26.1474 C   0  0  0  0  0  0
  -27.0370  -30.2965   24.6258 C   0  0  0  0  0  0
  -27.6058  -32.4326   25.7539 C   0  0  0  0  0  0
  -27.5576  -37.1802   24.8453 C   0  0  0  0  0  0
  -21.4236  -29.3076   22.3620 N   0  0  0  0  0  0
  -26.4281  -37.3756   23.9398 N   0  0  0  0  0  0
  -24.7057  -31.0507   22.1022 N   0  0  0  0  0  0
  -23.4214  -28.8096   23.2910 O   0  0  0  0  0  0
  -28.2395  -26.2500   20.1988 O   0  0  0  0  0  0
  -26.5603  -34.8904   22.4635 O   0  0  0  0  0  0
  -23.5493  -32.1391   23.7291 O   0  0  0  0  0  0
  -28.2725  -22.4219   19.1051 C   0  0  0  0  0  0
  -28.5974  -21.0372   19.2433 C   0  0  0  0  0  0
  -29.5736  -21.4969   21.3608 C   0  0  0  0  0  0
  -28.5483  -23.4173   20.0881 C   0  0  0  0  0  0
  -29.2374  -22.9026   21.2325 C   0  0  0  0  0  0
  -29.2417  -20.4946   20.3863 C   0  0  0  0  0  0
  -30.3032  -18.4820   21.5887 C   0  0  0  0  0  0
  -28.5127  -18.0730   20.0420 C   0  0  0  0  0  0
  -30.9748  -17.1131   21.1993 C   0  0  0  0  0  0
  -28.8588  -16.5088   20.1003 C   0  0  0  0  0  0
  -29.5885  -23.8519   22.3616 C   0  0  0  0  0  0
  -27.7967  -24.8290   19.9193 C   0  0  0  0  0  0
  -29.5200  -19.0608   20.4934 N   0  0  0  0  0  0
  -30.0929  -15.9893   20.7585 N   0  0  0  0  0  0
  -31.4545  -12.5605   19.1660 H   0  0  0  0  0  0
  -30.3442  -11.5072   19.9856 H   0  0  0  0  0  0
  -29.7899  -11.7073   17.5342 H   0  0  0  0  0  0
  -29.6167  -13.4380   17.6995 H   0  0  0  0  0  0
  -27.9074  -11.2581   18.9368 H   0  0  0  0  0  0
  -27.3689  -12.4656   17.8010 H   0  0  0  0  0  0
  -27.5898  -14.2183   19.3967 H   0  0  0  0  0  0
  -28.7260  -12.2532   21.4602 H   0  0  0  0  0  0
  -28.4083  -13.9472   21.7434 H   0  0  0  0  0  0
  -25.2778   -9.5656   22.4739 H   0  0  0  0  0  0
  -24.0005   -7.4619   22.7453 H   0  0  0  0  0  0
  -21.0844   -8.8762   19.8946 H   0  0  0  0  0  0
  -22.3691  -10.9669   19.6175 H   0  0  0  0  0  0
  -21.2033   -7.6148   23.9703 H   0  0  0  0  0  0
  -21.1478   -6.0520   25.9059 H   0  0  0  0  0  0
  -22.0605   -2.7607   23.2830 H   0  0  0  0  0  0
  -22.4160  -11.9830   22.4823 H   0  0  0  0  0  0
  -21.1109  -13.1128   22.2692 H   0  0  0  0  0  0
  -24.6430  -15.8386   20.5430 H   0  0  0  0  0  0
  -26.2554  -15.6370   20.0861 H   0  0  0  0  0  0
  -26.7225  -32.5405   23.1084 H   0  0  0  0  0  0
  -25.0166  -33.9728   25.0457 H   0  0  0  0  0  0
  -22.7319  -31.3094   21.4026 H   0  0  0  0  0  0
  -23.3741  -35.9653   23.3267 H   0  0  0  0  0  0
  -24.3598  -36.8952   22.2044 H   0  0  0  0  0  0
  -23.7303  -37.6509   23.6678 H   0  0  0  0  0  0
  -26.1365  -31.5141   20.6225 H   0  0  0  0  0  0
  -26.8629  -30.8020   22.0270 H   0  0  0  0  0  0
  -28.1115  -28.8572   21.2485 H   0  0  0  0  0  0
  -25.8493  -25.9747   18.9098 H   0  0  0  0  0  0
  -23.9553  -27.3786   18.9533 H   0  0  0  0  0  0
  -23.7994  -30.6279   19.4147 H   0  0  0  0  0  0
  -22.7707  -29.2895   19.8335 H   0  0  0  0  0  0
  -25.1302  -36.1874   25.0803 H   0  0  0  0  0  0
  -21.0040  -28.3303   24.1332 H   0  0  0  0  0  0
  -20.5701  -26.2343   23.3602 H   0  0  0  0  0  0
  -21.6659  -26.7451   22.1175 H   0  0  0  0  0  0
  -19.6958  -25.6272   21.1261 H   0  0  0  0  0  0
  -19.6712  -27.3141   20.6692 H   0  0  0  0  0  0
  -17.4232  -26.6630   21.4033 H   0  0  0  0  0  0
  -18.0382  -26.0076   22.9034 H   0  0  0  0  0  0
  -19.7942  -30.7269   24.2270 H   0  0  0  0  0  0
  -17.5021  -31.6259   24.5158 H   0  0  0  0  0  0
  -15.5368  -30.2978   23.7645 H   0  0  0  0  0  0
  -15.8685  -28.0815   22.7054 H   0  0  0  0  0  0
  -24.5834  -30.7216   25.7776 H   0  0  0  0  0  0
  -24.9061  -32.2957   26.4956 H   0  0  0  0  0  0
  -25.8032  -30.8829   27.0215 H   0  0  0  0  0  0
  -26.2963  -29.6713   24.1271 H   0  0  0  0  0  0
  -27.4011  -29.7225   25.4787 H   0  0  0  0  0  0
  -27.8866  -30.4205   23.9541 H   0  0  0  0  0  0
  -27.2604  -33.3569   26.2175 H   0  0  0  0  0  0
  -28.3842  -32.6995   25.0380 H   0  0  0  0  0  0
  -28.0777  -31.8454   26.5427 H   0  0  0  0  0  0
  -28.2556  -38.0125   24.7484 H   0  0  0  0  0  0
  -28.1110  -36.2655   24.6276 H   0  0  0  0  0  0
  -27.2311  -37.1442   25.8860 H   0  0  0  0  0  0
  -20.9402  -29.8869   21.6897 H   0  0  0  0  0  0
  -26.0144  -38.2821   24.1391 H   0  0  0  0  0  0
  -27.7301  -22.7068   18.2142 H   0  0  0  0  0  0
  -28.3201  -20.3845   18.4305 H   0  0  0  0  0  0
  -30.0770  -21.1791   22.2630 H   0  0  0  0  0  0
  -31.0841  -19.1790   21.8948 H   0  0  0  0  0  0
  -29.6555  -18.3444   22.4563 H   0  0  0  0  0  0
  -27.6253  -18.2356   20.6587 H   0  0  0  0  0  0
  -28.1942  -18.3048   19.0250 H   0  0  0  0  0  0
  -31.5616  -16.7644   22.0506 H   0  0  0  0  0  0
  -31.6958  -17.3053   20.4047 H   0  0  0  0  0  0
  -28.8616  -16.1369   19.0731 H   0  0  0  0  0  0
  -28.0237  -16.0218   20.5954 H   0  0  0  0  0  0
  -30.2447  -23.3825   23.0960 H   0  0  0  0  0  0
  -28.6868  -24.1827   22.8764 H   0  0  0  0  0  0
  -30.1066  -24.7302   21.9749 H   0  0  0  0  0  0
  -26.8712  -24.6689   20.4755 H   0  0  0  0  0  0
  -27.5442  -24.8299   18.8592 H   0  0  0  0  0  0
  1 25  1  0  0  0
  1 30  2  0  0  0
  1 84  1  0  0  0
  2  3  1  0  0  0
  2 25  1  0  0  0
  2 85  1  0  0  0
  2 86  1  0  0  0
  3  4  1  0  0  0
  3 87  1  0  0  0
  3 88  1  0  0  0
  4  5  1  0  0  0
  4 89  1  0  0  0
  4 90  1  0  0  0
  5  6  1  0  0  0
  5 26  1  0  0  0
  5 91  1  0  0  0
  6 25  1  0  0  0
  6 92  1  0  0  0
  6 93  1  0  0  0
  7  8  2  0  0  0
  7 26  1  0  0  0
  7 29  1  0  0  0
  8  9  1  0  0  0
  8 22  1  0  0  0
  9 10  1  0  0  0
  9 27  2  0  0  0
 10 11  2  0  0  0
 10 15  1  0  0  0
 11 12  1  0  0  0
 11 94  1  0  0  0
 12 13  2  0  0  0
 12 95  1  0  0  0
 13 14  1  0  0  0
 13 31  1  0  0  0
 14 15  2  0  0  0
 14 96  1  0  0  0
 15 97  1  0  0  0
 16 17  2  0  0  0
 16 21  1  0  0  0
 16 31  1  0  0  0
 17 18  1  0  0  0
 17 98  1  0  0  0
 18 19  2  0  0  0
 18 99  1  0  0  0
 19 20  1  0  0  0
 19 24  1  0  0  0
 20 21  2  0  0  0
 20100  1  0  0  0
 21 23  1  0  0  0
 22 28  1  0  0  0
 22 32  2  0  0  0
 26 27  1  0  0  0
 28101  1  0  0  0
 28102  1  0  0  0
 29103  1  0  0  0
 29104  1  0  0  0
 33 34  1  0  0  0
 33 66  1  0  0  0
 33 70  2  0  0  0
 34 36  1  0  0  0
 34 59  1  0  0  0
 34105  1  0  0  0
 35 44  2  0  0  0
 35 45  1  0  0  0
 35 68  1  0  0  0
 36 56  1  0  0  0
 36106  1  0  0  0
 37 39  1  0  0  0
 37 47  1  0  0  0
 37 66  1  0  0  0
 37107  1  0  0  0
 38 43  2  0  0  0
 38 46  1  0  0  0
 38 47  1  0  0  0
 39 64  1  0  0  0
 39 67  2  0  0  0
 40 52  1  0  0  0
 40 53  2  0  0  0
 40 58  1  0  0  0
 41108  1  0  0  0
 41109  1  0  0  0
 41110  1  0  0  0
 41 48  1  0  0  0
 42 43  1  0  0  0
 42 66  1  0  0  0
 42111  1  0  0  0
 42112  1  0  0  0
 43 44  1  0  0  0
 44113  1  0  0  0
 45 46  2  0  0  0
 45114  1  0  0  0
 46115  1  0  0  0
 47116  1  0  0  0
 47117  1  0  0  0
 48 56  1  0  0  0
 48 65  1  0  0  0
 48118  1  0  0  0
 49 50  1  0  0  0
 49 53  1  0  0  0
 49 64  1  0  0  0
 49119  1  0  0  0
 50 51  1  0  0  0
 50120  1  0  0  0
 50121  1  0  0  0
 51 52  1  0  0  0
 51122  1  0  0  0
 51123  1  0  0  0
 52124  1  0  0  0
 52125  1  0  0  0
 53 54  1  0  0  0
 54 55  2  0  0  0
 54126  1  0  0  0
 55 57  1  0  0  0
 55127  1  0  0  0
 56 69  2  0  0  0
 57 58  2  0  0  0
 57128  1  0  0  0
 58129  1  0  0  0
 59 60  1  0  0  0
 59 61  1  0  0  0
 59 62  1  0  0  0
 60130  1  0  0  0
 60131  1  0  0  0
 60132  1  0  0  0
 61133  1  0  0  0
 61134  1  0  0  0
 61135  1  0  0  0
 62136  1  0  0  0
 62137  1  0  0  0
 62138  1  0  0  0
 63 65  1  0  0  0
 63139  1  0  0  0
 63140  1  0  0  0
 63141  1  0  0  0
 64142  1  0  0  0
 65143  1  0  0  0
 68 82  1  0  0  0
 71 72  2  0  0  0
 71 74  1  0  0  0
 71144  1  0  0  0
 72 76  1  0  0  0
 72145  1  0  0  0
 73 75  1  0  0  0
 73 76  2  0  0  0
 73146  1  0  0  0
 74 75  2  0  0  0
 74 82  1  0  0  0
 75 81  1  0  0  0
 76 83  1  0  0  0
 77 79  1  0  0  0
 77 83  1  0  0  0
 77147  1  0  0  0
 77148  1  0  0  0
 78 80  1  0  0  0
 78 83  1  0  0  0
 78149  1  0  0  0
 78150  1  0  0  0
 79 84  1  0  0  0
 79151  1  0  0  0
 79152  1  0  0  0
 80 84  1  0  0  0
 80153  1  0  0  0
 80154  1  0  0  0
 81155  1  0  0  0
 81156  1  0  0  0
 81157  1  0  0  0
 82158  1  0  0  0
 82159  1  0  0  0
M  ISO  4   1 100  68 101  82 101  84 100
M  END
> <chiral flag>
0

> <version>
0

> <s_m_source_file>
/data/baiqing/PycharmProjects/Reinvent-master-3.2/result/LINK_invent/BTK/process_docking_weight1_custom_sum_contain_oxygen_bond_distance_aromatic_linkinvent_7_9_3/rearranged_h_0137.sdf

> <i_m_source_file_index>
5

> <r_mmod_Potential_Energy-OPLS-2005>
450.009979248047

> <r_mmod_Stretch_Energy-OPLS-2005>
126.591522216797

> <r_mmod_Bend_Energy-OPLS-2005>
237.88151550293

> <r_mmod_Torsional_Energy-OPLS-2005>
343.948303222656

> <r_mmod_Improper_Torsional_Energy-OPLS-2005>
9.147780418396

> <r_mmod_Van_der_Waal_Energy-OPLS-2005>
163.043121337891

> <r_mmod_Electrostatic_Energy-OPLS-2005>
-316.20703125

> <r_mmod_Solvation_Energy-OPLS-2005>
-223.938735961914

> <b_mmod_Minimization_Converged-OPLS-2005>
0

> <r_mmod_RMS_Derivative-OPLS-2005>
2.5846061706543

$$$$
5
                    3D
 Structure written by MMmdl.
157165  0  0  1  0            999 V2000
  -30.4065  -15.3308   20.3732 C   0  0  0  0  0  0
  -30.4425  -12.8655   19.4961 C   0  0  0  0  0  0
  -29.5313  -12.5812   18.2743 C   0  0  0  0  0  0
  -28.0841  -12.2933   18.7162 C   0  0  0  0  0  0
  -27.6039  -13.2780   19.8102 C   0  0  2  0  0  0
  -28.6463  -13.4874   20.9277 C   0  0  0  0  0  0
  -25.2368  -13.8242   20.5769 C   0  0  0  0  0  0
  -24.1729  -13.0423   20.9258 C   0  0  0  0  0  0
  -24.6391  -11.6918   20.8749 C   0  0  0  0  0  0
  -23.9085  -10.4275   21.0385 C   0  0  0  0  0  0
  -24.3617   -9.4193   21.9176 C   0  0  0  0  0  0
  -23.6283   -8.2236   22.0754 C   0  0  0  0  0  0
  -22.4274   -8.0261   21.3534 C   0  0  0  0  0  0
  -21.9910   -9.0242   20.4643 C   0  0  0  0  0  0
  -22.7246  -10.2116   20.3044 C   0  0  0  0  0  0
  -21.6851   -6.0708   22.5266 C   0  0  0  0  0  0
  -21.4025   -6.5621   23.8201 C   0  0  0  0  0  0
  -21.3667   -5.6778   24.9167 C   0  0  0  0  0  0
  -21.6046   -4.3042   24.7224 C   0  0  0  0  0  0
  -21.8821   -3.8126   23.4354 C   0  0  0  0  0  0
  -21.9194   -4.6935   22.3401 C   0  0  0  0  0  0
  -22.7745  -13.5165   21.1916 C   0  0  0  0  0  0
  -22.1657   -4.2113   21.0984 F   0  0  0  0  0  0
  -21.5625   -3.4539   25.7752 F   0  0  0  0  0  0
  -29.8519  -14.0188   20.2692 N   0  0  0  0  0  0
  -26.2794  -12.9528   20.3210 N   0  0  0  0  0  0
  -25.9332  -11.6628   20.5712 N   0  0  0  0  0  0
  -22.0409  -12.8141   22.0470 N   0  0  0  0  0  0
  -25.3987  -15.1994   20.4268 N   0  0  0  0  0  0
  -31.6456  -15.3168   20.3014 O   0  0  0  0  0  0
  -21.6641   -6.8849   21.4231 O   0  0  0  0  0  0
  -22.3417  -14.5457   20.6746 O   0  0  0  0  0  0
  -24.6683  -31.8194   23.1666 C   0  0  0  0  0  0
  -25.9344  -32.4546   23.8141 C   0  0  1  0  0  0
  -27.2194  -26.8907   20.1987 C   0  0  0  0  0  0
  -25.5997  -33.8375   24.2036 N   0  0  0  0  0  0
  -23.4829  -30.4268   21.5207 C   0  0  2  0  0  0
  -24.9355  -28.8033   20.1191 C   0  0  0  0  0  0
  -22.7691  -29.4397   22.4810 C   0  0  0  0  0  0
  -18.0320  -28.1404   22.8434 C   0  0  0  0  0  0
  -24.1493  -36.7216   23.2649 C   0  0  0  0  0  0
  -26.0553  -30.6145   21.4006 C   0  0  0  0  0  0
  -26.1210  -29.1985   20.7496 C   0  0  0  0  0  0
  -27.2580  -28.2654   20.7590 C   0  0  0  0  0  0
  -26.0015  -26.6523   19.5221 C   0  0  0  0  0  0
  -24.9009  -27.5496   19.4859 C   0  0  0  0  0  0
  -23.7242  -29.7382   20.1488 C   0  0  0  0  0  0
  -25.4125  -36.2955   24.0301 C   0  0  1  0  0  0
  -20.5953  -28.3738   23.1196 C   0  0  2  0  0  0
  -20.6805  -26.9421   22.5404 C   0  0  0  0  0  0
  -19.5787  -26.6362   21.5212 C   0  0  0  0  0  0
  -18.1955  -26.7924   22.1604 C   0  0  0  0  0  0
  -19.1585  -28.8894   23.2782 C   0  0  0  0  0  0
  -18.9493  -30.1482   23.8812 C   0  0  0  0  0  0
  -17.6489  -30.6583   24.0539 C   0  0  0  0  0  0
  -25.9112  -34.9341   23.4983 C   0  0  0  0  0  0
  -16.5375  -29.9066   23.6341 C   0  0  0  0  0  0
  -16.7301  -28.6507   23.0326 C   0  0  0  0  0  0
  -26.4563  -31.6513   25.0689 C   0  0  0  0  0  0
  -25.3666  -31.3807   26.1334 C   0  0  0  0  0  0
  -27.0467  -30.2878   24.6450 C   0  0  0  0  0  0
  -27.6034  -32.4350   25.7495 C   0  0  0  0  0  0
  -27.5567  -37.1750   24.8454 C   0  0  0  0  0  0
  -21.4368  -29.3025   22.3559 N   0  0  0  0  0  0
  -26.4262  -37.3694   23.9425 N   0  0  0  0  0  0
  -24.7578  -30.9812   22.0826 N   0  0  0  0  0  0
  -23.4222  -28.7974   23.3064 O   0  0  0  0  0  0
  -28.2400  -25.7905   20.2114 O   0  0  0  0  0  0
  -26.5724  -34.8877   22.4585 O   0  0  0  0  0  0
  -23.5737  -32.1195   23.6725 O   0  0  0  0  0  0
  -29.2577  -19.5348   19.9718 C   0  0  0  0  0  0
  -29.1601  -20.8503   21.9936 C   0  0  0  0  0  0
  -29.6415  -18.3725   22.0509 C   0  0  0  0  0  0
  -29.0548  -20.9525   20.5893 C   0  0  0  0  0  0
  -29.5766  -18.1695   20.6536 C   0  0  0  0  0  0
  -29.4118  -19.6302   22.6844 C   0  0  0  0  0  0
  -28.8875  -22.6006   19.9600 C   0  0  0  0  0  0
  -28.1835  -19.9911   26.0964 C   0  0  0  0  0  0
  -28.0538  -24.1496   20.4713 C   0  0  0  0  0  0
  -28.1178  -19.5705   24.6231 C   0  0  0  0  0  0
  -29.6307  -16.6011   20.1910 N   0  0  0  0  0  0
  -28.7129  -21.3619   26.2517 N   0  3  0  0  0  0
  -29.4224  -19.6646   24.0545 O   0  0  0  0  0  0
  -31.4460  -13.1059   19.1432 H   0  0  0  0  0  0
  -30.5515  -11.9793   20.1243 H   0  0  0  0  0  0
  -29.9198  -11.7467   17.6892 H   0  0  0  0  0  0
  -29.5405  -13.4493   17.6138 H   0  0  0  0  0  0
  -28.0501  -11.2730   19.1024 H   0  0  0  0  0  0
  -27.4117  -12.3162   17.8565 H   0  0  0  0  0  0
  -27.5008  -14.2342   19.2960 H   0  0  0  0  0  0
  -28.8446  -12.5656   21.4769 H   0  0  0  0  0  0
  -28.2807  -14.2139   21.6548 H   0  0  0  0  0  0
  -25.2756   -9.5665   22.4757 H   0  0  0  0  0  0
  -23.9964   -7.4638   22.7496 H   0  0  0  0  0  0
  -21.0821   -8.8772   19.8971 H   0  0  0  0  0  0
  -22.3690  -10.9651   19.6151 H   0  0  0  0  0  0
  -21.2028   -7.6133   23.9687 H   0  0  0  0  0  0
  -21.1487   -6.0520   25.9061 H   0  0  0  0  0  0
  -22.0597   -2.7585   23.2878 H   0  0  0  0  0  0
  -22.4029  -11.9802   22.4848 H   0  0  0  0  0  0
  -21.1033  -13.1153   22.2699 H   0  0  0  0  0  0
  -24.6297  -15.8475   20.5557 H   0  0  0  0  0  0
  -26.2499  -15.6538   20.1256 H   0  0  0  0  0  0
  -26.7412  -32.5069   23.0862 H   0  0  0  0  0  0
  -25.0096  -33.9439   25.0151 H   0  0  0  0  0  0
  -22.7958  -31.2570   21.3450 H   0  0  0  0  0  0
  -23.3756  -35.9539   23.3258 H   0  0  0  0  0  0
  -24.3587  -36.8927   22.2069 H   0  0  0  0  0  0
  -23.7241  -37.6389   23.6748 H   0  0  0  0  0  0
  -26.2284  -31.3494   20.6142 H   0  0  0  0  0  0
  -26.9174  -30.6801   22.0521 H   0  0  0  0  0  0
  -28.1606  -28.5723   21.2712 H   0  0  0  0  0  0
  -25.8745  -25.6998   19.0267 H   0  0  0  0  0  0
  -24.0000  -27.2375   18.9750 H   0  0  0  0  0  0
  -23.8887  -30.5068   19.3927 H   0  0  0  0  0  0
  -22.8323  -29.1979   19.8268 H   0  0  0  0  0  0
  -25.1311  -36.1747   25.0785 H   0  0  0  0  0  0
  -20.9983  -28.3347   24.1344 H   0  0  0  0  0  0
  -20.5707  -26.2353   23.3643 H   0  0  0  0  0  0
  -21.6667  -26.7411   22.1198 H   0  0  0  0  0  0
  -19.6974  -25.6260   21.1278 H   0  0  0  0  0  0
  -19.6748  -27.3132   20.6709 H   0  0  0  0  0  0
  -17.4231  -26.6646   21.3996 H   0  0  0  0  0  0
  -18.0347  -26.0078   22.9008 H   0  0  0  0  0  0
  -19.7982  -30.7312   24.2140 H   0  0  0  0  0  0
  -17.5049  -31.6259   24.5161 H   0  0  0  0  0  0
  -15.5373  -30.2940   23.7737 H   0  0  0  0  0  0
  -15.8695  -28.0826   22.7049 H   0  0  0  0  0  0
  -24.5857  -30.7143   25.7660 H   0  0  0  0  0  0
  -24.8838  -32.3032   26.4588 H   0  0  0  0  0  0
  -25.7864  -30.9088   27.0232 H   0  0  0  0  0  0
  -26.3149  -29.6536   24.1444 H   0  0  0  0  0  0
  -27.3982  -29.7256   25.5117 H   0  0  0  0  0  0
  -27.9086  -30.4044   23.9875 H   0  0  0  0  0  0
  -27.2582  -33.3712   26.1900 H   0  0  0  0  0  0
  -28.3926  -32.6840   25.0380 H   0  0  0  0  0  0
  -28.0619  -31.8613   26.5561 H   0  0  0  0  0  0
  -28.2513  -38.0108   24.7537 H   0  0  0  0  0  0
  -28.1129  -36.2643   24.6212 H   0  0  0  0  0  0
  -27.2316  -37.1301   25.8860 H   0  0  0  0  0  0
  -20.9649  -29.8720   21.6668 H   0  0  0  0  0  0
  -26.0111  -38.2747   24.1459 H   0  0  0  0  0  0
  -29.1682  -19.4942   18.8955 H   0  0  0  0  0  0
  -29.0572  -21.7559   22.5744 H   0  0  0  0  0  0
  -29.8116  -17.5164   22.6881 H   0  0  0  0  0  0
  -28.6115  -22.4537   18.9164 H   0  0  0  0  0  0
  -29.9325  -22.9127   19.9051 H   0  0  0  0  0  0
  -28.8096  -19.2979   26.6605 H   0  0  0  0  0  0
  -27.1856  -19.9430   26.5352 H   0  0  0  0  0  0
  -28.1291  -24.1224   21.5583 H   0  0  0  0  0  0
  -26.9955  -23.9667   20.2866 H   0  0  0  0  0  0
  -27.3976  -20.1952   24.0905 H   0  0  0  0  0  0
  -27.7643  -18.5411   24.5451 H   0  0  0  0  0  0
  -28.7595  -16.3478   19.7480 H   0  0  0  0  0  0
  -29.6531  -21.4111   25.8955 H   0  0  0  0  0  0
  -28.7296  -21.6227   27.2226 H   0  0  0  0  0  0
  -28.1498  -22.0333   25.7602 H   0  0  0  0  0  0
  1 25  1  0  0  0
  1 30  2  0  0  0
  1 81  1  0  0  0
  2  3  1  0  0  0
  2 25  1  0  0  0
  2 84  1  0  0  0
  2 85  1  0  0  0
  3  4  1  0  0  0
  3 86  1  0  0  0
  3 87  1  0  0  0
  4  5  1  0  0  0
  4 88  1  0  0  0
  4 89  1  0  0  0
  5  6  1  0  0  0
  5 26  1  0  0  0
  5 90  1  0  0  0
  6 25  1  0  0  0
  6 91  1  0  0  0
  6 92  1  0  0  0
  7  8  2  0  0  0
  7 26  1  0  0  0
  7 29  1  0  0  0
  8  9  1  0  0  0
  8 22  1  0  0  0
  9 10  1  0  0  0
  9 27  2  0  0  0
 10 11  2  0  0  0
 10 15  1  0  0  0
 11 12  1  0  0  0
 11 93  1  0  0  0
 12 13  2  0  0  0
 12 94  1  0  0  0
 13 14  1  0  0  0
 13 31  1  0  0  0
 14 15  2  0  0  0
 14 95  1  0  0  0
 15 96  1  0  0  0
 16 17  2  0  0  0
 16 21  1  0  0  0
 16 31  1  0  0  0
 17 18  1  0  0  0
 17 97  1  0  0  0
 18 19  2  0  0  0
 18 98  1  0  0  0
 19 20  1  0  0  0
 19 24  1  0  0  0
 20 21  2  0  0  0
 20 99  1  0  0  0
 21 23  1  0  0  0
 22 28  1  0  0  0
 22 32  2  0  0  0
 26 27  1  0  0  0
 28100  1  0  0  0
 28101  1  0  0  0
 29102  1  0  0  0
 29103  1  0  0  0
 33 34  1  0  0  0
 33 66  1  0  0  0
 33 70  2  0  0  0
 34 36  1  0  0  0
 34 59  1  0  0  0
 34104  1  0  0  0
 35 44  2  0  0  0
 35 45  1  0  0  0
 35 68  1  0  0  0
 36 56  1  0  0  0
 36105  1  0  0  0
 37 39  1  0  0  0
 37 47  1  0  0  0
 37 66  1  0  0  0
 37106  1  0  0  0
 38 43  2  0  0  0
 38 46  1  0  0  0
 38 47  1  0  0  0
 39 64  1  0  0  0
 39 67  2  0  0  0
 40 52  1  0  0  0
 40 53  2  0  0  0
 40 58  1  0  0  0
 41107  1  0  0  0
 41108  1  0  0  0
 41109  1  0  0  0
 41 48  1  0  0  0
 42 43  1  0  0  0
 42 66  1  0  0  0
 42110  1  0  0  0
 42111  1  0  0  0
 43 44  1  0  0  0
 44112  1  0  0  0
 45 46  2  0  0  0
 45113  1  0  0  0
 46114  1  0  0  0
 47115  1  0  0  0
 47116  1  0  0  0
 48 56  1  0  0  0
 48 65  1  0  0  0
 48117  1  0  0  0
 49 50  1  0  0  0
 49 53  1  0  0  0
 49 64  1  0  0  0
 49118  1  0  0  0
 50 51  1  0  0  0
 50119  1  0  0  0
 50120  1  0  0  0
 51 52  1  0  0  0
 51121  1  0  0  0
 51122  1  0  0  0
 52123  1  0  0  0
 52124  1  0  0  0
 53 54  1  0  0  0
 54 55  2  0  0  0
 54125  1  0  0  0
 55 57  1  0  0  0
 55126  1  0  0  0
 56 69  2  0  0  0
 57 58  2  0  0  0
 57127  1  0  0  0
 58128  1  0  0  0
 59 60  1  0  0  0
 59 61  1  0  0  0
 59 62  1  0  0  0
 60129  1  0  0  0
 60130  1  0  0  0
 60131  1  0  0  0
 61132  1  0  0  0
 61133  1  0  0  0
 61134  1  0  0  0
 62135  1  0  0  0
 62136  1  0  0  0
 62137  1  0  0  0
 63 65  1  0  0  0
 63138  1  0  0  0
 63139  1  0  0  0
 63140  1  0  0  0
 64141  1  0  0  0
 65142  1  0  0  0
 68 79  1  0  0  0
 71 74  2  0  0  0
 71 75  1  0  0  0
 71143  1  0  0  0
 72 74  1  0  0  0
 72 76  2  0  0  0
 72144  1  0  0  0
 73 75  2  0  0  0
 73 76  1  0  0  0
 73145  1  0  0  0
 74 77  1  0  0  0
 75 81  1  0  0  0
 76 83  1  0  0  0
 77 79  1  0  0  0
 77146  1  0  0  0
 77147  1  0  0  0
 78 80  1  0  0  0
 78 82  1  0  0  0
 78148  1  0  0  0
 78149  1  0  0  0
 79150  1  0  0  0
 79151  1  0  0  0
 80 83  1  0  0  0
 80152  1  0  0  0
 80153  1  0  0  0
 81154  1  0  0  0
 82155  1  0  0  0
 82156  1  0  0  0
 82157  1  0  0  0
M  CHG  1  82   1
M  ISO  4   1 100  68 101  79 101  81 100
M  END
> <chiral flag>
0

> <version>
0

> <s_m_source_file>
/data/baiqing/PycharmProjects/Reinvent-master-3.2/result/LINK_invent/BTK/process_docking_weight1_custom_sum_contain_oxygen_bond_distance_aromatic_linkinvent_7_9_3/rearranged_h_0137.sdf

> <i_m_source_file_index>
6

> <r_mmod_Potential_Energy-OPLS-2005>
1277.232421875

> <r_mmod_Stretch_Energy-OPLS-2005>
645.759887695312

> <r_mmod_Bend_Energy-OPLS-2005>
447.292388916016

> <r_mmod_Torsional_Energy-OPLS-2005>
304.979400634766

> <r_mmod_Improper_Torsional_Energy-OPLS-2005>
12.2087984085083

> <r_mmod_Van_der_Waal_Energy-OPLS-2005>
119.55339050293

> <r_mmod_Electrostatic_Energy-OPLS-2005>
-278.743682861328

> <r_mmod_Solvation_Energy-OPLS-2005>
-498.497009277344

> <b_mmod_Minimization_Converged-OPLS-2005>
0

> <r_mmod_RMS_Derivative-OPLS-2005>
2.98709273338318

$$$$
6
                    3D
 Structure written by MMmdl.
154163  0  0  1  0            999 V2000
  -30.6133  -14.7055   20.4717 C   0  0  0  0  0  0
  -30.4245  -12.4303   19.4606 C   0  0  0  0  0  0
  -29.4983  -12.5107   18.2255 C   0  0  0  0  0  0
  -28.0262  -12.3335   18.6425 C   0  0  0  0  0  0
  -27.6411  -13.2277   19.8496 C   0  0  2  0  0  0
  -28.6858  -13.1360   20.9861 C   0  0  0  0  0  0
  -25.2538  -13.8192   20.5756 C   0  0  0  0  0  0
  -24.1825  -13.0429   20.9217 C   0  0  0  0  0  0
  -24.6394  -11.6902   20.8731 C   0  0  0  0  0  0
  -23.9056  -10.4287   21.0395 C   0  0  0  0  0  0
  -24.3615   -9.4213   21.9179 C   0  0  0  0  0  0
  -23.6309   -8.2238   22.0745 C   0  0  0  0  0  0
  -22.4287   -8.0278   21.3545 C   0  0  0  0  0  0
  -21.9912   -9.0241   20.4629 C   0  0  0  0  0  0
  -22.7234  -10.2120   20.3048 C   0  0  0  0  0  0
  -21.6852   -6.0744   22.5294 C   0  0  0  0  0  0
  -21.4022   -6.5655   23.8225 C   0  0  0  0  0  0
  -21.3655   -5.6809   24.9188 C   0  0  0  0  0  0
  -21.6037   -4.3068   24.7240 C   0  0  0  0  0  0
  -21.8814   -3.8162   23.4357 C   0  0  0  0  0  0
  -21.9199   -4.6977   22.3420 C   0  0  0  0  0  0
  -22.7852  -13.5224   21.1891 C   0  0  0  0  0  0
  -22.1673   -4.2172   21.0991 F   0  0  0  0  0  0
  -21.5609   -3.4552   25.7739 F   0  0  0  0  0  0
  -29.9965  -13.4755   20.4163 N   0  0  0  0  0  0
  -26.2932  -12.9388   20.3261 N   0  0  0  0  0  0
  -25.9323  -11.6526   20.5717 N   0  0  0  0  0  0
  -22.0491  -12.8191   22.0408 N   0  0  0  0  0  0
  -25.4220  -15.1931   20.4281 N   0  0  0  0  0  0
  -31.7877  -14.8174   20.1022 O   0  0  0  0  0  0
  -21.6651   -6.8885   21.4246 O   0  0  0  0  0  0
  -22.3534  -14.5537   20.6749 O   0  0  0  0  0  0
  -24.6258  -31.8633   23.1997 C   0  0  0  0  0  0
  -25.9109  -32.4814   23.8320 C   0  0  1  0  0  0
  -27.2157  -27.3097   20.1273 C   0  0  0  0  0  0
  -25.5938  -33.8600   24.2288 N   0  0  0  0  0  0
  -23.4182  -30.4835   21.5462 C   0  0  2  0  0  0
  -24.8653  -28.9401   20.1125 C   0  0  0  0  0  0
  -22.7487  -29.4596   22.4942 C   0  0  0  0  0  0
  -18.0298  -28.1312   22.8453 C   0  0  0  0  0  0
  -24.1513  -36.7290   23.2640 C   0  0  0  0  0  0
  -25.9596  -30.7926   21.3701 C   0  0  0  0  0  0
  -26.0361  -29.4192   20.7141 C   0  0  0  0  0  0
  -27.2178  -28.6181   20.7042 C   0  0  0  0  0  0
  -26.0287  -26.8944   19.4862 C   0  0  0  0  0  0
  -24.8676  -27.6868   19.4831 C   0  0  0  0  0  0
  -23.6330  -29.8200   20.1632 C   0  0  0  0  0  0
  -25.4130  -36.3117   24.0354 C   0  0  1  0  0  0
  -20.5903  -28.3621   23.1285 C   0  0  2  0  0  0
  -20.6792  -26.9353   22.5401 C   0  0  0  0  0  0
  -19.5778  -26.6325   21.5189 C   0  0  0  0  0  0
  -18.1942  -26.7852   22.1588 C   0  0  0  0  0  0
  -19.1546  -28.8776   23.2863 C   0  0  0  0  0  0
  -18.9483  -30.1357   23.8897 C   0  0  0  0  0  0
  -17.6502  -30.6531   24.0504 C   0  0  0  0  0  0
  -25.9065  -34.9491   23.5132 C   0  0  0  0  0  0
  -16.5373  -29.9001   23.6320 C   0  0  0  0  0  0
  -16.7285  -28.6415   23.0340 C   0  0  0  0  0  0
  -26.4477  -31.6581   25.0662 C   0  0  0  0  0  0
  -25.3645  -31.3731   26.1345 C   0  0  0  0  0  0
  -27.0307  -30.3036   24.6026 C   0  0  0  0  0  0
  -27.6063  -32.4269   25.7444 C   0  0  0  0  0  0
  -27.5613  -37.1790   24.8470 C   0  0  0  0  0  0
  -21.4193  -29.3006   22.3698 N   0  0  0  0  0  0
  -26.4325  -37.3792   23.9432 N   0  0  0  0  0  0
  -24.6870  -31.0621   22.0973 N   0  0  0  0  0  0
  -23.4232  -28.8140   23.2994 O   0  0  0  0  0  0
  -28.3217  -26.4444   20.1648 O   0  0  0  0  0  0
  -26.5610  -34.8938   22.4675 O   0  0  0  0  0  0
  -23.5425  -32.1437   23.7326 O   0  0  0  0  0  0
  -28.9437  -18.1166   21.1091 C   0  0  0  0  0  0
  -31.0011  -19.1813   19.6882 C   0  0  0  0  0  0
  -30.0435  -20.1076   20.1758 C   0  0  0  0  0  0
  -28.9872  -19.5406   20.9085 C   0  0  0  0  0  0
  -29.9539  -17.2422   20.5915 C   0  0  0  0  0  0
  -30.1674  -21.6291   19.9695 C   0  0  0  0  0  0
  -27.9462  -20.5032   21.4772 C   0  0  0  0  0  0
  -27.8327  -21.8551   20.6949 C   0  0  0  0  0  0
  -29.2330  -23.9716   20.0462 C   0  0  0  0  0  0
  -28.0970  -25.0041   20.4861 C   0  0  0  0  0  0
  -30.9587  -17.8256   19.8845 N   0  0  0  0  0  0
  -29.1203  -22.4641   20.2910 N   0  0  0  0  0  0
  -29.8282  -15.7899   20.8174 N   0  0  0  0  0  0
  -31.2199  -22.0785   19.5038 O   0  0  0  0  0  0
  -31.4663  -12.5431   19.1580 H   0  0  0  0  0  0
  -30.3548  -11.4457   19.9240 H   0  0  0  0  0  0
  -29.7715  -11.7501   17.4917 H   0  0  0  0  0  0
  -29.6242  -13.4725   17.7281 H   0  0  0  0  0  0
  -27.8802  -11.2832   18.8993 H   0  0  0  0  0  0
  -27.3663  -12.5339   17.7977 H   0  0  0  0  0  0
  -27.6392  -14.2508   19.4722 H   0  0  0  0  0  0
  -28.7081  -12.1344   21.4182 H   0  0  0  0  0  0
  -28.4230  -13.8109   21.8021 H   0  0  0  0  0  0
  -25.2745   -9.5726   22.4760 H   0  0  0  0  0  0
  -24.0032   -7.4646   22.7475 H   0  0  0  0  0  0
  -21.0844   -8.8752   19.8945 H   0  0  0  0  0  0
  -22.3683  -10.9665   19.6167 H   0  0  0  0  0  0
  -21.2021   -7.6162   23.9745 H   0  0  0  0  0  0
  -21.1475   -6.0532   25.9091 H   0  0  0  0  0  0
  -22.0588   -2.7624   23.2856 H   0  0  0  0  0  0
  -22.4122  -11.9829   22.4760 H   0  0  0  0  0  0
  -21.1105  -13.1192   22.2626 H   0  0  0  0  0  0
  -24.6478  -15.8360   20.5597 H   0  0  0  0  0  0
  -26.2635  -15.6472   20.0964 H   0  0  0  0  0  0
  -26.7166  -32.5522   23.1059 H   0  0  0  0  0  0
  -25.0142  -33.9748   25.0478 H   0  0  0  0  0  0
  -22.7093  -31.3023   21.4037 H   0  0  0  0  0  0
  -23.3824  -35.9571   23.3270 H   0  0  0  0  0  0
  -24.3646  -36.8917   22.2063 H   0  0  0  0  0  0
  -23.7194  -37.6458   23.6658 H   0  0  0  0  0  0
  -26.0865  -31.5549   20.5988 H   0  0  0  0  0  0
  -26.8450  -30.8497   21.9925 H   0  0  0  0  0  0
  -28.1179  -28.9836   21.1791 H   0  0  0  0  0  0
  -25.9746  -25.9473   18.9743 H   0  0  0  0  0  0
  -23.9783  -27.3173   18.9893 H   0  0  0  0  0  0
  -23.7410  -30.5987   19.4080 H   0  0  0  0  0  0
  -22.7552  -29.2470   19.8620 H   0  0  0  0  0  0
  -25.1288  -36.2011   25.0848 H   0  0  0  0  0  0
  -20.9977  -28.3178   24.1405 H   0  0  0  0  0  0
  -20.5698  -26.2195   23.3577 H   0  0  0  0  0  0
  -21.6641  -26.7352   22.1196 H   0  0  0  0  0  0
  -19.6965  -25.6242   21.1196 H   0  0  0  0  0  0
  -19.6767  -27.3123   20.6718 H   0  0  0  0  0  0
  -17.4224  -26.6622   21.3978 H   0  0  0  0  0  0
  -18.0339  -25.9952   22.8957 H   0  0  0  0  0  0
  -19.7964  -30.7128   24.2326 H   0  0  0  0  0  0
  -17.5048  -31.6244   24.5022 H   0  0  0  0  0  0
  -15.5382  -30.2892   23.7621 H   0  0  0  0  0  0
  -15.8686  -28.0710   22.7087 H   0  0  0  0  0  0
  -24.5921  -30.6970   25.7650 H   0  0  0  0  0  0
  -24.8691  -32.2883   26.4602 H   0  0  0  0  0  0
  -25.7889  -30.9053   27.0235 H   0  0  0  0  0  0
  -26.2842  -29.6808   24.1070 H   0  0  0  0  0  0
  -27.4131  -29.7257   25.4456 H   0  0  0  0  0  0
  -27.8664  -30.4413   23.9148 H   0  0  0  0  0  0
  -27.2750  -33.3643   26.1923 H   0  0  0  0  0  0
  -28.3917  -32.6678   25.0254 H   0  0  0  0  0  0
  -28.0642  -31.8398   26.5418 H   0  0  0  0  0  0
  -28.2577  -38.0128   24.7560 H   0  0  0  0  0  0
  -28.1158  -36.2669   24.6251 H   0  0  0  0  0  0
  -27.2336  -37.1347   25.8862 H   0  0  0  0  0  0
  -20.9359  -29.8757   21.6956 H   0  0  0  0  0  0
  -26.0252  -38.2895   24.1385 H   0  0  0  0  0  0
  -28.1204  -17.6978   21.6738 H   0  0  0  0  0  0
  -31.8499  -19.5243   19.1141 H   0  0  0  0  0  0
  -28.2278  -20.7123   22.5114 H   0  0  0  0  0  0
  -26.9713  -20.0131   21.5107 H   0  0  0  0  0  0
  -27.2289  -22.5575   21.2675 H   0  0  0  0  0  0
  -27.2834  -21.6634   19.7711 H   0  0  0  0  0  0
  -30.1705  -24.3138   20.4887 H   0  0  0  0  0  0
  -29.3678  -24.1016   18.9699 H   0  0  0  0  0  0
  -27.9765  -24.9432   21.5703 H   0  0  0  0  0  0
  -27.1548  -24.6397   20.0825 H   0  0  0  0  0  0
  -28.9437  -15.5139   21.2121 H   0  0  0  0  0  0
  1 25  1  0  0  0
  1 30  2  0  0  0
  1 83  1  0  0  0
  2  3  1  0  0  0
  2 25  1  0  0  0
  2 85  1  0  0  0
  2 86  1  0  0  0
  3  4  1  0  0  0
  3 87  1  0  0  0
  3 88  1  0  0  0
  4  5  1  0  0  0
  4 89  1  0  0  0
  4 90  1  0  0  0
  5  6  1  0  0  0
  5 26  1  0  0  0
  5 91  1  0  0  0
  6 25  1  0  0  0
  6 92  1  0  0  0
  6 93  1  0  0  0
  7  8  2  0  0  0
  7 26  1  0  0  0
  7 29  1  0  0  0
  8  9  1  0  0  0
  8 22  1  0  0  0
  9 10  1  0  0  0
  9 27  2  0  0  0
 10 11  2  0  0  0
 10 15  1  0  0  0
 11 12  1  0  0  0
 11 94  1  0  0  0
 12 13  2  0  0  0
 12 95  1  0  0  0
 13 14  1  0  0  0
 13 31  1  0  0  0
 14 15  2  0  0  0
 14 96  1  0  0  0
 15 97  1  0  0  0
 16 17  2  0  0  0
 16 21  1  0  0  0
 16 31  1  0  0  0
 17 18  1  0  0  0
 17 98  1  0  0  0
 18 19  2  0  0  0
 18 99  1  0  0  0
 19 20  1  0  0  0
 19 24  1  0  0  0
 20 21  2  0  0  0
 20100  1  0  0  0
 21 23  1  0  0  0
 22 28  1  0  0  0
 22 32  2  0  0  0
 26 27  1  0  0  0
 28101  1  0  0  0
 28102  1  0  0  0
 29103  1  0  0  0
 29104  1  0  0  0
 33 34  1  0  0  0
 33 66  1  0  0  0
 33 70  2  0  0  0
 34 36  1  0  0  0
 34 59  1  0  0  0
 34105  1  0  0  0
 35 44  2  0  0  0
 35 45  1  0  0  0
 35 68  1  0  0  0
 36 56  1  0  0  0
 36106  1  0  0  0
 37 39  1  0  0  0
 37 47  1  0  0  0
 37 66  1  0  0  0
 37107  1  0  0  0
 38 43  2  0  0  0
 38 46  1  0  0  0
 38 47  1  0  0  0
 39 64  1  0  0  0
 39 67  2  0  0  0
 40 52  1  0  0  0
 40 53  2  0  0  0
 40 58  1  0  0  0
 41108  1  0  0  0
 41109  1  0  0  0
 41110  1  0  0  0
 41 48  1  0  0  0
 42 43  1  0  0  0
 42 66  1  0  0  0
 42111  1  0  0  0
 42112  1  0  0  0
 43 44  1  0  0  0
 44113  1  0  0  0
 45 46  2  0  0  0
 45114  1  0  0  0
 46115  1  0  0  0
 47116  1  0  0  0
 47117  1  0  0  0
 48 56  1  0  0  0
 48 65  1  0  0  0
 48118  1  0  0  0
 49 50  1  0  0  0
 49 53  1  0  0  0
 49 64  1  0  0  0
 49119  1  0  0  0
 50 51  1  0  0  0
 50120  1  0  0  0
 50121  1  0  0  0
 51 52  1  0  0  0
 51122  1  0  0  0
 51123  1  0  0  0
 52124  1  0  0  0
 52125  1  0  0  0
 53 54  1  0  0  0
 54 55  2  0  0  0
 54126  1  0  0  0
 55 57  1  0  0  0
 55127  1  0  0  0
 56 69  2  0  0  0
 57 58  2  0  0  0
 57128  1  0  0  0
 58129  1  0  0  0
 59 60  1  0  0  0
 59 61  1  0  0  0
 59 62  1  0  0  0
 60130  1  0  0  0
 60131  1  0  0  0
 60132  1  0  0  0
 61133  1  0  0  0
 61134  1  0  0  0
 61135  1  0  0  0
 62136  1  0  0  0
 62137  1  0  0  0
 62138  1  0  0  0
 63 65  1  0  0  0
 63139  1  0  0  0
 63140  1  0  0  0
 63141  1  0  0  0
 64142  1  0  0  0
 65143  1  0  0  0
 68 80  1  0  0  0
 71 74  2  0  0  0
 71 75  1  0  0  0
 71144  1  0  0  0
 72 73  2  0  0  0
 72 81  1  0  0  0
 72145  1  0  0  0
 73 74  1  0  0  0
 73 76  1  0  0  0
 74 77  1  0  0  0
 75 81  2  0  0  0
 75 83  1  0  0  0
 76 82  1  0  0  0
 76 84  2  0  0  0
 77 78  1  0  0  0
 77146  1  0  0  0
 77147  1  0  0  0
 78 82  1  0  0  0
 78148  1  0  0  0
 78149  1  0  0  0
 79 80  1  0  0  0
 79 82  1  0  0  0
 79150  1  0  0  0
 79151  1  0  0  0
 80152  1  0  0  0
 80153  1  0  0  0
 83154  1  0  0  0
M  ISO  4   1 100  68 101  80 101  83 100
M  END
> <chiral flag>
0

> <version>
0

> <s_m_source_file>
/data/baiqing/PycharmProjects/Reinvent-master-3.2/result/LINK_invent/BTK/process_docking_weight1_custom_sum_contain_oxygen_bond_distance_aromatic_linkinvent_7_9_3/rearranged_h_0137.sdf

> <i_m_source_file_index>
7

> <r_mmod_Potential_Energy-OPLS-2005>
-23.2980976104736

> <r_mmod_Stretch_Energy-OPLS-2005>
94.7837524414062

> <r_mmod_Bend_Energy-OPLS-2005>
145.618927001953

> <r_mmod_Torsional_Energy-OPLS-2005>
253.39616394043

> <r_mmod_Improper_Torsional_Energy-OPLS-2005>
3.45382165908813

> <r_mmod_Van_der_Waal_Energy-OPLS-2005>
157.576904296875

> <r_mmod_Electrostatic_Energy-OPLS-2005>
-471.873626708984

> <r_mmod_Solvation_Energy-OPLS-2005>
-269.451202392578

> <b_mmod_Minimization_Converged-OPLS-2005>
0

> <r_mmod_RMS_Derivative-OPLS-2005>
4.10568046569824

$$$$
7
                    3D
 Structure written by MMmdl.
162170  0  0  1  0            999 V2000
  -30.6144  -14.6984   20.4677 C   0  0  0  0  0  0
  -30.4289  -12.4224   19.4715 C   0  0  0  0  0  0
  -29.5083  -12.5041   18.2332 C   0  0  0  0  0  0
  -28.0309  -12.3411   18.6421 C   0  0  0  0  0  0
  -27.6436  -13.2282   19.8551 C   0  0  2  0  0  0
  -28.6860  -13.1293   20.9909 C   0  0  0  0  0  0
  -25.2505  -13.8193   20.5691 C   0  0  0  0  0  0
  -24.1793  -13.0441   20.9213 C   0  0  0  0  0  0
  -24.6379  -11.6919   20.8745 C   0  0  0  0  0  0
  -23.9054  -10.4293   21.0410 C   0  0  0  0  0  0
  -24.3609   -9.4205   21.9183 C   0  0  0  0  0  0
  -23.6287   -8.2239   22.0749 C   0  0  0  0  0  0
  -22.4271   -8.0274   21.3540 C   0  0  0  0  0  0
  -21.9903   -9.0249   20.4645 C   0  0  0  0  0  0
  -22.7227  -10.2129   20.3055 C   0  0  0  0  0  0
  -21.6851   -6.0729   22.5278 C   0  0  0  0  0  0
  -21.4013   -6.5634   23.8211 C   0  0  0  0  0  0
  -21.3662   -5.6789   24.9176 C   0  0  0  0  0  0
  -21.6043   -4.3050   24.7231 C   0  0  0  0  0  0
  -21.8820   -3.8139   23.4352 C   0  0  0  0  0  0
  -21.9191   -4.6955   22.3406 C   0  0  0  0  0  0
  -22.7812  -13.5219   21.1884 C   0  0  0  0  0  0
  -22.1657   -4.2142   21.0985 F   0  0  0  0  0  0
  -21.5635   -3.4534   25.7744 F   0  0  0  0  0  0
  -29.9952  -13.4725   20.4215 N   0  0  0  0  0  0
  -26.2932  -12.9396   20.3284 N   0  0  0  0  0  0
  -25.9305  -11.6536   20.5739 N   0  0  0  0  0  0
  -22.0457  -12.8207   22.0444 N   0  0  0  0  0  0
  -25.4199  -15.1919   20.4105 N   0  0  0  0  0  0
  -31.7870  -14.8182   20.1030 O   0  0  0  0  0  0
  -21.6634   -6.8872   21.4239 O   0  0  0  0  0  0
  -22.3489  -14.5522   20.6728 O   0  0  0  0  0  0
  -24.6261  -31.8575   23.2000 C   0  0  0  0  0  0
  -25.9095  -32.4773   23.8341 C   0  0  1  0  0  0
  -27.2189  -27.2866   20.1367 C   0  0  0  0  0  0
  -25.5905  -33.8575   24.2265 N   0  0  0  0  0  0
  -23.4235  -30.4786   21.5419 C   0  0  2  0  0  0
  -24.8753  -28.9277   20.1096 C   0  0  0  0  0  0
  -22.7480  -29.4611   22.4917 C   0  0  0  0  0  0
  -18.0293  -28.1394   22.8487 C   0  0  0  0  0  0
  -24.1495  -36.7309   23.2644 C   0  0  0  0  0  0
  -25.9673  -30.7739   21.3824 C   0  0  0  0  0  0
  -26.0413  -29.3981   20.7286 C   0  0  0  0  0  0
  -27.2186  -28.5860   20.7378 C   0  0  0  0  0  0
  -26.0460  -26.8894   19.4662 C   0  0  0  0  0  0
  -24.8801  -27.6796   19.4672 C   0  0  0  0  0  0
  -23.6428  -29.8095   20.1583 C   0  0  0  0  0  0
  -25.4118  -36.3094   24.0334 C   0  0  1  0  0  0
  -20.5891  -28.3714   23.1279 C   0  0  2  0  0  0
  -20.6789  -26.9439   22.5409 C   0  0  0  0  0  0
  -19.5767  -26.6403   21.5208 C   0  0  0  0  0  0
  -18.1946  -26.7941   22.1623 C   0  0  0  0  0  0
  -19.1541  -28.8869   23.2882 C   0  0  0  0  0  0
  -18.9461  -30.1467   23.8906 C   0  0  0  0  0  0
  -17.6458  -30.6593   24.0571 C   0  0  0  0  0  0
  -25.9048  -34.9455   23.5106 C   0  0  0  0  0  0
  -16.5350  -29.9092   23.6333 C   0  0  0  0  0  0
  -16.7280  -28.6508   23.0358 C   0  0  0  0  0  0
  -26.4486  -31.6583   25.0707 C   0  0  0  0  0  0
  -25.3730  -31.3715   26.1435 C   0  0  0  0  0  0
  -27.0333  -30.3005   24.6172 C   0  0  0  0  0  0
  -27.6038  -32.4330   25.7474 C   0  0  0  0  0  0
  -27.5589  -37.1814   24.8463 C   0  0  0  0  0  0
  -21.4187  -29.3060   22.3659 N   0  0  0  0  0  0
  -26.4299  -37.3782   23.9405 N   0  0  0  0  0  0
  -24.6906  -31.0548   22.0979 N   0  0  0  0  0  0
  -23.4180  -28.8168   23.3025 O   0  0  0  0  0  0
  -28.2989  -26.3841   20.1491 O   0  0  0  0  0  0
  -26.5627  -34.8920   22.4675 O   0  0  0  0  0  0
  -23.5417  -32.1409   23.7301 O   0  0  0  0  0  0
  -29.8342  -23.2557   21.9693 C   0  0  0  0  0  0
  -30.2569  -21.7970   21.6837 C   0  0  0  0  0  0
  -28.6352  -22.4489   20.0303 C   0  0  0  0  0  0
  -29.1426  -23.8158   20.7013 C   0  0  2  0  0  0
  -29.1039  -21.1752   20.8853 C   0  0  1  0  0  0
  -25.9003  -24.0043   21.2702 C   0  0  0  0  0  0
  -26.9761  -24.9228   21.8636 C   0  0  0  0  0  0
  -30.0862  -17.2379   20.1898 C   0  0  0  0  0  0
  -29.3770  -18.5139   20.8866 C   0  0  0  0  0  0
  -28.2637  -25.1586   21.0177 C   0  0  1  0  0  0
  -29.8339  -15.8169   20.6884 N   0  0  0  0  0  0
  -29.4940  -19.8705   20.1707 N   0  3  0  0  0  0
  -31.4724  -12.5383   19.1723 H   0  0  0  0  0  0
  -30.3603  -11.4372   19.9360 H   0  0  0  0  0  0
  -29.7794  -11.7352   17.5084 H   0  0  0  0  0  0
  -29.6487  -13.4623   17.7303 H   0  0  0  0  0  0
  -27.8747  -11.2900   18.8889 H   0  0  0  0  0  0
  -27.3778  -12.5532   17.7943 H   0  0  0  0  0  0
  -27.6477  -14.2559   19.4902 H   0  0  0  0  0  0
  -28.7075  -12.1206   21.4059 H   0  0  0  0  0  0
  -28.4263  -13.7931   21.8165 H   0  0  0  0  0  0
  -25.2756   -9.5681   22.4754 H   0  0  0  0  0  0
  -23.9999   -7.4627   22.7460 H   0  0  0  0  0  0
  -21.0836   -8.8762   19.8948 H   0  0  0  0  0  0
  -22.3683  -10.9666   19.6163 H   0  0  0  0  0  0
  -21.2000   -7.6141   23.9716 H   0  0  0  0  0  0
  -21.1485   -6.0518   25.9082 H   0  0  0  0  0  0
  -22.0596   -2.7600   23.2856 H   0  0  0  0  0  0
  -22.4062  -11.9868   22.4842 H   0  0  0  0  0  0
  -21.1070  -13.1220   22.2645 H   0  0  0  0  0  0
  -24.6494  -15.8434   20.5163 H   0  0  0  0  0  0
  -26.2584  -15.6283   20.0504 H   0  0  0  0  0  0
  -26.7143  -32.5431   23.1070 H   0  0  0  0  0  0
  -25.0024  -33.9729   25.0393 H   0  0  0  0  0  0
  -22.7192  -31.2997   21.3943 H   0  0  0  0  0  0
  -23.3746  -35.9649   23.3309 H   0  0  0  0  0  0
  -24.3594  -36.8927   22.2058 H   0  0  0  0  0  0
  -23.7244  -37.6513   23.6660 H   0  0  0  0  0  0
  -26.1047  -31.5342   20.6133 H   0  0  0  0  0  0
  -26.8441  -30.8226   22.0157 H   0  0  0  0  0  0
  -28.1101  -28.9348   21.2396 H   0  0  0  0  0  0
  -26.0289  -25.9405   18.9513 H   0  0  0  0  0  0
  -23.9929  -27.3215   18.9635 H   0  0  0  0  0  0
  -23.7615  -30.5827   19.3987 H   0  0  0  0  0  0
  -22.7640  -29.2359   19.8564 H   0  0  0  0  0  0
  -25.1296  -36.1964   25.0828 H   0  0  0  0  0  0
  -20.9984  -28.3294   24.1397 H   0  0  0  0  0  0
  -20.5697  -26.2326   23.3615 H   0  0  0  0  0  0
  -21.6663  -26.7474   22.1202 H   0  0  0  0  0  0
  -19.6939  -25.6313   21.1249 H   0  0  0  0  0  0
  -19.6707  -27.3210   20.6738 H   0  0  0  0  0  0
  -17.4220  -26.6687   21.4027 H   0  0  0  0  0  0
  -18.0359  -26.0080   22.9019 H   0  0  0  0  0  0
  -19.7934  -30.7288   24.2280 H   0  0  0  0  0  0
  -17.5010  -31.6276   24.5169 H   0  0  0  0  0  0
  -15.5352  -30.2996   23.7655 H   0  0  0  0  0  0
  -15.8681  -28.0830   22.7071 H   0  0  0  0  0  0
  -24.5874  -30.7112   25.7745 H   0  0  0  0  0  0
  -24.8967  -32.2883   26.4922 H   0  0  0  0  0  0
  -25.8061  -30.8826   27.0171 H   0  0  0  0  0  0
  -26.2930  -29.6776   24.1133 H   0  0  0  0  0  0
  -27.3953  -29.7236   25.4691 H   0  0  0  0  0  0
  -27.8831  -30.4282   23.9465 H   0  0  0  0  0  0
  -27.2639  -33.3609   26.2081 H   0  0  0  0  0  0
  -28.3827  -32.6927   25.0295 H   0  0  0  0  0  0
  -28.0727  -31.8440   26.5371 H   0  0  0  0  0  0
  -28.2604  -38.0116   24.7508 H   0  0  0  0  0  0
  -28.1092  -36.2642   24.6294 H   0  0  0  0  0  0
  -27.2312  -37.1468   25.8870 H   0  0  0  0  0  0
  -20.9360  -29.8770   21.6864 H   0  0  0  0  0  0
  -26.0191  -38.2862   24.1395 H   0  0  0  0  0  0
  -30.6816  -23.8720   22.2726 H   0  0  0  0  0  0
  -29.1377  -23.2507   22.8072 H   0  0  0  0  0  0
  -30.4701  -21.2441   22.5998 H   0  0  0  0  0  0
  -31.1694  -21.8023   21.0852 H   0  0  0  0  0  0
  -29.0723  -22.3844   19.0329 H   0  0  0  0  0  0
  -27.5604  -22.4330   19.8648 H   0  0  0  0  0  0
  -29.9539  -24.1636   20.0594 H   0  0  0  0  0  0
  -28.2908  -20.9434   21.5762 H   0  0  0  0  0  0
  -26.1367  -22.9570   21.4524 H   0  0  0  0  0  0
  -25.7724  -24.1458   20.1993 H   0  0  0  0  0  0
  -24.9390  -24.1918   21.7492 H   0  0  0  0  0  0
  -26.5193  -25.8751   22.1320 H   0  0  0  0  0  0
  -27.2589  -24.5048   22.8294 H   0  0  0  0  0  0
  -31.1642  -17.4092   20.1935 H   0  0  0  0  0  0
  -29.8004  -17.2334   19.1379 H   0  0  0  0  0  0
  -29.7814  -18.6239   21.8931 H   0  0  0  0  0  0
  -28.3142  -18.3044   21.0148 H   0  0  0  0  0  0
  -28.8983  -25.6049   21.7845 H   0  0  0  0  0  0
  -28.8944  -15.6205   21.0012 H   0  0  0  0  0  0
  -30.4400  -19.9730   19.8427 H   0  0  0  0  0  0
  -28.9164  -19.8000   19.3487 H   0  0  0  0  0  0
  1 25  1  0  0  0
  1 30  2  0  0  0
  1 81  1  0  0  0
  2  3  1  0  0  0
  2 25  1  0  0  0
  2 83  1  0  0  0
  2 84  1  0  0  0
  3  4  1  0  0  0
  3 85  1  0  0  0
  3 86  1  0  0  0
  4  5  1  0  0  0
  4 87  1  0  0  0
  4 88  1  0  0  0
  5  6  1  0  0  0
  5 26  1  0  0  0
  5 89  1  0  0  0
  6 25  1  0  0  0
  6 90  1  0  0  0
  6 91  1  0  0  0
  7  8  2  0  0  0
  7 26  1  0  0  0
  7 29  1  0  0  0
  8  9  1  0  0  0
  8 22  1  0  0  0
  9 10  1  0  0  0
  9 27  2  0  0  0
 10 11  2  0  0  0
 10 15  1  0  0  0
 11 12  1  0  0  0
 11 92  1  0  0  0
 12 13  2  0  0  0
 12 93  1  0  0  0
 13 14  1  0  0  0
 13 31  1  0  0  0
 14 15  2  0  0  0
 14 94  1  0  0  0
 15 95  1  0  0  0
 16 17  2  0  0  0
 16 21  1  0  0  0
 16 31  1  0  0  0
 17 18  1  0  0  0
 17 96  1  0  0  0
 18 19  2  0  0  0
 18 97  1  0  0  0
 19 20  1  0  0  0
 19 24  1  0  0  0
 20 21  2  0  0  0
 20 98  1  0  0  0
 21 23  1  0  0  0
 22 28  1  0  0  0
 22 32  2  0  0  0
 26 27  1  0  0  0
 28 99  1  0  0  0
 28100  1  0  0  0
 29101  1  0  0  0
 29102  1  0  0  0
 33 34  1  0  0  0
 33 66  1  0  0  0
 33 70  2  0  0  0
 34 36  1  0  0  0
 34 59  1  0  0  0
 34103  1  0  0  0
 35 44  2  0  0  0
 35 45  1  0  0  0
 35 68  1  0  0  0
 36 56  1  0  0  0
 36104  1  0  0  0
 37 39  1  0  0  0
 37 47  1  0  0  0
 37 66  1  0  0  0
 37105  1  0  0  0
 38 43  2  0  0  0
 38 46  1  0  0  0
 38 47  1  0  0  0
 39 64  1  0  0  0
 39 67  2  0  0  0
 40 52  1  0  0  0
 40 53  2  0  0  0
 40 58  1  0  0  0
 41106  1  0  0  0
 41107  1  0  0  0
 41108  1  0  0  0
 41 48  1  0  0  0
 42 43  1  0  0  0
 42 66  1  0  0  0
 42109  1  0  0  0
 42110  1  0  0  0
 43 44  1  0  0  0
 44111  1  0  0  0
 45 46  2  0  0  0
 45112  1  0  0  0
 46113  1  0  0  0
 47114  1  0  0  0
 47115  1  0  0  0
 48 56  1  0  0  0
 48 65  1  0  0  0
 48116  1  0  0  0
 49 50  1  0  0  0
 49 53  1  0  0  0
 49 64  1  0  0  0
 49117  1  0  0  0
 50 51  1  0  0  0
 50118  1  0  0  0
 50119  1  0  0  0
 51 52  1  0  0  0
 51120  1  0  0  0
 51121  1  0  0  0
 52122  1  0  0  0
 52123  1  0  0  0
 53 54  1  0  0  0
 54 55  2  0  0  0
 54124  1  0  0  0
 55 57  1  0  0  0
 55125  1  0  0  0
 56 69  2  0  0  0
 57 58  2  0  0  0
 57126  1  0  0  0
 58127  1  0  0  0
 59 60  1  0  0  0
 59 61  1  0  0  0
 59 62  1  0  0  0
 60128  1  0  0  0
 60129  1  0  0  0
 60130  1  0  0  0
 61131  1  0  0  0
 61132  1  0  0  0
 61133  1  0  0  0
 62134  1  0  0  0
 62135  1  0  0  0
 62136  1  0  0  0
 63 65  1  0  0  0
 63137  1  0  0  0
 63138  1  0  0  0
 63139  1  0  0  0
 64140  1  0  0  0
 65141  1  0  0  0
 68 80  1  0  0  0
 71 72  1  0  0  0
 71142  1  0  0  0
 71143  1  0  0  0
 71 74  1  0  0  0
 72 75  1  0  0  0
 72144  1  0  0  0
 72145  1  0  0  0
 73 74  1  0  0  0
 73 75  1  0  0  0
 73146  1  0  0  0
 73147  1  0  0  0
 74 80  1  0  0  0
 74148  1  0  0  0
 75 82  1  0  0  0
 75149  1  0  0  0
 76 77  1  0  0  0
 76150  1  0  0  0
 76151  1  0  0  0
 76152  1  0  0  0
 77153  1  0  0  0
 77154  1  0  0  0
 77 80  1  0  0  0
 78 79  1  0  0  0
 78 81  1  0  0  0
 78155  1  0  0  0
 78156  1  0  0  0
 79 82  1  0  0  0
 79157  1  0  0  0
 79158  1  0  0  0
 80159  1  0  0  0
 81160  1  0  0  0
 82161  1  0  0  0
 82162  1  0  0  0
M  CHG  1  82   1
M  ISO  4   1 100  68 101  80 101  81 100
M  END
> <chiral flag>
0

> <version>
0

> <s_m_source_file>
/data/baiqing/PycharmProjects/Reinvent-master-3.2/result/LINK_invent/BTK/process_docking_weight1_custom_sum_contain_oxygen_bond_distance_aromatic_linkinvent_7_9_3/rearranged_h_0137.sdf

> <i_m_source_file_index>
8

> <r_mmod_Potential_Energy-OPLS-2005>
70.4113998413086

> <r_mmod_Stretch_Energy-OPLS-2005>
113.906936645508

> <r_mmod_Bend_Energy-OPLS-2005>
227.609481811523

> <r_mmod_Torsional_Energy-OPLS-2005>
311.057281494141

> <r_mmod_Improper_Torsional_Energy-OPLS-2005>
6.42457294464111

> <r_mmod_Van_der_Waal_Energy-OPLS-2005>
116.203125

> <r_mmod_Electrostatic_Energy-OPLS-2005>
-294.163177490234

> <r_mmod_Solvation_Energy-OPLS-2005>
-480.126525878906

> <b_mmod_Minimization_Converged-OPLS-2005>
0

> <r_mmod_RMS_Derivative-OPLS-2005>
1.55600368976593

$$$$
8
                    3D
 Structure written by MMmdl.
161169  0  0  1  0            999 V2000
  -30.6181  -14.6264   20.5181 C   0  0  0  0  0  0
  -30.4414  -12.3851   19.4508 C   0  0  0  0  0  0
  -29.5086  -12.5107   18.2248 C   0  0  0  0  0  0
  -28.0304  -12.3476   18.6342 C   0  0  0  0  0  0
  -27.6558  -13.2113   19.8674 C   0  0  2  0  0  0
  -28.6992  -13.0465   20.9959 C   0  0  0  0  0  0
  -25.2570  -13.8163   20.5681 C   0  0  0  0  0  0
  -24.1829  -13.0435   20.9181 C   0  0  0  0  0  0
  -24.6389  -11.6903   20.8729 C   0  0  0  0  0  0
  -23.9059  -10.4290   21.0398 C   0  0  0  0  0  0
  -24.3612   -9.4207   21.9179 C   0  0  0  0  0  0
  -23.6286   -8.2243   22.0754 C   0  0  0  0  0  0
  -22.4268   -8.0278   21.3542 C   0  0  0  0  0  0
  -21.9900   -9.0252   20.4644 C   0  0  0  0  0  0
  -22.7229  -10.2131   20.3051 C   0  0  0  0  0  0
  -21.6851   -6.0734   22.5278 C   0  0  0  0  0  0
  -21.4014   -6.5640   23.8212 C   0  0  0  0  0  0
  -21.3658   -5.6790   24.9173 C   0  0  0  0  0  0
  -21.6044   -4.3053   24.7222 C   0  0  0  0  0  0
  -21.8820   -3.8145   23.4344 C   0  0  0  0  0  0
  -21.9193   -4.6961   22.3401 C   0  0  0  0  0  0
  -22.7853  -13.5233   21.1842 C   0  0  0  0  0  0
  -22.1661   -4.2149   21.0977 F   0  0  0  0  0  0
  -21.5628   -3.4537   25.7734 F   0  0  0  0  0  0
  -30.0176  -13.3956   20.4404 N   0  0  0  0  0  0
  -26.2996  -12.9334   20.3327 N   0  0  0  0  0  0
  -25.9317  -11.6492   20.5758 N   0  0  0  0  0  0
  -22.0494  -12.8232   22.0401 N   0  0  0  0  0  0
  -25.4293  -15.1884   20.4098 N   0  0  0  0  0  0
  -31.7718  -14.7977   20.1069 O   0  0  0  0  0  0
  -21.6636   -6.8872   21.4238 O   0  0  0  0  0  0
  -22.3543  -14.5540   20.6685 O   0  0  0  0  0  0
  -24.6254  -31.8607   23.2031 C   0  0  0  0  0  0
  -25.9104  -32.4786   23.8350 C   0  0  1  0  0  0
  -27.2192  -27.3268   20.1113 C   0  0  0  0  0  0
  -25.5927  -33.8587   24.2269 N   0  0  0  0  0  0
  -23.4178  -30.4861   21.5458 C   0  0  2  0  0  0
  -24.8626  -28.9457   20.1083 C   0  0  0  0  0  0
  -22.7472  -29.4625   22.4930 C   0  0  0  0  0  0
  -18.0288  -28.1385   22.8488 C   0  0  0  0  0  0
  -24.1495  -36.7300   23.2640 C   0  0  0  0  0  0
  -25.9591  -30.7946   21.3733 C   0  0  0  0  0  0
  -26.0312  -29.4235   20.7140 C   0  0  0  0  0  0
  -27.2118  -28.6246   20.7075 C   0  0  0  0  0  0
  -26.0288  -26.9065   19.4717 C   0  0  0  0  0  0
  -24.8630  -27.6928   19.4789 C   0  0  0  0  0  0
  -23.6310  -29.8247   20.1594 C   0  0  0  0  0  0
  -25.4118  -36.3088   24.0329 C   0  0  1  0  0  0
  -20.5892  -28.3685   23.1287 C   0  0  2  0  0  0
  -20.6775  -26.9407   22.5414 C   0  0  0  0  0  0
  -19.5753  -26.6377   21.5219 C   0  0  0  0  0  0
  -18.1929  -26.7930   22.1621 C   0  0  0  0  0  0
  -19.1543  -28.8852   23.2888 C   0  0  0  0  0  0
  -18.9467  -30.1456   23.8893 C   0  0  0  0  0  0
  -17.6465  -30.6583   24.0569 C   0  0  0  0  0  0
  -25.9054  -34.9459   23.5096 C   0  0  0  0  0  0
  -16.5358  -29.9084   23.6332 C   0  0  0  0  0  0
  -16.7275  -28.6513   23.0338 C   0  0  0  0  0  0
  -26.4483  -31.6604   25.0724 C   0  0  0  0  0  0
  -25.3708  -31.3753   26.1452 C   0  0  0  0  0  0
  -27.0330  -30.3032   24.6177 C   0  0  0  0  0  0
  -27.6046  -32.4342   25.7491 C   0  0  0  0  0  0
  -27.5582  -37.1808   24.8460 C   0  0  0  0  0  0
  -21.4188  -29.3043   22.3688 N   0  0  0  0  0  0
  -26.4292  -37.3784   23.9406 N   0  0  0  0  0  0
  -24.6860  -31.0632   22.0977 N   0  0  0  0  0  0
  -23.4213  -28.8153   23.2990 O   0  0  0  0  0  0
  -28.3382  -26.4824   20.1764 O   0  0  0  0  0  0
  -26.5620  -34.8928   22.4660 O   0  0  0  0  0  0
  -23.5419  -32.1391   23.7369 O   0  0  0  0  0  0
  -28.8427  -17.7895   21.5753 C   0  0  0  0  0  0
  -28.7789  -19.2109   21.6044 C   0  0  0  0  0  0
  -29.7456  -19.9969   20.9077 C   0  0  0  0  0  0
  -30.6813  -19.2107   20.1541 C   0  0  0  0  0  0
  -29.8526  -17.0926   20.8727 C   0  0  0  0  0  0
  -27.6709  -19.8505   22.4270 C   0  0  0  0  0  0
  -31.7419  -19.8330   19.2656 C   0  0  0  0  0  0
  -31.2983  -22.0518   21.3868 C   0  0  0  0  0  0
  -29.2064  -24.0357   20.5901 C   0  0  0  0  0  0
  -28.1483  -25.0300   19.9537 C   0  0  0  0  0  0
  -29.8479  -21.5747   21.1496 C   0  0  1  0  0  0
  -30.7299  -17.8394   20.1535 N   0  0  0  0  0  0
  -29.8113  -15.6396   20.9618 N   0  0  0  0  0  0
  -29.0703  -22.5446   20.2705 N   0  3  0  0  0  0
  -31.4820  -12.5147   19.1486 H   0  0  0  0  0  0
  -30.3808  -11.3844   19.8817 H   0  0  0  0  0  0
  -29.7721  -11.7661   17.4723 H   0  0  0  0  0  0
  -29.6512  -13.4846   17.7539 H   0  0  0  0  0  0
  -27.8642  -11.2931   18.8581 H   0  0  0  0  0  0
  -27.3770  -12.5849   17.7941 H   0  0  0  0  0  0
  -27.6800  -14.2495   19.5359 H   0  0  0  0  0  0
  -28.7085  -12.0171   21.3583 H   0  0  0  0  0  0
  -28.4408  -13.6569   21.8619 H   0  0  0  0  0  0
  -25.2759   -9.5684   22.4747 H   0  0  0  0  0  0
  -23.9997   -7.4637   22.7474 H   0  0  0  0  0  0
  -21.0834   -8.8763   19.8953 H   0  0  0  0  0  0
  -22.3684  -10.9665   19.6156 H   0  0  0  0  0  0
  -21.2005   -7.6147   23.9716 H   0  0  0  0  0  0
  -21.1479   -6.0521   25.9077 H   0  0  0  0  0  0
  -22.0600   -2.7608   23.2845 H   0  0  0  0  0  0
  -22.4105  -11.9886   22.4782 H   0  0  0  0  0  0
  -21.1116  -13.1262   22.2609 H   0  0  0  0  0  0
  -24.6580  -15.8393   20.5107 H   0  0  0  0  0  0
  -26.2733  -15.6291   20.0671 H   0  0  0  0  0  0
  -26.7178  -32.5453   23.1103 H   0  0  0  0  0  0
  -25.0086  -33.9734   25.0423 H   0  0  0  0  0  0
  -22.7119  -31.3080   21.4049 H   0  0  0  0  0  0
  -23.3758  -35.9634   23.3298 H   0  0  0  0  0  0
  -24.3586  -36.8916   22.2056 H   0  0  0  0  0  0
  -23.7248  -37.6504   23.6665 H   0  0  0  0  0  0
  -26.0895  -31.5603   20.6074 H   0  0  0  0  0  0
  -26.8404  -30.8413   22.0012 H   0  0  0  0  0  0
  -28.1079  -28.9847   21.1939 H   0  0  0  0  0  0
  -25.9643  -25.9554   18.9645 H   0  0  0  0  0  0
  -23.9685  -27.3250   18.9949 H   0  0  0  0  0  0
  -23.7495  -30.6033   19.4050 H   0  0  0  0  0  0
  -22.7504  -29.2557   19.8556 H   0  0  0  0  0  0
  -25.1303  -36.1936   25.0819 H   0  0  0  0  0  0
  -20.9990  -28.3255   24.1407 H   0  0  0  0  0  0
  -20.5676  -26.2293   23.3615 H   0  0  0  0  0  0
  -21.6641  -26.7433   22.1208 H   0  0  0  0  0  0
  -19.6914  -25.6291   21.1245 H   0  0  0  0  0  0
  -19.6695  -27.3195   20.6762 H   0  0  0  0  0  0
  -17.4207  -26.6698   21.4018 H   0  0  0  0  0  0
  -18.0309  -26.0066   22.9008 H   0  0  0  0  0  0
  -19.7943  -30.7277   24.2255 H   0  0  0  0  0  0
  -17.5022  -31.6262   24.5170 H   0  0  0  0  0  0
  -15.5361  -30.2984   23.7665 H   0  0  0  0  0  0
  -15.8676  -28.0844   22.7030 H   0  0  0  0  0  0
  -24.5887  -30.7094   25.7780 H   0  0  0  0  0  0
  -24.8899  -32.2929   26.4855 H   0  0  0  0  0  0
  -25.8021  -30.8946   27.0240 H   0  0  0  0  0  0
  -26.2907  -29.6784   24.1196 H   0  0  0  0  0  0
  -27.4030  -29.7286   25.4679 H   0  0  0  0  0  0
  -27.8770  -30.4327   23.9396 H   0  0  0  0  0  0
  -27.2661  -33.3644   26.2062 H   0  0  0  0  0  0
  -28.3855  -32.6894   25.0315 H   0  0  0  0  0  0
  -28.0717  -31.8471   26.5406 H   0  0  0  0  0  0
  -28.2600  -38.0109   24.7511 H   0  0  0  0  0  0
  -28.1079  -36.2640   24.6278 H   0  0  0  0  0  0
  -27.2302  -37.1436   25.8864 H   0  0  0  0  0  0
  -20.9354  -29.8789   21.6925 H   0  0  0  0  0  0
  -26.0174  -38.2858   24.1411 H   0  0  0  0  0  0
  -28.1073  -17.2258   22.1343 H   0  0  0  0  0  0
  -26.8772  -19.1354   22.6457 H   0  0  0  0  0  0
  -27.2099  -20.6807   21.8929 H   0  0  0  0  0  0
  -28.0583  -20.2168   23.3780 H   0  0  0  0  0  0
  -31.3566  -20.7146   18.7547 H   0  0  0  0  0  0
  -32.0695  -19.1349   18.4945 H   0  0  0  0  0  0
  -32.6215  -20.1090   19.8473 H   0  0  0  0  0  0
  -31.8466  -21.3427   22.0070 H   0  0  0  0  0  0
  -31.3255  -23.0034   21.9182 H   0  0  0  0  0  0
  -31.8522  -22.2000   20.4621 H   0  0  0  0  0  0
  -29.1615  -24.1619   21.6722 H   0  0  0  0  0  0
  -30.2005  -24.3620   20.2848 H   0  0  0  0  0  0
  -27.1793  -24.7267   20.3527 H   0  0  0  0  0  0
  -28.1077  -24.8640   18.8766 H   0  0  0  0  0  0
  -29.3983  -21.7240   22.1309 H   0  0  0  0  0  0
  -28.9548  -15.2871   21.3554 H   0  0  0  0  0  0
  -29.3314  -22.4004   19.3073 H   0  0  0  0  0  0
  -28.0959  -22.2948   20.3393 H   0  0  0  0  0  0
  1 25  1  0  0  0
  1 30  2  0  0  0
  1 83  1  0  0  0
  2  3  1  0  0  0
  2 25  1  0  0  0
  2 85  1  0  0  0
  2 86  1  0  0  0
  3  4  1  0  0  0
  3 87  1  0  0  0
  3 88  1  0  0  0
  4  5  1  0  0  0
  4 89  1  0  0  0
  4 90  1  0  0  0
  5  6  1  0  0  0
  5 26  1  0  0  0
  5 91  1  0  0  0
  6 25  1  0  0  0
  6 92  1  0  0  0
  6 93  1  0  0  0
  7  8  2  0  0  0
  7 26  1  0  0  0
  7 29  1  0  0  0
  8  9  1  0  0  0
  8 22  1  0  0  0
  9 10  1  0  0  0
  9 27  2  0  0  0
 10 11  2  0  0  0
 10 15  1  0  0  0
 11 12  1  0  0  0
 11 94  1  0  0  0
 12 13  2  0  0  0
 12 95  1  0  0  0
 13 14  1  0  0  0
 13 31  1  0  0  0
 14 15  2  0  0  0
 14 96  1  0  0  0
 15 97  1  0  0  0
 16 17  2  0  0  0
 16 21  1  0  0  0
 16 31  1  0  0  0
 17 18  1  0  0  0
 17 98  1  0  0  0
 18 19  2  0  0  0
 18 99  1  0  0  0
 19 20  1  0  0  0
 19 24  1  0  0  0
 20 21  2  0  0  0
 20100  1  0  0  0
 21 23  1  0  0  0
 22 28  1  0  0  0
 22 32  2  0  0  0
 26 27  1  0  0  0
 28101  1  0  0  0
 28102  1  0  0  0
 29103  1  0  0  0
 29104  1  0  0  0
 33 34  1  0  0  0
 33 66  1  0  0  0
 33 70  2  0  0  0
 34 36  1  0  0  0
 34 59  1  0  0  0
 34105  1  0  0  0
 35 44  2  0  0  0
 35 45  1  0  0  0
 35 68  1  0  0  0
 36 56  1  0  0  0
 36106  1  0  0  0
 37 39  1  0  0  0
 37 47  1  0  0  0
 37 66  1  0  0  0
 37107  1  0  0  0
 38 43  2  0  0  0
 38 46  1  0  0  0
 38 47  1  0  0  0
 39 64  1  0  0  0
 39 67  2  0  0  0
 40 52  1  0  0  0
 40 53  2  0  0  0
 40 58  1  0  0  0
 41108  1  0  0  0
 41109  1  0  0  0
 41110  1  0  0  0
 41 48  1  0  0  0
 42 43  1  0  0  0
 42 66  1  0  0  0
 42111  1  0  0  0
 42112  1  0  0  0
 43 44  1  0  0  0
 44113  1  0  0  0
 45 46  2  0  0  0
 45114  1  0  0  0
 46115  1  0  0  0
 47116  1  0  0  0
 47117  1  0  0  0
 48 56  1  0  0  0
 48 65  1  0  0  0
 48118  1  0  0  0
 49 50  1  0  0  0
 49 53  1  0  0  0
 49 64  1  0  0  0
 49119  1  0  0  0
 50 51  1  0  0  0
 50120  1  0  0  0
 50121  1  0  0  0
 51 52  1  0  0  0
 51122  1  0  0  0
 51123  1  0  0  0
 52124  1  0  0  0
 52125  1  0  0  0
 53 54  1  0  0  0
 54 55  2  0  0  0
 54126  1  0  0  0
 55 57  1  0  0  0
 55127  1  0  0  0
 56 69  2  0  0  0
 57 58  2  0  0  0
 57128  1  0  0  0
 58129  1  0  0  0
 59 60  1  0  0  0
 59 61  1  0  0  0
 59 62  1  0  0  0
 60130  1  0  0  0
 60131  1  0  0  0
 60132  1  0  0  0
 61133  1  0  0  0
 61134  1  0  0  0
 61135  1  0  0  0
 62136  1  0  0  0
 62137  1  0  0  0
 62138  1  0  0  0
 63 65  1  0  0  0
 63139  1  0  0  0
 63140  1  0  0  0
 63141  1  0  0  0
 64142  1  0  0  0
 65143  1  0  0  0
 68 80  1  0  0  0
 71 72  2  0  0  0
 71 75  1  0  0  0
 71144  1  0  0  0
 72 73  1  0  0  0
 72 76  1  0  0  0
 73 74  2  0  0  0
 73 81  1  0  0  0
 74 77  1  0  0  0
 74 82  1  0  0  0
 75 82  2  0  0  0
 75 83  1  0  0  0
 76145  1  0  0  0
 76146  1  0  0  0
 76147  1  0  0  0
 77148  1  0  0  0
 77149  1  0  0  0
 77150  1  0  0  0
 78151  1  0  0  0
 78152  1  0  0  0
 78153  1  0  0  0
 78 81  1  0  0  0
 79 80  1  0  0  0
 79 84  1  0  0  0
 79154  1  0  0  0
 79155  1  0  0  0
 80156  1  0  0  0
 80157  1  0  0  0
 81 84  1  0  0  0
 81158  1  0  0  0
 83159  1  0  0  0
 84160  1  0  0  0
 84161  1  0  0  0
M  CHG  1  84   1
M  ISO  4   1 100  68 101  80 101  83 100
M  END
> <chiral flag>
0

> <version>
0

> <s_m_source_file>
/data/baiqing/PycharmProjects/Reinvent-master-3.2/result/LINK_invent/BTK/process_docking_weight1_custom_sum_contain_oxygen_bond_distance_aromatic_linkinvent_7_9_3/rearranged_h_0137.sdf

> <i_m_source_file_index>
9

> <r_mmod_Potential_Energy-OPLS-2005>
-196.03694152832

> <r_mmod_Stretch_Energy-OPLS-2005>
83.2565612792969

> <r_mmod_Bend_Energy-OPLS-2005>
150.897613525391

> <r_mmod_Torsional_Energy-OPLS-2005>
203.760177612305

> <r_mmod_Improper_Torsional_Energy-OPLS-2005>
4.0558910369873

> <r_mmod_Van_der_Waal_Energy-OPLS-2005>
154.449600219727

> <r_mmod_Electrostatic_Energy-OPLS-2005>
-355.769012451172

> <r_mmod_Solvation_Energy-OPLS-2005>
-481.473236083984

> <b_mmod_Minimization_Converged-OPLS-2005>
0

> <r_mmod_RMS_Derivative-OPLS-2005>
1.13982820510864

$$$$
9
                    3D
 Structure written by MMmdl.
172180  0  0  1  0            999 V2000
  -30.7825  -14.3303   20.7153 C   0  0  0  0  0  0
  -30.4183  -12.2868   19.3807 C   0  0  0  0  0  0
  -29.4783  -12.5304   18.1862 C   0  0  0  0  0  0
  -28.0052  -12.3865   18.6083 C   0  0  0  0  0  0
  -27.6689  -13.2007   19.8847 C   0  0  2  0  0  0
  -28.7074  -12.9257   20.9940 C   0  0  0  0  0  0
  -25.2617  -13.8168   20.5686 C   0  0  0  0  0  0
  -24.1853  -13.0449   20.9162 C   0  0  0  0  0  0
  -24.6399  -11.6912   20.8726 C   0  0  0  0  0  0
  -23.9062  -10.4299   21.0405 C   0  0  0  0  0  0
  -24.3605   -9.4215   21.9185 C   0  0  0  0  0  0
  -23.6277   -8.2251   22.0762 C   0  0  0  0  0  0
  -22.4264   -8.0291   21.3545 C   0  0  0  0  0  0
  -21.9902   -9.0266   20.4643 C   0  0  0  0  0  0
  -22.7242  -10.2141   20.3050 C   0  0  0  0  0  0
  -21.6853   -6.0726   22.5268 C   0  0  0  0  0  0
  -21.4014   -6.5629   23.8202 C   0  0  0  0  0  0
  -21.3660   -5.6785   24.9166 C   0  0  0  0  0  0
  -21.6048   -4.3049   24.7222 C   0  0  0  0  0  0
  -21.8818   -3.8142   23.4345 C   0  0  0  0  0  0
  -21.9192   -4.6954   22.3394 C   0  0  0  0  0  0
  -22.7880  -13.5257   21.1824 C   0  0  0  0  0  0
  -22.1661   -4.2136   21.0972 F   0  0  0  0  0  0
  -21.5643   -3.4537   25.7742 F   0  0  0  0  0  0
  -30.0548  -13.2137   20.4615 N   0  0  0  0  0  0
  -26.3058  -12.9325   20.3414 N   0  0  0  0  0  0
  -25.9322  -11.6488   20.5770 N   0  0  0  0  0  0
  -22.0515  -12.8241   22.0374 N   0  0  0  0  0  0
  -25.4355  -15.1876   20.4080 N   0  0  0  0  0  0
  -31.7596  -14.6812   20.0467 O   0  0  0  0  0  0
  -21.6640   -6.8878   21.4233 O   0  0  0  0  0  0
  -22.3565  -14.5565   20.6683 O   0  0  0  0  0  0
  -24.6116  -31.8697   23.2116 C   0  0  0  0  0  0
  -25.9020  -32.4835   23.8412 C   0  0  1  0  0  0
  -27.2434  -27.4691   20.0684 C   0  0  0  0  0  0
  -25.5887  -33.8634   24.2353 N   0  0  0  0  0  0
  -23.3985  -30.4920   21.5513 C   0  0  2  0  0  0
  -24.8446  -28.9590   20.1150 C   0  0  0  0  0  0
  -22.7390  -29.4665   22.5005 C   0  0  0  0  0  0
  -18.0266  -28.1371   22.8496 C   0  0  0  0  0  0
  -24.1481  -36.7320   23.2639 C   0  0  0  0  0  0
  -25.9237  -30.8406   21.3608 C   0  0  0  0  0  0
  -26.0008  -29.4749   20.7128 C   0  0  0  0  0  0
  -27.1984  -28.7299   20.6997 C   0  0  0  0  0  0
  -26.0639  -26.9485   19.4899 C   0  0  0  0  0  0
  -24.8679  -27.6909   19.5081 C   0  0  0  0  0  0
  -23.6045  -29.8212   20.1662 C   0  0  0  0  0  0
  -25.4103  -36.3128   24.0345 C   0  0  1  0  0  0
  -20.5854  -28.3657   23.1319 C   0  0  2  0  0  0
  -20.6757  -26.9397   22.5408 C   0  0  0  0  0  0
  -19.5734  -26.6388   21.5204 C   0  0  0  0  0  0
  -18.1910  -26.7922   22.1612 C   0  0  0  0  0  0
  -19.1516  -28.8829   23.2906 C   0  0  0  0  0  0
  -18.9444  -30.1438   23.8914 C   0  0  0  0  0  0
  -17.6451  -30.6580   24.0567 C   0  0  0  0  0  0
  -25.9026  -34.9484   23.5150 C   0  0  0  0  0  0
  -16.5344  -29.9081   23.6326 C   0  0  0  0  0  0
  -16.7257  -28.6499   23.0352 C   0  0  0  0  0  0
  -26.4462  -31.6603   25.0727 C   0  0  0  0  0  0
  -25.3741  -31.3672   26.1481 C   0  0  0  0  0  0
  -27.0296  -30.3063   24.6069 C   0  0  0  0  0  0
  -27.6055  -32.4304   25.7480 C   0  0  0  0  0  0
  -27.5584  -37.1818   24.8471 C   0  0  0  0  0  0
  -21.4122  -29.3036   22.3742 N   0  0  0  0  0  0
  -26.4301  -37.3805   23.9409 N   0  0  0  0  0  0
  -24.6628  -31.0820   22.1002 N   0  0  0  0  0  0
  -23.4174  -28.8203   23.3035 O   0  0  0  0  0  0
  -28.4250  -26.7675   20.0774 O   0  0  0  0  0  0
  -26.5583  -34.8932   22.4708 O   0  0  0  0  0  0
  -23.5317  -32.1436   23.7527 O   0  0  0  0  0  0
  -30.7330  -21.7941   21.9999 C   0  0  0  0  0  0
  -30.0880  -22.8796   21.3770 C   0  0  0  0  0  0
  -30.4807  -20.4800   19.9664 C   0  0  0  0  0  0
  -30.9410  -20.5848   21.2973 C   0  0  0  0  0  0
  -29.8365  -21.5667   19.3370 C   0  0  0  0  0  0
  -29.6406  -22.7750   20.0437 C   0  0  0  0  0  0
  -27.9584  -20.8347   17.8063 C   0  0  0  0  0  0
  -32.8736  -19.8018   22.7806 C   0  0  0  0  0  0
  -28.6626  -17.1856   22.7172 C   0  0  0  0  0  0
  -29.3691  -21.4241   17.8980 C   0  0  0  0  0  0
  -31.0014  -16.2131   22.3501 C   0  0  0  0  0  0
  -28.8407  -26.1469   18.8609 C   0  0  0  0  0  0
  -29.7654  -24.9683   19.1936 C   0  0  0  0  0  0
  -31.6397  -19.3939   21.9554 C   0  0  1  0  0  0
  -30.0758  -17.4389   22.1564 C   0  0  2  0  0  0
  -30.4070  -14.9916   21.8135 N   0  0  0  0  0  0
  -30.6699  -18.6437   22.7829 N   0  3  0  0  0  0
  -28.9715  -23.8147   19.4504 O   0  0  0  0  0  0
  -31.4593  -12.3971   19.0706 H   0  0  0  0  0  0
  -30.3260  -11.2585   19.7355 H   0  0  0  0  0  0
  -29.7016  -11.8323   17.3784 H   0  0  0  0  0  0
  -29.6500  -13.5291   17.7831 H   0  0  0  0  0  0
  -27.8097  -11.3281   18.7820 H   0  0  0  0  0  0
  -27.3499  -12.6883   17.7899 H   0  0  0  0  0  0
  -27.7315  -14.2570   19.6216 H   0  0  0  0  0  0
  -28.6676  -11.8776   21.2955 H   0  0  0  0  0  0
  -28.4501  -13.4903   21.8900 H   0  0  0  0  0  0
  -25.2756   -9.5688   22.4758 H   0  0  0  0  0  0
  -23.9989   -7.4653   22.7501 H   0  0  0  0  0  0
  -21.0830   -8.8790   19.8942 H   0  0  0  0  0  0
  -22.3716  -10.9680   19.6148 H   0  0  0  0  0  0
  -21.1991   -7.6137   23.9695 H   0  0  0  0  0  0
  -21.1496   -6.0521   25.9068 H   0  0  0  0  0  0
  -22.0590   -2.7602   23.2854 H   0  0  0  0  0  0
  -22.4132  -11.9872   22.4707 H   0  0  0  0  0  0
  -21.1138  -13.1267   22.2594 H   0  0  0  0  0  0
  -24.6682  -15.8448   20.5004 H   0  0  0  0  0  0
  -26.2917  -15.6226   20.0878 H   0  0  0  0  0  0
  -26.7091  -32.5567   23.1182 H   0  0  0  0  0  0
  -25.0070  -33.9800   25.0521 H   0  0  0  0  0  0
  -22.6865  -31.3076   21.4113 H   0  0  0  0  0  0
  -23.3756  -35.9639   23.3290 H   0  0  0  0  0  0
  -24.3583  -36.8952   22.2058 H   0  0  0  0  0  0
  -23.7212  -37.6515   23.6656 H   0  0  0  0  0  0
  -26.0281  -31.6026   20.5871 H   0  0  0  0  0  0
  -26.8149  -30.9013   21.9735 H   0  0  0  0  0  0
  -28.0934  -29.1259   21.1586 H   0  0  0  0  0  0
  -26.0522  -25.9661   19.0402 H   0  0  0  0  0  0
  -23.9742  -27.2811   19.0580 H   0  0  0  0  0  0
  -23.7055  -30.5925   19.4019 H   0  0  0  0  0  0
  -22.7301  -29.2354   19.8765 H   0  0  0  0  0  0
  -25.1276  -36.2016   25.0840 H   0  0  0  0  0  0
  -20.9943  -28.3217   24.1439 H   0  0  0  0  0  0
  -20.5661  -26.2262   23.3591 H   0  0  0  0  0  0
  -21.6628  -26.7440   22.1203 H   0  0  0  0  0  0
  -19.6893  -25.6303   21.1222 H   0  0  0  0  0  0
  -19.6670  -27.3209   20.6745 H   0  0  0  0  0  0
  -17.4182  -26.6689   21.4009 H   0  0  0  0  0  0
  -18.0299  -26.0051   22.8992 H   0  0  0  0  0  0
  -19.7920  -30.7251   24.2290 H   0  0  0  0  0  0
  -17.5005  -31.6262   24.5165 H   0  0  0  0  0  0
  -15.5347  -30.2993   23.7634 H   0  0  0  0  0  0
  -15.8659  -28.0831   22.7055 H   0  0  0  0  0  0
  -24.5916  -30.7023   25.7809 H   0  0  0  0  0  0
  -24.8922  -32.2806   26.4976 H   0  0  0  0  0  0
  -25.8112  -30.8806   27.0211 H   0  0  0  0  0  0
  -26.2822  -29.6812   24.1169 H   0  0  0  0  0  0
  -27.4147  -29.7312   25.4503 H   0  0  0  0  0  0
  -27.8615  -30.4418   23.9152 H   0  0  0  0  0  0
  -27.2722  -33.3628   26.2046 H   0  0  0  0  0  0
  -28.3867  -32.6819   25.0292 H   0  0  0  0  0  0
  -28.0705  -31.8417   26.5400 H   0  0  0  0  0  0
  -28.2610  -38.0107   24.7529 H   0  0  0  0  0  0
  -28.1075  -36.2643   24.6293 H   0  0  0  0  0  0
  -27.2301  -37.1483   25.8875 H   0  0  0  0  0  0
  -20.9280  -29.8779   21.6988 H   0  0  0  0  0  0
  -26.0200  -38.2895   24.1390 H   0  0  0  0  0  0
  -31.0568  -21.9076   23.0248 H   0  0  0  0  0  0
  -29.9238  -23.7917   21.9341 H   0  0  0  0  0  0
  -30.6200  -19.5585   19.4173 H   0  0  0  0  0  0
  -27.6469  -20.7353   16.7659 H   0  0  0  0  0  0
  -27.2327  -21.4729   18.3124 H   0  0  0  0  0  0
  -27.9161  -19.8460   18.2642 H   0  0  0  0  0  0
  -33.5741  -20.3712   22.1695 H   0  0  0  0  0  0
  -33.4075  -18.9232   23.1444 H   0  0  0  0  0  0
  -32.6199  -20.4100   23.6480 H   0  0  0  0  0  0
  -28.1586  -16.3803   22.1824 H   0  0  0  0  0  0
  -28.0289  -18.0666   22.6156 H   0  0  0  0  0  0
  -28.6917  -16.9152   23.7735 H   0  0  0  0  0  0
  -30.0706  -20.7893   17.3550 H   0  0  0  0  0  0
  -29.4010  -22.3936   17.4001 H   0  0  0  0  0  0
  -31.1875  -16.0435   23.4119 H   0  0  0  0  0  0
  -31.9798  -16.3991   21.9026 H   0  0  0  0  0  0
  -28.0323  -25.8093   18.2139 H   0  0  0  0  0  0
  -29.3961  -26.8932   18.2918 H   0  0  0  0  0  0
  -30.4278  -25.2259   20.0216 H   0  0  0  0  0  0
  -30.4002  -24.7512   18.3332 H   0  0  0  0  0  0
  -32.0101  -18.7434   21.1613 H   0  0  0  0  0  0
  -29.9587  -17.6302   21.0873 H   0  0  0  0  0  0
  -29.6326  -14.5937   22.3256 H   0  0  0  0  0  0
  -29.9298  -19.2860   23.0142 H   0  0  0  0  0  0
  -31.1139  -18.3747   23.6451 H   0  0  0  0  0  0
  1 25  1  0  0  0
  1 30  2  0  0  0
  1 86  1  0  0  0
  2  3  1  0  0  0
  2 25  1  0  0  0
  2 89  1  0  0  0
  2 90  1  0  0  0
  3  4  1  0  0  0
  3 91  1  0  0  0
  3 92  1  0  0  0
  4  5  1  0  0  0
  4 93  1  0  0  0
  4 94  1  0  0  0
  5  6  1  0  0  0
  5 26  1  0  0  0
  5 95  1  0  0  0
  6 25  1  0  0  0
  6 96  1  0  0  0
  6 97  1  0  0  0
  7  8  2  0  0  0
  7 26  1  0  0  0
  7 29  1  0  0  0
  8  9  1  0  0  0
  8 22  1  0  0  0
  9 10  1  0  0  0
  9 27  2  0  0  0
 10 11  2  0  0  0
 10 15  1  0  0  0
 11 12  1  0  0  0
 11 98  1  0  0  0
 12 13  2  0  0  0
 12 99  1  0  0  0
 13 14  1  0  0  0
 13 31  1  0  0  0
 14 15  2  0  0  0
 14100  1  0  0  0
 15101  1  0  0  0
 16 17  2  0  0  0
 16 21  1  0  0  0
 16 31  1  0  0  0
 17 18  1  0  0  0
 17102  1  0  0  0
 18 19  2  0  0  0
 18103  1  0  0  0
 19 20  1  0  0  0
 19 24  1  0  0  0
 20 21  2  0  0  0
 20104  1  0  0  0
 21 23  1  0  0  0
 22 28  1  0  0  0
 22 32  2  0  0  0
 26 27  1  0  0  0
 28105  1  0  0  0
 28106  1  0  0  0
 29107  1  0  0  0
 29108  1  0  0  0
 33 34  1  0  0  0
 33 66  1  0  0  0
 33 70  2  0  0  0
 34 36  1  0  0  0
 34 59  1  0  0  0
 34109  1  0  0  0
 35 44  2  0  0  0
 35 45  1  0  0  0
 35 68  1  0  0  0
 36 56  1  0  0  0
 36110  1  0  0  0
 37 39  1  0  0  0
 37 47  1  0  0  0
 37 66  1  0  0  0
 37111  1  0  0  0
 38 43  2  0  0  0
 38 46  1  0  0  0
 38 47  1  0  0  0
 39 64  1  0  0  0
 39 67  2  0  0  0
 40 52  1  0  0  0
 40 53  2  0  0  0
 40 58  1  0  0  0
 41112  1  0  0  0
 41113  1  0  0  0
 41114  1  0  0  0
 41 48  1  0  0  0
 42 43  1  0  0  0
 42 66  1  0  0  0
 42115  1  0  0  0
 42116  1  0  0  0
 43 44  1  0  0  0
 44117  1  0  0  0
 45 46  2  0  0  0
 45118  1  0  0  0
 46119  1  0  0  0
 47120  1  0  0  0
 47121  1  0  0  0
 48 56  1  0  0  0
 48 65  1  0  0  0
 48122  1  0  0  0
 49 50  1  0  0  0
 49 53  1  0  0  0
 49 64  1  0  0  0
 49123  1  0  0  0
 50 51  1  0  0  0
 50124  1  0  0  0
 50125  1  0  0  0
 51 52  1  0  0  0
 51126  1  0  0  0
 51127  1  0  0  0
 52128  1  0  0  0
 52129  1  0  0  0
 53 54  1  0  0  0
 54 55  2  0  0  0
 54130  1  0  0  0
 55 57  1  0  0  0
 55131  1  0  0  0
 56 69  2  0  0  0
 57 58  2  0  0  0
 57132  1  0  0  0
 58133  1  0  0  0
 59 60  1  0  0  0
 59 61  1  0  0  0
 59 62  1  0  0  0
 60134  1  0  0  0
 60135  1  0  0  0
 60136  1  0  0  0
 61137  1  0  0  0
 61138  1  0  0  0
 61139  1  0  0  0
 62140  1  0  0  0
 62141  1  0  0  0
 62142  1  0  0  0
 63 65  1  0  0  0
 63143  1  0  0  0
 63144  1  0  0  0
 63145  1  0  0  0
 64146  1  0  0  0
 65147  1  0  0  0
 68 82  1  0  0  0
 71 72  2  0  0  0
 71 74  1  0  0  0
 71148  1  0  0  0
 72 76  1  0  0  0
 72149  1  0  0  0
 73 74  2  0  0  0
 73 75  1  0  0  0
 73150  1  0  0  0
 74 84  1  0  0  0
 75 76  2  0  0  0
 75 80  1  0  0  0
 76 88  1  0  0  0
 77 80  1  0  0  0
 77151  1  0  0  0
 77152  1  0  0  0
 77153  1  0  0  0
 78154  1  0  0  0
 78155  1  0  0  0
 78156  1  0  0  0
 78 84  1  0  0  0
 79157  1  0  0  0
 79158  1  0  0  0
 79159  1  0  0  0
 79 85  1  0  0  0
 80160  1  0  0  0
 80161  1  0  0  0
 81 85  1  0  0  0
 81 86  1  0  0  0
 81162  1  0  0  0
 81163  1  0  0  0
 82 83  1  0  0  0
 82164  1  0  0  0
 82165  1  0  0  0
 83 88  1  0  0  0
 83166  1  0  0  0
 83167  1  0  0  0
 84 87  1  0  0  0
 84168  1  0  0  0
 85 87  1  0  0  0
 85169  1  0  0  0
 86170  1  0  0  0
 87171  1  0  0  0
 87172  1  0  0  0
M  CHG  1  87   1
M  ISO  4   1 100  68 101  82 101  86 100
M  END
> <chiral flag>
0

> <version>
0

> <s_m_source_file>
/data/baiqing/PycharmProjects/Reinvent-master-3.2/result/LINK_invent/BTK/process_docking_weight1_custom_sum_contain_oxygen_bond_distance_aromatic_linkinvent_7_9_3/rearranged_h_0137.sdf

> <i_m_source_file_index>
10

> <r_mmod_Potential_Energy-OPLS-2005>
-309.620666503906

> <r_mmod_Stretch_Energy-OPLS-2005>
32.8892936706543

> <r_mmod_Bend_Energy-OPLS-2005>
91.8689270019531

> <r_mmod_Torsional_Energy-OPLS-2005>
238.617645263672

> <r_mmod_Improper_Torsional_Energy-OPLS-2005>
2.20604753494263

> <r_mmod_Van_der_Waal_Energy-OPLS-2005>
147.828125

> <r_mmod_Electrostatic_Energy-OPLS-2005>
-373.027923583984

> <r_mmod_Solvation_Energy-OPLS-2005>
-457.413330078125

> <b_mmod_Minimization_Converged-OPLS-2005>
0

> <r_mmod_RMS_Derivative-OPLS-2005>
1.49230825901031

$$$$
10
                    3D
 Structure written by MMmdl.
167176  0  0  1  0            999 V2000
  -30.6870  -14.5396   20.4987 C   0  0  0  0  0  0
  -30.4156  -12.3365   19.4237 C   0  0  0  0  0  0
  -29.4820  -12.4935   18.2059 C   0  0  0  0  0  0
  -28.0100  -12.3407   18.6309 C   0  0  0  0  0  0
  -27.6504  -13.2033   19.8685 C   0  0  2  0  0  0
  -28.7027  -13.0558   20.9912 C   0  0  0  0  0  0
  -25.2560  -13.8149   20.5716 C   0  0  0  0  0  0
  -24.1805  -13.0406   20.9183 C   0  0  0  0  0  0
  -24.6369  -11.6885   20.8744 C   0  0  0  0  0  0
  -23.9037  -10.4269   21.0408 C   0  0  0  0  0  0
  -24.3591   -9.4188   21.9185 C   0  0  0  0  0  0
  -23.6267   -8.2224   22.0758 C   0  0  0  0  0  0
  -22.4263   -8.0264   21.3537 C   0  0  0  0  0  0
  -21.9887   -9.0232   20.4649 C   0  0  0  0  0  0
  -22.7208  -10.2114   20.3057 C   0  0  0  0  0  0
  -21.6849   -6.0720   22.5267 C   0  0  0  0  0  0
  -21.4011   -6.5622   23.8198 C   0  0  0  0  0  0
  -21.3654   -5.6783   24.9159 C   0  0  0  0  0  0
  -21.6051   -4.3051   24.7224 C   0  0  0  0  0  0
  -21.8817   -3.8138   23.4345 C   0  0  0  0  0  0
  -21.9189   -4.6948   22.3398 C   0  0  0  0  0  0
  -22.7839  -13.5220   21.1836 C   0  0  0  0  0  0
  -22.1660   -4.2138   21.0976 F   0  0  0  0  0  0
  -21.5629   -3.4536   25.7735 F   0  0  0  0  0  0
  -30.0217  -13.3527   20.4136 N   0  0  0  0  0  0
  -26.2972  -12.9299   20.3392 N   0  0  0  0  0  0
  -25.9302  -11.6462   20.5804 N   0  0  0  0  0  0
  -22.0500  -12.8203   22.0419 N   0  0  0  0  0  0
  -25.4267  -15.1862   20.4157 N   0  0  0  0  0  0
  -31.8617  -14.6651   20.1448 O   0  0  0  0  0  0
  -21.6624   -6.8860   21.4233 O   0  0  0  0  0  0
  -22.3522  -14.5524   20.6699 O   0  0  0  0  0  0
  -24.6149  -31.8659   23.2059 C   0  0  0  0  0  0
  -25.9039  -32.4807   23.8379 C   0  0  1  0  0  0
  -27.2599  -27.4268   20.0918 C   0  0  0  0  0  0
  -25.5889  -33.8607   24.2310 N   0  0  0  0  0  0
  -23.4060  -30.4831   21.5466 C   0  0  2  0  0  0
  -24.8601  -28.9462   20.1124 C   0  0  0  0  0  0
  -22.7417  -29.4640   22.5006 C   0  0  0  0  0  0
  -18.0271  -28.1367   22.8494 C   0  0  0  0  0  0
  -24.1476  -36.7268   23.2649 C   0  0  0  0  0  0
  -25.9356  -30.8225   21.3676 C   0  0  0  0  0  0
  -26.0159  -29.4572   20.7128 C   0  0  0  0  0  0
  -27.2106  -28.7003   20.7072 C   0  0  0  0  0  0
  -26.0777  -26.9219   19.5009 C   0  0  0  0  0  0
  -24.8877  -27.6778   19.5052 C   0  0  0  0  0  0
  -23.6121  -29.8016   20.1662 C   0  0  0  0  0  0
  -25.4102  -36.3090   24.0347 C   0  0  1  0  0  0
  -20.5860  -28.3650   23.1317 C   0  0  2  0  0  0
  -20.6745  -26.9373   22.5424 C   0  0  0  0  0  0
  -19.5724  -26.6366   21.5216 C   0  0  0  0  0  0
  -18.1899  -26.7918   22.1613 C   0  0  0  0  0  0
  -19.1525  -28.8827   23.2895 C   0  0  0  0  0  0
  -18.9453  -30.1440   23.8887 C   0  0  0  0  0  0
  -17.6460  -30.6577   24.0554 C   0  0  0  0  0  0
  -25.9039  -34.9466   23.5131 C   0  0  0  0  0  0
  -16.5354  -29.9061   23.6351 C   0  0  0  0  0  0
  -16.7266  -28.6483   23.0367 C   0  0  0  0  0  0
  -26.4465  -31.6611   25.0733 C   0  0  0  0  0  0
  -25.3711  -31.3717   26.1484 C   0  0  0  0  0  0
  -27.0330  -30.3068   24.6151 C   0  0  0  0  0  0
  -27.6044  -32.4376   25.7456 C   0  0  0  0  0  0
  -27.5573  -37.1757   24.8458 C   0  0  0  0  0  0
  -21.4147  -29.3010   22.3722 N   0  0  0  0  0  0
  -26.4274  -37.3785   23.9441 N   0  0  0  0  0  0
  -24.6699  -31.0714   22.0984 N   0  0  0  0  0  0
  -23.4180  -28.8203   23.3072 O   0  0  0  0  0  0
  -28.4529  -26.7242   20.1328 O   0  0  0  0  0  0
  -26.5600  -34.8917   22.4691 O   0  0  0  0  0  0
  -23.5339  -32.1460   23.7411 O   0  0  0  0  0  0
  -29.4331  -22.6262   21.3804 C   0  0  0  0  0  0
  -29.1121  -21.8878   19.0969 C   0  0  0  0  0  0
  -29.2006  -23.9688   20.9890 C   0  0  0  0  0  0
  -28.8790  -23.2297   18.7077 C   0  0  0  0  0  0
  -29.4086  -21.5602   20.4458 C   0  0  0  0  0  0
  -28.9210  -24.2883   19.6406 C   0  0  0  0  0  0
  -32.7529  -17.0591   23.8361 C   0  0  0  0  0  0
  -29.4864  -16.4710   19.5983 C   0  0  0  0  0  0
  -29.3431  -17.6229   20.5856 C   0  0  1  0  0  0
  -30.4798  -16.9045   21.3347 C   0  0  1  0  0  0
  -33.7209  -18.0177   24.5165 C   0  0  0  0  0  0
  -29.7389  -20.1237   20.9444 C   0  0  0  0  0  0
  -28.7550  -25.7327   19.1367 C   0  0  0  0  0  0
  -30.4723  -16.8014   22.8714 C   0  0  0  0  0  0
  -29.9268  -15.6439   20.7474 N   0  0  0  0  0  0
  -31.5639  -17.5584   23.4771 N   0  0  0  0  0  0
  -29.5224  -18.9978   19.9992 N   0  3  0  0  0  0
  -33.0741  -15.8848   23.6501 O   0  0  0  0  0  0
  -31.4573  -12.4334   19.1123 H   0  0  0  0  0  0
  -30.3212  -11.3365   19.8495 H   0  0  0  0  0  0
  -29.7261  -11.7514   17.4449 H   0  0  0  0  0  0
  -29.6304  -13.4698   17.7416 H   0  0  0  0  0  0
  -27.8394  -11.2874   18.8535 H   0  0  0  0  0  0
  -27.3490  -12.5833   17.7978 H   0  0  0  0  0  0
  -27.6641  -14.2348   19.5314 H   0  0  0  0  0  0
  -28.6965  -12.0441   21.3994 H   0  0  0  0  0  0
  -28.4732  -13.7216   21.8242 H   0  0  0  0  0  0
  -25.2738   -9.5667   22.4748 H   0  0  0  0  0  0
  -23.9979   -7.4626   22.7486 H   0  0  0  0  0  0
  -21.0814   -8.8742   19.8960 H   0  0  0  0  0  0
  -22.3660  -10.9648   19.6169 H   0  0  0  0  0  0
  -21.2005   -7.6131   23.9693 H   0  0  0  0  0  0
  -21.1479   -6.0518   25.9059 H   0  0  0  0  0  0
  -22.0608   -2.7608   23.2844 H   0  0  0  0  0  0
  -22.4123  -11.9861   22.4779 H   0  0  0  0  0  0
  -21.1144  -13.1251   22.2699 H   0  0  0  0  0  0
  -24.6582  -15.8378   20.5288 H   0  0  0  0  0  0
  -26.2910  -15.6321   20.1374 H   0  0  0  0  0  0
  -26.7105  -32.5519   23.1138 H   0  0  0  0  0  0
  -25.0049  -33.9779   25.0457 H   0  0  0  0  0  0
  -22.6965  -31.2998   21.3955 H   0  0  0  0  0  0
  -23.3779  -35.9552   23.3293 H   0  0  0  0  0  0
  -24.3555  -36.8922   22.2064 H   0  0  0  0  0  0
  -23.7199  -37.6448   23.6690 H   0  0  0  0  0  0
  -26.0555  -31.5933   20.6047 H   0  0  0  0  0  0
  -26.8176  -30.8710   21.9936 H   0  0  0  0  0  0
  -28.1057  -29.0861   21.1769 H   0  0  0  0  0  0
  -26.0510  -25.9379   19.0555 H   0  0  0  0  0  0
  -23.9964  -27.2745   19.0476 H   0  0  0  0  0  0
  -23.6893  -30.5656   19.3920 H   0  0  0  0  0  0
  -22.7416  -29.2025   19.8923 H   0  0  0  0  0  0
  -25.1264  -36.1933   25.0834 H   0  0  0  0  0  0
  -20.9944  -28.3221   24.1449 H   0  0  0  0  0  0
  -20.5637  -26.2250   23.3611 H   0  0  0  0  0  0
  -21.6607  -26.7371   22.1221 H   0  0  0  0  0  0
  -19.6876  -25.6277   21.1245 H   0  0  0  0  0  0
  -19.6695  -27.3175   20.6753 H   0  0  0  0  0  0
  -17.4169  -26.6719   21.4002 H   0  0  0  0  0  0
  -18.0259  -26.0031   22.8968 H   0  0  0  0  0  0
  -19.7934  -30.7262   24.2238 H   0  0  0  0  0  0
  -17.5015  -31.6262   24.5138 H   0  0  0  0  0  0
  -15.5353  -30.2951   23.7695 H   0  0  0  0  0  0
  -15.8668  -28.0809   22.7078 H   0  0  0  0  0  0
  -24.5910  -30.7032   25.7809 H   0  0  0  0  0  0
  -24.8860  -32.2860   26.4912 H   0  0  0  0  0  0
  -25.8069  -30.8909   27.0257 H   0  0  0  0  0  0
  -26.2896  -29.6792   24.1225 H   0  0  0  0  0  0
  -27.4131  -29.7347   25.4631 H   0  0  0  0  0  0
  -27.8700  -30.4392   23.9286 H   0  0  0  0  0  0
  -27.2687  -33.3717   26.1953 H   0  0  0  0  0  0
  -28.3840  -32.6892   25.0248 H   0  0  0  0  0  0
  -28.0717  -31.8566   26.5416 H   0  0  0  0  0  0
  -28.2543  -38.0093   24.7584 H   0  0  0  0  0  0
  -28.1119  -36.2645   24.6181 H   0  0  0  0  0  0
  -27.2299  -37.1270   25.8853 H   0  0  0  0  0  0
  -20.9330  -29.8712   21.6908 H   0  0  0  0  0  0
  -26.0165  -38.2847   24.1513 H   0  0  0  0  0  0
  -29.6572  -22.4158   22.4177 H   0  0  0  0  0  0
  -29.0789  -21.1327   18.3268 H   0  0  0  0  0  0
  -29.2642  -24.7562   21.7269 H   0  0  0  0  0  0
  -28.6852  -23.4578   17.6681 H   0  0  0  0  0  0
  -30.2510  -16.6194   18.8305 H   0  0  0  0  0  0
  -28.5376  -16.1880   19.1455 H   0  0  0  0  0  0
  -28.3997  -17.5644   21.1343 H   0  0  0  0  0  0
  -31.4681  -17.1511   20.9336 H   0  0  0  0  0  0
  -33.6080  -17.9611   25.5996 H   0  0  0  0  0  0
  -33.5406  -19.0475   24.2056 H   0  0  0  0  0  0
  -34.7518  -17.7660   24.2670 H   0  0  0  0  0  0
  -29.1462  -19.9392   21.8396 H   0  0  0  0  0  0
  -30.7860  -20.0940   21.2514 H   0  0  0  0  0  0
  -28.0692  -25.7674   18.2923 H   0  0  0  0  0  0
  -29.7151  -26.0150   18.7012 H   0  0  0  0  0  0
  -30.5344  -15.7617   23.1989 H   0  0  0  0  0  0
  -29.5308  -17.1691   23.2822 H   0  0  0  0  0  0
  -31.3856  -18.5279   23.7044 H   0  0  0  0  0  0
  -28.6761  -19.2091   19.4966 H   0  0  0  0  0  0
  -30.2731  -19.0017   19.3282 H   0  0  0  0  0  0
  1 25  1  0  0  0
  1 30  2  0  0  0
  1 85  1  0  0  0
  2  3  1  0  0  0
  2 25  1  0  0  0
  2 89  1  0  0  0
  2 90  1  0  0  0
  3  4  1  0  0  0
  3 91  1  0  0  0
  3 92  1  0  0  0
  4  5  1  0  0  0
  4 93  1  0  0  0
  4 94  1  0  0  0
  5  6  1  0  0  0
  5 26  1  0  0  0
  5 95  1  0  0  0
  6 25  1  0  0  0
  6 96  1  0  0  0
  6 97  1  0  0  0
  7  8  2  0  0  0
  7 26  1  0  0  0
  7 29  1  0  0  0
  8  9  1  0  0  0
  8 22  1  0  0  0
  9 10  1  0  0  0
  9 27  2  0  0  0
 10 11  2  0  0  0
 10 15  1  0  0  0
 11 12  1  0  0  0
 11 98  1  0  0  0
 12 13  2  0  0  0
 12 99  1  0  0  0
 13 14  1  0  0  0
 13 31  1  0  0  0
 14 15  2  0  0  0
 14100  1  0  0  0
 15101  1  0  0  0
 16 17  2  0  0  0
 16 21  1  0  0  0
 16 31  1  0  0  0
 17 18  1  0  0  0
 17102  1  0  0  0
 18 19  2  0  0  0
 18103  1  0  0  0
 19 20  1  0  0  0
 19 24  1  0  0  0
 20 21  2  0  0  0
 20104  1  0  0  0
 21 23  1  0  0  0
 22 28  1  0  0  0
 22 32  2  0  0  0
 26 27  1  0  0  0
 28105  1  0  0  0
 28106  1  0  0  0
 29107  1  0  0  0
 29108  1  0  0  0
 33 34  1  0  0  0
 33 66  1  0  0  0
 33 70  2  0  0  0
 34 36  1  0  0  0
 34 59  1  0  0  0
 34109  1  0  0  0
 35 44  2  0  0  0
 35 45  1  0  0  0
 35 68  1  0  0  0
 36 56  1  0  0  0
 36110  1  0  0  0
 37 39  1  0  0  0
 37 47  1  0  0  0
 37 66  1  0  0  0
 37111  1  0  0  0
 38 43  2  0  0  0
 38 46  1  0  0  0
 38 47  1  0  0  0
 39 64  1  0  0  0
 39 67  2  0  0  0
 40 52  1  0  0  0
 40 53  2  0  0  0
 40 58  1  0  0  0
 41112  1  0  0  0
 41113  1  0  0  0
 41114  1  0  0  0
 41 48  1  0  0  0
 42 43  1  0  0  0
 42 66  1  0  0  0
 42115  1  0  0  0
 42116  1  0  0  0
 43 44  1  0  0  0
 44117  1  0  0  0
 45 46  2  0  0  0
 45118  1  0  0  0
 46119  1  0  0  0
 47120  1  0  0  0
 47121  1  0  0  0
 48 56  1  0  0  0
 48 65  1  0  0  0
 48122  1  0  0  0
 49 50  1  0  0  0
 49 53  1  0  0  0
 49 64  1  0  0  0
 49123  1  0  0  0
 50 51  1  0  0  0
 50124  1  0  0  0
 50125  1  0  0  0
 51 52  1  0  0  0
 51126  1  0  0  0
 51127  1  0  0  0
 52128  1  0  0  0
 52129  1  0  0  0
 53 54  1  0  0  0
 54 55  2  0  0  0
 54130  1  0  0  0
 55 57  1  0  0  0
 55131  1  0  0  0
 56 69  2  0  0  0
 57 58  2  0  0  0
 57132  1  0  0  0
 58133  1  0  0  0
 59 60  1  0  0  0
 59 61  1  0  0  0
 59 62  1  0  0  0
 60134  1  0  0  0
 60135  1  0  0  0
 60136  1  0  0  0
 61137  1  0  0  0
 61138  1  0  0  0
 61139  1  0  0  0
 62140  1  0  0  0
 62141  1  0  0  0
 62142  1  0  0  0
 63 65  1  0  0  0
 63143  1  0  0  0
 63144  1  0  0  0
 63145  1  0  0  0
 64146  1  0  0  0
 65147  1  0  0  0
 68 83  1  0  0  0
 71 73  2  0  0  0
 71 75  1  0  0  0
 71148  1  0  0  0
 72 74  1  0  0  0
 72 75  2  0  0  0
 72149  1  0  0  0
 73 76  1  0  0  0
 73150  1  0  0  0
 74 76  2  0  0  0
 74151  1  0  0  0
 75 82  1  0  0  0
 76 83  1  0  0  0
 77 81  1  0  0  0
 77 86  1  0  0  0
 77 88  2  0  0  0
 78 79  1  0  0  0
 78 85  1  0  0  0
 78152  1  0  0  0
 78153  1  0  0  0
 79 80  1  0  0  0
 79 87  1  0  0  0
 79154  1  0  0  0
 80 84  1  0  0  0
 80 85  1  0  0  0
 80155  1  0  0  0
 81156  1  0  0  0
 81157  1  0  0  0
 81158  1  0  0  0
 82 87  1  0  0  0
 82159  1  0  0  0
 82160  1  0  0  0
 83161  1  0  0  0
 83162  1  0  0  0
 84 86  1  0  0  0
 84163  1  0  0  0
 84164  1  0  0  0
 86165  1  0  0  0
 87166  1  0  0  0
 87167  1  0  0  0
M  CHG  1  87   1
M  ISO  4   1 100  68 101  83 101  85 100
M  END
> <chiral flag>
0

> <version>
0

> <s_m_source_file>
/data/baiqing/PycharmProjects/Reinvent-master-3.2/result/LINK_invent/BTK/process_docking_weight1_custom_sum_contain_oxygen_bond_distance_aromatic_linkinvent_7_9_3/rearranged_h_0137.sdf

> <i_m_source_file_index>
11

> <r_mmod_Potential_Energy-OPLS-2005>
-218.48405456543

> <r_mmod_Stretch_Energy-OPLS-2005>
47.9694213867188

> <r_mmod_Bend_Energy-OPLS-2005>
131.042709350586

> <r_mmod_Torsional_Energy-OPLS-2005>
306.211822509766

> <r_mmod_Improper_Torsional_Energy-OPLS-2005>
13.6794271469116

> <r_mmod_Van_der_Waal_Energy-OPLS-2005>
140.357833862305

> <r_mmod_Electrostatic_Energy-OPLS-2005>
-339.155303955078

> <r_mmod_Solvation_Energy-OPLS-2005>
-540.939086914062

> <b_mmod_Minimization_Converged-OPLS-2005>
0

> <r_mmod_RMS_Derivative-OPLS-2005>
3.26942324638367

$$$$
11
                    3D
 Structure written by MMmdl.
153162  0  0  1  0            999 V2000
  -30.5211  -15.0051   20.4067 C   0  0  0  0  0  0
  -30.4394  -12.6285   19.4944 C   0  0  0  0  0  0
  -29.5203  -12.5318   18.2547 C   0  0  0  0  0  0
  -28.0561  -12.3084   18.6778 C   0  0  0  0  0  0
  -27.6235  -13.2517   19.8305 C   0  0  2  0  0  0
  -28.6668  -13.3097   20.9648 C   0  0  0  0  0  0
  -25.2441  -13.8217   20.5715 C   0  0  0  0  0  0
  -24.1767  -13.0436   20.9239 C   0  0  0  0  0  0
  -24.6390  -11.6923   20.8760 C   0  0  0  0  0  0
  -23.9078  -10.4292   21.0410 C   0  0  0  0  0  0
  -24.3626   -9.4205   21.9187 C   0  0  0  0  0  0
  -23.6299   -8.2241   22.0754 C   0  0  0  0  0  0
  -22.4280   -8.0281   21.3544 C   0  0  0  0  0  0
  -21.9919   -9.0255   20.4646 C   0  0  0  0  0  0
  -22.7250  -10.2133   20.3058 C   0  0  0  0  0  0
  -21.6855   -6.0737   22.5279 C   0  0  0  0  0  0
  -21.4014   -6.5640   23.8212 C   0  0  0  0  0  0
  -21.3659   -5.6793   24.9175 C   0  0  0  0  0  0
  -21.6044   -4.3055   24.7225 C   0  0  0  0  0  0
  -21.8819   -3.8147   23.4346 C   0  0  0  0  0  0
  -21.9193   -4.6964   22.3402 C   0  0  0  0  0  0
  -22.7787  -13.5203   21.1892 C   0  0  0  0  0  0
  -22.1662   -4.2150   21.0980 F   0  0  0  0  0  0
  -21.5628   -3.4539   25.7738 F   0  0  0  0  0  0
  -29.9299  -13.7392   20.3523 N   0  0  0  0  0  0
  -26.2859  -12.9454   20.3223 N   0  0  0  0  0  0
  -25.9321  -11.6581   20.5733 N   0  0  0  0  0  0
  -22.0441  -12.8188   22.0447 N   0  0  0  0  0  0
  -25.4090  -15.1949   20.4137 N   0  0  0  0  0  0
  -31.7374  -15.0505   20.1910 O   0  0  0  0  0  0
  -21.6642   -6.8880   21.4241 O   0  0  0  0  0  0
  -22.3468  -14.5507   20.6735 O   0  0  0  0  0  0
  -24.6476  -31.8389   23.1821 C   0  0  0  0  0  0
  -25.9228  -32.4666   23.8231 C   0  0  1  0  0  0
  -27.2208  -27.0906   20.1513 C   0  0  0  0  0  0
  -25.5957  -33.8473   24.2150 N   0  0  0  0  0  0
  -23.4522  -30.4561   21.5294 C   0  0  2  0  0  0
  -24.8992  -28.8693   20.1118 C   0  0  0  0  0  0
  -22.7583  -29.4524   22.4846 C   0  0  0  0  0  0
  -18.0307  -28.1399   22.8477 C   0  0  0  0  0  0
  -24.1492  -36.7241   23.2645 C   0  0  0  0  0  0
  -26.0104  -30.7002   21.3827 C   0  0  0  0  0  0
  -26.0794  -29.3066   20.7236 C   0  0  0  0  0  0
  -27.2372  -28.4361   20.7175 C   0  0  0  0  0  0
  -25.9986  -26.7482   19.5343 C   0  0  0  0  0  0
  -24.8736  -27.6048   19.5031 C   0  0  0  0  0  0
  -23.6792  -29.7789   20.1512 C   0  0  0  0  0  0
  -25.4127  -36.3013   24.0311 C   0  0  1  0  0  0
  -20.5921  -28.3727   23.1230 C   0  0  2  0  0  0
  -20.6790  -26.9427   22.5405 C   0  0  0  0  0  0
  -19.5764  -26.6382   21.5214 C   0  0  0  0  0  0
  -18.1945  -26.7936   22.1625 C   0  0  0  0  0  0
  -19.1565  -28.8882   23.2844 C   0  0  0  0  0  0
  -18.9481  -30.1478   23.8871 C   0  0  0  0  0  0
  -17.6477  -30.6595   24.0559 C   0  0  0  0  0  0
  -25.9082  -34.9392   23.5044 C   0  0  0  0  0  0
  -16.5368  -29.9086   23.6339 C   0  0  0  0  0  0
  -16.7291  -28.6505   23.0358 C   0  0  0  0  0  0
  -26.4533  -31.6555   25.0696 C   0  0  0  0  0  0
  -25.3704  -31.3758   26.1383 C   0  0  0  0  0  0
  -27.0408  -30.2948   24.6306 C   0  0  0  0  0  0
  -27.6051  -32.4334   25.7491 C   0  0  0  0  0  0
  -27.5574  -37.1776   24.8466 C   0  0  0  0  0  0
  -21.4271  -29.3046   22.3596 N   0  0  0  0  0  0
  -26.4283  -37.3734   23.9410 N   0  0  0  0  0  0
  -24.7239  -31.0210   22.0866 N   0  0  0  0  0  0
  -23.4208  -28.8084   23.3019 O   0  0  0  0  0  0
  -28.3169  -26.1410   20.2240 O   0  0  0  0  0  0
  -26.5677  -34.8902   22.4629 O   0  0  0  0  0  0
  -23.5587  -32.1283   23.7022 O   0  0  0  0  0  0
  -28.3979  -19.0963   19.1237 C   0  0  0  0  0  0
  -27.7451  -20.2627   18.6222 C   0  0  0  0  0  0
  -29.4668  -20.5178   20.7465 C   0  0  0  0  0  0
  -28.7926  -21.7553   20.2505 C   0  0  0  0  0  0
  -29.3071  -19.1351   20.2066 C   0  0  0  0  0  0
  -27.9348  -21.5715   19.1501 C   0  0  0  0  0  0
  -28.8246  -23.2871   20.8348 C   0  0  0  0  0  0
  -27.8636  -24.0199   18.5320 C   0  0  0  0  0  0
  -28.4298  -24.5970   19.8706 C   0  0  1  0  0  0
  -30.1273  -17.7507   20.6633 C   0  0  0  0  0  0
  -27.2352  -22.6778   18.6093 N   0  0  0  0  0  0
  -29.7456  -16.2085   20.5036 N   0  0  0  0  0  0
  -31.4692  -12.7994   19.1768 H   0  0  0  0  0  0
  -30.4500  -11.6871   20.0462 H   0  0  0  0  0  0
  -29.8492  -11.7240   17.5996 H   0  0  0  0  0  0
  -29.5963  -13.4506   17.6710 H   0  0  0  0  0  0
  -27.9634  -11.2705   18.9996 H   0  0  0  0  0  0
  -27.3903  -12.4220   17.8215 H   0  0  0  0  0  0
  -27.5760  -14.2466   19.3868 H   0  0  0  0  0  0
  -28.7719  -12.3422   21.4577 H   0  0  0  0  0  0
  -28.3583  -14.0197   21.7339 H   0  0  0  0  0  0
  -25.2769   -9.5682   22.4765 H   0  0  0  0  0  0
  -24.0006   -7.4632   22.7474 H   0  0  0  0  0  0
  -21.0850   -8.8776   19.8951 H   0  0  0  0  0  0
  -22.3708  -10.9674   19.6169 H   0  0  0  0  0  0
  -21.2007   -7.6148   23.9716 H   0  0  0  0  0  0
  -21.1482   -6.0523   25.9078 H   0  0  0  0  0  0
  -22.0598   -2.7610   23.2847 H   0  0  0  0  0  0
  -22.4069  -11.9854   22.4835 H   0  0  0  0  0  0
  -21.1054  -13.1199   22.2653 H   0  0  0  0  0  0
  -24.6369  -15.8429   20.5255 H   0  0  0  0  0  0
  -26.2459  -15.6376   20.0584 H   0  0  0  0  0  0
  -26.7292  -32.5252   23.0953 H   0  0  0  0  0  0
  -25.0072  -33.9576   25.0277 H   0  0  0  0  0  0
  -22.7572  -31.2833   21.3707 H   0  0  0  0  0  0
  -23.3764  -35.9562   23.3285 H   0  0  0  0  0  0
  -24.3573  -36.8900   22.2063 H   0  0  0  0  0  0
  -23.7236  -37.6423   23.6703 H   0  0  0  0  0  0
  -26.1699  -31.4528   20.6094 H   0  0  0  0  0  0
  -26.8791  -30.7509   22.0276 H   0  0  0  0  0  0
  -28.1408  -28.7730   21.2057 H   0  0  0  0  0  0
  -25.8595  -25.7684   19.1128 H   0  0  0  0  0  0
  -23.9647  -27.2550   19.0331 H   0  0  0  0  0  0
  -23.8205  -30.5501   19.3932 H   0  0  0  0  0  0
  -22.7920  -29.2241   19.8408 H   0  0  0  0  0  0
  -25.1317  -36.1829   25.0802 H   0  0  0  0  0  0
  -21.0014  -28.3321   24.1351 H   0  0  0  0  0  0
  -20.5680  -26.2342   23.3628 H   0  0  0  0  0  0
  -21.6655  -26.7426   22.1205 H   0  0  0  0  0  0
  -19.6924  -25.6285   21.1261 H   0  0  0  0  0  0
  -19.6701  -27.3178   20.6733 H   0  0  0  0  0  0
  -17.4213  -26.6682   21.4029 H   0  0  0  0  0  0
  -18.0344  -26.0085   22.9027 H   0  0  0  0  0  0
  -19.7956  -30.7302   24.2228 H   0  0  0  0  0  0
  -17.5029  -31.6272   24.5167 H   0  0  0  0  0  0
  -15.5367  -30.2980   23.7678 H   0  0  0  0  0  0
  -15.8692  -28.0815   22.7089 H   0  0  0  0  0  0
  -24.5893  -30.7097   25.7699 H   0  0  0  0  0  0
  -24.8883  -32.2944   26.4736 H   0  0  0  0  0  0
  -25.7974  -30.8977   27.0207 H   0  0  0  0  0  0
  -26.3036  -29.6657   24.1304 H   0  0  0  0  0  0
  -27.4003  -29.7264   25.4894 H   0  0  0  0  0  0
  -27.8947  -30.4179   23.9641 H   0  0  0  0  0  0
  -27.2634  -33.3658   26.1997 H   0  0  0  0  0  0
  -28.3900  -32.6857   25.0349 H   0  0  0  0  0  0
  -28.0677  -31.8507   26.5467 H   0  0  0  0  0  0
  -28.2577  -38.0085   24.7516 H   0  0  0  0  0  0
  -28.1083  -36.2613   24.6288 H   0  0  0  0  0  0
  -27.2291  -37.1414   25.8868 H   0  0  0  0  0  0
  -20.9491  -29.8745   21.6757 H   0  0  0  0  0  0
  -26.0143  -38.2797   24.1421 H   0  0  0  0  0  0
  -28.2060  -18.1491   18.6391 H   0  0  0  0  0  0
  -27.0729  -20.1328   17.7856 H   0  0  0  0  0  0
  -30.1402  -20.6364   21.5838 H   0  0  0  0  0  0
  -29.8087  -23.4528   21.2731 H   0  0  0  0  0  0
  -28.1335  -23.2921   21.6771 H   0  0  0  0  0  0
  -28.6849  -23.9294   17.8179 H   0  0  0  0  0  0
  -27.1811  -24.7108   18.0458 H   0  0  0  0  0  0
  -29.4480  -24.7577   19.5132 H   0  0  0  0  0  0
  -30.3238  -17.8788   21.7282 H   0  0  0  0  0  0
  -31.1096  -17.8485   20.1993 H   0  0  0  0  0  0
  -26.6020  -22.4643   17.8423 H   0  0  0  0  0  0
  -28.7559  -16.0320   20.5822 H   0  0  0  0  0  0
  1 25  1  0  0  0
  1 30  2  0  0  0
  1 82  1  0  0  0
  2  3  1  0  0  0
  2 25  1  0  0  0
  2 83  1  0  0  0
  2 84  1  0  0  0
  3  4  1  0  0  0
  3 85  1  0  0  0
  3 86  1  0  0  0
  4  5  1  0  0  0
  4 87  1  0  0  0
  4 88  1  0  0  0
  5  6  1  0  0  0
  5 26  1  0  0  0
  5 89  1  0  0  0
  6 25  1  0  0  0
  6 90  1  0  0  0
  6 91  1  0  0  0
  7  8  2  0  0  0
  7 26  1  0  0  0
  7 29  1  0  0  0
  8  9  1  0  0  0
  8 22  1  0  0  0
  9 10  1  0  0  0
  9 27  2  0  0  0
 10 11  2  0  0  0
 10 15  1  0  0  0
 11 12  1  0  0  0
 11 92  1  0  0  0
 12 13  2  0  0  0
 12 93  1  0  0  0
 13 14  1  0  0  0
 13 31  1  0  0  0
 14 15  2  0  0  0
 14 94  1  0  0  0
 15 95  1  0  0  0
 16 17  2  0  0  0
 16 21  1  0  0  0
 16 31  1  0  0  0
 17 18  1  0  0  0
 17 96  1  0  0  0
 18 19  2  0  0  0
 18 97  1  0  0  0
 19 20  1  0  0  0
 19 24  1  0  0  0
 20 21  2  0  0  0
 20 98  1  0  0  0
 21 23  1  0  0  0
 22 28  1  0  0  0
 22 32  2  0  0  0
 26 27  1  0  0  0
 28 99  1  0  0  0
 28100  1  0  0  0
 29101  1  0  0  0
 29102  1  0  0  0
 33 34  1  0  0  0
 33 66  1  0  0  0
 33 70  2  0  0  0
 34 36  1  0  0  0
 34 59  1  0  0  0
 34103  1  0  0  0
 35 44  2  0  0  0
 35 45  1  0  0  0
 35 68  1  0  0  0
 36 56  1  0  0  0
 36104  1  0  0  0
 37 39  1  0  0  0
 37 47  1  0  0  0
 37 66  1  0  0  0
 37105  1  0  0  0
 38 43  2  0  0  0
 38 46  1  0  0  0
 38 47  1  0  0  0
 39 64  1  0  0  0
 39 67  2  0  0  0
 40 52  1  0  0  0
 40 53  2  0  0  0
 40 58  1  0  0  0
 41106  1  0  0  0
 41107  1  0  0  0
 41108  1  0  0  0
 41 48  1  0  0  0
 42 43  1  0  0  0
 42 66  1  0  0  0
 42109  1  0  0  0
 42110  1  0  0  0
 43 44  1  0  0  0
 44111  1  0  0  0
 45 46  2  0  0  0
 45112  1  0  0  0
 46113  1  0  0  0
 47114  1  0  0  0
 47115  1  0  0  0
 48 56  1  0  0  0
 48 65  1  0  0  0
 48116  1  0  0  0
 49 50  1  0  0  0
 49 53  1  0  0  0
 49 64  1  0  0  0
 49117  1  0  0  0
 50 51  1  0  0  0
 50118  1  0  0  0
 50119  1  0  0  0
 51 52  1  0  0  0
 51120  1  0  0  0
 51121  1  0  0  0
 52122  1  0  0  0
 52123  1  0  0  0
 53 54  1  0  0  0
 54 55  2  0  0  0
 54124  1  0  0  0
 55 57  1  0  0  0
 55125  1  0  0  0
 56 69  2  0  0  0
 57 58  2  0  0  0
 57126  1  0  0  0
 58127  1  0  0  0
 59 60  1  0  0  0
 59 61  1  0  0  0
 59 62  1  0  0  0
 60128  1  0  0  0
 60129  1  0  0  0
 60130  1  0  0  0
 61131  1  0  0  0
 61132  1  0  0  0
 61133  1  0  0  0
 62134  1  0  0  0
 62135  1  0  0  0
 62136  1  0  0  0
 63 65  1  0  0  0
 63137  1  0  0  0
 63138  1  0  0  0
 63139  1  0  0  0
 64140  1  0  0  0
 65141  1  0  0  0
 68 79  1  0  0  0
 71 72  2  0  0  0
 71 75  1  0  0  0
 71142  1  0  0  0
 72 76  1  0  0  0
 72143  1  0  0  0
 73 74  1  0  0  0
 73 75  2  0  0  0
 73144  1  0  0  0
 74 76  2  0  0  0
 74 77  1  0  0  0
 75 80  1  0  0  0
 76 81  1  0  0  0
 77 79  1  0  0  0
 77145  1  0  0  0
 77146  1  0  0  0
 78 79  1  0  0  0
 78 81  1  0  0  0
 78147  1  0  0  0
 78148  1  0  0  0
 79149  1  0  0  0
 80 82  1  0  0  0
 80150  1  0  0  0
 80151  1  0  0  0
 81152  1  0  0  0
 82153  1  0  0  0
M  ISO  4   1 100  68 101  79 101  82 100
M  END
> <chiral flag>
0

> <version>
0

> <s_m_source_file>
/data/baiqing/PycharmProjects/Reinvent-master-3.2/result/LINK_invent/BTK/process_docking_weight1_custom_sum_contain_oxygen_bond_distance_aromatic_linkinvent_7_9_3/rearranged_h_0137.sdf

> <i_m_source_file_index>
12

> <r_mmod_Potential_Energy-OPLS-2005>
557.029113769531

> <r_mmod_Stretch_Energy-OPLS-2005>
285.406951904297

> <r_mmod_Bend_Energy-OPLS-2005>
336.946716308594

> <r_mmod_Torsional_Energy-OPLS-2005>
213.463684082031

> <r_mmod_Improper_Torsional_Energy-OPLS-2005>
7.28381729125977

> <r_mmod_Van_der_Waal_Energy-OPLS-2005>
133.453048706055

> <r_mmod_Electrostatic_Energy-OPLS-2005>
-417.816192626953

> <r_mmod_Solvation_Energy-OPLS-2005>
-229.76025390625

> <b_mmod_Minimization_Converged-OPLS-2005>
0

> <r_mmod_RMS_Derivative-OPLS-2005>
0.132777750492096

$$$$
12
                    3D
 Structure written by MMmdl.
160169  0  0  1  0            999 V2000
  -30.5018  -15.0835   20.4016 C   0  0  0  0  0  0
  -30.4370  -12.6829   19.5110 C   0  0  0  0  0  0
  -29.5218  -12.5443   18.2706 C   0  0  0  0  0  0
  -28.0649  -12.2985   18.6995 C   0  0  0  0  0  0
  -27.6204  -13.2574   19.8331 C   0  0  2  0  0  0
  -28.6594  -13.3554   20.9707 C   0  0  0  0  0  0
  -25.2428  -13.8224   20.5737 C   0  0  0  0  0  0
  -24.1758  -13.0431   20.9243 C   0  0  0  0  0  0
  -24.6389  -11.6921   20.8761 C   0  0  0  0  0  0
  -23.9079  -10.4289   21.0405 C   0  0  0  0  0  0
  -24.3632   -9.4205   21.9182 C   0  0  0  0  0  0
  -23.6303   -8.2242   22.0756 C   0  0  0  0  0  0
  -22.4284   -8.0280   21.3547 C   0  0  0  0  0  0
  -21.9921   -9.0250   20.4648 C   0  0  0  0  0  0
  -22.7250  -10.2127   20.3055 C   0  0  0  0  0  0
  -21.6856   -6.0735   22.5273 C   0  0  0  0  0  0
  -21.4017   -6.5642   23.8205 C   0  0  0  0  0  0
  -21.3658   -5.6798   24.9169 C   0  0  0  0  0  0
  -21.6044   -4.3060   24.7224 C   0  0  0  0  0  0
  -21.8819   -3.8148   23.4346 C   0  0  0  0  0  0
  -21.9196   -4.6962   22.3400 C   0  0  0  0  0  0
  -22.7783  -13.5196   21.1898 C   0  0  0  0  0  0
  -22.1665   -4.2146   21.0978 F   0  0  0  0  0  0
  -21.5627   -3.4545   25.7738 F   0  0  0  0  0  0
  -29.9165  -13.8054   20.3587 N   0  0  0  0  0  0
  -26.2845  -12.9466   20.3247 N   0  0  0  0  0  0
  -25.9322  -11.6587   20.5751 N   0  0  0  0  0  0
  -22.0459  -12.8158   22.0450 N   0  0  0  0  0  0
  -25.4069  -15.1955   20.4179 N   0  0  0  0  0  0
  -31.7114  -15.1122   20.1441 O   0  0  0  0  0  0
  -21.6649   -6.8876   21.4236 O   0  0  0  0  0  0
  -22.3456  -14.5497   20.6744 O   0  0  0  0  0  0
  -24.6519  -31.8346   23.1767 C   0  0  0  0  0  0
  -25.9250  -32.4637   23.8198 C   0  0  1  0  0  0
  -27.2226  -27.0483   20.1698 C   0  0  0  0  0  0
  -25.5960  -33.8447   24.2117 N   0  0  0  0  0  0
  -23.4613  -30.4492   21.5231 C   0  0  2  0  0  0
  -24.9122  -28.8529   20.1117 C   0  0  0  0  0  0
  -22.7615  -29.4508   22.4806 C   0  0  0  0  0  0
  -18.0324  -28.1405   22.8476 C   0  0  0  0  0  0
  -24.1500  -36.7233   23.2648 C   0  0  0  0  0  0
  -26.0227  -30.6808   21.3877 C   0  0  0  0  0  0
  -26.0927  -29.2820   20.7311 C   0  0  0  0  0  0
  -27.2469  -28.3994   20.7336 C   0  0  0  0  0  0
  -26.0149  -26.7352   19.5106 C   0  0  0  0  0  0
  -24.8912  -27.5966   19.4830 C   0  0  0  0  0  0
  -23.6929  -29.7674   20.1470 C   0  0  0  0  0  0
  -25.4134  -36.2991   24.0303 C   0  0  1  0  0  0
  -20.5940  -28.3747   23.1205 C   0  0  2  0  0  0
  -20.6805  -26.9438   22.5401 C   0  0  0  0  0  0
  -19.5774  -26.6388   21.5215 C   0  0  0  0  0  0
  -18.1953  -26.7946   22.1621 C   0  0  0  0  0  0
  -19.1580  -28.8895   23.2831 C   0  0  0  0  0  0
  -18.9491  -30.1484   23.8864 C   0  0  0  0  0  0
  -17.6479  -30.6593   24.0563 C   0  0  0  0  0  0
  -25.9094  -34.9374   23.5025 C   0  0  0  0  0  0
  -16.5374  -29.9085   23.6334 C   0  0  0  0  0  0
  -16.7302  -28.6509   23.0351 C   0  0  0  0  0  0
  -26.4542  -31.6537   25.0678 C   0  0  0  0  0  0
  -25.3696  -31.3727   26.1346 C   0  0  0  0  0  0
  -27.0434  -30.2923   24.6330 C   0  0  0  0  0  0
  -27.6053  -32.4337   25.7456 C   0  0  0  0  0  0
  -27.5574  -37.1762   24.8461 C   0  0  0  0  0  0
  -21.4297  -29.3056   22.3558 N   0  0  0  0  0  0
  -26.4286  -37.3712   23.9404 N   0  0  0  0  0  0
  -24.7324  -31.0125   22.0832 N   0  0  0  0  0  0
  -23.4215  -28.8078   23.3007 O   0  0  0  0  0  0
  -28.2779  -26.0393   20.2220 O   0  0  0  0  0  0
  -26.5698  -34.8889   22.4617 O   0  0  0  0  0  0
  -23.5621  -32.1273   23.6923 O   0  0  0  0  0  0
  -30.1374  -18.7070   22.7566 C   0  0  0  0  0  0
  -28.7491  -18.9691   22.1513 C   0  0  0  0  0  0
  -28.4474  -21.8022   19.2632 C   0  0  0  0  0  0
  -28.7548  -22.0174   21.5941 C   0  0  0  0  0  0
  -31.0266  -18.2038   21.6083 C   0  0  0  0  0  0
  -28.5560  -23.4488   19.1166 C   0  0  0  0  0  0
  -28.8808  -23.6476   21.4450 C   0  0  0  0  0  0
  -29.1971  -20.9779   20.4352 C   0  0  1  0  0  0
  -28.9843  -19.2362   20.6554 C   0  0  1  0  0  0
  -30.0745  -17.9019   20.4439 C   0  0  2  0  0  0
  -28.1014  -24.4493   20.2983 C   0  0  1  0  0  0
  -29.7390  -16.3122   20.5340 N   0  0  0  0  0  0
  -31.4640  -12.8586   19.1874 H   0  0  0  0  0  0
  -30.4630  -11.7526   20.0800 H   0  0  0  0  0  0
  -29.8671  -11.7287   17.6334 H   0  0  0  0  0  0
  -29.5765  -13.4517   17.6669 H   0  0  0  0  0  0
  -27.9971  -11.2666   19.0468 H   0  0  0  0  0  0
  -27.3929  -12.3763   17.8440 H   0  0  0  0  0  0
  -27.5620  -14.2421   19.3686 H   0  0  0  0  0  0
  -28.7832  -12.4007   21.4838 H   0  0  0  0  0  0
  -28.3330  -14.0743   21.7239 H   0  0  0  0  0  0
  -25.2775   -9.5683   22.4757 H   0  0  0  0  0  0
  -24.0013   -7.4637   22.7478 H   0  0  0  0  0  0
  -21.0854   -8.8767   19.8957 H   0  0  0  0  0  0
  -22.3706  -10.9667   19.6169 H   0  0  0  0  0  0
  -21.2011   -7.6151   23.9702 H   0  0  0  0  0  0
  -21.1481   -6.0534   25.9071 H   0  0  0  0  0  0
  -22.0599   -2.7610   23.2847 H   0  0  0  0  0  0
  -22.4128  -11.9828   22.4812 H   0  0  0  0  0  0
  -21.1072  -13.1141   22.2688 H   0  0  0  0  0  0
  -24.6339  -15.8419   20.5356 H   0  0  0  0  0  0
  -26.2432  -15.6408   20.0641 H   0  0  0  0  0  0
  -26.7319  -32.5216   23.0923 H   0  0  0  0  0  0
  -25.0047  -33.9535   25.0225 H   0  0  0  0  0  0
  -22.7695  -31.2779   21.3573 H   0  0  0  0  0  0
  -23.3761  -35.9562   23.3284 H   0  0  0  0  0  0
  -24.3597  -36.8908   22.2071 H   0  0  0  0  0  0
  -23.7264  -37.6420   23.6724 H   0  0  0  0  0  0
  -26.1928  -31.4302   20.6134 H   0  0  0  0  0  0
  -26.8866  -30.7309   22.0386 H   0  0  0  0  0  0
  -28.1496  -28.7272   21.2292 H   0  0  0  0  0  0
  -25.9211  -25.7739   19.0262 H   0  0  0  0  0  0
  -23.9913  -27.2633   18.9843 H   0  0  0  0  0  0
  -23.8386  -30.5371   19.3874 H   0  0  0  0  0  0
  -22.8056  -29.2143   19.8343 H   0  0  0  0  0  0
  -25.1330  -36.1797   25.0794 H   0  0  0  0  0  0
  -21.0043  -28.3353   24.1324 H   0  0  0  0  0  0
  -20.5711  -26.2357   23.3632 H   0  0  0  0  0  0
  -21.6662  -26.7439   22.1189 H   0  0  0  0  0  0
  -19.6935  -25.6294   21.1261 H   0  0  0  0  0  0
  -19.6709  -27.3183   20.6734 H   0  0  0  0  0  0
  -17.4230  -26.6704   21.4017 H   0  0  0  0  0  0
  -18.0334  -26.0089   22.9017 H   0  0  0  0  0  0
  -19.7960  -30.7315   24.2217 H   0  0  0  0  0  0
  -17.5029  -31.6267   24.5174 H   0  0  0  0  0  0
  -15.5368  -30.2971   23.7680 H   0  0  0  0  0  0
  -15.8708  -28.0820   22.7068 H   0  0  0  0  0  0
  -24.5896  -30.7067   25.7635 H   0  0  0  0  0  0
  -24.8853  -32.2899   26.4708 H   0  0  0  0  0  0
  -25.7946  -30.8929   27.0169 H   0  0  0  0  0  0
  -26.3072  -29.6598   24.1355 H   0  0  0  0  0  0
  -27.4038  -29.7278   25.4942 H   0  0  0  0  0  0
  -27.8979  -30.4142   23.9667 H   0  0  0  0  0  0
  -27.2645  -33.3687   26.1917 H   0  0  0  0  0  0
  -28.3897  -32.6830   25.0295 H   0  0  0  0  0  0
  -28.0680  -31.8543   26.5458 H   0  0  0  0  0  0
  -28.2557  -38.0087   24.7528 H   0  0  0  0  0  0
  -28.1099  -36.2617   24.6264 H   0  0  0  0  0  0
  -27.2290  -37.1375   25.8860 H   0  0  0  0  0  0
  -20.9529  -29.8752   21.6708 H   0  0  0  0  0  0
  -26.0139  -38.2768   24.1415 H   0  0  0  0  0  0
  -30.0718  -17.9757   23.5637 H   0  0  0  0  0  0
  -30.5570  -19.6198   23.1826 H   0  0  0  0  0  0
  -28.1898  -19.7362   22.6829 H   0  0  0  0  0  0
  -28.1513  -18.0620   22.2512 H   0  0  0  0  0  0
  -28.7654  -21.3702   18.3139 H   0  0  0  0  0  0
  -27.3849  -21.5623   19.3275 H   0  0  0  0  0  0
  -27.7102  -21.8129   21.8331 H   0  0  0  0  0  0
  -29.3089  -21.7534   22.4949 H   0  0  0  0  0  0
  -31.6483  -17.3565   21.9017 H   0  0  0  0  0  0
  -31.7100  -18.9999   21.3094 H   0  0  0  0  0  0
  -28.0017  -23.7351   18.2222 H   0  0  0  0  0  0
  -29.5956  -23.6797   18.8793 H   0  0  0  0  0  0
  -29.9415  -23.8867   21.3538 H   0  0  0  0  0  0
  -28.5834  -24.0848   22.3983 H   0  0  0  0  0  0
  -30.2685  -21.1230   20.2882 H   0  0  0  0  0  0
  -28.0658  -18.9911   20.1214 H   0  0  0  0  0  0
  -30.6029  -18.0340   19.4990 H   0  0  0  0  0  0
  -27.0389  -24.2799   20.4724 H   0  0  0  0  0  0
  -28.7628  -16.1277   20.7103 H   0  0  0  0  0  0
  1 25  1  0  0  0
  1 30  2  0  0  0
  1 82  1  0  0  0
  2  3  1  0  0  0
  2 25  1  0  0  0
  2 83  1  0  0  0
  2 84  1  0  0  0
  3  4  1  0  0  0
  3 85  1  0  0  0
  3 86  1  0  0  0
  4  5  1  0  0  0
  4 87  1  0  0  0
  4 88  1  0  0  0
  5  6  1  0  0  0
  5 26  1  0  0  0
  5 89  1  0  0  0
  6 25  1  0  0  0
  6 90  1  0  0  0
  6 91  1  0  0  0
  7  8  2  0  0  0
  7 26  1  0  0  0
  7 29  1  0  0  0
  8  9  1  0  0  0
  8 22  1  0  0  0
  9 10  1  0  0  0
  9 27  2  0  0  0
 10 11  2  0  0  0
 10 15  1  0  0  0
 11 12  1  0  0  0
 11 92  1  0  0  0
 12 13  2  0  0  0
 12 93  1  0  0  0
 13 14  1  0  0  0
 13 31  1  0  0  0
 14 15  2  0  0  0
 14 94  1  0  0  0
 15 95  1  0  0  0
 16 17  2  0  0  0
 16 21  1  0  0  0
 16 31  1  0  0  0
 17 18  1  0  0  0
 17 96  1  0  0  0
 18 19  2  0  0  0
 18 97  1  0  0  0
 19 20  1  0  0  0
 19 24  1  0  0  0
 20 21  2  0  0  0
 20 98  1  0  0  0
 21 23  1  0  0  0
 22 28  1  0  0  0
 22 32  2  0  0  0
 26 27  1  0  0  0
 28 99  1  0  0  0
 28100  1  0  0  0
 29101  1  0  0  0
 29102  1  0  0  0
 33 34  1  0  0  0
 33 66  1  0  0  0
 33 70  2  0  0  0
 34 36  1  0  0  0
 34 59  1  0  0  0
 34103  1  0  0  0
 35 44  2  0  0  0
 35 45  1  0  0  0
 35 68  1  0  0  0
 36 56  1  0  0  0
 36104  1  0  0  0
 37 39  1  0  0  0
 37 47  1  0  0  0
 37 66  1  0  0  0
 37105  1  0  0  0
 38 43  2  0  0  0
 38 46  1  0  0  0
 38 47  1  0  0  0
 39 64  1  0  0  0
 39 67  2  0  0  0
 40 52  1  0  0  0
 40 53  2  0  0  0
 40 58  1  0  0  0
 41106  1  0  0  0
 41107  1  0  0  0
 41108  1  0  0  0
 41 48  1  0  0  0
 42 43  1  0  0  0
 42 66  1  0  0  0
 42109  1  0  0  0
 42110  1  0  0  0
 43 44  1  0  0  0
 44111  1  0  0  0
 45 46  2  0  0  0
 45112  1  0  0  0
 46113  1  0  0  0
 47114  1  0  0  0
 47115  1  0  0  0
 48 56  1  0  0  0
 48 65  1  0  0  0
 48116  1  0  0  0
 49 50  1  0  0  0
 49 53  1  0  0  0
 49 64  1  0  0  0
 49117  1  0  0  0
 50 51  1  0  0  0
 50118  1  0  0  0
 50119  1  0  0  0
 51 52  1  0  0  0
 51120  1  0  0  0
 51121  1  0  0  0
 52122  1  0  0  0
 52123  1  0  0  0
 53 54  1  0  0  0
 54 55  2  0  0  0
 54124  1  0  0  0
 55 57  1  0  0  0
 55125  1  0  0  0
 56 69  2  0  0  0
 57 58  2  0  0  0
 57126  1  0  0  0
 58127  1  0  0  0
 59 60  1  0  0  0
 59 61  1  0  0  0
 59 62  1  0  0  0
 60128  1  0  0  0
 60129  1  0  0  0
 60130  1  0  0  0
 61131  1  0  0  0
 61132  1  0  0  0
 61133  1  0  0  0
 62134  1  0  0  0
 62135  1  0  0  0
 62136  1  0  0  0
 63 65  1  0  0  0
 63137  1  0  0  0
 63138  1  0  0  0
 63139  1  0  0  0
 64140  1  0  0  0
 65141  1  0  0  0
 68 81  1  0  0  0
 71 72  1  0  0  0
 71 75  1  0  0  0
 71142  1  0  0  0
 71143  1  0  0  0
 72144  1  0  0  0
 72145  1  0  0  0
 72 79  1  0  0  0
 73 76  1  0  0  0
 73146  1  0  0  0
 73147  1  0  0  0
 73 78  1  0  0  0
 74 77  1  0  0  0
 74 78  1  0  0  0
 74148  1  0  0  0
 74149  1  0  0  0
 75 80  1  0  0  0
 75150  1  0  0  0
 75151  1  0  0  0
 76 81  1  0  0  0
 76152  1  0  0  0
 76153  1  0  0  0
 77 81  1  0  0  0
 77154  1  0  0  0
 77155  1  0  0  0
 78 79  1  0  0  0
 78156  1  0  0  0
 79 80  1  0  0  0
 79157  1  0  0  0
 80 82  1  0  0  0
 80158  1  0  0  0
 81159  1  0  0  0
 82160  1  0  0  0
M  ISO  4   1 100  68 101  81 101  82 100
M  END
> <chiral flag>
0

> <version>
0

> <s_m_source_file>
/data/baiqing/PycharmProjects/Reinvent-master-3.2/result/LINK_invent/BTK/process_docking_weight1_custom_sum_contain_oxygen_bond_distance_aromatic_linkinvent_7_9_3/rearranged_h_0137.sdf

> <i_m_source_file_index>
13

> <r_mmod_Potential_Energy-OPLS-2005>
890.367431640625

> <r_mmod_Stretch_Energy-OPLS-2005>
376.93896484375

> <r_mmod_Bend_Energy-OPLS-2005>
399.642028808594

> <r_mmod_Torsional_Energy-OPLS-2005>
285.728637695312

> <r_mmod_Improper_Torsional_Energy-OPLS-2005>
3.8729350566864

> <r_mmod_Van_der_Waal_Energy-OPLS-2005>
112.357513427734

> <r_mmod_Electrostatic_Energy-OPLS-2005>
-375.663360595703

> <r_mmod_Solvation_Energy-OPLS-2005>
-198.599990844727

> <b_mmod_Minimization_Converged-OPLS-2005>
0

> <r_mmod_RMS_Derivative-OPLS-2005>
1.27407538890839

$$$$
13
                    3D
 Structure written by MMmdl.
150158  0  0  1  0            999 V2000
  -30.4510  -15.2770   20.3108 C   0  0  0  0  0  0
  -30.4312  -12.8049   19.5310 C   0  0  0  0  0  0
  -29.5292  -12.5960   18.2854 C   0  0  0  0  0  0
  -28.0851  -12.3063   18.7250 C   0  0  0  0  0  0
  -27.6203  -13.2776   19.8374 C   0  0  2  0  0  0
  -28.6554  -13.4611   20.9709 C   0  0  0  0  0  0
  -25.2413  -13.8311   20.5622 C   0  0  0  0  0  0
  -24.1780  -13.0538   20.9264 C   0  0  0  0  0  0
  -24.6430  -11.7025   20.8820 C   0  0  0  0  0  0
  -23.9157  -10.4331   21.0388 C   0  0  0  0  0  0
  -24.3750   -9.4203   21.9098 C   0  0  0  0  0  0
  -23.6413   -8.2230   22.0684 C   0  0  0  0  0  0
  -22.4376   -8.0288   21.3492 C   0  0  0  0  0  0
  -22.0066   -9.0252   20.4546 C   0  0  0  0  0  0
  -22.7365  -10.2139   20.2974 C   0  0  0  0  0  0
  -21.6924   -6.0755   22.5202 C   0  0  0  0  0  0
  -21.4073   -6.5667   23.8137 C   0  0  0  0  0  0
  -21.3658   -5.6782   24.9088 C   0  0  0  0  0  0
  -21.6103   -4.3055   24.7139 C   0  0  0  0  0  0
  -21.8858   -3.8178   23.4223 C   0  0  0  0  0  0
  -21.9218   -4.6999   22.3297 C   0  0  0  0  0  0
  -22.7768  -13.5284   21.1904 C   0  0  0  0  0  0
  -22.1640   -4.2189   21.0880 F   0  0  0  0  0  0
  -21.5626   -3.4519   25.7645 F   0  0  0  0  0  0
  -29.8797  -13.9644   20.3327 N   0  0  0  0  0  0
  -26.2868  -12.9565   20.3291 N   0  0  0  0  0  0
  -25.9398  -11.6702   20.5876 N   0  0  0  0  0  0
  -22.0548  -12.8227   22.0508 N   0  0  0  0  0  0
  -25.4060  -15.2035   20.3725 N   0  0  0  0  0  0
  -31.6661  -15.2374   20.0638 O   0  0  0  0  0  0
  -21.6705   -6.8924   21.4186 O   0  0  0  0  0  0
  -22.3368  -14.5512   20.6608 O   0  0  0  0  0  0
  -24.6591  -31.8237   23.1733 C   0  0  0  0  0  0
  -25.9304  -32.4581   23.8165 C   0  0  1  0  0  0
  -27.2106  -26.9230   20.1698 C   0  0  0  0  0  0
  -25.5982  -33.8400   24.2054 N   0  0  0  0  0  0
  -23.4734  -30.4411   21.5166 C   0  0  2  0  0  0
  -24.9283  -28.8248   20.1123 C   0  0  0  0  0  0
  -22.7653  -29.4481   22.4744 C   0  0  0  0  0  0
  -18.0329  -28.1395   22.8466 C   0  0  0  0  0  0
  -24.1513  -36.7205   23.2648 C   0  0  0  0  0  0
  -26.0449  -30.6226   21.4115 C   0  0  0  0  0  0
  -26.1136  -29.2145   20.7503 C   0  0  0  0  0  0
  -27.2485  -28.2834   20.7569 C   0  0  0  0  0  0
  -25.9951  -26.6834   19.4948 C   0  0  0  0  0  0
  -24.8935  -27.5783   19.4683 C   0  0  0  0  0  0
  -23.7158  -29.7591   20.1414 C   0  0  0  0  0  0
  -25.4160  -36.2953   24.0278 C   0  0  1  0  0  0
  -20.5939  -28.3755   23.1165 C   0  0  2  0  0  0
  -20.6812  -26.9423   22.5392 C   0  0  0  0  0  0
  -19.5791  -26.6357   21.5207 C   0  0  0  0  0  0
  -18.1977  -26.7937   22.1613 C   0  0  0  0  0  0
  -19.1579  -28.8902   23.2815 C   0  0  0  0  0  0
  -18.9497  -30.1491   23.8860 C   0  0  0  0  0  0
  -17.6494  -30.6603   24.0544 C   0  0  0  0  0  0
  -25.9115  -34.9339   23.4991 C   0  0  0  0  0  0
  -16.5385  -29.9083   23.6335 C   0  0  0  0  0  0
  -16.7313  -28.6486   23.0380 C   0  0  0  0  0  0
  -26.4557  -31.6556   25.0708 C   0  0  0  0  0  0
  -25.3708  -31.3763   26.1367 C   0  0  0  0  0  0
  -27.0505  -30.2940   24.6469 C   0  0  0  0  0  0
  -27.6010  -32.4420   25.7529 C   0  0  0  0  0  0
  -27.5583  -37.1766   24.8478 C   0  0  0  0  0  0
  -21.4331  -29.3050   22.3512 N   0  0  0  0  0  0
  -26.4308  -37.3683   23.9390 N   0  0  0  0  0  0
  -24.7472  -30.9895   22.0865 N   0  0  0  0  0  0
  -23.4226  -28.8008   23.2933 O   0  0  0  0  0  0
  -28.2206  -25.8202   20.2151 O   0  0  0  0  0  0
  -26.5705  -34.8876   22.4576 O   0  0  0  0  0  0
  -23.5656  -32.1223   23.6838 O   0  0  0  0  0  0
  -30.1257  -19.5498   17.0481 C   0  0  0  0  0  0
  -30.3864  -18.1904   17.0475 C   0  0  0  0  0  0
  -29.6892  -20.1575   18.2254 C   0  0  0  0  0  0
  -30.2244  -17.4615   18.2303 C   0  0  0  0  0  0
  -29.4725  -19.5350   19.4868 C   0  0  0  0  0  0
  -29.8047  -17.9559   19.5089 C   0  0  0  0  0  0
  -28.8555  -20.8910   20.3994 C   0  0  0  0  0  0
  -29.0348  -22.7045   20.1369 C   0  0  0  0  0  0
  -27.9745  -24.1835   20.1134 C   0  0  0  0  0  0
  -29.7462  -16.5969   20.3921 N   0  0  0  0  0  0
  -31.4605  -12.9771   19.2173 H   0  0  0  0  0  0
  -30.4743  -11.8952   20.1313 H   0  0  0  0  0  0
  -29.9058  -11.7807   17.6661 H   0  0  0  0  0  0
  -29.5519  -13.5017   17.6756 H   0  0  0  0  0  0
  -28.0485  -11.2807   19.0895 H   0  0  0  0  0  0
  -27.3940  -12.3386   17.8829 H   0  0  0  0  0  0
  -27.5488  -14.2477   19.3465 H   0  0  0  0  0  0
  -28.8235  -12.5228   21.5046 H   0  0  0  0  0  0
  -28.3172  -14.1848   21.7185 H   0  0  0  0  0  0
  -25.2887   -9.5710   22.4714 H   0  0  0  0  0  0
  -24.0145   -7.4631   22.7399 H   0  0  0  0  0  0
  -21.0980   -8.8767   19.8878 H   0  0  0  0  0  0
  -22.3883  -10.9698   19.6083 H   0  0  0  0  0  0
  -21.2044   -7.6162   23.9666 H   0  0  0  0  0  0
  -21.1508   -6.0482   25.8979 H   0  0  0  0  0  0
  -22.0695   -2.7654   23.2697 H   0  0  0  0  0  0
  -22.4258  -11.9874   22.4787 H   0  0  0  0  0  0
  -21.1153  -13.1195   22.2817 H   0  0  0  0  0  0
  -24.6161  -15.8384   20.3951 H   0  0  0  0  0  0
  -26.2092  -15.5931   19.8979 H   0  0  0  0  0  0
  -26.7341  -32.5101   23.0842 H   0  0  0  0  0  0
  -25.0116  -33.9447   25.0187 H   0  0  0  0  0  0
  -22.7857  -31.2729   21.3468 H   0  0  0  0  0  0
  -23.3794  -35.9532   23.3315 H   0  0  0  0  0  0
  -24.3562  -36.8870   22.2073 H   0  0  0  0  0  0
  -23.7298  -37.6381   23.6731 H   0  0  0  0  0  0
  -26.2365  -31.3738   20.6438 H   0  0  0  0  0  0
  -26.8991  -30.6707   22.0760 H   0  0  0  0  0  0
  -28.1431  -28.5684   21.2891 H   0  0  0  0  0  0
  -25.8711  -25.7374   18.9884 H   0  0  0  0  0  0
  -23.9883  -27.2740   18.9589 H   0  0  0  0  0  0
  -23.8777  -30.5297   19.3869 H   0  0  0  0  0  0
  -22.8261  -29.2187   19.8128 H   0  0  0  0  0  0
  -25.1376  -36.1742   25.0768 H   0  0  0  0  0  0
  -21.0040  -28.3383   24.1284 H   0  0  0  0  0  0
  -20.5670  -26.2376   23.3641 H   0  0  0  0  0  0
  -21.6678  -26.7387   22.1203 H   0  0  0  0  0  0
  -19.6928  -25.6245   21.1295 H   0  0  0  0  0  0
  -19.6725  -27.3117   20.6704 H   0  0  0  0  0  0
  -17.4231  -26.6679   21.4032 H   0  0  0  0  0  0
  -18.0366  -26.0074   22.9003 H   0  0  0  0  0  0
  -19.7974  -30.7306   24.2219 H   0  0  0  0  0  0
  -17.5054  -31.6268   24.5149 H   0  0  0  0  0  0
  -15.5387  -30.2979   23.7692 H   0  0  0  0  0  0
  -15.8716  -28.0789   22.7141 H   0  0  0  0  0  0
  -24.5833  -30.7193   25.7650 H   0  0  0  0  0  0
  -24.8929  -32.2935   26.4817 H   0  0  0  0  0  0
  -25.7925  -30.8861   27.0152 H   0  0  0  0  0  0
  -26.3162  -29.6587   24.1485 H   0  0  0  0  0  0
  -27.4079  -29.7317   25.5112 H   0  0  0  0  0  0
  -27.9101  -30.4165   23.9884 H   0  0  0  0  0  0
  -27.2494  -33.3720   26.2027 H   0  0  0  0  0  0
  -28.3853  -32.7018   25.0412 H   0  0  0  0  0  0
  -28.0670  -31.8634   26.5512 H   0  0  0  0  0  0
  -28.2582  -38.0063   24.7450 H   0  0  0  0  0  0
  -28.1057  -36.2565   24.6395 H   0  0  0  0  0  0
  -27.2239  -37.1550   25.8855 H   0  0  0  0  0  0
  -20.9602  -29.8766   21.6654 H   0  0  0  0  0  0
  -26.0157  -38.2739   24.1360 H   0  0  0  0  0  0
  -30.2372  -20.1355   16.1405 H   0  0  0  0  0  0
  -30.6948  -17.7001   16.1321 H   0  0  0  0  0  0
  -29.4709  -21.1993   18.0877 H   0  0  0  0  0  0
  -30.4178  -16.4139   18.0663 H   0  0  0  0  0  0
  -29.2714  -20.7376   21.3935 H   0  0  0  0  0  0
  -27.7969  -20.6828   20.5614 H   0  0  0  0  0  0
  -29.6634  -22.8392   19.2576 H   0  0  0  0  0  0
  -29.7491  -22.9530   20.9227 H   0  0  0  0  0  0
  -27.1981  -23.9936   20.8522 H   0  0  0  0  0  0
  -27.4597  -24.0940   19.1521 H   0  0  0  0  0  0
  -28.9396  -16.5507   20.9992 H   0  0  0  0  0  0
  1 25  1  0  0  0
  1 30  2  0  0  0
  1 80  1  0  0  0
  2  3  1  0  0  0
  2 25  1  0  0  0
  2 81  1  0  0  0
  2 82  1  0  0  0
  3  4  1  0  0  0
  3 83  1  0  0  0
  3 84  1  0  0  0
  4  5  1  0  0  0
  4 85  1  0  0  0
  4 86  1  0  0  0
  5  6  1  0  0  0
  5 26  1  0  0  0
  5 87  1  0  0  0
  6 25  1  0  0  0
  6 88  1  0  0  0
  6 89  1  0  0  0
  7  8  2  0  0  0
  7 26  1  0  0  0
  7 29  1  0  0  0
  8  9  1  0  0  0
  8 22  1  0  0  0
  9 10  1  0  0  0
  9 27  2  0  0  0
 10 11  2  0  0  0
 10 15  1  0  0  0
 11 12  1  0  0  0
 11 90  1  0  0  0
 12 13  2  0  0  0
 12 91  1  0  0  0
 13 14  1  0  0  0
 13 31  1  0  0  0
 14 15  2  0  0  0
 14 92  1  0  0  0
 15 93  1  0  0  0
 16 17  2  0  0  0
 16 21  1  0  0  0
 16 31  1  0  0  0
 17 18  1  0  0  0
 17 94  1  0  0  0
 18 19  2  0  0  0
 18 95  1  0  0  0
 19 20  1  0  0  0
 19 24  1  0  0  0
 20 21  2  0  0  0
 20 96  1  0  0  0
 21 23  1  0  0  0
 22 28  1  0  0  0
 22 32  2  0  0  0
 26 27  1  0  0  0
 28 97  1  0  0  0
 28 98  1  0  0  0
 29 99  1  0  0  0
 29100  1  0  0  0
 33 34  1  0  0  0
 33 66  1  0  0  0
 33 70  2  0  0  0
 34 36  1  0  0  0
 34 59  1  0  0  0
 34101  1  0  0  0
 35 44  2  0  0  0
 35 45  1  0  0  0
 35 68  1  0  0  0
 36 56  1  0  0  0
 36102  1  0  0  0
 37 39  1  0  0  0
 37 47  1  0  0  0
 37 66  1  0  0  0
 37103  1  0  0  0
 38 43  2  0  0  0
 38 46  1  0  0  0
 38 47  1  0  0  0
 39 64  1  0  0  0
 39 67  2  0  0  0
 40 52  1  0  0  0
 40 53  2  0  0  0
 40 58  1  0  0  0
 41104  1  0  0  0
 41105  1  0  0  0
 41106  1  0  0  0
 41 48  1  0  0  0
 42 43  1  0  0  0
 42 66  1  0  0  0
 42107  1  0  0  0
 42108  1  0  0  0
 43 44  1  0  0  0
 44109  1  0  0  0
 45 46  2  0  0  0
 45110  1  0  0  0
 46111  1  0  0  0
 47112  1  0  0  0
 47113  1  0  0  0
 48 56  1  0  0  0
 48 65  1  0  0  0
 48114  1  0  0  0
 49 50  1  0  0  0
 49 53  1  0  0  0
 49 64  1  0  0  0
 49115  1  0  0  0
 50 51  1  0  0  0
 50116  1  0  0  0
 50117  1  0  0  0
 51 52  1  0  0  0
 51118  1  0  0  0
 51119  1  0  0  0
 52120  1  0  0  0
 52121  1  0  0  0
 53 54  1  0  0  0
 54 55  2  0  0  0
 54122  1  0  0  0
 55 57  1  0  0  0
 55123  1  0  0  0
 56 69  2  0  0  0
 57 58  2  0  0  0
 57124  1  0  0  0
 58125  1  0  0  0
 59 60  1  0  0  0
 59 61  1  0  0  0
 59 62  1  0  0  0
 60126  1  0  0  0
 60127  1  0  0  0
 60128  1  0  0  0
 61129  1  0  0  0
 61130  1  0  0  0
 61131  1  0  0  0
 62132  1  0  0  0
 62133  1  0  0  0
 62134  1  0  0  0
 63 65  1  0  0  0
 63135  1  0  0  0
 63136  1  0  0  0
 63137  1  0  0  0
 64138  1  0  0  0
 65139  1  0  0  0
 68 79  1  0  0  0
 71 72  2  0  0  0
 71 73  1  0  0  0
 71140  1  0  0  0
 72 74  1  0  0  0
 72141  1  0  0  0
 73 75  2  0  0  0
 73142  1  0  0  0
 74 76  2  0  0  0
 74143  1  0  0  0
 75 76  1  0  0  0
 75 77  1  0  0  0
 76 80  1  0  0  0
 77 78  1  0  0  0
 77144  1  0  0  0
 77145  1  0  0  0
 78 79  1  0  0  0
 78146  1  0  0  0
 78147  1  0  0  0
 79148  1  0  0  0
 79149  1  0  0  0
 80150  1  0  0  0
M  ISO  4   1 100  68 101  79 101  80 100
M  END
> <chiral flag>
0

> <version>
0

> <s_m_source_file>
/data/baiqing/PycharmProjects/Reinvent-master-3.2/result/LINK_invent/BTK/process_docking_weight1_custom_sum_contain_oxygen_bond_distance_aromatic_linkinvent_7_9_3/rearranged_h_0137.sdf

> <i_m_source_file_index>
14

> <r_mmod_Potential_Energy-OPLS-2005>
1551.37829589844

> <r_mmod_Stretch_Energy-OPLS-2005>
698.476135253906

> <r_mmod_Bend_Energy-OPLS-2005>
560.842102050781

> <r_mmod_Torsional_Energy-OPLS-2005>
255.850997924805

> <r_mmod_Improper_Torsional_Energy-OPLS-2005>
5.50662469863892

> <r_mmod_Van_der_Waal_Energy-OPLS-2005>
143.259567260742

> <r_mmod_Electrostatic_Energy-OPLS-2005>
-364.051666259766

> <r_mmod_Solvation_Energy-OPLS-2005>
-209.347778320312

> <b_mmod_Minimization_Converged-OPLS-2005>
0

> <r_mmod_RMS_Derivative-OPLS-2005>
8.52180194854736

$$$$
14
                    3D
 Structure written by MMmdl.
158167  0  0  1  0            999 V2000
  -30.5450  -14.8009   20.4638 C   0  0  0  0  0  0
  -30.4491  -12.4896   19.4795 C   0  0  0  0  0  0
  -29.5191  -12.5224   18.2435 C   0  0  0  0  0  0
  -28.0449  -12.3335   18.6545 C   0  0  0  0  0  0
  -27.6459  -13.2271   19.8579 C   0  0  2  0  0  0
  -28.6893  -13.1450   20.9940 C   0  0  0  0  0  0
  -25.2531  -13.8184   20.5696 C   0  0  0  0  0  0
  -24.1813  -13.0437   20.9204 C   0  0  0  0  0  0
  -24.6398  -11.6912   20.8749 C   0  0  0  0  0  0
  -23.9071  -10.4292   21.0412 C   0  0  0  0  0  0
  -24.3620   -9.4206   21.9189 C   0  0  0  0  0  0
  -23.6293   -8.2242   22.0755 C   0  0  0  0  0  0
  -22.4275   -8.0284   21.3546 C   0  0  0  0  0  0
  -21.9915   -9.0258   20.4647 C   0  0  0  0  0  0
  -22.7244  -10.2136   20.3059 C   0  0  0  0  0  0
  -21.6853   -6.0740   22.5281 C   0  0  0  0  0  0
  -21.4014   -6.5643   23.8215 C   0  0  0  0  0  0
  -21.3658   -5.6795   24.9175 C   0  0  0  0  0  0
  -21.6043   -4.3056   24.7226 C   0  0  0  0  0  0
  -21.8818   -3.8149   23.4346 C   0  0  0  0  0  0
  -21.9193   -4.6967   22.3403 C   0  0  0  0  0  0
  -22.7835  -13.5227   21.1864 C   0  0  0  0  0  0
  -22.1660   -4.2152   21.0980 F   0  0  0  0  0  0
  -21.5628   -3.4540   25.7738 F   0  0  0  0  0  0
  -29.9876  -13.5360   20.4242 N   0  0  0  0  0  0
  -26.2953  -12.9376   20.3297 N   0  0  0  0  0  0
  -25.9328  -11.6523   20.5754 N   0  0  0  0  0  0
  -22.0478  -12.8217   22.0418 N   0  0  0  0  0  0
  -25.4239  -15.1909   20.4108 N   0  0  0  0  0  0
  -31.7129  -14.9632   20.0919 O   0  0  0  0  0  0
  -21.6640   -6.8882   21.4240 O   0  0  0  0  0  0
  -22.3522  -14.5535   20.6715 O   0  0  0  0  0  0
  -24.6338  -31.8510   23.1941 C   0  0  0  0  0  0
  -25.9150  -32.4729   23.8300 C   0  0  1  0  0  0
  -27.2248  -27.2215   20.1390 C   0  0  0  0  0  0
  -25.5932  -33.8534   24.2221 N   0  0  0  0  0  0
  -23.4331  -30.4708   21.5374 C   0  0  2  0  0  0
  -24.8819  -28.9048   20.1124 C   0  0  0  0  0  0
  -22.7516  -29.4580   22.4893 C   0  0  0  0  0  0
  -18.0297  -28.1389   22.8482 C   0  0  0  0  0  0
  -24.1491  -36.7269   23.2641 C   0  0  0  0  0  0
  -25.9809  -30.7478   21.3828 C   0  0  0  0  0  0
  -26.0518  -29.3640   20.7307 C   0  0  0  0  0  0
  -27.2214  -28.5325   20.7369 C   0  0  0  0  0  0
  -26.0340  -26.8388   19.4848 C   0  0  0  0  0  0
  -24.8792  -27.6507   19.4801 C   0  0  0  0  0  0
  -23.6551  -29.7986   20.1557 C   0  0  0  0  0  0
  -25.4118  -36.3052   24.0325 C   0  0  1  0  0  0
  -20.5901  -28.3701   23.1261 C   0  0  2  0  0  0
  -20.6787  -26.9415   22.5409 C   0  0  0  0  0  0
  -19.5764  -26.6379   21.5211 C   0  0  0  0  0  0
  -18.1941  -26.7930   22.1621 C   0  0  0  0  0  0
  -19.1552  -28.8861   23.2867 C   0  0  0  0  0  0
  -18.9474  -30.1461   23.8886 C   0  0  0  0  0  0
  -17.6474  -30.6589   24.0562 C   0  0  0  0  0  0
  -25.9061  -34.9426   23.5079 C   0  0  0  0  0  0
  -16.5363  -29.9085   23.6336 C   0  0  0  0  0  0
  -16.7282  -28.6506   23.0353 C   0  0  0  0  0  0
  -26.4504  -31.6576   25.0711 C   0  0  0  0  0  0
  -25.3714  -31.3752   26.1425 C   0  0  0  0  0  0
  -27.0359  -30.2985   24.6234 C   0  0  0  0  0  0
  -27.6046  -32.4331   25.7489 C   0  0  0  0  0  0
  -27.5581  -37.1785   24.8462 C   0  0  0  0  0  0
  -21.4219  -29.3041   22.3640 N   0  0  0  0  0  0
  -26.4285  -37.3760   23.9417 N   0  0  0  0  0  0
  -24.7017  -31.0433   22.0940 N   0  0  0  0  0  0
  -23.4198  -28.8137   23.3021 O   0  0  0  0  0  0
  -28.3356  -26.3335   20.1571 O   0  0  0  0  0  0
  -26.5641  -34.8914   22.4654 O   0  0  0  0  0  0
  -23.5480  -32.1350   23.7210 O   0  0  0  0  0  0
  -28.4929  -19.5213   21.2569 C   0  0  0  0  0  0
  -28.6600  -18.0960   21.3568 C   0  0  0  0  0  0
  -30.4866  -18.1832   19.8490 C   0  0  0  0  0  0
  -30.3206  -19.6224   19.7376 C   0  0  0  0  0  0
  -29.2988  -20.3680   20.4371 C   0  0  0  0  0  0
  -29.6619  -17.3510   20.6648 C   0  0  0  0  0  0
  -28.3488  -22.5666   21.4212 C   0  0  0  0  0  0
  -28.8141  -22.5352   19.0985 C   0  0  0  0  0  0
  -28.4906  -24.1645   21.3939 C   0  0  0  0  0  0
  -28.9200  -24.1356   19.1459 C   0  0  0  0  0  0
  -31.3196  -20.3510   18.8541 C   0  0  0  0  0  0
  -29.1129  -21.8317   20.3758 N   0  0  0  0  0  0
  -28.0331  -24.8059   20.1348 N   0  0  0  0  0  0
  -29.6975  -15.8551   20.8070 N   0  0  0  0  0  0
  -31.4851  -12.6458   19.1743 H   0  0  0  0  0  0
  -30.4241  -11.5084   19.9563 H   0  0  0  0  0  0
  -29.8099  -11.7493   17.5312 H   0  0  0  0  0  0
  -29.6334  -13.4750   17.7238 H   0  0  0  0  0  0
  -27.9082  -11.2832   18.9151 H   0  0  0  0  0  0
  -27.3864  -12.5235   17.8059 H   0  0  0  0  0  0
  -27.6429  -14.2513   19.4842 H   0  0  0  0  0  0
  -28.7381  -12.1342   21.4018 H   0  0  0  0  0  0
  -28.4083  -13.7901   21.8278 H   0  0  0  0  0  0
  -25.2766   -9.5684   22.4765 H   0  0  0  0  0  0
  -24.0003   -7.4634   22.7476 H   0  0  0  0  0  0
  -21.0846   -8.8777   19.8953 H   0  0  0  0  0  0
  -22.3704  -10.9677   19.6171 H   0  0  0  0  0  0
  -21.2006   -7.6153   23.9719 H   0  0  0  0  0  0
  -21.1480   -6.0526   25.9079 H   0  0  0  0  0  0
  -22.0597   -2.7612   23.2846 H   0  0  0  0  0  0
  -22.4088  -11.9874   22.4800 H   0  0  0  0  0  0
  -21.1101  -13.1249   22.2629 H   0  0  0  0  0  0
  -24.6540  -15.8431   20.5140 H   0  0  0  0  0  0
  -26.2648  -15.6275   20.0553 H   0  0  0  0  0  0
  -26.7211  -32.5364   23.1031 H   0  0  0  0  0  0
  -25.0080  -33.9664   25.0369 H   0  0  0  0  0  0
  -22.7321  -31.2944   21.3860 H   0  0  0  0  0  0
  -23.3761  -35.9593   23.3286 H   0  0  0  0  0  0
  -24.3581  -36.8907   22.2059 H   0  0  0  0  0  0
  -23.7234  -37.6460   23.6679 H   0  0  0  0  0  0
  -26.1255  -31.5032   20.6093 H   0  0  0  0  0  0
  -26.8560  -30.7985   22.0186 H   0  0  0  0  0  0
  -28.1182  -28.8798   21.2299 H   0  0  0  0  0  0
  -25.9817  -25.8806   18.9877 H   0  0  0  0  0  0
  -23.9847  -27.2948   18.9875 H   0  0  0  0  0  0
  -23.7850  -30.5721   19.3981 H   0  0  0  0  0  0
  -22.7720  -29.2354   19.8490 H   0  0  0  0  0  0
  -25.1301  -36.1886   25.0814 H   0  0  0  0  0  0
  -20.9992  -28.3285   24.1382 H   0  0  0  0  0  0
  -20.5685  -26.2314   23.3619 H   0  0  0  0  0  0
  -21.6655  -26.7430   22.1203 H   0  0  0  0  0  0
  -19.6931  -25.6286   21.1249 H   0  0  0  0  0  0
  -19.6708  -27.3185   20.6739 H   0  0  0  0  0  0
  -17.4212  -26.6677   21.4020 H   0  0  0  0  0  0
  -18.0338  -26.0071   22.9015 H   0  0  0  0  0  0
  -19.7953  -30.7280   24.2245 H   0  0  0  0  0  0
  -17.5032  -31.6270   24.5163 H   0  0  0  0  0  0
  -15.5366  -30.2991   23.7666 H   0  0  0  0  0  0
  -15.8681  -28.0825   22.7068 H   0  0  0  0  0  0
  -24.5891  -30.7095   25.7757 H   0  0  0  0  0  0
  -24.8905  -32.2933   26.4810 H   0  0  0  0  0  0
  -25.8015  -30.8957   27.0226 H   0  0  0  0  0  0
  -26.2953  -29.6724   24.1243 H   0  0  0  0  0  0
  -27.4010  -29.7259   25.4771 H   0  0  0  0  0  0
  -27.8846  -30.4250   23.9508 H   0  0  0  0  0  0
  -27.2639  -33.3642   26.2029 H   0  0  0  0  0  0
  -28.3875  -32.6868   25.0330 H   0  0  0  0  0  0
  -28.0693  -31.8481   26.5436 H   0  0  0  0  0  0
  -28.2573  -38.0108   24.7529 H   0  0  0  0  0  0
  -28.1101  -36.2636   24.6253 H   0  0  0  0  0  0
  -27.2306  -37.1385   25.8867 H   0  0  0  0  0  0
  -20.9410  -29.8753   21.6830 H   0  0  0  0  0  0
  -26.0157  -38.2825   24.1438 H   0  0  0  0  0  0
  -27.6964  -19.9619   21.8382 H   0  0  0  0  0  0
  -27.9748  -17.5639   22.0017 H   0  0  0  0  0  0
  -31.2728  -17.7085   19.2789 H   0  0  0  0  0  0
  -27.2933  -22.3036   21.3325 H   0  0  0  0  0  0
  -28.6672  -22.2069   22.4006 H   0  0  0  0  0  0
  -29.4740  -22.1711   18.3127 H   0  0  0  0  0  0
  -27.8074  -22.2570   18.7820 H   0  0  0  0  0  0
  -29.5269  -24.4407   21.5947 H   0  0  0  0  0  0
  -27.9051  -24.5829   22.2135 H   0  0  0  0  0  0
  -28.6769  -24.5313   18.1591 H   0  0  0  0  0  0
  -29.9568  -24.4221   19.3329 H   0  0  0  0  0  0
  -32.2700  -19.8178   18.8188 H   0  0  0  0  0  0
  -31.5280  -21.3541   19.2263 H   0  0  0  0  0  0
  -30.9407  -20.4274   17.8350 H   0  0  0  0  0  0
  -28.8450  -15.4867   21.2012 H   0  0  0  0  0  0
  1 25  1  0  0  0
  1 30  2  0  0  0
  1 84  1  0  0  0
  2  3  1  0  0  0
  2 25  1  0  0  0
  2 85  1  0  0  0
  2 86  1  0  0  0
  3  4  1  0  0  0
  3 87  1  0  0  0
  3 88  1  0  0  0
  4  5  1  0  0  0
  4 89  1  0  0  0
  4 90  1  0  0  0
  5  6  1  0  0  0
  5 26  1  0  0  0
  5 91  1  0  0  0
  6 25  1  0  0  0
  6 92  1  0  0  0
  6 93  1  0  0  0
  7  8  2  0  0  0
  7 26  1  0  0  0
  7 29  1  0  0  0
  8  9  1  0  0  0
  8 22  1  0  0  0
  9 10  1  0  0  0
  9 27  2  0  0  0
 10 11  2  0  0  0
 10 15  1  0  0  0
 11 12  1  0  0  0
 11 94  1  0  0  0
 12 13  2  0  0  0
 12 95  1  0  0  0
 13 14  1  0  0  0
 13 31  1  0  0  0
 14 15  2  0  0  0
 14 96  1  0  0  0
 15 97  1  0  0  0
 16 17  2  0  0  0
 16 21  1  0  0  0
 16 31  1  0  0  0
 17 18  1  0  0  0
 17 98  1  0  0  0
 18 19  2  0  0  0
 18 99  1  0  0  0
 19 20  1  0  0  0
 19 24  1  0  0  0
 20 21  2  0  0  0
 20100  1  0  0  0
 21 23  1  0  0  0
 22 28  1  0  0  0
 22 32  2  0  0  0
 26 27  1  0  0  0
 28101  1  0  0  0
 28102  1  0  0  0
 29103  1  0  0  0
 29104  1  0  0  0
 33 34  1  0  0  0
 33 66  1  0  0  0
 33 70  2  0  0  0
 34 36  1  0  0  0
 34 59  1  0  0  0
 34105  1  0  0  0
 35 44  2  0  0  0
 35 45  1  0  0  0
 35 68  1  0  0  0
 36 56  1  0  0  0
 36106  1  0  0  0
 37 39  1  0  0  0
 37 47  1  0  0  0
 37 66  1  0  0  0
 37107  1  0  0  0
 38 43  2  0  0  0
 38 46  1  0  0  0
 38 47  1  0  0  0
 39 64  1  0  0  0
 39 67  2  0  0  0
 40 52  1  0  0  0
 40 53  2  0  0  0
 40 58  1  0  0  0
 41108  1  0  0  0
 41109  1  0  0  0
 41110  1  0  0  0
 41 48  1  0  0  0
 42 43  1  0  0  0
 42 66  1  0  0  0
 42111  1  0  0  0
 42112  1  0  0  0
 43 44  1  0  0  0
 44113  1  0  0  0
 45 46  2  0  0  0
 45114  1  0  0  0
 46115  1  0  0  0
 47116  1  0  0  0
 47117  1  0  0  0
 48 56  1  0  0  0
 48 65  1  0  0  0
 48118  1  0  0  0
 49 50  1  0  0  0
 49 53  1  0  0  0
 49 64  1  0  0  0
 49119  1  0  0  0
 50 51  1  0  0  0
 50120  1  0  0  0
 50121  1  0  0  0
 51 52  1  0  0  0
 51122  1  0  0  0
 51123  1  0  0  0
 52124  1  0  0  0
 52125  1  0  0  0
 53 54  1  0  0  0
 54 55  2  0  0  0
 54126  1  0  0  0
 55 57  1  0  0  0
 55127  1  0  0  0
 56 69  2  0  0  0
 57 58  2  0  0  0
 57128  1  0  0  0
 58129  1  0  0  0
 59 60  1  0  0  0
 59 61  1  0  0  0
 59 62  1  0  0  0
 60130  1  0  0  0
 60131  1  0  0  0
 60132  1  0  0  0
 61133  1  0  0  0
 61134  1  0  0  0
 61135  1  0  0  0
 62136  1  0  0  0
 62137  1  0  0  0
 62138  1  0  0  0
 63 65  1  0  0  0
 63139  1  0  0  0
 63140  1  0  0  0
 63141  1  0  0  0
 64142  1  0  0  0
 65143  1  0  0  0
 68 83  1  0  0  0
 71 72  2  0  0  0
 71 75  1  0  0  0
 71144  1  0  0  0
 72 76  1  0  0  0
 72145  1  0  0  0
 73 74  1  0  0  0
 73 76  2  0  0  0
 73146  1  0  0  0
 74 75  2  0  0  0
 74 81  1  0  0  0
 75 82  1  0  0  0
 76 84  1  0  0  0
 77 79  1  0  0  0
 77 82  1  0  0  0
 77147  1  0  0  0
 77148  1  0  0  0
 78 80  1  0  0  0
 78 82  1  0  0  0
 78149  1  0  0  0
 78150  1  0  0  0
 79 83  1  0  0  0
 79151  1  0  0  0
 79152  1  0  0  0
 80 83  1  0  0  0
 80153  1  0  0  0
 80154  1  0  0  0
 81155  1  0  0  0
 81156  1  0  0  0
 81157  1  0  0  0
 84158  1  0  0  0
M  ISO  4   1 100  68 101  83 101  84 100
M  END
> <chiral flag>
0

> <version>
0

> <s_m_source_file>
/data/baiqing/PycharmProjects/Reinvent-master-3.2/result/LINK_invent/BTK/process_docking_weight1_custom_sum_contain_oxygen_bond_distance_aromatic_linkinvent_7_9_3/rearranged_h_0137.sdf

> <i_m_source_file_index>
15

> <r_mmod_Potential_Energy-OPLS-2005>
299.687103271484

> <r_mmod_Stretch_Energy-OPLS-2005>
142.444595336914

> <r_mmod_Bend_Energy-OPLS-2005>
198.657684326172

> <r_mmod_Torsional_Energy-OPLS-2005>
280.534027099609

> <r_mmod_Improper_Torsional_Energy-OPLS-2005>
7.02107048034668

> <r_mmod_Van_der_Waal_Energy-OPLS-2005>
144.451324462891

> <r_mmod_Electrostatic_Energy-OPLS-2005>
-352.614654541016

> <r_mmod_Solvation_Energy-OPLS-2005>
-228.450439453125

> <b_mmod_Minimization_Converged-OPLS-2005>
0

> <r_mmod_RMS_Derivative-OPLS-2005>
0.687483608722687

$$$$
15
                    3D
 Structure written by MMmdl.
171180  0  0  1  0            999 V2000
  -30.5975  -14.7566   20.4626 C   0  0  0  0  0  0
  -30.4405  -12.4674   19.4581 C   0  0  0  0  0  0
  -29.5070  -12.5163   18.2282 C   0  0  0  0  0  0
  -28.0335  -12.3437   18.6463 C   0  0  0  0  0  0
  -27.6442  -13.2338   19.8549 C   0  0  2  0  0  0
  -28.6951  -13.1553   20.9833 C   0  0  0  0  0  0
  -25.2525  -13.8201   20.5742 C   0  0  0  0  0  0
  -24.1816  -13.0441   20.9240 C   0  0  0  0  0  0
  -24.6407  -11.6921   20.8760 C   0  0  0  0  0  0
  -23.9091  -10.4294   21.0418 C   0  0  0  0  0  0
  -24.3634   -9.4208   21.9191 C   0  0  0  0  0  0
  -23.6302   -8.2247   22.0763 C   0  0  0  0  0  0
  -22.4286   -8.0289   21.3549 C   0  0  0  0  0  0
  -21.9928   -9.0268   20.4663 C   0  0  0  0  0  0
  -22.7261  -10.2141   20.3075 C   0  0  0  0  0  0
  -21.6862   -6.0747   22.5279 C   0  0  0  0  0  0
  -21.4015   -6.5643   23.8211 C   0  0  0  0  0  0
  -21.3660   -5.6795   24.9170 C   0  0  0  0  0  0
  -21.6041   -4.3058   24.7220 C   0  0  0  0  0  0
  -21.8820   -3.8151   23.4344 C   0  0  0  0  0  0
  -21.9197   -4.6973   22.3402 C   0  0  0  0  0  0
  -22.7831  -13.5207   21.1911 C   0  0  0  0  0  0
  -22.1660   -4.2157   21.0982 F   0  0  0  0  0  0
  -21.5639   -3.4544   25.7736 F   0  0  0  0  0  0
  -29.9912  -13.5214   20.3949 N   0  0  0  0  0  0
  -26.2960  -12.9414   20.3331 N   0  0  0  0  0  0
  -25.9341  -11.6548   20.5779 N   0  0  0  0  0  0
  -22.0487  -12.8160   22.0447 N   0  0  0  0  0  0
  -25.4187  -15.1929   20.4185 N   0  0  0  0  0  0
  -31.7907  -14.8759   20.1695 O   0  0  0  0  0  0
  -21.6648   -6.8888   21.4236 O   0  0  0  0  0  0
  -22.3500  -14.5511   20.6758 O   0  0  0  0  0  0
  -24.6343  -31.8543   23.1991 C   0  0  0  0  0  0
  -25.9168  -32.4737   23.8331 C   0  0  1  0  0  0
  -27.2116  -27.2392   20.1270 C   0  0  0  0  0  0
  -25.5958  -33.8539   24.2254 N   0  0  0  0  0  0
  -23.4307  -30.4791   21.5428 C   0  0  2  0  0  0
  -24.8753  -28.9277   20.1055 C   0  0  0  0  0  0
  -22.7508  -29.4604   22.4901 C   0  0  0  0  0  0
  -18.0298  -28.1410   22.8473 C   0  0  0  0  0  0
  -24.1494  -36.7273   23.2638 C   0  0  0  0  0  0
  -25.9785  -30.7578   21.3847 C   0  0  0  0  0  0
  -26.0476  -29.3802   20.7245 C   0  0  0  0  0  0
  -27.2140  -28.5467   20.7298 C   0  0  0  0  0  0
  -26.0218  -26.8738   19.4553 C   0  0  0  0  0  0
  -24.8702  -27.6838   19.4595 C   0  0  0  0  0  0
  -23.6484  -29.8183   20.1565 C   0  0  0  0  0  0
  -25.4120  -36.3052   24.0321 C   0  0  1  0  0  0
  -20.5902  -28.3724   23.1261 C   0  0  2  0  0  0
  -20.6791  -26.9435   22.5411 C   0  0  0  0  0  0
  -19.5767  -26.6390   21.5219 C   0  0  0  0  0  0
  -18.1937  -26.7951   22.1617 C   0  0  0  0  0  0
  -19.1548  -28.8880   23.2862 C   0  0  0  0  0  0
  -18.9466  -30.1481   23.8885 C   0  0  0  0  0  0
  -17.6464  -30.6599   24.0569 C   0  0  0  0  0  0
  -25.9067  -34.9428   23.5083 C   0  0  0  0  0  0
  -16.5358  -29.9097   23.6345 C   0  0  0  0  0  0
  -16.7283  -28.6526   23.0343 C   0  0  0  0  0  0
  -26.4531  -31.6572   25.0733 C   0  0  0  0  0  0
  -25.3744  -31.3718   26.1441 C   0  0  0  0  0  0
  -27.0395  -30.2984   24.6256 C   0  0  0  0  0  0
  -27.6079  -32.4321   25.7504 C   0  0  0  0  0  0
  -27.5580  -37.1785   24.8458 C   0  0  0  0  0  0
  -21.4214  -29.3060   22.3633 N   0  0  0  0  0  0
  -26.4286  -37.3758   23.9415 N   0  0  0  0  0  0
  -24.7003  -31.0486   22.0987 N   0  0  0  0  0  0
  -23.4179  -28.8137   23.3016 O   0  0  0  0  0  0
  -28.2973  -26.3266   20.2194 O   0  0  0  0  0  0
  -26.5621  -34.8910   22.4643 O   0  0  0  0  0  0
  -23.5492  -32.1387   23.7282 O   0  0  0  0  0  0
  -29.7018  -17.8326   18.3266 C   0  0  0  0  0  0
  -29.1348  -18.7012   17.4542 C   0  0  0  0  0  0
  -29.6029  -18.3493   19.6516 C   0  0  0  0  0  0
  -29.0950  -19.6842   19.5154 C   0  0  0  0  0  0
  -26.8861  -21.4886   18.6188 C   0  0  0  0  0  0
  -28.6401  -20.9613   20.3489 C   0  0  2  0  0  0
  -27.1056  -21.0924   20.1129 C   0  0  2  0  0  0
  -27.8502  -20.8258   17.5894 C   0  0  1  0  0  0
  -28.7192  -21.8309   16.8102 C   0  0  0  0  0  0
  -26.4729  -19.3376   21.9342 C   0  0  0  0  0  0
  -30.0501  -17.3692   20.8101 C   0  0  0  0  0  0
  -28.9220  -23.6743   20.6833 C   0  0  0  0  0  0
  -28.1429  -24.8552   19.8779 C   0  0  0  0  0  0
  -26.2870  -19.8146   20.4862 C   0  0  1  0  0  0
  -28.6793  -19.7758   18.1792 N   0  0  0  0  0  0
  -29.7857  -15.8614   20.6689 N   0  0  0  0  0  0
  -29.2861  -22.3241   20.0008 N   0  3  0  0  0  0
  -24.8964  -20.0485   20.3180 O   0  0  0  0  0  0
  -31.4771  -12.6092   19.1475 H   0  0  0  0  0  0
  -30.4042  -11.4875   19.9368 H   0  0  0  0  0  0
  -29.7804  -11.7394   17.5137 H   0  0  0  0  0  0
  -29.6331  -13.4674   17.7092 H   0  0  0  0  0  0
  -27.8825  -11.2937   18.8969 H   0  0  0  0  0  0
  -27.3748  -12.5497   17.8017 H   0  0  0  0  0  0
  -27.6381  -14.2578   19.4808 H   0  0  0  0  0  0
  -28.7374  -12.1520   21.4087 H   0  0  0  0  0  0
  -28.4349  -13.8241   21.8055 H   0  0  0  0  0  0
  -25.2784   -9.5675   22.4757 H   0  0  0  0  0  0
  -24.0022   -7.4635   22.7473 H   0  0  0  0  0  0
  -21.0874   -8.8787   19.8953 H   0  0  0  0  0  0
  -22.3733  -10.9682   19.6188 H   0  0  0  0  0  0
  -21.1988   -7.6149   23.9709 H   0  0  0  0  0  0
  -21.1484   -6.0529   25.9074 H   0  0  0  0  0  0
  -22.0595   -2.7616   23.2839 H   0  0  0  0  0  0
  -22.4120  -11.9810   22.4799 H   0  0  0  0  0  0
  -21.1108  -13.1162   22.2695 H   0  0  0  0  0  0
  -24.6481  -15.8415   20.5397 H   0  0  0  0  0  0
  -26.2572  -15.6401   20.0721 H   0  0  0  0  0  0
  -26.7237  -32.5363   23.1067 H   0  0  0  0  0  0
  -25.0140  -33.9686   25.0423 H   0  0  0  0  0  0
  -22.7303  -31.3042   21.3987 H   0  0  0  0  0  0
  -23.3761  -35.9598   23.3284 H   0  0  0  0  0  0
  -24.3596  -36.8925   22.2059 H   0  0  0  0  0  0
  -23.7247  -37.6464   23.6686 H   0  0  0  0  0  0
  -26.1228  -31.5186   20.6160 H   0  0  0  0  0  0
  -26.8549  -30.8035   22.0201 H   0  0  0  0  0  0
  -28.1037  -28.8819   21.2454 H   0  0  0  0  0  0
  -25.9394  -25.9393   18.9222 H   0  0  0  0  0  0
  -23.9790  -27.3375   18.9545 H   0  0  0  0  0  0
  -23.7737  -30.5989   19.4054 H   0  0  0  0  0  0
  -22.7655  -29.2556   19.8475 H   0  0  0  0  0  0
  -25.1308  -36.1890   25.0812 H   0  0  0  0  0  0
  -21.0000  -28.3318   24.1382 H   0  0  0  0  0  0
  -20.5719  -26.2329   23.3620 H   0  0  0  0  0  0
  -21.6655  -26.7469   22.1194 H   0  0  0  0  0  0
  -19.6935  -25.6296   21.1266 H   0  0  0  0  0  0
  -19.6727  -27.3190   20.6743 H   0  0  0  0  0  0
  -17.4218  -26.6710   21.4004 H   0  0  0  0  0  0
  -18.0325  -26.0099   22.9021 H   0  0  0  0  0  0
  -19.7936  -30.7305   24.2240 H   0  0  0  0  0  0
  -17.5017  -31.6275   24.5174 H   0  0  0  0  0  0
  -15.5362  -30.2990   23.7689 H   0  0  0  0  0  0
  -15.8682  -28.0855   22.7052 H   0  0  0  0  0  0
  -24.5958  -30.7024   25.7769 H   0  0  0  0  0  0
  -24.8885  -32.2876   26.4816 H   0  0  0  0  0  0
  -25.8065  -30.8941   27.0248 H   0  0  0  0  0  0
  -26.3000  -29.6695   24.1286 H   0  0  0  0  0  0
  -27.4073  -29.7289   25.4807 H   0  0  0  0  0  0
  -27.8879  -30.4257   23.9525 H   0  0  0  0  0  0
  -27.2698  -33.3650   26.2032 H   0  0  0  0  0  0
  -28.3907  -32.6836   25.0331 H   0  0  0  0  0  0
  -28.0722  -31.8470   26.5458 H   0  0  0  0  0  0
  -28.2563  -38.0113   24.7532 H   0  0  0  0  0  0
  -28.1113  -36.2645   24.6250 H   0  0  0  0  0  0
  -27.2301  -37.1384   25.8858 H   0  0  0  0  0  0
  -20.9400  -29.8764   21.6819 H   0  0  0  0  0  0
  -26.0159  -38.2825   24.1433 H   0  0  0  0  0  0
  -30.0959  -16.8663   18.0434 H   0  0  0  0  0  0
  -28.9595  -18.6247   16.3891 H   0  0  0  0  0  0
  -26.9483  -22.5711   18.5204 H   0  0  0  0  0  0
  -25.8621  -21.2703   18.3173 H   0  0  0  0  0  0
  -28.8406  -20.7814   21.4053 H   0  0  0  0  0  0
  -26.7273  -21.9022   20.7379 H   0  0  0  0  0  0
  -27.2126  -20.3353   16.8500 H   0  0  0  0  0  0
  -29.4731  -22.3153   17.4246 H   0  0  0  0  0  0
  -28.1070  -22.6114   16.3570 H   0  0  0  0  0  0
  -29.2526  -21.3283   16.0020 H   0  0  0  0  0  0
  -27.5003  -19.0313   22.1272 H   0  0  0  0  0  0
  -25.8486  -18.4679   22.1456 H   0  0  0  0  0  0
  -26.2182  -20.1146   22.6556 H   0  0  0  0  0  0
  -29.5599  -17.6998   21.7263 H   0  0  0  0  0  0
  -31.1172  -17.5248   20.9770 H   0  0  0  0  0  0
  -28.4183  -23.4829   21.6309 H   0  0  0  0  0  0
  -29.8837  -24.1025   20.9673 H   0  0  0  0  0  0
  -27.0970  -24.5668   19.9625 H   0  0  0  0  0  0
  -28.3886  -24.7648   18.8195 H   0  0  0  0  0  0
  -26.5518  -18.9932   19.8178 H   0  0  0  0  0  0
  -28.8180  -15.6144   20.8101 H   0  0  0  0  0  0
  -29.2414  -22.4364   19.0003 H   0  0  0  0  0  0
  -30.2638  -22.1832   20.2056 H   0  0  0  0  0  0
  -24.6190  -20.7051   20.9483 H   0  0  0  0  0  0
  1 25  1  0  0  0
  1 30  2  0  0  0
  1 86  1  0  0  0
  2  3  1  0  0  0
  2 25  1  0  0  0
  2 89  1  0  0  0
  2 90  1  0  0  0
  3  4  1  0  0  0
  3 91  1  0  0  0
  3 92  1  0  0  0
  4  5  1  0  0  0
  4 93  1  0  0  0
  4 94  1  0  0  0
  5  6  1  0  0  0
  5 26  1  0  0  0
  5 95  1  0  0  0
  6 25  1  0  0  0
  6 96  1  0  0  0
  6 97  1  0  0  0
  7  8  2  0  0  0
  7 26  1  0  0  0
  7 29  1  0  0  0
  8  9  1  0  0  0
  8 22  1  0  0  0
  9 10  1  0  0  0
  9 27  2  0  0  0
 10 11  2  0  0  0
 10 15  1  0  0  0
 11 12  1  0  0  0
 11 98  1  0  0  0
 12 13  2  0  0  0
 12 99  1  0  0  0
 13 14  1  0  0  0
 13 31  1  0  0  0
 14 15  2  0  0  0
 14100  1  0  0  0
 15101  1  0  0  0
 16 17  2  0  0  0
 16 21  1  0  0  0
 16 31  1  0  0  0
 17 18  1  0  0  0
 17102  1  0  0  0
 18 19  2  0  0  0
 18103  1  0  0  0
 19 20  1  0  0  0
 19 24  1  0  0  0
 20 21  2  0  0  0
 20104  1  0  0  0
 21 23  1  0  0  0
 22 28  1  0  0  0
 22 32  2  0  0  0
 26 27  1  0  0  0
 28105  1  0  0  0
 28106  1  0  0  0
 29107  1  0  0  0
 29108  1  0  0  0
 33 34  1  0  0  0
 33 66  1  0  0  0
 33 70  2  0  0  0
 34 36  1  0  0  0
 34 59  1  0  0  0
 34109  1  0  0  0
 35 44  2  0  0  0
 35 45  1  0  0  0
 35 68  1  0  0  0
 36 56  1  0  0  0
 36110  1  0  0  0
 37 39  1  0  0  0
 37 47  1  0  0  0
 37 66  1  0  0  0
 37111  1  0  0  0
 38 43  2  0  0  0
 38 46  1  0  0  0
 38 47  1  0  0  0
 39 64  1  0  0  0
 39 67  2  0  0  0
 40 52  1  0  0  0
 40 53  2  0  0  0
 40 58  1  0  0  0
 41112  1  0  0  0
 41113  1  0  0  0
 41114  1  0  0  0
 41 48  1  0  0  0
 42 43  1  0  0  0
 42 66  1  0  0  0
 42115  1  0  0  0
 42116  1  0  0  0
 43 44  1  0  0  0
 44117  1  0  0  0
 45 46  2  0  0  0
 45118  1  0  0  0
 46119  1  0  0  0
 47120  1  0  0  0
 47121  1  0  0  0
 48 56  1  0  0  0
 48 65  1  0  0  0
 48122  1  0  0  0
 49 50  1  0  0  0
 49 53  1  0  0  0
 49 64  1  0  0  0
 49123  1  0  0  0
 50 51  1  0  0  0
 50124  1  0  0  0
 50125  1  0  0  0
 51 52  1  0  0  0
 51126  1  0  0  0
 51127  1  0  0  0
 52128  1  0  0  0
 52129  1  0  0  0
 53 54  1  0  0  0
 54 55  2  0  0  0
 54130  1  0  0  0
 55 57  1  0  0  0
 55131  1  0  0  0
 56 69  2  0  0  0
 57 58  2  0  0  0
 57132  1  0  0  0
 58133  1  0  0  0
 59 60  1  0  0  0
 59 61  1  0  0  0
 59 62  1  0  0  0
 60134  1  0  0  0
 60135  1  0  0  0
 60136  1  0  0  0
 61137  1  0  0  0
 61138  1  0  0  0
 61139  1  0  0  0
 62140  1  0  0  0
 62141  1  0  0  0
 62142  1  0  0  0
 63 65  1  0  0  0
 63143  1  0  0  0
 63144  1  0  0  0
 63145  1  0  0  0
 64146  1  0  0  0
 65147  1  0  0  0
 68 83  1  0  0  0
 71 72  2  0  0  0
 71 73  1  0  0  0
 71148  1  0  0  0
 72 85  1  0  0  0
 72149  1  0  0  0
 73 74  2  0  0  0
 73 81  1  0  0  0
 74 76  1  0  0  0
 74 85  1  0  0  0
 75 78  1  0  0  0
 75150  1  0  0  0
 75151  1  0  0  0
 75 77  1  0  0  0
 76 77  1  0  0  0
 76 87  1  0  0  0
 76152  1  0  0  0
 77 84  1  0  0  0
 77153  1  0  0  0
 78 79  1  0  0  0
 78 85  1  0  0  0
 78154  1  0  0  0
 79155  1  0  0  0
 79156  1  0  0  0
 79157  1  0  0  0
 80158  1  0  0  0
 80159  1  0  0  0
 80160  1  0  0  0
 80 84  1  0  0  0
 81 86  1  0  0  0
 81161  1  0  0  0
 81162  1  0  0  0
 82 83  1  0  0  0
 82 87  1  0  0  0
 82163  1  0  0  0
 82164  1  0  0  0
 83165  1  0  0  0
 83166  1  0  0  0
 84 88  1  0  0  0
 84167  1  0  0  0
 86168  1  0  0  0
 87169  1  0  0  0
 87170  1  0  0  0
 88171  1  0  0  0
M  CHG  1  87   1
M  ISO  4   1 100  68 101  83 101  86 100
M  END
> <chiral flag>
0

> <version>
0

> <s_m_source_file>
/data/baiqing/PycharmProjects/Reinvent-master-3.2/result/LINK_invent/BTK/process_docking_weight1_custom_sum_contain_oxygen_bond_distance_aromatic_linkinvent_7_9_3/rearranged_h_0137.sdf

> <i_m_source_file_index>
16

> <r_mmod_Potential_Energy-OPLS-2005>
70.8008728027344

> <r_mmod_Stretch_Energy-OPLS-2005>
145.61882019043

> <r_mmod_Bend_Energy-OPLS-2005>
224.042572021484

> <r_mmod_Torsional_Energy-OPLS-2005>
281.044677734375

> <r_mmod_Improper_Torsional_Energy-OPLS-2005>
5.15846920013428

> <r_mmod_Van_der_Waal_Energy-OPLS-2005>
122.400405883789

> <r_mmod_Electrostatic_Energy-OPLS-2005>
-326.008819580078

> <r_mmod_Solvation_Energy-OPLS-2005>
-477.873992919922

> <b_mmod_Minimization_Converged-OPLS-2005>
0

> <r_mmod_RMS_Derivative-OPLS-2005>
1.90780448913574

$$$$
16
                    3D
 Structure written by MMmdl.
151160  0  0  1  0            999 V2000
  -30.4861  -15.0675   20.4308 C   0  0  0  0  0  0
  -30.4532  -12.6755   19.5192 C   0  0  0  0  0  0
  -29.5392  -12.5571   18.2766 C   0  0  0  0  0  0
  -28.0774  -12.3115   18.6957 C   0  0  0  0  0  0
  -27.6315  -13.2551   19.8428 C   0  0  2  0  0  0
  -28.6678  -13.3272   20.9836 C   0  0  0  0  0  0
  -25.2477  -13.8213   20.5744 C   0  0  0  0  0  0
  -24.1786  -13.0426   20.9201 C   0  0  0  0  0  0
  -24.6414  -11.6914   20.8743 C   0  0  0  0  0  0
  -23.9099  -10.4282   21.0396 C   0  0  0  0  0  0
  -24.3640   -9.4203   21.9184 C   0  0  0  0  0  0
  -23.6292   -8.2254   22.0773 C   0  0  0  0  0  0
  -22.4277   -8.0286   21.3556 C   0  0  0  0  0  0
  -21.9917   -9.0261   20.4662 C   0  0  0  0  0  0
  -22.7260  -10.2127   20.3057 C   0  0  0  0  0  0
  -21.6859   -6.0737   22.5274 C   0  0  0  0  0  0
  -21.4018   -6.5642   23.8205 C   0  0  0  0  0  0
  -21.3660   -5.6794   24.9169 C   0  0  0  0  0  0
  -21.6047   -4.3056   24.7215 C   0  0  0  0  0  0
  -21.8819   -3.8148   23.4338 C   0  0  0  0  0  0
  -21.9190   -4.6966   22.3397 C   0  0  0  0  0  0
  -22.7811  -13.5209   21.1842 C   0  0  0  0  0  0
  -22.1660   -4.2154   21.0973 F   0  0  0  0  0  0
  -21.5628   -3.4541   25.7732 F   0  0  0  0  0  0
  -29.9281  -13.7805   20.3794 N   0  0  0  0  0  0
  -26.2916  -12.9461   20.3266 N   0  0  0  0  0  0
  -25.9352  -11.6581   20.5731 N   0  0  0  0  0  0
  -22.0466  -12.8205   22.0401 N   0  0  0  0  0  0
  -25.4134  -15.1957   20.4273 N   0  0  0  0  0  0
  -31.6981  -15.1366   20.1879 O   0  0  0  0  0  0
  -21.6640   -6.8882   21.4239 O   0  0  0  0  0  0
  -22.3511  -14.5514   20.6685 O   0  0  0  0  0  0
  -24.6516  -31.8356   23.1848 C   0  0  0  0  0  0
  -25.9267  -32.4640   23.8231 C   0  0  1  0  0  0
  -27.2102  -27.0572   20.1639 C   0  0  0  0  0  0
  -25.5992  -33.8435   24.2175 N   0  0  0  0  0  0
  -23.4599  -30.4566   21.5287 C   0  0  2  0  0  0
  -24.9092  -28.8697   20.1167 C   0  0  0  0  0  0
  -22.7591  -29.4506   22.4786 C   0  0  0  0  0  0
  -18.0309  -28.1376   22.8434 C   0  0  0  0  0  0
  -24.1511  -36.7231   23.2638 C   0  0  0  0  0  0
  -26.0224  -30.6846   21.3960 C   0  0  0  0  0  0
  -26.0909  -29.2876   20.7405 C   0  0  0  0  0  0
  -27.2440  -28.4002   20.7446 C   0  0  0  0  0  0
  -26.0033  -26.7692   19.4889 C   0  0  0  0  0  0
  -24.8806  -27.6259   19.4729 C   0  0  0  0  0  0
  -23.6975  -29.7892   20.1497 C   0  0  0  0  0  0
  -25.4129  -36.2980   24.0326 C   0  0  1  0  0  0
  -20.5918  -28.3728   23.1167 C   0  0  2  0  0  0
  -20.6797  -26.9419   22.5356 C   0  0  0  0  0  0
  -19.5792  -26.6372   21.5148 C   0  0  0  0  0  0
  -18.1971  -26.7909   22.1570 C   0  0  0  0  0  0
  -19.1564  -28.8862   23.2795 C   0  0  0  0  0  0
  -18.9501  -30.1437   23.8858 C   0  0  0  0  0  0
  -17.6501  -30.6579   24.0543 C   0  0  0  0  0  0
  -25.9085  -34.9355   23.5062 C   0  0  0  0  0  0
  -16.5381  -29.9096   23.6313 C   0  0  0  0  0  0
  -16.7293  -28.6495   23.0351 C   0  0  0  0  0  0
  -26.4588  -31.6514   25.0682 C   0  0  0  0  0  0
  -25.3768  -31.3692   26.1375 C   0  0  0  0  0  0
  -27.0463  -30.2903   24.6274 C   0  0  0  0  0  0
  -27.6134  -32.4269   25.7461 C   0  0  0  0  0  0
  -27.5578  -37.1753   24.8470 C   0  0  0  0  0  0
  -21.4267  -29.3059   22.3556 N   0  0  0  0  0  0
  -26.4279  -37.3708   23.9423 N   0  0  0  0  0  0
  -24.7311  -31.0153   22.0918 N   0  0  0  0  0  0
  -23.4186  -28.8005   23.2939 O   0  0  0  0  0  0
  -28.2402  -26.0204   20.2046 O   0  0  0  0  0  0
  -26.5663  -34.8878   22.4632 O   0  0  0  0  0  0
  -23.5632  -32.1253   23.7037 O   0  0  0  0  0  0
  -31.1007  -19.9124   21.1142 C   0  0  0  0  0  0
  -30.9745  -18.4754   20.9897 C   0  0  0  0  0  0
  -28.7350  -18.7992   20.2151 C   0  0  0  0  0  0
  -30.0543  -20.8247   20.7772 C   0  0  0  0  0  0
  -28.8787  -20.2791   20.3020 C   0  0  0  0  0  0
  -29.7893  -17.8041   20.5468 C   0  0  0  0  0  0
  -30.0046  -22.4063   20.8598 C   0  0  0  0  0  0
  -27.9404  -21.5279   19.9660 C   0  0  0  0  0  0
  -28.7364  -22.9751   20.0576 C   0  0  1  0  0  0
  -27.9148  -24.4708   20.3861 C   0  0  0  0  0  0
  -29.6486  -16.2414   20.5232 N   0  0  0  0  0  0
  -31.4808  -12.8647   19.2067 H   0  0  0  0  0  0
  -30.4798  -11.7375   20.0749 H   0  0  0  0  0  0
  -29.8878  -11.7532   17.6273 H   0  0  0  0  0  0
  -29.6028  -13.4761   17.6919 H   0  0  0  0  0  0
  -28.0030  -11.2748   19.0241 H   0  0  0  0  0  0
  -27.4126  -12.4144   17.8365 H   0  0  0  0  0  0
  -27.5798  -14.2477   19.3948 H   0  0  0  0  0  0
  -28.7873  -12.3649   21.4846 H   0  0  0  0  0  0
  -28.3434  -14.0347   21.7481 H   0  0  0  0  0  0
  -25.2785   -9.5675   22.4758 H   0  0  0  0  0  0
  -23.9991   -7.4662   22.7507 H   0  0  0  0  0  0
  -21.0850   -8.8786   19.8979 H   0  0  0  0  0  0
  -22.3722  -10.9667   19.6171 H   0  0  0  0  0  0
  -21.2018   -7.6150   23.9705 H   0  0  0  0  0  0
  -21.1486   -6.0530   25.9070 H   0  0  0  0  0  0
  -22.0597   -2.7610   23.2833 H   0  0  0  0  0  0
  -22.4091  -11.9854   22.4762 H   0  0  0  0  0  0
  -21.1109  -13.1268   22.2649 H   0  0  0  0  0  0
  -24.6452  -15.8414   20.5669 H   0  0  0  0  0  0
  -26.2616  -15.6511   20.1201 H   0  0  0  0  0  0
  -26.7297  -32.5257   23.0926 H   0  0  0  0  0  0
  -25.0146  -33.9519   25.0339 H   0  0  0  0  0  0
  -22.7660  -31.2855   21.3677 H   0  0  0  0  0  0
  -23.3776  -35.9558   23.3269 H   0  0  0  0  0  0
  -24.3600  -36.8905   22.2055 H   0  0  0  0  0  0
  -23.7298  -37.6426   23.6718 H   0  0  0  0  0  0
  -26.1824  -31.4292   20.6155 H   0  0  0  0  0  0
  -26.8932  -30.7380   22.0377 H   0  0  0  0  0  0
  -28.1439  -28.7167   21.2519 H   0  0  0  0  0  0
  -25.8855  -25.8355   18.9613 H   0  0  0  0  0  0
  -23.9826  -27.3073   18.9605 H   0  0  0  0  0  0
  -23.8622  -30.5684   19.4042 H   0  0  0  0  0  0
  -22.8100  -29.2482   19.8179 H   0  0  0  0  0  0
  -25.1315  -36.1774   25.0823 H   0  0  0  0  0  0
  -21.0005  -28.3340   24.1291 H   0  0  0  0  0  0
  -20.5650  -26.2350   23.3587 H   0  0  0  0  0  0
  -21.6678  -26.7395   22.1187 H   0  0  0  0  0  0
  -19.6983  -25.6276   21.1223 H   0  0  0  0  0  0
  -19.6766  -27.3141   20.6645 H   0  0  0  0  0  0
  -17.4225  -26.6603   21.3989 H   0  0  0  0  0  0
  -18.0415  -26.0036   22.8962 H   0  0  0  0  0  0
  -19.7988  -30.7221   24.2257 H   0  0  0  0  0  0
  -17.5087  -31.6272   24.5148 H   0  0  0  0  0  0
  -15.5398  -30.3016   23.7674 H   0  0  0  0  0  0
  -15.8666  -28.0832   22.7107 H   0  0  0  0  0  0
  -24.6006  -30.6970   25.7713 H   0  0  0  0  0  0
  -24.8881  -32.2845   26.4678 H   0  0  0  0  0  0
  -25.8032  -30.8965   27.0222 H   0  0  0  0  0  0
  -26.3074  -29.6586   24.1327 H   0  0  0  0  0  0
  -27.4155  -29.7222   25.4812 H   0  0  0  0  0  0
  -27.8959  -30.4154   23.9552 H   0  0  0  0  0  0
  -27.2789  -33.3674   26.1837 H   0  0  0  0  0  0
  -28.4035  -32.6626   25.0313 H   0  0  0  0  0  0
  -28.0692  -31.8486   26.5510 H   0  0  0  0  0  0
  -28.2540  -38.0090   24.7507 H   0  0  0  0  0  0
  -28.1116  -36.2606   24.6298 H   0  0  0  0  0  0
  -27.2276  -37.1397   25.8862 H   0  0  0  0  0  0
  -20.9494  -29.8844   21.6786 H   0  0  0  0  0  0
  -26.0133  -38.2765   24.1447 H   0  0  0  0  0  0
  -32.0316  -20.3175   21.4872 H   0  0  0  0  0  0
  -31.8235  -17.8685   21.2772 H   0  0  0  0  0  0
  -27.7785  -18.4218   19.8822 H   0  0  0  0  0  0
  -30.9307  -22.8334   20.4683 H   0  0  0  0  0  0
  -29.9396  -22.6948   21.9102 H   0  0  0  0  0  0
  -27.1049  -21.5250   20.6674 H   0  0  0  0  0  0
  -27.5081  -21.3874   18.9741 H   0  0  0  0  0  0
  -29.1133  -23.1187   19.0436 H   0  0  0  0  0  0
  -27.5547  -24.3950   21.4121 H   0  0  0  0  0  0
  -27.0167  -24.3270   19.7937 H   0  0  0  0  0  0
  -28.6832  -15.9552   20.5744 H   0  0  0  0  0  0
  1 25  1  0  0  0
  1 30  2  0  0  0
  1 81  1  0  0  0
  2  3  1  0  0  0
  2 25  1  0  0  0
  2 82  1  0  0  0
  2 83  1  0  0  0
  3  4  1  0  0  0
  3 84  1  0  0  0
  3 85  1  0  0  0
  4  5  1  0  0  0
  4 86  1  0  0  0
  4 87  1  0  0  0
  5  6  1  0  0  0
  5 26  1  0  0  0
  5 88  1  0  0  0
  6 25  1  0  0  0
  6 89  1  0  0  0
  6 90  1  0  0  0
  7  8  2  0  0  0
  7 26  1  0  0  0
  7 29  1  0  0  0
  8  9  1  0  0  0
  8 22  1  0  0  0
  9 10  1  0  0  0
  9 27  2  0  0  0
 10 11  2  0  0  0
 10 15  1  0  0  0
 11 12  1  0  0  0
 11 91  1  0  0  0
 12 13  2  0  0  0
 12 92  1  0  0  0
 13 14  1  0  0  0
 13 31  1  0  0  0
 14 15  2  0  0  0
 14 93  1  0  0  0
 15 94  1  0  0  0
 16 17  2  0  0  0
 16 21  1  0  0  0
 16 31  1  0  0  0
 17 18  1  0  0  0
 17 95  1  0  0  0
 18 19  2  0  0  0
 18 96  1  0  0  0
 19 20  1  0  0  0
 19 24  1  0  0  0
 20 21  2  0  0  0
 20 97  1  0  0  0
 21 23  1  0  0  0
 22 28  1  0  0  0
 22 32  2  0  0  0
 26 27  1  0  0  0
 28 98  1  0  0  0
 28 99  1  0  0  0
 29100  1  0  0  0
 29101  1  0  0  0
 33 34  1  0  0  0
 33 66  1  0  0  0
 33 70  2  0  0  0
 34 36  1  0  0  0
 34 59  1  0  0  0
 34102  1  0  0  0
 35 44  2  0  0  0
 35 45  1  0  0  0
 35 68  1  0  0  0
 36 56  1  0  0  0
 36103  1  0  0  0
 37 39  1  0  0  0
 37 47  1  0  0  0
 37 66  1  0  0  0
 37104  1  0  0  0
 38 43  2  0  0  0
 38 46  1  0  0  0
 38 47  1  0  0  0
 39 64  1  0  0  0
 39 67  2  0  0  0
 40 52  1  0  0  0
 40 53  2  0  0  0
 40 58  1  0  0  0
 41105  1  0  0  0
 41106  1  0  0  0
 41107  1  0  0  0
 41 48  1  0  0  0
 42 43  1  0  0  0
 42 66  1  0  0  0
 42108  1  0  0  0
 42109  1  0  0  0
 43 44  1  0  0  0
 44110  1  0  0  0
 45 46  2  0  0  0
 45111  1  0  0  0
 46112  1  0  0  0
 47113  1  0  0  0
 47114  1  0  0  0
 48 56  1  0  0  0
 48 65  1  0  0  0
 48115  1  0  0  0
 49 50  1  0  0  0
 49 53  1  0  0  0
 49 64  1  0  0  0
 49116  1  0  0  0
 50 51  1  0  0  0
 50117  1  0  0  0
 50118  1  0  0  0
 51 52  1  0  0  0
 51119  1  0  0  0
 51120  1  0  0  0
 52121  1  0  0  0
 52122  1  0  0  0
 53 54  1  0  0  0
 54 55  2  0  0  0
 54123  1  0  0  0
 55 57  1  0  0  0
 55124  1  0  0  0
 56 69  2  0  0  0
 57 58  2  0  0  0
 57125  1  0  0  0
 58126  1  0  0  0
 59 60  1  0  0  0
 59 61  1  0  0  0
 59 62  1  0  0  0
 60127  1  0  0  0
 60128  1  0  0  0
 60129  1  0  0  0
 61130  1  0  0  0
 61131  1  0  0  0
 61132  1  0  0  0
 62133  1  0  0  0
 62134  1  0  0  0
 62135  1  0  0  0
 63 65  1  0  0  0
 63136  1  0  0  0
 63137  1  0  0  0
 63138  1  0  0  0
 64139  1  0  0  0
 65140  1  0  0  0
 68 80  1  0  0  0
 71 72  2  0  0  0
 71 74  1  0  0  0
 71141  1  0  0  0
 72 76  1  0  0  0
 72142  1  0  0  0
 73 75  1  0  0  0
 73 76  2  0  0  0
 73143  1  0  0  0
 74 75  2  0  0  0
 74 77  1  0  0  0
 75 78  1  0  0  0
 76 81  1  0  0  0
 77 79  1  0  0  0
 77144  1  0  0  0
 77145  1  0  0  0
 78 79  1  0  0  0
 78146  1  0  0  0
 78147  1  0  0  0
 79 80  1  0  0  0
 79148  1  0  0  0
 80149  1  0  0  0
 80150  1  0  0  0
 81151  1  0  0  0
M  ISO  4   1 100  68 101  80 101  81 100
M  END
> <chiral flag>
0

> <version>
0

> <s_m_source_file>
/data/baiqing/PycharmProjects/Reinvent-master-3.2/result/LINK_invent/BTK/process_docking_weight1_custom_sum_contain_oxygen_bond_distance_aromatic_linkinvent_7_9_3/rearranged_h_0137.sdf

> <i_m_source_file_index>
17

> <r_mmod_Potential_Energy-OPLS-2005>
719.407165527344

> <r_mmod_Stretch_Energy-OPLS-2005>
317.929870605469

> <r_mmod_Bend_Energy-OPLS-2005>
339.877807617188

> <r_mmod_Torsional_Energy-OPLS-2005>
227.025665283203

> <r_mmod_Improper_Torsional_Energy-OPLS-2005>
4.9217734336853

> <r_mmod_Van_der_Waal_Energy-OPLS-2005>
125.098861694336

> <r_mmod_Electrostatic_Energy-OPLS-2005>
-363.917205810547

> <r_mmod_Solvation_Energy-OPLS-2005>
-211.061737060547

> <b_mmod_Minimization_Converged-OPLS-2005>
0

> <r_mmod_RMS_Derivative-OPLS-2005>
3.43192434310913

$$$$
17
                    3D
 Structure written by MMmdl.
171180  0  0  1  0            999 V2000
  -30.7713  -14.3731   20.6689 C   0  0  0  0  0  0
  -30.4113  -12.2913   19.4006 C   0  0  0  0  0  0
  -29.4814  -12.5224   18.1952 C   0  0  0  0  0  0
  -28.0066  -12.3780   18.6129 C   0  0  0  0  0  0
  -27.6637  -13.2053   19.8794 C   0  0  2  0  0  0
  -28.7021  -12.9627   20.9978 C   0  0  0  0  0  0
  -25.2591  -13.8161   20.5682 C   0  0  0  0  0  0
  -24.1841  -13.0439   20.9171 C   0  0  0  0  0  0
  -24.6390  -11.6905   20.8733 C   0  0  0  0  0  0
  -23.9058  -10.4292   21.0404 C   0  0  0  0  0  0
  -24.3611   -9.4208   21.9184 C   0  0  0  0  0  0
  -23.6288   -8.2244   22.0756 C   0  0  0  0  0  0
  -22.4271   -8.0283   21.3545 C   0  0  0  0  0  0
  -21.9906   -9.0253   20.4645 C   0  0  0  0  0  0
  -22.7230  -10.2133   20.3055 C   0  0  0  0  0  0
  -21.6853   -6.0734   22.5275 C   0  0  0  0  0  0
  -21.4015   -6.5635   23.8208 C   0  0  0  0  0  0
  -21.3658   -5.6789   24.9174 C   0  0  0  0  0  0
  -21.6047   -4.3054   24.7222 C   0  0  0  0  0  0
  -21.8816   -3.8145   23.4343 C   0  0  0  0  0  0
  -21.9189   -4.6963   22.3399 C   0  0  0  0  0  0
  -22.7864  -13.5241   21.1840 C   0  0  0  0  0  0
  -22.1658   -4.2150   21.0977 F   0  0  0  0  0  0
  -21.5631   -3.4536   25.7736 F   0  0  0  0  0  0
  -30.0431  -13.2475   20.4553 N   0  0  0  0  0  0
  -26.3028  -12.9326   20.3379 N   0  0  0  0  0  0
  -25.9318  -11.6486   20.5765 N   0  0  0  0  0  0
  -22.0507  -12.8228   22.0390 N   0  0  0  0  0  0
  -25.4339  -15.1873   20.4082 N   0  0  0  0  0  0
  -31.8118  -14.6312   20.0598 O   0  0  0  0  0  0
  -21.6635   -6.8881   21.4238 O   0  0  0  0  0  0
  -22.3557  -14.5555   20.6704 O   0  0  0  0  0  0
  -24.6148  -31.8677   23.2120 C   0  0  0  0  0  0
  -25.9048  -32.4816   23.8409 C   0  0  1  0  0  0
  -27.2383  -27.4451   20.0761 C   0  0  0  0  0  0
  -25.5906  -33.8621   24.2332 N   0  0  0  0  0  0
  -23.4010  -30.4921   21.5524 C   0  0  2  0  0  0
  -24.8451  -28.9613   20.1140 C   0  0  0  0  0  0
  -22.7395  -29.4666   22.5010 C   0  0  0  0  0  0
  -18.0270  -28.1384   22.8501 C   0  0  0  0  0  0
  -24.1488  -36.7315   23.2635 C   0  0  0  0  0  0
  -25.9296  -30.8341   21.3643 C   0  0  0  0  0  0
  -26.0044  -29.4700   20.7107 C   0  0  0  0  0  0
  -27.1989  -28.7165   20.6939 C   0  0  0  0  0  0
  -26.0568  -26.9539   19.4711 C   0  0  0  0  0  0
  -24.8653  -27.6999   19.4964 C   0  0  0  0  0  0
  -23.6064  -29.8243   20.1671 C   0  0  0  0  0  0
  -25.4108  -36.3108   24.0331 C   0  0  1  0  0  0
  -20.5859  -28.3660   23.1332 C   0  0  2  0  0  0
  -20.6763  -26.9396   22.5430 C   0  0  0  0  0  0
  -19.5738  -26.6392   21.5224 C   0  0  0  0  0  0
  -18.1909  -26.7938   22.1621 C   0  0  0  0  0  0
  -19.1519  -28.8841   23.2912 C   0  0  0  0  0  0
  -18.9447  -30.1456   23.8912 C   0  0  0  0  0  0
  -17.6448  -30.6587   24.0576 C   0  0  0  0  0  0
  -25.9031  -34.9474   23.5125 C   0  0  0  0  0  0
  -16.5342  -29.9086   23.6341 C   0  0  0  0  0  0
  -16.7261  -28.6510   23.0352 C   0  0  0  0  0  0
  -26.4474  -31.6597   25.0739 C   0  0  0  0  0  0
  -25.3739  -31.3676   26.1479 C   0  0  0  0  0  0
  -27.0312  -30.3051   24.6110 C   0  0  0  0  0  0
  -27.6064  -32.4308   25.7486 C   0  0  0  0  0  0
  -27.5589  -37.1794   24.8451 C   0  0  0  0  0  0
  -21.4129  -29.3029   22.3738 N   0  0  0  0  0  0
  -26.4287  -37.3799   23.9419 N   0  0  0  0  0  0
  -24.6668  -31.0786   22.1011 N   0  0  0  0  0  0
  -23.4168  -28.8206   23.3049 O   0  0  0  0  0  0
  -28.4327  -26.7490   20.0918 O   0  0  0  0  0  0
  -26.5586  -34.8920   22.4682 O   0  0  0  0  0  0
  -23.5346  -32.1429   23.7525 O   0  0  0  0  0  0
  -27.6039  -18.3518   18.5227 C   0  0  0  0  0  0
  -27.6349  -19.8601   18.7728 C   0  0  0  0  0  0
  -27.9452  -22.9642   19.8619 C   0  0  0  0  0  0
  -30.1936  -23.6225   18.9062 C   0  0  0  0  0  0
  -29.0756  -17.9485   18.4780 C   0  0  0  0  0  0
  -27.8036  -24.3804   20.4468 C   0  0  0  0  0  0
  -29.9983  -25.0504   19.4491 C   0  0  0  0  0  0
  -29.4304  -22.5632   19.7297 C   0  0  2  0  0  0
  -28.9033  -20.1338   19.6072 C   0  0  1  0  0  0
  -29.7663  -18.8442   19.5177 C   0  0  1  0  0  0
  -28.5089  -25.4241   19.5524 C   0  0  2  0  0  0
  -31.0345  -16.3673   22.1300 C   0  0  0  0  0  0
  -31.1579  -17.5332   21.1231 C   0  0  0  0  0  0
  -30.3014  -15.2076   21.6079 N   0  0  0  0  0  0
  -29.6251  -21.2811   19.0521 N   0  0  0  0  0  0
  -29.8553  -18.1686   20.8321 N   0  3  0  0  0  0
  -31.4550  -12.3833   19.0950 H   0  0  0  0  0  0
  -30.3051  -11.2715   19.7739 H   0  0  0  0  0  0
  -29.7142  -11.8151   17.3980 H   0  0  0  0  0  0
  -29.6513  -13.5180   17.7817 H   0  0  0  0  0  0
  -27.8161  -11.3204   18.7982 H   0  0  0  0  0  0
  -27.3520  -12.6648   17.7891 H   0  0  0  0  0  0
  -27.7175  -14.2575   19.5988 H   0  0  0  0  0  0
  -28.6634  -11.9237   21.3290 H   0  0  0  0  0  0
  -28.4520  -13.5540   21.8793 H   0  0  0  0  0  0
  -25.2759   -9.5679   22.4759 H   0  0  0  0  0  0
  -23.9994   -7.4638   22.7480 H   0  0  0  0  0  0
  -21.0840   -8.8771   19.8953 H   0  0  0  0  0  0
  -22.3693  -10.9674   19.6167 H   0  0  0  0  0  0
  -21.2008   -7.6143   23.9714 H   0  0  0  0  0  0
  -21.1484   -6.0520   25.9075 H   0  0  0  0  0  0
  -22.0596   -2.7608   23.2843 H   0  0  0  0  0  0
  -22.4121  -11.9878   22.4756 H   0  0  0  0  0  0
  -21.1132  -13.1258   22.2615 H   0  0  0  0  0  0
  -24.6664  -15.8436   20.5055 H   0  0  0  0  0  0
  -26.2834  -15.6159   20.0658 H   0  0  0  0  0  0
  -26.7123  -32.5520   23.1178 H   0  0  0  0  0  0
  -25.0091  -33.9794   25.0498 H   0  0  0  0  0  0
  -22.6903  -31.3096   21.4145 H   0  0  0  0  0  0
  -23.3760  -35.9633   23.3257 H   0  0  0  0  0  0
  -24.3596  -36.8974   22.2059 H   0  0  0  0  0  0
  -23.7221  -37.6497   23.6681 H   0  0  0  0  0  0
  -26.0429  -31.6010   20.5969 H   0  0  0  0  0  0
  -26.8179  -30.8862   21.9816 H   0  0  0  0  0  0
  -28.0944  -29.1091   21.1550 H   0  0  0  0  0  0
  -26.0275  -25.9980   18.9713 H   0  0  0  0  0  0
  -23.9742  -27.3023   19.0309 H   0  0  0  0  0  0
  -23.7091  -30.5979   19.4056 H   0  0  0  0  0  0
  -22.7322  -29.2391   19.8765 H   0  0  0  0  0  0
  -25.1283  -36.1966   25.0823 H   0  0  0  0  0  0
  -20.9955  -28.3227   24.1451 H   0  0  0  0  0  0
  -20.5687  -26.2261   23.3611 H   0  0  0  0  0  0
  -21.6631  -26.7439   22.1217 H   0  0  0  0  0  0
  -19.6890  -25.6308   21.1245 H   0  0  0  0  0  0
  -19.6691  -27.3216   20.6768 H   0  0  0  0  0  0
  -17.4194  -26.6730   21.4003 H   0  0  0  0  0  0
  -18.0261  -26.0065   22.8994 H   0  0  0  0  0  0
  -19.7917  -30.7286   24.2276 H   0  0  0  0  0  0
  -17.4990  -31.6269   24.5167 H   0  0  0  0  0  0
  -15.5342  -30.2987   23.7654 H   0  0  0  0  0  0
  -15.8665  -28.0840   22.7046 H   0  0  0  0  0  0
  -24.5988  -30.6927   25.7826 H   0  0  0  0  0  0
  -24.8833  -32.2803   26.4874 H   0  0  0  0  0  0
  -25.8115  -30.8924   27.0269 H   0  0  0  0  0  0
  -26.2859  -29.6799   24.1184 H   0  0  0  0  0  0
  -27.4110  -29.7302   25.4566 H   0  0  0  0  0  0
  -27.8672  -30.4388   23.9242 H   0  0  0  0  0  0
  -27.2720  -33.3619   26.2072 H   0  0  0  0  0  0
  -28.3864  -32.6841   25.0292 H   0  0  0  0  0  0
  -28.0736  -31.8415   26.5387 H   0  0  0  0  0  0
  -28.2563  -38.0137   24.7572 H   0  0  0  0  0  0
  -28.1134  -36.2674   24.6186 H   0  0  0  0  0  0
  -27.2315  -37.1327   25.8852 H   0  0  0  0  0  0
  -20.9282  -29.8749   21.6964 H   0  0  0  0  0  0
  -26.0170  -38.2863   24.1470 H   0  0  0  0  0  0
  -27.0712  -18.0912   17.6068 H   0  0  0  0  0  0
  -27.1006  -17.8492   19.3491 H   0  0  0  0  0  0
  -26.7285  -20.2029   19.2734 H   0  0  0  0  0  0
  -27.6816  -20.3760   17.8115 H   0  0  0  0  0  0
  -27.4546  -22.9234   18.8879 H   0  0  0  0  0  0
  -27.4124  -22.2694   20.5104 H   0  0  0  0  0  0
  -31.2596  -23.3907   18.8879 H   0  0  0  0  0  0
  -29.8571  -23.5965   17.8681 H   0  0  0  0  0  0
  -29.4755  -18.1817   17.4901 H   0  0  0  0  0  0
  -29.2322  -16.8810   18.6394 H   0  0  0  0  0  0
  -28.2368  -24.4047   21.4470 H   0  0  0  0  0  0
  -26.7472  -24.6070   20.5767 H   0  0  0  0  0  0
  -30.5157  -25.7609   18.8037 H   0  0  0  0  0  0
  -30.4662  -25.1304   20.4313 H   0  0  0  0  0  0
  -29.8703  -22.5036   20.7273 H   0  0  0  0  0  0
  -28.6413  -20.3243   20.6498 H   0  0  0  0  0  0
  -30.7777  -19.0810   19.1810 H   0  0  0  0  0  0
  -28.0930  -25.4091   18.5437 H   0  0  0  0  0  0
  -30.5541  -16.7086   23.0479 H   0  0  0  0  0  0
  -32.0346  -16.0435   22.4253 H   0  0  0  0  0  0
  -31.6232  -17.1824   20.2018 H   0  0  0  0  0  0
  -31.8270  -18.2967   21.5219 H   0  0  0  0  0  0
  -29.4642  -14.9191   22.0944 H   0  0  0  0  0  0
  -30.6215  -21.0808   19.0427 H   0  0  0  0  0  0
  -29.1274  -17.4767   20.8903 H   0  0  0  0  0  0
  -29.6812  -18.8519   21.5520 H   0  0  0  0  0  0
  1 25  1  0  0  0
  1 30  2  0  0  0
  1 84  1  0  0  0
  2  3  1  0  0  0
  2 25  1  0  0  0
  2 87  1  0  0  0
  2 88  1  0  0  0
  3  4  1  0  0  0
  3 89  1  0  0  0
  3 90  1  0  0  0
  4  5  1  0  0  0
  4 91  1  0  0  0
  4 92  1  0  0  0
  5  6  1  0  0  0
  5 26  1  0  0  0
  5 93  1  0  0  0
  6 25  1  0  0  0
  6 94  1  0  0  0
  6 95  1  0  0  0
  7  8  2  0  0  0
  7 26  1  0  0  0
  7 29  1  0  0  0
  8  9  1  0  0  0
  8 22  1  0  0  0
  9 10  1  0  0  0
  9 27  2  0  0  0
 10 11  2  0  0  0
 10 15  1  0  0  0
 11 12  1  0  0  0
 11 96  1  0  0  0
 12 13  2  0  0  0
 12 97  1  0  0  0
 13 14  1  0  0  0
 13 31  1  0  0  0
 14 15  2  0  0  0
 14 98  1  0  0  0
 15 99  1  0  0  0
 16 17  2  0  0  0
 16 21  1  0  0  0
 16 31  1  0  0  0
 17 18  1  0  0  0
 17100  1  0  0  0
 18 19  2  0  0  0
 18101  1  0  0  0
 19 20  1  0  0  0
 19 24  1  0  0  0
 20 21  2  0  0  0
 20102  1  0  0  0
 21 23  1  0  0  0
 22 28  1  0  0  0
 22 32  2  0  0  0
 26 27  1  0  0  0
 28103  1  0  0  0
 28104  1  0  0  0
 29105  1  0  0  0
 29106  1  0  0  0
 33 34  1  0  0  0
 33 66  1  0  0  0
 33 70  2  0  0  0
 34 36  1  0  0  0
 34 59  1  0  0  0
 34107  1  0  0  0
 35 44  2  0  0  0
 35 45  1  0  0  0
 35 68  1  0  0  0
 36 56  1  0  0  0
 36108  1  0  0  0
 37 39  1  0  0  0
 37 47  1  0  0  0
 37 66  1  0  0  0
 37109  1  0  0  0
 38 43  2  0  0  0
 38 46  1  0  0  0
 38 47  1  0  0  0
 39 64  1  0  0  0
 39 67  2  0  0  0
 40 52  1  0  0  0
 40 53  2  0  0  0
 40 58  1  0  0  0
 41110  1  0  0  0
 41111  1  0  0  0
 41112  1  0  0  0
 41 48  1  0  0  0
 42 43  1  0  0  0
 42 66  1  0  0  0
 42113  1  0  0  0
 42114  1  0  0  0
 43 44  1  0  0  0
 44115  1  0  0  0
 45 46  2  0  0  0
 45116  1  0  0  0
 46117  1  0  0  0
 47118  1  0  0  0
 47119  1  0  0  0
 48 56  1  0  0  0
 48 65  1  0  0  0
 48120  1  0  0  0
 49 50  1  0  0  0
 49 53  1  0  0  0
 49 64  1  0  0  0
 49121  1  0  0  0
 50 51  1  0  0  0
 50122  1  0  0  0
 50123  1  0  0  0
 51 52  1  0  0  0
 51124  1  0  0  0
 51125  1  0  0  0
 52126  1  0  0  0
 52127  1  0  0  0
 53 54  1  0  0  0
 54 55  2  0  0  0
 54128  1  0  0  0
 55 57  1  0  0  0
 55129  1  0  0  0
 56 69  2  0  0  0
 57 58  2  0  0  0
 57130  1  0  0  0
 58131  1  0  0  0
 59 60  1  0  0  0
 59 61  1  0  0  0
 59 62  1  0  0  0
 60132  1  0  0  0
 60133  1  0  0  0
 60134  1  0  0  0
 61135  1  0  0  0
 61136  1  0  0  0
 61137  1  0  0  0
 62138  1  0  0  0
 62139  1  0  0  0
 62140  1  0  0  0
 63 65  1  0  0  0
 63141  1  0  0  0
 63142  1  0  0  0
 63143  1  0  0  0
 64144  1  0  0  0
 65145  1  0  0  0
 68 81  1  0  0  0
 71 72  1  0  0  0
 71 75  1  0  0  0
 71146  1  0  0  0
 71147  1  0  0  0
 72 79  1  0  0  0
 72148  1  0  0  0
 72149  1  0  0  0
 73 76  1  0  0  0
 73 78  1  0  0  0
 73150  1  0  0  0
 73151  1  0  0  0
 74 77  1  0  0  0
 74 78  1  0  0  0
 74152  1  0  0  0
 74153  1  0  0  0
 75 80  1  0  0  0
 75154  1  0  0  0
 75155  1  0  0  0
 76 81  1  0  0  0
 76156  1  0  0  0
 76157  1  0  0  0
 77 81  1  0  0  0
 77158  1  0  0  0
 77159  1  0  0  0
 78 85  1  0  0  0
 78160  1  0  0  0
 79 80  1  0  0  0
 79 85  1  0  0  0
 79161  1  0  0  0
 80 86  1  0  0  0
 80162  1  0  0  0
 81163  1  0  0  0
 82 83  1  0  0  0
 82 84  1  0  0  0
 82164  1  0  0  0
 82165  1  0  0  0
 83 86  1  0  0  0
 83166  1  0  0  0
 83167  1  0  0  0
 84168  1  0  0  0
 85169  1  0  0  0
 86170  1  0  0  0
 86171  1  0  0  0
M  CHG  1  86   1
M  ISO  4   1 100  68 101  81 101  84 100
M  END
> <chiral flag>
0

> <version>
0

> <s_m_source_file>
/data/baiqing/PycharmProjects/Reinvent-master-3.2/result/LINK_invent/BTK/process_docking_weight1_custom_sum_contain_oxygen_bond_distance_aromatic_linkinvent_7_9_3/rearranged_h_0137.sdf

> <i_m_source_file_index>
18

> <r_mmod_Potential_Energy-OPLS-2005>
-229.306838989258

> <r_mmod_Stretch_Energy-OPLS-2005>
34.095401763916

> <r_mmod_Bend_Energy-OPLS-2005>
124.64404296875

> <r_mmod_Torsional_Energy-OPLS-2005>
306.334136962891

> <r_mmod_Improper_Torsional_Energy-OPLS-2005>
2.0470917224884

> <r_mmod_Van_der_Waal_Energy-OPLS-2005>
138.525802612305

> <r_mmod_Electrostatic_Energy-OPLS-2005>
-377.844482421875

> <r_mmod_Solvation_Energy-OPLS-2005>
-465.503143310547

> <b_mmod_Minimization_Converged-OPLS-2005>
0

> <r_mmod_RMS_Derivative-OPLS-2005>
1.0778923034668

$$$$
18
                    3D
 Structure written by MMmdl.
151159  0  0  1  0            999 V2000
  -30.5078  -14.9126   20.4291 C   0  0  0  0  0  0
  -30.4550  -12.5587   19.4895 C   0  0  0  0  0  0
  -29.5261  -12.5209   18.2514 C   0  0  0  0  0  0
  -28.0560  -12.3143   18.6676 C   0  0  0  0  0  0
  -27.6385  -13.2339   19.8443 C   0  0  2  0  0  0
  -28.6832  -13.2117   20.9817 C   0  0  0  0  0  0
  -25.2504  -13.8178   20.5680 C   0  0  0  0  0  0
  -24.1805  -13.0432   20.9232 C   0  0  0  0  0  0
  -24.6397  -11.6909   20.8754 C   0  0  0  0  0  0
  -23.9069  -10.4289   21.0410 C   0  0  0  0  0  0
  -24.3618   -9.4202   21.9185 C   0  0  0  0  0  0
  -23.6291   -8.2238   22.0752 C   0  0  0  0  0  0
  -22.4272   -8.0280   21.3545 C   0  0  0  0  0  0
  -21.9911   -9.0256   20.4649 C   0  0  0  0  0  0
  -22.7242  -10.2134   20.3059 C   0  0  0  0  0  0
  -21.6853   -6.0731   22.5275 C   0  0  0  0  0  0
  -21.4014   -6.5634   23.8207 C   0  0  0  0  0  0
  -21.3658   -5.6789   24.9171 C   0  0  0  0  0  0
  -21.6044   -4.3052   24.7224 C   0  0  0  0  0  0
  -21.8819   -3.8144   23.4345 C   0  0  0  0  0  0
  -21.9194   -4.6960   22.3400 C   0  0  0  0  0  0
  -22.7824  -13.5217   21.1882 C   0  0  0  0  0  0
  -22.1664   -4.2145   21.0978 F   0  0  0  0  0  0
  -21.5629   -3.4537   25.7739 F   0  0  0  0  0  0
  -29.9671  -13.6310   20.3983 N   0  0  0  0  0  0
  -26.2922  -12.9384   20.3237 N   0  0  0  0  0  0
  -25.9326  -11.6531   20.5734 N   0  0  0  0  0  0
  -22.0469  -12.8210   22.0440 N   0  0  0  0  0  0
  -25.4173  -15.1893   20.4013 N   0  0  0  0  0  0
  -31.6973  -15.0557   20.1216 O   0  0  0  0  0  0
  -21.6637   -6.8877   21.4239 O   0  0  0  0  0  0
  -22.3513  -14.5519   20.6718 O   0  0  0  0  0  0
  -24.6426  -31.8461   23.1891 C   0  0  0  0  0  0
  -25.9206  -32.4703   23.8274 C   0  0  1  0  0  0
  -27.2217  -27.1522   20.1441 C   0  0  0  0  0  0
  -25.5958  -33.8509   24.2198 N   0  0  0  0  0  0
  -23.4448  -30.4656   21.5351 C   0  0  2  0  0  0
  -24.8940  -28.8959   20.1101 C   0  0  0  0  0  0
  -22.7564  -29.4556   22.4872 C   0  0  0  0  0  0
  -18.0311  -28.1402   22.8470 C   0  0  0  0  0  0
  -24.1489  -36.7247   23.2641 C   0  0  0  0  0  0
  -26.0000  -30.7242   21.3855 C   0  0  0  0  0  0
  -26.0722  -29.3376   20.7257 C   0  0  0  0  0  0
  -27.2368  -28.4832   20.7235 C   0  0  0  0  0  0
  -26.0132  -26.8081   19.4961 C   0  0  0  0  0  0
  -24.8773  -27.6437   19.4800 C   0  0  0  0  0  0
  -23.6697  -29.7957   20.1540 C   0  0  0  0  0  0
  -25.4124  -36.3035   24.0316 C   0  0  1  0  0  0
  -20.5919  -28.3722   23.1237 C   0  0  2  0  0  0
  -20.6785  -26.9427   22.5405 C   0  0  0  0  0  0
  -19.5763  -26.6391   21.5205 C   0  0  0  0  0  0
  -18.1947  -26.7943   22.1623 C   0  0  0  0  0  0
  -19.1566  -28.8884   23.2842 C   0  0  0  0  0  0
  -18.9486  -30.1481   23.8864 C   0  0  0  0  0  0
  -17.6481  -30.6593   24.0566 C   0  0  0  0  0  0
  -25.9073  -34.9412   23.5066 C   0  0  0  0  0  0
  -16.5373  -29.9085   23.6341 C   0  0  0  0  0  0
  -16.7296  -28.6511   23.0349 C   0  0  0  0  0  0
  -26.4525  -31.6569   25.0715 C   0  0  0  0  0  0
  -25.3714  -31.3768   26.1421 C   0  0  0  0  0  0
  -27.0387  -30.2968   24.6287 C   0  0  0  0  0  0
  -27.6070  -32.4324   25.7487 C   0  0  0  0  0  0
  -27.5577  -37.1779   24.8468 C   0  0  0  0  0  0
  -21.4259  -29.3050   22.3615 N   0  0  0  0  0  0
  -26.4284  -37.3752   23.9413 N   0  0  0  0  0  0
  -24.7156  -31.0328   22.0916 N   0  0  0  0  0  0
  -23.4212  -28.8108   23.3024 O   0  0  0  0  0  0
  -28.2811  -26.1761   20.2093 O   0  0  0  0  0  0
  -26.5656  -34.8908   22.4641 O   0  0  0  0  0  0
  -23.5549  -32.1334   23.7117 O   0  0  0  0  0  0
  -30.4981  -18.5519   20.3612 C   0  0  0  0  0  0
  -30.1892  -19.9880   20.2936 C   0  0  0  0  0  0
  -28.2011  -18.0862   20.5838 C   0  0  0  0  0  0
  -27.8880  -19.4943   20.5011 C   0  0  0  0  0  0
  -29.5071  -17.5122   20.5126 C   0  0  0  0  0  0
  -28.8570  -20.5410   20.3564 C   0  0  0  0  0  0
  -26.4237  -19.8906   20.5787 C   0  0  0  0  0  0
  -27.9856  -24.6570   20.0673 C   0  0  0  0  0  0
  -28.9726  -23.3093   20.2984 C   0  0  0  0  0  0
  -29.6169  -15.9892   20.6425 N   0  0  0  0  0  0
  -28.3469  -21.9125   20.2640 O   0  0  0  0  0  0
  -31.4864  -12.7322   19.1783 H   0  0  0  0  0  0
  -30.4552  -11.5952   20.0011 H   0  0  0  0  0  0
  -29.8364  -11.7263   17.5718 H   0  0  0  0  0  0
  -29.6212  -13.4531   17.6926 H   0  0  0  0  0  0
  -27.9426  -11.2703   18.9628 H   0  0  0  0  0  0
  -27.3936  -12.4616   17.8140 H   0  0  0  0  0  0
  -27.6165  -14.2440   19.4354 H   0  0  0  0  0  0
  -28.7612  -12.2149   21.4182 H   0  0  0  0  0  0
  -28.3866  -13.8760   21.7951 H   0  0  0  0  0  0
  -25.2766   -9.5673   22.4757 H   0  0  0  0  0  0
  -24.0002   -7.4623   22.7465 H   0  0  0  0  0  0
  -21.0845   -8.8772   19.8950 H   0  0  0  0  0  0
  -22.3698  -10.9671   19.6166 H   0  0  0  0  0  0
  -21.2006   -7.6141   23.9709 H   0  0  0  0  0  0
  -21.1480   -6.0519   25.9073 H   0  0  0  0  0  0
  -22.0601   -2.7608   23.2846 H   0  0  0  0  0  0
  -22.4090  -11.9880   22.4841 H   0  0  0  0  0  0
  -21.1080  -13.1223   22.2634 H   0  0  0  0  0  0
  -24.6324  -15.8270   20.4786 H   0  0  0  0  0  0
  -26.2202  -15.6046   19.9488 H   0  0  0  0  0  0
  -26.7271  -32.5312   23.1001 H   0  0  0  0  0  0
  -25.0091  -33.9622   25.0337 H   0  0  0  0  0  0
  -22.7459  -31.2905   21.3823 H   0  0  0  0  0  0
  -23.3759  -35.9569   23.3295 H   0  0  0  0  0  0
  -24.3573  -36.8888   22.2058 H   0  0  0  0  0  0
  -23.7234  -37.6437   23.6678 H   0  0  0  0  0  0
  -26.1562  -31.4800   20.6147 H   0  0  0  0  0  0
  -26.8703  -30.7725   22.0285 H   0  0  0  0  0  0
  -28.1348  -28.8186   21.2235 H   0  0  0  0  0  0
  -25.9055  -25.8516   19.0090 H   0  0  0  0  0  0
  -23.9787  -27.2988   18.9876 H   0  0  0  0  0  0
  -23.8038  -30.5700   19.3977 H   0  0  0  0  0  0
  -22.7838  -29.2374   19.8451 H   0  0  0  0  0  0
  -25.1311  -36.1858   25.0807 H   0  0  0  0  0  0
  -21.0017  -28.3310   24.1357 H   0  0  0  0  0  0
  -20.5676  -26.2334   23.3623 H   0  0  0  0  0  0
  -21.6653  -26.7430   22.1211 H   0  0  0  0  0  0
  -19.6916  -25.6295   21.1252 H   0  0  0  0  0  0
  -19.6697  -27.3186   20.6721 H   0  0  0  0  0  0
  -17.4216  -26.6684   21.4031 H   0  0  0  0  0  0
  -18.0349  -26.0094   22.9030 H   0  0  0  0  0  0
  -19.7959  -30.7305   24.2218 H   0  0  0  0  0  0
  -17.5036  -31.6269   24.5176 H   0  0  0  0  0  0
  -15.5373  -30.2976   23.7684 H   0  0  0  0  0  0
  -15.8697  -28.0825   22.7073 H   0  0  0  0  0  0
  -24.5878  -30.7127   25.7751 H   0  0  0  0  0  0
  -24.8915  -32.2959   26.4802 H   0  0  0  0  0  0
  -25.8008  -30.8972   27.0227 H   0  0  0  0  0  0
  -26.3005  -29.6690   24.1287 H   0  0  0  0  0  0
  -27.3999  -29.7272   25.4858 H   0  0  0  0  0  0
  -27.8910  -30.4212   23.9605 H   0  0  0  0  0  0
  -27.2688  -33.3652   26.2011 H   0  0  0  0  0  0
  -28.3905  -32.6841   25.0327 H   0  0  0  0  0  0
  -28.0701  -31.8475   26.5446 H   0  0  0  0  0  0
  -28.2596  -38.0074   24.7517 H   0  0  0  0  0  0
  -28.1072  -36.2607   24.6291 H   0  0  0  0  0  0
  -27.2295  -37.1428   25.8870 H   0  0  0  0  0  0
  -20.9471  -29.8758   21.6788 H   0  0  0  0  0  0
  -26.0150  -38.2817   24.1421 H   0  0  0  0  0  0
  -31.5364  -18.2579   20.3035 H   0  0  0  0  0  0
  -31.0155  -20.6750   20.1771 H   0  0  0  0  0  0
  -27.3711  -17.4062   20.7091 H   0  0  0  0  0  0
  -25.7651  -19.0220   20.5604 H   0  0  0  0  0  0
  -26.1540  -20.5279   19.7361 H   0  0  0  0  0  0
  -26.2286  -20.4418   21.4986 H   0  0  0  0  0  0
  -27.1285  -24.4868   20.7197 H   0  0  0  0  0  0
  -27.6022  -24.5305   19.0556 H   0  0  0  0  0  0
  -29.4624  -23.4098   21.2670 H   0  0  0  0  0  0
  -29.7733  -23.3330   19.5591 H   0  0  0  0  0  0
  -28.7227  -15.5870   20.8772 H   0  0  0  0  0  0
  1 25  1  0  0  0
  1 30  2  0  0  0
  1 80  1  0  0  0
  2  3  1  0  0  0
  2 25  1  0  0  0
  2 82  1  0  0  0
  2 83  1  0  0  0
  3  4  1  0  0  0
  3 84  1  0  0  0
  3 85  1  0  0  0
  4  5  1  0  0  0
  4 86  1  0  0  0
  4 87  1  0  0  0
  5  6  1  0  0  0
  5 26  1  0  0  0
  5 88  1  0  0  0
  6 25  1  0  0  0
  6 89  1  0  0  0
  6 90  1  0  0  0
  7  8  2  0  0  0
  7 26  1  0  0  0
  7 29  1  0  0  0
  8  9  1  0  0  0
  8 22  1  0  0  0
  9 10  1  0  0  0
  9 27  2  0  0  0
 10 11  2  0  0  0
 10 15  1  0  0  0
 11 12  1  0  0  0
 11 91  1  0  0  0
 12 13  2  0  0  0
 12 92  1  0  0  0
 13 14  1  0  0  0
 13 31  1  0  0  0
 14 15  2  0  0  0
 14 93  1  0  0  0
 15 94  1  0  0  0
 16 17  2  0  0  0
 16 21  1  0  0  0
 16 31  1  0  0  0
 17 18  1  0  0  0
 17 95  1  0  0  0
 18 19  2  0  0  0
 18 96  1  0  0  0
 19 20  1  0  0  0
 19 24  1  0  0  0
 20 21  2  0  0  0
 20 97  1  0  0  0
 21 23  1  0  0  0
 22 28  1  0  0  0
 22 32  2  0  0  0
 26 27  1  0  0  0
 28 98  1  0  0  0
 28 99  1  0  0  0
 29100  1  0  0  0
 29101  1  0  0  0
 33 34  1  0  0  0
 33 66  1  0  0  0
 33 70  2  0  0  0
 34 36  1  0  0  0
 34 59  1  0  0  0
 34102  1  0  0  0
 35 44  2  0  0  0
 35 45  1  0  0  0
 35 68  1  0  0  0
 36 56  1  0  0  0
 36103  1  0  0  0
 37 39  1  0  0  0
 37 47  1  0  0  0
 37 66  1  0  0  0
 37104  1  0  0  0
 38 43  2  0  0  0
 38 46  1  0  0  0
 38 47  1  0  0  0
 39 64  1  0  0  0
 39 67  2  0  0  0
 40 52  1  0  0  0
 40 53  2  0  0  0
 40 58  1  0  0  0
 41105  1  0  0  0
 41106  1  0  0  0
 41107  1  0  0  0
 41 48  1  0  0  0
 42 43  1  0  0  0
 42 66  1  0  0  0
 42108  1  0  0  0
 42109  1  0  0  0
 43 44  1  0  0  0
 44110  1  0  0  0
 45 46  2  0  0  0
 45111  1  0  0  0
 46112  1  0  0  0
 47113  1  0  0  0
 47114  1  0  0  0
 48 56  1  0  0  0
 48 65  1  0  0  0
 48115  1  0  0  0
 49 50  1  0  0  0
 49 53  1  0  0  0
 49 64  1  0  0  0
 49116  1  0  0  0
 50 51  1  0  0  0
 50117  1  0  0  0
 50118  1  0  0  0
 51 52  1  0  0  0
 51119  1  0  0  0
 51120  1  0  0  0
 52121  1  0  0  0
 52122  1  0  0  0
 53 54  1  0  0  0
 54 55  2  0  0  0
 54123  1  0  0  0
 55 57  1  0  0  0
 55124  1  0  0  0
 56 69  2  0  0  0
 57 58  2  0  0  0
 57125  1  0  0  0
 58126  1  0  0  0
 59 60  1  0  0  0
 59 61  1  0  0  0
 59 62  1  0  0  0
 60127  1  0  0  0
 60128  1  0  0  0
 60129  1  0  0  0
 61130  1  0  0  0
 61131  1  0  0  0
 61132  1  0  0  0
 62133  1  0  0  0
 62134  1  0  0  0
 62135  1  0  0  0
 63 65  1  0  0  0
 63136  1  0  0  0
 63137  1  0  0  0
 63138  1  0  0  0
 64139  1  0  0  0
 65140  1  0  0  0
 68 78  1  0  0  0
 71 72  2  0  0  0
 71 75  1  0  0  0
 71141  1  0  0  0
 72 76  1  0  0  0
 72142  1  0  0  0
 73 74  1  0  0  0
 73 75  2  0  0  0
 73143  1  0  0  0
 74 76  2  0  0  0
 74 77  1  0  0  0
 75 80  1  0  0  0
 76 81  1  0  0  0
 77144  1  0  0  0
 77145  1  0  0  0
 77146  1  0  0  0
 78 79  1  0  0  0
 78147  1  0  0  0
 78148  1  0  0  0
 79 81  1  0  0  0
 79149  1  0  0  0
 79150  1  0  0  0
 80151  1  0  0  0
M  ISO  4   1 100  68 101  78 101  80 100
M  END
> <chiral flag>
0

> <version>
0

> <s_m_source_file>
/data/baiqing/PycharmProjects/Reinvent-master-3.2/result/LINK_invent/BTK/process_docking_weight1_custom_sum_contain_oxygen_bond_distance_aromatic_linkinvent_7_9_3/rearranged_h_0137.sdf

> <i_m_source_file_index>
19

> <r_mmod_Potential_Energy-OPLS-2005>
449.871917724609

> <r_mmod_Stretch_Energy-OPLS-2005>
217.125106811523

> <r_mmod_Bend_Energy-OPLS-2005>
303.068023681641

> <r_mmod_Torsional_Energy-OPLS-2005>
211.717910766602

> <r_mmod_Improper_Torsional_Energy-OPLS-2005>
4.76985454559326

> <r_mmod_Van_der_Waal_Energy-OPLS-2005>
131.463577270508

> <r_mmod_Electrostatic_Energy-OPLS-2005>
-380.574035644531

> <r_mmod_Solvation_Energy-OPLS-2005>
-211.898544311523

> <b_mmod_Minimization_Converged-OPLS-2005>
0

> <r_mmod_RMS_Derivative-OPLS-2005>
1.00794219970703

$$$$
19
                    3D
 Structure written by MMmdl.
168178  0  0  1  0            999 V2000
  -30.6364  -14.8701   20.4285 C   0  0  0  0  0  0
  -30.4189  -12.5481   19.4784 C   0  0  0  0  0  0
  -29.5013  -12.5066   18.2397 C   0  0  0  0  0  0
  -28.0395  -12.2929   18.6706 C   0  0  0  0  0  0
  -27.6202  -13.2337   19.8296 C   0  0  2  0  0  0
  -28.6705  -13.2948   20.9599 C   0  0  0  0  0  0
  -25.2453  -13.8171   20.5746 C   0  0  0  0  0  0
  -24.1763  -13.0411   20.9254 C   0  0  0  0  0  0
  -24.6372  -11.6892   20.8794 C   0  0  0  0  0  0
  -23.9066  -10.4271   21.0436 C   0  0  0  0  0  0
  -24.3617   -9.4180   21.9207 C   0  0  0  0  0  0
  -23.6285   -8.2221   22.0761 C   0  0  0  0  0  0
  -22.4268   -8.0272   21.3547 C   0  0  0  0  0  0
  -21.9914   -9.0251   20.4652 C   0  0  0  0  0  0
  -22.7247  -10.2125   20.3073 C   0  0  0  0  0  0
  -21.6841   -6.0737   22.5288 C   0  0  0  0  0  0
  -21.4014   -6.5645   23.8222 C   0  0  0  0  0  0
  -21.3661   -5.6798   24.9185 C   0  0  0  0  0  0
  -21.6041   -4.3058   24.7237 C   0  0  0  0  0  0
  -21.8821   -3.8152   23.4359 C   0  0  0  0  0  0
  -21.9191   -4.6968   22.3414 C   0  0  0  0  0  0
  -22.7789  -13.5194   21.1895 C   0  0  0  0  0  0
  -22.1658   -4.2153   21.0995 F   0  0  0  0  0  0
  -21.5623   -3.4540   25.7755 F   0  0  0  0  0  0
  -29.9491  -13.6662   20.3425 N   0  0  0  0  0  0
  -26.2852  -12.9371   20.3273 N   0  0  0  0  0  0
  -25.9298  -11.6520   20.5793 N   0  0  0  0  0  0
  -22.0430  -12.8185   22.0443 N   0  0  0  0  0  0
  -25.4140  -15.1896   20.4171 N   0  0  0  0  0  0
  -31.8520  -14.8311   20.2136 O   0  0  0  0  0  0
  -21.6625   -6.8875   21.4248 O   0  0  0  0  0  0
  -22.3484  -14.5502   20.6736 O   0  0  0  0  0  0
  -24.6365  -31.8490   23.1946 C   0  0  0  0  0  0
  -25.9162  -32.4721   23.8310 C   0  0  1  0  0  0
  -27.2113  -27.1991   20.1482 C   0  0  0  0  0  0
  -25.5940  -33.8531   24.2223 N   0  0  0  0  0  0
  -23.4371  -30.4698   21.5389 C   0  0  2  0  0  0
  -24.8857  -28.9073   20.1111 C   0  0  0  0  0  0
  -22.7528  -29.4572   22.4899 C   0  0  0  0  0  0
  -18.0296  -28.1395   22.8495 C   0  0  0  0  0  0
  -24.1485  -36.7258   23.2643 C   0  0  0  0  0  0
  -25.9881  -30.7417   21.3862 C   0  0  0  0  0  0
  -26.0604  -29.3595   20.7278 C   0  0  0  0  0  0
  -27.2298  -28.5205   20.7295 C   0  0  0  0  0  0
  -26.0189  -26.8348   19.4897 C   0  0  0  0  0  0
  -24.8738  -27.6553   19.4777 C   0  0  0  0  0  0
  -23.6588  -29.8000   20.1572 C   0  0  0  0  0  0
  -25.4120  -36.3050   24.0314 C   0  0  1  0  0  0
  -20.5900  -28.3709   23.1265 C   0  0  2  0  0  0
  -20.6779  -26.9423   22.5415 C   0  0  0  0  0  0
  -19.5752  -26.6388   21.5225 C   0  0  0  0  0  0
  -18.1929  -26.7939   22.1628 C   0  0  0  0  0  0
  -19.1551  -28.8874   23.2864 C   0  0  0  0  0  0
  -18.9469  -30.1478   23.8877 C   0  0  0  0  0  0
  -17.6464  -30.6597   24.0568 C   0  0  0  0  0  0
  -25.9065  -34.9425   23.5073 C   0  0  0  0  0  0
  -16.5354  -29.9091   23.6348 C   0  0  0  0  0  0
  -16.7283  -28.6507   23.0374 C   0  0  0  0  0  0
  -26.4518  -31.6579   25.0727 C   0  0  0  0  0  0
  -25.3724  -31.3754   26.1437 C   0  0  0  0  0  0
  -27.0389  -30.2985   24.6280 C   0  0  0  0  0  0
  -27.6058  -32.4348   25.7492 C   0  0  0  0  0  0
  -27.5583  -37.1770   24.8461 C   0  0  0  0  0  0
  -21.4229  -29.3031   22.3637 N   0  0  0  0  0  0
  -26.4287  -37.3761   23.9414 N   0  0  0  0  0  0
  -24.7061  -31.0395   22.0953 N   0  0  0  0  0  0
  -23.4199  -28.8133   23.3038 O   0  0  0  0  0  0
  -28.2687  -26.2435   20.1713 O   0  0  0  0  0  0
  -26.5647  -34.8915   22.4650 O   0  0  0  0  0  0
  -23.5497  -32.1346   23.7202 O   0  0  0  0  0  0
  -29.8085  -21.1609   18.7990 C   0  0  0  0  0  0
  -29.2986  -23.5685   18.8476 C   0  0  0  0  0  0
  -29.2254  -20.9243   20.0645 C   0  0  0  0  0  0
  -28.6727  -22.1296   20.7222 C   0  0  0  0  0  0
  -28.6840  -23.4785   20.1080 C   0  0  0  0  0  0
  -29.8520  -22.4473   18.1949 C   0  0  0  0  0  0
  -28.5236  -22.7806   23.2760 C   0  0  0  0  0  0
  -28.7761  -21.2992   23.2246 C   0  0  0  0  0  0
  -28.6938  -18.2448   19.6403 C   0  0  0  0  0  0
  -30.6516  -18.7500   20.9094 C   0  0  0  0  0  0
  -28.7603  -16.6968   20.0917 C   0  0  0  0  0  0
  -30.7142  -17.2366   21.4291 C   0  0  0  0  0  0
  -29.2475  -19.3728   20.5968 C   0  0  0  0  0  0
  -28.0456  -21.9762   22.0825 C   0  0  0  0  0  0
  -30.8920  -21.5959   16.1977 C   0  0  0  0  0  0
  -27.9738  -24.8262   20.6702 C   0  0  0  0  0  0
  -30.0251  -16.1339   20.6690 N   0  0  0  0  0  0
  -30.4078  -22.6952   16.9581 O   0  0  0  0  0  0
  -31.4552  -12.6698   19.1594 H   0  0  0  0  0  0
  -30.3853  -11.6030   20.0226 H   0  0  0  0  0  0
  -29.8116  -11.7102   17.5618 H   0  0  0  0  0  0
  -29.5907  -13.4396   17.6806 H   0  0  0  0  0  0
  -27.9395  -11.2536   18.9867 H   0  0  0  0  0  0
  -27.3698  -12.4171   17.8190 H   0  0  0  0  0  0
  -27.5602  -14.2173   19.3761 H   0  0  0  0  0  0
  -28.7498  -12.3389   21.4795 H   0  0  0  0  0  0
  -28.3824  -14.0358   21.7074 H   0  0  0  0  0  0
  -25.2764   -9.5636   22.4780 H   0  0  0  0  0  0
  -23.9982   -7.4606   22.7477 H   0  0  0  0  0  0
  -21.0849   -8.8785   19.8955 H   0  0  0  0  0  0
  -22.3725  -10.9672   19.6182 H   0  0  0  0  0  0
  -21.2004   -7.6153   23.9727 H   0  0  0  0  0  0
  -21.1477   -6.0531   25.9088 H   0  0  0  0  0  0
  -22.0596   -2.7612   23.2869 H   0  0  0  0  0  0
  -22.4039  -11.9842   22.4827 H   0  0  0  0  0  0
  -21.1055  -13.1222   22.2653 H   0  0  0  0  0  0
  -24.6511  -15.8459   20.5410 H   0  0  0  0  0  0
  -26.2674  -15.6297   20.1012 H   0  0  0  0  0  0
  -26.7222  -32.5346   23.1039 H   0  0  0  0  0  0
  -25.0079  -33.9675   25.0365 H   0  0  0  0  0  0
  -22.7370  -31.2938   21.3872 H   0  0  0  0  0  0
  -23.3779  -35.9557   23.3264 H   0  0  0  0  0  0
  -24.3574  -36.8946   22.2067 H   0  0  0  0  0  0
  -23.7207  -37.6423   23.6717 H   0  0  0  0  0  0
  -26.1401  -31.5014   20.6193 H   0  0  0  0  0  0
  -26.8599  -30.7873   22.0269 H   0  0  0  0  0  0
  -28.1286  -28.8612   21.2237 H   0  0  0  0  0  0
  -25.9576  -25.8791   18.9885 H   0  0  0  0  0  0
  -23.9784  -27.3062   18.9816 H   0  0  0  0  0  0
  -23.7846  -30.5735   19.3987 H   0  0  0  0  0  0
  -22.7767  -29.2331   19.8542 H   0  0  0  0  0  0
  -25.1308  -36.1881   25.0804 H   0  0  0  0  0  0
  -20.9981  -28.3289   24.1391 H   0  0  0  0  0  0
  -20.5692  -26.2318   23.3621 H   0  0  0  0  0  0
  -21.6643  -26.7447   22.1204 H   0  0  0  0  0  0
  -19.6908  -25.6303   21.1253 H   0  0  0  0  0  0
  -19.6689  -27.3202   20.6757 H   0  0  0  0  0  0
  -17.4202  -26.6719   21.4020 H   0  0  0  0  0  0
  -18.0299  -26.0081   22.9019 H   0  0  0  0  0  0
  -19.7945  -30.7309   24.2220 H   0  0  0  0  0  0
  -17.5019  -31.6276   24.5178 H   0  0  0  0  0  0
  -15.5355  -30.2982   23.7689 H   0  0  0  0  0  0
  -15.8682  -28.0817   22.7103 H   0  0  0  0  0  0
  -24.5903  -30.7098   25.7763 H   0  0  0  0  0  0
  -24.8909  -32.2934   26.4816 H   0  0  0  0  0  0
  -25.8019  -30.8961   27.0245 H   0  0  0  0  0  0
  -26.3004  -29.6696   24.1291 H   0  0  0  0  0  0
  -27.4037  -29.7294   25.4844 H   0  0  0  0  0  0
  -27.8900  -30.4251   23.9583 H   0  0  0  0  0  0
  -27.2665  -33.3690   26.1988 H   0  0  0  0  0  0
  -28.3895  -32.6840   25.0322 H   0  0  0  0  0  0
  -28.0693  -31.8523   26.5471 H   0  0  0  0  0  0
  -28.2566  -38.0099   24.7555 H   0  0  0  0  0  0
  -28.1116  -36.2632   24.6236 H   0  0  0  0  0  0
  -27.2300  -37.1350   25.8862 H   0  0  0  0  0  0
  -20.9425  -29.8715   21.6802 H   0  0  0  0  0  0
  -26.0156  -38.2819   24.1471 H   0  0  0  0  0  0
  -30.2329  -20.3120   18.2861 H   0  0  0  0  0  0
  -29.3252  -24.5291   18.3516 H   0  0  0  0  0  0
  -29.3938  -23.4249   23.1594 H   0  0  0  0  0  0
  -27.7770  -23.1286   23.9868 H   0  0  0  0  0  0
  -28.1941  -20.6706   23.8958 H   0  0  0  0  0  0
  -29.8052  -20.9835   23.0651 H   0  0  0  0  0  0
  -27.6577  -18.4837   19.3972 H   0  0  0  0  0  0
  -29.2229  -18.3150   18.6900 H   0  0  0  0  0  0
  -31.2717  -18.8240   20.0151 H   0  0  0  0  0  0
  -31.1464  -19.3828   21.6471 H   0  0  0  0  0  0
  -28.5076  -16.1111   19.2102 H   0  0  0  0  0  0
  -27.9738  -16.5130   20.8237 H   0  0  0  0  0  0
  -30.2893  -17.2148   22.4330 H   0  0  0  0  0  0
  -31.7657  -16.9806   21.5704 H   0  0  0  0  0  0
  -28.6493  -19.3291   21.5045 H   0  0  0  0  0  0
  -26.9752  -21.7964   21.9957 H   0  0  0  0  0  0
  -31.2688  -21.9596   15.2415 H   0  0  0  0  0  0
  -30.0980  -20.8778   15.9868 H   0  0  0  0  0  0
  -31.7154  -21.0890   16.7026 H   0  0  0  0  0  0
  -28.1675  -24.8752   21.7384 H   0  0  0  0  0  0
  -26.9051  -24.6287   20.6010 H   0  0  0  0  0  0
  1 25  1  0  0  0
  1 30  2  0  0  0
  1 87  1  0  0  0
  2  3  1  0  0  0
  2 25  1  0  0  0
  2 89  1  0  0  0
  2 90  1  0  0  0
  3  4  1  0  0  0
  3 91  1  0  0  0
  3 92  1  0  0  0
  4  5  1  0  0  0
  4 93  1  0  0  0
  4 94  1  0  0  0
  5  6  1  0  0  0
  5 26  1  0  0  0
  5 95  1  0  0  0
  6 25  1  0  0  0
  6 96  1  0  0  0
  6 97  1  0  0  0
  7  8  2  0  0  0
  7 26  1  0  0  0
  7 29  1  0  0  0
  8  9  1  0  0  0
  8 22  1  0  0  0
  9 10  1  0  0  0
  9 27  2  0  0  0
 10 11  2  0  0  0
 10 15  1  0  0  0
 11 12  1  0  0  0
 11 98  1  0  0  0
 12 13  2  0  0  0
 12 99  1  0  0  0
 13 14  1  0  0  0
 13 31  1  0  0  0
 14 15  2  0  0  0
 14100  1  0  0  0
 15101  1  0  0  0
 16 17  2  0  0  0
 16 21  1  0  0  0
 16 31  1  0  0  0
 17 18  1  0  0  0
 17102  1  0  0  0
 18 19  2  0  0  0
 18103  1  0  0  0
 19 20  1  0  0  0
 19 24  1  0  0  0
 20 21  2  0  0  0
 20104  1  0  0  0
 21 23  1  0  0  0
 22 28  1  0  0  0
 22 32  2  0  0  0
 26 27  1  0  0  0
 28105  1  0  0  0
 28106  1  0  0  0
 29107  1  0  0  0
 29108  1  0  0  0
 33 34  1  0  0  0
 33 66  1  0  0  0
 33 70  2  0  0  0
 34 36  1  0  0  0
 34 59  1  0  0  0
 34109  1  0  0  0
 35 44  2  0  0  0
 35 45  1  0  0  0
 35 68  1  0  0  0
 36 56  1  0  0  0
 36110  1  0  0  0
 37 39  1  0  0  0
 37 47  1  0  0  0
 37 66  1  0  0  0
 37111  1  0  0  0
 38 43  2  0  0  0
 38 46  1  0  0  0
 38 47  1  0  0  0
 39 64  1  0  0  0
 39 67  2  0  0  0
 40 52  1  0  0  0
 40 53  2  0  0  0
 40 58  1  0  0  0
 41112  1  0  0  0
 41113  1  0  0  0
 41114  1  0  0  0
 41 48  1  0  0  0
 42 43  1  0  0  0
 42 66  1  0  0  0
 42115  1  0  0  0
 42116  1  0  0  0
 43 44  1  0  0  0
 44117  1  0  0  0
 45 46  2  0  0  0
 45118  1  0  0  0
 46119  1  0  0  0
 47120  1  0  0  0
 47121  1  0  0  0
 48 56  1  0  0  0
 48 65  1  0  0  0
 48122  1  0  0  0
 49 50  1  0  0  0
 49 53  1  0  0  0
 49 64  1  0  0  0
 49123  1  0  0  0
 50 51  1  0  0  0
 50124  1  0  0  0
 50125  1  0  0  0
 51 52  1  0  0  0
 51126  1  0  0  0
 51127  1  0  0  0
 52128  1  0  0  0
 52129  1  0  0  0
 53 54  1  0  0  0
 54 55  2  0  0  0
 54130  1  0  0  0
 55 57  1  0  0  0
 55131  1  0  0  0
 56 69  2  0  0  0
 57 58  2  0  0  0
 57132  1  0  0  0
 58133  1  0  0  0
 59 60  1  0  0  0
 59 61  1  0  0  0
 59 62  1  0  0  0
 60134  1  0  0  0
 60135  1  0  0  0
 60136  1  0  0  0
 61137  1  0  0  0
 61138  1  0  0  0
 61139  1  0  0  0
 62140  1  0  0  0
 62141  1  0  0  0
 62142  1  0  0  0
 63 65  1  0  0  0
 63143  1  0  0  0
 63144  1  0  0  0
 63145  1  0  0  0
 64146  1  0  0  0
 65147  1  0  0  0
 68 86  1  0  0  0
 71 73  2  0  0  0
 71 76  1  0  0  0
 71148  1  0  0  0
 72 75  1  0  0  0
 72 76  2  0  0  0
 72149  1  0  0  0
 73 74  1  0  0  0
 73 83  1  0  0  0
 74 75  2  0  0  0
 74 84  1  0  0  0
 75 86  1  0  0  0
 76 88  1  0  0  0
 77 78  1  0  0  0
 77 84  1  0  0  0
 77150  1  0  0  0
 77151  1  0  0  0
 78 84  1  0  0  0
 78152  1  0  0  0
 78153  1  0  0  0
 79 81  1  0  0  0
 79 83  1  0  0  0
 79154  1  0  0  0
 79155  1  0  0  0
 80 82  1  0  0  0
 80 83  1  0  0  0
 80156  1  0  0  0
 80157  1  0  0  0
 81 87  1  0  0  0
 81158  1  0  0  0
 81159  1  0  0  0
 82 87  1  0  0  0
 82160  1  0  0  0
 82161  1  0  0  0
 83162  1  0  0  0
 84163  1  0  0  0
 85 88  1  0  0  0
 85164  1  0  0  0
 85165  1  0  0  0
 85166  1  0  0  0
 86167  1  0  0  0
 86168  1  0  0  0
M  ISO  4   1 100  68 101  86 101  87 100
M  END
> <chiral flag>
0

> <version>
0

> <s_m_source_file>
/data/baiqing/PycharmProjects/Reinvent-master-3.2/result/LINK_invent/BTK/process_docking_weight1_custom_sum_contain_oxygen_bond_distance_aromatic_linkinvent_7_9_3/rearranged_h_0137.sdf

> <i_m_source_file_index>
20

> <r_mmod_Potential_Energy-OPLS-2005>
575.72998046875

> <r_mmod_Stretch_Energy-OPLS-2005>
181.245819091797

> <r_mmod_Bend_Energy-OPLS-2005>
234.133728027344

> <r_mmod_Torsional_Energy-OPLS-2005>
372.23828125

> <r_mmod_Improper_Torsional_Energy-OPLS-2005>
2.16691112518311

> <r_mmod_Van_der_Waal_Energy-OPLS-2005>
137.207061767578

> <r_mmod_Electrostatic_Energy-OPLS-2005>
-292.580047607422

> <r_mmod_Solvation_Energy-OPLS-2005>
-205.23974609375

> <b_mmod_Minimization_Converged-OPLS-2005>
0

> <r_mmod_RMS_Derivative-OPLS-2005>
1.32121503353119

$$$$
20
                    3D
 Structure written by MMmdl.
157165  0  0  1  0            999 V2000
  -30.5192  -14.8626   20.4511 C   0  0  0  0  0  0
  -30.4518  -12.5285   19.4851 C   0  0  0  0  0  0
  -29.5233  -12.5218   18.2476 C   0  0  0  0  0  0
  -28.0498  -12.3256   18.6578 C   0  0  0  0  0  0
  -27.6412  -13.2306   19.8495 C   0  0  2  0  0  0
  -28.6849  -13.1773   20.9860 C   0  0  0  0  0  0
  -25.2512  -13.8186   20.5675 C   0  0  0  0  0  0
  -24.1816  -13.0431   20.9212 C   0  0  0  0  0  0
  -24.6411  -11.6907   20.8756 C   0  0  0  0  0  0
  -23.9083  -10.4285   21.0414 C   0  0  0  0  0  0
  -24.3631   -9.4195   21.9189 C   0  0  0  0  0  0
  -23.6297   -8.2234   22.0759 C   0  0  0  0  0  0
  -22.4277   -8.0280   21.3546 C   0  0  0  0  0  0
  -21.9919   -9.0253   20.4644 C   0  0  0  0  0  0
  -22.7258  -10.2129   20.3057 C   0  0  0  0  0  0
  -21.6851   -6.0741   22.5281 C   0  0  0  0  0  0
  -21.4013   -6.5645   23.8215 C   0  0  0  0  0  0
  -21.3655   -5.6794   24.9174 C   0  0  0  0  0  0
  -21.6044   -4.3058   24.7222 C   0  0  0  0  0  0
  -21.8819   -3.8151   23.4342 C   0  0  0  0  0  0
  -21.9193   -4.6971   22.3401 C   0  0  0  0  0  0
  -22.7836  -13.5213   21.1869 C   0  0  0  0  0  0
  -22.1660   -4.2162   21.0975 F   0  0  0  0  0  0
  -21.5628   -3.4535   25.7731 F   0  0  0  0  0  0
  -29.9724  -13.5880   20.4093 N   0  0  0  0  0  0
  -26.2931  -12.9386   20.3244 N   0  0  0  0  0  0
  -25.9338  -11.6533   20.5744 N   0  0  0  0  0  0
  -22.0484  -12.8195   22.0425 N   0  0  0  0  0  0
  -25.4178  -15.1910   20.4045 N   0  0  0  0  0  0
  -31.7035  -15.0121   20.1278 O   0  0  0  0  0  0
  -21.6637   -6.8883   21.4243 O   0  0  0  0  0  0
  -22.3513  -14.5515   20.6718 O   0  0  0  0  0  0
  -24.6371  -31.8475   23.1903 C   0  0  0  0  0  0
  -25.9158  -32.4726   23.8265 C   0  0  1  0  0  0
  -27.2260  -27.1929   20.1490 C   0  0  0  0  0  0
  -25.5927  -33.8527   24.2186 N   0  0  0  0  0  0
  -23.4383  -30.4664   21.5356 C   0  0  2  0  0  0
  -24.8887  -28.8965   20.1155 C   0  0  0  0  0  0
  -22.7537  -29.4555   22.4887 C   0  0  0  0  0  0
  -18.0290  -28.1391   22.8476 C   0  0  0  0  0  0
  -24.1487  -36.7255   23.2644 C   0  0  0  0  0  0
  -25.9907  -30.7405   21.3793 C   0  0  0  0  0  0
  -26.0647  -29.3557   20.7230 C   0  0  0  0  0  0
  -27.2377  -28.5218   20.7179 C   0  0  0  0  0  0
  -26.0266  -26.8143   19.5133 C   0  0  0  0  0  0
  -24.8793  -27.6361   19.4970 C   0  0  0  0  0  0
  -23.6626  -29.7923   20.1564 C   0  0  0  0  0  0
  -25.4119  -36.3050   24.0323 C   0  0  1  0  0  0
  -20.5909  -28.3692   23.1264 C   0  0  2  0  0  0
  -20.6789  -26.9403   22.5415 C   0  0  0  0  0  0
  -19.5762  -26.6373   21.5224 C   0  0  0  0  0  0
  -18.1934  -26.7934   22.1616 C   0  0  0  0  0  0
  -19.1556  -28.8855   23.2870 C   0  0  0  0  0  0
  -18.9484  -30.1454   23.8885 C   0  0  0  0  0  0
  -17.6482  -30.6592   24.0553 C   0  0  0  0  0  0
  -25.9061  -34.9427   23.5064 C   0  0  0  0  0  0
  -16.5367  -29.9095   23.6347 C   0  0  0  0  0  0
  -16.7282  -28.6509   23.0361 C   0  0  0  0  0  0
  -26.4498  -31.6587   25.0690 C   0  0  0  0  0  0
  -25.3694  -31.3789   26.1398 C   0  0  0  0  0  0
  -27.0329  -30.2984   24.6223 C   0  0  0  0  0  0
  -27.6035  -32.4351   25.7471 C   0  0  0  0  0  0
  -27.5579  -37.1776   24.8472 C   0  0  0  0  0  0
  -21.4231  -29.3039   22.3653 N   0  0  0  0  0  0
  -26.4287  -37.3759   23.9425 N   0  0  0  0  0  0
  -24.7087  -31.0376   22.0910 N   0  0  0  0  0  0
  -23.4215  -28.8107   23.3011 O   0  0  0  0  0  0
  -28.3085  -26.2606   20.1447 O   0  0  0  0  0  0
  -26.5654  -34.8923   22.4646 O   0  0  0  0  0  0
  -23.5508  -32.1317   23.7165 O   0  0  0  0  0  0
  -30.4693  -19.8290   20.3858 C   0  0  0  0  0  0
  -30.6511  -18.3843   20.3610 C   0  0  0  0  0  0
  -28.3462  -18.1290   20.7976 C   0  0  0  0  0  0
  -29.2252  -20.5092   20.6516 C   0  0  0  0  0  0
  -28.1545  -19.5642   20.8147 C   0  0  0  0  0  0
  -29.5935  -17.4500   20.6010 C   0  0  0  0  0  0
  -26.7446  -20.0709   21.0758 C   0  0  0  0  0  0
  -28.7579  -23.4018   20.0525 C   0  0  0  0  0  0
  -28.1265  -24.8255   20.6590 C   0  0  0  0  0  0
  -30.2998  -22.5206   21.9199 C   0  0  0  0  0  0
  -29.0865  -22.1093   21.0455 C   0  0  2  0  0  0
  -29.6380  -15.9332   20.6926 N   0  0  0  0  0  0
  -30.3087  -21.8424   23.1653 O   0  0  0  0  0  0
  -31.4853  -12.6955   19.1774 H   0  0  0  0  0  0
  -30.4412  -11.5551   19.9783 H   0  0  0  0  0  0
  -29.8224  -11.7363   17.5521 H   0  0  0  0  0  0
  -29.6297  -13.4648   17.7086 H   0  0  0  0  0  0
  -27.9224  -11.2787   18.9352 H   0  0  0  0  0  0
  -27.3907  -12.4975   17.8058 H   0  0  0  0  0  0
  -27.6278  -14.2481   19.4574 H   0  0  0  0  0  0
  -28.7509  -12.1719   21.4054 H   0  0  0  0  0  0
  -28.3976  -13.8294   21.8119 H   0  0  0  0  0  0
  -25.2782   -9.5669   22.4759 H   0  0  0  0  0  0
  -24.0004   -7.4629   22.7487 H   0  0  0  0  0  0
  -21.0844   -8.8778   19.8949 H   0  0  0  0  0  0
  -22.3725  -10.9669   19.6160 H   0  0  0  0  0  0
  -21.2006   -7.6153   23.9725 H   0  0  0  0  0  0
  -21.1475   -6.0520   25.9079 H   0  0  0  0  0  0
  -22.0604   -2.7614   23.2836 H   0  0  0  0  0  0
  -22.4096  -11.9836   22.4783 H   0  0  0  0  0  0
  -21.1111  -13.1231   22.2662 H   0  0  0  0  0  0
  -24.6364  -15.8312   20.4902 H   0  0  0  0  0  0
  -26.2317  -15.6175   19.9826 H   0  0  0  0  0  0
  -26.7209  -32.5327   23.0987 H   0  0  0  0  0  0
  -25.0073  -33.9653   25.0338 H   0  0  0  0  0  0
  -22.7375  -31.2906   21.3803 H   0  0  0  0  0  0
  -23.3776  -35.9563   23.3295 H   0  0  0  0  0  0
  -24.3568  -36.8892   22.2063 H   0  0  0  0  0  0
  -23.7217  -37.6439   23.6679 H   0  0  0  0  0  0
  -26.1394  -31.4990   20.6091 H   0  0  0  0  0  0
  -26.8648  -30.7878   22.0165 H   0  0  0  0  0  0
  -28.1425  -28.8758   21.1915 H   0  0  0  0  0  0
  -25.9699  -25.8479   19.0315 H   0  0  0  0  0  0
  -23.9812  -27.2779   19.0135 H   0  0  0  0  0  0
  -23.7948  -30.5645   19.3981 H   0  0  0  0  0  0
  -22.7797  -29.2298   19.8481 H   0  0  0  0  0  0
  -25.1308  -36.1872   25.0816 H   0  0  0  0  0  0
  -20.9983  -28.3253   24.1393 H   0  0  0  0  0  0
  -20.5682  -26.2292   23.3611 H   0  0  0  0  0  0
  -21.6654  -26.7415   22.1204 H   0  0  0  0  0  0
  -19.6930  -25.6289   21.1245 H   0  0  0  0  0  0
  -19.6719  -27.3183   20.6760 H   0  0  0  0  0  0
  -17.4214  -26.6695   21.4007 H   0  0  0  0  0  0
  -18.0311  -26.0070   22.9005 H   0  0  0  0  0  0
  -19.7959  -30.7273   24.2245 H   0  0  0  0  0  0
  -17.5045  -31.6277   24.5148 H   0  0  0  0  0  0
  -15.5372  -30.2999   23.7688 H   0  0  0  0  0  0
  -15.8670  -28.0825   22.7106 H   0  0  0  0  0  0
  -24.5910  -30.7078   25.7747 H   0  0  0  0  0  0
  -24.8834  -32.2980   26.4685 H   0  0  0  0  0  0
  -25.7989  -30.9080   27.0249 H   0  0  0  0  0  0
  -26.2906  -29.6740   24.1233 H   0  0  0  0  0  0
  -27.3983  -29.7241   25.4748 H   0  0  0  0  0  0
  -27.8805  -30.4237   23.9479 H   0  0  0  0  0  0
  -27.2635  -33.3711   26.1915 H   0  0  0  0  0  0
  -28.3904  -32.6814   25.0328 H   0  0  0  0  0  0
  -28.0613  -31.8551   26.5488 H   0  0  0  0  0  0
  -28.2586  -38.0082   24.7527 H   0  0  0  0  0  0
  -28.1081  -36.2615   24.6282 H   0  0  0  0  0  0
  -27.2300  -37.1406   25.8874 H   0  0  0  0  0  0
  -20.9427  -29.8749   21.6831 H   0  0  0  0  0  0
  -26.0159  -38.2825   24.1452 H   0  0  0  0  0  0
  -31.3580  -20.4278   20.2528 H   0  0  0  0  0  0
  -31.6468  -18.0007   20.1908 H   0  0  0  0  0  0
  -27.4750  -17.5150   20.9760 H   0  0  0  0  0  0
  -26.0000  -19.3403   20.7580 H   0  0  0  0  0  0
  -26.5432  -20.9940   20.5300 H   0  0  0  0  0  0
  -26.5964  -20.2588   22.1392 H   0  0  0  0  0  0
  -29.6710  -23.6377   19.5058 H   0  0  0  0  0  0
  -28.0607  -23.0572   19.2884 H   0  0  0  0  0  0
  -28.4883  -24.8982   21.6838 H   0  0  0  0  0  0
  -27.0589  -24.6510   20.7883 H   0  0  0  0  0  0
  -30.2781  -23.5883   22.1393 H   0  0  0  0  0  0
  -31.2424  -22.3526   21.3964 H   0  0  0  0  0  0
  -28.2353  -22.1303   21.7229 H   0  0  0  0  0  0
  -28.7409  -15.5539   20.9525 H   0  0  0  0  0  0
  -31.1294  -22.0518   23.6036 H   0  0  0  0  0  0
  1 25  1  0  0  0
  1 30  2  0  0  0
  1 82  1  0  0  0
  2  3  1  0  0  0
  2 25  1  0  0  0
  2 84  1  0  0  0
  2 85  1  0  0  0
  3  4  1  0  0  0
  3 86  1  0  0  0
  3 87  1  0  0  0
  4  5  1  0  0  0
  4 88  1  0  0  0
  4 89  1  0  0  0
  5  6  1  0  0  0
  5 26  1  0  0  0
  5 90  1  0  0  0
  6 25  1  0  0  0
  6 91  1  0  0  0
  6 92  1  0  0  0
  7  8  2  0  0  0
  7 26  1  0  0  0
  7 29  1  0  0  0
  8  9  1  0  0  0
  8 22  1  0  0  0
  9 10  1  0  0  0
  9 27  2  0  0  0
 10 11  2  0  0  0
 10 15  1  0  0  0
 11 12  1  0  0  0
 11 93  1  0  0  0
 12 13  2  0  0  0
 12 94  1  0  0  0
 13 14  1  0  0  0
 13 31  1  0  0  0
 14 15  2  0  0  0
 14 95  1  0  0  0
 15 96  1  0  0  0
 16 17  2  0  0  0
 16 21  1  0  0  0
 16 31  1  0  0  0
 17 18  1  0  0  0
 17 97  1  0  0  0
 18 19  2  0  0  0
 18 98  1  0  0  0
 19 20  1  0  0  0
 19 24  1  0  0  0
 20 21  2  0  0  0
 20 99  1  0  0  0
 21 23  1  0  0  0
 22 28  1  0  0  0
 22 32  2  0  0  0
 26 27  1  0  0  0
 28100  1  0  0  0
 28101  1  0  0  0
 29102  1  0  0  0
 29103  1  0  0  0
 33 34  1  0  0  0
 33 66  1  0  0  0
 33 70  2  0  0  0
 34 36  1  0  0  0
 34 59  1  0  0  0
 34104  1  0  0  0
 35 44  2  0  0  0
 35 45  1  0  0  0
 35 68  1  0  0  0
 36 56  1  0  0  0
 36105  1  0  0  0
 37 39  1  0  0  0
 37 47  1  0  0  0
 37 66  1  0  0  0
 37106  1  0  0  0
 38 43  2  0  0  0
 38 46  1  0  0  0
 38 47  1  0  0  0
 39 64  1  0  0  0
 39 67  2  0  0  0
 40 52  1  0  0  0
 40 53  2  0  0  0
 40 58  1  0  0  0
 41107  1  0  0  0
 41108  1  0  0  0
 41109  1  0  0  0
 41 48  1  0  0  0
 42 43  1  0  0  0
 42 66  1  0  0  0
 42110  1  0  0  0
 42111  1  0  0  0
 43 44  1  0  0  0
 44112  1  0  0  0
 45 46  2  0  0  0
 45113  1  0  0  0
 46114  1  0  0  0
 47115  1  0  0  0
 47116  1  0  0  0
 48 56  1  0  0  0
 48 65  1  0  0  0
 48117  1  0  0  0
 49 50  1  0  0  0
 49 53  1  0  0  0
 49 64  1  0  0  0
 49118  1  0  0  0
 50 51  1  0  0  0
 50119  1  0  0  0
 50120  1  0  0  0
 51 52  1  0  0  0
 51121  1  0  0  0
 51122  1  0  0  0
 52123  1  0  0  0
 52124  1  0  0  0
 53 54  1  0  0  0
 54 55  2  0  0  0
 54125  1  0  0  0
 55 57  1  0  0  0
 55126  1  0  0  0
 56 69  2  0  0  0
 57 58  2  0  0  0
 57127  1  0  0  0
 58128  1  0  0  0
 59 60  1  0  0  0
 59 61  1  0  0  0
 59 62  1  0  0  0
 60129  1  0  0  0
 60130  1  0  0  0
 60131  1  0  0  0
 61132  1  0  0  0
 61133  1  0  0  0
 61134  1  0  0  0
 62135  1  0  0  0
 62136  1  0  0  0
 62137  1  0  0  0
 63 65  1  0  0  0
 63138  1  0  0  0
 63139  1  0  0  0
 63140  1  0  0  0
 64141  1  0  0  0
 65142  1  0  0  0
 68 79  1  0  0  0
 71 72  2  0  0  0
 71 74  1  0  0  0
 71143  1  0  0  0
 72 76  1  0  0  0
 72144  1  0  0  0
 73 75  1  0  0  0
 73 76  2  0  0  0
 73145  1  0  0  0
 74 75  2  0  0  0
 74 81  1  0  0  0
 75 77  1  0  0  0
 76 82  1  0  0  0
 77146  1  0  0  0
 77147  1  0  0  0
 77148  1  0  0  0
 78 79  1  0  0  0
 78149  1  0  0  0
 78150  1  0  0  0
 78 81  1  0  0  0
 79151  1  0  0  0
 79152  1  0  0  0
 80 81  1  0  0  0
 80 83  1  0  0  0
 80153  1  0  0  0
 80154  1  0  0  0
 81155  1  0  0  0
 82156  1  0  0  0
 83157  1  0  0  0
M  ISO  4   1 100  68 101  79 101  82 100
M  END
> <chiral flag>
0

> <version>
0

> <s_m_source_file>
/data/baiqing/PycharmProjects/Reinvent-master-3.2/result/LINK_invent/BTK/process_docking_weight1_custom_sum_contain_oxygen_bond_distance_aromatic_linkinvent_7_9_3/rearranged_h_0137.sdf

> <i_m_source_file_index>
21

> <r_mmod_Potential_Energy-OPLS-2005>
386.131927490234

> <r_mmod_Stretch_Energy-OPLS-2005>
196.574752807617

> <r_mmod_Bend_Energy-OPLS-2005>
246.455780029297

> <r_mmod_Torsional_Energy-OPLS-2005>
247.11003112793

> <r_mmod_Improper_Torsional_Energy-OPLS-2005>
6.44786930084229

> <r_mmod_Van_der_Waal_Energy-OPLS-2005>
131.113708496094

> <r_mmod_Electrostatic_Energy-OPLS-2005>
-353.063659667969

> <r_mmod_Solvation_Energy-OPLS-2005>
-226.227523803711

> <b_mmod_Minimization_Converged-OPLS-2005>
0

> <r_mmod_RMS_Derivative-OPLS-2005>
2.17109274864197

$$$$
21
                    3D
 Structure written by MMmdl.
165174  0  0  1  0            999 V2000
  -30.5889  -14.8473   20.4418 C   0  0  0  0  0  0
  -30.4460  -12.5216   19.4813 C   0  0  0  0  0  0
  -29.5217  -12.5105   18.2432 C   0  0  0  0  0  0
  -28.0502  -12.3232   18.6576 C   0  0  0  0  0  0
  -27.6409  -13.2403   19.8395 C   0  0  2  0  0  0
  -28.6878  -13.2178   20.9737 C   0  0  0  0  0  0
  -25.2521  -13.8228   20.5667 C   0  0  0  0  0  0
  -24.1815  -13.0466   20.9200 C   0  0  0  0  0  0
  -24.6408  -11.6946   20.8736 C   0  0  0  0  0  0
  -23.9076  -10.4320   21.0402 C   0  0  0  0  0  0
  -24.3633   -9.4227   21.9169 C   0  0  0  0  0  0
  -23.6309   -8.2264   22.0749 C   0  0  0  0  0  0
  -22.4288   -8.0297   21.3548 C   0  0  0  0  0  0
  -21.9922   -9.0264   20.4649 C   0  0  0  0  0  0
  -22.7253  -10.2141   20.3050 C   0  0  0  0  0  0
  -21.6865   -6.0735   22.5271 C   0  0  0  0  0  0
  -21.4016   -6.5637   23.8203 C   0  0  0  0  0  0
  -21.3662   -5.6786   24.9163 C   0  0  0  0  0  0
  -21.6035   -4.3045   24.7211 C   0  0  0  0  0  0
  -21.8830   -3.8147   23.4334 C   0  0  0  0  0  0
  -21.9202   -4.6964   22.3393 C   0  0  0  0  0  0
  -22.7825  -13.5238   21.1846 C   0  0  0  0  0  0
  -22.1676   -4.2148   21.0970 F   0  0  0  0  0  0
  -21.5628   -3.4531   25.7723 F   0  0  0  0  0  0
  -29.9753  -13.6053   20.3823 N   0  0  0  0  0  0
  -26.2947  -12.9444   20.3220 N   0  0  0  0  0  0
  -25.9345  -11.6581   20.5716 N   0  0  0  0  0  0
  -22.0468  -12.8238   22.0407 N   0  0  0  0  0  0
  -25.4229  -15.1947   20.4073 N   0  0  0  0  0  0
  -31.7859  -14.9280   20.1580 O   0  0  0  0  0  0
  -21.6667   -6.8881   21.4238 O   0  0  0  0  0  0
  -22.3504  -14.5530   20.6671 O   0  0  0  0  0  0
  -24.6390  -31.8492   23.1942 C   0  0  0  0  0  0
  -25.9184  -32.4729   23.8304 C   0  0  1  0  0  0
  -27.2132  -27.1819   20.1506 C   0  0  0  0  0  0
  -25.5946  -33.8528   24.2240 N   0  0  0  0  0  0
  -23.4405  -30.4720   21.5371 C   0  0  2  0  0  0
  -24.8925  -28.9137   20.1087 C   0  0  0  0  0  0
  -22.7553  -29.4576   22.4857 C   0  0  0  0  0  0
  -18.0299  -28.1399   22.8489 C   0  0  0  0  0  0
  -24.1491  -36.7259   23.2642 C   0  0  0  0  0  0
  -25.9948  -30.7377   21.3878 C   0  0  0  0  0  0
  -26.0679  -29.3534   20.7322 C   0  0  0  0  0  0
  -27.2314  -28.5012   20.7447 C   0  0  0  0  0  0
  -26.0259  -26.8545   19.4579 C   0  0  0  0  0  0
  -24.8818  -27.6750   19.4564 C   0  0  0  0  0  0
  -23.6652  -29.8061   20.1553 C   0  0  0  0  0  0
  -25.4115  -36.3046   24.0333 C   0  0  1  0  0  0
  -20.5915  -28.3722   23.1244 C   0  0  2  0  0  0
  -20.6786  -26.9421   22.5401 C   0  0  0  0  0  0
  -19.5756  -26.6388   21.5212 C   0  0  0  0  0  0
  -18.1941  -26.7938   22.1626 C   0  0  0  0  0  0
  -19.1560  -28.8872   23.2870 C   0  0  0  0  0  0
  -18.9478  -30.1469   23.8889 C   0  0  0  0  0  0
  -17.6477  -30.6593   24.0562 C   0  0  0  0  0  0
  -25.9056  -34.9424   23.5094 C   0  0  0  0  0  0
  -16.5367  -29.9087   23.6339 C   0  0  0  0  0  0
  -16.7285  -28.6504   23.0362 C   0  0  0  0  0  0
  -26.4527  -31.6565   25.0712 C   0  0  0  0  0  0
  -25.3727  -31.3733   26.1419 C   0  0  0  0  0  0
  -27.0385  -30.2969   24.6252 C   0  0  0  0  0  0
  -27.6072  -32.4310   25.7483 C   0  0  0  0  0  0
  -27.5576  -37.1777   24.8469 C   0  0  0  0  0  0
  -21.4243  -29.3060   22.3610 N   0  0  0  0  0  0
  -26.4285  -37.3756   23.9418 N   0  0  0  0  0  0
  -24.7106  -31.0394   22.0952 N   0  0  0  0  0  0
  -23.4227  -28.8112   23.2976 O   0  0  0  0  0  0
  -28.2363  -26.1775   20.2180 O   0  0  0  0  0  0
  -26.5633  -34.8910   22.4664 O   0  0  0  0  0  0
  -23.5518  -32.1348   23.7190 O   0  0  0  0  0  0
  -28.1967  -22.3641   21.6282 C   0  0  0  0  0  0
  -28.4792  -20.9539   21.5587 C   0  0  0  0  0  0
  -29.2132  -22.7016   19.5238 C   0  0  0  0  0  0
  -28.4992  -23.3157   20.6038 C   0  0  0  0  0  0
  -29.1201  -20.3173   20.4549 C   0  0  0  0  0  0
  -29.5307  -21.2733   19.4501 C   0  0  0  0  0  0
  -30.7475  -22.2051   16.4723 C   0  0  0  0  0  0
  -31.8825  -22.2750   17.4976 C   0  0  0  0  0  0
  -29.7542  -21.1699   17.0322 C   0  0  0  0  0  0
  -31.6879  -21.0031   18.3216 C   0  0  1  0  0  0
  -32.3906  -21.0175   19.6907 C   0  0  0  0  0  0
  -29.0576  -18.6874   20.2777 C   0  0  0  0  0  0
  -27.7753  -24.7804   20.6618 C   0  0  0  0  0  0
  -30.1820  -17.5307   20.6421 C   0  0  0  0  0  0
  -30.2437  -20.7639   18.3474 N   0  0  0  0  0  0
  -29.8158  -16.0084   20.6177 N   0  0  0  0  0  0
  -30.4248  -11.5574   19.9907 H   0  0  0  0  0  0
  -31.4821  -12.6672   19.1698 H   0  0  0  0  0  0
  -29.8176  -11.7163   17.5567 H   0  0  0  0  0  0
  -29.6329  -13.4470   17.6949 H   0  0  0  0  0  0
  -27.9265  -11.2781   18.9421 H   0  0  0  0  0  0
  -27.3941  -12.4845   17.8013 H   0  0  0  0  0  0
  -27.6211  -14.2520   19.4338 H   0  0  0  0  0  0
  -28.4056  -13.9027   21.7746 H   0  0  0  0  0  0
  -28.7545  -12.2271   21.4238 H   0  0  0  0  0  0
  -25.2787   -9.5713   22.4719 H   0  0  0  0  0  0
  -24.0024   -7.4673   22.7479 H   0  0  0  0  0  0
  -21.0843   -8.8784   19.8974 H   0  0  0  0  0  0
  -22.3717  -10.9666   19.6146 H   0  0  0  0  0  0
  -21.2017   -7.6148   23.9697 H   0  0  0  0  0  0
  -21.1468   -6.0519   25.9057 H   0  0  0  0  0  0
  -22.0612   -2.7609   23.2829 H   0  0  0  0  0  0
  -22.4105  -11.9925   22.4827 H   0  0  0  0  0  0
  -21.1070  -13.1239   22.2579 H   0  0  0  0  0  0
  -24.6566  -15.8511   20.5145 H   0  0  0  0  0  0
  -26.2578  -15.6254   20.0329 H   0  0  0  0  0  0
  -26.7245  -32.5372   23.1033 H   0  0  0  0  0  0
  -25.0080  -33.9645   25.0373 H   0  0  0  0  0  0
  -22.7415  -31.2970   21.3852 H   0  0  0  0  0  0
  -23.3762  -35.9582   23.3292 H   0  0  0  0  0  0
  -24.3573  -36.8889   22.2054 H   0  0  0  0  0  0
  -23.7234  -37.6453   23.6674 H   0  0  0  0  0  0
  -26.1419  -31.4917   20.6140 H   0  0  0  0  0  0
  -26.8703  -30.7914   22.0237 H   0  0  0  0  0  0
  -28.1210  -28.8263   21.2654 H   0  0  0  0  0  0
  -25.9541  -25.9250   18.9148 H   0  0  0  0  0  0
  -23.9910  -27.3378   18.9442 H   0  0  0  0  0  0
  -23.7921  -30.5811   19.3983 H   0  0  0  0  0  0
  -22.7849  -29.2388   19.8479 H   0  0  0  0  0  0
  -25.1293  -36.1879   25.0827 H   0  0  0  0  0  0
  -21.0025  -28.3303   24.1362 H   0  0  0  0  0  0
  -20.5681  -26.2322   23.3617 H   0  0  0  0  0  0
  -21.6649  -26.7420   22.1196 H   0  0  0  0  0  0
  -19.6909  -25.6302   21.1240 H   0  0  0  0  0  0
  -19.6697  -27.3202   20.6753 H   0  0  0  0  0  0
  -17.4207  -26.6697   21.4034 H   0  0  0  0  0  0
  -18.0333  -26.0084   22.9028 H   0  0  0  0  0  0
  -19.7951  -30.7291   24.2261 H   0  0  0  0  0  0
  -17.5022  -31.6272   24.5162 H   0  0  0  0  0  0
  -15.5366  -30.2984   23.7663 H   0  0  0  0  0  0
  -15.8688  -28.0813   22.7092 H   0  0  0  0  0  0
  -24.5932  -30.7053   25.7745 H   0  0  0  0  0  0
  -24.8890  -32.2907   26.4785 H   0  0  0  0  0  0
  -25.8029  -30.8954   27.0230 H   0  0  0  0  0  0
  -26.2992  -29.6689   24.1278 H   0  0  0  0  0  0
  -27.4039  -29.7265   25.4799 H   0  0  0  0  0  0
  -27.8886  -30.4218   23.9543 H   0  0  0  0  0  0
  -27.2700  -33.3652   26.1990 H   0  0  0  0  0  0
  -28.3926  -32.6793   25.0330 H   0  0  0  0  0  0
  -28.0701  -31.8469   26.5452 H   0  0  0  0  0  0
  -28.2585  -38.0084   24.7510 H   0  0  0  0  0  0
  -28.1081  -36.2604   24.6299 H   0  0  0  0  0  0
  -27.2290  -37.1426   25.8874 H   0  0  0  0  0  0
  -20.9430  -29.8774   21.6801 H   0  0  0  0  0  0
  -26.0156  -38.2829   24.1423 H   0  0  0  0  0  0
  -27.6361  -22.7096   22.4860 H   0  0  0  0  0  0
  -28.1084  -20.3279   22.3585 H   0  0  0  0  0  0
  -29.4753  -23.3424   18.6955 H   0  0  0  0  0  0
  -31.1240  -21.8772   15.5017 H   0  0  0  0  0  0
  -30.2844  -23.1826   16.3299 H   0  0  0  0  0  0
  -31.7754  -23.1636   18.1208 H   0  0  0  0  0  0
  -32.8668  -22.3208   17.0311 H   0  0  0  0  0  0
  -29.7218  -20.2917   16.3837 H   0  0  0  0  0  0
  -28.7386  -21.5714   17.0710 H   0  0  0  0  0  0
  -32.1161  -20.1751   17.7528 H   0  0  0  0  0  0
  -32.0468  -21.8381   20.3224 H   0  0  0  0  0  0
  -33.4666  -21.1380   19.5678 H   0  0  0  0  0  0
  -32.2265  -20.0853   20.2315 H   0  0  0  0  0  0
  -28.7809  -18.5307   19.2358 H   0  0  0  0  0  0
  -28.1585  -18.3953   20.8207 H   0  0  0  0  0  0
  -27.5440  -24.9275   21.7168 H   0  0  0  0  0  0
  -26.8079  -24.5534   20.2196 H   0  0  0  0  0  0
  -30.5486  -17.7355   21.6495 H   0  0  0  0  0  0
  -31.0425  -17.6785   19.9873 H   0  0  0  0  0  0
  -28.8393  -15.8110   20.7791 H   0  0  0  0  0  0
  1 25  1  0  0  0
  1 30  2  0  0  0
  1 86  1  0  0  0
  2  3  1  0  0  0
  2 25  1  0  0  0
  2 87  1  0  0  0
  2 88  1  0  0  0
  3  4  1  0  0  0
  3 89  1  0  0  0
  3 90  1  0  0  0
  4  5  1  0  0  0
  4 91  1  0  0  0
  4 92  1  0  0  0
  5  6  1  0  0  0
  5 26  1  0  0  0
  5 93  1  0  0  0
  6 25  1  0  0  0
  6 94  1  0  0  0
  6 95  1  0  0  0
  7  8  2  0  0  0
  7 26  1  0  0  0
  7 29  1  0  0  0
  8  9  1  0  0  0
  8 22  1  0  0  0
  9 10  1  0  0  0
  9 27  2  0  0  0
 10 11  2  0  0  0
 10 15  1  0  0  0
 11 12  1  0  0  0
 11 96  1  0  0  0
 12 13  2  0  0  0
 12 97  1  0  0  0
 13 14  1  0  0  0
 13 31  1  0  0  0
 14 15  2  0  0  0
 14 98  1  0  0  0
 15 99  1  0  0  0
 16 17  2  0  0  0
 16 21  1  0  0  0
 16 31  1  0  0  0
 17 18  1  0  0  0
 17100  1  0  0  0
 18 19  2  0  0  0
 18101  1  0  0  0
 19 20  1  0  0  0
 19 24  1  0  0  0
 20 21  2  0  0  0
 20102  1  0  0  0
 21 23  1  0  0  0
 22 28  1  0  0  0
 22 32  2  0  0  0
 26 27  1  0  0  0
 28103  1  0  0  0
 28104  1  0  0  0
 29105  1  0  0  0
 29106  1  0  0  0
 33 34  1  0  0  0
 33 66  1  0  0  0
 33 70  2  0  0  0
 34 36  1  0  0  0
 34 59  1  0  0  0
 34107  1  0  0  0
 35 44  2  0  0  0
 35 45  1  0  0  0
 35 68  1  0  0  0
 36 56  1  0  0  0
 36108  1  0  0  0
 37 39  1  0  0  0
 37 47  1  0  0  0
 37 66  1  0  0  0
 37109  1  0  0  0
 38 43  2  0  0  0
 38 46  1  0  0  0
 38 47  1  0  0  0
 39 64  1  0  0  0
 39 67  2  0  0  0
 40 52  1  0  0  0
 40 53  2  0  0  0
 40 58  1  0  0  0
 41110  1  0  0  0
 41111  1  0  0  0
 41112  1  0  0  0
 41 48  1  0  0  0
 42 43  1  0  0  0
 42 66  1  0  0  0
 42113  1  0  0  0
 42114  1  0  0  0
 43 44  1  0  0  0
 44115  1  0  0  0
 45 46  2  0  0  0
 45116  1  0  0  0
 46117  1  0  0  0
 47118  1  0  0  0
 47119  1  0  0  0
 48 56  1  0  0  0
 48 65  1  0  0  0
 48120  1  0  0  0
 49 50  1  0  0  0
 49 53  1  0  0  0
 49 64  1  0  0  0
 49121  1  0  0  0
 50 51  1  0  0  0
 50122  1  0  0  0
 50123  1  0  0  0
 51 52  1  0  0  0
 51124  1  0  0  0
 51125  1  0  0  0
 52126  1  0  0  0
 52127  1  0  0  0
 53 54  1  0  0  0
 54 55  2  0  0  0
 54128  1  0  0  0
 55 57  1  0  0  0
 55129  1  0  0  0
 56 69  2  0  0  0
 57 58  2  0  0  0
 57130  1  0  0  0
 58131  1  0  0  0
 59 60  1  0  0  0
 59 61  1  0  0  0
 59 62  1  0  0  0
 60132  1  0  0  0
 60133  1  0  0  0
 60134  1  0  0  0
 61135  1  0  0  0
 61136  1  0  0  0
 61137  1  0  0  0
 62138  1  0  0  0
 62139  1  0  0  0
 62140  1  0  0  0
 63 65  1  0  0  0
 63141  1  0  0  0
 63142  1  0  0  0
 63143  1  0  0  0
 64144  1  0  0  0
 65145  1  0  0  0
 68 83  1  0  0  0
 71 72  2  0  0  0
 71 74  1  0  0  0
 71146  1  0  0  0
 72 75  1  0  0  0
 72147  1  0  0  0
 73 74  2  0  0  0
 73 76  1  0  0  0
 73148  1  0  0  0
 74 83  1  0  0  0
 75 76  2  0  0  0
 75 82  1  0  0  0
 76 85  1  0  0  0
 77 78  1  0  0  0
 77 79  1  0  0  0
 77149  1  0  0  0
 77150  1  0  0  0
 78 80  1  0  0  0
 78151  1  0  0  0
 78152  1  0  0  0
 79 85  1  0  0  0
 79153  1  0  0  0
 79154  1  0  0  0
 80 81  1  0  0  0
 80 85  1  0  0  0
 80155  1  0  0  0
 81156  1  0  0  0
 81157  1  0  0  0
 81158  1  0  0  0
 82 84  1  0  0  0
 82159  1  0  0  0
 82160  1  0  0  0
 83161  1  0  0  0
 83162  1  0  0  0
 84 86  1  0  0  0
 84163  1  0  0  0
 84164  1  0  0  0
 86165  1  0  0  0
M  ISO  4   1 100  68 101  83 101  86 100
M  END
> <chiral flag>
0

> <version>
0

> <s_m_source_file>
/data/baiqing/PycharmProjects/Reinvent-master-3.2/result/LINK_invent/BTK/process_docking_weight1_custom_sum_contain_oxygen_bond_distance_aromatic_linkinvent_7_9_3/rearranged_h_0137.sdf

> <i_m_source_file_index>
22

> <r_mmod_Potential_Energy-OPLS-2005>
446.964172363281

> <r_mmod_Stretch_Energy-OPLS-2005>
188.405807495117

> <r_mmod_Bend_Energy-OPLS-2005>
272.206481933594

> <r_mmod_Torsional_Energy-OPLS-2005>
325.317138671875

> <r_mmod_Improper_Torsional_Energy-OPLS-2005>
14.1038761138916

> <r_mmod_Van_der_Waal_Energy-OPLS-2005>
136.437606811523

> <r_mmod_Electrostatic_Energy-OPLS-2005>
-413.159240722656

> <r_mmod_Solvation_Energy-OPLS-2005>
-222.345947265625

> <b_mmod_Minimization_Converged-OPLS-2005>
0

> <r_mmod_RMS_Derivative-OPLS-2005>
2.17208433151245

$$$$
22
                    3D
 Structure written by MMmdl.
162170  0  0  1  0            999 V2000
  -30.5937  -14.7058   20.4711 C   0  0  0  0  0  0
  -30.4298  -12.4337   19.4442 C   0  0  0  0  0  0
  -29.4956  -12.5059   18.2173 C   0  0  0  0  0  0
  -28.0225  -12.3272   18.6410 C   0  0  0  0  0  0
  -27.6368  -13.2208   19.8507 C   0  0  2  0  0  0
  -28.6854  -13.1268   20.9768 C   0  0  0  0  0  0
  -25.2474  -13.8168   20.5692 C   0  0  0  0  0  0
  -24.1770  -13.0426   20.9216 C   0  0  0  0  0  0
  -24.6351  -11.6895   20.8763 C   0  0  0  0  0  0
  -23.9031  -10.4287   21.0424 C   0  0  0  0  0  0
  -24.3599   -9.4201   21.9193 C   0  0  0  0  0  0
  -23.6285   -8.2233   22.0754 C   0  0  0  0  0  0
  -22.4267   -8.0275   21.3543 C   0  0  0  0  0  0
  -21.9897   -9.0242   20.4642 C   0  0  0  0  0  0
  -22.7213  -10.2128   20.3058 C   0  0  0  0  0  0
  -21.6843   -6.0733   22.5276 C   0  0  0  0  0  0
  -21.4022   -6.5637   23.8212 C   0  0  0  0  0  0
  -21.3658   -5.6788   24.9170 C   0  0  0  0  0  0
  -21.6048   -4.3051   24.7225 C   0  0  0  0  0  0
  -21.8810   -3.8143   23.4342 C   0  0  0  0  0  0
  -21.9195   -4.6963   22.3399 C   0  0  0  0  0  0
  -22.7790  -13.5218   21.1873 C   0  0  0  0  0  0
  -22.1655   -4.2149   21.0974 F   0  0  0  0  0  0
  -21.5630   -3.4533   25.7735 F   0  0  0  0  0  0
  -29.9828  -13.4796   20.3862 N   0  0  0  0  0  0
  -26.2896  -12.9363   20.3300 N   0  0  0  0  0  0
  -25.9279  -11.6510   20.5786 N   0  0  0  0  0  0
  -22.0433  -12.8225   22.0433 N   0  0  0  0  0  0
  -25.4158  -15.1902   20.4088 N   0  0  0  0  0  0
  -31.8002  -14.8236   20.2387 O   0  0  0  0  0  0
  -21.6633   -6.8878   21.4235 O   0  0  0  0  0  0
  -22.3476  -14.5534   20.6724 O   0  0  0  0  0  0
  -24.6312  -31.8547   23.1964 C   0  0  0  0  0  0
  -25.9135  -32.4756   23.8307 C   0  0  1  0  0  0
  -27.2022  -27.2546   20.1419 C   0  0  0  0  0  0
  -25.5929  -33.8550   24.2240 N   0  0  0  0  0  0
  -23.4270  -30.4804   21.5407 C   0  0  2  0  0  0
  -24.8708  -28.9290   20.1079 C   0  0  0  0  0  0
  -22.7517  -29.4602   22.4895 C   0  0  0  0  0  0
  -18.0309  -28.1397   22.8473 C   0  0  0  0  0  0
  -24.1491  -36.7279   23.2643 C   0  0  0  0  0  0
  -25.9739  -30.7693   21.3736 C   0  0  0  0  0  0
  -26.0437  -29.3891   20.7228 C   0  0  0  0  0  0
  -27.2142  -28.5645   20.7288 C   0  0  0  0  0  0
  -26.0165  -26.8728   19.4785 C   0  0  0  0  0  0
  -24.8641  -27.6797   19.4733 C   0  0  0  0  0  0
  -23.6419  -29.8158   20.1562 C   0  0  0  0  0  0
  -25.4107  -36.3053   24.0339 C   0  0  1  0  0  0
  -20.5913  -28.3692   23.1268 C   0  0  2  0  0  0
  -20.6792  -26.9407   22.5406 C   0  0  0  0  0  0
  -19.5759  -26.6382   21.5220 C   0  0  0  0  0  0
  -18.1941  -26.7928   22.1627 C   0  0  0  0  0  0
  -19.1566  -28.8853   23.2866 C   0  0  0  0  0  0
  -18.9483  -30.1455   23.8878 C   0  0  0  0  0  0
  -17.6481  -30.6582   24.0560 C   0  0  0  0  0  0
  -25.9044  -34.9433   23.5087 C   0  0  0  0  0  0
  -16.5365  -29.9084   23.6333 C   0  0  0  0  0  0
  -16.7290  -28.6515   23.0331 C   0  0  0  0  0  0
  -26.4492  -31.6580   25.0688 C   0  0  0  0  0  0
  -25.3724  -31.3738   26.1418 C   0  0  0  0  0  0
  -27.0344  -30.3001   24.6163 C   0  0  0  0  0  0
  -27.6047  -32.4311   25.7471 C   0  0  0  0  0  0
  -27.5574  -37.1788   24.8464 C   0  0  0  0  0  0
  -21.4225  -29.3041   22.3658 N   0  0  0  0  0  0
  -26.4272  -37.3763   23.9427 N   0  0  0  0  0  0
  -24.6969  -31.0540   22.0926 N   0  0  0  0  0  0
  -23.4235  -28.8115   23.2956 O   0  0  0  0  0  0
  -28.2828  -26.3466   20.1857 O   0  0  0  0  0  0
  -26.5624  -34.8918   22.4662 O   0  0  0  0  0  0
  -23.5469  -32.1333   23.7295 O   0  0  0  0  0  0
  -30.6487  -18.6028   22.8432 C   0  0  0  0  0  0
  -30.5219  -17.3347   22.2531 C   0  0  0  0  0  0
  -29.5723  -18.4114   20.2918 C   0  0  0  0  0  0
  -30.2900  -19.7995   22.1750 C   0  0  0  0  0  0
  -29.7308  -19.7443   20.8618 C   0  0  0  0  0  0
  -29.9838  -17.1873   20.9640 C   0  0  0  0  0  0
  -31.9289  -21.1855   23.5700 C   0  0  0  0  0  0
  -29.4231  -21.3827   23.9374 C   0  0  0  0  0  0
  -29.4799  -21.0901   20.0308 C   0  0  0  0  0  0
  -28.9893  -23.7024   20.1263 C   0  0  0  0  0  0
  -28.0017  -24.9094   20.5560 C   0  0  0  0  0  0
  -30.5388  -21.1208   22.9128 C   0  0  0  0  0  0
  -29.7636  -15.8120   20.4815 N   0  0  0  0  0  0
  -28.6511  -22.2610   20.5795 N   0  3  0  0  0  0
  -31.4683  -12.5731   19.1375 H   0  0  0  0  0  0
  -30.3783  -11.4497   19.9125 H   0  0  0  0  0  0
  -29.7667  -11.7436   17.4856 H   0  0  0  0  0  0
  -29.6158  -13.4690   17.7197 H   0  0  0  0  0  0
  -27.8796  -11.2777   18.9031 H   0  0  0  0  0  0
  -27.3566  -12.5245   17.7996 H   0  0  0  0  0  0
  -27.6359  -14.2451   19.4804 H   0  0  0  0  0  0
  -28.7140  -12.1200   21.3973 H   0  0  0  0  0  0
  -28.4343  -13.7967   21.8013 H   0  0  0  0  0  0
  -25.2741   -9.5679   22.4767 H   0  0  0  0  0  0
  -23.9991   -7.4623   22.7468 H   0  0  0  0  0  0
  -21.0835   -8.8764   19.8947 H   0  0  0  0  0  0
  -22.3674  -10.9675   19.6172 H   0  0  0  0  0  0
  -21.2011   -7.6139   23.9715 H   0  0  0  0  0  0
  -21.1492   -6.0515   25.9076 H   0  0  0  0  0  0
  -22.0596   -2.7603   23.2836 H   0  0  0  0  0  0
  -22.4048  -11.9877   22.4827 H   0  0  0  0  0  0
  -21.1054  -13.1268   22.2663 H   0  0  0  0  0  0
  -24.6404  -15.8385   20.5001 H   0  0  0  0  0  0
  -26.2637  -15.6373   20.0870 H   0  0  0  0  0  0
  -26.7207  -32.5423   23.1063 H   0  0  0  0  0  0
  -25.0063  -33.9658   25.0379 H   0  0  0  0  0  0
  -22.7244  -31.3044   21.3974 H   0  0  0  0  0  0
  -23.3747  -35.9608   23.3281 H   0  0  0  0  0  0
  -24.3587  -36.8914   22.2055 H   0  0  0  0  0  0
  -23.7243  -37.6481   23.6672 H   0  0  0  0  0  0
  -26.1063  -31.5243   20.5981 H   0  0  0  0  0  0
  -26.8565  -30.8276   21.9981 H   0  0  0  0  0  0
  -28.1137  -28.9044   21.2229 H   0  0  0  0  0  0
  -25.9504  -25.9308   18.9544 H   0  0  0  0  0  0
  -23.9724  -27.3286   18.9729 H   0  0  0  0  0  0
  -23.7640  -30.5907   19.3995 H   0  0  0  0  0  0
  -22.7584  -29.2490   19.8513 H   0  0  0  0  0  0
  -25.1294  -36.1887   25.0829 H   0  0  0  0  0  0
  -21.0032  -28.3283   24.1378 H   0  0  0  0  0  0
  -20.5719  -26.2297   23.3614 H   0  0  0  0  0  0
  -21.6658  -26.7429   22.1187 H   0  0  0  0  0  0
  -19.6913  -25.6302   21.1236 H   0  0  0  0  0  0
  -19.6699  -27.3211   20.6770 H   0  0  0  0  0  0
  -17.4212  -26.6677   21.4030 H   0  0  0  0  0  0
  -18.0321  -26.0081   22.9030 H   0  0  0  0  0  0
  -19.7951  -30.7277   24.2252 H   0  0  0  0  0  0
  -17.5023  -31.6270   24.5162 H   0  0  0  0  0  0
  -15.5360  -30.2972   23.7670 H   0  0  0  0  0  0
  -15.8689  -28.0844   22.7016 H   0  0  0  0  0  0
  -24.5926  -30.7049   25.7771 H   0  0  0  0  0  0
  -24.8884  -32.2905   26.4780 H   0  0  0  0  0  0
  -25.8040  -30.8979   27.0231 H   0  0  0  0  0  0
  -26.2920  -29.6742   24.1197 H   0  0  0  0  0  0
  -27.4052  -29.7259   25.4665 H   0  0  0  0  0  0
  -27.8784  -30.4274   23.9379 H   0  0  0  0  0  0
  -27.2676  -33.3655   26.1973 H   0  0  0  0  0  0
  -28.3912  -32.6799   25.0332 H   0  0  0  0  0  0
  -28.0651  -31.8471   26.5452 H   0  0  0  0  0  0
  -28.2578  -38.0104   24.7540 H   0  0  0  0  0  0
  -28.1094  -36.2637   24.6259 H   0  0  0  0  0  0
  -27.2301  -37.1401   25.8870 H   0  0  0  0  0  0
  -20.9399  -29.8779   21.6887 H   0  0  0  0  0  0
  -26.0148  -38.2830   24.1450 H   0  0  0  0  0  0
  -31.0477  -18.6421   23.8461 H   0  0  0  0  0  0
  -30.8132  -16.4646   22.8249 H   0  0  0  0  0  0
  -29.1564  -18.3304   19.2970 H   0  0  0  0  0  0
  -32.7122  -20.9250   22.8580 H   0  0  0  0  0  0
  -32.0172  -20.5159   24.4238 H   0  0  0  0  0  0
  -32.1418  -22.1934   23.9297 H   0  0  0  0  0  0
  -28.4370  -21.3701   23.4722 H   0  0  0  0  0  0
  -29.5455  -22.3511   24.4234 H   0  0  0  0  0  0
  -29.4232  -20.6261   24.7219 H   0  0  0  0  0  0
  -29.0690  -20.8227   19.0566 H   0  0  0  0  0  0
  -30.4743  -21.4774   19.8109 H   0  0  0  0  0  0
  -29.9883  -23.9397   20.4935 H   0  0  0  0  0  0
  -29.0718  -23.6996   19.0396 H   0  0  0  0  0  0
  -27.0085  -24.6061   20.2311 H   0  0  0  0  0  0
  -27.9332  -24.9009   21.6451 H   0  0  0  0  0  0
  -30.5559  -21.9453   22.2061 H   0  0  0  0  0  0
  -28.8015  -15.5846   20.2907 H   0  0  0  0  0  0
  -27.6940  -22.0602   20.3362 H   0  0  0  0  0  0
  -28.7008  -22.2184   21.5847 H   0  0  0  0  0  0
  1 25  1  0  0  0
  1 30  2  0  0  0
  1 83  1  0  0  0
  2  3  1  0  0  0
  2 25  1  0  0  0
  2 85  1  0  0  0
  2 86  1  0  0  0
  3  4  1  0  0  0
  3 87  1  0  0  0
  3 88  1  0  0  0
  4  5  1  0  0  0
  4 89  1  0  0  0
  4 90  1  0  0  0
  5  6  1  0  0  0
  5 26  1  0  0  0
  5 91  1  0  0  0
  6 25  1  0  0  0
  6 92  1  0  0  0
  6 93  1  0  0  0
  7  8  2  0  0  0
  7 26  1  0  0  0
  7 29  1  0  0  0
  8  9  1  0  0  0
  8 22  1  0  0  0
  9 10  1  0  0  0
  9 27  2  0  0  0
 10 11  2  0  0  0
 10 15  1  0  0  0
 11 12  1  0  0  0
 11 94  1  0  0  0
 12 13  2  0  0  0
 12 95  1  0  0  0
 13 14  1  0  0  0
 13 31  1  0  0  0
 14 15  2  0  0  0
 14 96  1  0  0  0
 15 97  1  0  0  0
 16 17  2  0  0  0
 16 21  1  0  0  0
 16 31  1  0  0  0
 17 18  1  0  0  0
 17 98  1  0  0  0
 18 19  2  0  0  0
 18 99  1  0  0  0
 19 20  1  0  0  0
 19 24  1  0  0  0
 20 21  2  0  0  0
 20100  1  0  0  0
 21 23  1  0  0  0
 22 28  1  0  0  0
 22 32  2  0  0  0
 26 27  1  0  0  0
 28101  1  0  0  0
 28102  1  0  0  0
 29103  1  0  0  0
 29104  1  0  0  0
 33 34  1  0  0  0
 33 66  1  0  0  0
 33 70  2  0  0  0
 34 36  1  0  0  0
 34 59  1  0  0  0
 34105  1  0  0  0
 35 44  2  0  0  0
 35 45  1  0  0  0
 35 68  1  0  0  0
 36 56  1  0  0  0
 36106  1  0  0  0
 37 39  1  0  0  0
 37 47  1  0  0  0
 37 66  1  0  0  0
 37107  1  0  0  0
 38 43  2  0  0  0
 38 46  1  0  0  0
 38 47  1  0  0  0
 39 64  1  0  0  0
 39 67  2  0  0  0
 40 52  1  0  0  0
 40 53  2  0  0  0
 40 58  1  0  0  0
 41108  1  0  0  0
 41109  1  0  0  0
 41110  1  0  0  0
 41 48  1  0  0  0
 42 43  1  0  0  0
 42 66  1  0  0  0
 42111  1  0  0  0
 42112  1  0  0  0
 43 44  1  0  0  0
 44113  1  0  0  0
 45 46  2  0  0  0
 45114  1  0  0  0
 46115  1  0  0  0
 47116  1  0  0  0
 47117  1  0  0  0
 48 56  1  0  0  0
 48 65  1  0  0  0
 48118  1  0  0  0
 49 50  1  0  0  0
 49 53  1  0  0  0
 49 64  1  0  0  0
 49119  1  0  0  0
 50 51  1  0  0  0
 50120  1  0  0  0
 50121  1  0  0  0
 51 52  1  0  0  0
 51122  1  0  0  0
 51123  1  0  0  0
 52124  1  0  0  0
 52125  1  0  0  0
 53 54  1  0  0  0
 54 55  2  0  0  0
 54126  1  0  0  0
 55 57  1  0  0  0
 55127  1  0  0  0
 56 69  2  0  0  0
 57 58  2  0  0  0
 57128  1  0  0  0
 58129  1  0  0  0
 59 60  1  0  0  0
 59 61  1  0  0  0
 59 62  1  0  0  0
 60130  1  0  0  0
 60131  1  0  0  0
 60132  1  0  0  0
 61133  1  0  0  0
 61134  1  0  0  0
 61135  1  0  0  0
 62136  1  0  0  0
 62137  1  0  0  0
 62138  1  0  0  0
 63 65  1  0  0  0
 63139  1  0  0  0
 63140  1  0  0  0
 63141  1  0  0  0
 64142  1  0  0  0
 65143  1  0  0  0
 68 81  1  0  0  0
 71 72  2  0  0  0
 71 74  1  0  0  0
 71144  1  0  0  0
 72 76  1  0  0  0
 72145  1  0  0  0
 73 75  1  0  0  0
 73 76  2  0  0  0
 73146  1  0  0  0
 74 75  2  0  0  0
 74 82  1  0  0  0
 75 79  1  0  0  0
 76 83  1  0  0  0
 77147  1  0  0  0
 77148  1  0  0  0
 77149  1  0  0  0
 77 82  1  0  0  0
 78 82  1  0  0  0
 78150  1  0  0  0
 78151  1  0  0  0
 78152  1  0  0  0
 79 84  1  0  0  0
 79153  1  0  0  0
 79154  1  0  0  0
 80 81  1  0  0  0
 80 84  1  0  0  0
 80155  1  0  0  0
 80156  1  0  0  0
 81157  1  0  0  0
 81158  1  0  0  0
 82159  1  0  0  0
 83160  1  0  0  0
 84161  1  0  0  0
 84162  1  0  0  0
M  CHG  1  84   1
M  ISO  4   1 100  68 101  81 101  83 100
M  END
> <chiral flag>
0

> <version>
0

> <s_m_source_file>
/data/baiqing/PycharmProjects/Reinvent-master-3.2/result/LINK_invent/BTK/process_docking_weight1_custom_sum_contain_oxygen_bond_distance_aromatic_linkinvent_7_9_3/rearranged_h_0137.sdf

> <i_m_source_file_index>
23

> <r_mmod_Potential_Energy-OPLS-2005>
3.03417277336121

> <r_mmod_Stretch_Energy-OPLS-2005>
117.625343322754

> <r_mmod_Bend_Energy-OPLS-2005>
155.47151184082

> <r_mmod_Torsional_Energy-OPLS-2005>
253.308792114258

> <r_mmod_Improper_Torsional_Energy-OPLS-2005>
10.0657033920288

> <r_mmod_Van_der_Waal_Energy-OPLS-2005>
140.620620727539

> <r_mmod_Electrostatic_Energy-OPLS-2005>
-296.916870117188

> <r_mmod_Solvation_Energy-OPLS-2005>
-459.909271240234

> <b_mmod_Minimization_Converged-OPLS-2005>
0

> <r_mmod_RMS_Derivative-OPLS-2005>
2.97241997718811

$$$$
23
                    3D
 Structure written by MMmdl.
152160  0  0  1  0            999 V2000
  -30.6211  -14.7502   20.4631 C   0  0  0  0  0  0
  -30.4252  -12.4508   19.4843 C   0  0  0  0  0  0
  -29.5188  -12.5082   18.2361 C   0  0  0  0  0  0
  -28.0376  -12.3455   18.6330 C   0  0  0  0  0  0
  -27.6369  -13.2409   19.8387 C   0  0  2  0  0  0
  -28.6757  -13.1790   20.9779 C   0  0  0  0  0  0
  -25.2479  -13.8232   20.5661 C   0  0  0  0  0  0
  -24.1794  -13.0466   20.9222 C   0  0  0  0  0  0
  -24.6403  -11.6946   20.8757 C   0  0  0  0  0  0
  -23.9091  -10.4313   21.0414 C   0  0  0  0  0  0
  -24.3658   -9.4223   21.9179 C   0  0  0  0  0  0
  -23.6327   -8.2264   22.0760 C   0  0  0  0  0  0
  -22.4305   -8.0300   21.3548 C   0  0  0  0  0  0
  -21.9924   -9.0275   20.4655 C   0  0  0  0  0  0
  -22.7267  -10.2150   20.3058 C   0  0  0  0  0  0
  -21.6867   -6.0742   22.5270 C   0  0  0  0  0  0
  -21.4019   -6.5640   23.8208 C   0  0  0  0  0  0
  -21.3670   -5.6781   24.9170 C   0  0  0  0  0  0
  -21.6051   -4.3049   24.7204 C   0  0  0  0  0  0
  -21.8815   -3.8147   23.4317 C   0  0  0  0  0  0
  -21.9194   -4.6967   22.3379 C   0  0  0  0  0  0
  -22.7807  -13.5233   21.1841 C   0  0  0  0  0  0
  -22.1665   -4.2170   21.0962 F   0  0  0  0  0  0
  -21.5635   -3.4521   25.7704 F   0  0  0  0  0  0
  -29.9803  -13.5282   20.4018 N   0  0  0  0  0  0
  -26.2907  -12.9456   20.3175 N   0  0  0  0  0  0
  -25.9326  -11.6593   20.5714 N   0  0  0  0  0  0
  -22.0449  -12.8268   22.0438 N   0  0  0  0  0  0
  -25.4116  -15.1968   20.4048 N   0  0  0  0  0  0
  -31.8182  -14.8021   20.1614 O   0  0  0  0  0  0
  -21.6661   -6.8899   21.4252 O   0  0  0  0  0  0
  -22.3458  -14.5496   20.6632 O   0  0  0  0  0  0
  -24.6258  -31.8569   23.1969 C   0  0  0  0  0  0
  -25.9082  -32.4769   23.8315 C   0  0  1  0  0  0
  -27.2363  -27.2875   20.1252 C   0  0  0  0  0  0
  -25.5867  -33.8561   24.2251 N   0  0  0  0  0  0
  -23.4227  -30.4756   21.5403 C   0  0  2  0  0  0
  -24.8738  -28.9115   20.1216 C   0  0  0  0  0  0
  -22.7461  -29.4612   22.4920 C   0  0  0  0  0  0
  -18.0280  -28.1392   22.8496 C   0  0  0  0  0  0
  -24.1482  -36.7293   23.2646 C   0  0  0  0  0  0
  -25.9665  -30.7747   21.3723 C   0  0  0  0  0  0
  -26.0435  -29.3961   20.7191 C   0  0  0  0  0  0
  -27.2283  -28.5983   20.7045 C   0  0  0  0  0  0
  -26.0407  -26.8493   19.5171 C   0  0  0  0  0  0
  -24.8733  -27.6429   19.5158 C   0  0  0  0  0  0
  -23.6419  -29.7959   20.1604 C   0  0  0  0  0  0
  -25.4104  -36.3076   24.0337 C   0  0  1  0  0  0
  -20.5880  -28.3683   23.1309 C   0  0  2  0  0  0
  -20.6774  -26.9397   22.5438 C   0  0  0  0  0  0
  -19.5761  -26.6375   21.5241 C   0  0  0  0  0  0
  -18.1939  -26.7943   22.1633 C   0  0  0  0  0  0
  -19.1547  -28.8854   23.2909 C   0  0  0  0  0  0
  -18.9463  -30.1457   23.8910 C   0  0  0  0  0  0
  -17.6480  -30.6598   24.0564 C   0  0  0  0  0  0
  -25.9041  -34.9451   23.5118 C   0  0  0  0  0  0
  -16.5347  -29.9109   23.6325 C   0  0  0  0  0  0
  -16.7285  -28.6525   23.0349 C   0  0  0  0  0  0
  -26.4462  -31.6594   25.0695 C   0  0  0  0  0  0
  -25.3695  -31.3759   26.1427 C   0  0  0  0  0  0
  -27.0312  -30.3011   24.6164 C   0  0  0  0  0  0
  -27.5987  -32.4349   25.7483 C   0  0  0  0  0  0
  -27.5601  -37.1778   24.8445 C   0  0  0  0  0  0
  -21.4174  -29.3038   22.3674 N   0  0  0  0  0  0
  -26.4285  -37.3766   23.9435 N   0  0  0  0  0  0
  -24.6911  -31.0535   22.0923 N   0  0  0  0  0  0
  -23.4172  -28.8150   23.3011 O   0  0  0  0  0  0
  -28.3663  -26.4506   20.0877 O   0  0  0  0  0  0
  -26.5644  -34.8933   22.4695 O   0  0  0  0  0  0
  -23.5409  -32.1369   23.7278 O   0  0  0  0  0  0
  -31.0532  -20.0694   20.6072 C   0  0  0  0  0  0
  -29.3023  -18.4250   20.3626 C   0  0  0  0  0  0
  -31.9057  -18.9938   20.9032 C   0  0  0  0  0  0
  -29.6940  -19.8285   20.3246 C   0  0  0  0  0  0
  -30.2402  -17.3423   20.6305 C   0  0  0  0  0  0
  -28.7768  -21.0588   19.8869 C   0  0  0  0  0  0
  -28.6070  -23.7341   19.7704 C   0  0  0  0  0  0
  -28.3084  -25.0627   20.6453 C   0  0  0  0  0  0
  -31.5158  -17.6992   20.9123 N   0  0  0  0  0  0
  -29.8562  -15.9048   20.6294 N   0  0  0  0  0  0
  -29.0006  -22.4388   20.5162 N   0  3  0  0  0  0
  -31.4742  -12.5539   19.1997 H   0  0  0  0  0  0
  -30.3462  -11.4754   19.9694 H   0  0  0  0  0  0
  -29.7975  -11.7309   17.5231 H   0  0  0  0  0  0
  -29.6680  -13.4614   17.7272 H   0  0  0  0  0  0
  -27.8829  -11.2971   18.8857 H   0  0  0  0  0  0
  -27.3966  -12.5463   17.7734 H   0  0  0  0  0  0
  -27.6234  -14.2624   19.4568 H   0  0  0  0  0  0
  -28.7025  -12.1792   21.4132 H   0  0  0  0  0  0
  -28.4069  -13.8589   21.7879 H   0  0  0  0  0  0
  -25.2823   -9.5695   22.4730 H   0  0  0  0  0  0
  -24.0039   -7.4643   22.7450 H   0  0  0  0  0  0
  -21.0844   -8.8789   19.8955 H   0  0  0  0  0  0
  -22.3727  -10.9684   19.6154 H   0  0  0  0  0  0
  -21.2021   -7.6145   23.9733 H   0  0  0  0  0  0
  -21.1508   -6.0499   25.9075 H   0  0  0  0  0  0
  -22.0590   -2.7603   23.2804 H   0  0  0  0  0  0
  -22.4053  -11.9996   22.4958 H   0  0  0  0  0  0
  -21.1044  -13.1300   22.2523 H   0  0  0  0  0  0
  -24.6269  -15.8348   20.4841 H   0  0  0  0  0  0
  -26.2383  -15.6402   20.0286 H   0  0  0  0  0  0
  -26.7141  -32.5416   23.1050 H   0  0  0  0  0  0
  -24.9919  -33.9684   25.0346 H   0  0  0  0  0  0
  -22.7215  -31.2991   21.3910 H   0  0  0  0  0  0
  -23.3772  -35.9596   23.3245 H   0  0  0  0  0  0
  -24.3603  -36.8967   22.2077 H   0  0  0  0  0  0
  -23.7218  -37.6467   23.6705 H   0  0  0  0  0  0
  -26.1061  -31.5344   20.6031 H   0  0  0  0  0  0
  -26.8440  -30.8247   22.0056 H   0  0  0  0  0  0
  -28.1320  -28.9742   21.1618 H   0  0  0  0  0  0
  -26.0057  -25.8807   19.0379 H   0  0  0  0  0  0
  -23.9711  -27.2620   19.0588 H   0  0  0  0  0  0
  -23.7639  -30.5672   19.4015 H   0  0  0  0  0  0
  -22.7619  -29.2242   19.8591 H   0  0  0  0  0  0
  -25.1301  -36.1902   25.0829 H   0  0  0  0  0  0
  -20.9989  -28.3260   24.1437 H   0  0  0  0  0  0
  -20.5696  -26.2278   23.3633 H   0  0  0  0  0  0
  -21.6645  -26.7451   22.1216 H   0  0  0  0  0  0
  -19.6900  -25.6292   21.1276 H   0  0  0  0  0  0
  -19.6714  -27.3191   20.6778 H   0  0  0  0  0  0
  -17.4207  -26.6701   21.4023 H   0  0  0  0  0  0
  -18.0311  -26.0107   22.9043 H   0  0  0  0  0  0
  -19.7937  -30.7277   24.2275 H   0  0  0  0  0  0
  -17.5025  -31.6280   24.5167 H   0  0  0  0  0  0
  -15.5358  -30.3015   23.7659 H   0  0  0  0  0  0
  -15.8664  -28.0851   22.7055 H   0  0  0  0  0  0
  -24.5789  -30.7207   25.7756 H   0  0  0  0  0  0
  -24.8992  -32.2949   26.4922 H   0  0  0  0  0  0
  -25.7994  -30.8851   27.0169 H   0  0  0  0  0  0
  -26.2890  -29.6769   24.1154 H   0  0  0  0  0  0
  -27.3994  -29.7251   25.4677 H   0  0  0  0  0  0
  -27.8769  -30.4346   23.9413 H   0  0  0  0  0  0
  -27.2540  -33.3610   26.2118 H   0  0  0  0  0  0
  -28.3752  -32.6988   25.0288 H   0  0  0  0  0  0
  -28.0710  -31.8458   26.5364 H   0  0  0  0  0  0
  -28.2529  -38.0156   24.7590 H   0  0  0  0  0  0
  -28.1185  -36.2695   24.6131 H   0  0  0  0  0  0
  -27.2346  -37.1251   25.8845 H   0  0  0  0  0  0
  -20.9328  -29.8756   21.6879 H   0  0  0  0  0  0
  -26.0163  -38.2822   24.1496 H   0  0  0  0  0  0
  -31.4738  -21.0643   20.5801 H   0  0  0  0  0  0
  -28.2722  -18.1762   20.1406 H   0  0  0  0  0  0
  -32.9497  -19.1760   21.1179 H   0  0  0  0  0  0
  -27.7313  -20.7911   20.0542 H   0  0  0  0  0  0
  -28.8808  -21.1674   18.8073 H   0  0  0  0  0  0
  -29.4215  -23.9623   19.0798 H   0  0  0  0  0  0
  -27.7392  -23.5369   19.1363 H   0  0  0  0  0  0
  -29.0575  -25.0794   21.4379 H   0  0  0  0  0  0
  -27.3614  -24.9251   21.1703 H   0  0  0  0  0  0
  -28.8720  -15.7315   20.7486 H   0  0  0  0  0  0
  -29.9845  -22.4901   20.7229 H   0  0  0  0  0  0
  -28.5250  -22.4067   21.4013 H   0  0  0  0  0  0
  1 25  1  0  0  0
  1 30  2  0  0  0
  1 80  1  0  0  0
  2  3  1  0  0  0
  2 25  1  0  0  0
  2 82  1  0  0  0
  2 83  1  0  0  0
  3  4  1  0  0  0
  3 84  1  0  0  0
  3 85  1  0  0  0
  4  5  1  0  0  0
  4 86  1  0  0  0
  4 87  1  0  0  0
  5  6  1  0  0  0
  5 26  1  0  0  0
  5 88  1  0  0  0
  6 25  1  0  0  0
  6 89  1  0  0  0
  6 90  1  0  0  0
  7  8  2  0  0  0
  7 26  1  0  0  0
  7 29  1  0  0  0
  8  9  1  0  0  0
  8 22  1  0  0  0
  9 10  1  0  0  0
  9 27  2  0  0  0
 10 11  2  0  0  0
 10 15  1  0  0  0
 11 12  1  0  0  0
 11 91  1  0  0  0
 12 13  2  0  0  0
 12 92  1  0  0  0
 13 14  1  0  0  0
 13 31  1  0  0  0
 14 15  2  0  0  0
 14 93  1  0  0  0
 15 94  1  0  0  0
 16 17  2  0  0  0
 16 21  1  0  0  0
 16 31  1  0  0  0
 17 18  1  0  0  0
 17 95  1  0  0  0
 18 19  2  0  0  0
 18 96  1  0  0  0
 19 20  1  0  0  0
 19 24  1  0  0  0
 20 21  2  0  0  0
 20 97  1  0  0  0
 21 23  1  0  0  0
 22 28  1  0  0  0
 22 32  2  0  0  0
 26 27  1  0  0  0
 28 98  1  0  0  0
 28 99  1  0  0  0
 29100  1  0  0  0
 29101  1  0  0  0
 33 34  1  0  0  0
 33 66  1  0  0  0
 33 70  2  0  0  0
 34 36  1  0  0  0
 34 59  1  0  0  0
 34102  1  0  0  0
 35 44  2  0  0  0
 35 45  1  0  0  0
 35 68  1  0  0  0
 36 56  1  0  0  0
 36103  1  0  0  0
 37 39  1  0  0  0
 37 47  1  0  0  0
 37 66  1  0  0  0
 37104  1  0  0  0
 38 43  2  0  0  0
 38 46  1  0  0  0
 38 47  1  0  0  0
 39 64  1  0  0  0
 39 67  2  0  0  0
 40 52  1  0  0  0
 40 53  2  0  0  0
 40 58  1  0  0  0
 41105  1  0  0  0
 41106  1  0  0  0
 41107  1  0  0  0
 41 48  1  0  0  0
 42 43  1  0  0  0
 42 66  1  0  0  0
 42108  1  0  0  0
 42109  1  0  0  0
 43 44  1  0  0  0
 44110  1  0  0  0
 45 46  2  0  0  0
 45111  1  0  0  0
 46112  1  0  0  0
 47113  1  0  0  0
 47114  1  0  0  0
 48 56  1  0  0  0
 48 65  1  0  0  0
 48115  1  0  0  0
 49 50  1  0  0  0
 49 53  1  0  0  0
 49 64  1  0  0  0
 49116  1  0  0  0
 50 51  1  0  0  0
 50117  1  0  0  0
 50118  1  0  0  0
 51 52  1  0  0  0
 51119  1  0  0  0
 51120  1  0  0  0
 52121  1  0  0  0
 52122  1  0  0  0
 53 54  1  0  0  0
 54 55  2  0  0  0
 54123  1  0  0  0
 55 57  1  0  0  0
 55124  1  0  0  0
 56 69  2  0  0  0
 57 58  2  0  0  0
 57125  1  0  0  0
 58126  1  0  0  0
 59 60  1  0  0  0
 59 61  1  0  0  0
 59 62  1  0  0  0
 60127  1  0  0  0
 60128  1  0  0  0
 60129  1  0  0  0
 61130  1  0  0  0
 61131  1  0  0  0
 61132  1  0  0  0
 62133  1  0  0  0
 62134  1  0  0  0
 62135  1  0  0  0
 63 65  1  0  0  0
 63136  1  0  0  0
 63137  1  0  0  0
 63138  1  0  0  0
 64139  1  0  0  0
 65140  1  0  0  0
 68 78  1  0  0  0
 71 73  2  0  0  0
 71 74  1  0  0  0
 71141  1  0  0  0
 72 74  2  0  0  0
 72 75  1  0  0  0
 72142  1  0  0  0
 73 79  1  0  0  0
 73143  1  0  0  0
 74 76  1  0  0  0
 75 79  2  0  0  0
 75 80  1  0  0  0
 76 81  1  0  0  0
 76144  1  0  0  0
 76145  1  0  0  0
 77 78  1  0  0  0
 77 81  1  0  0  0
 77146  1  0  0  0
 77147  1  0  0  0
 78148  1  0  0  0
 78149  1  0  0  0
 80150  1  0  0  0
 81151  1  0  0  0
 81152  1  0  0  0
M  CHG  1  81   1
M  ISO  4   1 100  68 101  78 101  80 100
M  END
> <chiral flag>
0

> <version>
0

> <s_m_source_file>
/data/baiqing/PycharmProjects/Reinvent-master-3.2/result/LINK_invent/BTK/process_docking_weight1_custom_sum_contain_oxygen_bond_distance_aromatic_linkinvent_7_9_3/rearranged_h_0137.sdf

> <i_m_source_file_index>
24

> <r_mmod_Potential_Energy-OPLS-2005>
-216.304702758789

> <r_mmod_Stretch_Energy-OPLS-2005>
116.939094543457

> <r_mmod_Bend_Energy-OPLS-2005>
162.191635131836

> <r_mmod_Torsional_Energy-OPLS-2005>
228.477569580078

> <r_mmod_Improper_Torsional_Energy-OPLS-2005>
5.93997001647949

> <r_mmod_Van_der_Waal_Energy-OPLS-2005>
135.757415771484

> <r_mmod_Electrostatic_Energy-OPLS-2005>
-420.095764160156

> <r_mmod_Solvation_Energy-OPLS-2005>
-520.723022460938

> <b_mmod_Minimization_Converged-OPLS-2005>
0

> <r_mmod_RMS_Derivative-OPLS-2005>
4.12698650360107

$$$$
24
                    3D
 Structure written by MMmdl.
153162  0  0  1  0            999 V2000
  -30.4759  -15.1843   20.3847 C   0  0  0  0  0  0
  -30.4337  -12.7539   19.5138 C   0  0  0  0  0  0
  -29.5270  -12.5614   18.2740 C   0  0  0  0  0  0
  -28.0716  -12.3025   18.7022 C   0  0  0  0  0  0
  -27.6125  -13.2700   19.8227 C   0  0  2  0  0  0
  -28.6498  -13.4156   20.9558 C   0  0  0  0  0  0
  -25.2396  -13.8241   20.5750 C   0  0  0  0  0  0
  -24.1746  -13.0434   20.9262 C   0  0  0  0  0  0
  -24.6398  -11.6932   20.8767 C   0  0  0  0  0  0
  -23.9095  -10.4294   21.0410 C   0  0  0  0  0  0
  -24.3638   -9.4206   21.9192 C   0  0  0  0  0  0
  -23.6308   -8.2241   22.0756 C   0  0  0  0  0  0
  -22.4288   -8.0286   21.3545 C   0  0  0  0  0  0
  -21.9931   -9.0260   20.4645 C   0  0  0  0  0  0
  -22.7266  -10.2136   20.3058 C   0  0  0  0  0  0
  -21.6857   -6.0745   22.5284 C   0  0  0  0  0  0
  -21.4014   -6.5647   23.8218 C   0  0  0  0  0  0
  -21.3656   -5.6797   24.9179 C   0  0  0  0  0  0
  -21.6039   -4.3058   24.7225 C   0  0  0  0  0  0
  -21.8819   -3.8155   23.4346 C   0  0  0  0  0  0
  -21.9192   -4.6972   22.3404 C   0  0  0  0  0  0
  -22.7765  -13.5187   21.1906 C   0  0  0  0  0  0
  -22.1664   -4.2159   21.0981 F   0  0  0  0  0  0
  -21.5621   -3.4541   25.7734 F   0  0  0  0  0  0
  -29.8899  -13.8959   20.3292 N   0  0  0  0  0  0
  -26.2817  -12.9510   20.3220 N   0  0  0  0  0  0
  -25.9332  -11.6617   20.5727 N   0  0  0  0  0  0
  -22.0426  -12.8163   22.0454 N   0  0  0  0  0  0
  -25.4029  -15.1977   20.4186 N   0  0  0  0  0  0
  -31.6970  -15.1777   20.1786 O   0  0  0  0  0  0
  -21.6644   -6.8889   21.4245 O   0  0  0  0  0  0
  -22.3445  -14.5489   20.6748 O   0  0  0  0  0  0
  -24.6591  -31.8290   23.1751 C   0  0  0  0  0  0
  -25.9295  -32.4612   23.8192 C   0  0  1  0  0  0
  -27.2084  -26.9708   20.1764 C   0  0  0  0  0  0
  -25.5990  -33.8427   24.2100 N   0  0  0  0  0  0
  -23.4708  -30.4451   21.5233 C   0  0  2  0  0  0
  -24.9221  -28.8463   20.1098 C   0  0  0  0  0  0
  -22.7642  -29.4477   22.4784 C   0  0  0  0  0  0
  -18.0320  -28.1409   22.8481 C   0  0  0  0  0  0
  -24.1493  -36.7209   23.2644 C   0  0  0  0  0  0
  -26.0391  -30.6497   21.4000 C   0  0  0  0  0  0
  -26.1063  -29.2454   20.7426 C   0  0  0  0  0  0
  -27.2469  -28.3284   20.7536 C   0  0  0  0  0  0
  -25.9960  -26.7208   19.4923 C   0  0  0  0  0  0
  -24.8902  -27.6028   19.4652 C   0  0  0  0  0  0
  -23.7076  -29.7693   20.1463 C   0  0  0  0  0  0
  -25.4131  -36.2979   24.0305 C   0  0  1  0  0  0
  -20.5946  -28.3754   23.1192 C   0  0  2  0  0  0
  -20.6801  -26.9437   22.5400 C   0  0  0  0  0  0
  -19.5774  -26.6388   21.5211 C   0  0  0  0  0  0
  -18.1956  -26.7951   22.1622 C   0  0  0  0  0  0
  -19.1583  -28.8900   23.2829 C   0  0  0  0  0  0
  -18.9493  -30.1490   23.8865 C   0  0  0  0  0  0
  -17.6489  -30.6602   24.0556 C   0  0  0  0  0  0
  -25.9099  -34.9365   23.5018 C   0  0  0  0  0  0
  -16.5378  -29.9092   23.6345 C   0  0  0  0  0  0
  -16.7301  -28.6507   23.0375 C   0  0  0  0  0  0
  -26.4564  -31.6537   25.0697 C   0  0  0  0  0  0
  -25.3702  -31.3782   26.1359 C   0  0  0  0  0  0
  -27.0453  -30.2911   24.6403 C   0  0  0  0  0  0
  -27.6062  -32.4342   25.7497 C   0  0  0  0  0  0
  -27.5571  -37.1756   24.8459 C   0  0  0  0  0  0
  -21.4314  -29.3055   22.3541 N   0  0  0  0  0  0
  -26.4271  -37.3719   23.9421 N   0  0  0  0  0  0
  -24.7440  -31.0001   22.0863 N   0  0  0  0  0  0
  -23.4212  -28.8035   23.2995 O   0  0  0  0  0  0
  -28.1934  -25.8622   20.2566 O   0  0  0  0  0  0
  -26.5688  -34.8898   22.4602 O   0  0  0  0  0  0
  -23.5668  -32.1236   23.6873 O   0  0  0  0  0  0
  -28.8692  -20.2825   19.2718 C   0  0  0  0  0  0
  -28.4647  -21.7079   19.1821 C   0  0  0  0  0  0
  -29.0648  -22.0518   21.3759 C   0  0  0  0  0  0
  -29.4135  -19.6008   20.4321 C   0  0  0  0  0  0
  -28.5356  -22.7422   20.2110 C   0  0  0  0  0  0
  -29.4826  -20.6261   21.4782 C   0  0  0  0  0  0
  -31.0882  -18.1800   21.7874 C   0  0  0  0  0  0
  -30.3527  -18.8420   22.9651 C   0  0  0  0  0  0
  -30.1813  -18.0452   20.5461 C   0  0  1  0  0  0
  -27.7800  -24.3004   20.0782 C   0  0  0  0  0  0
  -30.0350  -20.2457   22.7094 N   0  0  0  0  0  0
  -29.7388  -16.4562   20.4790 N   0  0  0  0  0  0
  -31.4575  -12.9410   19.1875 H   0  0  0  0  0  0
  -30.4785  -11.8391   20.1066 H   0  0  0  0  0  0
  -29.8897  -11.7363   17.6595 H   0  0  0  0  0  0
  -29.5711  -13.4535   17.6477 H   0  0  0  0  0  0
  -28.0126  -11.2741   19.0602 H   0  0  0  0  0  0
  -27.4024  -12.3654   17.8431 H   0  0  0  0  0  0
  -27.5362  -14.2442   19.3382 H   0  0  0  0  0  0
  -28.8007  -12.4737   21.4852 H   0  0  0  0  0  0
  -28.3063  -14.1403   21.6961 H   0  0  0  0  0  0
  -25.2781   -9.5676   22.4772 H   0  0  0  0  0  0
  -24.0012   -7.4627   22.7474 H   0  0  0  0  0  0
  -21.0864   -8.8785   19.8948 H   0  0  0  0  0  0
  -22.3733  -10.9677   19.6165 H   0  0  0  0  0  0
  -21.2016   -7.6157   23.9724 H   0  0  0  0  0  0
  -21.1470   -6.0527   25.9079 H   0  0  0  0  0  0
  -22.0599   -2.7619   23.2843 H   0  0  0  0  0  0
  -22.4062  -11.9829   22.4830 H   0  0  0  0  0  0
  -21.1037  -13.1161   22.2659 H   0  0  0  0  0  0
  -24.6306  -15.8452   20.5322 H   0  0  0  0  0  0
  -26.2409  -15.6411   20.0669 H   0  0  0  0  0  0
  -26.7360  -32.5163   23.0900 H   0  0  0  0  0  0
  -25.0127  -33.9514   25.0246 H   0  0  0  0  0  0
  -22.7823  -31.2764   21.3582 H   0  0  0  0  0  0
  -23.3772  -35.9519   23.3270 H   0  0  0  0  0  0
  -24.3579  -36.8878   22.2064 H   0  0  0  0  0  0
  -23.7229  -37.6384   23.6713 H   0  0  0  0  0  0
  -26.2181  -31.3951   20.6241 H   0  0  0  0  0  0
  -26.8997  -30.7016   22.0545 H   0  0  0  0  0  0
  -28.1413  -28.6313   21.2800 H   0  0  0  0  0  0
  -25.8521  -25.7767   18.9908 H   0  0  0  0  0  0
  -23.9910  -27.2916   18.9513 H   0  0  0  0  0  0
  -23.8607  -30.5415   19.3915 H   0  0  0  0  0  0
  -22.8177  -29.2239   19.8271 H   0  0  0  0  0  0
  -25.1324  -36.1769   25.0793 H   0  0  0  0  0  0
  -21.0046  -28.3358   24.1309 H   0  0  0  0  0  0
  -20.5686  -26.2368   23.3638 H   0  0  0  0  0  0
  -21.6664  -26.7421   22.1200 H   0  0  0  0  0  0
  -19.6929  -25.6284   21.1271 H   0  0  0  0  0  0
  -19.6712  -27.3173   20.6722 H   0  0  0  0  0  0
  -17.4225  -26.6700   21.4024 H   0  0  0  0  0  0
  -18.0342  -26.0098   22.9021 H   0  0  0  0  0  0
  -19.7967  -30.7316   24.2222 H   0  0  0  0  0  0
  -17.5039  -31.6279   24.5161 H   0  0  0  0  0  0
  -15.5378  -30.2983   23.7691 H   0  0  0  0  0  0
  -15.8701  -28.0806   22.7122 H   0  0  0  0  0  0
  -24.5915  -30.7089   25.7681 H   0  0  0  0  0  0
  -24.8851  -32.2978   26.4643 H   0  0  0  0  0  0
  -25.7954  -30.9057   27.0221 H   0  0  0  0  0  0
  -26.3105  -29.6606   24.1389 H   0  0  0  0  0  0
  -27.3971  -29.7255   25.5038 H   0  0  0  0  0  0
  -27.9057  -30.4100   23.9820 H   0  0  0  0  0  0
  -27.2635  -33.3694   26.1938 H   0  0  0  0  0  0
  -28.3951  -32.6817   25.0382 H   0  0  0  0  0  0
  -28.0645  -31.8552   26.5521 H   0  0  0  0  0  0
  -28.2546  -38.0095   24.7554 H   0  0  0  0  0  0
  -28.1112  -36.2625   24.6224 H   0  0  0  0  0  0
  -27.2300  -37.1314   25.8863 H   0  0  0  0  0  0
  -20.9543  -29.8751   21.6693 H   0  0  0  0  0  0
  -26.0113  -38.2766   24.1466 H   0  0  0  0  0  0
  -28.7738  -19.6941   18.3703 H   0  0  0  0  0  0
  -28.0443  -22.0156   18.2347 H   0  0  0  0  0  0
  -29.1444  -22.6553   22.2688 H   0  0  0  0  0  0
  -31.4974  -17.2188   22.1002 H   0  0  0  0  0  0
  -31.9575  -18.7895   21.5340 H   0  0  0  0  0  0
  -30.9753  -18.7887   23.8593 H   0  0  0  0  0  0
  -29.4370  -18.2935   23.1925 H   0  0  0  0  0  0
  -30.8527  -18.0826   19.6873 H   0  0  0  0  0  0
  -26.9016  -24.1957   20.7163 H   0  0  0  0  0  0
  -27.3863  -24.2614   19.0636 H   0  0  0  0  0  0
  -29.9822  -20.8823   23.5028 H   0  0  0  0  0  0
  -28.7418  -16.3222   20.5560 H   0  0  0  0  0  0
  1 25  1  0  0  0
  1 30  2  0  0  0
  1 82  1  0  0  0
  2  3  1  0  0  0
  2 25  1  0  0  0
  2 83  1  0  0  0
  2 84  1  0  0  0
  3  4  1  0  0  0
  3 85  1  0  0  0
  3 86  1  0  0  0
  4  5  1  0  0  0
  4 87  1  0  0  0
  4 88  1  0  0  0
  5  6  1  0  0  0
  5 26  1  0  0  0
  5 89  1  0  0  0
  6 25  1  0  0  0
  6 90  1  0  0  0
  6 91  1  0  0  0
  7  8  2  0  0  0
  7 26  1  0  0  0
  7 29  1  0  0  0
  8  9  1  0  0  0
  8 22  1  0  0  0
  9 10  1  0  0  0
  9 27  2  0  0  0
 10 11  2  0  0  0
 10 15  1  0  0  0
 11 12  1  0  0  0
 11 92  1  0  0  0
 12 13  2  0  0  0
 12 93  1  0  0  0
 13 14  1  0  0  0
 13 31  1  0  0  0
 14 15  2  0  0  0
 14 94  1  0  0  0
 15 95  1  0  0  0
 16 17  2  0  0  0
 16 21  1  0  0  0
 16 31  1  0  0  0
 17 18  1  0  0  0
 17 96  1  0  0  0
 18 19  2  0  0  0
 18 97  1  0  0  0
 19 20  1  0  0  0
 19 24  1  0  0  0
 20 21  2  0  0  0
 20 98  1  0  0  0
 21 23  1  0  0  0
 22 28  1  0  0  0
 22 32  2  0  0  0
 26 27  1  0  0  0
 28 99  1  0  0  0
 28100  1  0  0  0
 29101  1  0  0  0
 29102  1  0  0  0
 33 34  1  0  0  0
 33 66  1  0  0  0
 33 70  2  0  0  0
 34 36  1  0  0  0
 34 59  1  0  0  0
 34103  1  0  0  0
 35 44  2  0  0  0
 35 45  1  0  0  0
 35 68  1  0  0  0
 36 56  1  0  0  0
 36104  1  0  0  0
 37 39  1  0  0  0
 37 47  1  0  0  0
 37 66  1  0  0  0
 37105  1  0  0  0
 38 43  2  0  0  0
 38 46  1  0  0  0
 38 47  1  0  0  0
 39 64  1  0  0  0
 39 67  2  0  0  0
 40 52  1  0  0  0
 40 53  2  0  0  0
 40 58  1  0  0  0
 41106  1  0  0  0
 41107  1  0  0  0
 41108  1  0  0  0
 41 48  1  0  0  0
 42 43  1  0  0  0
 42 66  1  0  0  0
 42109  1  0  0  0
 42110  1  0  0  0
 43 44  1  0  0  0
 44111  1  0  0  0
 45 46  2  0  0  0
 45112  1  0  0  0
 46113  1  0  0  0
 47114  1  0  0  0
 47115  1  0  0  0
 48 56  1  0  0  0
 48 65  1  0  0  0
 48116  1  0  0  0
 49 50  1  0  0  0
 49 53  1  0  0  0
 49 64  1  0  0  0
 49117  1  0  0  0
 50 51  1  0  0  0
 50118  1  0  0  0
 50119  1  0  0  0
 51 52  1  0  0  0
 51120  1  0  0  0
 51121  1  0  0  0
 52122  1  0  0  0
 52123  1  0  0  0
 53 54  1  0  0  0
 54 55  2  0  0  0
 54124  1  0  0  0
 55 57  1  0  0  0
 55125  1  0  0  0
 56 69  2  0  0  0
 57 58  2  0  0  0
 57126  1  0  0  0
 58127  1  0  0  0
 59 60  1  0  0  0
 59 61  1  0  0  0
 59 62  1  0  0  0
 60128  1  0  0  0
 60129  1  0  0  0
 60130  1  0  0  0
 61131  1  0  0  0
 61132  1  0  0  0
 61133  1  0  0  0
 62134  1  0  0  0
 62135  1  0  0  0
 62136  1  0  0  0
 63 65  1  0  0  0
 63137  1  0  0  0
 63138  1  0  0  0
 63139  1  0  0  0
 64140  1  0  0  0
 65141  1  0  0  0
 68 80  1  0  0  0
 71 72  2  0  0  0
 71 74  1  0  0  0
 71142  1  0  0  0
 72 75  1  0  0  0
 72143  1  0  0  0
 73 75  2  0  0  0
 73 76  1  0  0  0
 73144  1  0  0  0
 74 76  2  0  0  0
 74 79  1  0  0  0
 75 80  1  0  0  0
 76 81  1  0  0  0
 77 78  1  0  0  0
 77 79  1  0  0  0
 77145  1  0  0  0
 77146  1  0  0  0
 78 81  1  0  0  0
 78147  1  0  0  0
 78148  1  0  0  0
 79 82  1  0  0  0
 79149  1  0  0  0
 80150  1  0  0  0
 80151  1  0  0  0
 81152  1  0  0  0
 82153  1  0  0  0
M  ISO  4   1 100  68 101  80 101  82 100
M  END
> <chiral flag>
0

> <version>
0

> <s_m_source_file>
/data/baiqing/PycharmProjects/Reinvent-master-3.2/result/LINK_invent/BTK/process_docking_weight1_custom_sum_contain_oxygen_bond_distance_aromatic_linkinvent_7_9_3/rearranged_h_0137.sdf

> <i_m_source_file_index>
25

> <r_mmod_Potential_Energy-OPLS-2005>
1029.95263671875

> <r_mmod_Stretch_Energy-OPLS-2005>
452.661346435547

> <r_mmod_Bend_Energy-OPLS-2005>
425.648712158203

> <r_mmod_Torsional_Energy-OPLS-2005>
222.376678466797

> <r_mmod_Improper_Torsional_Energy-OPLS-2005>
9.40569400787354

> <r_mmod_Van_der_Waal_Energy-OPLS-2005>
141.28515625

> <r_mmod_Electrostatic_Energy-OPLS-2005>
-381.048736572266

> <r_mmod_Solvation_Energy-OPLS-2005>
-230.007125854492

> <b_mmod_Minimization_Converged-OPLS-2005>
0

> <r_mmod_RMS_Derivative-OPLS-2005>
1.05622982978821

$$$$
25
                    3D
 Structure written by MMmdl.
159168  0  0  1  0            999 V2000
  -30.4920  -15.0413   20.3906 C   0  0  0  0  0  0
  -30.4359  -12.6503   19.4976 C   0  0  0  0  0  0
  -29.5198  -12.5363   18.2577 C   0  0  0  0  0  0
  -28.0561  -12.3108   18.6788 C   0  0  0  0  0  0
  -27.6188  -13.2550   19.8288 C   0  0  2  0  0  0
  -28.6589  -13.3209   20.9653 C   0  0  0  0  0  0
  -25.2409  -13.8231   20.5698 C   0  0  0  0  0  0
  -24.1735  -13.0438   20.9227 C   0  0  0  0  0  0
  -24.6366  -11.6932   20.8742 C   0  0  0  0  0  0
  -23.9059  -10.4290   21.0399 C   0  0  0  0  0  0
  -24.3615   -9.4214   21.9181 C   0  0  0  0  0  0
  -23.6294   -8.2243   22.0763 C   0  0  0  0  0  0
  -22.4276   -8.0265   21.3553 C   0  0  0  0  0  0
  -21.9902   -9.0235   20.4655 C   0  0  0  0  0  0
  -22.7225  -10.2119   20.3058 C   0  0  0  0  0  0
  -21.6851   -6.0710   22.5274 C   0  0  0  0  0  0
  -21.4016   -6.5622   23.8204 C   0  0  0  0  0  0
  -21.3665   -5.6785   24.9173 C   0  0  0  0  0  0
  -21.6051   -4.3046   24.7237 C   0  0  0  0  0  0
  -21.8827   -3.8126   23.4358 C   0  0  0  0  0  0
  -21.9202   -4.6938   22.3409 C   0  0  0  0  0  0
  -22.7765  -13.5195   21.1909 C   0  0  0  0  0  0
  -22.1672   -4.2119   21.0989 F   0  0  0  0  0  0
  -21.5634   -3.4538   25.7751 F   0  0  0  0  0  0
  -29.9179  -13.7631   20.3528 N   0  0  0  0  0  0
  -26.2821  -12.9467   20.3199 N   0  0  0  0  0  0
  -25.9291  -11.6587   20.5694 N   0  0  0  0  0  0
  -22.0439  -12.8144   22.0466 N   0  0  0  0  0  0
  -25.4069  -15.1962   20.4136 N   0  0  0  0  0  0
  -31.7061  -15.0915   20.1589 O   0  0  0  0  0  0
  -21.6657   -6.8849   21.4231 O   0  0  0  0  0  0
  -22.3428  -14.5496   20.6773 O   0  0  0  0  0  0
  -24.6492  -31.8355   23.1803 C   0  0  0  0  0  0
  -25.9218  -32.4657   23.8228 C   0  0  1  0  0  0
  -27.2251  -27.0639   20.1842 C   0  0  0  0  0  0
  -25.5942  -33.8465   24.2145 N   0  0  0  0  0  0
  -23.4584  -30.4468   21.5265 C   0  0  2  0  0  0
  -24.9106  -28.8501   20.1204 C   0  0  0  0  0  0
  -22.7611  -29.4476   22.4844 C   0  0  0  0  0  0
  -18.0308  -28.1369   22.8473 C   0  0  0  0  0  0
  -24.1489  -36.7248   23.2647 C   0  0  0  0  0  0
  -26.0161  -30.6885   21.3868 C   0  0  0  0  0  0
  -26.0887  -29.2878   20.7381 C   0  0  0  0  0  0
  -27.2473  -28.4138   20.7421 C   0  0  0  0  0  0
  -26.0185  -26.7337   19.5348 C   0  0  0  0  0  0
  -24.8905  -27.5889   19.5008 C   0  0  0  0  0  0
  -23.6915  -29.7624   20.1523 C   0  0  0  0  0  0
  -25.4125  -36.3018   24.0316 C   0  0  1  0  0  0
  -20.5926  -28.3698   23.1225 C   0  0  2  0  0  0
  -20.6778  -26.9392   22.5403 C   0  0  0  0  0  0
  -19.5751  -26.6356   21.5205 C   0  0  0  0  0  0
  -18.1936  -26.7909   22.1619 C   0  0  0  0  0  0
  -19.1563  -28.8853   23.2843 C   0  0  0  0  0  0
  -18.9477  -30.1453   23.8866 C   0  0  0  0  0  0
  -17.6466  -30.6571   24.0543 C   0  0  0  0  0  0
  -25.9077  -34.9388   23.5050 C   0  0  0  0  0  0
  -16.5361  -29.9054   23.6327 C   0  0  0  0  0  0
  -16.7291  -28.6472   23.0361 C   0  0  0  0  0  0
  -26.4522  -31.6552   25.0704 C   0  0  0  0  0  0
  -25.3700  -31.3739   26.1404 C   0  0  0  0  0  0
  -27.0397  -30.2946   24.6317 C   0  0  0  0  0  0
  -27.6050  -32.4320   25.7500 C   0  0  0  0  0  0
  -27.5573  -37.1780   24.8466 C   0  0  0  0  0  0
  -21.4291  -29.3026   22.3607 N   0  0  0  0  0  0
  -26.4280  -37.3738   23.9410 N   0  0  0  0  0  0
  -24.7283  -31.0145   22.0866 N   0  0  0  0  0  0
  -23.4229  -28.8037   23.3027 O   0  0  0  0  0  0
  -28.2948  -26.0761   20.2043 O   0  0  0  0  0  0
  -26.5676  -34.8892   22.4640 O   0  0  0  0  0  0
  -23.5591  -32.1248   23.6975 O   0  0  0  0  0  0
  -29.2213  -23.4820   16.9822 C   0  0  0  0  0  0
  -29.7734  -22.2100   17.0003 C   0  0  0  0  0  0
  -28.7698  -24.0322   18.1758 C   0  0  0  0  0  0
  -29.8374  -21.4443   18.1792 C   0  0  0  0  0  0
  -28.7483  -23.3501   19.4154 C   0  0  0  0  0  0
  -29.1977  -21.8562   19.4089 C   0  0  0  0  0  0
  -32.0632  -20.1003   18.6898 C   0  0  0  0  0  0
  -31.9790  -20.2376   17.1970 C   0  0  0  0  0  0
  -30.7004  -20.2079   18.0205 C   0  0  0  0  0  0
  -28.1575  -24.5031   20.4566 C   0  0  0  0  0  0
  -28.9381  -19.1406   20.1896 C   0  0  0  0  0  0
  -30.0325  -17.8195   20.4134 C   0  0  0  0  0  0
  -29.1832  -20.7146   20.3909 N   0  0  0  0  0  0
  -29.7017  -16.2441   20.4823 N   0  0  0  0  0  0
  -31.4640  -12.8280   19.1796 H   0  0  0  0  0  0
  -30.4540  -11.7096   20.0496 H   0  0  0  0  0  0
  -29.8497  -11.7228   17.6101 H   0  0  0  0  0  0
  -29.5951  -13.4491   17.6652 H   0  0  0  0  0  0
  -27.9608  -11.2721   19.0003 H   0  0  0  0  0  0
  -27.3935  -12.4245   17.8207 H   0  0  0  0  0  0
  -27.5677  -14.2487   19.3828 H   0  0  0  0  0  0
  -28.7706  -12.3528   21.4557 H   0  0  0  0  0  0
  -28.3437  -14.0277   21.7348 H   0  0  0  0  0  0
  -25.2766   -9.5695   22.4754 H   0  0  0  0  0  0
  -24.0017   -7.4632   22.7476 H   0  0  0  0  0  0
  -21.0838   -8.8734   19.8959 H   0  0  0  0  0  0
  -22.3667  -10.9652   19.6169 H   0  0  0  0  0  0
  -21.2001   -7.6132   23.9684 H   0  0  0  0  0  0
  -21.1485   -6.0529   25.9069 H   0  0  0  0  0  0
  -22.0604   -2.7587   23.2874 H   0  0  0  0  0  0
  -22.4081  -11.9791   22.4815 H   0  0  0  0  0  0
  -21.1067  -13.1151   22.2734 H   0  0  0  0  0  0
  -24.6401  -15.8507   20.5306 H   0  0  0  0  0  0
  -26.2437  -15.6328   20.0508 H   0  0  0  0  0  0
  -26.7288  -32.5254   23.0956 H   0  0  0  0  0  0
  -25.0045  -33.9559   25.0262 H   0  0  0  0  0  0
  -22.7650  -31.2743   21.3600 H   0  0  0  0  0  0
  -23.3756  -35.9575   23.3287 H   0  0  0  0  0  0
  -24.3569  -36.8912   22.2067 H   0  0  0  0  0  0
  -23.7230  -37.6430   23.6699 H   0  0  0  0  0  0
  -26.1728  -31.4328   20.6051 H   0  0  0  0  0  0
  -26.8878  -30.7507   22.0281 H   0  0  0  0  0  0
  -28.1501  -28.7497   21.2332 H   0  0  0  0  0  0
  -25.9354  -25.7666   19.0614 H   0  0  0  0  0  0
  -23.9917  -27.2458   19.0075 H   0  0  0  0  0  0
  -23.8410  -30.5288   19.3907 H   0  0  0  0  0  0
  -22.8060  -29.2063   19.8398 H   0  0  0  0  0  0
  -25.1310  -36.1843   25.0805 H   0  0  0  0  0  0
  -21.0005  -28.3271   24.1352 H   0  0  0  0  0  0
  -20.5613  -26.2322   23.3626 H   0  0  0  0  0  0
  -21.6645  -26.7349   22.1226 H   0  0  0  0  0  0
  -19.6900  -25.6258   21.1250 H   0  0  0  0  0  0
  -19.6678  -27.3158   20.6720 H   0  0  0  0  0  0
  -17.4198  -26.6648   21.4032 H   0  0  0  0  0  0
  -18.0335  -26.0056   22.9015 H   0  0  0  0  0  0
  -19.7956  -30.7279   24.2222 H   0  0  0  0  0  0
  -17.5018  -31.6252   24.5143 H   0  0  0  0  0  0
  -15.5358  -30.2940   23.7663 H   0  0  0  0  0  0
  -15.8699  -28.0776   22.7090 H   0  0  0  0  0  0
  -24.5895  -30.7071   25.7718 H   0  0  0  0  0  0
  -24.8872  -32.2917   26.4775 H   0  0  0  0  0  0
  -25.7995  -30.8949   27.0220 H   0  0  0  0  0  0
  -26.3022  -29.6661   24.1318 H   0  0  0  0  0  0
  -27.3987  -29.7260   25.4906 H   0  0  0  0  0  0
  -27.8940  -30.4174   23.9657 H   0  0  0  0  0  0
  -27.2645  -33.3645   26.2015 H   0  0  0  0  0  0
  -28.3903  -32.6840   25.0359 H   0  0  0  0  0  0
  -28.0675  -31.8485   26.5474 H   0  0  0  0  0  0
  -28.2577  -38.0087   24.7516 H   0  0  0  0  0  0
  -28.1076  -36.2616   24.6285 H   0  0  0  0  0  0
  -27.2294  -37.1432   25.8868 H   0  0  0  0  0  0
  -20.9510  -29.8783   21.6819 H   0  0  0  0  0  0
  -26.0147  -38.2806   24.1417 H   0  0  0  0  0  0
  -29.2041  -24.0639   16.0701 H   0  0  0  0  0  0
  -30.1924  -21.8318   16.0781 H   0  0  0  0  0  0
  -28.4146  -25.0505   18.1096 H   0  0  0  0  0  0
  -32.4377  -20.9599   19.2438 H   0  0  0  0  0  0
  -32.4315  -19.1365   19.0304 H   0  0  0  0  0  0
  -32.2255  -19.3513   16.6147 H   0  0  0  0  0  0
  -32.3306  -21.1790   16.7803 H   0  0  0  0  0  0
  -30.0975  -19.3216   17.8448 H   0  0  0  0  0  0
  -27.1042  -24.2789   20.6251 H   0  0  0  0  0  0
  -28.6399  -24.3107   21.4151 H   0  0  0  0  0  0
  -28.1209  -18.9365   20.8839 H   0  0  0  0  0  0
  -28.4598  -19.0166   19.2181 H   0  0  0  0  0  0
  -30.6030  -18.0260   21.3191 H   0  0  0  0  0  0
  -30.7594  -17.8800   19.6105 H   0  0  0  0  0  0
  -28.9168  -21.0103   21.3277 H   0  0  0  0  0  0
  -28.7218  -16.0448   20.6180 H   0  0  0  0  0  0
  1 25  1  0  0  0
  1 30  2  0  0  0
  1 84  1  0  0  0
  2  3  1  0  0  0
  2 25  1  0  0  0
  2 85  1  0  0  0
  2 86  1  0  0  0
  3  4  1  0  0  0
  3 87  1  0  0  0
  3 88  1  0  0  0
  4  5  1  0  0  0
  4 89  1  0  0  0
  4 90  1  0  0  0
  5  6  1  0  0  0
  5 26  1  0  0  0
  5 91  1  0  0  0
  6 25  1  0  0  0
  6 92  1  0  0  0
  6 93  1  0  0  0
  7  8  2  0  0  0
  7 26  1  0  0  0
  7 29  1  0  0  0
  8  9  1  0  0  0
  8 22  1  0  0  0
  9 10  1  0  0  0
  9 27  2  0  0  0
 10 11  2  0  0  0
 10 15  1  0  0  0
 11 12  1  0  0  0
 11 94  1  0  0  0
 12 13  2  0  0  0
 12 95  1  0  0  0
 13 14  1  0  0  0
 13 31  1  0  0  0
 14 15  2  0  0  0
 14 96  1  0  0  0
 15 97  1  0  0  0
 16 17  2  0  0  0
 16 21  1  0  0  0
 16 31  1  0  0  0
 17 18  1  0  0  0
 17 98  1  0  0  0
 18 19  2  0  0  0
 18 99  1  0  0  0
 19 20  1  0  0  0
 19 24  1  0  0  0
 20 21  2  0  0  0
 20100  1  0  0  0
 21 23  1  0  0  0
 22 28  1  0  0  0
 22 32  2  0  0  0
 26 27  1  0  0  0
 28101  1  0  0  0
 28102  1  0  0  0
 29103  1  0  0  0
 29104  1  0  0  0
 33 34  1  0  0  0
 33 66  1  0  0  0
 33 70  2  0  0  0
 34 36  1  0  0  0
 34 59  1  0  0  0
 34105  1  0  0  0
 35 44  2  0  0  0
 35 45  1  0  0  0
 35 68  1  0  0  0
 36 56  1  0  0  0
 36106  1  0  0  0
 37 39  1  0  0  0
 37 47  1  0  0  0
 37 66  1  0  0  0
 37107  1  0  0  0
 38 43  2  0  0  0
 38 46  1  0  0  0
 38 47  1  0  0  0
 39 64  1  0  0  0
 39 67  2  0  0  0
 40 52  1  0  0  0
 40 53  2  0  0  0
 40 58  1  0  0  0
 41108  1  0  0  0
 41109  1  0  0  0
 41110  1  0  0  0
 41 48  1  0  0  0
 42 43  1  0  0  0
 42 66  1  0  0  0
 42111  1  0  0  0
 42112  1  0  0  0
 43 44  1  0  0  0
 44113  1  0  0  0
 45 46  2  0  0  0
 45114  1  0  0  0
 46115  1  0  0  0
 47116  1  0  0  0
 47117  1  0  0  0
 48 56  1  0  0  0
 48 65  1  0  0  0
 48118  1  0  0  0
 49 50  1  0  0  0
 49 53  1  0  0  0
 49 64  1  0  0  0
 49119  1  0  0  0
 50 51  1  0  0  0
 50120  1  0  0  0
 50121  1  0  0  0
 51 52  1  0  0  0
 51122  1  0  0  0
 51123  1  0  0  0
 52124  1  0  0  0
 52125  1  0  0  0
 53 54  1  0  0  0
 54 55  2  0  0  0
 54126  1  0  0  0
 55 57  1  0  0  0
 55127  1  0  0  0
 56 69  2  0  0  0
 57 58  2  0  0  0
 57128  1  0  0  0
 58129  1  0  0  0
 59 60  1  0  0  0
 59 61  1  0  0  0
 59 62  1  0  0  0
 60130  1  0  0  0
 60131  1  0  0  0
 60132  1  0  0  0
 61133  1  0  0  0
 61134  1  0  0  0
 61135  1  0  0  0
 62136  1  0  0  0
 62137  1  0  0  0
 62138  1  0  0  0
 63 65  1  0  0  0
 63139  1  0  0  0
 63140  1  0  0  0
 63141  1  0  0  0
 64142  1  0  0  0
 65143  1  0  0  0
 68 80  1  0  0  0
 71 72  2  0  0  0
 71 73  1  0  0  0
 71144  1  0  0  0
 72 74  1  0  0  0
 72145  1  0  0  0
 73 75  2  0  0  0
 73146  1  0  0  0
 74 76  2  0  0  0
 74 79  1  0  0  0
 75 76  1  0  0  0
 75 80  1  0  0  0
 76 83  1  0  0  0
 77 78  1  0  0  0
 77 79  1  0  0  0
 77147  1  0  0  0
 77148  1  0  0  0
 78 79  1  0  0  0
 78149  1  0  0  0
 78150  1  0  0  0
 79151  1  0  0  0
 80152  1  0  0  0
 80153  1  0  0  0
 81 82  1  0  0  0
 81 83  1  0  0  0
 81154  1  0  0  0
 81155  1  0  0  0
 82 84  1  0  0  0
 82156  1  0  0  0
 82157  1  0  0  0
 83158  1  0  0  0
 84159  1  0  0  0
M  ISO  4   1 100  68 101  80 101  84 100
M  END
> <chiral flag>
0

> <version>
0

> <s_m_source_file>
/data/baiqing/PycharmProjects/Reinvent-master-3.2/result/LINK_invent/BTK/process_docking_weight1_custom_sum_contain_oxygen_bond_distance_aromatic_linkinvent_7_9_3/rearranged_h_0137.sdf

> <i_m_source_file_index>
26

> <r_mmod_Potential_Energy-OPLS-2005>
819.357238769531

> <r_mmod_Stretch_Energy-OPLS-2005>
379.680358886719

> <r_mmod_Bend_Energy-OPLS-2005>
383.201477050781

> <r_mmod_Torsional_Energy-OPLS-2005>
266.98974609375

> <r_mmod_Improper_Torsional_Energy-OPLS-2005>
6.22838401794434

> <r_mmod_Van_der_Waal_Energy-OPLS-2005>
139.311737060547

> <r_mmod_Electrostatic_Energy-OPLS-2005>
-388.558654785156

> <r_mmod_Solvation_Energy-OPLS-2005>
-226.655807495117

> <b_mmod_Minimization_Converged-OPLS-2005>
0

> <r_mmod_RMS_Derivative-OPLS-2005>
2.274334192276

$$$$
26
                    3D
 Structure written by MMmdl.
165174  0  0  1  0            999 V2000
  -30.6331  -14.9030   20.4319 C   0  0  0  0  0  0
  -30.4175  -12.5703   19.4861 C   0  0  0  0  0  0
  -29.5026  -12.5131   18.2456 C   0  0  0  0  0  0
  -28.0429  -12.2934   18.6771 C   0  0  0  0  0  0
  -27.6198  -13.2386   19.8306 C   0  0  2  0  0  0
  -28.6677  -13.3134   20.9624 C   0  0  0  0  0  0
  -25.2440  -13.8187   20.5731 C   0  0  0  0  0  0
  -24.1750  -13.0421   20.9245 C   0  0  0  0  0  0
  -24.6363  -11.6907   20.8786 C   0  0  0  0  0  0
  -23.9056  -10.4281   21.0425 C   0  0  0  0  0  0
  -24.3613   -9.4194   21.9197 C   0  0  0  0  0  0
  -23.6284   -8.2228   22.0761 C   0  0  0  0  0  0
  -22.4268   -8.0272   21.3545 C   0  0  0  0  0  0
  -21.9905   -9.0245   20.4649 C   0  0  0  0  0  0
  -22.7234  -10.2123   20.3065 C   0  0  0  0  0  0
  -21.6847   -6.0728   22.5277 C   0  0  0  0  0  0
  -21.4011   -6.5638   23.8209 C   0  0  0  0  0  0
  -21.3661   -5.6792   24.9172 C   0  0  0  0  0  0
  -21.6042   -4.3053   24.7225 C   0  0  0  0  0  0
  -21.8820   -3.8143   23.4347 C   0  0  0  0  0  0
  -21.9192   -4.6957   22.3401 C   0  0  0  0  0  0
  -22.7775  -13.5201   21.1891 C   0  0  0  0  0  0
  -22.1659   -4.2144   21.0978 F   0  0  0  0  0  0
  -21.5632   -3.4540   25.7737 F   0  0  0  0  0  0
  -29.9427  -13.6959   20.3432 N   0  0  0  0  0  0
  -26.2842  -12.9396   20.3270 N   0  0  0  0  0  0
  -25.9293  -11.6543   20.5789 N   0  0  0  0  0  0
  -22.0426  -12.8191   22.0445 N   0  0  0  0  0  0
  -25.4117  -15.1911   20.4148 N   0  0  0  0  0  0
  -31.8483  -14.8486   20.2144 O   0  0  0  0  0  0
  -21.6636   -6.8868   21.4236 O   0  0  0  0  0  0
  -22.3468  -14.5509   20.6736 O   0  0  0  0  0  0
  -24.6399  -31.8466   23.1917 C   0  0  0  0  0  0
  -25.9187  -32.4711   23.8291 C   0  0  1  0  0  0
  -27.2130  -27.1712   20.1516 C   0  0  0  0  0  0
  -25.5953  -33.8516   24.2217 N   0  0  0  0  0  0
  -23.4423  -30.4675   21.5359 C   0  0  2  0  0  0
  -24.8921  -28.9006   20.1111 C   0  0  0  0  0  0
  -22.7554  -29.4557   22.4869 C   0  0  0  0  0  0
  -18.0303  -28.1394   22.8480 C   0  0  0  0  0  0
  -24.1487  -36.7252   23.2643 C   0  0  0  0  0  0
  -25.9956  -30.7328   21.3850 C   0  0  0  0  0  0
  -26.0687  -29.3464   20.7286 C   0  0  0  0  0  0
  -27.2355  -28.4973   20.7323 C   0  0  0  0  0  0
  -26.0170  -26.8220   19.4900 C   0  0  0  0  0  0
  -24.8762  -27.6503   19.4760 C   0  0  0  0  0  0
  -23.6672  -29.7991   20.1543 C   0  0  0  0  0  0
  -25.4116  -36.3037   24.0326 C   0  0  1  0  0  0
  -20.5915  -28.3710   23.1244 C   0  0  2  0  0  0
  -20.6789  -26.9421   22.5394 C   0  0  0  0  0  0
  -19.5762  -26.6378   21.5206 C   0  0  0  0  0  0
  -18.1942  -26.7933   22.1617 C   0  0  0  0  0  0
  -19.1561  -28.8870   23.2855 C   0  0  0  0  0  0
  -18.9478  -30.1467   23.8876 C   0  0  0  0  0  0
  -17.6476  -30.6590   24.0559 C   0  0  0  0  0  0
  -25.9066  -34.9417   23.5074 C   0  0  0  0  0  0
  -16.5366  -29.9085   23.6338 C   0  0  0  0  0  0
  -16.7286  -28.6504   23.0354 C   0  0  0  0  0  0
  -26.4527  -31.6568   25.0717 C   0  0  0  0  0  0
  -25.3730  -31.3733   26.1427 C   0  0  0  0  0  0
  -27.0399  -30.2973   24.6269 C   0  0  0  0  0  0
  -27.6061  -32.4333   25.7498 C   0  0  0  0  0  0
  -27.5572  -37.1780   24.8470 C   0  0  0  0  0  0
  -21.4248  -29.3048   22.3624 N   0  0  0  0  0  0
  -26.4278  -37.3752   23.9422 N   0  0  0  0  0  0
  -24.7122  -31.0360   22.0933 N   0  0  0  0  0  0
  -23.4215  -28.8096   23.2997 O   0  0  0  0  0  0
  -28.2502  -26.1823   20.1762 O   0  0  0  0  0  0
  -26.5637  -34.8913   22.4643 O   0  0  0  0  0  0
  -23.5527  -32.1323   23.7162 O   0  0  0  0  0  0
  -29.5208  -21.6300   19.0807 C   0  0  0  0  0  0
  -29.2037  -23.0400   19.0842 C   0  0  0  0  0  0
  -29.1215  -21.0147   20.2440 C   0  0  0  0  0  0
  -28.5890  -23.4054   20.2556 C   0  0  0  0  0  0
  -28.6171  -18.3182   19.7810 C   0  0  0  0  0  0
  -30.6689  -18.8225   20.8605 C   0  0  0  0  0  0
  -28.7338  -16.7554   20.2006 C   0  0  0  0  0  0
  -30.7893  -17.3015   21.3646 C   0  0  0  0  0  0
  -29.2390  -19.4456   20.6987 C   0  0  0  0  0  0
  -28.5372  -21.8004   24.8203 C   0  0  0  0  0  0
  -27.9124  -24.7987   20.7582 C   0  0  0  0  0  0
  -28.0210  -21.9985   22.3206 C   0  0  0  0  0  0
  -29.1196  -21.9358   23.4086 C   0  0  1  0  0  0
  -28.5687  -22.1394   20.9744 N   0  0  0  0  0  0
  -30.0431  -16.1853   20.6718 N   0  0  0  0  0  0
  -29.9458  -23.0900   23.3882 O   0  0  0  0  0  0
  -31.4538  -12.6908   19.1674 H   0  0  0  0  0  0
  -30.3869  -11.6280   20.0361 H   0  0  0  0  0  0
  -29.8197  -11.7125   17.5763 H   0  0  0  0  0  0
  -29.5858  -13.4420   17.6785 H   0  0  0  0  0  0
  -27.9507  -11.2559   19.0009 H   0  0  0  0  0  0
  -27.3712  -12.4067   17.8257 H   0  0  0  0  0  0
  -27.5597  -14.2199   19.3708 H   0  0  0  0  0  0
  -28.7548  -12.3605   21.4863 H   0  0  0  0  0  0
  -28.3715  -14.0538   21.7072 H   0  0  0  0  0  0
  -25.2750   -9.5667   22.4780 H   0  0  0  0  0  0
  -23.9989   -7.4617   22.7477 H   0  0  0  0  0  0
  -21.0837   -8.8759   19.8949 H   0  0  0  0  0  0
  -22.3689  -10.9666   19.6181 H   0  0  0  0  0  0
  -21.2001   -7.6148   23.9709 H   0  0  0  0  0  0
  -21.1484   -6.0525   25.9074 H   0  0  0  0  0  0
  -22.0601   -2.7605   23.2847 H   0  0  0  0  0  0
  -22.4043  -11.9847   22.4823 H   0  0  0  0  0  0
  -21.1046  -13.1216   22.2667 H   0  0  0  0  0  0
  -24.6447  -15.8442   20.5294 H   0  0  0  0  0  0
  -26.2630  -15.6314   20.0931 H   0  0  0  0  0  0
  -26.7252  -32.5334   23.1025 H   0  0  0  0  0  0
  -25.0112  -33.9636   25.0371 H   0  0  0  0  0  0
  -22.7436  -31.2925   21.3829 H   0  0  0  0  0  0
  -23.3759  -35.9574   23.3292 H   0  0  0  0  0  0
  -24.3572  -36.8890   22.2058 H   0  0  0  0  0  0
  -23.7232  -37.6442   23.6681 H   0  0  0  0  0  0
  -26.1458  -31.4900   20.6136 H   0  0  0  0  0  0
  -26.8677  -30.7821   22.0247 H   0  0  0  0  0  0
  -28.1342  -28.8344   21.2302 H   0  0  0  0  0  0
  -25.9473  -25.8649   18.9928 H   0  0  0  0  0  0
  -23.9800  -27.3063   18.9779 H   0  0  0  0  0  0
  -23.8031  -30.5749   19.4003 H   0  0  0  0  0  0
  -22.7830  -29.2404   19.8423 H   0  0  0  0  0  0
  -25.1305  -36.1856   25.0819 H   0  0  0  0  0  0
  -21.0003  -28.3282   24.1365 H   0  0  0  0  0  0
  -20.5668  -26.2326   23.3608 H   0  0  0  0  0  0
  -21.6656  -26.7414   22.1198 H   0  0  0  0  0  0
  -19.6923  -25.6282   21.1250 H   0  0  0  0  0  0
  -19.6702  -27.3180   20.6731 H   0  0  0  0  0  0
  -17.4208  -26.6676   21.4022 H   0  0  0  0  0  0
  -18.0341  -26.0077   22.9014 H   0  0  0  0  0  0
  -19.7957  -30.7289   24.2232 H   0  0  0  0  0  0
  -17.5030  -31.6273   24.5159 H   0  0  0  0  0  0
  -15.5360  -30.2975   23.7685 H   0  0  0  0  0  0
  -15.8688  -28.0813   22.7083 H   0  0  0  0  0  0
  -24.5928  -30.7059   25.7754 H   0  0  0  0  0  0
  -24.8896  -32.2904   26.4807 H   0  0  0  0  0  0
  -25.8034  -30.8945   27.0230 H   0  0  0  0  0  0
  -26.3014  -29.6687   24.1283 H   0  0  0  0  0  0
  -27.4045  -29.7277   25.4824 H   0  0  0  0  0  0
  -27.8906  -30.4228   23.9569 H   0  0  0  0  0  0
  -27.2667  -33.3667   26.2002 H   0  0  0  0  0  0
  -28.3914  -32.6834   25.0352 H   0  0  0  0  0  0
  -28.0686  -31.8502   26.5471 H   0  0  0  0  0  0
  -28.2576  -38.0089   24.7521 H   0  0  0  0  0  0
  -28.1078  -36.2617   24.6285 H   0  0  0  0  0  0
  -27.2293  -37.1409   25.8874 H   0  0  0  0  0  0
  -20.9448  -29.8770   21.6818 H   0  0  0  0  0  0
  -26.0141  -38.2816   24.1435 H   0  0  0  0  0  0
  -30.0008  -21.1028   18.2665 H   0  0  0  0  0  0
  -29.3929  -23.7291   18.2723 H   0  0  0  0  0  0
  -27.5604  -18.5477   19.6387 H   0  0  0  0  0  0
  -29.0586  -18.4241   18.7889 H   0  0  0  0  0  0
  -31.1966  -18.9123   19.9097 H   0  0  0  0  0  0
  -31.2294  -19.4513   21.5534 H   0  0  0  0  0  0
  -28.4125  -16.1779   19.3365 H   0  0  0  0  0  0
  -28.0086  -16.5549   20.9898 H   0  0  0  0  0  0
  -30.4600  -17.2751   22.4041 H   0  0  0  0  0  0
  -31.8515  -17.0571   21.4094 H   0  0  0  0  0  0
  -28.7518  -19.3513   21.6687 H   0  0  0  0  0  0
  -27.9405  -20.8921   24.9084 H   0  0  0  0  0  0
  -27.8922  -22.6427   25.0737 H   0  0  0  0  0  0
  -29.3262  -21.7419   25.5715 H   0  0  0  0  0  0
  -28.1294  -24.9000   21.8212 H   0  0  0  0  0  0
  -26.8332  -24.6532   20.7251 H   0  0  0  0  0  0
  -27.3260  -22.8141   22.5200 H   0  0  0  0  0  0
  -27.4121  -21.0948   22.3506 H   0  0  0  0  0  0
  -29.7576  -21.0721   23.2137 H   0  0  0  0  0  0
  -29.3883  -23.8548   23.4818 H   0  0  0  0  0  0
  1 25  1  0  0  0
  1 30  2  0  0  0
  1 85  1  0  0  0
  2  3  1  0  0  0
  2 25  1  0  0  0
  2 87  1  0  0  0
  2 88  1  0  0  0
  3  4  1  0  0  0
  3 89  1  0  0  0
  3 90  1  0  0  0
  4  5  1  0  0  0
  4 91  1  0  0  0
  4 92  1  0  0  0
  5  6  1  0  0  0
  5 26  1  0  0  0
  5 93  1  0  0  0
  6 25  1  0  0  0
  6 94  1  0  0  0
  6 95  1  0  0  0
  7  8  2  0  0  0
  7 26  1  0  0  0
  7 29  1  0  0  0
  8  9  1  0  0  0
  8 22  1  0  0  0
  9 10  1  0  0  0
  9 27  2  0  0  0
 10 11  2  0  0  0
 10 15  1  0  0  0
 11 12  1  0  0  0
 11 96  1  0  0  0
 12 13  2  0  0  0
 12 97  1  0  0  0
 13 14  1  0  0  0
 13 31  1  0  0  0
 14 15  2  0  0  0
 14 98  1  0  0  0
 15 99  1  0  0  0
 16 17  2  0  0  0
 16 21  1  0  0  0
 16 31  1  0  0  0
 17 18  1  0  0  0
 17100  1  0  0  0
 18 19  2  0  0  0
 18101  1  0  0  0
 19 20  1  0  0  0
 19 24  1  0  0  0
 20 21  2  0  0  0
 20102  1  0  0  0
 21 23  1  0  0  0
 22 28  1  0  0  0
 22 32  2  0  0  0
 26 27  1  0  0  0
 28103  1  0  0  0
 28104  1  0  0  0
 29105  1  0  0  0
 29106  1  0  0  0
 33 34  1  0  0  0
 33 66  1  0  0  0
 33 70  2  0  0  0
 34 36  1  0  0  0
 34 59  1  0  0  0
 34107  1  0  0  0
 35 44  2  0  0  0
 35 45  1  0  0  0
 35 68  1  0  0  0
 36 56  1  0  0  0
 36108  1  0  0  0
 37 39  1  0  0  0
 37 47  1  0  0  0
 37 66  1  0  0  0
 37109  1  0  0  0
 38 43  2  0  0  0
 38 46  1  0  0  0
 38 47  1  0  0  0
 39 64  1  0  0  0
 39 67  2  0  0  0
 40 52  1  0  0  0
 40 53  2  0  0  0
 40 58  1  0  0  0
 41110  1  0  0  0
 41111  1  0  0  0
 41112  1  0  0  0
 41 48  1  0  0  0
 42 43  1  0  0  0
 42 66  1  0  0  0
 42113  1  0  0  0
 42114  1  0  0  0
 43 44  1  0  0  0
 44115  1  0  0  0
 45 46  2  0  0  0
 45116  1  0  0  0
 46117  1  0  0  0
 47118  1  0  0  0
 47119  1  0  0  0
 48 56  1  0  0  0
 48 65  1  0  0  0
 48120  1  0  0  0
 49 50  1  0  0  0
 49 53  1  0  0  0
 49 64  1  0  0  0
 49121  1  0  0  0
 50 51  1  0  0  0
 50122  1  0  0  0
 50123  1  0  0  0
 51 52  1  0  0  0
 51124  1  0  0  0
 51125  1  0  0  0
 52126  1  0  0  0
 52127  1  0  0  0
 53 54  1  0  0  0
 54 55  2  0  0  0
 54128  1  0  0  0
 55 57  1  0  0  0
 55129  1  0  0  0
 56 69  2  0  0  0
 57 58  2  0  0  0
 57130  1  0  0  0
 58131  1  0  0  0
 59 60  1  0  0  0
 59 61  1  0  0  0
 59 62  1  0  0  0
 60132  1  0  0  0
 60133  1  0  0  0
 60134  1  0  0  0
 61135  1  0  0  0
 61136  1  0  0  0
 61137  1  0  0  0
 62138  1  0  0  0
 62139  1  0  0  0
 62140  1  0  0  0
 63 65  1  0  0  0
 63141  1  0  0  0
 63142  1  0  0  0
 63143  1  0  0  0
 64144  1  0  0  0
 65145  1  0  0  0
 68 81  1  0  0  0
 71 72  1  0  0  0
 71 73  2  0  0  0
 71146  1  0  0  0
 72 74  2  0  0  0
 72147  1  0  0  0
 73 84  1  0  0  0
 73 79  1  0  0  0
 74 81  1  0  0  0
 74 84  1  0  0  0
 75 77  1  0  0  0
 75 79  1  0  0  0
 75148  1  0  0  0
 75149  1  0  0  0
 76 78  1  0  0  0
 76 79  1  0  0  0
 76150  1  0  0  0
 76151  1  0  0  0
 77 85  1  0  0  0
 77152  1  0  0  0
 77153  1  0  0  0
 78 85  1  0  0  0
 78154  1  0  0  0
 78155  1  0  0  0
 79156  1  0  0  0
 80157  1  0  0  0
 80158  1  0  0  0
 80159  1  0  0  0
 80 83  1  0  0  0
 81160  1  0  0  0
 81161  1  0  0  0
 82 83  1  0  0  0
 82 84  1  0  0  0
 82162  1  0  0  0
 82163  1  0  0  0
 83 86  1  0  0  0
 83164  1  0  0  0
 86165  1  0  0  0
M  ISO  4   1 100  68 101  81 101  85 100
M  END
> <chiral flag>
0

> <version>
0

> <s_m_source_file>
/data/baiqing/PycharmProjects/Reinvent-master-3.2/result/LINK_invent/BTK/process_docking_weight1_custom_sum_contain_oxygen_bond_distance_aromatic_linkinvent_7_9_3/rearranged_h_0137.sdf

> <i_m_source_file_index>
27

> <r_mmod_Potential_Energy-OPLS-2005>
621.607238769531

> <r_mmod_Stretch_Energy-OPLS-2005>
200.412322998047

> <r_mmod_Bend_Energy-OPLS-2005>
257.844848632812

> <r_mmod_Torsional_Energy-OPLS-2005>
351.668426513672

> <r_mmod_Improper_Torsional_Energy-OPLS-2005>
2.0681266784668

> <r_mmod_Van_der_Waal_Energy-OPLS-2005>
109.388191223145

> <r_mmod_Electrostatic_Energy-OPLS-2005>
-238.5654296875

> <r_mmod_Solvation_Energy-OPLS-2005>
-229.678482055664

> <b_mmod_Minimization_Converged-OPLS-2005>
0

> <r_mmod_RMS_Derivative-OPLS-2005>
0.967654347419739

$$$$
27
                    3D
 Structure written by MMmdl.
160169  0  0  1  0            999 V2000
  -30.5836  -14.6703   20.5125 C   0  0  0  0  0  0
  -30.4500  -12.4127   19.4534 C   0  0  0  0  0  0
  -29.5134  -12.5183   18.2271 C   0  0  0  0  0  0
  -28.0342  -12.3542   18.6344 C   0  0  0  0  0  0
  -27.6564  -13.2138   19.8691 C   0  0  2  0  0  0
  -28.7013  -13.0493   20.9966 C   0  0  0  0  0  0
  -25.2560  -13.8151   20.5656 C   0  0  0  0  0  0
  -24.1832  -13.0427   20.9190 C   0  0  0  0  0  0
  -24.6401  -11.6898   20.8741 C   0  0  0  0  0  0
  -23.9063  -10.4287   21.0408 C   0  0  0  0  0  0
  -24.3615   -9.4204   21.9188 C   0  0  0  0  0  0
  -23.6285   -8.2244   22.0756 C   0  0  0  0  0  0
  -22.4270   -8.0284   21.3541 C   0  0  0  0  0  0
  -21.9901   -9.0260   20.4651 C   0  0  0  0  0  0
  -22.7234  -10.2136   20.3062 C   0  0  0  0  0  0
  -21.6853   -6.0733   22.5273 C   0  0  0  0  0  0
  -21.4020   -6.5640   23.8208 C   0  0  0  0  0  0
  -21.3658   -5.6791   24.9169 C   0  0  0  0  0  0
  -21.6042   -4.3052   24.7225 C   0  0  0  0  0  0
  -21.8820   -3.8144   23.4346 C   0  0  0  0  0  0
  -21.9193   -4.6958   22.3399 C   0  0  0  0  0  0
  -22.7855  -13.5229   21.1850 C   0  0  0  0  0  0
  -22.1661   -4.2142   21.0977 F   0  0  0  0  0  0
  -21.5622   -3.4541   25.7740 F   0  0  0  0  0  0
  -30.0163  -13.4206   20.4421 N   0  0  0  0  0  0
  -26.3000  -12.9332   20.3326 N   0  0  0  0  0  0
  -25.9329  -11.6490   20.5765 N   0  0  0  0  0  0
  -22.0495  -12.8235   22.0415 N   0  0  0  0  0  0
  -25.4240  -15.1865   20.3995 N   0  0  0  0  0  0
  -31.7259  -14.8848   20.0923 O   0  0  0  0  0  0
  -21.6635   -6.8881   21.4238 O   0  0  0  0  0  0
  -22.3545  -14.5532   20.6691 O   0  0  0  0  0  0
  -24.6255  -31.8586   23.2000 C   0  0  0  0  0  0
  -25.9102  -32.4772   23.8334 C   0  0  1  0  0  0
  -27.2291  -27.3174   20.1320 C   0  0  0  0  0  0
  -25.5915  -33.8573   24.2267 N   0  0  0  0  0  0
  -23.4195  -30.4788   21.5429 C   0  0  2  0  0  0
  -24.8670  -28.9243   20.1162 C   0  0  0  0  0  0
  -22.7471  -29.4614   22.4945 C   0  0  0  0  0  0
  -18.0285  -28.1388   22.8487 C   0  0  0  0  0  0
  -24.1486  -36.7294   23.2636 C   0  0  0  0  0  0
  -25.9579  -30.7907   21.3673 C   0  0  0  0  0  0
  -26.0338  -29.4144   20.7165 C   0  0  0  0  0  0
  -27.2196  -28.6241   20.7083 C   0  0  0  0  0  0
  -26.0420  -26.8695   19.5162 C   0  0  0  0  0  0
  -24.8724  -27.6576   19.5065 C   0  0  0  0  0  0
  -23.6346  -29.8060   20.1604 C   0  0  0  0  0  0
  -25.4107  -36.3080   24.0328 C   0  0  1  0  0  0
  -20.5884  -28.3686   23.1291 C   0  0  2  0  0  0
  -20.6771  -26.9408   22.5420 C   0  0  0  0  0  0
  -19.5750  -26.6384   21.5216 C   0  0  0  0  0  0
  -18.1929  -26.7932   22.1625 C   0  0  0  0  0  0
  -19.1537  -28.8853   23.2886 C   0  0  0  0  0  0
  -18.9458  -30.1454   23.8904 C   0  0  0  0  0  0
  -17.6457  -30.6586   24.0566 C   0  0  0  0  0  0
  -25.9047  -34.9450   23.5100 C   0  0  0  0  0  0
  -16.5350  -29.9086   23.6328 C   0  0  0  0  0  0
  -16.7271  -28.6506   23.0346 C   0  0  0  0  0  0
  -26.4493  -31.6585   25.0703 C   0  0  0  0  0  0
  -25.3737  -31.3732   26.1444 C   0  0  0  0  0  0
  -27.0319  -30.3007   24.6145 C   0  0  0  0  0  0
  -27.6066  -32.4313   25.7461 C   0  0  0  0  0  0
  -27.5585  -37.1787   24.8453 C   0  0  0  0  0  0
  -21.4185  -29.3034   22.3686 N   0  0  0  0  0  0
  -26.4283  -37.3776   23.9418 N   0  0  0  0  0  0
  -24.6866  -31.0599   22.0943 N   0  0  0  0  0  0
  -23.4191  -28.8164   23.3036 O   0  0  0  0  0  0
  -28.3676  -26.5038   20.1285 O   0  0  0  0  0  0
  -26.5622  -34.8923   22.4673 O   0  0  0  0  0  0
  -23.5422  -32.1380   23.7334 O   0  0  0  0  0  0
  -27.8679  -18.9241   20.8769 C   0  0  0  0  0  0
  -28.2315  -17.5597   21.0002 C   0  0  0  0  0  0
  -30.5104  -18.0957   20.4373 C   0  0  0  0  0  0
  -28.8102  -19.9234   20.5445 C   0  0  0  0  0  0
  -30.1454  -19.4916   20.3383 C   0  0  0  0  0  0
  -29.5488  -17.0893   20.7732 C   0  0  0  0  0  0
  -28.3460  -21.4172   20.4099 C   0  0  0  0  0  0
  -31.1845  -20.5700   20.0541 C   0  0  0  0  0  0
  -30.6119  -21.8807   19.4398 C   0  0  0  0  0  0
  -29.4286  -22.5484   20.2113 C   0  0  1  0  0  0
  -30.0091  -24.6552   18.7328 C   0  0  0  0  0  0
  -28.2758  -25.0748   20.5288 C   0  0  0  0  0  0
  -28.9157  -23.9602   19.5735 C   0  0  2  0  0  0
  -29.7441  -15.6481   20.9833 N   0  0  0  0  0  0
  -31.4881  -12.5603   19.1499 H   0  0  0  0  0  0
  -30.4045  -11.4134   19.8886 H   0  0  0  0  0  0
  -29.7786  -11.7652   17.4841 H   0  0  0  0  0  0
  -29.6538  -13.4864   17.7435 H   0  0  0  0  0  0
  -27.8644  -11.2995   18.8532 H   0  0  0  0  0  0
  -27.3835  -12.5987   17.7936 H   0  0  0  0  0  0
  -27.6789  -14.2527   19.5405 H   0  0  0  0  0  0
  -28.7216  -12.0179   21.3507 H   0  0  0  0  0  0
  -28.4344  -13.6483   21.8686 H   0  0  0  0  0  0
  -25.2760   -9.5675   22.4762 H   0  0  0  0  0  0
  -23.9987   -7.4637   22.7481 H   0  0  0  0  0  0
  -21.0824   -8.8787   19.8965 H   0  0  0  0  0  0
  -22.3692  -10.9677   19.6177 H   0  0  0  0  0  0
  -21.2021   -7.6149   23.9708 H   0  0  0  0  0  0
  -21.1475   -6.0523   25.9068 H   0  0  0  0  0  0
  -22.0600   -2.7605   23.2849 H   0  0  0  0  0  0
  -22.4108  -11.9894   22.4806 H   0  0  0  0  0  0
  -21.1123  -13.1276   22.2637 H   0  0  0  0  0  0
  -24.6473  -15.8327   20.4858 H   0  0  0  0  0  0
  -26.2488  -15.6105   19.9945 H   0  0  0  0  0  0
  -26.7171  -32.5447   23.1086 H   0  0  0  0  0  0
  -25.0058  -33.9714   25.0409 H   0  0  0  0  0  0
  -22.7130  -31.2987   21.3966 H   0  0  0  0  0  0
  -23.3751  -35.9623   23.3279 H   0  0  0  0  0  0
  -24.3585  -36.8935   22.2055 H   0  0  0  0  0  0
  -23.7233  -37.6488   23.6671 H   0  0  0  0  0  0
  -26.0829  -31.5493   20.5934 H   0  0  0  0  0  0
  -26.8410  -30.8466   21.9924 H   0  0  0  0  0  0
  -28.1205  -28.9996   21.1734 H   0  0  0  0  0  0
  -26.0168  -25.8987   19.0418 H   0  0  0  0  0  0
  -23.9782  -27.2763   19.0326 H   0  0  0  0  0  0
  -23.7539  -30.5787   19.4001 H   0  0  0  0  0  0
  -22.7545  -29.2344   19.8604 H   0  0  0  0  0  0
  -25.1284  -36.1927   25.0817 H   0  0  0  0  0  0
  -20.9974  -28.3263   24.1413 H   0  0  0  0  0  0
  -20.5661  -26.2296   23.3620 H   0  0  0  0  0  0
  -21.6643  -26.7433   22.1222 H   0  0  0  0  0  0
  -19.6910  -25.6295   21.1243 H   0  0  0  0  0  0
  -19.6690  -27.3196   20.6749 H   0  0  0  0  0  0
  -17.4199  -26.6679   21.4027 H   0  0  0  0  0  0
  -18.0326  -26.0075   22.9020 H   0  0  0  0  0  0
  -19.7931  -30.7271   24.2277 H   0  0  0  0  0  0
  -17.5007  -31.6263   24.5173 H   0  0  0  0  0  0
  -15.5348  -30.2985   23.7648 H   0  0  0  0  0  0
  -15.8674  -28.0824   22.7055 H   0  0  0  0  0  0
  -24.5898  -30.7092   25.7783 H   0  0  0  0  0  0
  -24.8947  -32.2903   26.4881 H   0  0  0  0  0  0
  -25.8069  -30.8901   27.0210 H   0  0  0  0  0  0
  -26.2874  -29.6763   24.1190 H   0  0  0  0  0  0
  -27.4042  -29.7260   25.4637 H   0  0  0  0  0  0
  -27.8736  -30.4292   23.9335 H   0  0  0  0  0  0
  -27.2691  -33.3617   26.2041 H   0  0  0  0  0  0
  -28.3866  -32.6865   25.0273 H   0  0  0  0  0  0
  -28.0743  -31.8434   26.5369 H   0  0  0  0  0  0
  -28.2576  -38.0111   24.7542 H   0  0  0  0  0  0
  -28.1109  -36.2648   24.6212 H   0  0  0  0  0  0
  -27.2321  -37.1358   25.8859 H   0  0  0  0  0  0
  -20.9367  -29.8747   21.6888 H   0  0  0  0  0  0
  -26.0165  -38.2845   24.1448 H   0  0  0  0  0  0
  -26.8382  -19.2035   21.0516 H   0  0  0  0  0  0
  -27.4589  -16.8595   21.2838 H   0  0  0  0  0  0
  -31.5408  -17.8078   20.2808 H   0  0  0  0  0  0
  -27.7220  -21.6673   21.2689 H   0  0  0  0  0  0
  -27.6761  -21.4393   19.5496 H   0  0  0  0  0  0
  -31.9523  -20.1648   19.3940 H   0  0  0  0  0  0
  -31.6843  -20.8041   20.9948 H   0  0  0  0  0  0
  -30.2859  -21.6670   18.4212 H   0  0  0  0  0  0
  -31.4478  -22.5748   19.3559 H   0  0  0  0  0  0
  -29.8315  -22.7779   21.1989 H   0  0  0  0  0  0
  -30.3688  -24.0260   17.9196 H   0  0  0  0  0  0
  -30.8601  -24.9474   19.3484 H   0  0  0  0  0  0
  -29.6274  -25.5555   18.2504 H   0  0  0  0  0  0
  -28.7950  -25.0204   21.4860 H   0  0  0  0  0  0
  -27.2470  -24.7973   20.7628 H   0  0  0  0  0  0
  -28.1390  -23.7057   18.8512 H   0  0  0  0  0  0
  -28.9258  -15.2092   21.3753 H   0  0  0  0  0  0
  1 25  1  0  0  0
  1 30  2  0  0  0
  1 84  1  0  0  0
  2  3  1  0  0  0
  2 25  1  0  0  0
  2 85  1  0  0  0
  2 86  1  0  0  0
  3  4  1  0  0  0
  3 87  1  0  0  0
  3 88  1  0  0  0
  4  5  1  0  0  0
  4 89  1  0  0  0
  4 90  1  0  0  0
  5  6  1  0  0  0
  5 26  1  0  0  0
  5 91  1  0  0  0
  6 25  1  0  0  0
  6 92  1  0  0  0
  6 93  1  0  0  0
  7  8  2  0  0  0
  7 26  1  0  0  0
  7 29  1  0  0  0
  8  9  1  0  0  0
  8 22  1  0  0  0
  9 10  1  0  0  0
  9 27  2  0  0  0
 10 11  2  0  0  0
 10 15  1  0  0  0
 11 12  1  0  0  0
 11 94  1  0  0  0
 12 13  2  0  0  0
 12 95  1  0  0  0
 13 14  1  0  0  0
 13 31  1  0  0  0
 14 15  2  0  0  0
 14 96  1  0  0  0
 15 97  1  0  0  0
 16 17  2  0  0  0
 16 21  1  0  0  0
 16 31  1  0  0  0
 17 18  1  0  0  0
 17 98  1  0  0  0
 18 19  2  0  0  0
 18 99  1  0  0  0
 19 20  1  0  0  0
 19 24  1  0  0  0
 20 21  2  0  0  0
 20100  1  0  0  0
 21 23  1  0  0  0
 22 28  1  0  0  0
 22 32  2  0  0  0
 26 27  1  0  0  0
 28101  1  0  0  0
 28102  1  0  0  0
 29103  1  0  0  0
 29104  1  0  0  0
 33 34  1  0  0  0
 33 66  1  0  0  0
 33 70  2  0  0  0
 34 36  1  0  0  0
 34 59  1  0  0  0
 34105  1  0  0  0
 35 44  2  0  0  0
 35 45  1  0  0  0
 35 68  1  0  0  0
 36 56  1  0  0  0
 36106  1  0  0  0
 37 39  1  0  0  0
 37 47  1  0  0  0
 37 66  1  0  0  0
 37107  1  0  0  0
 38 43  2  0  0  0
 38 46  1  0  0  0
 38 47  1  0  0  0
 39 64  1  0  0  0
 39 67  2  0  0  0
 40 52  1  0  0  0
 40 53  2  0  0  0
 40 58  1  0  0  0
 41108  1  0  0  0
 41109  1  0  0  0
 41110  1  0  0  0
 41 48  1  0  0  0
 42 43  1  0  0  0
 42 66  1  0  0  0
 42111  1  0  0  0
 42112  1  0  0  0
 43 44  1  0  0  0
 44113  1  0  0  0
 45 46  2  0  0  0
 45114  1  0  0  0
 46115  1  0  0  0
 47116  1  0  0  0
 47117  1  0  0  0
 48 56  1  0  0  0
 48 65  1  0  0  0
 48118  1  0  0  0
 49 50  1  0  0  0
 49 53  1  0  0  0
 49 64  1  0  0  0
 49119  1  0  0  0
 50 51  1  0  0  0
 50120  1  0  0  0
 50121  1  0  0  0
 51 52  1  0  0  0
 51122  1  0  0  0
 51123  1  0  0  0
 52124  1  0  0  0
 52125  1  0  0  0
 53 54  1  0  0  0
 54 55  2  0  0  0
 54126  1  0  0  0
 55 57  1  0  0  0
 55127  1  0  0  0
 56 69  2  0  0  0
 57 58  2  0  0  0
 57128  1  0  0  0
 58129  1  0  0  0
 59 60  1  0  0  0
 59 61  1  0  0  0
 59 62  1  0  0  0
 60130  1  0  0  0
 60131  1  0  0  0
 60132  1  0  0  0
 61133  1  0  0  0
 61134  1  0  0  0
 61135  1  0  0  0
 62136  1  0  0  0
 62137  1  0  0  0
 62138  1  0  0  0
 63 65  1  0  0  0
 63139  1  0  0  0
 63140  1  0  0  0
 63141  1  0  0  0
 64142  1  0  0  0
 65143  1  0  0  0
 68 82  1  0  0  0
 71 72  2  0  0  0
 71 74  1  0  0  0
 71144  1  0  0  0
 72 76  1  0  0  0
 72145  1  0  0  0
 73 75  1  0  0  0
 73 76  2  0  0  0
 73146  1  0  0  0
 74 75  2  0  0  0
 74 77  1  0  0  0
 75 78  1  0  0  0
 76 84  1  0  0  0
 77147  1  0  0  0
 77148  1  0  0  0
 77 80  1  0  0  0
 78 79  1  0  0  0
 78149  1  0  0  0
 78150  1  0  0  0
 79 80  1  0  0  0
 79151  1  0  0  0
 79152  1  0  0  0
 80 83  1  0  0  0
 80153  1  0  0  0
 81154  1  0  0  0
 81155  1  0  0  0
 81156  1  0  0  0
 81 83  1  0  0  0
 82 83  1  0  0  0
 82157  1  0  0  0
 82158  1  0  0  0
 83159  1  0  0  0
 84160  1  0  0  0
M  ISO  4   1 100  68 101  82 101  84 100
M  END
> <chiral flag>
0

> <version>
0

> <s_m_source_file>
/data/baiqing/PycharmProjects/Reinvent-master-3.2/result/LINK_invent/BTK/process_docking_weight1_custom_sum_contain_oxygen_bond_distance_aromatic_linkinvent_7_9_3/rearranged_h_0137.sdf

> <i_m_source_file_index>
28

> <r_mmod_Potential_Energy-OPLS-2005>
142.534591674805

> <r_mmod_Stretch_Energy-OPLS-2005>
90.8771362304688

> <r_mmod_Bend_Energy-OPLS-2005>
165.525054931641

> <r_mmod_Torsional_Energy-OPLS-2005>
255.995758056641

> <r_mmod_Improper_Torsional_Energy-OPLS-2005>
4.31606578826904

> <r_mmod_Van_der_Waal_Energy-OPLS-2005>
143.056564331055

> <r_mmod_Electrostatic_Energy-OPLS-2005>
-370.147857666016

> <r_mmod_Solvation_Energy-OPLS-2005>
-199.0517578125

> <b_mmod_Minimization_Converged-OPLS-2005>
0

> <r_mmod_RMS_Derivative-OPLS-2005>
0.919333279132843

$$$$
28
                    3D
 Structure written by MMmdl.
165173  0  0  1  0            999 V2000
  -30.7096  -14.4351   20.6564 C   0  0  0  0  0  0
  -30.4385  -12.3209   19.4004 C   0  0  0  0  0  0
  -29.4960  -12.5231   18.1963 C   0  0  0  0  0  0
  -28.0186  -12.3734   18.6123 C   0  0  0  0  0  0
  -27.6679  -13.1981   19.8789 C   0  0  2  0  0  0
  -28.7081  -12.9397   20.9908 C   0  0  0  0  0  0
  -25.2622  -13.8138   20.5669 C   0  0  0  0  0  0
  -24.1862  -13.0432   20.9166 C   0  0  0  0  0  0
  -24.6398  -11.6895   20.8721 C   0  0  0  0  0  0
  -23.9056  -10.4295   21.0394 C   0  0  0  0  0  0
  -24.3610   -9.4209   21.9178 C   0  0  0  0  0  0
  -23.6285   -8.2245   22.0749 C   0  0  0  0  0  0
  -22.4266   -8.0283   21.3543 C   0  0  0  0  0  0
  -21.9901   -9.0253   20.4644 C   0  0  0  0  0  0
  -22.7227  -10.2135   20.3049 C   0  0  0  0  0  0
  -21.6852   -6.0735   22.5277 C   0  0  0  0  0  0
  -21.4007   -6.5638   23.8212 C   0  0  0  0  0  0
  -21.3661   -5.6790   24.9173 C   0  0  0  0  0  0
  -21.6043   -4.3052   24.7221 C   0  0  0  0  0  0
  -21.8824   -3.8144   23.4345 C   0  0  0  0  0  0
  -21.9194   -4.6962   22.3399 C   0  0  0  0  0  0
  -22.7890  -13.5248   21.1833 C   0  0  0  0  0  0
  -22.1666   -4.2148   21.0978 F   0  0  0  0  0  0
  -21.5634   -3.4537   25.7735 F   0  0  0  0  0  0
  -30.0423  -13.2684   20.4522 N   0  0  0  0  0  0
  -26.3061  -12.9289   20.3367 N   0  0  0  0  0  0
  -25.9320  -11.6462   20.5741 N   0  0  0  0  0  0
  -22.0514  -12.8250   22.0386 N   0  0  0  0  0  0
  -25.4375  -15.1855   20.4090 N   0  0  0  0  0  0
  -31.7873  -14.7096   20.1211 O   0  0  0  0  0  0
  -21.6639   -6.8877   21.4240 O   0  0  0  0  0  0
  -22.3590  -14.5567   20.6689 O   0  0  0  0  0  0
  -24.6151  -31.8682   23.2087 C   0  0  0  0  0  0
  -25.9042  -32.4831   23.8395 C   0  0  1  0  0  0
  -27.2349  -27.4367   20.0951 C   0  0  0  0  0  0
  -25.5900  -33.8633   24.2332 N   0  0  0  0  0  0
  -23.4024  -30.4939   21.5459 C   0  0  2  0  0  0
  -24.8480  -28.9503   20.1183 C   0  0  0  0  0  0
  -22.7407  -29.4695   22.4960 C   0  0  0  0  0  0
  -18.0289  -28.1400   22.8510 C   0  0  0  0  0  0
  -24.1478  -36.7314   23.2643 C   0  0  0  0  0  0
  -25.9312  -30.8340   21.3591 C   0  0  0  0  0  0
  -26.0072  -29.4645   20.7133 C   0  0  0  0  0  0
  -27.2044  -28.7155   20.6972 C   0  0  0  0  0  0
  -26.0605  -26.9347   19.4970 C   0  0  0  0  0  0
  -24.8683  -27.6845   19.5082 C   0  0  0  0  0  0
  -23.6115  -29.8195   20.1626 C   0  0  0  0  0  0
  -25.4101  -36.3135   24.0345 C   0  0  1  0  0  0
  -20.5878  -28.3685   23.1318 C   0  0  2  0  0  0
  -20.6787  -26.9419   22.5415 C   0  0  0  0  0  0
  -19.5746  -26.6406   21.5231 C   0  0  0  0  0  0
  -18.1928  -26.7953   22.1643 C   0  0  0  0  0  0
  -19.1538  -28.8862   23.2919 C   0  0  0  0  0  0
  -18.9454  -30.1470   23.8915 C   0  0  0  0  0  0
  -17.6451  -30.6592   24.0589 C   0  0  0  0  0  0
  -25.9023  -34.9497   23.5137 C   0  0  0  0  0  0
  -16.5349  -29.9097   23.6335 C   0  0  0  0  0  0
  -16.7278  -28.6528   23.0340 C   0  0  0  0  0  0
  -26.4471  -31.6594   25.0712 C   0  0  0  0  0  0
  -25.3725  -31.3674   26.1445 C   0  0  0  0  0  0
  -27.0274  -30.3039   24.6062 C   0  0  0  0  0  0
  -27.6068  -32.4279   25.7464 C   0  0  0  0  0  0
  -27.5573  -37.1814   24.8472 C   0  0  0  0  0  0
  -21.4139  -29.3046   22.3703 N   0  0  0  0  0  0
  -26.4289  -37.3816   23.9413 N   0  0  0  0  0  0
  -24.6678  -31.0812   22.0956 N   0  0  0  0  0  0
  -23.4194  -28.8233   23.2988 O   0  0  0  0  0  0
  -28.4069  -26.7167   20.0522 O   0  0  0  0  0  0
  -26.5591  -34.8950   22.4692 O   0  0  0  0  0  0
  -23.5346  -32.1408   23.7493 O   0  0  0  0  0  0
  -28.8459  -20.3968   20.0208 C   0  0  0  0  0  0
  -28.7525  -21.8224   19.3915 C   0  0  0  0  0  0
  -28.2865  -22.5302   21.7048 C   0  0  0  0  0  0
  -29.1011  -21.3624   22.3375 C   0  0  2  0  0  0
  -29.7367  -20.4023   21.2820 C   0  0  1  0  0  0
  -28.1963  -20.6339   23.3592 C   0  0  0  0  0  0
  -30.5069  -16.6166   21.9444 C   0  0  0  0  0  0
  -28.2143  -24.2192   19.8437 C   0  0  0  0  0  0
  -29.9470  -17.8173   21.1289 C   0  0  0  0  0  0
  -28.4182  -25.4630   20.7546 C   0  0  0  0  0  0
  -30.0728  -15.3004   21.4617 N   0  0  0  0  0  0
  -28.8084  -22.9492   20.3779 N   0  3  2  0  0  0
  -30.0832  -19.0825   21.8978 N   0  3  0  0  0  0
  -31.4770  -12.4557   19.0915 H   0  0  0  0  0  0
  -30.3711  -11.2989   19.7752 H   0  0  0  0  0  0
  -29.7362  -11.8085   17.4076 H   0  0  0  0  0  0
  -29.6564  -13.5146   17.7691 H   0  0  0  0  0  0
  -27.8323  -11.3149   18.7980 H   0  0  0  0  0  0
  -27.3647  -12.6566   17.7866 H   0  0  0  0  0  0
  -27.7242  -14.2521   19.6041 H   0  0  0  0  0  0
  -28.6885  -11.8910   21.2892 H   0  0  0  0  0  0
  -28.4489  -13.4911   21.8943 H   0  0  0  0  0  0
  -25.2762   -9.5688   22.4742 H   0  0  0  0  0  0
  -23.9999   -7.4641   22.7469 H   0  0  0  0  0  0
  -21.0836   -8.8772   19.8950 H   0  0  0  0  0  0
  -22.3691  -10.9668   19.6153 H   0  0  0  0  0  0
  -21.1990   -7.6144   23.9712 H   0  0  0  0  0  0
  -21.1479   -6.0518   25.9076 H   0  0  0  0  0  0
  -22.0599   -2.7607   23.2842 H   0  0  0  0  0  0
  -22.4112  -11.9903   22.4779 H   0  0  0  0  0  0
  -21.1129  -13.1282   22.2565 H   0  0  0  0  0  0
  -24.6714  -15.8420   20.5121 H   0  0  0  0  0  0
  -26.2919  -15.6212   20.0851 H   0  0  0  0  0  0
  -26.7117  -32.5554   23.1161 H   0  0  0  0  0  0
  -25.0099  -33.9775   25.0517 H   0  0  0  0  0  0
  -22.6932  -31.3125   21.4028 H   0  0  0  0  0  0
  -23.3758  -35.9636   23.3321 H   0  0  0  0  0  0
  -24.3584  -36.8900   22.2057 H   0  0  0  0  0  0
  -23.7210  -37.6517   23.6629 H   0  0  0  0  0  0
  -26.0391  -31.5932   20.5839 H   0  0  0  0  0  0
  -26.8232  -30.8957   21.9692 H   0  0  0  0  0  0
  -28.1019  -29.1131   21.1511 H   0  0  0  0  0  0
  -26.0642  -25.9770   18.9997 H   0  0  0  0  0  0
  -23.9783  -27.2871   19.0396 H   0  0  0  0  0  0
  -23.7230  -30.5896   19.3992 H   0  0  0  0  0  0
  -22.7364  -29.2389   19.8663 H   0  0  0  0  0  0
  -25.1281  -36.2002   25.0842 H   0  0  0  0  0  0
  -21.0007  -28.3265   24.1424 H   0  0  0  0  0  0
  -20.5737  -26.2296   23.3602 H   0  0  0  0  0  0
  -21.6653  -26.7473   22.1174 H   0  0  0  0  0  0
  -19.6900  -25.6327   21.1230 H   0  0  0  0  0  0
  -19.6690  -27.3255   20.6791 H   0  0  0  0  0  0
  -17.4209  -26.6738   21.4024 H   0  0  0  0  0  0
  -18.0294  -26.0087   22.9018 H   0  0  0  0  0  0
  -19.7923  -30.7307   24.2276 H   0  0  0  0  0  0
  -17.4994  -31.6262   24.5202 H   0  0  0  0  0  0
  -15.5358  -30.3001   23.7636 H   0  0  0  0  0  0
  -15.8679  -28.0858   22.7011 H   0  0  0  0  0  0
  -24.5956  -30.6950   25.7781 H   0  0  0  0  0  0
  -24.8839  -32.2811   26.4835 H   0  0  0  0  0  0
  -25.8088  -30.8905   27.0223 H   0  0  0  0  0  0
  -26.2783  -29.6814   24.1153 H   0  0  0  0  0  0
  -27.4092  -29.7271   25.4490 H   0  0  0  0  0  0
  -27.8613  -30.4376   23.9166 H   0  0  0  0  0  0
  -27.2720  -33.3593   26.2034 H   0  0  0  0  0  0
  -28.3875  -32.6783   25.0264 H   0  0  0  0  0  0
  -28.0721  -31.8376   26.5359 H   0  0  0  0  0  0
  -28.2625  -38.0082   24.7526 H   0  0  0  0  0  0
  -28.1027  -36.2624   24.6284 H   0  0  0  0  0  0
  -27.2289  -37.1441   25.8874 H   0  0  0  0  0  0
  -20.9286  -29.8749   21.6909 H   0  0  0  0  0  0
  -26.0186  -38.2901   24.1413 H   0  0  0  0  0  0
  -29.2239  -19.7118   19.2616 H   0  0  0  0  0  0
  -27.8455  -20.0407   20.2777 H   0  0  0  0  0  0
  -27.8272  -21.8794   18.8162 H   0  0  0  0  0  0
  -29.5601  -21.9670   18.6730 H   0  0  0  0  0  0
  -28.2810  -23.3623   22.4085 H   0  0  0  0  0  0
  -27.2420  -22.2394   21.5717 H   0  0  0  0  0  0
  -29.9272  -21.8063   22.8979 H   0  0  0  0  0  0
  -30.6961  -20.8213   20.9701 H   0  0  0  0  0  0
  -27.4208  -20.0471   22.8619 H   0  0  0  0  0  0
  -27.6878  -21.3489   24.0079 H   0  0  0  0  0  0
  -28.7567  -19.9694   24.0174 H   0  0  0  0  0  0
  -30.1659  -16.6844   22.9784 H   0  0  0  0  0  0
  -31.5970  -16.6628   21.9874 H   0  0  0  0  0  0
  -28.6808  -24.4254   18.8792 H   0  0  0  0  0  0
  -27.1518  -24.0755   19.6432 H   0  0  0  0  0  0
  -28.8941  -17.6574   20.8932 H   0  0  0  0  0  0
  -30.4824  -17.8945   20.1805 H   0  0  0  0  0  0
  -29.3958  -25.3995   21.2327 H   0  0  0  0  0  0
  -27.6901  -25.4687   21.5680 H   0  0  0  0  0  0
  -29.2060  -14.9516   21.8457 H   0  0  0  0  0  0
  -29.7891  -23.1552   20.5117 H   0  0  0  0  0  0
  -29.4965  -18.9970   22.7138 H   0  0  0  0  0  0
  -31.0304  -19.1465   22.2396 H   0  0  0  0  0  0
  1 25  1  0  0  0
  1 30  2  0  0  0
  1 81  1  0  0  0
  2  3  1  0  0  0
  2 25  1  0  0  0
  2 84  1  0  0  0
  2 85  1  0  0  0
  3  4  1  0  0  0
  3 86  1  0  0  0
  3 87  1  0  0  0
  4  5  1  0  0  0
  4 88  1  0  0  0
  4 89  1  0  0  0
  5  6  1  0  0  0
  5 26  1  0  0  0
  5 90  1  0  0  0
  6 25  1  0  0  0
  6 91  1  0  0  0
  6 92  1  0  0  0
  7  8  2  0  0  0
  7 26  1  0  0  0
  7 29  1  0  0  0
  8  9  1  0  0  0
  8 22  1  0  0  0
  9 10  1  0  0  0
  9 27  2  0  0  0
 10 11  2  0  0  0
 10 15  1  0  0  0
 11 12  1  0  0  0
 11 93  1  0  0  0
 12 13  2  0  0  0
 12 94  1  0  0  0
 13 14  1  0  0  0
 13 31  1  0  0  0
 14 15  2  0  0  0
 14 95  1  0  0  0
 15 96  1  0  0  0
 16 17  2  0  0  0
 16 21  1  0  0  0
 16 31  1  0  0  0
 17 18  1  0  0  0
 17 97  1  0  0  0
 18 19  2  0  0  0
 18 98  1  0  0  0
 19 20  1  0  0  0
 19 24  1  0  0  0
 20 21  2  0  0  0
 20 99  1  0  0  0
 21 23  1  0  0  0
 22 28  1  0  0  0
 22 32  2  0  0  0
 26 27  1  0  0  0
 28100  1  0  0  0
 28101  1  0  0  0
 29102  1  0  0  0
 29103  1  0  0  0
 33 34  1  0  0  0
 33 66  1  0  0  0
 33 70  2  0  0  0
 34 36  1  0  0  0
 34 59  1  0  0  0
 34104  1  0  0  0
 35 44  2  0  0  0
 35 45  1  0  0  0
 35 68  1  0  0  0
 36 56  1  0  0  0
 36105  1  0  0  0
 37 39  1  0  0  0
 37 47  1  0  0  0
 37 66  1  0  0  0
 37106  1  0  0  0
 38 43  2  0  0  0
 38 46  1  0  0  0
 38 47  1  0  0  0
 39 64  1  0  0  0
 39 67  2  0  0  0
 40 52  1  0  0  0
 40 53  2  0  0  0
 40 58  1  0  0  0
 41107  1  0  0  0
 41108  1  0  0  0
 41109  1  0  0  0
 41 48  1  0  0  0
 42 43  1  0  0  0
 42 66  1  0  0  0
 42110  1  0  0  0
 42111  1  0  0  0
 43 44  1  0  0  0
 44112  1  0  0  0
 45 46  2  0  0  0
 45113  1  0  0  0
 46114  1  0  0  0
 47115  1  0  0  0
 47116  1  0  0  0
 48 56  1  0  0  0
 48 65  1  0  0  0
 48117  1  0  0  0
 49 50  1  0  0  0
 49 53  1  0  0  0
 49 64  1  0  0  0
 49118  1  0  0  0
 50 51  1  0  0  0
 50119  1  0  0  0
 50120  1  0  0  0
 51 52  1  0  0  0
 51121  1  0  0  0
 51122  1  0  0  0
 52123  1  0  0  0
 52124  1  0  0  0
 53 54  1  0  0  0
 54 55  2  0  0  0
 54125  1  0  0  0
 55 57  1  0  0  0
 55126  1  0  0  0
 56 69  2  0  0  0
 57 58  2  0  0  0
 57127  1  0  0  0
 58128  1  0  0  0
 59 60  1  0  0  0
 59 61  1  0  0  0
 59 62  1  0  0  0
 60129  1  0  0  0
 60130  1  0  0  0
 60131  1  0  0  0
 61132  1  0  0  0
 61133  1  0  0  0
 61134  1  0  0  0
 62135  1  0  0  0
 62136  1  0  0  0
 62137  1  0  0  0
 63 65  1  0  0  0
 63138  1  0  0  0
 63139  1  0  0  0
 63140  1  0  0  0
 64141  1  0  0  0
 65142  1  0  0  0
 68 80  1  0  0  0
 71 72  1  0  0  0
 71 75  1  0  0  0
 71143  1  0  0  0
 71144  1  0  0  0
 72 82  1  0  0  0
 72145  1  0  0  0
 72146  1  0  0  0
 73 74  1  0  0  0
 73 82  1  0  0  0
 73147  1  0  0  0
 73148  1  0  0  0
 74 75  1  0  0  0
 74 76  1  0  0  0
 74149  1  0  0  0
 75 83  1  0  0  0
 75150  1  0  0  0
 76151  1  0  0  0
 76152  1  0  0  0
 76153  1  0  0  0
 77 79  1  0  0  0
 77 81  1  0  0  0
 77154  1  0  0  0
 77155  1  0  0  0
 78 80  1  0  0  0
 78156  1  0  0  0
 78157  1  0  0  0
 78 82  1  0  0  0
 79 83  1  0  0  0
 79158  1  0  0  0
 79159  1  0  0  0
 80160  1  0  0  0
 80161  1  0  0  0
 81162  1  0  0  0
 82163  1  0  0  0
 83164  1  0  0  0
 83165  1  0  0  0
M  CHG  2  82   1  83   1
M  ISO  4   1 100  68 101  80 101  81 100
M  END
> <chiral flag>
0

> <version>
0

> <s_m_source_file>
/data/baiqing/PycharmProjects/Reinvent-master-3.2/result/LINK_invent/BTK/process_docking_weight1_custom_sum_contain_oxygen_bond_distance_aromatic_linkinvent_7_9_3/rearranged_h_0137.sdf

> <i_m_source_file_index>
29

> <r_mmod_Potential_Energy-OPLS-2005>
-287.0439453125

> <r_mmod_Stretch_Energy-OPLS-2005>
40.9568748474121

> <r_mmod_Bend_Energy-OPLS-2005>
115.306533813477

> <r_mmod_Torsional_Energy-OPLS-2005>
295.14697265625

> <r_mmod_Improper_Torsional_Energy-OPLS-2005>
2.05913352966309

> <r_mmod_Van_der_Waal_Energy-OPLS-2005>
142.005737304688

> <r_mmod_Electrostatic_Energy-OPLS-2005>
87.6762237548828

> <r_mmod_Solvation_Energy-OPLS-2005>
-979.870849609375

> <b_mmod_Minimization_Converged-OPLS-2005>
0

> <r_mmod_RMS_Derivative-OPLS-2005>
2.4828782081604

$$$$
29
                    3D
 Structure written by MMmdl.
164172  0  0  1  0            999 V2000
  -30.6412  -14.6354   20.4996 C   0  0  0  0  0  0
  -30.4362  -12.3946   19.4537 C   0  0  0  0  0  0
  -29.5096  -12.4986   18.2240 C   0  0  0  0  0  0
  -28.0312  -12.3484   18.6393 C   0  0  0  0  0  0
  -27.6521  -13.2247   19.8656 C   0  0  2  0  0  0
  -28.6977  -13.0924   20.9944 C   0  0  0  0  0  0
  -25.2558  -13.8158   20.5716 C   0  0  0  0  0  0
  -24.1837  -13.0421   20.9222 C   0  0  0  0  0  0
  -24.6401  -11.6900   20.8754 C   0  0  0  0  0  0
  -23.9059  -10.4283   21.0412 C   0  0  0  0  0  0
  -24.3593   -9.4198   21.9186 C   0  0  0  0  0  0
  -23.6272   -8.2231   22.0739 C   0  0  0  0  0  0
  -22.4254   -8.0260   21.3545 C   0  0  0  0  0  0
  -21.9903   -9.0240   20.4652 C   0  0  0  0  0  0
  -22.7229  -10.2117   20.3068 C   0  0  0  0  0  0
  -21.6842   -6.0716   22.5276 C   0  0  0  0  0  0
  -21.4020   -6.5629   23.8205 C   0  0  0  0  0  0
  -21.3675   -5.6792   24.9170 C   0  0  0  0  0  0
  -21.6068   -4.3057   24.7236 C   0  0  0  0  0  0
  -21.8837   -3.8138   23.4362 C   0  0  0  0  0  0
  -21.9193   -4.6941   22.3411 C   0  0  0  0  0  0
  -22.7858  -13.5200   21.1875 C   0  0  0  0  0  0
  -22.1655   -4.2121   21.0979 F   0  0  0  0  0  0
  -21.5636   -3.4550   25.7751 F   0  0  0  0  0  0
  -30.0102  -13.4243   20.4221 N   0  0  0  0  0  0
  -26.3000  -12.9367   20.3359 N   0  0  0  0  0  0
  -25.9337  -11.6513   20.5781 N   0  0  0  0  0  0
  -22.0496  -12.8191   22.0420 N   0  0  0  0  0  0
  -25.4248  -15.1891   20.4101 N   0  0  0  0  0  0
  -31.8081  -14.7779   20.1245 O   0  0  0  0  0  0
  -21.6645   -6.8839   21.4218 O   0  0  0  0  0  0
  -22.3582  -14.5519   20.6732 O   0  0  0  0  0  0
  -24.6213  -31.8616   23.2047 C   0  0  0  0  0  0
  -25.9061  -32.4794   23.8362 C   0  0  1  0  0  0
  -27.2273  -27.3334   20.1342 C   0  0  0  0  0  0
  -25.5884  -33.8596   24.2294 N   0  0  0  0  0  0
  -23.4169  -30.4816   21.5456 C   0  0  2  0  0  0
  -24.8691  -28.9364   20.1144 C   0  0  0  0  0  0
  -22.7458  -29.4614   22.4945 C   0  0  0  0  0  0
  -18.0285  -28.1366   22.8475 C   0  0  0  0  0  0
  -24.1491  -36.7302   23.2635 C   0  0  0  0  0  0
  -25.9567  -30.7913   21.3800 C   0  0  0  0  0  0
  -26.0305  -29.4173   20.7325 C   0  0  0  0  0  0
  -27.2104  -28.6211   20.7449 C   0  0  0  0  0  0
  -26.0600  -26.9184   19.4568 C   0  0  0  0  0  0
  -24.8826  -27.6889   19.4709 C   0  0  0  0  0  0
  -23.6341  -29.8114   20.1623 C   0  0  0  0  0  0
  -25.4111  -36.3104   24.0338 C   0  0  1  0  0  0
  -20.5877  -28.3675   23.1289 C   0  0  2  0  0  0
  -20.6766  -26.9407   22.5384 C   0  0  0  0  0  0
  -19.5754  -26.6392   21.5179 C   0  0  0  0  0  0
  -18.1934  -26.7920   22.1585 C   0  0  0  0  0  0
  -19.1532  -28.8838   23.2886 C   0  0  0  0  0  0
  -18.9453  -30.1438   23.8904 C   0  0  0  0  0  0
  -17.6448  -30.6558   24.0569 C   0  0  0  0  0  0
  -25.9044  -34.9464   23.5127 C   0  0  0  0  0  0
  -16.5340  -29.9055   23.6323 C   0  0  0  0  0  0
  -16.7276  -28.6477   23.0336 C   0  0  0  0  0  0
  -26.4468  -31.6588   25.0717 C   0  0  0  0  0  0
  -25.3711  -31.3679   26.1446 C   0  0  0  0  0  0
  -27.0300  -30.3014   24.6148 C   0  0  0  0  0  0
  -27.6055  -32.4321   25.7460 C   0  0  0  0  0  0
  -27.5587  -37.1798   24.8462 C   0  0  0  0  0  0
  -21.4167  -29.3046   22.3702 N   0  0  0  0  0  0
  -26.4292  -37.3796   23.9410 N   0  0  0  0  0  0
  -24.6834  -31.0646   22.0992 N   0  0  0  0  0  0
  -23.4180  -28.8137   23.3005 O   0  0  0  0  0  0
  -28.3528  -26.5008   20.1615 O   0  0  0  0  0  0
  -26.5635  -34.8920   22.4702 O   0  0  0  0  0  0
  -23.5382  -32.1378   23.7392 O   0  0  0  0  0  0
  -27.1626  -24.4321   20.9284 C   0  0  0  0  0  0
  -29.3427  -23.0047   20.1147 C   0  0  0  0  0  0
  -27.1233  -23.0147   21.0094 C   0  0  0  0  0  0
  -28.2506  -22.2336   20.5952 C   0  0  0  0  0  0
  -28.2722  -25.1028   20.3718 C   0  0  0  0  0  0
  -24.2284  -20.7770   20.2127 C   0  0  0  0  0  0
  -23.7566  -23.2659   20.1383 C   0  0  0  0  0  0
  -25.7915  -22.3998   21.4366 C   0  0  0  0  0  0
  -28.1852  -20.6448   20.5508 C   0  0  0  0  0  0
  -30.2442  -17.1821   20.7023 C   0  0  0  0  0  0
  -29.0518  -18.2414   20.7291 C   0  0  0  0  0  0
  -24.8482  -22.1834   20.2261 C   0  0  0  0  0  0
  -29.3565  -24.3721   20.0021 N   0  0  0  0  0  0
  -29.8698  -15.7228   20.8069 N   0  0  0  0  0  0
  -29.3905  -19.7243   20.6258 N   0  3  0  0  0  0
  -31.4767  -12.5208   19.1493 H   0  0  0  0  0  0
  -30.3664  -11.4029   19.9059 H   0  0  0  0  0  0
  -29.7705  -11.7302   17.4957 H   0  0  0  0  0  0
  -29.6621  -13.4550   17.7231 H   0  0  0  0  0  0
  -27.8679  -11.2967   18.8774 H   0  0  0  0  0  0
  -27.3762  -12.5759   17.7972 H   0  0  0  0  0  0
  -27.6666  -14.2609   19.5258 H   0  0  0  0  0  0
  -28.7063  -12.0810   21.4033 H   0  0  0  0  0  0
  -28.4514  -13.7477   21.8314 H   0  0  0  0  0  0
  -25.2721   -9.5685   22.4767 H   0  0  0  0  0  0
  -23.9995   -7.4628   22.7467 H   0  0  0  0  0  0
  -21.0841   -8.8758   19.8964 H   0  0  0  0  0  0
  -22.3675  -10.9648   19.6192 H   0  0  0  0  0  0
  -21.2005   -7.6135   23.9713 H   0  0  0  0  0  0
  -21.1482   -6.0505   25.9082 H   0  0  0  0  0  0
  -22.0605   -2.7594   23.2867 H   0  0  0  0  0  0
  -22.4053  -11.9829   22.4831 H   0  0  0  0  0  0
  -21.1142  -13.1275   22.2655 H   0  0  0  0  0  0
  -24.6533  -15.8393   20.5072 H   0  0  0  0  0  0
  -26.2662  -15.6222   20.0549 H   0  0  0  0  0  0
  -26.7122  -32.5483   23.1104 H   0  0  0  0  0  0
  -25.0030  -33.9757   25.0442 H   0  0  0  0  0  0
  -22.7063  -31.2988   21.3996 H   0  0  0  0  0  0
  -23.3764  -35.9622   23.3288 H   0  0  0  0  0  0
  -24.3578  -36.8934   22.2048 H   0  0  0  0  0  0
  -23.7225  -37.6493   23.6666 H   0  0  0  0  0  0
  -26.0903  -31.5442   20.6019 H   0  0  0  0  0  0
  -26.8391  -30.8454   22.0073 H   0  0  0  0  0  0
  -28.0999  -28.9792   21.2442 H   0  0  0  0  0  0
  -26.0462  -25.9725   18.9356 H   0  0  0  0  0  0
  -23.9950  -27.3182   18.9766 H   0  0  0  0  0  0
  -23.7503  -30.5834   19.4009 H   0  0  0  0  0  0
  -22.7582  -29.2323   19.8666 H   0  0  0  0  0  0
  -25.1286  -36.1962   25.0832 H   0  0  0  0  0  0
  -20.9976  -28.3246   24.1415 H   0  0  0  0  0  0
  -20.5646  -26.2286   23.3572 H   0  0  0  0  0  0
  -21.6623  -26.7426   22.1168 H   0  0  0  0  0  0
  -19.6912  -25.6310   21.1202 H   0  0  0  0  0  0
  -19.6699  -27.3211   20.6722 H   0  0  0  0  0  0
  -17.4208  -26.6677   21.3980 H   0  0  0  0  0  0
  -18.0343  -26.0041   22.8959 H   0  0  0  0  0  0
  -19.7936  -30.7253   24.2262 H   0  0  0  0  0  0
  -17.5015  -31.6241   24.5176 H   0  0  0  0  0  0
  -15.5343  -30.2940   23.7668 H   0  0  0  0  0  0
  -15.8690  -28.0797   22.7018 H   0  0  0  0  0  0
  -24.5917  -30.7011   25.7736 H   0  0  0  0  0  0
  -24.8860  -32.2824   26.4877 H   0  0  0  0  0  0
  -25.8040  -30.8836   27.0206 H   0  0  0  0  0  0
  -26.2853  -29.6767   24.1208 H   0  0  0  0  0  0
  -27.4029  -29.7265   25.4625 H   0  0  0  0  0  0
  -27.8718  -30.4287   23.9338 H   0  0  0  0  0  0
  -27.2701  -33.3634   26.2022 H   0  0  0  0  0  0
  -28.3852  -32.6848   25.0268 H   0  0  0  0  0  0
  -28.0736  -31.8449   26.5364 H   0  0  0  0  0  0
  -28.2603  -38.0104   24.7555 H   0  0  0  0  0  0
  -28.1096  -36.2639   24.6252 H   0  0  0  0  0  0
  -27.2313  -37.1415   25.8869 H   0  0  0  0  0  0
  -20.9335  -29.8778   21.6926 H   0  0  0  0  0  0
  -26.0182  -38.2873   24.1413 H   0  0  0  0  0  0
  -26.3012  -25.0026   21.2452 H   0  0  0  0  0  0
  -30.2344  -22.5052   19.7656 H   0  0  0  0  0  0
  -23.6166  -20.6320   19.3207 H   0  0  0  0  0  0
  -23.5935  -20.6071   21.0825 H   0  0  0  0  0  0
  -24.9975  -20.0026   20.2067 H   0  0  0  0  0  0
  -23.1669  -23.1624   19.2266 H   0  0  0  0  0  0
  -24.1935  -24.2649   20.1246 H   0  0  0  0  0  0
  -23.0715  -23.2163   20.9845 H   0  0  0  0  0  0
  -25.3210  -23.0589   22.1686 H   0  0  0  0  0  0
  -25.9394  -21.4758   21.9908 H   0  0  0  0  0  0
  -27.6218  -20.3787   19.6541 H   0  0  0  0  0  0
  -27.5658  -20.3201   21.3831 H   0  0  0  0  0  0
  -30.9367  -17.4044   21.5136 H   0  0  0  0  0  0
  -30.8074  -17.3186   19.7760 H   0  0  0  0  0  0
  -28.4855  -18.0937   21.6492 H   0  0  0  0  0  0
  -28.3614  -18.0096   19.9184 H   0  0  0  0  0  0
  -25.4447  -22.2556   19.3154 H   0  0  0  0  0  0
  -28.9250  -15.5147   21.0959 H   0  0  0  0  0  0
  -29.9444  -19.9749   21.4292 H   0  0  0  0  0  0
  -29.9519  -19.8588   19.8003 H   0  0  0  0  0  0
  1 25  1  0  0  0
  1 30  2  0  0  0
  1 84  1  0  0  0
  2  3  1  0  0  0
  2 25  1  0  0  0
  2 86  1  0  0  0
  2 87  1  0  0  0
  3  4  1  0  0  0
  3 88  1  0  0  0
  3 89  1  0  0  0
  4  5  1  0  0  0
  4 90  1  0  0  0
  4 91  1  0  0  0
  5  6  1  0  0  0
  5 26  1  0  0  0
  5 92  1  0  0  0
  6 25  1  0  0  0
  6 93  1  0  0  0
  6 94  1  0  0  0
  7  8  2  0  0  0
  7 26  1  0  0  0
  7 29  1  0  0  0
  8  9  1  0  0  0
  8 22  1  0  0  0
  9 10  1  0  0  0
  9 27  2  0  0  0
 10 11  2  0  0  0
 10 15  1  0  0  0
 11 12  1  0  0  0
 11 95  1  0  0  0
 12 13  2  0  0  0
 12 96  1  0  0  0
 13 14  1  0  0  0
 13 31  1  0  0  0
 14 15  2  0  0  0
 14 97  1  0  0  0
 15 98  1  0  0  0
 16 17  2  0  0  0
 16 21  1  0  0  0
 16 31  1  0  0  0
 17 18  1  0  0  0
 17 99  1  0  0  0
 18 19  2  0  0  0
 18100  1  0  0  0
 19 20  1  0  0  0
 19 24  1  0  0  0
 20 21  2  0  0  0
 20101  1  0  0  0
 21 23  1  0  0  0
 22 28  1  0  0  0
 22 32  2  0  0  0
 26 27  1  0  0  0
 28102  1  0  0  0
 28103  1  0  0  0
 29104  1  0  0  0
 29105  1  0  0  0
 33 34  1  0  0  0
 33 66  1  0  0  0
 33 70  2  0  0  0
 34 36  1  0  0  0
 34 59  1  0  0  0
 34106  1  0  0  0
 35 44  2  0  0  0
 35 45  1  0  0  0
 35 68  1  0  0  0
 36 56  1  0  0  0
 36107  1  0  0  0
 37 39  1  0  0  0
 37 47  1  0  0  0
 37 66  1  0  0  0
 37108  1  0  0  0
 38 43  2  0  0  0
 38 46  1  0  0  0
 38 47  1  0  0  0
 39 64  1  0  0  0
 39 67  2  0  0  0
 40 52  1  0  0  0
 40 53  2  0  0  0
 40 58  1  0  0  0
 41109  1  0  0  0
 41110  1  0  0  0
 41111  1  0  0  0
 41 48  1  0  0  0
 42 43  1  0  0  0
 42 66  1  0  0  0
 42112  1  0  0  0
 42113  1  0  0  0
 43 44  1  0  0  0
 44114  1  0  0  0
 45 46  2  0  0  0
 45115  1  0  0  0
 46116  1  0  0  0
 47117  1  0  0  0
 47118  1  0  0  0
 48 56  1  0  0  0
 48 65  1  0  0  0
 48119  1  0  0  0
 49 50  1  0  0  0
 49 53  1  0  0  0
 49 64  1  0  0  0
 49120  1  0  0  0
 50 51  1  0  0  0
 50121  1  0  0  0
 50122  1  0  0  0
 51 52  1  0  0  0
 51123  1  0  0  0
 51124  1  0  0  0
 52125  1  0  0  0
 52126  1  0  0  0
 53 54  1  0  0  0
 54 55  2  0  0  0
 54127  1  0  0  0
 55 57  1  0  0  0
 55128  1  0  0  0
 56 69  2  0  0  0
 57 58  2  0  0  0
 57129  1  0  0  0
 58130  1  0  0  0
 59 60  1  0  0  0
 59 61  1  0  0  0
 59 62  1  0  0  0
 60131  1  0  0  0
 60132  1  0  0  0
 60133  1  0  0  0
 61134  1  0  0  0
 61135  1  0  0  0
 61136  1  0  0  0
 62137  1  0  0  0
 62138  1  0  0  0
 62139  1  0  0  0
 63 65  1  0  0  0
 63140  1  0  0  0
 63141  1  0  0  0
 63142  1  0  0  0
 64143  1  0  0  0
 65144  1  0  0  0
 68 75  1  0  0  0
 71 73  2  0  0  0
 71 75  1  0  0  0
 71145  1  0  0  0
 72 74  2  0  0  0
 72 83  1  0  0  0
 72146  1  0  0  0
 73 74  1  0  0  0
 73 78  1  0  0  0
 74 79  1  0  0  0
 75 83  2  0  0  0
 76147  1  0  0  0
 76148  1  0  0  0
 76149  1  0  0  0
 76 82  1  0  0  0
 77 82  1  0  0  0
 77150  1  0  0  0
 77151  1  0  0  0
 77152  1  0  0  0
 78 82  1  0  0  0
 78153  1  0  0  0
 78154  1  0  0  0
 79 85  1  0  0  0
 79155  1  0  0  0
 79156  1  0  0  0
 80 81  1  0  0  0
 80 84  1  0  0  0
 80157  1  0  0  0
 80158  1  0  0  0
 81 85  1  0  0  0
 81159  1  0  0  0
 81160  1  0  0  0
 82161  1  0  0  0
 84162  1  0  0  0
 85163  1  0  0  0
 85164  1  0  0  0
M  CHG  1  85   1
M  ISO  4   1 100  68 101  75 101  84 100
M  END
> <chiral flag>
0

> <version>
0

> <s_m_source_file>
/data/baiqing/PycharmProjects/Reinvent-master-3.2/result/LINK_invent/BTK/process_docking_weight1_custom_sum_contain_oxygen_bond_distance_aromatic_linkinvent_7_9_3/rearranged_h_0137.sdf

> <i_m_source_file_index>
30

> <r_mmod_Potential_Energy-OPLS-2005>
-263.863342285156

> <r_mmod_Stretch_Energy-OPLS-2005>
77.375

> <r_mmod_Bend_Energy-OPLS-2005>
139.740982055664

> <r_mmod_Torsional_Energy-OPLS-2005>
205.810974121094

> <r_mmod_Improper_Torsional_Energy-OPLS-2005>
5.46739768981934

> <r_mmod_Van_der_Waal_Energy-OPLS-2005>
142.719573974609

> <r_mmod_Electrostatic_Energy-OPLS-2005>
-375.160888671875

> <r_mmod_Solvation_Energy-OPLS-2005>
-505.454956054688

> <b_mmod_Minimization_Converged-OPLS-2005>
0

> <r_mmod_RMS_Derivative-OPLS-2005>
3.05237412452698

$$$$
30
                    3D
 Structure written by MMmdl.
168177  0  0  1  0            999 V2000
  -30.6822  -14.5503   20.5340 C   0  0  0  0  0  0
  -30.4222  -12.3469   19.4380 C   0  0  0  0  0  0
  -29.4960  -12.4996   18.2138 C   0  0  0  0  0  0
  -28.0192  -12.3506   18.6285 C   0  0  0  0  0  0
  -27.6536  -13.2154   19.8651 C   0  0  2  0  0  0
  -28.6976  -13.0529   20.9920 C   0  0  0  0  0  0
  -25.2557  -13.8176   20.5685 C   0  0  0  0  0  0
  -24.1822  -13.0441   20.9189 C   0  0  0  0  0  0
  -24.6390  -11.6913   20.8743 C   0  0  0  0  0  0
  -23.9063  -10.4295   21.0410 C   0  0  0  0  0  0
  -24.3616   -9.4209   21.9186 C   0  0  0  0  0  0
  -23.6291   -8.2243   22.0754 C   0  0  0  0  0  0
  -22.4273   -8.0281   21.3546 C   0  0  0  0  0  0
  -21.9909   -9.0256   20.4648 C   0  0  0  0  0  0
  -22.7238  -10.2137   20.3058 C   0  0  0  0  0  0
  -21.6852   -6.0736   22.5280 C   0  0  0  0  0  0
  -21.4013   -6.5640   23.8214 C   0  0  0  0  0  0
  -21.3659   -5.6792   24.9175 C   0  0  0  0  0  0
  -21.6043   -4.3055   24.7226 C   0  0  0  0  0  0
  -21.8819   -3.8147   23.4347 C   0  0  0  0  0  0
  -21.9192   -4.6964   22.3403 C   0  0  0  0  0  0
  -22.7844  -13.5233   21.1854 C   0  0  0  0  0  0
  -22.1660   -4.2150   21.0981 F   0  0  0  0  0  0
  -21.5630   -3.4540   25.7739 F   0  0  0  0  0  0
  -30.0175  -13.3640   20.4247 N   0  0  0  0  0  0
  -26.2988  -12.9359   20.3337 N   0  0  0  0  0  0
  -25.9318  -11.6513   20.5769 N   0  0  0  0  0  0
  -22.0490  -12.8223   22.0413 N   0  0  0  0  0  0
  -25.4270  -15.1896   20.4089 N   0  0  0  0  0  0
  -31.8405  -14.6878   20.1329 O   0  0  0  0  0  0
  -21.6638   -6.8878   21.4241 O   0  0  0  0  0  0
  -22.3529  -14.5543   20.6709 O   0  0  0  0  0  0
  -24.6195  -31.8643   23.2071 C   0  0  0  0  0  0
  -25.9065  -32.4806   23.8383 C   0  0  1  0  0  0
  -27.2283  -27.3920   20.1071 C   0  0  0  0  0  0
  -25.5908  -33.8603   24.2313 N   0  0  0  0  0  0
  -23.4113  -30.4869   21.5474 C   0  0  2  0  0  0
  -24.8608  -28.9514   20.1092 C   0  0  0  0  0  0
  -22.7444  -29.4638   22.4958 C   0  0  0  0  0  0
  -18.0279  -28.1384   22.8487 C   0  0  0  0  0  0
  -24.1486  -36.7301   23.2638 C   0  0  0  0  0  0
  -25.9447  -30.8174   21.3680 C   0  0  0  0  0  0
  -26.0240  -29.4498   20.7121 C   0  0  0  0  0  0
  -27.2153  -28.6773   20.7085 C   0  0  0  0  0  0
  -26.0534  -26.9235   19.4867 C   0  0  0  0  0  0
  -24.8728  -27.6895   19.4902 C   0  0  0  0  0  0
  -23.6235  -29.8210   20.1616 C   0  0  0  0  0  0
  -25.4106  -36.3099   24.0337 C   0  0  1  0  0  0
  -20.5874  -28.3677   23.1301 C   0  0  2  0  0  0
  -20.6765  -26.9406   22.5418 C   0  0  0  0  0  0
  -19.5747  -26.6383   21.5214 C   0  0  0  0  0  0
  -18.1923  -26.7927   22.1621 C   0  0  0  0  0  0
  -19.1530  -28.8845   23.2891 C   0  0  0  0  0  0
  -18.9458  -30.1449   23.8907 C   0  0  0  0  0  0
  -17.6460  -30.6588   24.0563 C   0  0  0  0  0  0
  -25.9040  -34.9467   23.5123 C   0  0  0  0  0  0
  -16.5350  -29.9088   23.6331 C   0  0  0  0  0  0
  -16.7267  -28.6505   23.0352 C   0  0  0  0  0  0
  -26.4483  -31.6594   25.0725 C   0  0  0  0  0  0
  -25.3740  -31.3703   26.1469 C   0  0  0  0  0  0
  -27.0324  -30.3032   24.6125 C   0  0  0  0  0  0
  -27.6057  -32.4316   25.7484 C   0  0  0  0  0  0
  -27.5578  -37.1801   24.8466 C   0  0  0  0  0  0
  -21.4163  -29.3034   22.3700 N   0  0  0  0  0  0
  -26.4288  -37.3788   23.9413 N   0  0  0  0  0  0
  -24.6767  -31.0712   22.0987 N   0  0  0  0  0  0
  -23.4192  -28.8185   23.3023 O   0  0  0  0  0  0
  -28.3212  -26.5423   20.1454 O   0  0  0  0  0  0
  -26.5604  -34.8916   22.4686 O   0  0  0  0  0  0
  -23.5373  -32.1409   23.7438 O   0  0  0  0  0  0
  -28.3110  -23.3083   19.9281 C   0  0  0  0  0  0
  -28.6310  -21.9216   19.8910 C   0  0  0  0  0  0
  -29.4989  -23.5031   22.0139 C   0  0  0  0  0  0
  -28.7281  -24.1235   21.0050 C   0  0  0  0  0  0
  -29.8320  -22.1205   21.9914 C   0  0  0  0  0  0
  -29.3695  -21.2855   20.9269 C   0  0  0  0  0  0
  -30.6799  -17.8688   19.8483 C   0  0  0  0  0  0
  -29.7722  -17.8072   22.2971 C   0  0  0  0  0  0
  -29.8037  -19.1446   19.6570 C   0  0  0  0  0  0
  -28.9285  -19.0443   21.8890 C   0  0  0  0  0  0
  -30.4675  -17.0169   21.1459 C   0  0  0  0  0  0
  -29.9729  -21.6610   24.4893 C   0  0  0  0  0  0
  -32.0608  -22.3065   23.2022 C   0  0  0  0  0  0
  -28.2281  -25.5768   21.2254 C   0  0  0  0  0  0
  -30.7025  -21.5865   23.1366 C   0  0  0  0  0  0
  -29.6288  -19.8786   20.9105 N   0  0  0  0  0  0
  -29.9612  -15.6241   20.9530 N   0  0  0  0  0  0
  -31.4666  -12.4468   19.1371 H   0  0  0  0  0  0
  -30.3308  -11.3484   19.8685 H   0  0  0  0  0  0
  -29.7475  -11.7569   17.4556 H   0  0  0  0  0  0
  -29.6520  -13.4752   17.7508 H   0  0  0  0  0  0
  -27.8448  -11.2971   18.8504 H   0  0  0  0  0  0
  -27.3651  -12.5955   17.7908 H   0  0  0  0  0  0
  -27.6801  -14.2543   19.5356 H   0  0  0  0  0  0
  -28.6905  -12.0322   21.3768 H   0  0  0  0  0  0
  -28.4573  -13.6926   21.8425 H   0  0  0  0  0  0
  -25.2762   -9.5683   22.4760 H   0  0  0  0  0  0
  -24.0002   -7.4632   22.7472 H   0  0  0  0  0  0
  -21.0841   -8.8775   19.8951 H   0  0  0  0  0  0
  -22.3698  -10.9676   19.6167 H   0  0  0  0  0  0
  -21.2005   -7.6149   23.9717 H   0  0  0  0  0  0
  -21.1481   -6.0523   25.9078 H   0  0  0  0  0  0
  -22.0599   -2.7609   23.2848 H   0  0  0  0  0  0
  -22.4105  -11.9878   22.4791 H   0  0  0  0  0  0
  -21.1113  -13.1252   22.2635 H   0  0  0  0  0  0
  -24.6593  -15.8440   20.5143 H   0  0  0  0  0  0
  -26.2764  -15.6280   20.0762 H   0  0  0  0  0  0
  -26.7138  -32.5507   23.1144 H   0  0  0  0  0  0
  -25.0070  -33.9761   25.0466 H   0  0  0  0  0  0
  -22.7022  -31.3052   21.4058 H   0  0  0  0  0  0
  -23.3750  -35.9635   23.3315 H   0  0  0  0  0  0
  -24.3576  -36.8910   22.2050 H   0  0  0  0  0  0
  -23.7238  -37.6505   23.6650 H   0  0  0  0  0  0
  -26.0645  -31.5837   20.6009 H   0  0  0  0  0  0
  -26.8291  -30.8686   21.9913 H   0  0  0  0  0  0
  -28.1090  -29.0481   21.1903 H   0  0  0  0  0  0
  -26.0471  -25.9468   19.0233 H   0  0  0  0  0  0
  -23.9791  -27.3001   19.0221 H   0  0  0  0  0  0
  -23.7332  -30.5972   19.4031 H   0  0  0  0  0  0
  -22.7467  -29.2434   19.8639 H   0  0  0  0  0  0
  -25.1286  -36.1959   25.0832 H   0  0  0  0  0  0
  -20.9967  -28.3251   24.1421 H   0  0  0  0  0  0
  -20.5675  -26.2284   23.3610 H   0  0  0  0  0  0
  -21.6633  -26.7451   22.1203 H   0  0  0  0  0  0
  -19.6914  -25.6298   21.1233 H   0  0  0  0  0  0
  -19.6686  -27.3196   20.6748 H   0  0  0  0  0  0
  -17.4193  -26.6680   21.4021 H   0  0  0  0  0  0
  -18.0326  -26.0069   22.9018 H   0  0  0  0  0  0
  -19.7938  -30.7258   24.2281 H   0  0  0  0  0  0
  -17.5017  -31.6268   24.5162 H   0  0  0  0  0  0
  -15.5350  -30.2993   23.7651 H   0  0  0  0  0  0
  -15.8666  -28.0824   22.7070 H   0  0  0  0  0  0
  -24.5915  -30.7051   25.7798 H   0  0  0  0  0  0
  -24.8927  -32.2857   26.4923 H   0  0  0  0  0  0
  -25.8085  -30.8863   27.0225 H   0  0  0  0  0  0
  -26.2877  -29.6782   24.1181 H   0  0  0  0  0  0
  -27.4091  -29.7282   25.4596 H   0  0  0  0  0  0
  -27.8714  -30.4349   23.9288 H   0  0  0  0  0  0
  -27.2683  -33.3613   26.2077 H   0  0  0  0  0  0
  -28.3855  -32.6883   25.0300 H   0  0  0  0  0  0
  -28.0736  -31.8429   26.5388 H   0  0  0  0  0  0
  -28.2600  -38.0093   24.7512 H   0  0  0  0  0  0
  -28.1069  -36.2625   24.6295 H   0  0  0  0  0  0
  -27.2293  -37.1458   25.8868 H   0  0  0  0  0  0
  -20.9336  -29.8759   21.6916 H   0  0  0  0  0  0
  -26.0181  -38.2868   24.1416 H   0  0  0  0  0  0
  -27.7009  -23.7348   19.1445 H   0  0  0  0  0  0
  -28.2605  -21.3372   19.0612 H   0  0  0  0  0  0
  -29.8189  -24.1013   22.8544 H   0  0  0  0  0  0
  -31.7171  -18.2080   19.8560 H   0  0  0  0  0  0
  -30.6061  -17.2400   18.9600 H   0  0  0  0  0  0
  -29.1668  -17.1391   22.9107 H   0  0  0  0  0  0
  -30.5529  -18.1651   22.9699 H   0  0  0  0  0  0
  -28.8232  -18.8595   19.2710 H   0  0  0  0  0  0
  -30.2570  -19.7888   18.9016 H   0  0  0  0  0  0
  -28.6573  -19.6194   22.7739 H   0  0  0  0  0  0
  -27.9847  -18.7101   21.4537 H   0  0  0  0  0  0
  -31.4775  -16.8510   21.5283 H   0  0  0  0  0  0
  -29.0254  -21.1231   24.4604 H   0  0  0  0  0  0
  -29.7581  -22.6897   24.7786 H   0  0  0  0  0  0
  -30.5741  -21.2168   25.2831 H   0  0  0  0  0  0
  -32.5934  -22.2200   22.2545 H   0  0  0  0  0  0
  -32.6969  -21.8725   23.9745 H   0  0  0  0  0  0
  -31.9547  -23.3674   23.4290 H   0  0  0  0  0  0
  -28.7731  -26.0059   22.0672 H   0  0  0  0  0  0
  -27.1983  -25.4821   21.5772 H   0  0  0  0  0  0
  -30.9378  -20.5397   22.9580 H   0  0  0  0  0  0
  -29.0017  -15.4422   21.2067 H   0  0  0  0  0  0
  1 25  1  0  0  0
  1 30  2  0  0  0
  1 87  1  0  0  0
  2  3  1  0  0  0
  2 25  1  0  0  0
  2 88  1  0  0  0
  2 89  1  0  0  0
  3  4  1  0  0  0
  3 90  1  0  0  0
  3 91  1  0  0  0
  4  5  1  0  0  0
  4 92  1  0  0  0
  4 93  1  0  0  0
  5  6  1  0  0  0
  5 26  1  0  0  0
  5 94  1  0  0  0
  6 25  1  0  0  0
  6 95  1  0  0  0
  6 96  1  0  0  0
  7  8  2  0  0  0
  7 26  1  0  0  0
  7 29  1  0  0  0
  8  9  1  0  0  0
  8 22  1  0  0  0
  9 10  1  0  0  0
  9 27  2  0  0  0
 10 11  2  0  0  0
 10 15  1  0  0  0
 11 12  1  0  0  0
 11 97  1  0  0  0
 12 13  2  0  0  0
 12 98  1  0  0  0
 13 14  1  0  0  0
 13 31  1  0  0  0
 14 15  2  0  0  0
 14 99  1  0  0  0
 15100  1  0  0  0
 16 17  2  0  0  0
 16 21  1  0  0  0
 16 31  1  0  0  0
 17 18  1  0  0  0
 17101  1  0  0  0
 18 19  2  0  0  0
 18102  1  0  0  0
 19 20  1  0  0  0
 19 24  1  0  0  0
 20 21  2  0  0  0
 20103  1  0  0  0
 21 23  1  0  0  0
 22 28  1  0  0  0
 22 32  2  0  0  0
 26 27  1  0  0  0
 28104  1  0  0  0
 28105  1  0  0  0
 29106  1  0  0  0
 29107  1  0  0  0
 33 34  1  0  0  0
 33 66  1  0  0  0
 33 70  2  0  0  0
 34 36  1  0  0  0
 34 59  1  0  0  0
 34108  1  0  0  0
 35 44  2  0  0  0
 35 45  1  0  0  0
 35 68  1  0  0  0
 36 56  1  0  0  0
 36109  1  0  0  0
 37 39  1  0  0  0
 37 47  1  0  0  0
 37 66  1  0  0  0
 37110  1  0  0  0
 38 43  2  0  0  0
 38 46  1  0  0  0
 38 47  1  0  0  0
 39 64  1  0  0  0
 39 67  2  0  0  0
 40 52  1  0  0  0
 40 53  2  0  0  0
 40 58  1  0  0  0
 41111  1  0  0  0
 41112  1  0  0  0
 41113  1  0  0  0
 41 48  1  0  0  0
 42 43  1  0  0  0
 42 66  1  0  0  0
 42114  1  0  0  0
 42115  1  0  0  0
 43 44  1  0  0  0
 44116  1  0  0  0
 45 46  2  0  0  0
 45117  1  0  0  0
 46118  1  0  0  0
 47119  1  0  0  0
 47120  1  0  0  0
 48 56  1  0  0  0
 48 65  1  0  0  0
 48121  1  0  0  0
 49 50  1  0  0  0
 49 53  1  0  0  0
 49 64  1  0  0  0
 49122  1  0  0  0
 50 51  1  0  0  0
 50123  1  0  0  0
 50124  1  0  0  0
 51 52  1  0  0  0
 51125  1  0  0  0
 51126  1  0  0  0
 52127  1  0  0  0
 52128  1  0  0  0
 53 54  1  0  0  0
 54 55  2  0  0  0
 54129  1  0  0  0
 55 57  1  0  0  0
 55130  1  0  0  0
 56 69  2  0  0  0
 57 58  2  0  0  0
 57131  1  0  0  0
 58132  1  0  0  0
 59 60  1  0  0  0
 59 61  1  0  0  0
 59 62  1  0  0  0
 60133  1  0  0  0
 60134  1  0  0  0
 60135  1  0  0  0
 61136  1  0  0  0
 61137  1  0  0  0
 61138  1  0  0  0
 62139  1  0  0  0
 62140  1  0  0  0
 62141  1  0  0  0
 63 65  1  0  0  0
 63142  1  0  0  0
 63143  1  0  0  0
 63144  1  0  0  0
 64145  1  0  0  0
 65146  1  0  0  0
 68 84  1  0  0  0
 71 72  2  0  0  0
 71 74  1  0  0  0
 71147  1  0  0  0
 72 76  1  0  0  0
 72148  1  0  0  0
 73 74  2  0  0  0
 73 75  1  0  0  0
 73149  1  0  0  0
 74 84  1  0  0  0
 75 76  2  0  0  0
 75 85  1  0  0  0
 76 86  1  0  0  0
 77 79  1  0  0  0
 77 81  1  0  0  0
 77150  1  0  0  0
 77151  1  0  0  0
 78 80  1  0  0  0
 78 81  1  0  0  0
 78152  1  0  0  0
 78153  1  0  0  0
 79 86  1  0  0  0
 79154  1  0  0  0
 79155  1  0  0  0
 80 86  1  0  0  0
 80156  1  0  0  0
 80157  1  0  0  0
 81 87  1  0  0  0
 81158  1  0  0  0
 82159  1  0  0  0
 82160  1  0  0  0
 82161  1  0  0  0
 82 85  1  0  0  0
 83 85  1  0  0  0
 83162  1  0  0  0
 83163  1  0  0  0
 83164  1  0  0  0
 84165  1  0  0  0
 84166  1  0  0  0
 85167  1  0  0  0
 87168  1  0  0  0
M  ISO  4   1 100  68 101  84 101  87 100
M  END
> <chiral flag>
0

> <version>
0

> <s_m_source_file>
/data/baiqing/PycharmProjects/Reinvent-master-3.2/result/LINK_invent/BTK/process_docking_weight1_custom_sum_contain_oxygen_bond_distance_aromatic_linkinvent_7_9_3/rearranged_h_0137.sdf

> <i_m_source_file_index>
31

> <r_mmod_Potential_Energy-OPLS-2005>
80.7587890625

> <r_mmod_Stretch_Energy-OPLS-2005>
54.6633224487305

> <r_mmod_Bend_Energy-OPLS-2005>
131.747314453125

> <r_mmod_Torsional_Energy-OPLS-2005>
288.828033447266

> <r_mmod_Improper_Torsional_Energy-OPLS-2005>
7.64139080047607

> <r_mmod_Van_der_Waal_Energy-OPLS-2005>
150.426742553711

> <r_mmod_Electrostatic_Energy-OPLS-2005>
-372.734588623047

> <r_mmod_Solvation_Energy-OPLS-2005>
-207.490127563477

> <b_mmod_Minimization_Converged-OPLS-2005>
0

> <r_mmod_RMS_Derivative-OPLS-2005>
0.583467245101929

$$$$
31
                    3D
 Structure written by MMmdl.
163173  0  0  1  0            999 V2000
  -30.5426  -14.9803   20.4190 C   0  0  0  0  0  0
  -30.4453  -12.6123   19.4804 C   0  0  0  0  0  0
  -29.5220  -12.5255   18.2444 C   0  0  0  0  0  0
  -28.0597  -12.3029   18.6753 C   0  0  0  0  0  0
  -27.6298  -13.2473   19.8275 C   0  0  2  0  0  0
  -28.6768  -13.3045   20.9571 C   0  0  0  0  0  0
  -25.2477  -13.8195   20.5674 C   0  0  0  0  0  0
  -24.1788  -13.0425   20.9192 C   0  0  0  0  0  0
  -24.6408  -11.6910   20.8724 C   0  0  0  0  0  0
  -23.9090  -10.4281   21.0406 C   0  0  0  0  0  0
  -24.3641   -9.4197   21.9188 C   0  0  0  0  0  0
  -23.6305   -8.2243   22.0755 C   0  0  0  0  0  0
  -22.4277   -8.0287   21.3546 C   0  0  0  0  0  0
  -21.9925   -9.0267   20.4656 C   0  0  0  0  0  0
  -22.7269  -10.2139   20.3067 C   0  0  0  0  0  0
  -21.6868   -6.0746   22.5271 C   0  0  0  0  0  0
  -21.4036   -6.5646   23.8207 C   0  0  0  0  0  0
  -21.3641   -5.6786   24.9157 C   0  0  0  0  0  0
  -21.6039   -4.3048   24.7206 C   0  0  0  0  0  0
  -21.8821   -3.8150   23.4324 C   0  0  0  0  0  0
  -21.9191   -4.6978   22.3378 C   0  0  0  0  0  0
  -22.7820  -13.5205   21.1839 C   0  0  0  0  0  0
  -22.1661   -4.2158   21.0957 F   0  0  0  0  0  0
  -21.5612   -3.4518   25.7718 F   0  0  0  0  0  0
  -29.9413  -13.7223   20.3385 N   0  0  0  0  0  0
  -26.2899  -12.9430   20.3214 N   0  0  0  0  0  0
  -25.9354  -11.6554   20.5722 N   0  0  0  0  0  0
  -22.0470  -12.8219   22.0409 N   0  0  0  0  0  0
  -25.4115  -15.1918   20.4044 N   0  0  0  0  0  0
  -31.7677  -15.0139   20.2390 O   0  0  0  0  0  0
  -21.6637   -6.8897   21.4237 O   0  0  0  0  0  0
  -22.3499  -14.5502   20.6666 O   0  0  0  0  0  0
  -24.6514  -31.8397   23.1875 C   0  0  0  0  0  0
  -25.9298  -32.4652   23.8237 C   0  0  1  0  0  0
  -27.1974  -27.0955   20.1280 C   0  0  0  0  0  0
  -25.6040  -33.8461   24.2172 N   0  0  0  0  0  0
  -23.4516  -30.4646   21.5320 C   0  0  2  0  0  0
  -24.8909  -28.8848   20.1045 C   0  0  0  0  0  0
  -22.7599  -29.4553   22.4822 C   0  0  0  0  0  0
  -18.0321  -28.1378   22.8496 C   0  0  0  0  0  0
  -24.1493  -36.7246   23.2635 C   0  0  0  0  0  0
  -26.0127  -30.6971   21.3923 C   0  0  0  0  0  0
  -26.0729  -29.3079   20.7240 C   0  0  0  0  0  0
  -27.2235  -28.4288   20.7200 C   0  0  0  0  0  0
  -25.9870  -26.7871   19.4643 C   0  0  0  0  0  0
  -24.8637  -27.6396   19.4599 C   0  0  0  0  0  0
  -23.6776  -29.7987   20.1492 C   0  0  0  0  0  0
  -25.4130  -36.2996   24.0300 C   0  0  1  0  0  0
  -20.5939  -28.3743   23.1212 C   0  0  2  0  0  0
  -20.6792  -26.9436   22.5384 C   0  0  0  0  0  0
  -19.5752  -26.6374   21.5221 C   0  0  0  0  0  0
  -18.1940  -26.7927   22.1634 C   0  0  0  0  0  0
  -19.1578  -28.8875   23.2845 C   0  0  0  0  0  0
  -18.9496  -30.1470   23.8861 C   0  0  0  0  0  0
  -17.6487  -30.6584   24.0547 C   0  0  0  0  0  0
  -25.9105  -34.9381   23.5039 C   0  0  0  0  0  0
  -16.5377  -29.9069   23.6322 C   0  0  0  0  0  0
  -16.7294  -28.6472   23.0364 C   0  0  0  0  0  0
  -26.4576  -31.6553   25.0725 C   0  0  0  0  0  0
  -25.3765  -31.3773   26.1432 C   0  0  0  0  0  0
  -27.0444  -30.2934   24.6387 C   0  0  0  0  0  0
  -27.6070  -32.4359   25.7524 C   0  0  0  0  0  0
  -27.5586  -37.1770   24.8455 C   0  0  0  0  0  0
  -21.4294  -29.3067   22.3591 N   0  0  0  0  0  0
  -26.4274  -37.3740   23.9427 N   0  0  0  0  0  0
  -24.7246  -31.0241   22.0911 N   0  0  0  0  0  0
  -23.4241  -28.8111   23.2993 O   0  0  0  0  0  0
  -28.2485  -26.1010   20.2229 O   0  0  0  0  0  0
  -26.5648  -34.8888   22.4598 O   0  0  0  0  0  0
  -23.5639  -32.1256   23.7106 O   0  0  0  0  0  0
  -30.2365  -20.3916   21.5886 C   0  0  0  0  0  0
  -29.2091  -18.8136   20.1042 C   0  0  0  0  0  0
  -29.3377  -20.2414   20.5203 C   0  0  0  0  0  0
  -30.9142  -19.2798   22.1472 C   0  0  0  0  0  0
  -29.9452  -17.6598   20.6980 C   0  0  0  0  0  0
  -31.5014  -20.4469   24.4410 C   0  0  0  0  0  0
  -32.6774  -20.6895   23.5262 C   0  0  0  0  0  0
  -27.0585  -21.3269   20.1158 C   0  0  0  0  0  0
  -26.7548  -21.8919   21.5058 C   0  0  0  0  0  0
  -28.5552  -21.5917   19.9441 C   0  0  1  0  0  0
  -31.8213  -19.4544   23.3414 C   0  0  0  0  0  0
  -28.5823  -23.1730   20.5848 C   0  0  1  0  0  0
  -28.1772  -24.5970   19.7498 C   0  0  0  0  0  0
  -30.7850  -17.9955   21.7081 N   0  0  0  0  0  0
  -29.7460  -16.1694   20.3715 N   0  0  0  0  0  0
  -27.6074  -23.0831   21.6953 N   0  3  0  0  0  0
  -31.4769  -12.7767   19.1594 H   0  0  0  0  0  0
  -30.4476  -11.6702   20.0290 H   0  0  0  0  0  0
  -29.8468  -11.7170   17.5875 H   0  0  0  0  0  0
  -29.5982  -13.4415   17.6556 H   0  0  0  0  0  0
  -27.9736  -11.2680   19.0096 H   0  0  0  0  0  0
  -27.3861  -12.4020   17.8215 H   0  0  0  0  0  0
  -27.5845  -14.2407   19.3803 H   0  0  0  0  0  0
  -28.7752  -12.3412   21.4605 H   0  0  0  0  0  0
  -28.3758  -14.0278   21.7178 H   0  0  0  0  0  0
  -25.2806   -9.5646   22.4745 H   0  0  0  0  0  0
  -23.9994   -7.4632   22.7494 H   0  0  0  0  0  0
  -21.0846   -8.8818   19.8980 H   0  0  0  0  0  0
  -22.3756  -10.9679   19.6157 H   0  0  0  0  0  0
  -21.2074   -7.6158   23.9712 H   0  0  0  0  0  0
  -21.1452   -6.0509   25.9052 H   0  0  0  0  0  0
  -22.0627   -2.7611   23.2807 H   0  0  0  0  0  0
  -22.4077  -11.9913   22.4857 H   0  0  0  0  0  0
  -21.1087  -13.1267   22.2609 H   0  0  0  0  0  0
  -24.6306  -15.8351   20.4946 H   0  0  0  0  0  0
  -26.2434  -15.6330   20.0360 H   0  0  0  0  0  0
  -26.7380  -32.5222   23.0947 H   0  0  0  0  0  0
  -25.0200  -33.9534   25.0332 H   0  0  0  0  0  0
  -22.7566  -31.2921   21.3796 H   0  0  0  0  0  0
  -23.3756  -35.9577   23.3253 H   0  0  0  0  0  0
  -24.3570  -36.8939   22.2058 H   0  0  0  0  0  0
  -23.7244  -37.6428   23.6705 H   0  0  0  0  0  0
  -26.1849  -31.4526   20.6243 H   0  0  0  0  0  0
  -26.8799  -30.7318   22.0412 H   0  0  0  0  0  0
  -28.1237  -28.7500   21.2236 H   0  0  0  0  0  0
  -25.8508  -25.8495   18.9501 H   0  0  0  0  0  0
  -23.9614  -27.3143   18.9583 H   0  0  0  0  0  0
  -23.8305  -30.5748   19.3976 H   0  0  0  0  0  0
  -22.7868  -29.2525   19.8287 H   0  0  0  0  0  0
  -25.1313  -36.1801   25.0786 H   0  0  0  0  0  0
  -21.0024  -28.3339   24.1337 H   0  0  0  0  0  0
  -20.5717  -26.2355   23.3614 H   0  0  0  0  0  0
  -21.6662  -26.7429   22.1179 H   0  0  0  0  0  0
  -19.6902  -25.6281   21.1257 H   0  0  0  0  0  0
  -19.6678  -27.3171   20.6744 H   0  0  0  0  0  0
  -17.4217  -26.6705   21.4017 H   0  0  0  0  0  0
  -18.0317  -26.0063   22.9018 H   0  0  0  0  0  0
  -19.7974  -30.7303   24.2213 H   0  0  0  0  0  0
  -17.5032  -31.6254   24.5170 H   0  0  0  0  0  0
  -15.5366  -30.2940   23.7664 H   0  0  0  0  0  0
  -15.8707  -28.0757   22.7094 H   0  0  0  0  0  0
  -24.5909  -30.7155   25.7789 H   0  0  0  0  0  0
  -24.8999  -32.2970   26.4845 H   0  0  0  0  0  0
  -25.8074  -30.8956   27.0227 H   0  0  0  0  0  0
  -26.3068  -29.6648   24.1397 H   0  0  0  0  0  0
  -27.3992  -29.7270   25.5013 H   0  0  0  0  0  0
  -27.9012  -30.4110   23.9748 H   0  0  0  0  0  0
  -27.2593  -33.3640   26.2060 H   0  0  0  0  0  0
  -28.3902  -32.6981   25.0406 H   0  0  0  0  0  0
  -28.0717  -31.8545   26.5486 H   0  0  0  0  0  0
  -28.2554  -38.0106   24.7536 H   0  0  0  0  0  0
  -28.1119  -36.2639   24.6216 H   0  0  0  0  0  0
  -27.2305  -37.1352   25.8851 H   0  0  0  0  0  0
  -20.9520  -29.8795   21.6777 H   0  0  0  0  0  0
  -26.0125  -38.2803   24.1464 H   0  0  0  0  0  0
  -30.3969  -21.3761   22.0029 H   0  0  0  0  0  0
  -28.5202  -18.5961   19.2983 H   0  0  0  0  0  0
  -30.6308  -21.0868   24.3208 H   0  0  0  0  0  0
  -31.7392  -20.1791   25.4685 H   0  0  0  0  0  0
  -33.6649  -20.5558   23.9586 H   0  0  0  0  0  0
  -32.5892  -21.4944   22.8001 H   0  0  0  0  0  0
  -26.4888  -21.8796   19.3681 H   0  0  0  0  0  0
  -26.7746  -20.2784   20.0222 H   0  0  0  0  0  0
  -27.0067  -21.1562   22.2695 H   0  0  0  0  0  0
  -25.6979  -22.1336   21.6226 H   0  0  0  0  0  0
  -28.8085  -21.6446   18.8835 H   0  0  0  0  0  0
  -32.2540  -18.5064   23.6546 H   0  0  0  0  0  0
  -29.5756  -23.3433   20.9986 H   0  0  0  0  0  0
  -27.1924  -24.3932   19.3427 H   0  0  0  0  0  0
  -28.8115  -24.5905   18.8621 H   0  0  0  0  0  0
  -28.7904  -15.9495   20.1477 H   0  0  0  0  0  0
  -28.0725  -23.0302   22.5889 H   0  0  0  0  0  0
  -27.0273  -23.9094   21.7028 H   0  0  0  0  0  0
  1 25  1  0  0  0
  1 30  2  0  0  0
  1 85  1  0  0  0
  2  3  1  0  0  0
  2 25  1  0  0  0
  2 87  1  0  0  0
  2 88  1  0  0  0
  3  4  1  0  0  0
  3 89  1  0  0  0
  3 90  1  0  0  0
  4  5  1  0  0  0
  4 91  1  0  0  0
  4 92  1  0  0  0
  5  6  1  0  0  0
  5 26  1  0  0  0
  5 93  1  0  0  0
  6 25  1  0  0  0
  6 94  1  0  0  0
  6 95  1  0  0  0
  7  8  2  0  0  0
  7 26  1  0  0  0
  7 29  1  0  0  0
  8  9  1  0  0  0
  8 22  1  0  0  0
  9 10  1  0  0  0
  9 27  2  0  0  0
 10 11  2  0  0  0
 10 15  1  0  0  0
 11 12  1  0  0  0
 11 96  1  0  0  0
 12 13  2  0  0  0
 12 97  1  0  0  0
 13 14  1  0  0  0
 13 31  1  0  0  0
 14 15  2  0  0  0
 14 98  1  0  0  0
 15 99  1  0  0  0
 16 17  2  0  0  0
 16 21  1  0  0  0
 16 31  1  0  0  0
 17 18  1  0  0  0
 17100  1  0  0  0
 18 19  2  0  0  0
 18101  1  0  0  0
 19 20  1  0  0  0
 19 24  1  0  0  0
 20 21  2  0  0  0
 20102  1  0  0  0
 21 23  1  0  0  0
 22 28  1  0  0  0
 22 32  2  0  0  0
 26 27  1  0  0  0
 28103  1  0  0  0
 28104  1  0  0  0
 29105  1  0  0  0
 29106  1  0  0  0
 33 34  1  0  0  0
 33 66  1  0  0  0
 33 70  2  0  0  0
 34 36  1  0  0  0
 34 59  1  0  0  0
 34107  1  0  0  0
 35 44  2  0  0  0
 35 45  1  0  0  0
 35 68  1  0  0  0
 36 56  1  0  0  0
 36108  1  0  0  0
 37 39  1  0  0  0
 37 47  1  0  0  0
 37 66  1  0  0  0
 37109  1  0  0  0
 38 43  2  0  0  0
 38 46  1  0  0  0
 38 47  1  0  0  0
 39 64  1  0  0  0
 39 67  2  0  0  0
 40 52  1  0  0  0
 40 53  2  0  0  0
 40 58  1  0  0  0
 41110  1  0  0  0
 41111  1  0  0  0
 41112  1  0  0  0
 41 48  1  0  0  0
 42 43  1  0  0  0
 42 66  1  0  0  0
 42113  1  0  0  0
 42114  1  0  0  0
 43 44  1  0  0  0
 44115  1  0  0  0
 45 46  2  0  0  0
 45116  1  0  0  0
 46117  1  0  0  0
 47118  1  0  0  0
 47119  1  0  0  0
 48 56  1  0  0  0
 48 65  1  0  0  0
 48120  1  0  0  0
 49 50  1  0  0  0
 49 53  1  0  0  0
 49 64  1  0  0  0
 49121  1  0  0  0
 50 51  1  0  0  0
 50122  1  0  0  0
 50123  1  0  0  0
 51 52  1  0  0  0
 51124  1  0  0  0
 51125  1  0  0  0
 52126  1  0  0  0
 52127  1  0  0  0
 53 54  1  0  0  0
 54 55  2  0  0  0
 54128  1  0  0  0
 55 57  1  0  0  0
 55129  1  0  0  0
 56 69  2  0  0  0
 57 58  2  0  0  0
 57130  1  0  0  0
 58131  1  0  0  0
 59 60  1  0  0  0
 59 61  1  0  0  0
 59 62  1  0  0  0
 60132  1  0  0  0
 60133  1  0  0  0
 60134  1  0  0  0
 61135  1  0  0  0
 61136  1  0  0  0
 61137  1  0  0  0
 62138  1  0  0  0
 62139  1  0  0  0
 62140  1  0  0  0
 63 65  1  0  0  0
 63141  1  0  0  0
 63142  1  0  0  0
 63143  1  0  0  0
 64144  1  0  0  0
 65145  1  0  0  0
 68 83  1  0  0  0
 71 73  2  0  0  0
 71 74  1  0  0  0
 71146  1  0  0  0
 72 73  1  0  0  0
 72 75  2  0  0  0
 72147  1  0  0  0
 73 80  1  0  0  0
 74 84  2  0  0  0
 74 81  1  0  0  0
 75 84  1  0  0  0
 75 85  1  0  0  0
 76 77  1  0  0  0
 76 81  1  0  0  0
 76148  1  0  0  0
 76149  1  0  0  0
 77 81  1  0  0  0
 77150  1  0  0  0
 77151  1  0  0  0
 78 79  1  0  0  0
 78 80  1  0  0  0
 78152  1  0  0  0
 78153  1  0  0  0
 79 86  1  0  0  0
 79154  1  0  0  0
 79155  1  0  0  0
 80 82  1  0  0  0
 80156  1  0  0  0
 81157  1  0  0  0
 82 83  1  0  0  0
 82 86  1  0  0  0
 82158  1  0  0  0
 83159  1  0  0  0
 83160  1  0  0  0
 85161  1  0  0  0
 86162  1  0  0  0
 86163  1  0  0  0
M  CHG  1  86   1
M  ISO  4   1 100  68 101  83 101  85 100
M  END
> <chiral flag>
0

> <version>
0

> <s_m_source_file>
/data/baiqing/PycharmProjects/Reinvent-master-3.2/result/LINK_invent/BTK/process_docking_weight1_custom_sum_contain_oxygen_bond_distance_aromatic_linkinvent_7_9_3/rearranged_h_0137.sdf

> <i_m_source_file_index>
32

> <r_mmod_Potential_Energy-OPLS-2005>
349.866516113281

> <r_mmod_Stretch_Energy-OPLS-2005>
287.429504394531

> <r_mmod_Bend_Energy-OPLS-2005>
302.101776123047

> <r_mmod_Torsional_Energy-OPLS-2005>
330.702545166016

> <r_mmod_Improper_Torsional_Energy-OPLS-2005>
8.9119987487793

> <r_mmod_Van_der_Waal_Energy-OPLS-2005>
126.490463256836

> <r_mmod_Electrostatic_Energy-OPLS-2005>
-435.408630371094

> <r_mmod_Solvation_Energy-OPLS-2005>
-493.803497314453

> <b_mmod_Minimization_Converged-OPLS-2005>
0

> <r_mmod_RMS_Derivative-OPLS-2005>
3.5919976234436

$$$$
32
                    3D
 Structure written by MMmdl.
161170  0  0  1  0            999 V2000
  -30.6637  -14.6502   20.4863 C   0  0  0  0  0  0
  -30.4226  -12.3997   19.4624 C   0  0  0  0  0  0
  -29.5014  -12.4976   18.2281 C   0  0  0  0  0  0
  -28.0272  -12.3358   18.6445 C   0  0  0  0  0  0
  -27.6459  -13.2273   19.8565 C   0  0  2  0  0  0
  -28.6912  -13.1327   20.9901 C   0  0  0  0  0  0
  -25.2520  -13.8202   20.5703 C   0  0  0  0  0  0
  -24.1805  -13.0449   20.9216 C   0  0  0  0  0  0
  -24.6391  -11.6925   20.8759 C   0  0  0  0  0  0
  -23.9070  -10.4300   21.0414 C   0  0  0  0  0  0
  -24.3617   -9.4208   21.9187 C   0  0  0  0  0  0
  -23.6292   -8.2243   22.0752 C   0  0  0  0  0  0
  -22.4274   -8.0285   21.3544 C   0  0  0  0  0  0
  -21.9915   -9.0260   20.4644 C   0  0  0  0  0  0
  -22.7246  -10.2139   20.3058 C   0  0  0  0  0  0
  -21.6850   -6.0737   22.5279 C   0  0  0  0  0  0
  -21.4014   -6.5639   23.8215 C   0  0  0  0  0  0
  -21.3660   -5.6791   24.9177 C   0  0  0  0  0  0
  -21.6047   -4.3055   24.7226 C   0  0  0  0  0  0
  -21.8818   -3.8147   23.4347 C   0  0  0  0  0  0
  -21.9191   -4.6965   22.3404 C   0  0  0  0  0  0
  -22.7825  -13.5230   21.1878 C   0  0  0  0  0  0
  -22.1658   -4.2153   21.0981 F   0  0  0  0  0  0
  -21.5629   -3.4538   25.7736 F   0  0  0  0  0  0
  -30.0022  -13.4520   20.4111 N   0  0  0  0  0  0
  -26.2953  -12.9404   20.3318 N   0  0  0  0  0  0
  -25.9323  -11.6551   20.5777 N   0  0  0  0  0  0
  -22.0471  -12.8210   22.0428 N   0  0  0  0  0  0
  -25.4220  -15.1922   20.4105 N   0  0  0  0  0  0
  -31.8428  -14.7433   20.1413 O   0  0  0  0  0  0
  -21.6638   -6.8881   21.4240 O   0  0  0  0  0  0
  -22.3509  -14.5539   20.6729 O   0  0  0  0  0  0
  -24.6258  -31.8591   23.2030 C   0  0  0  0  0  0
  -25.9103  -32.4777   23.8356 C   0  0  1  0  0  0
  -27.2189  -27.3201   20.1249 C   0  0  0  0  0  0
  -25.5922  -33.8580   24.2280 N   0  0  0  0  0  0
  -23.4207  -30.4830   21.5446 C   0  0  2  0  0  0
  -24.8702  -28.9436   20.1055 C   0  0  0  0  0  0
  -22.7479  -29.4612   22.4924 C   0  0  0  0  0  0
  -18.0285  -28.1379   22.8485 C   0  0  0  0  0  0
  -24.1491  -36.7299   23.2640 C   0  0  0  0  0  0
  -25.9623  -30.7902   21.3760 C   0  0  0  0  0  0
  -26.0386  -29.4192   20.7170 C   0  0  0  0  0  0
  -27.2203  -28.6183   20.7199 C   0  0  0  0  0  0
  -26.0386  -26.9066   19.4705 C   0  0  0  0  0  0
  -24.8724  -27.6926   19.4704 C   0  0  0  0  0  0
  -23.6366  -29.8211   20.1585 C   0  0  0  0  0  0
  -25.4116  -36.3085   24.0329 C   0  0  1  0  0  0
  -20.5887  -28.3686   23.1279 C   0  0  2  0  0  0
  -20.6779  -26.9410   22.5408 C   0  0  0  0  0  0
  -19.5758  -26.6381   21.5208 C   0  0  0  0  0  0
  -18.1931  -26.7921   22.1616 C   0  0  0  0  0  0
  -19.1539  -28.8849   23.2874 C   0  0  0  0  0  0
  -18.9464  -30.1449   23.8892 C   0  0  0  0  0  0
  -17.6469  -30.6585   24.0561 C   0  0  0  0  0  0
  -25.9052  -34.9452   23.5104 C   0  0  0  0  0  0
  -16.5358  -29.9084   23.6331 C   0  0  0  0  0  0
  -16.7273  -28.6501   23.0353 C   0  0  0  0  0  0
  -26.4496  -31.6592   25.0723 C   0  0  0  0  0  0
  -25.3732  -31.3721   26.1450 C   0  0  0  0  0  0
  -27.0345  -30.3016   24.6173 C   0  0  0  0  0  0
  -27.6050  -32.4333   25.7494 C   0  0  0  0  0  0
  -27.5580  -37.1800   24.8464 C   0  0  0  0  0  0
  -21.4190  -29.3038   22.3670 N   0  0  0  0  0  0
  -26.4293  -37.3776   23.9407 N   0  0  0  0  0  0
  -24.6883  -31.0605   22.0984 N   0  0  0  0  0  0
  -23.4199  -28.8148   23.3004 O   0  0  0  0  0  0
  -28.2835  -26.4100   20.1877 O   0  0  0  0  0  0
  -26.5621  -34.8918   22.4669 O   0  0  0  0  0  0
  -23.5420  -32.1391   23.7356 O   0  0  0  0  0  0
  -29.3808  -23.1864   21.7870 C   0  0  0  0  0  0
  -28.4418  -22.9577   19.5929 C   0  0  0  0  0  0
  -29.8352  -21.8326   21.7544 C   0  0  0  0  0  0
  -28.6667  -23.7907   20.7209 C   0  0  0  0  0  0
  -28.9059  -21.6015   19.5343 C   0  0  0  0  0  0
  -29.6004  -20.9982   20.6251 C   0  0  0  0  0  0
  -29.9974  -20.1933   23.7942 C   0  0  0  0  0  0
  -30.1540  -21.5847   24.3572 C   0  0  0  0  0  0
  -30.5853  -21.2899   22.9364 C   0  0  0  0  0  0
  -28.6640  -20.8067   18.2648 C   0  0  0  0  0  0
  -27.9459  -25.1762   20.9346 C   0  0  0  0  0  0
  -30.4777  -17.2005   20.6553 C   0  0  0  0  0  0
  -29.4880  -18.4556   20.6353 C   0  0  0  0  0  0
  -29.9417  -15.7885   20.7417 N   0  0  0  0  0  0
  -30.2146  -19.7283   20.5592 O   0  0  0  0  0  0
  -31.4671  -12.5011   19.1625 H   0  0  0  0  0  0
  -30.3403  -11.4164   19.9288 H   0  0  0  0  0  0
  -29.7685  -11.7344   17.4962 H   0  0  0  0  0  0
  -29.6424  -13.4602   17.7336 H   0  0  0  0  0  0
  -27.8732  -11.2862   18.8979 H   0  0  0  0  0  0
  -27.3694  -12.5433   17.8000 H   0  0  0  0  0  0
  -27.6515  -14.2542   19.4909 H   0  0  0  0  0  0
  -28.7037  -12.1324   21.4246 H   0  0  0  0  0  0
  -28.4425  -13.8154   21.8041 H   0  0  0  0  0  0
  -25.2759   -9.5683   22.4768 H   0  0  0  0  0  0
  -24.0003   -7.4631   22.7466 H   0  0  0  0  0  0
  -21.0852   -8.8783   19.8944 H   0  0  0  0  0  0
  -22.3709  -10.9681   19.6172 H   0  0  0  0  0  0
  -21.2006   -7.6145   23.9722 H   0  0  0  0  0  0
  -21.1485   -6.0518   25.9080 H   0  0  0  0  0  0
  -22.0595   -2.7610   23.2845 H   0  0  0  0  0  0
  -22.4084  -11.9862   22.4805 H   0  0  0  0  0  0
  -21.1092  -13.1235   22.2646 H   0  0  0  0  0  0
  -24.6541  -15.8465   20.5145 H   0  0  0  0  0  0
  -26.2690  -15.6300   20.0718 H   0  0  0  0  0  0
  -26.7171  -32.5446   23.1107 H   0  0  0  0  0  0
  -25.0071  -33.9733   25.0427 H   0  0  0  0  0  0
  -22.7141  -31.3032   21.4020 H   0  0  0  0  0  0
  -23.3750  -35.9633   23.3304 H   0  0  0  0  0  0
  -24.3581  -36.8918   22.2053 H   0  0  0  0  0  0
  -23.7248  -37.6503   23.6665 H   0  0  0  0  0  0
  -26.0931  -31.5537   20.6083 H   0  0  0  0  0  0
  -26.8431  -30.8390   22.0047 H   0  0  0  0  0  0
  -28.1116  -28.9706   21.2201 H   0  0  0  0  0  0
  -26.0071  -25.9431   18.9810 H   0  0  0  0  0  0
  -23.9797  -27.3246   18.9829 H   0  0  0  0  0  0
  -23.7522  -30.5995   19.4034 H   0  0  0  0  0  0
  -22.7577  -29.2482   19.8565 H   0  0  0  0  0  0
  -25.1293  -36.1939   25.0821 H   0  0  0  0  0  0
  -20.9974  -28.3266   24.1402 H   0  0  0  0  0  0
  -20.5684  -26.2297   23.3607 H   0  0  0  0  0  0
  -21.6647  -26.7441   22.1200 H   0  0  0  0  0  0
  -19.6928  -25.6291   21.1239 H   0  0  0  0  0  0
  -19.6703  -27.3190   20.6739 H   0  0  0  0  0  0
  -17.4204  -26.6670   21.4010 H   0  0  0  0  0  0
  -18.0333  -26.0056   22.9010 H   0  0  0  0  0  0
  -19.7944  -30.7259   24.2264 H   0  0  0  0  0  0
  -17.5028  -31.6264   24.5163 H   0  0  0  0  0  0
  -15.5362  -30.2988   23.7660 H   0  0  0  0  0  0
  -15.8670  -28.0822   22.7074 H   0  0  0  0  0  0
  -24.5923  -30.7051   25.7787 H   0  0  0  0  0  0
  -24.8906  -32.2881   26.4865 H   0  0  0  0  0  0
  -25.8061  -30.8918   27.0232 H   0  0  0  0  0  0
  -26.2918  -29.6758   24.1209 H   0  0  0  0  0  0
  -27.4067  -29.7276   25.4672 H   0  0  0  0  0  0
  -27.8777  -30.4313   23.9382 H   0  0  0  0  0  0
  -27.2658  -33.3640   26.2058 H   0  0  0  0  0  0
  -28.3865  -32.6884   25.0324 H   0  0  0  0  0  0
  -28.0714  -31.8468   26.5420 H   0  0  0  0  0  0
  -28.2593  -38.0100   24.7513 H   0  0  0  0  0  0
  -28.1079  -36.2629   24.6290 H   0  0  0  0  0  0
  -27.2297  -37.1453   25.8866 H   0  0  0  0  0  0
  -20.9369  -29.8773   21.6892 H   0  0  0  0  0  0
  -26.0176  -38.2850   24.1409 H   0  0  0  0  0  0
  -29.5523  -23.7682   22.6820 H   0  0  0  0  0  0
  -27.8743  -23.3599   18.7652 H   0  0  0  0  0  0
  -28.9851  -19.8584   23.5752 H   0  0  0  0  0  0
  -30.6730  -19.4279   24.1712 H   0  0  0  0  0  0
  -30.9310  -21.7260   25.1062 H   0  0  0  0  0  0
  -29.2412  -22.1563   24.5175 H   0  0  0  0  0  0
  -31.6536  -21.2496   22.7317 H   0  0  0  0  0  0
  -28.5122  -21.4647   17.4089 H   0  0  0  0  0  0
  -27.7783  -20.1810   18.3728 H   0  0  0  0  0  0
  -29.5146  -20.1637   18.0373 H   0  0  0  0  0  0
  -28.0591  -25.4366   21.9874 H   0  0  0  0  0  0
  -26.8872  -24.9376   20.8390 H   0  0  0  0  0  0
  -31.1683  -17.3301   21.4899 H   0  0  0  0  0  0
  -31.0959  -17.2643   19.7582 H   0  0  0  0  0  0
  -28.8716  -18.4543   21.5342 H   0  0  0  0  0  0
  -28.8087  -18.3776   19.7870 H   0  0  0  0  0  0
  -28.9663  -15.6732   20.9719 H   0  0  0  0  0  0
  1 25  1  0  0  0
  1 30  2  0  0  0
  1 84  1  0  0  0
  2  3  1  0  0  0
  2 25  1  0  0  0
  2 86  1  0  0  0
  2 87  1  0  0  0
  3  4  1  0  0  0
  3 88  1  0  0  0
  3 89  1  0  0  0
  4  5  1  0  0  0
  4 90  1  0  0  0
  4 91  1  0  0  0
  5  6  1  0  0  0
  5 26  1  0  0  0
  5 92  1  0  0  0
  6 25  1  0  0  0
  6 93  1  0  0  0
  6 94  1  0  0  0
  7  8  2  0  0  0
  7 26  1  0  0  0
  7 29  1  0  0  0
  8  9  1  0  0  0
  8 22  1  0  0  0
  9 10  1  0  0  0
  9 27  2  0  0  0
 10 11  2  0  0  0
 10 15  1  0  0  0
 11 12  1  0  0  0
 11 95  1  0  0  0
 12 13  2  0  0  0
 12 96  1  0  0  0
 13 14  1  0  0  0
 13 31  1  0  0  0
 14 15  2  0  0  0
 14 97  1  0  0  0
 15 98  1  0  0  0
 16 17  2  0  0  0
 16 21  1  0  0  0
 16 31  1  0  0  0
 17 18  1  0  0  0
 17 99  1  0  0  0
 18 19  2  0  0  0
 18100  1  0  0  0
 19 20  1  0  0  0
 19 24  1  0  0  0
 20 21  2  0  0  0
 20101  1  0  0  0
 21 23  1  0  0  0
 22 28  1  0  0  0
 22 32  2  0  0  0
 26 27  1  0  0  0
 28102  1  0  0  0
 28103  1  0  0  0
 29104  1  0  0  0
 29105  1  0  0  0
 33 34  1  0  0  0
 33 66  1  0  0  0
 33 70  2  0  0  0
 34 36  1  0  0  0
 34 59  1  0  0  0
 34106  1  0  0  0
 35 44  2  0  0  0
 35 45  1  0  0  0
 35 68  1  0  0  0
 36 56  1  0  0  0
 36107  1  0  0  0
 37 39  1  0  0  0
 37 47  1  0  0  0
 37 66  1  0  0  0
 37108  1  0  0  0
 38 43  2  0  0  0
 38 46  1  0  0  0
 38 47  1  0  0  0
 39 64  1  0  0  0
 39 67  2  0  0  0
 40 52  1  0  0  0
 40 53  2  0  0  0
 40 58  1  0  0  0
 41109  1  0  0  0
 41110  1  0  0  0
 41111  1  0  0  0
 41 48  1  0  0  0
 42 43  1  0  0  0
 42 66  1  0  0  0
 42112  1  0  0  0
 42113  1  0  0  0
 43 44  1  0  0  0
 44114  1  0  0  0
 45 46  2  0  0  0
 45115  1  0  0  0
 46116  1  0  0  0
 47117  1  0  0  0
 47118  1  0  0  0
 48 56  1  0  0  0
 48 65  1  0  0  0
 48119  1  0  0  0
 49 50  1  0  0  0
 49 53  1  0  0  0
 49 64  1  0  0  0
 49120  1  0  0  0
 50 51  1  0  0  0
 50121  1  0  0  0
 50122  1  0  0  0
 51 52  1  0  0  0
 51123  1  0  0  0
 51124  1  0  0  0
 52125  1  0  0  0
 52126  1  0  0  0
 53 54  1  0  0  0
 54 55  2  0  0  0
 54127  1  0  0  0
 55 57  1  0  0  0
 55128  1  0  0  0
 56 69  2  0  0  0
 57 58  2  0  0  0
 57129  1  0  0  0
 58130  1  0  0  0
 59 60  1  0  0  0
 59 61  1  0  0  0
 59 62  1  0  0  0
 60131  1  0  0  0
 60132  1  0  0  0
 60133  1  0  0  0
 61134  1  0  0  0
 61135  1  0  0  0
 61136  1  0  0  0
 62137  1  0  0  0
 62138  1  0  0  0
 62139  1  0  0  0
 63 65  1  0  0  0
 63140  1  0  0  0
 63141  1  0  0  0
 63142  1  0  0  0
 64143  1  0  0  0
 65144  1  0  0  0
 68 81  1  0  0  0
 71 73  2  0  0  0
 71 74  1  0  0  0
 71145  1  0  0  0
 72 74  2  0  0  0
 72 75  1  0  0  0
 72146  1  0  0  0
 73 76  1  0  0  0
 73 79  1  0  0  0
 74 81  1  0  0  0
 75 76  2  0  0  0
 75 80  1  0  0  0
 76 85  1  0  0  0
 77 78  1  0  0  0
 77 79  1  0  0  0
 77147  1  0  0  0
 77148  1  0  0  0
 78 79  1  0  0  0
 78149  1  0  0  0
 78150  1  0  0  0
 79151  1  0  0  0
 80152  1  0  0  0
 80153  1  0  0  0
 80154  1  0  0  0
 81155  1  0  0  0
 81156  1  0  0  0
 82 83  1  0  0  0
 82 84  1  0  0  0
 82157  1  0  0  0
 82158  1  0  0  0
 83 85  1  0  0  0
 83159  1  0  0  0
 83160  1  0  0  0
 84161  1  0  0  0
M  ISO  4   1 100  68 101  81 101  84 100
M  END
> <chiral flag>
0

> <version>
0

> <s_m_source_file>
/data/baiqing/PycharmProjects/Reinvent-master-3.2/result/LINK_invent/BTK/process_docking_weight1_custom_sum_contain_oxygen_bond_distance_aromatic_linkinvent_7_9_3/rearranged_h_0137.sdf

> <i_m_source_file_index>
33

> <r_mmod_Potential_Energy-OPLS-2005>
92.3586273193359

> <r_mmod_Stretch_Energy-OPLS-2005>
80.065673828125

> <r_mmod_Bend_Energy-OPLS-2005>
144.42985534668

> <r_mmod_Torsional_Energy-OPLS-2005>
295.703521728516

> <r_mmod_Improper_Torsional_Energy-OPLS-2005>
7.33049869537354

> <r_mmod_Van_der_Waal_Energy-OPLS-2005>
135.593444824219

> <r_mmod_Electrostatic_Energy-OPLS-2005>
-417.981475830078

> <r_mmod_Solvation_Energy-OPLS-2005>
-210.684707641602

> <b_mmod_Minimization_Converged-OPLS-2005>
0

> <r_mmod_RMS_Derivative-OPLS-2005>
0.875149130821228

$$$$
33
                    3D
 Structure written by MMmdl.
164173  0  0  1  0            999 V2000
  -30.6608  -14.5417   20.5345 C   0  0  0  0  0  0
  -30.4306  -12.3421   19.4291 C   0  0  0  0  0  0
  -29.4908  -12.4906   18.2129 C   0  0  0  0  0  0
  -28.0191  -12.3295   18.6387 C   0  0  0  0  0  0
  -27.6581  -13.1987   19.8718 C   0  0  2  0  0  0
  -28.7024  -13.0196   20.9974 C   0  0  0  0  0  0
  -25.2600  -13.8148   20.5714 C   0  0  0  0  0  0
  -24.1834  -13.0466   20.9209 C   0  0  0  0  0  0
  -24.6338  -11.6906   20.8739 C   0  0  0  0  0  0
  -23.8987  -10.4301   21.0392 C   0  0  0  0  0  0
  -24.3554   -9.4230   21.9177 C   0  0  0  0  0  0
  -23.6265   -8.2248   22.0748 C   0  0  0  0  0  0
  -22.4259   -8.0257   21.3540 C   0  0  0  0  0  0
  -21.9861   -9.0211   20.4644 C   0  0  0  0  0  0
  -22.7150  -10.2112   20.3059 C   0  0  0  0  0  0
  -21.6837   -6.0713   22.5277 C   0  0  0  0  0  0
  -21.3991   -6.5621   23.8203 C   0  0  0  0  0  0
  -21.3667   -5.6782   24.9170 C   0  0  0  0  0  0
  -21.6052   -4.3046   24.7225 C   0  0  0  0  0  0
  -21.8820   -3.8140   23.4345 C   0  0  0  0  0  0
  -21.9182   -4.6945   22.3400 C   0  0  0  0  0  0
  -22.7853  -13.5272   21.1859 C   0  0  0  0  0  0
  -22.1663   -4.2122   21.0977 F   0  0  0  0  0  0
  -21.5628   -3.4539   25.7745 F   0  0  0  0  0  0
  -30.0264  -13.3388   20.4388 N   0  0  0  0  0  0
  -26.3006  -12.9292   20.3376 N   0  0  0  0  0  0
  -25.9275  -11.6470   20.5791 N   0  0  0  0  0  0
  -22.0452  -12.8297   22.0394 N   0  0  0  0  0  0
  -25.4429  -15.1867   20.4126 N   0  0  0  0  0  0
  -31.8029  -14.7203   20.1038 O   0  0  0  0  0  0
  -21.6641   -6.8847   21.4242 O   0  0  0  0  0  0
  -22.3557  -14.5569   20.6658 O   0  0  0  0  0  0
  -24.6227  -31.8659   23.2094 C   0  0  0  0  0  0
  -25.9106  -32.4821   23.8390 C   0  0  1  0  0  0
  -27.2116  -27.3627   20.1003 C   0  0  0  0  0  0
  -25.5945  -33.8621   24.2349 N   0  0  0  0  0  0
  -23.4106  -30.4942   21.5547 C   0  0  2  0  0  0
  -24.8494  -28.9611   20.1152 C   0  0  0  0  0  0
  -22.7445  -29.4656   22.4991 C   0  0  0  0  0  0
  -18.0267  -28.1406   22.8492 C   0  0  0  0  0  0
  -24.1497  -36.7302   23.2621 C   0  0  0  0  0  0
  -25.9466  -30.8159   21.3662 C   0  0  0  0  0  0
  -26.0194  -29.4448   20.7122 C   0  0  0  0  0  0
  -27.2025  -28.6553   20.7002 C   0  0  0  0  0  0
  -26.0117  -26.9267   19.4842 C   0  0  0  0  0  0
  -24.8425  -27.7034   19.4999 C   0  0  0  0  0  0
  -23.6188  -29.8370   20.1661 C   0  0  0  0  0  0
  -25.4115  -36.3114   24.0337 C   0  0  1  0  0  0
  -20.5867  -28.3673   23.1321 C   0  0  2  0  0  0
  -20.6765  -26.9418   22.5405 C   0  0  0  0  0  0
  -19.5738  -26.6429   21.5206 C   0  0  0  0  0  0
  -18.1915  -26.7957   22.1624 C   0  0  0  0  0  0
  -19.1521  -28.8857   23.2901 C   0  0  0  0  0  0
  -18.9460  -30.1469   23.8908 C   0  0  0  0  0  0
  -17.6468  -30.6603   24.0596 C   0  0  0  0  0  0
  -25.9045  -34.9473   23.5135 C   0  0  0  0  0  0
  -16.5347  -29.9117   23.6354 C   0  0  0  0  0  0
  -16.7256  -28.6546   23.0346 C   0  0  0  0  0  0
  -26.4520  -31.6581   25.0714 C   0  0  0  0  0  0
  -25.3775  -31.3674   26.1444 C   0  0  0  0  0  0
  -27.0314  -30.3017   24.6054 C   0  0  0  0  0  0
  -27.6129  -32.4221   25.7480 C   0  0  0  0  0  0
  -27.5589  -37.1788   24.8478 C   0  0  0  0  0  0
  -21.4160  -29.3047   22.3741 N   0  0  0  0  0  0
  -26.4308  -37.3806   23.9415 N   0  0  0  0  0  0
  -24.6800  -31.0716   22.1031 N   0  0  0  0  0  0
  -23.4190  -28.8160   23.3018 O   0  0  0  0  0  0
  -28.3481  -26.5471   20.1483 O   0  0  0  0  0  0
  -26.5589  -34.8928   22.4682 O   0  0  0  0  0  0
  -23.5407  -32.1420   23.7479 O   0  0  0  0  0  0
  -29.8923  -19.4287   24.3541 C   0  0  0  0  0  0
  -30.2355  -18.0694   24.3815 C   0  0  0  0  0  0
  -29.6741  -20.0653   23.1222 C   0  0  0  0  0  0
  -30.3214  -17.3472   23.1804 C   0  0  0  0  0  0
  -29.7619  -19.3634   21.8925 C   0  0  0  0  0  0
  -30.0554  -17.9505   21.9268 C   0  0  0  0  0  0
  -28.8973  -22.6066   20.1404 C   0  0  0  0  0  0
  -30.4762  -24.4471   19.3031 C   0  0  0  0  0  0
  -28.4515  -25.1200   18.2026 C   0  0  0  0  0  0
  -29.3065  -24.1244   20.2464 C   0  0  1  0  0  0
  -28.2294  -25.1422   19.7271 C   0  0  1  0  0  0
  -29.4939  -20.1676   20.5992 C   0  0  0  0  0  0
  -30.1058  -17.0327   20.6814 C   0  0  0  0  0  0
  -29.6816  -21.6472   20.6949 N   0  0  0  0  0  0
  -29.8842  -15.5800   20.9299 N   0  0  0  0  0  0
  -29.8946  -24.8620   18.0100 N   0  3  0  0  0  0
  -27.8705  -22.2908   19.5363 O   0  0  0  0  0  0
  -31.4683  -12.4615   19.1171 H   0  0  0  0  0  0
  -30.3620  -11.3357   19.8460 H   0  0  0  0  0  0
  -29.7411  -11.7487   17.4538 H   0  0  0  0  0  0
  -29.6343  -13.4659   17.7462 H   0  0  0  0  0  0
  -27.8644  -11.2761   18.8787 H   0  0  0  0  0  0
  -27.3503  -12.5510   17.8050 H   0  0  0  0  0  0
  -27.6918  -14.2370   19.5430 H   0  0  0  0  0  0
  -28.6989  -11.9921   21.3653 H   0  0  0  0  0  0
  -28.4590  -13.6417   21.8608 H   0  0  0  0  0  0
  -25.2671   -9.5719   22.4780 H   0  0  0  0  0  0
  -23.9959   -7.4638   22.7472 H   0  0  0  0  0  0
  -21.0781   -8.8692   19.8966 H   0  0  0  0  0  0
  -22.3551  -10.9642   19.6188 H   0  0  0  0  0  0
  -21.1980   -7.6130   23.9687 H   0  0  0  0  0  0
  -21.1500   -6.0523   25.9061 H   0  0  0  0  0  0
  -22.0600   -2.7603   23.2855 H   0  0  0  0  0  0
  -22.3992  -11.9954   22.4842 H   0  0  0  0  0  0
  -21.1079  -13.1366   22.2565 H   0  0  0  0  0  0
  -24.6869  -15.8564   20.5074 H   0  0  0  0  0  0
  -26.3026  -15.6085   20.0841 H   0  0  0  0  0  0
  -26.7154  -32.5507   23.1129 H   0  0  0  0  0  0
  -25.0165  -33.9798   25.0539 H   0  0  0  0  0  0
  -22.7023  -31.3145   21.4209 H   0  0  0  0  0  0
  -23.3779  -35.9621   23.3310 H   0  0  0  0  0  0
  -24.3601  -36.8886   22.2033 H   0  0  0  0  0  0
  -23.7237  -37.6512   23.6605 H   0  0  0  0  0  0
  -26.0484  -31.5783   20.5934 H   0  0  0  0  0  0
  -26.8427  -30.8813   21.9740 H   0  0  0  0  0  0
  -28.1037  -29.0245   21.1704 H   0  0  0  0  0  0
  -25.9261  -25.9753   18.9829 H   0  0  0  0  0  0
  -23.9382  -27.3277   19.0404 H   0  0  0  0  0  0
  -23.7335  -30.6187   19.4147 H   0  0  0  0  0  0
  -22.7401  -29.2635   19.8623 H   0  0  0  0  0  0
  -25.1290  -36.1984   25.0835 H   0  0  0  0  0  0
  -20.9945  -28.3212   24.1442 H   0  0  0  0  0  0
  -20.5699  -26.2260   23.3572 H   0  0  0  0  0  0
  -21.6630  -26.7482   22.1172 H   0  0  0  0  0  0
  -19.6911  -25.6355   21.1184 H   0  0  0  0  0  0
  -19.6691  -27.3286   20.6772 H   0  0  0  0  0  0
  -17.4187  -26.6706   21.4020 H   0  0  0  0  0  0
  -18.0323  -26.0101   22.9017 H   0  0  0  0  0  0
  -19.7938  -30.7292   24.2267 H   0  0  0  0  0  0
  -17.5024  -31.6280   24.5204 H   0  0  0  0  0  0
  -15.5351  -30.3031   23.7706 H   0  0  0  0  0  0
  -15.8646  -28.0901   22.7038 H   0  0  0  0  0  0
  -24.6022  -30.6939   25.7779 H   0  0  0  0  0  0
  -24.8880  -32.2808   26.4811 H   0  0  0  0  0  0
  -25.8135  -30.8918   27.0237 H   0  0  0  0  0  0
  -26.2851  -29.6823   24.1067 H   0  0  0  0  0  0
  -27.4057  -29.7196   25.4486 H   0  0  0  0  0  0
  -27.8702  -30.4353   23.9226 H   0  0  0  0  0  0
  -27.2839  -33.3539   26.2080 H   0  0  0  0  0  0
  -28.3958  -32.6707   25.0306 H   0  0  0  0  0  0
  -28.0762  -31.8276   26.5368 H   0  0  0  0  0  0
  -28.2628  -38.0065   24.7538 H   0  0  0  0  0  0
  -28.1063  -36.2604   24.6305 H   0  0  0  0  0  0
  -27.2293  -37.1442   25.8876 H   0  0  0  0  0  0
  -20.9315  -29.8810   21.6999 H   0  0  0  0  0  0
  -26.0204  -38.2880   24.1453 H   0  0  0  0  0  0
  -29.8130  -19.9938   25.2739 H   0  0  0  0  0  0
  -30.4294  -17.5747   25.3220 H   0  0  0  0  0  0
  -29.4319  -21.1177   23.1489 H   0  0  0  0  0  0
  -30.5975  -16.3054   23.2439 H   0  0  0  0  0  0
  -31.1811  -23.6235   19.1796 H   0  0  0  0  0  0
  -31.0398  -25.2893   19.7095 H   0  0  0  0  0  0
  -28.1431  -26.0406   17.7054 H   0  0  0  0  0  0
  -27.8823  -24.3062   17.7503 H   0  0  0  0  0  0
  -29.5708  -24.3293   21.2835 H   0  0  0  0  0  0
  -27.2540  -24.7503   20.0158 H   0  0  0  0  0  0
  -28.4793  -19.9244   20.2763 H   0  0  0  0  0  0
  -30.1583  -19.7997   19.8180 H   0  0  0  0  0  0
  -29.3386  -17.3612   19.9782 H   0  0  0  0  0  0
  -31.0569  -17.1838   20.1687 H   0  0  0  0  0  0
  -30.5156  -21.9525   21.1791 H   0  0  0  0  0  0
  -28.9751  -15.3298   21.2868 H   0  0  0  0  0  0
  -30.0454  -24.1502   17.3101 H   0  0  0  0  0  0
  -30.3623  -25.7014   17.7024 H   0  0  0  0  0  0
  1 25  1  0  0  0
  1 30  2  0  0  0
  1 85  1  0  0  0
  2  3  1  0  0  0
  2 25  1  0  0  0
  2 88  1  0  0  0
  2 89  1  0  0  0
  3  4  1  0  0  0
  3 90  1  0  0  0
  3 91  1  0  0  0
  4  5  1  0  0  0
  4 92  1  0  0  0
  4 93  1  0  0  0
  5  6  1  0  0  0
  5 26  1  0  0  0
  5 94  1  0  0  0
  6 25  1  0  0  0
  6 95  1  0  0  0
  6 96  1  0  0  0
  7  8  2  0  0  0
  7 26  1  0  0  0
  7 29  1  0  0  0
  8  9  1  0  0  0
  8 22  1  0  0  0
  9 10  1  0  0  0
  9 27  2  0  0  0
 10 11  2  0  0  0
 10 15  1  0  0  0
 11 12  1  0  0  0
 11 97  1  0  0  0
 12 13  2  0  0  0
 12 98  1  0  0  0
 13 14  1  0  0  0
 13 31  1  0  0  0
 14 15  2  0  0  0
 14 99  1  0  0  0
 15100  1  0  0  0
 16 17  2  0  0  0
 16 21  1  0  0  0
 16 31  1  0  0  0
 17 18  1  0  0  0
 17101  1  0  0  0
 18 19  2  0  0  0
 18102  1  0  0  0
 19 20  1  0  0  0
 19 24  1  0  0  0
 20 21  2  0  0  0
 20103  1  0  0  0
 21 23  1  0  0  0
 22 28  1  0  0  0
 22 32  2  0  0  0
 26 27  1  0  0  0
 28104  1  0  0  0
 28105  1  0  0  0
 29106  1  0  0  0
 29107  1  0  0  0
 33 34  1  0  0  0
 33 66  1  0  0  0
 33 70  2  0  0  0
 34 36  1  0  0  0
 34 59  1  0  0  0
 34108  1  0  0  0
 35 44  2  0  0  0
 35 45  1  0  0  0
 35 68  1  0  0  0
 36 56  1  0  0  0
 36109  1  0  0  0
 37 39  1  0  0  0
 37 47  1  0  0  0
 37 66  1  0  0  0
 37110  1  0  0  0
 38 43  2  0  0  0
 38 46  1  0  0  0
 38 47  1  0  0  0
 39 64  1  0  0  0
 39 67  2  0  0  0
 40 52  1  0  0  0
 40 53  2  0  0  0
 40 58  1  0  0  0
 41111  1  0  0  0
 41112  1  0  0  0
 41113  1  0  0  0
 41 48  1  0  0  0
 42 43  1  0  0  0
 42 66  1  0  0  0
 42114  1  0  0  0
 42115  1  0  0  0
 43 44  1  0  0  0
 44116  1  0  0  0
 45 46  2  0  0  0
 45117  1  0  0  0
 46118  1  0  0  0
 47119  1  0  0  0
 47120  1  0  0  0
 48 56  1  0  0  0
 48 65  1  0  0  0
 48121  1  0  0  0
 49 50  1  0  0  0
 49 53  1  0  0  0
 49 64  1  0  0  0
 49122  1  0  0  0
 50 51  1  0  0  0
 50123  1  0  0  0
 50124  1  0  0  0
 51 52  1  0  0  0
 51125  1  0  0  0
 51126  1  0  0  0
 52127  1  0  0  0
 52128  1  0  0  0
 53 54  1  0  0  0
 54 55  2  0  0  0
 54129  1  0  0  0
 55 57  1  0  0  0
 55130  1  0  0  0
 56 69  2  0  0  0
 57 58  2  0  0  0
 57131  1  0  0  0
 58132  1  0  0  0
 59 60  1  0  0  0
 59 61  1  0  0  0
 59 62  1  0  0  0
 60133  1  0  0  0
 60134  1  0  0  0
 60135  1  0  0  0
 61136  1  0  0  0
 61137  1  0  0  0
 61138  1  0  0  0
 62139  1  0  0  0
 62140  1  0  0  0
 62141  1  0  0  0
 63 65  1  0  0  0
 63142  1  0  0  0
 63143  1  0  0  0
 63144  1  0  0  0
 64145  1  0  0  0
 65146  1  0  0  0
 68 81  1  0  0  0
 71 72  2  0  0  0
 71 73  1  0  0  0
 71147  1  0  0  0
 72 74  1  0  0  0
 72148  1  0  0  0
 73 75  2  0  0  0
 73149  1  0  0  0
 74 76  2  0  0  0
 74150  1  0  0  0
 75 76  1  0  0  0
 75 82  1  0  0  0
 76 83  1  0  0  0
 77 84  1  0  0  0
 77 87  2  0  0  0
 77 80  1  0  0  0
 78 80  1  0  0  0
 78 86  1  0  0  0
 78151  1  0  0  0
 78152  1  0  0  0
 79 81  1  0  0  0
 79 86  1  0  0  0
 79153  1  0  0  0
 79154  1  0  0  0
 80 81  1  0  0  0
 80155  1  0  0  0
 81156  1  0  0  0
 82 84  1  0  0  0
 82157  1  0  0  0
 82158  1  0  0  0
 83 85  1  0  0  0
 83159  1  0  0  0
 83160  1  0  0  0
 84161  1  0  0  0
 85162  1  0  0  0
 86163  1  0  0  0
 86164  1  0  0  0
M  CHG  1  86   1
M  ISO  4   1 100  68 101  81 101  85 100
M  END
> <chiral flag>
0

> <version>
0

> <s_m_source_file>
/data/baiqing/PycharmProjects/Reinvent-master-3.2/result/LINK_invent/BTK/process_docking_weight1_custom_sum_contain_oxygen_bond_distance_aromatic_linkinvent_7_9_3/rearranged_h_0137.sdf

> <i_m_source_file_index>
34

> <r_mmod_Potential_Energy-OPLS-2005>
-240.196533203125

> <r_mmod_Stretch_Energy-OPLS-2005>
61.3090438842773

> <r_mmod_Bend_Energy-OPLS-2005>
137.048004150391

> <r_mmod_Torsional_Energy-OPLS-2005>
245.379089355469

> <r_mmod_Improper_Torsional_Energy-OPLS-2005>
5.29094743728638

> <r_mmod_Van_der_Waal_Energy-OPLS-2005>
160.924545288086

> <r_mmod_Electrostatic_Energy-OPLS-2005>
-402.488830566406

> <r_mmod_Solvation_Energy-OPLS-2005>
-475.552215576172

> <b_mmod_Minimization_Converged-OPLS-2005>
0

> <r_mmod_RMS_Derivative-OPLS-2005>
3.64910221099854

$$$$
34
                    3D
 Structure written by MMmdl.
151159  0  0  1  0            999 V2000
  -30.6744  -14.6399   20.4690 C   0  0  0  0  0  0
  -30.4163  -12.3859   19.4690 C   0  0  0  0  0  0
  -29.5021  -12.4816   18.2300 C   0  0  0  0  0  0
  -28.0250  -12.3324   18.6410 C   0  0  0  0  0  0
  -27.6430  -13.2284   19.8511 C   0  0  2  0  0  0
  -28.6870  -13.1434   20.9864 C   0  0  0  0  0  0
  -25.2510  -13.8209   20.5702 C   0  0  0  0  0  0
  -24.1793  -13.0455   20.9221 C   0  0  0  0  0  0
  -24.6377  -11.6933   20.8753 C   0  0  0  0  0  0
  -23.9058  -10.4305   21.0409 C   0  0  0  0  0  0
  -24.3614   -9.4222   21.9186 C   0  0  0  0  0  0
  -23.6294   -8.2250   22.0747 C   0  0  0  0  0  0
  -22.4274   -8.0288   21.3540 C   0  0  0  0  0  0
  -21.9909   -9.0264   20.4645 C   0  0  0  0  0  0
  -22.7232  -10.2146   20.3058 C   0  0  0  0  0  0
  -21.6851   -6.0743   22.5280 C   0  0  0  0  0  0
  -21.4018   -6.5645   23.8218 C   0  0  0  0  0  0
  -21.3658   -5.6793   24.9178 C   0  0  0  0  0  0
  -21.6039   -4.3056   24.7225 C   0  0  0  0  0  0
  -21.8818   -3.8152   23.4346 C   0  0  0  0  0  0
  -21.9193   -4.6970   22.3404 C   0  0  0  0  0  0
  -22.7812  -13.5237   21.1884 C   0  0  0  0  0  0
  -22.1659   -4.2160   21.0980 F   0  0  0  0  0  0
  -21.5626   -3.4537   25.7736 F   0  0  0  0  0  0
  -29.9978  -13.4506   20.4051 N   0  0  0  0  0  0
  -26.2935  -12.9411   20.3286 N   0  0  0  0  0  0
  -25.9305  -11.6556   20.5757 N   0  0  0  0  0  0
  -22.0453  -12.8226   22.0441 N   0  0  0  0  0  0
  -25.4195  -15.1933   20.4116 N   0  0  0  0  0  0
  -31.8630  -14.6982   20.1460 O   0  0  0  0  0  0
  -21.6637   -6.8886   21.4240 O   0  0  0  0  0  0
  -22.3495  -14.5541   20.6732 O   0  0  0  0  0  0
  -24.6250  -31.8605   23.2020 C   0  0  0  0  0  0
  -25.9102  -32.4787   23.8348 C   0  0  1  0  0  0
  -27.2236  -27.3269   20.1256 C   0  0  0  0  0  0
  -25.5919  -33.8582   24.2287 N   0  0  0  0  0  0
  -23.4193  -30.4825   21.5441 C   0  0  2  0  0  0
  -24.8671  -28.9358   20.1125 C   0  0  0  0  0  0
  -22.7472  -29.4622   22.4936 C   0  0  0  0  0  0
  -18.0286  -28.1394   22.8491 C   0  0  0  0  0  0
  -24.1481  -36.7293   23.2640 C   0  0  0  0  0  0
  -25.9581  -30.7954   21.3689 C   0  0  0  0  0  0
  -26.0349  -29.4210   20.7161 C   0  0  0  0  0  0
  -27.2205  -28.6286   20.7106 C   0  0  0  0  0  0
  -26.0395  -26.8925   19.4940 C   0  0  0  0  0  0
  -24.8701  -27.6762   19.4918 C   0  0  0  0  0  0
  -23.6343  -29.8149   20.1600 C   0  0  0  0  0  0
  -25.4107  -36.3092   24.0337 C   0  0  1  0  0  0
  -20.5886  -28.3695   23.1287 C   0  0  2  0  0  0
  -20.6776  -26.9419   22.5415 C   0  0  0  0  0  0
  -19.5752  -26.6393   21.5217 C   0  0  0  0  0  0
  -18.1932  -26.7938   22.1628 C   0  0  0  0  0  0
  -19.1539  -28.8861   23.2886 C   0  0  0  0  0  0
  -18.9461  -30.1464   23.8903 C   0  0  0  0  0  0
  -17.6463  -30.6597   24.0568 C   0  0  0  0  0  0
  -25.9043  -34.9458   23.5115 C   0  0  0  0  0  0
  -16.5353  -29.9099   23.6329 C   0  0  0  0  0  0
  -16.7274  -28.6515   23.0351 C   0  0  0  0  0  0
  -26.4494  -31.6589   25.0707 C   0  0  0  0  0  0
  -25.3737  -31.3724   26.1442 C   0  0  0  0  0  0
  -27.0333  -30.3019   24.6139 C   0  0  0  0  0  0
  -27.6058  -32.4312   25.7483 C   0  0  0  0  0  0
  -27.5576  -37.1806   24.8474 C   0  0  0  0  0  0
  -21.4185  -29.3047   22.3681 N   0  0  0  0  0  0
  -26.4288  -37.3783   23.9413 N   0  0  0  0  0  0
  -24.6865  -31.0622   22.0963 N   0  0  0  0  0  0
  -23.4192  -28.8160   23.3018 O   0  0  0  0  0  0
  -28.3273  -26.4669   20.1494 O   0  0  0  0  0  0
  -26.5613  -34.8926   22.4680 O   0  0  0  0  0  0
  -23.5412  -32.1393   23.7355 O   0  0  0  0  0  0
  -30.2531  -19.5837   19.5517 C   0  0  0  0  0  0
  -28.9576  -18.9195   21.4634 C   0  0  0  0  0  0
  -29.7890  -20.9289   19.6702 C   0  0  0  0  0  0
  -28.4924  -20.2662   21.5799 C   0  0  0  0  0  0
  -29.8692  -18.5439   20.4472 C   0  0  0  0  0  0
  -28.9031  -21.3133   20.7071 C   0  0  0  0  0  0
  -30.5970  -17.1497   20.3608 C   0  0  0  0  0  0
  -28.7904  -23.8070   20.1704 C   0  0  0  0  0  0
  -28.1065  -25.1286   20.7483 C   0  0  0  0  0  0
  -29.9752  -15.8087   20.6519 N   0  0  0  0  0  0
  -28.4178  -22.6165   20.9435 O   0  0  0  0  0  0
  -31.4631  -12.4723   19.1729 H   0  0  0  0  0  0
  -30.3237  -11.4080   19.9445 H   0  0  0  0  0  0
  -29.7676  -11.7109   17.5050 H   0  0  0  0  0  0
  -29.6533  -13.4389   17.7294 H   0  0  0  0  0  0
  -27.8592  -11.2836   18.8911 H   0  0  0  0  0  0
  -27.3741  -12.5462   17.7929 H   0  0  0  0  0  0
  -27.6469  -14.2531   19.4790 H   0  0  0  0  0  0
  -28.6952  -12.1478   21.4330 H   0  0  0  0  0  0
  -28.4413  -13.8387   21.7905 H   0  0  0  0  0  0
  -25.2758   -9.5702   22.4762 H   0  0  0  0  0  0
  -24.0013   -7.4634   22.7451 H   0  0  0  0  0  0
  -21.0847   -8.8781   19.8940 H   0  0  0  0  0  0
  -22.3691  -10.9688   19.6168 H   0  0  0  0  0  0
  -21.2012   -7.6153   23.9732 H   0  0  0  0  0  0
  -21.1475   -6.0517   25.9083 H   0  0  0  0  0  0
  -22.0595   -2.7616   23.2841 H   0  0  0  0  0  0
  -22.4067  -11.9903   22.4859 H   0  0  0  0  0  0
  -21.1059  -13.1239   22.2617 H   0  0  0  0  0  0
  -24.6509  -15.8457   20.5245 H   0  0  0  0  0  0
  -26.2650  -15.6354   20.0742 H   0  0  0  0  0  0
  -26.7167  -32.5474   23.1095 H   0  0  0  0  0  0
  -25.0082  -33.9724   25.0444 H   0  0  0  0  0  0
  -22.7126  -31.3024   21.3998 H   0  0  0  0  0  0
  -23.3742  -35.9627   23.3315 H   0  0  0  0  0  0
  -24.3570  -36.8893   22.2050 H   0  0  0  0  0  0
  -23.7229  -37.6501   23.6641 H   0  0  0  0  0  0
  -26.0798  -31.5546   20.5949 H   0  0  0  0  0  0
  -26.8420  -30.8530   21.9920 H   0  0  0  0  0  0
  -28.1184  -28.9947   21.1880 H   0  0  0  0  0  0
  -26.0123  -25.9257   19.0111 H   0  0  0  0  0  0
  -23.9758  -27.2988   19.0146 H   0  0  0  0  0  0
  -23.7544  -30.5901   19.4023 H   0  0  0  0  0  0
  -22.7551  -29.2436   19.8579 H   0  0  0  0  0  0
  -25.1280  -36.1954   25.0829 H   0  0  0  0  0  0
  -20.9980  -28.3277   24.1407 H   0  0  0  0  0  0
  -20.5682  -26.2309   23.3616 H   0  0  0  0  0  0
  -21.6645  -26.7460   22.1204 H   0  0  0  0  0  0
  -19.6912  -25.6302   21.1249 H   0  0  0  0  0  0
  -19.6686  -27.3203   20.6744 H   0  0  0  0  0  0
  -17.4200  -26.6684   21.4032 H   0  0  0  0  0  0
  -18.0332  -26.0084   22.9027 H   0  0  0  0  0  0
  -19.7937  -30.7281   24.2270 H   0  0  0  0  0  0
  -17.5019  -31.6276   24.5176 H   0  0  0  0  0  0
  -15.5355  -30.3006   23.7654 H   0  0  0  0  0  0
  -15.8670  -28.0842   22.7059 H   0  0  0  0  0  0
  -24.5915  -30.7065   25.7775 H   0  0  0  0  0  0
  -24.8924  -32.2891   26.4860 H   0  0  0  0  0  0
  -25.8075  -30.8912   27.0217 H   0  0  0  0  0  0
  -26.2900  -29.6774   24.1170 H   0  0  0  0  0  0
  -27.4050  -29.7265   25.4626 H   0  0  0  0  0  0
  -27.8754  -30.4308   23.9337 H   0  0  0  0  0  0
  -27.2675  -33.3605   26.2073 H   0  0  0  0  0  0
  -28.3872  -32.6881   25.0320 H   0  0  0  0  0  0
  -28.0722  -31.8428   26.5393 H   0  0  0  0  0  0
  -28.2615  -38.0083   24.7502 H   0  0  0  0  0  0
  -28.1049  -36.2617   24.6321 H   0  0  0  0  0  0
  -27.2297  -37.1489   25.8879 H   0  0  0  0  0  0
  -20.9362  -29.8772   21.6893 H   0  0  0  0  0  0
  -26.0177  -38.2860   24.1408 H   0  0  0  0  0  0
  -30.9592  -19.3597   18.7640 H   0  0  0  0  0  0
  -28.6430  -18.1886   22.1952 H   0  0  0  0  0  0
  -30.1424  -21.6650   18.9623 H   0  0  0  0  0  0
  -27.8175  -20.5077   22.3889 H   0  0  0  0  0  0
  -31.4700  -17.2366   21.0102 H   0  0  0  0  0  0
  -31.0071  -17.0843   19.3509 H   0  0  0  0  0  0
  -29.8755  -23.9180   20.1773 H   0  0  0  0  0  0
  -28.4907  -23.6629   19.1322 H   0  0  0  0  0  0
  -28.4322  -25.2246   21.7846 H   0  0  0  0  0  0
  -27.0405  -24.9172   20.8294 H   0  0  0  0  0  0
  -28.9880  -15.7630   20.8520 H   0  0  0  0  0  0
  1 25  1  0  0  0
  1 30  2  0  0  0
  1 80  1  0  0  0
  2  3  1  0  0  0
  2 25  1  0  0  0
  2 82  1  0  0  0
  2 83  1  0  0  0
  3  4  1  0  0  0
  3 84  1  0  0  0
  3 85  1  0  0  0
  4  5  1  0  0  0
  4 86  1  0  0  0
  4 87  1  0  0  0
  5  6  1  0  0  0
  5 26  1  0  0  0
  5 88  1  0  0  0
  6 25  1  0  0  0
  6 89  1  0  0  0
  6 90  1  0  0  0
  7  8  2  0  0  0
  7 26  1  0  0  0
  7 29  1  0  0  0
  8  9  1  0  0  0
  8 22  1  0  0  0
  9 10  1  0  0  0
  9 27  2  0  0  0
 10 11  2  0  0  0
 10 15  1  0  0  0
 11 12  1  0  0  0
 11 91  1  0  0  0
 12 13  2  0  0  0
 12 92  1  0  0  0
 13 14  1  0  0  0
 13 31  1  0  0  0
 14 15  2  0  0  0
 14 93  1  0  0  0
 15 94  1  0  0  0
 16 17  2  0  0  0
 16 21  1  0  0  0
 16 31  1  0  0  0
 17 18  1  0  0  0
 17 95  1  0  0  0
 18 19  2  0  0  0
 18 96  1  0  0  0
 19 20  1  0  0  0
 19 24  1  0  0  0
 20 21  2  0  0  0
 20 97  1  0  0  0
 21 23  1  0  0  0
 22 28  1  0  0  0
 22 32  2  0  0  0
 26 27  1  0  0  0
 28 98  1  0  0  0
 28 99  1  0  0  0
 29100  1  0  0  0
 29101  1  0  0  0
 33 34  1  0  0  0
 33 66  1  0  0  0
 33 70  2  0  0  0
 34 36  1  0  0  0
 34 59  1  0  0  0
 34102  1  0  0  0
 35 44  2  0  0  0
 35 45  1  0  0  0
 35 68  1  0  0  0
 36 56  1  0  0  0
 36103  1  0  0  0
 37 39  1  0  0  0
 37 47  1  0  0  0
 37 66  1  0  0  0
 37104  1  0  0  0
 38 43  2  0  0  0
 38 46  1  0  0  0
 38 47  1  0  0  0
 39 64  1  0  0  0
 39 67  2  0  0  0
 40 52  1  0  0  0
 40 53  2  0  0  0
 40 58  1  0  0  0
 41105  1  0  0  0
 41106  1  0  0  0
 41107  1  0  0  0
 41 48  1  0  0  0
 42 43  1  0  0  0
 42 66  1  0  0  0
 42108  1  0  0  0
 42109  1  0  0  0
 43 44  1  0  0  0
 44110  1  0  0  0
 45 46  2  0  0  0
 45111  1  0  0  0
 46112  1  0  0  0
 47113  1  0  0  0
 47114  1  0  0  0
 48 56  1  0  0  0
 48 65  1  0  0  0
 48115  1  0  0  0
 49 50  1  0  0  0
 49 53  1  0  0  0
 49 64  1  0  0  0
 49116  1  0  0  0
 50 51  1  0  0  0
 50117  1  0  0  0
 50118  1  0  0  0
 51 52  1  0  0  0
 51119  1  0  0  0
 51120  1  0  0  0
 52121  1  0  0  0
 52122  1  0  0  0
 53 54  1  0  0  0
 54 55  2  0  0  0
 54123  1  0  0  0
 55 57  1  0  0  0
 55124  1  0  0  0
 56 69  2  0  0  0
 57 58  2  0  0  0
 57125  1  0  0  0
 58126  1  0  0  0
 59 60  1  0  0  0
 59 61  1  0  0  0
 59 62  1  0  0  0
 60127  1  0  0  0
 60128  1  0  0  0
 60129  1  0  0  0
 61130  1  0  0  0
 61131  1  0  0  0
 61132  1  0  0  0
 62133  1  0  0  0
 62134  1  0  0  0
 62135  1  0  0  0
 63 65  1  0  0  0
 63136  1  0  0  0
 63137  1  0  0  0
 63138  1  0  0  0
 64139  1  0  0  0
 65140  1  0  0  0
 68 79  1  0  0  0
 71 73  2  0  0  0
 71 75  1  0  0  0
 71141  1  0  0  0
 72 74  1  0  0  0
 72 75  2  0  0  0
 72142  1  0  0  0
 73 76  1  0  0  0
 73143  1  0  0  0
 74 76  2  0  0  0
 74144  1  0  0  0
 75 77  1  0  0  0
 76 81  1  0  0  0
 77 80  1  0  0  0
 77145  1  0  0  0
 77146  1  0  0  0
 78 79  1  0  0  0
 78 81  1  0  0  0
 78147  1  0  0  0
 78148  1  0  0  0
 79149  1  0  0  0
 79150  1  0  0  0
 80151  1  0  0  0
M  ISO  4   1 100  68 101  79 101  80 100
M  END
> <chiral flag>
0

> <version>
0

> <s_m_source_file>
/data/baiqing/PycharmProjects/Reinvent-master-3.2/result/LINK_invent/BTK/process_docking_weight1_custom_sum_contain_oxygen_bond_distance_aromatic_linkinvent_7_9_3/rearranged_h_0137.sdf

> <i_m_source_file_index>
35

> <r_mmod_Potential_Energy-OPLS-2005>
36.7274284362793

> <r_mmod_Stretch_Energy-OPLS-2005>
76.701904296875

> <r_mmod_Bend_Energy-OPLS-2005>
155.474868774414

> <r_mmod_Torsional_Energy-OPLS-2005>
221.02214050293

> <r_mmod_Improper_Torsional_Energy-OPLS-2005>
6.35961389541626

> <r_mmod_Van_der_Waal_Energy-OPLS-2005>
143.365112304688

> <r_mmod_Electrostatic_Energy-OPLS-2005>
-407.782104492188

> <r_mmod_Solvation_Energy-OPLS-2005>
-210.192901611328

> <b_mmod_Minimization_Converged-OPLS-2005>
0

> <r_mmod_RMS_Derivative-OPLS-2005>
0.90838497877121

$$$$
35
                    3D
 Structure written by MMmdl.
161170  0  0  1  0            999 V2000
  -30.6679  -14.6136   20.4834 C   0  0  0  0  0  0
  -30.4236  -12.3733   19.4576 C   0  0  0  0  0  0
  -29.5030  -12.4905   18.2250 C   0  0  0  0  0  0
  -28.0277  -12.3331   18.6393 C   0  0  0  0  0  0
  -27.6498  -13.2201   19.8559 C   0  0  2  0  0  0
  -28.6927  -13.1090   20.9902 C   0  0  0  0  0  0
  -25.2549  -13.8186   20.5664 C   0  0  0  0  0  0
  -24.1819  -13.0453   20.9183 C   0  0  0  0  0  0
  -24.6390  -11.6925   20.8742 C   0  0  0  0  0  0
  -23.9066  -10.4303   21.0413 C   0  0  0  0  0  0
  -24.3619   -9.4212   21.9183 C   0  0  0  0  0  0
  -23.6295   -8.2246   22.0752 C   0  0  0  0  0  0
  -22.4276   -8.0283   21.3546 C   0  0  0  0  0  0
  -21.9918   -9.0255   20.4644 C   0  0  0  0  0  0
  -22.7246  -10.2136   20.3056 C   0  0  0  0  0  0
  -21.6851   -6.0735   22.5278 C   0  0  0  0  0  0
  -21.4010   -6.5640   23.8210 C   0  0  0  0  0  0
  -21.3663   -5.6794   24.9174 C   0  0  0  0  0  0
  -21.6048   -4.3056   24.7225 C   0  0  0  0  0  0
  -21.8821   -3.8147   23.4347 C   0  0  0  0  0  0
  -21.9194   -4.6963   22.3402 C   0  0  0  0  0  0
  -22.7844  -13.5244   21.1852 C   0  0  0  0  0  0
  -22.1662   -4.2151   21.0978 F   0  0  0  0  0  0
  -21.5637   -3.4538   25.7738 F   0  0  0  0  0  0
  -30.0083  -13.4177   20.4153 N   0  0  0  0  0  0
  -26.2975  -12.9373   20.3293 N   0  0  0  0  0  0
  -25.9318  -11.6530   20.5761 N   0  0  0  0  0  0
  -22.0488  -12.8229   22.0405 N   0  0  0  0  0  0
  -25.4292  -15.1901   20.4042 N   0  0  0  0  0  0
  -31.8438  -14.7177   20.1291 O   0  0  0  0  0  0
  -21.6642   -6.8879   21.4241 O   0  0  0  0  0  0
  -22.3531  -14.5551   20.6705 O   0  0  0  0  0  0
  -24.6267  -31.8622   23.2053 C   0  0  0  0  0  0
  -25.9120  -32.4796   23.8372 C   0  0  1  0  0  0
  -27.2127  -27.3321   20.1093 C   0  0  0  0  0  0
  -25.5944  -33.8595   24.2302 N   0  0  0  0  0  0
  -23.4195  -30.4899   21.5470 C   0  0  2  0  0  0
  -24.8625  -28.9541   20.1080 C   0  0  0  0  0  0
  -22.7481  -29.4646   22.4919 C   0  0  0  0  0  0
  -18.0298  -28.1398   22.8492 C   0  0  0  0  0  0
  -24.1486  -36.7281   23.2638 C   0  0  0  0  0  0
  -25.9610  -30.7979   21.3745 C   0  0  0  0  0  0
  -26.0344  -29.4276   20.7131 C   0  0  0  0  0  0
  -27.2170  -28.6288   20.7060 C   0  0  0  0  0  0
  -26.0194  -26.9188   19.4689 C   0  0  0  0  0  0
  -24.8548  -27.7033   19.4778 C   0  0  0  0  0  0
  -23.6327  -29.8351   20.1588 C   0  0  0  0  0  0
  -25.4108  -36.3084   24.0332 C   0  0  1  0  0  0
  -20.5902  -28.3698   23.1277 C   0  0  2  0  0  0
  -20.6790  -26.9420   22.5407 C   0  0  0  0  0  0
  -19.5760  -26.6393   21.5213 C   0  0  0  0  0  0
  -18.1938  -26.7953   22.1620 C   0  0  0  0  0  0
  -19.1554  -28.8862   23.2888 C   0  0  0  0  0  0
  -18.9476  -30.1468   23.8898 C   0  0  0  0  0  0
  -17.6473  -30.6599   24.0572 C   0  0  0  0  0  0
  -25.9045  -34.9460   23.5113 C   0  0  0  0  0  0
  -16.5362  -29.9100   23.6337 C   0  0  0  0  0  0
  -16.7285  -28.6522   23.0352 C   0  0  0  0  0  0
  -26.4501  -31.6600   25.0742 C   0  0  0  0  0  0
  -25.3741  -31.3731   26.1476 C   0  0  0  0  0  0
  -27.0336  -30.3035   24.6167 C   0  0  0  0  0  0
  -27.6068  -32.4327   25.7510 C   0  0  0  0  0  0
  -27.5569  -37.1800   24.8467 C   0  0  0  0  0  0
  -21.4192  -29.3059   22.3676 N   0  0  0  0  0  0
  -26.4278  -37.3783   23.9419 N   0  0  0  0  0  0
  -24.6879  -31.0656   22.0985 N   0  0  0  0  0  0
  -23.4218  -28.8172   23.2980 O   0  0  0  0  0  0
  -28.2893  -26.4348   20.1689 O   0  0  0  0  0  0
  -26.5599  -34.8924   22.4670 O   0  0  0  0  0  0
  -23.5429  -32.1396   23.7388 O   0  0  0  0  0  0
  -29.8423  -23.3629   20.0730 C   0  0  0  0  0  0
  -30.3527  -22.0322   20.0684 C   0  0  0  0  0  0
  -28.2027  -21.1635   20.7034 C   0  0  0  0  0  0
  -27.6808  -22.4951   20.7281 C   0  0  0  0  0  0
  -28.4891  -23.6299   20.3983 C   0  0  0  0  0  0
  -29.5543  -20.8985   20.3756 C   0  0  0  0  0  0
  -24.5945  -22.7112   22.4939 C   0  0  0  0  0  0
  -25.3471  -21.6103   21.7396 C   0  0  0  0  0  0
  -25.8415  -23.5791   22.3142 C   0  0  0  0  0  0
  -26.2146  -22.7100   21.0993 C   0  0  0  0  0  0
  -27.8192  -25.0546   20.3798 C   0  0  0  0  0  0
  -30.4510  -17.1426   20.5358 C   0  0  0  0  0  0
  -29.4555  -18.3764   20.6142 C   0  0  0  0  0  0
  -29.9372  -15.7413   20.7292 N   0  0  0  0  0  0
  -30.1554  -19.6276   20.3335 O   0  0  0  0  0  0
  -31.4687  -12.4701   19.1566 H   0  0  0  0  0  0
  -30.3352  -11.3854   19.9127 H   0  0  0  0  0  0
  -29.7662  -11.7349   17.4838 H   0  0  0  0  0  0
  -29.6509  -13.4584   17.7433 H   0  0  0  0  0  0
  -27.8672  -11.2827   18.8842 H   0  0  0  0  0  0
  -27.3724  -12.5499   17.7951 H   0  0  0  0  0  0
  -27.6629  -14.2493   19.4963 H   0  0  0  0  0  0
  -28.6958  -12.1053   21.4175 H   0  0  0  0  0  0
  -28.4476  -13.7874   21.8088 H   0  0  0  0  0  0
  -25.2765   -9.5689   22.4753 H   0  0  0  0  0  0
  -24.0009   -7.4639   22.7471 H   0  0  0  0  0  0
  -21.0852   -8.8770   19.8945 H   0  0  0  0  0  0
  -22.3703  -10.9671   19.6158 H   0  0  0  0  0  0
  -21.1990   -7.6146   23.9716 H   0  0  0  0  0  0
  -21.1487   -6.0520   25.9079 H   0  0  0  0  0  0
  -22.0596   -2.7609   23.2843 H   0  0  0  0  0  0
  -22.4100  -11.9871   22.4764 H   0  0  0  0  0  0
  -21.1107  -13.1252   22.2625 H   0  0  0  0  0  0
  -24.6634  -15.8488   20.4965 H   0  0  0  0  0  0
  -26.2792  -15.6194   20.0614 H   0  0  0  0  0  0
  -26.7192  -32.5458   23.1121 H   0  0  0  0  0  0
  -25.0142  -33.9748   25.0481 H   0  0  0  0  0  0
  -22.7135  -31.3111   21.4089 H   0  0  0  0  0  0
  -23.3753  -35.9610   23.3305 H   0  0  0  0  0  0
  -24.3579  -36.8887   22.2050 H   0  0  0  0  0  0
  -23.7230  -37.6485   23.6653 H   0  0  0  0  0  0
  -26.0938  -31.5632   20.6088 H   0  0  0  0  0  0
  -26.8426  -30.8423   22.0024 H   0  0  0  0  0  0
  -28.1128  -28.9839   21.1963 H   0  0  0  0  0  0
  -25.9606  -25.9656   18.9634 H   0  0  0  0  0  0
  -23.9587  -27.3362   18.9973 H   0  0  0  0  0  0
  -23.7558  -30.6178   19.4083 H   0  0  0  0  0  0
  -22.7511  -29.2711   19.8507 H   0  0  0  0  0  0
  -25.1292  -36.1925   25.0822 H   0  0  0  0  0  0
  -21.0002  -28.3264   24.1392 H   0  0  0  0  0  0
  -20.5693  -26.2301   23.3603 H   0  0  0  0  0  0
  -21.6658  -26.7452   22.1193 H   0  0  0  0  0  0
  -19.6915  -25.6300   21.1245 H   0  0  0  0  0  0
  -19.6706  -27.3204   20.6745 H   0  0  0  0  0  0
  -17.4212  -26.6712   21.4016 H   0  0  0  0  0  0
  -18.0327  -26.0102   22.9016 H   0  0  0  0  0  0
  -19.7948  -30.7298   24.2257 H   0  0  0  0  0  0
  -17.5027  -31.6279   24.5180 H   0  0  0  0  0  0
  -15.5365  -30.3005   23.7669 H   0  0  0  0  0  0
  -15.8681  -28.0846   22.7053 H   0  0  0  0  0  0
  -24.5947  -30.7033   25.7825 H   0  0  0  0  0  0
  -24.8892  -32.2886   26.4876 H   0  0  0  0  0  0
  -25.8084  -30.8957   27.0265 H   0  0  0  0  0  0
  -26.2895  -29.6808   24.1193 H   0  0  0  0  0  0
  -27.4055  -29.7275   25.4645 H   0  0  0  0  0  0
  -27.8760  -30.4353   23.9377 H   0  0  0  0  0  0
  -27.2703  -33.3646   26.2064 H   0  0  0  0  0  0
  -28.3902  -32.6846   25.0352 H   0  0  0  0  0  0
  -28.0713  -31.8461   26.5446 H   0  0  0  0  0  0
  -28.2598  -38.0090   24.7522 H   0  0  0  0  0  0
  -28.1058  -36.2625   24.6290 H   0  0  0  0  0  0
  -27.2295  -37.1438   25.8874 H   0  0  0  0  0  0
  -20.9352  -29.8801   21.6914 H   0  0  0  0  0  0
  -26.0154  -38.2850   24.1441 H   0  0  0  0  0  0
  -30.4973  -24.1829   19.8127 H   0  0  0  0  0  0
  -31.3912  -21.8770   19.8112 H   0  0  0  0  0  0
  -27.5526  -20.3326   20.9352 H   0  0  0  0  0  0
  -24.3465  -22.4743   23.5293 H   0  0  0  0  0  0
  -23.7302  -23.0921   21.9467 H   0  0  0  0  0  0
  -24.7475  -21.0310   21.0363 H   0  0  0  0  0  0
  -25.8944  -20.9629   22.4266 H   0  0  0  0  0  0
  -26.5464  -23.4686   23.1402 H   0  0  0  0  0  0
  -25.6476  -24.6295   22.0930 H   0  0  0  0  0  0
  -25.7016  -23.0855   20.2103 H   0  0  0  0  0  0
  -28.4472  -25.1775   21.2639 H   0  0  0  0  0  0
  -28.0929  -24.9865   19.3250 H   0  0  0  0  0  0
  -31.2486  -17.3034   21.2624 H   0  0  0  0  0  0
  -30.9365  -17.1824   19.5587 H   0  0  0  0  0  0
  -29.0044  -18.4256   21.6052 H   0  0  0  0  0  0
  -28.6472  -18.2498   19.8934 H   0  0  0  0  0  0
  -28.9672  -15.6217   20.9810 H   0  0  0  0  0  0
  1 25  1  0  0  0
  1 30  2  0  0  0
  1 84  1  0  0  0
  2  3  1  0  0  0
  2 25  1  0  0  0
  2 86  1  0  0  0
  2 87  1  0  0  0
  3  4  1  0  0  0
  3 88  1  0  0  0
  3 89  1  0  0  0
  4  5  1  0  0  0
  4 90  1  0  0  0
  4 91  1  0  0  0
  5  6  1  0  0  0
  5 26  1  0  0  0
  5 92  1  0  0  0
  6 25  1  0  0  0
  6 93  1  0  0  0
  6 94  1  0  0  0
  7  8  2  0  0  0
  7 26  1  0  0  0
  7 29  1  0  0  0
  8  9  1  0  0  0
  8 22  1  0  0  0
  9 10  1  0  0  0
  9 27  2  0  0  0
 10 11  2  0  0  0
 10 15  1  0  0  0
 11 12  1  0  0  0
 11 95  1  0  0  0
 12 13  2  0  0  0
 12 96  1  0  0  0
 13 14  1  0  0  0
 13 31  1  0  0  0
 14 15  2  0  0  0
 14 97  1  0  0  0
 15 98  1  0  0  0
 16 17  2  0  0  0
 16 21  1  0  0  0
 16 31  1  0  0  0
 17 18  1  0  0  0
 17 99  1  0  0  0
 18 19  2  0  0  0
 18100  1  0  0  0
 19 20  1  0  0  0
 19 24  1  0  0  0
 20 21  2  0  0  0
 20101  1  0  0  0
 21 23  1  0  0  0
 22 28  1  0  0  0
 22 32  2  0  0  0
 26 27  1  0  0  0
 28102  1  0  0  0
 28103  1  0  0  0
 29104  1  0  0  0
 29105  1  0  0  0
 33 34  1  0  0  0
 33 66  1  0  0  0
 33 70  2  0  0  0
 34 36  1  0  0  0
 34 59  1  0  0  0
 34106  1  0  0  0
 35 44  2  0  0  0
 35 45  1  0  0  0
 35 68  1  0  0  0
 36 56  1  0  0  0
 36107  1  0  0  0
 37 39  1  0  0  0
 37 47  1  0  0  0
 37 66  1  0  0  0
 37108  1  0  0  0
 38 43  2  0  0  0
 38 46  1  0  0  0
 38 47  1  0  0  0
 39 64  1  0  0  0
 39 67  2  0  0  0
 40 52  1  0  0  0
 40 53  2  0  0  0
 40 58  1  0  0  0
 41109  1  0  0  0
 41110  1  0  0  0
 41111  1  0  0  0
 41 48  1  0  0  0
 42 43  1  0  0  0
 42 66  1  0  0  0
 42112  1  0  0  0
 42113  1  0  0  0
 43 44  1  0  0  0
 44114  1  0  0  0
 45 46  2  0  0  0
 45115  1  0  0  0
 46116  1  0  0  0
 47117  1  0  0  0
 47118  1  0  0  0
 48 56  1  0  0  0
 48 65  1  0  0  0
 48119  1  0  0  0
 49 50  1  0  0  0
 49 53  1  0  0  0
 49 64  1  0  0  0
 49120  1  0  0  0
 50 51  1  0  0  0
 50121  1  0  0  0
 50122  1  0  0  0
 51 52  1  0  0  0
 51123  1  0  0  0
 51124  1  0  0  0
 52125  1  0  0  0
 52126  1  0  0  0
 53 54  1  0  0  0
 54 55  2  0  0  0
 54127  1  0  0  0
 55 57  1  0  0  0
 55128  1  0  0  0
 56 69  2  0  0  0
 57 58  2  0  0  0
 57129  1  0  0  0
 58130  1  0  0  0
 59 60  1  0  0  0
 59 61  1  0  0  0
 59 62  1  0  0  0
 60131  1  0  0  0
 60132  1  0  0  0
 60133  1  0  0  0
 61134  1  0  0  0
 61135  1  0  0  0
 61136  1  0  0  0
 62137  1  0  0  0
 62138  1  0  0  0
 62139  1  0  0  0
 63 65  1  0  0  0
 63140  1  0  0  0
 63141  1  0  0  0
 63142  1  0  0  0
 64143  1  0  0  0
 65144  1  0  0  0
 68 81  1  0  0  0
 71 72  2  0  0  0
 71 75  1  0  0  0
 71145  1  0  0  0
 72 76  1  0  0  0
 72146  1  0  0  0
 73 74  1  0  0  0
 73 76  2  0  0  0
 73147  1  0  0  0
 74 75  2  0  0  0
 74 80  1  0  0  0
 75 81  1  0  0  0
 76 85  1  0  0  0
 77 78  1  0  0  0
 77 79  1  0  0  0
 77148  1  0  0  0
 77149  1  0  0  0
 78 80  1  0  0  0
 78150  1  0  0  0
 78151  1  0  0  0
 79 80  1  0  0  0
 79152  1  0  0  0
 79153  1  0  0  0
 80154  1  0  0  0
 81155  1  0  0  0
 81156  1  0  0  0
 82 83  1  0  0  0
 82 84  1  0  0  0
 82157  1  0  0  0
 82158  1  0  0  0
 83 85  1  0  0  0
 83159  1  0  0  0
 83160  1  0  0  0
 84161  1  0  0  0
M  ISO  4   1 100  68 101  81 101  84 100
M  END
> <chiral flag>
0

> <version>
0

> <s_m_source_file>
/data/baiqing/PycharmProjects/Reinvent-master-3.2/result/LINK_invent/BTK/process_docking_weight1_custom_sum_contain_oxygen_bond_distance_aromatic_linkinvent_7_9_3/rearranged_h_0137.sdf

> <i_m_source_file_index>
36

> <r_mmod_Potential_Energy-OPLS-2005>
265.605499267578

> <r_mmod_Stretch_Energy-OPLS-2005>
71.4713287353516

> <r_mmod_Bend_Energy-OPLS-2005>
366.659942626953

> <r_mmod_Torsional_Energy-OPLS-2005>
236.077117919922

> <r_mmod_Improper_Torsional_Energy-OPLS-2005>
5.30020475387573

> <r_mmod_Van_der_Waal_Energy-OPLS-2005>
150.489074707031

> <r_mmod_Electrostatic_Energy-OPLS-2005>
-403.172393798828

> <r_mmod_Solvation_Energy-OPLS-2005>
-210.356475830078

> <b_mmod_Minimization_Converged-OPLS-2005>
0

> <r_mmod_RMS_Derivative-OPLS-2005>
1.47646844387054

$$$$
36
                    3D
 Structure written by MMmdl.
175184  0  0  1  0            999 V2000
  -30.6705  -14.6048   20.5485 C   0  0  0  0  0  0
  -30.4343  -12.3873   19.4556 C   0  0  0  0  0  0
  -29.5062  -12.5131   18.2294 C   0  0  0  0  0  0
  -28.0301  -12.3509   18.6404 C   0  0  0  0  0  0
  -27.6556  -13.2185   19.8714 C   0  0  2  0  0  0
  -28.7004  -13.0759   21.0014 C   0  0  0  0  0  0
  -25.2577  -13.8185   20.5718 C   0  0  0  0  0  0
  -24.1839  -13.0458   20.9206 C   0  0  0  0  0  0
  -24.6418  -11.6916   20.8764 C   0  0  0  0  0  0
  -23.9088  -10.4289   21.0397 C   0  0  0  0  0  0
  -24.3641   -9.4211   21.9186 C   0  0  0  0  0  0
  -23.6313   -8.2250   22.0755 C   0  0  0  0  0  0
  -22.4289   -8.0286   21.3554 C   0  0  0  0  0  0
  -21.9920   -9.0264   20.4649 C   0  0  0  0  0  0
  -22.7255  -10.2145   20.3059 C   0  0  0  0  0  0
  -21.6863   -6.0734   22.5267 C   0  0  0  0  0  0
  -21.4017   -6.5634   23.8201 C   0  0  0  0  0  0
  -21.3674   -5.6790   24.9167 C   0  0  0  0  0  0
  -21.6055   -4.3056   24.7215 C   0  0  0  0  0  0
  -21.8836   -3.8150   23.4335 C   0  0  0  0  0  0
  -21.9205   -4.6965   22.3392 C   0  0  0  0  0  0
  -22.7855  -13.5236   21.1845 C   0  0  0  0  0  0
  -22.1665   -4.2162   21.0968 F   0  0  0  0  0  0
  -21.5630   -3.4532   25.7720 F   0  0  0  0  0  0
  -30.0186  -13.4032   20.4414 N   0  0  0  0  0  0
  -26.3001  -12.9372   20.3373 N   0  0  0  0  0  0
  -25.9347  -11.6524   20.5806 N   0  0  0  0  0  0
  -22.0504  -12.8235   22.0391 N   0  0  0  0  0  0
  -25.4313  -15.1914   20.4081 N   0  0  0  0  0  0
  -31.8177  -14.7523   20.1226 O   0  0  0  0  0  0
  -21.6664   -6.8881   21.4228 O   0  0  0  0  0  0
  -22.3530  -14.5525   20.6657 O   0  0  0  0  0  0
  -24.6223  -31.8619   23.2066 C   0  0  0  0  0  0
  -25.9088  -32.4806   23.8364 C   0  0  1  0  0  0
  -27.2137  -27.3420   20.1177 C   0  0  0  0  0  0
  -25.5918  -33.8601   24.2304 N   0  0  0  0  0  0
  -23.4136  -30.4898   21.5500 C   0  0  2  0  0  0
  -24.8556  -28.9486   20.1077 C   0  0  0  0  0  0
  -22.7442  -29.4653   22.4944 C   0  0  0  0  0  0
  -18.0270  -28.1374   22.8460 C   0  0  0  0  0  0
  -24.1495  -36.7297   23.2642 C   0  0  0  0  0  0
  -25.9526  -30.7982   21.3737 C   0  0  0  0  0  0
  -26.0238  -29.4293   20.7138 C   0  0  0  0  0  0
  -27.2071  -28.6377   20.7087 C   0  0  0  0  0  0
  -26.0295  -26.9147   19.4714 C   0  0  0  0  0  0
  -24.8606  -27.6973   19.4739 C   0  0  0  0  0  0
  -23.6231  -29.8285   20.1625 C   0  0  0  0  0  0
  -25.4118  -36.3101   24.0338 C   0  0  1  0  0  0
  -20.5873  -28.3684   23.1246 C   0  0  2  0  0  0
  -20.6767  -26.9405   22.5386 C   0  0  0  0  0  0
  -19.5764  -26.6373   21.5174 C   0  0  0  0  0  0
  -18.1935  -26.7914   22.1582 C   0  0  0  0  0  0
  -19.1530  -28.8835   23.2864 C   0  0  0  0  0  0
  -18.9459  -30.1426   23.8899 C   0  0  0  0  0  0
  -17.6468  -30.6583   24.0537 C   0  0  0  0  0  0
  -25.9045  -34.9466   23.5108 C   0  0  0  0  0  0
  -16.5353  -29.9073   23.6325 C   0  0  0  0  0  0
  -16.7262  -28.6488   23.0352 C   0  0  0  0  0  0
  -26.4482  -31.6601   25.0719 C   0  0  0  0  0  0
  -25.3720  -31.3689   26.1454 C   0  0  0  0  0  0
  -27.0328  -30.3046   24.6119 C   0  0  0  0  0  0
  -27.6082  -32.4304   25.7461 C   0  0  0  0  0  0
  -27.5585  -37.1806   24.8463 C   0  0  0  0  0  0
  -21.4168  -29.3048   22.3656 N   0  0  0  0  0  0
  -26.4302  -37.3790   23.9405 N   0  0  0  0  0  0
  -24.6819  -31.0646   22.1012 N   0  0  0  0  0  0
  -23.4172  -28.8171   23.3000 O   0  0  0  0  0  0
  -28.3254  -26.4953   20.1999 O   0  0  0  0  0  0
  -26.5609  -34.8921   22.4672 O   0  0  0  0  0  0
  -23.5400  -32.1386   23.7429 O   0  0  0  0  0  0
  -31.6259  -22.1901   18.8083 C   0  0  0  0  0  0
  -31.8120  -21.7458   20.2586 C   0  0  0  0  0  0
  -29.4478  -17.9202   19.8098 C   0  0  0  0  0  0
  -30.0812  -17.9392   22.1723 C   0  0  0  0  0  0
  -29.8820  -19.4230   19.6647 C   0  0  0  0  0  0
  -30.4838  -19.4521   22.0598 C   0  0  0  0  0  0
  -30.5056  -23.2275   18.8872 C   0  0  2  0  0  0
  -29.5595  -22.7756   20.0499 C   0  0  1  0  0  0
  -30.2827  -17.1424   20.8596 C   0  0  1  0  0  0
  -30.3881  -21.6681   20.8553 C   0  0  1  0  0  0
  -30.9003  -24.0227   16.4742 C   0  0  0  0  0  0
  -28.8731  -22.5943   16.9493 C   0  0  0  0  0  0
  -29.1220  -24.0719   20.8642 C   0  0  0  0  0  0
  -28.0557  -25.0474   20.2205 C   0  0  0  0  0  0
  -29.8557  -23.6248   17.5306 C   0  0  0  0  0  0
  -29.9343  -15.6801   20.9604 N   0  0  0  0  0  0
  -29.8534  -20.2287   20.9334 N   0  3  1  0  0  0
  -31.4720  -12.5162   19.1411 H   0  0  0  0  0  0
  -30.3739  -11.3889   19.8919 H   0  0  0  0  0  0
  -29.7688  -11.7634   17.4818 H   0  0  0  0  0  0
  -29.6466  -13.4866   17.7565 H   0  0  0  0  0  0
  -27.8667  -11.2957   18.8664 H   0  0  0  0  0  0
  -27.3763  -12.5903   17.7999 H   0  0  0  0  0  0
  -27.6758  -14.2555   19.5365 H   0  0  0  0  0  0
  -28.7102  -12.0581   21.3971 H   0  0  0  0  0  0
  -28.4484  -13.7202   21.8453 H   0  0  0  0  0  0
  -25.2789   -9.5697   22.4763 H   0  0  0  0  0  0
  -24.0044   -7.4643   22.7460 H   0  0  0  0  0  0
  -21.0867   -8.8778   19.8941 H   0  0  0  0  0  0
  -22.3711  -10.9696   19.6173 H   0  0  0  0  0  0
  -21.2002   -7.6138   23.9702 H   0  0  0  0  0  0
  -21.1473   -6.0515   25.9073 H   0  0  0  0  0  0
  -22.0610   -2.7608   23.2826 H   0  0  0  0  0  0
  -22.4127  -11.9902   22.4805 H   0  0  0  0  0  0
  -21.1114  -13.1245   22.2568 H   0  0  0  0  0  0
  -24.6664  -15.8500   20.5132 H   0  0  0  0  0  0
  -26.2804  -15.6250   20.0672 H   0  0  0  0  0  0
  -26.7143  -32.5459   23.1098 H   0  0  0  0  0  0
  -25.0083  -33.9740   25.0466 H   0  0  0  0  0  0
  -22.7068  -31.3112   21.4145 H   0  0  0  0  0  0
  -23.3770  -35.9617   23.3312 H   0  0  0  0  0  0
  -24.3606  -36.8908   22.2058 H   0  0  0  0  0  0
  -23.7230  -37.6496   23.6650 H   0  0  0  0  0  0
  -26.0796  -31.5605   20.6051 H   0  0  0  0  0  0
  -26.8361  -30.8449   21.9989 H   0  0  0  0  0  0
  -28.1025  -28.9956   21.1963 H   0  0  0  0  0  0
  -25.9804  -25.9615   18.9666 H   0  0  0  0  0  0
  -23.9685  -27.3275   18.9871 H   0  0  0  0  0  0
  -23.7361  -30.6080   19.4072 H   0  0  0  0  0  0
  -22.7398  -29.2603   19.8652 H   0  0  0  0  0  0
  -25.1314  -36.1966   25.0837 H   0  0  0  0  0  0
  -20.9972  -28.3266   24.1366 H   0  0  0  0  0  0
  -20.5629  -26.2305   23.3590 H   0  0  0  0  0  0
  -21.6643  -26.7421   22.1208 H   0  0  0  0  0  0
  -19.6928  -25.6274   21.1222 H   0  0  0  0  0  0
  -19.6709  -27.3159   20.6682 H   0  0  0  0  0  0
  -17.4203  -26.6630   21.3993 H   0  0  0  0  0  0
  -18.0368  -26.0056   22.8983 H   0  0  0  0  0  0
  -19.7949  -30.7219   24.2308 H   0  0  0  0  0  0
  -17.5035  -31.6285   24.5100 H   0  0  0  0  0  0
  -15.5359  -30.2980   23.7670 H   0  0  0  0  0  0
  -15.8658  -28.0804   22.7095 H   0  0  0  0  0  0
  -24.5903  -30.7043   25.7749 H   0  0  0  0  0  0
  -24.8890  -32.2829   26.4925 H   0  0  0  0  0  0
  -25.8052  -30.8814   27.0201 H   0  0  0  0  0  0
  -26.2868  -29.6788   24.1198 H   0  0  0  0  0  0
  -27.4137  -29.7321   25.4591 H   0  0  0  0  0  0
  -27.8702  -30.4413   23.9268 H   0  0  0  0  0  0
  -27.2757  -33.3611   26.2075 H   0  0  0  0  0  0
  -28.3857  -32.6839   25.0238 H   0  0  0  0  0  0
  -28.0781  -31.8377   26.5324 H   0  0  0  0  0  0
  -28.2620  -38.0089   24.7527 H   0  0  0  0  0  0
  -28.1067  -36.2626   24.6288 H   0  0  0  0  0  0
  -27.2297  -37.1464   25.8865 H   0  0  0  0  0  0
  -20.9331  -29.8763   21.6872 H   0  0  0  0  0  0
  -26.0193  -38.2872   24.1408 H   0  0  0  0  0  0
  -31.3383  -21.3565   18.1697 H   0  0  0  0  0  0
  -32.5481  -22.6072   18.3988 H   0  0  0  0  0  0
  -32.3726  -22.5215   20.7856 H   0  0  0  0  0  0
  -32.4032  -20.8334   20.3388 H   0  0  0  0  0  0
  -29.5551  -17.4307   18.8422 H   0  0  0  0  0  0
  -28.3862  -17.8592   20.0574 H   0  0  0  0  0  0
  -29.0436  -17.8638   22.4991 H   0  0  0  0  0  0
  -30.6749  -17.4819   22.9655 H   0  0  0  0  0  0
  -29.2503  -19.9132   18.9240 H   0  0  0  0  0  0
  -30.8921  -19.4142   19.2573 H   0  0  0  0  0  0
  -31.5670  -19.5022   21.9665 H   0  0  0  0  0  0
  -30.2451  -19.9468   23.0020 H   0  0  0  0  0  0
  -31.0169  -24.1310   19.2270 H   0  0  0  0  0  0
  -28.6586  -22.2905   19.6846 H   0  0  0  0  0  0
  -31.3336  -17.2205   20.5751 H   0  0  0  0  0  0
  -30.4456  -22.0096   21.8885 H   0  0  0  0  0  0
  -31.6181  -24.7405   16.8742 H   0  0  0  0  0  0
  -30.4169  -24.4898   15.6144 H   0  0  0  0  0  0
  -31.4612  -23.1601   16.1067 H   0  0  0  0  0  0
  -28.0780  -22.3315   17.6426 H   0  0  0  0  0  0
  -29.3750  -21.6757   16.6472 H   0  0  0  0  0  0
  -28.3777  -23.0013   16.0678 H   0  0  0  0  0  0
  -30.0005  -24.6450   21.1592 H   0  0  0  0  0  0
  -28.7017  -23.7325   21.8116 H   0  0  0  0  0  0
  -27.1423  -24.8914   20.7980 H   0  0  0  0  0  0
  -27.7982  -24.6997   19.2228 H   0  0  0  0  0  0
  -29.2886  -24.5376   17.7116 H   0  0  0  0  0  0
  -29.0097  -15.4575   21.2988 H   0  0  0  0  0  0
  -28.8804  -20.3245   21.1854 H   0  0  0  0  0  0
  1 25  1  0  0  0
  1 30  2  0  0  0
  1 86  1  0  0  0
  2  3  1  0  0  0
  2 25  1  0  0  0
  2 88  1  0  0  0
  2 89  1  0  0  0
  3  4  1  0  0  0
  3 90  1  0  0  0
  3 91  1  0  0  0
  4  5  1  0  0  0
  4 92  1  0  0  0
  4 93  1  0  0  0
  5  6  1  0  0  0
  5 26  1  0  0  0
  5 94  1  0  0  0
  6 25  1  0  0  0
  6 95  1  0  0  0
  6 96  1  0  0  0
  7  8  2  0  0  0
  7 26  1  0  0  0
  7 29  1  0  0  0
  8  9  1  0  0  0
  8 22  1  0  0  0
  9 10  1  0  0  0
  9 27  2  0  0  0
 10 11  2  0  0  0
 10 15  1  0  0  0
 11 12  1  0  0  0
 11 97  1  0  0  0
 12 13  2  0  0  0
 12 98  1  0  0  0
 13 14  1  0  0  0
 13 31  1  0  0  0
 14 15  2  0  0  0
 14 99  1  0  0  0
 15100  1  0  0  0
 16 17  2  0  0  0
 16 21  1  0  0  0
 16 31  1  0  0  0
 17 18  1  0  0  0
 17101  1  0  0  0
 18 19  2  0  0  0
 18102  1  0  0  0
 19 20  1  0  0  0
 19 24  1  0  0  0
 20 21  2  0  0  0
 20103  1  0  0  0
 21 23  1  0  0  0
 22 28  1  0  0  0
 22 32  2  0  0  0
 26 27  1  0  0  0
 28104  1  0  0  0
 28105  1  0  0  0
 29106  1  0  0  0
 29107  1  0  0  0
 33 34  1  0  0  0
 33 66  1  0  0  0
 33 70  2  0  0  0
 34 36  1  0  0  0
 34 59  1  0  0  0
 34108  1  0  0  0
 35 44  2  0  0  0
 35 45  1  0  0  0
 35 68  1  0  0  0
 36 56  1  0  0  0
 36109  1  0  0  0
 37 39  1  0  0  0
 37 47  1  0  0  0
 37 66  1  0  0  0
 37110  1  0  0  0
 38 43  2  0  0  0
 38 46  1  0  0  0
 38 47  1  0  0  0
 39 64  1  0  0  0
 39 67  2  0  0  0
 40 52  1  0  0  0
 40 53  2  0  0  0
 40 58  1  0  0  0
 41111  1  0  0  0
 41112  1  0  0  0
 41113  1  0  0  0
 41 48  1  0  0  0
 42 43  1  0  0  0
 42 66  1  0  0  0
 42114  1  0  0  0
 42115  1  0  0  0
 43 44  1  0  0  0
 44116  1  0  0  0
 45 46  2  0  0  0
 45117  1  0  0  0
 46118  1  0  0  0
 47119  1  0  0  0
 47120  1  0  0  0
 48 56  1  0  0  0
 48 65  1  0  0  0
 48121  1  0  0  0
 49 50  1  0  0  0
 49 53  1  0  0  0
 49 64  1  0  0  0
 49122  1  0  0  0
 50 51  1  0  0  0
 50123  1  0  0  0
 50124  1  0  0  0
 51 52  1  0  0  0
 51125  1  0  0  0
 51126  1  0  0  0
 52127  1  0  0  0
 52128  1  0  0  0
 53 54  1  0  0  0
 54 55  2  0  0  0
 54129  1  0  0  0
 55 57  1  0  0  0
 55130  1  0  0  0
 56 69  2  0  0  0
 57 58  2  0  0  0
 57131  1  0  0  0
 58132  1  0  0  0
 59 60  1  0  0  0
 59 61  1  0  0  0
 59 62  1  0  0  0
 60133  1  0  0  0
 60134  1  0  0  0
 60135  1  0  0  0
 61136  1  0  0  0
 61137  1  0  0  0
 61138  1  0  0  0
 62139  1  0  0  0
 62140  1  0  0  0
 62141  1  0  0  0
 63 65  1  0  0  0
 63142  1  0  0  0
 63143  1  0  0  0
 63144  1  0  0  0
 64145  1  0  0  0
 65146  1  0  0  0
 68 84  1  0  0  0
 71 72  1  0  0  0
 71147  1  0  0  0
 71148  1  0  0  0
 71 77  1  0  0  0
 72149  1  0  0  0
 72150  1  0  0  0
 72 80  1  0  0  0
 73 75  1  0  0  0
 73 79  1  0  0  0
 73151  1  0  0  0
 73152  1  0  0  0
 74 76  1  0  0  0
 74 79  1  0  0  0
 74153  1  0  0  0
 74154  1  0  0  0
 75155  1  0  0  0
 75156  1  0  0  0
 75 87  1  0  0  0
 76 87  1  0  0  0
 76157  1  0  0  0
 76158  1  0  0  0
 77 78  1  0  0  0
 77 85  1  0  0  0
 77159  1  0  0  0
 78 80  1  0  0  0
 78 83  1  0  0  0
 78160  1  0  0  0
 79 86  1  0  0  0
 79161  1  0  0  0
 80 87  1  0  0  0
 80162  1  0  0  0
 81163  1  0  0  0
 81164  1  0  0  0
 81165  1  0  0  0
 81 85  1  0  0  0
 82 85  1  0  0  0
 82166  1  0  0  0
 82167  1  0  0  0
 82168  1  0  0  0
 83 84  1  0  0  0
 83169  1  0  0  0
 83170  1  0  0  0
 84171  1  0  0  0
 84172  1  0  0  0
 85173  1  0  0  0
 86174  1  0  0  0
 87175  1  0  0  0
M  CHG  1  87   1
M  ISO  4   1 100  68 101  84 101  86 100
M  END
> <chiral flag>
0

> <version>
0

> <s_m_source_file>
/data/baiqing/PycharmProjects/Reinvent-master-3.2/result/LINK_invent/BTK/process_docking_weight1_custom_sum_contain_oxygen_bond_distance_aromatic_linkinvent_7_9_3/rearranged_h_0137.sdf

> <i_m_source_file_index>
37

> <r_mmod_Potential_Energy-OPLS-2005>
86.1814270019531

> <r_mmod_Stretch_Energy-OPLS-2005>
78.7484817504883

> <r_mmod_Bend_Energy-OPLS-2005>
169.638626098633

> <r_mmod_Torsional_Energy-OPLS-2005>
331.667327880859

> <r_mmod_Improper_Torsional_Energy-OPLS-2005>
4.36533737182617

> <r_mmod_Van_der_Waal_Energy-OPLS-2005>
131.659469604492

> <r_mmod_Electrostatic_Energy-OPLS-2005>
-234.17936706543

> <r_mmod_Solvation_Energy-OPLS-2005>
-436.448547363281

> <b_mmod_Minimization_Converged-OPLS-2005>
0

> <r_mmod_RMS_Derivative-OPLS-2005>
3.97752642631531

$$$$
37
                    3D
 Structure written by MMmdl.
157165  0  0  1  0            999 V2000
  -30.6752  -14.4858   20.5534 C   0  0  0  0  0  0
  -30.4222  -12.3071   19.4251 C   0  0  0  0  0  0
  -29.4934  -12.5001   18.2071 C   0  0  0  0  0  0
  -28.0154  -12.3536   18.6210 C   0  0  0  0  0  0
  -27.6585  -13.2007   19.8719 C   0  0  2  0  0  0
  -28.6990  -12.9891   20.9951 C   0  0  0  0  0  0
  -25.2585  -13.8132   20.5655 C   0  0  0  0  0  0
  -24.1841  -13.0417   20.9155 C   0  0  0  0  0  0
  -24.6380  -11.6881   20.8711 C   0  0  0  0  0  0
  -23.9040  -10.4268   21.0372 C   0  0  0  0  0  0
  -24.3602   -9.4199   21.9160 C   0  0  0  0  0  0
  -23.6281   -8.2234   22.0743 C   0  0  0  0  0  0
  -22.4264   -8.0258   21.3539 C   0  0  0  0  0  0
  -21.9886   -9.0225   20.4641 C   0  0  0  0  0  0
  -22.7202  -10.2108   20.3037 C   0  0  0  0  0  0
  -21.6854   -6.0714   22.5269 C   0  0  0  0  0  0
  -21.4009   -6.5630   23.8196 C   0  0  0  0  0  0
  -21.3658   -5.6790   24.9159 C   0  0  0  0  0  0
  -21.6043   -4.3053   24.7220 C   0  0  0  0  0  0
  -21.8829   -3.8137   23.4346 C   0  0  0  0  0  0
  -21.9197   -4.6941   22.3396 C   0  0  0  0  0  0
  -22.7872  -13.5218   21.1833 C   0  0  0  0  0  0
  -22.1675   -4.2128   21.0975 F   0  0  0  0  0  0
  -21.5628   -3.4541   25.7738 F   0  0  0  0  0  0
  -30.0297  -13.2936   20.4428 N   0  0  0  0  0  0
  -26.3009  -12.9289   20.3351 N   0  0  0  0  0  0
  -25.9307  -11.6457   20.5760 N   0  0  0  0  0  0
  -22.0537  -12.8210   22.0401 N   0  0  0  0  0  0
  -25.4302  -15.1847   20.4018 N   0  0  0  0  0  0
  -31.8100  -14.6838   20.1106 O   0  0  0  0  0  0
  -21.6645   -6.8848   21.4228 O   0  0  0  0  0  0
  -22.3546  -14.5520   20.6676 O   0  0  0  0  0  0
  -24.6140  -31.8692   23.2103 C   0  0  0  0  0  0
  -25.9031  -32.4828   23.8403 C   0  0  1  0  0  0
  -27.2311  -27.4289   20.0970 C   0  0  0  0  0  0
  -25.5895  -33.8636   24.2328 N   0  0  0  0  0  0
  -23.4028  -30.4904   21.5539 C   0  0  2  0  0  0
  -24.8468  -28.9521   20.1202 C   0  0  0  0  0  0
  -22.7403  -29.4667   22.5037 C   0  0  0  0  0  0
  -18.0267  -28.1342   22.8465 C   0  0  0  0  0  0
  -24.1487  -36.7317   23.2639 C   0  0  0  0  0  0
  -25.9315  -30.8306   21.3646 C   0  0  0  0  0  0
  -26.0087  -29.4653   20.7102 C   0  0  0  0  0  0
  -27.2059  -28.7135   20.6895 C   0  0  0  0  0  0
  -26.0520  -26.9285   19.5043 C   0  0  0  0  0  0
  -24.8627  -27.6831   19.5160 C   0  0  0  0  0  0
  -23.6100  -29.8206   20.1702 C   0  0  0  0  0  0
  -25.4111  -36.3121   24.0333 C   0  0  1  0  0  0
  -20.5853  -28.3655   23.1323 C   0  0  2  0  0  0
  -20.6794  -26.9449   22.5293 C   0  0  0  0  0  0
  -19.5757  -26.6449   21.5113 C   0  0  0  0  0  0
  -18.1934  -26.7929   22.1510 C   0  0  0  0  0  0
  -19.1504  -28.8796   23.2907 C   0  0  0  0  0  0
  -18.9425  -30.1400   23.8924 C   0  0  0  0  0  0
  -17.6422  -30.6531   24.0569 C   0  0  0  0  0  0
  -25.9030  -34.9486   23.5127 C   0  0  0  0  0  0
  -16.5326  -29.9024   23.6309 C   0  0  0  0  0  0
  -16.7254  -28.6454   23.0306 C   0  0  0  0  0  0
  -26.4464  -31.6608   25.0727 C   0  0  0  0  0  0
  -25.3739  -31.3707   26.1475 C   0  0  0  0  0  0
  -27.0303  -30.3052   24.6114 C   0  0  0  0  0  0
  -27.6029  -32.4337   25.7490 C   0  0  0  0  0  0
  -27.5588  -37.1813   24.8470 C   0  0  0  0  0  0
  -21.4122  -29.3094   22.3824 N   0  0  0  0  0  0
  -26.4305  -37.3802   23.9407 N   0  0  0  0  0  0
  -24.6679  -31.0782   22.1014 N   0  0  0  0  0  0
  -23.4182  -28.8168   23.3038 O   0  0  0  0  0  0
  -28.3967  -26.6910   20.0910 O   0  0  0  0  0  0
  -26.5600  -34.8936   22.4690 O   0  0  0  0  0  0
  -23.5321  -32.1458   23.7476 O   0  0  0  0  0  0
  -28.4464  -21.5284   20.8921 C   0  0  0  0  0  0
  -29.7858  -19.8006   19.2366 C   0  0  0  0  0  0
  -28.3757  -20.1433   21.1656 C   0  0  0  0  0  0
  -29.0518  -19.2412   20.3035 C   0  0  0  0  0  0
  -29.1957  -21.9825   19.7921 C   0  0  0  0  0  0
  -27.5678  -19.6639   22.3573 C   0  0  0  0  0  0
  -28.9271  -17.7116   20.4236 C   0  0  0  0  0  0
  -30.1830  -16.9465   20.9171 C   0  0  0  0  0  0
  -28.1741  -24.2423   19.5452 C   0  0  0  0  0  0
  -28.3154  -25.3530   20.6200 C   0  0  0  0  0  0
  -29.8638  -21.1309   18.9930 N   0  0  0  0  0  0
  -29.3289  -23.3394   19.4672 N   0  0  0  0  0  0
  -29.9128  -15.4989   21.0086 N   0  0  0  0  0  0
  -31.4667  -12.4081   19.1259 H   0  0  0  0  0  0
  -30.3211  -11.2969   19.8262 H   0  0  0  0  0  0
  -29.7399  -11.7802   17.4252 H   0  0  0  0  0  0
  -29.6527  -13.4873   17.7704 H   0  0  0  0  0  0
  -27.8312  -11.2977   18.8232 H   0  0  0  0  0  0
  -27.3629  -12.6184   17.7881 H   0  0  0  0  0  0
  -27.6975  -14.2463   19.5658 H   0  0  0  0  0  0
  -28.6740  -11.9564   21.3469 H   0  0  0  0  0  0
  -28.4574  -13.5968   21.8689 H   0  0  0  0  0  0
  -25.2746   -9.5687   22.4732 H   0  0  0  0  0  0
  -23.9987   -7.4630   22.7476 H   0  0  0  0  0  0
  -21.0809   -8.8728   19.8956 H   0  0  0  0  0  0
  -22.3639  -10.9637   19.6145 H   0  0  0  0  0  0
  -21.2011   -7.6141   23.9685 H   0  0  0  0  0  0
  -21.1470   -6.0526   25.9057 H   0  0  0  0  0  0
  -22.0612   -2.7598   23.2854 H   0  0  0  0  0  0
  -22.4181  -11.9880   22.4780 H   0  0  0  0  0  0
  -21.1151  -13.1214   22.2606 H   0  0  0  0  0  0
  -24.6502  -15.8290   20.4740 H   0  0  0  0  0  0
  -26.2749  -15.6194   20.0536 H   0  0  0  0  0  0
  -26.7105  -32.5525   23.1167 H   0  0  0  0  0  0
  -25.0067  -33.9830   25.0486 H   0  0  0  0  0  0
  -22.6896  -31.3056   21.4144 H   0  0  0  0  0  0
  -23.3754  -35.9647   23.3318 H   0  0  0  0  0  0
  -24.3580  -36.8913   22.2050 H   0  0  0  0  0  0
  -23.7236  -37.6523   23.6645 H   0  0  0  0  0  0
  -26.0488  -31.5978   20.5970 H   0  0  0  0  0  0
  -26.8181  -30.8804   21.9863 H   0  0  0  0  0  0
  -28.1043  -29.1087   21.1430 H   0  0  0  0  0  0
  -26.0458  -25.9607   19.0260 H   0  0  0  0  0  0
  -23.9687  -27.2813   19.0597 H   0  0  0  0  0  0
  -23.7186  -30.5966   19.4114 H   0  0  0  0  0  0
  -22.7329  -29.2425   19.8756 H   0  0  0  0  0  0
  -25.1290  -36.1997   25.0830 H   0  0  0  0  0  0
  -20.9905  -28.3152   24.1459 H   0  0  0  0  0  0
  -20.5798  -26.2215   23.3403 H   0  0  0  0  0  0
  -21.6632  -26.7623   22.0959 H   0  0  0  0  0  0
  -19.6971  -25.6402   21.1050 H   0  0  0  0  0  0
  -19.6663  -27.3315   20.6685 H   0  0  0  0  0  0
  -17.4242  -26.6773   21.3848 H   0  0  0  0  0  0
  -18.0301  -25.9971   22.8792 H   0  0  0  0  0  0
  -19.7910  -30.7203   24.2290 H   0  0  0  0  0  0
  -17.4971  -31.6212   24.5163 H   0  0  0  0  0  0
  -15.5315  -30.2901   23.7609 H   0  0  0  0  0  0
  -15.8658  -28.0803   22.6950 H   0  0  0  0  0  0
  -24.5880  -30.7095   25.7809 H   0  0  0  0  0  0
  -24.8964  -32.2855   26.4991 H   0  0  0  0  0  0
  -25.8087  -30.8815   27.0198 H   0  0  0  0  0  0
  -26.2847  -29.6790   24.1188 H   0  0  0  0  0  0
  -27.4097  -29.7311   25.4579 H   0  0  0  0  0  0
  -27.8677  -30.4378   23.9258 H   0  0  0  0  0  0
  -27.2634  -33.3610   26.2129 H   0  0  0  0  0  0
  -28.3802  -32.6949   25.0295 H   0  0  0  0  0  0
  -28.0749  -31.8434   26.5356 H   0  0  0  0  0  0
  -28.2614  -38.0102   24.7513 H   0  0  0  0  0  0
  -28.1076  -36.2630   24.6306 H   0  0  0  0  0  0
  -27.2307  -37.1480   25.8877 H   0  0  0  0  0  0
  -20.9237  -29.8987   21.7230 H   0  0  0  0  0  0
  -26.0194  -38.2885   24.1400 H   0  0  0  0  0  0
  -27.9336  -22.2349   21.5318 H   0  0  0  0  0  0
  -30.3117  -19.1621   18.5417 H   0  0  0  0  0  0
  -26.6602  -19.1558   22.0298 H   0  0  0  0  0  0
  -27.2712  -20.4979   22.9944 H   0  0  0  0  0  0
  -28.1552  -18.9773   22.9681 H   0  0  0  0  0  0
  -28.0798  -17.4601   21.0601 H   0  0  0  0  0  0
  -28.6575  -17.3385   19.4329 H   0  0  0  0  0  0
  -30.4828  -17.3125   21.8997 H   0  0  0  0  0  0
  -31.0198  -17.1358   20.2429 H   0  0  0  0  0  0
  -28.0520  -24.7068   18.5663 H   0  0  0  0  0  0
  -27.2590  -23.6740   19.7145 H   0  0  0  0  0  0
  -29.2134  -25.1858   21.2159 H   0  0  0  0  0  0
  -27.4898  -25.2759   21.3304 H   0  0  0  0  0  0
  -29.9320  -23.5171   18.6712 H   0  0  0  0  0  0
  -28.9926  -15.2335   21.3257 H   0  0  0  0  0  0
  1 25  1  0  0  0
  1 30  2  0  0  0
  1 83  1  0  0  0
  2  3  1  0  0  0
  2 25  1  0  0  0
  2 84  1  0  0  0
  2 85  1  0  0  0
  3  4  1  0  0  0
  3 86  1  0  0  0
  3 87  1  0  0  0
  4  5  1  0  0  0
  4 88  1  0  0  0
  4 89  1  0  0  0
  5  6  1  0  0  0
  5 26  1  0  0  0
  5 90  1  0  0  0
  6 25  1  0  0  0
  6 91  1  0  0  0
  6 92  1  0  0  0
  7  8  2  0  0  0
  7 26  1  0  0  0
  7 29  1  0  0  0
  8  9  1  0  0  0
  8 22  1  0  0  0
  9 10  1  0  0  0
  9 27  2  0  0  0
 10 11  2  0  0  0
 10 15  1  0  0  0
 11 12  1  0  0  0
 11 93  1  0  0  0
 12 13  2  0  0  0
 12 94  1  0  0  0
 13 14  1  0  0  0
 13 31  1  0  0  0
 14 15  2  0  0  0
 14 95  1  0  0  0
 15 96  1  0  0  0
 16 17  2  0  0  0
 16 21  1  0  0  0
 16 31  1  0  0  0
 17 18  1  0  0  0
 17 97  1  0  0  0
 18 19  2  0  0  0
 18 98  1  0  0  0
 19 20  1  0  0  0
 19 24  1  0  0  0
 20 21  2  0  0  0
 20 99  1  0  0  0
 21 23  1  0  0  0
 22 28  1  0  0  0
 22 32  2  0  0  0
 26 27  1  0  0  0
 28100  1  0  0  0
 28101  1  0  0  0
 29102  1  0  0  0
 29103  1  0  0  0
 33 34  1  0  0  0
 33 66  1  0  0  0
 33 70  2  0  0  0
 34 36  1  0  0  0
 34 59  1  0  0  0
 34104  1  0  0  0
 35 44  2  0  0  0
 35 45  1  0  0  0
 35 68  1  0  0  0
 36 56  1  0  0  0
 36105  1  0  0  0
 37 39  1  0  0  0
 37 47  1  0  0  0
 37 66  1  0  0  0
 37106  1  0  0  0
 38 43  2  0  0  0
 38 46  1  0  0  0
 38 47  1  0  0  0
 39 64  1  0  0  0
 39 67  2  0  0  0
 40 52  1  0  0  0
 40 53  2  0  0  0
 40 58  1  0  0  0
 41107  1  0  0  0
 41108  1  0  0  0
 41109  1  0  0  0
 41 48  1  0  0  0
 42 43  1  0  0  0
 42 66  1  0  0  0
 42110  1  0  0  0
 42111  1  0  0  0
 43 44  1  0  0  0
 44112  1  0  0  0
 45 46  2  0  0  0
 45113  1  0  0  0
 46114  1  0  0  0
 47115  1  0  0  0
 47116  1  0  0  0
 48 56  1  0  0  0
 48 65  1  0  0  0
 48117  1  0  0  0
 49 50  1  0  0  0
 49 53  1  0  0  0
 49 64  1  0  0  0
 49118  1  0  0  0
 50 51  1  0  0  0
 50119  1  0  0  0
 50120  1  0  0  0
 51 52  1  0  0  0
 51121  1  0  0  0
 51122  1  0  0  0
 52123  1  0  0  0
 52124  1  0  0  0
 53 54  1  0  0  0
 54 55  2  0  0  0
 54125  1  0  0  0
 55 57  1  0  0  0
 55126  1  0  0  0
 56 69  2  0  0  0
 57 58  2  0  0  0
 57127  1  0  0  0
 58128  1  0  0  0
 59 60  1  0  0  0
 59 61  1  0  0  0
 59 62  1  0  0  0
 60129  1  0  0  0
 60130  1  0  0  0
 60131  1  0  0  0
 61132  1  0  0  0
 61133  1  0  0  0
 61134  1  0  0  0
 62135  1  0  0  0
 62136  1  0  0  0
 62137  1  0  0  0
 63 65  1  0  0  0
 63138  1  0  0  0
 63139  1  0  0  0
 63140  1  0  0  0
 64141  1  0  0  0
 65142  1  0  0  0
 68 80  1  0  0  0
 71 73  2  0  0  0
 71 75  1  0  0  0
 71143  1  0  0  0
 72 74  2  0  0  0
 72 81  1  0  0  0
 72144  1  0  0  0
 73 74  1  0  0  0
 73 76  1  0  0  0
 74 77  1  0  0  0
 75 81  2  0  0  0
 75 82  1  0  0  0
 76145  1  0  0  0
 76146  1  0  0  0
 76147  1  0  0  0
 77 78  1  0  0  0
 77148  1  0  0  0
 77149  1  0  0  0
 78 83  1  0  0  0
 78150  1  0  0  0
 78151  1  0  0  0
 79 80  1  0  0  0
 79 82  1  0  0  0
 79152  1  0  0  0
 79153  1  0  0  0
 80154  1  0  0  0
 80155  1  0  0  0
 82156  1  0  0  0
 83157  1  0  0  0
M  ISO  4   1 100  68 101  80 101  83 100
M  END
> <chiral flag>
0

> <version>
0

> <s_m_source_file>
/data/baiqing/PycharmProjects/Reinvent-master-3.2/result/LINK_invent/BTK/process_docking_weight1_custom_sum_contain_oxygen_bond_distance_aromatic_linkinvent_7_9_3/rearranged_h_0137.sdf

> <i_m_source_file_index>
38

> <r_mmod_Potential_Energy-OPLS-2005>
-334.629974365234

> <r_mmod_Stretch_Energy-OPLS-2005>
36.9818534851074

> <r_mmod_Bend_Energy-OPLS-2005>
99.2587509155273

> <r_mmod_Torsional_Energy-OPLS-2005>
225.680877685547

> <r_mmod_Improper_Torsional_Energy-OPLS-2005>
8.2722692489624

> <r_mmod_Van_der_Waal_Energy-OPLS-2005>
151.02783203125

> <r_mmod_Electrostatic_Energy-OPLS-2005>
-628.379028320312

> <r_mmod_Solvation_Energy-OPLS-2005>
-241.420211791992

> <b_mmod_Minimization_Converged-OPLS-2005>
0

> <r_mmod_RMS_Derivative-OPLS-2005>
2.24287152290344

$$$$
38
                    3D
 Structure written by MMmdl.
166175  0  0  1  0            999 V2000
  -30.8613  -14.2327   20.7889 C   0  0  0  0  0  0
  -30.4061  -12.2868   19.3570 C   0  0  0  0  0  0
  -29.4652  -12.5435   18.1718 C   0  0  0  0  0  0
  -27.9993  -12.3819   18.6057 C   0  0  0  0  0  0
  -27.6651  -13.2049   19.8746 C   0  0  2  0  0  0
  -28.7054  -12.9604   20.9897 C   0  0  0  0  0  0
  -25.2600  -13.8153   20.5678 C   0  0  0  0  0  0
  -24.1843  -13.0436   20.9170 C   0  0  0  0  0  0
  -24.6385  -11.6903   20.8712 C   0  0  0  0  0  0
  -23.9049  -10.4291   21.0384 C   0  0  0  0  0  0
  -24.3604   -9.4213   21.9164 C   0  0  0  0  0  0
  -23.6286   -8.2248   22.0748 C   0  0  0  0  0  0
  -22.4270   -8.0273   21.3539 C   0  0  0  0  0  0
  -21.9898   -9.0239   20.4639 C   0  0  0  0  0  0
  -22.7220  -10.2123   20.3037 C   0  0  0  0  0  0
  -21.6851   -6.0729   22.5277 C   0  0  0  0  0  0
  -21.4011   -6.5634   23.8205 C   0  0  0  0  0  0
  -21.3658   -5.6788   24.9167 C   0  0  0  0  0  0
  -21.6051   -4.3055   24.7219 C   0  0  0  0  0  0
  -21.8819   -3.8143   23.4344 C   0  0  0  0  0  0
  -21.9195   -4.6960   22.3402 C   0  0  0  0  0  0
  -22.7866  -13.5241   21.1836 C   0  0  0  0  0  0
  -22.1663   -4.2144   21.0984 F   0  0  0  0  0  0
  -21.5627   -3.4541   25.7731 F   0  0  0  0  0  0
  -30.0571  -13.1977   20.4534 N   0  0  0  0  0  0
  -26.3040  -12.9328   20.3365 N   0  0  0  0  0  0
  -25.9315  -11.6489   20.5752 N   0  0  0  0  0  0
  -22.0499  -12.8231   22.0379 N   0  0  0  0  0  0
  -25.4327  -15.1868   20.4095 N   0  0  0  0  0  0
  -31.7428  -14.6865   20.0515 O   0  0  0  0  0  0
  -21.6639   -6.8871   21.4242 O   0  0  0  0  0  0
  -22.3559  -14.5555   20.6698 O   0  0  0  0  0  0
  -24.6104  -31.8723   23.2089 C   0  0  0  0  0  0
  -25.9001  -32.4841   23.8406 C   0  0  1  0  0  0
  -27.2436  -27.4730   20.1018 C   0  0  0  0  0  0
  -25.5865  -33.8635   24.2355 N   0  0  0  0  0  0
  -23.3989  -30.4934   21.5468 C   0  0  2  0  0  0
  -24.8493  -28.9584   20.1174 C   0  0  0  0  0  0
  -22.7396  -29.4690   22.4987 C   0  0  0  0  0  0
  -18.0269  -28.1405   22.8507 C   0  0  0  0  0  0
  -24.1480  -36.7305   23.2635 C   0  0  0  0  0  0
  -25.9216  -30.8492   21.3567 C   0  0  0  0  0  0
  -26.0027  -29.4812   20.7163 C   0  0  0  0  0  0
  -27.2041  -28.7413   20.7153 C   0  0  0  0  0  0
  -26.0833  -26.9584   19.4893 C   0  0  0  0  0  0
  -24.8807  -27.6917   19.5039 C   0  0  0  0  0  0
  -23.6085  -29.8202   20.1631 C   0  0  0  0  0  0
  -25.4102  -36.3116   24.0346 C   0  0  1  0  0  0
  -20.5860  -28.3682   23.1326 C   0  0  2  0  0  0
  -20.6765  -26.9416   22.5419 C   0  0  0  0  0  0
  -19.5741  -26.6416   21.5217 C   0  0  0  0  0  0
  -18.1915  -26.7956   22.1630 C   0  0  0  0  0  0
  -19.1523  -28.8859   23.2914 C   0  0  0  0  0  0
  -18.9454  -30.1472   23.8918 C   0  0  0  0  0  0
  -17.6459  -30.6610   24.0584 C   0  0  0  0  0  0
  -25.9032  -34.9486   23.5157 C   0  0  0  0  0  0
  -16.5351  -29.9123   23.6329 C   0  0  0  0  0  0
  -16.7262  -28.6538   23.0350 C   0  0  0  0  0  0
  -26.4445  -31.6596   25.0709 C   0  0  0  0  0  0
  -25.3723  -31.3717   26.1475 C   0  0  0  0  0  0
  -27.0254  -30.3045   24.6033 C   0  0  0  0  0  0
  -27.6059  -32.4286   25.7443 C   0  0  0  0  0  0
  -27.5591  -37.1803   24.8464 C   0  0  0  0  0  0
  -21.4127  -29.3057   22.3732 N   0  0  0  0  0  0
  -26.4292  -37.3799   23.9421 N   0  0  0  0  0  0
  -24.6613  -31.0869   22.0968 N   0  0  0  0  0  0
  -23.4177  -28.8250   23.3034 O   0  0  0  0  0  0
  -28.4022  -26.7373   20.0775 O   0  0  0  0  0  0
  -26.5588  -34.8934   22.4717 O   0  0  0  0  0  0
  -23.5295  -32.1453   23.7499 O   0  0  0  0  0  0
  -31.2616  -19.5326   22.4950 C   0  0  0  0  0  0
  -29.5389  -19.1520   24.1731 C   0  0  0  0  0  0
  -31.1069  -20.9222   22.6524 C   0  0  0  0  0  0
  -29.3917  -20.5435   24.3365 C   0  0  0  0  0  0
  -30.4756  -18.6362   23.2549 C   0  0  0  0  0  0
  -30.1610  -21.4370   23.5651 C   0  0  0  0  0  0
  -28.2065  -23.8767   22.5683 C   0  0  0  0  0  0
  -30.5410  -24.8340   22.5524 C   0  0  0  0  0  0
  -27.8305  -24.7521   21.3627 C   0  0  0  0  0  0
  -30.1832  -25.7010   21.3290 C   0  0  0  0  0  0
  -29.7054  -23.5440   22.5663 C   0  0  1  0  0  0
  -28.6804  -26.0387   21.2912 C   0  0  1  0  0  0
  -31.8567  -16.6957   22.6520 C   0  0  0  0  0  0
  -31.8970  -15.1762   22.8354 C   0  0  0  0  0  0
  -30.5959  -17.2474   23.1285 N   0  0  0  0  0  0
  -30.8269  -14.5121   22.0967 N   0  0  0  0  0  0
  -29.9915  -22.7894   23.7435 O   0  0  0  0  0  0
  -31.4449  -12.3995   19.0408 H   0  0  0  0  0  0
  -30.3127  -11.2550   19.6996 H   0  0  0  0  0  0
  -29.6902  -11.8565   17.3547 H   0  0  0  0  0  0
  -29.6303  -13.5492   17.7824 H   0  0  0  0  0  0
  -27.8194  -11.3231   18.7924 H   0  0  0  0  0  0
  -27.3320  -12.6651   17.7914 H   0  0  0  0  0  0
  -27.7207  -14.2571   19.5951 H   0  0  0  0  0  0
  -28.6421  -11.9340   21.3540 H   0  0  0  0  0  0
  -28.4696  -13.6014   21.8396 H   0  0  0  0  0  0
  -25.2754   -9.5691   22.4730 H   0  0  0  0  0  0
  -24.0000   -7.4641   22.7459 H   0  0  0  0  0  0
  -21.0837   -8.8753   19.8935 H   0  0  0  0  0  0
  -22.3683  -10.9651   19.6134 H   0  0  0  0  0  0
  -21.2005   -7.6139   23.9703 H   0  0  0  0  0  0
  -21.1477   -6.0518   25.9066 H   0  0  0  0  0  0
  -22.0599   -2.7608   23.2844 H   0  0  0  0  0  0
  -22.4127  -11.9900   22.4772 H   0  0  0  0  0  0
  -21.1099  -13.1238   22.2551 H   0  0  0  0  0  0
  -24.6752  -15.8495   20.5330 H   0  0  0  0  0  0
  -26.2996  -15.6229   20.1191 H   0  0  0  0  0  0
  -26.7083  -32.5580   23.1189 H   0  0  0  0  0  0
  -25.0024  -33.9811   25.0503 H   0  0  0  0  0  0
  -22.6851  -31.3080   21.4055 H   0  0  0  0  0  0
  -23.3760  -35.9617   23.3291 H   0  0  0  0  0  0
  -24.3590  -36.8917   22.2051 H   0  0  0  0  0  0
  -23.7216  -37.6503   23.6648 H   0  0  0  0  0  0
  -26.0244  -31.6089   20.5801 H   0  0  0  0  0  0
  -26.8138  -30.9149   21.9672 H   0  0  0  0  0  0
  -28.0955  -29.1424   21.1786 H   0  0  0  0  0  0
  -26.1135  -25.9901   19.0102 H   0  0  0  0  0  0
  -23.9952  -27.2850   19.0344 H   0  0  0  0  0  0
  -23.7119  -30.5890   19.3960 H   0  0  0  0  0  0
  -22.7358  -29.2317   19.8727 H   0  0  0  0  0  0
  -25.1279  -36.1989   25.0839 H   0  0  0  0  0  0
  -20.9987  -28.3252   24.1432 H   0  0  0  0  0  0
  -20.5687  -26.2286   23.3608 H   0  0  0  0  0  0
  -21.6645  -26.7488   22.1202 H   0  0  0  0  0  0
  -19.6880  -25.6328   21.1237 H   0  0  0  0  0  0
  -19.6672  -27.3248   20.6763 H   0  0  0  0  0  0
  -17.4199  -26.6729   21.4015 H   0  0  0  0  0  0
  -18.0299  -26.0100   22.9029 H   0  0  0  0  0  0
  -19.7931  -30.7288   24.2290 H   0  0  0  0  0  0
  -17.5020  -31.6282   24.5206 H   0  0  0  0  0  0
  -15.5354  -30.3042   23.7639 H   0  0  0  0  0  0
  -15.8665  -28.0879   22.7040 H   0  0  0  0  0  0
  -24.5828  -30.7152   25.7805 H   0  0  0  0  0  0
  -24.8991  -32.2887   26.4999 H   0  0  0  0  0  0
  -25.8068  -30.8800   27.0186 H   0  0  0  0  0  0
  -26.2776  -29.6819   24.1109 H   0  0  0  0  0  0
  -27.4077  -29.7266   25.4454 H   0  0  0  0  0  0
  -27.8584  -30.4387   23.9129 H   0  0  0  0  0  0
  -27.2746  -33.3607   26.2034 H   0  0  0  0  0  0
  -28.3851  -32.6812   25.0240 H   0  0  0  0  0  0
  -28.0736  -31.8387   26.5329 H   0  0  0  0  0  0
  -28.2608  -38.0105   24.7553 H   0  0  0  0  0  0
  -28.1097  -36.2652   24.6244 H   0  0  0  0  0  0
  -27.2323  -37.1398   25.8868 H   0  0  0  0  0  0
  -20.9285  -29.8761   21.6941 H   0  0  0  0  0  0
  -26.0182  -38.2873   24.1444 H   0  0  0  0  0  0
  -31.9875  -19.1771   21.7780 H   0  0  0  0  0  0
  -28.9266  -18.4864   24.7659 H   0  0  0  0  0  0
  -31.7263  -21.5898   22.0703 H   0  0  0  0  0  0
  -28.6714  -20.9233   25.0479 H   0  0  0  0  0  0
  -27.6201  -22.9574   22.5548 H   0  0  0  0  0  0
  -27.9458  -24.3963   23.4908 H   0  0  0  0  0  0
  -30.3633  -25.4015   23.4671 H   0  0  0  0  0  0
  -31.6039  -24.5904   22.5406 H   0  0  0  0  0  0
  -26.7712  -25.0022   21.4232 H   0  0  0  0  0  0
  -27.9617  -24.1766   20.4460 H   0  0  0  0  0  0
  -30.4632  -25.1707   20.4172 H   0  0  0  0  0  0
  -30.7698  -26.6198   21.3410 H   0  0  0  0  0  0
  -29.9274  -22.9869   21.6553 H   0  0  0  0  0  0
  -28.4503  -26.6704   22.1526 H   0  0  0  0  0  0
  -32.0000  -16.9453   21.5987 H   0  0  0  0  0  0
  -32.6864  -17.1461   23.2015 H   0  0  0  0  0  0
  -31.8106  -14.9166   23.8924 H   0  0  0  0  0  0
  -32.8655  -14.7877   22.5116 H   0  0  0  0  0  0
  -30.0528  -16.6634   23.7589 H   0  0  0  0  0  0
  -30.1096  -14.0539   22.6377 H   0  0  0  0  0  0
  1 25  1  0  0  0
  1 30  2  0  0  0
  1 86  1  0  0  0
  2  3  1  0  0  0
  2 25  1  0  0  0
  2 88  1  0  0  0
  2 89  1  0  0  0
  3  4  1  0  0  0
  3 90  1  0  0  0
  3 91  1  0  0  0
  4  5  1  0  0  0
  4 92  1  0  0  0
  4 93  1  0  0  0
  5  6  1  0  0  0
  5 26  1  0  0  0
  5 94  1  0  0  0
  6 25  1  0  0  0
  6 95  1  0  0  0
  6 96  1  0  0  0
  7  8  2  0  0  0
  7 26  1  0  0  0
  7 29  1  0  0  0
  8  9  1  0  0  0
  8 22  1  0  0  0
  9 10  1  0  0  0
  9 27  2  0  0  0
 10 11  2  0  0  0
 10 15  1  0  0  0
 11 12  1  0  0  0
 11 97  1  0  0  0
 12 13  2  0  0  0
 12 98  1  0  0  0
 13 14  1  0  0  0
 13 31  1  0  0  0
 14 15  2  0  0  0
 14 99  1  0  0  0
 15100  1  0  0  0
 16 17  2  0  0  0
 16 21  1  0  0  0
 16 31  1  0  0  0
 17 18  1  0  0  0
 17101  1  0  0  0
 18 19  2  0  0  0
 18102  1  0  0  0
 19 20  1  0  0  0
 19 24  1  0  0  0
 20 21  2  0  0  0
 20103  1  0  0  0
 21 23  1  0  0  0
 22 28  1  0  0  0
 22 32  2  0  0  0
 26 27  1  0  0  0
 28104  1  0  0  0
 28105  1  0  0  0
 29106  1  0  0  0
 29107  1  0  0  0
 33 34  1  0  0  0
 33 66  1  0  0  0
 33 70  2  0  0  0
 34 36  1  0  0  0
 34 59  1  0  0  0
 34108  1  0  0  0
 35 44  2  0  0  0
 35 45  1  0  0  0
 35 68  1  0  0  0
 36 56  1  0  0  0
 36109  1  0  0  0
 37 39  1  0  0  0
 37 47  1  0  0  0
 37 66  1  0  0  0
 37110  1  0  0  0
 38 43  2  0  0  0
 38 46  1  0  0  0
 38 47  1  0  0  0
 39 64  1  0  0  0
 39 67  2  0  0  0
 40 52  1  0  0  0
 40 53  2  0  0  0
 40 58  1  0  0  0
 41111  1  0  0  0
 41112  1  0  0  0
 41113  1  0  0  0
 41 48  1  0  0  0
 42 43  1  0  0  0
 42 66  1  0  0  0
 42114  1  0  0  0
 42115  1  0  0  0
 43 44  1  0  0  0
 44116  1  0  0  0
 45 46  2  0  0  0
 45117  1  0  0  0
 46118  1  0  0  0
 47119  1  0  0  0
 47120  1  0  0  0
 48 56  1  0  0  0
 48 65  1  0  0  0
 48121  1  0  0  0
 49 50  1  0  0  0
 49 53  1  0  0  0
 49 64  1  0  0  0
 49122  1  0  0  0
 50 51  1  0  0  0
 50123  1  0  0  0
 50124  1  0  0  0
 51 52  1  0  0  0
 51125  1  0  0  0
 51126  1  0  0  0
 52127  1  0  0  0
 52128  1  0  0  0
 53 54  1  0  0  0
 54 55  2  0  0  0
 54129  1  0  0  0
 55 57  1  0  0  0
 55130  1  0  0  0
 56 69  2  0  0  0
 57 58  2  0  0  0
 57131  1  0  0  0
 58132  1  0  0  0
 59 60  1  0  0  0
 59 61  1  0  0  0
 59 62  1  0  0  0
 60133  1  0  0  0
 60134  1  0  0  0
 60135  1  0  0  0
 61136  1  0  0  0
 61137  1  0  0  0
 61138  1  0  0  0
 62139  1  0  0  0
 62140  1  0  0  0
 62141  1  0  0  0
 63 65  1  0  0  0
 63142  1  0  0  0
 63143  1  0  0  0
 63144  1  0  0  0
 64145  1  0  0  0
 65146  1  0  0  0
 68 82  1  0  0  0
 71 73  2  0  0  0
 71 75  1  0  0  0
 71147  1  0  0  0
 72 74  1  0  0  0
 72 75  2  0  0  0
 72148  1  0  0  0
 73 76  1  0  0  0
 73149  1  0  0  0
 74 76  2  0  0  0
 74150  1  0  0  0
 75 85  1  0  0  0
 76 87  1  0  0  0
 77 79  1  0  0  0
 77 81  1  0  0  0
 77151  1  0  0  0
 77152  1  0  0  0
 78 80  1  0  0  0
 78 81  1  0  0  0
 78153  1  0  0  0
 78154  1  0  0  0
 79 82  1  0  0  0
 79155  1  0  0  0
 79156  1  0  0  0
 80 82  1  0  0  0
 80157  1  0  0  0
 80158  1  0  0  0
 81 87  1  0  0  0
 81159  1  0  0  0
 82160  1  0  0  0
 83 84  1  0  0  0
 83 85  1  0  0  0
 83161  1  0  0  0
 83162  1  0  0  0
 84 86  1  0  0  0
 84163  1  0  0  0
 84164  1  0  0  0
 85165  1  0  0  0
 86166  1  0  0  0
M  ISO  4   1 100  68 101  82 101  86 100
M  END
> <chiral flag>
0

> <version>
0

> <s_m_source_file>
/data/baiqing/PycharmProjects/Reinvent-master-3.2/result/LINK_invent/BTK/process_docking_weight1_custom_sum_contain_oxygen_bond_distance_aromatic_linkinvent_7_9_3/rearranged_h_0137.sdf

> <i_m_source_file_index>
39

> <r_mmod_Potential_Energy-OPLS-2005>
-145.087738037109

> <r_mmod_Stretch_Energy-OPLS-2005>
30.9129734039307

> <r_mmod_Bend_Energy-OPLS-2005>
88.596565246582

> <r_mmod_Torsional_Energy-OPLS-2005>
274.207977294922

> <r_mmod_Improper_Torsional_Energy-OPLS-2005>
9.29786491394043

> <r_mmod_Van_der_Waal_Energy-OPLS-2005>
157.888778686523

> <r_mmod_Electrostatic_Energy-OPLS-2005>
-499.236938476562

> <r_mmod_Solvation_Energy-OPLS-2005>
-217.395462036133

> <b_mmod_Minimization_Converged-OPLS-2005>
0

> <r_mmod_RMS_Derivative-OPLS-2005>
2.08492732048035

$$$$
39
                    3D
 Structure written by MMmdl.
169178  0  0  1  0            999 V2000
  -30.6907  -14.5548   20.5322 C   0  0  0  0  0  0
  -30.4182  -12.3465   19.4531 C   0  0  0  0  0  0
  -29.5002  -12.5044   18.2232 C   0  0  0  0  0  0
  -28.0220  -12.3584   18.6317 C   0  0  0  0  0  0
  -27.6542  -13.2200   19.8702 C   0  0  2  0  0  0
  -28.6963  -13.0647   21.0015 C   0  0  0  0  0  0
  -25.2548  -13.8181   20.5683 C   0  0  0  0  0  0
  -24.1818  -13.0444   20.9190 C   0  0  0  0  0  0
  -24.6392  -11.6917   20.8746 C   0  0  0  0  0  0
  -23.9065  -10.4297   21.0408 C   0  0  0  0  0  0
  -24.3618   -9.4213   21.9184 C   0  0  0  0  0  0
  -23.6293   -8.2248   22.0754 C   0  0  0  0  0  0
  -22.4276   -8.0285   21.3544 C   0  0  0  0  0  0
  -21.9910   -9.0259   20.4650 C   0  0  0  0  0  0
  -22.7237  -10.2140   20.3058 C   0  0  0  0  0  0
  -21.6855   -6.0738   22.5280 C   0  0  0  0  0  0
  -21.4014   -6.5643   23.8213 C   0  0  0  0  0  0
  -21.3658   -5.6794   24.9175 C   0  0  0  0  0  0
  -21.6042   -4.3055   24.7224 C   0  0  0  0  0  0
  -21.8819   -3.8148   23.4345 C   0  0  0  0  0  0
  -21.9192   -4.6965   22.3403 C   0  0  0  0  0  0
  -22.7839  -13.5236   21.1847 C   0  0  0  0  0  0
  -22.1662   -4.2153   21.0979 F   0  0  0  0  0  0
  -21.5627   -3.4538   25.7735 F   0  0  0  0  0  0
  -30.0188  -13.3697   20.4384 N   0  0  0  0  0  0
  -26.2988  -12.9374   20.3354 N   0  0  0  0  0  0
  -25.9325  -11.6523   20.5778 N   0  0  0  0  0  0
  -22.0481  -12.8234   22.0408 N   0  0  0  0  0  0
  -25.4252  -15.1901   20.4072 N   0  0  0  0  0  0
  -31.8356  -14.6819   20.0925 O   0  0  0  0  0  0
  -21.6642   -6.8882   21.4242 O   0  0  0  0  0  0
  -22.3532  -14.5547   20.6701 O   0  0  0  0  0  0
  -24.6205  -31.8639   23.2067 C   0  0  0  0  0  0
  -25.9073  -32.4804   23.8380 C   0  0  1  0  0  0
  -27.2236  -27.3671   20.1003 C   0  0  0  0  0  0
  -25.5900  -33.8604   24.2302 N   0  0  0  0  0  0
  -23.4109  -30.4874   21.5497 C   0  0  2  0  0  0
  -24.8550  -28.9487   20.1140 C   0  0  0  0  0  0
  -22.7440  -29.4637   22.4974 C   0  0  0  0  0  0
  -18.0276  -28.1388   22.8495 C   0  0  0  0  0  0
  -24.1482  -36.7299   23.2636 C   0  0  0  0  0  0
  -25.9474  -30.8079   21.3718 C   0  0  0  0  0  0
  -26.0211  -29.4389   20.7145 C   0  0  0  0  0  0
  -27.2066  -28.6562   20.7030 C   0  0  0  0  0  0
  -26.0303  -26.9081   19.4957 C   0  0  0  0  0  0
  -24.8585  -27.6862   19.5001 C   0  0  0  0  0  0
  -23.6220  -29.8242   20.1641 C   0  0  0  0  0  0
  -25.4108  -36.3100   24.0327 C   0  0  1  0  0  0
  -20.5868  -28.3681   23.1309 C   0  0  2  0  0  0
  -20.6768  -26.9407   22.5429 C   0  0  0  0  0  0
  -19.5743  -26.6390   21.5226 C   0  0  0  0  0  0
  -18.1918  -26.7935   22.1627 C   0  0  0  0  0  0
  -19.1524  -28.8852   23.2900 C   0  0  0  0  0  0
  -18.9449  -30.1454   23.8919 C   0  0  0  0  0  0
  -17.6448  -30.6596   24.0568 C   0  0  0  0  0  0
  -25.9037  -34.9468   23.5115 C   0  0  0  0  0  0
  -16.5339  -29.9099   23.6332 C   0  0  0  0  0  0
  -16.7264  -28.6514   23.0360 C   0  0  0  0  0  0
  -26.4482  -31.6602   25.0734 C   0  0  0  0  0  0
  -25.3727  -31.3747   26.1474 C   0  0  0  0  0  0
  -27.0306  -30.3022   24.6166 C   0  0  0  0  0  0
  -27.6055  -32.4331   25.7497 C   0  0  0  0  0  0
  -27.5582  -37.1811   24.8461 C   0  0  0  0  0  0
  -21.4160  -29.3033   22.3709 N   0  0  0  0  0  0
  -26.4296  -37.3786   23.9404 N   0  0  0  0  0  0
  -24.6784  -31.0687   22.1003 N   0  0  0  0  0  0
  -23.4189  -28.8183   23.3034 O   0  0  0  0  0  0
  -28.3699  -26.5743   20.1370 O   0  0  0  0  0  0
  -26.5612  -34.8920   22.4686 O   0  0  0  0  0  0
  -23.5378  -32.1426   23.7422 O   0  0  0  0  0  0
  -28.5367  -23.9173   17.5605 C   0  0  0  0  0  0
  -28.5350  -25.1786   18.1819 C   0  0  0  0  0  0
  -28.3242  -24.0869   20.3390 C   0  0  0  0  0  0
  -28.4086  -22.7220   18.3050 C   0  0  0  0  0  0
  -28.3303  -22.7872   19.7264 C   0  0  0  0  0  0
  -28.3973  -25.2941   19.5761 C   0  0  0  0  0  0
  -26.9866  -20.6669   17.2978 C   0  0  0  0  0  0
  -28.4677  -21.2582   16.0200 C   0  0  0  0  0  0
  -28.3087  -21.3999   17.5393 C   0  0  0  0  0  0
  -31.5203  -17.3060   22.0017 C   0  0  0  0  0  0
  -28.1065  -21.5052   20.5857 C   0  0  0  0  0  0
  -29.3325  -20.7772   21.2483 C   0  0  0  0  0  0
  -29.3744  -18.1880   20.9133 C   0  0  0  0  0  0
  -30.4858  -17.0627   20.8808 C   0  0  2  0  0  0
  -29.9982  -15.6474   20.9608 N   0  0  0  0  0  0
  -27.6231  -20.0696   16.1227 N   0  3  0  0  0  0
  -29.9104  -19.5576   20.5798 N   0  3  0  0  0  0
  -31.4653  -12.4309   19.1573 H   0  0  0  0  0  0
  -30.3145  -11.3496   19.8842 H   0  0  0  0  0  0
  -29.7540  -11.7628   17.4648 H   0  0  0  0  0  0
  -29.6610  -13.4807   17.7634 H   0  0  0  0  0  0
  -27.8437  -11.3042   18.8469 H   0  0  0  0  0  0
  -27.3724  -12.6101   17.7928 H   0  0  0  0  0  0
  -27.6792  -14.2592   19.5417 H   0  0  0  0  0  0
  -28.6868  -12.0472   21.3952 H   0  0  0  0  0  0
  -28.4557  -13.7134   21.8451 H   0  0  0  0  0  0
  -25.2764   -9.5690   22.4759 H   0  0  0  0  0  0
  -24.0004   -7.4639   22.7471 H   0  0  0  0  0  0
  -21.0842   -8.8779   19.8954 H   0  0  0  0  0  0
  -22.3694  -10.9681   19.6170 H   0  0  0  0  0  0
  -21.2010   -7.6152   23.9719 H   0  0  0  0  0  0
  -21.1478   -6.0523   25.9077 H   0  0  0  0  0  0
  -22.0599   -2.7610   23.2845 H   0  0  0  0  0  0
  -22.4093  -11.9892   22.4794 H   0  0  0  0  0  0
  -21.1098  -13.1263   22.2613 H   0  0  0  0  0  0
  -24.6527  -15.8406   20.5014 H   0  0  0  0  0  0
  -26.2687  -15.6243   20.0558 H   0  0  0  0  0  0
  -26.7143  -32.5496   23.1137 H   0  0  0  0  0  0
  -25.0044  -33.9752   25.0445 H   0  0  0  0  0  0
  -22.7029  -31.3070   21.4112 H   0  0  0  0  0  0
  -23.3743  -35.9634   23.3315 H   0  0  0  0  0  0
  -24.3571  -36.8899   22.2048 H   0  0  0  0  0  0
  -23.7231  -37.6502   23.6648 H   0  0  0  0  0  0
  -26.0718  -31.5734   20.6044 H   0  0  0  0  0  0
  -26.8307  -30.8559   21.9977 H   0  0  0  0  0  0
  -28.1059  -29.0268   21.1751 H   0  0  0  0  0  0
  -25.9807  -25.9357   19.0277 H   0  0  0  0  0  0
  -23.9600  -27.3019   19.0382 H   0  0  0  0  0  0
  -23.7385  -30.6020   19.4083 H   0  0  0  0  0  0
  -22.7427  -29.2516   19.8632 H   0  0  0  0  0  0
  -25.1285  -36.1973   25.0818 H   0  0  0  0  0  0
  -20.9948  -28.3262   24.1435 H   0  0  0  0  0  0
  -20.5671  -26.2284   23.3620 H   0  0  0  0  0  0
  -21.6639  -26.7457   22.1213 H   0  0  0  0  0  0
  -19.6895  -25.6304   21.1246 H   0  0  0  0  0  0
  -19.6682  -27.3214   20.6767 H   0  0  0  0  0  0
  -17.4184  -26.6688   21.4029 H   0  0  0  0  0  0
  -18.0315  -26.0082   22.9029 H   0  0  0  0  0  0
  -19.7924  -30.7263   24.2303 H   0  0  0  0  0  0
  -17.5007  -31.6277   24.5163 H   0  0  0  0  0  0
  -15.5341  -30.3009   23.7648 H   0  0  0  0  0  0
  -15.8663  -28.0838   22.7076 H   0  0  0  0  0  0
  -24.5896  -30.7092   25.7827 H   0  0  0  0  0  0
  -24.8918  -32.2918   26.4892 H   0  0  0  0  0  0
  -25.8056  -30.8944   27.0259 H   0  0  0  0  0  0
  -26.2875  -29.6796   24.1165 H   0  0  0  0  0  0
  -27.3979  -29.7259   25.4669 H   0  0  0  0  0  0
  -27.8761  -30.4297   23.9397 H   0  0  0  0  0  0
  -27.2666  -33.3617   26.2103 H   0  0  0  0  0  0
  -28.3852  -32.6916   25.0321 H   0  0  0  0  0  0
  -28.0744  -31.8438   26.5386 H   0  0  0  0  0  0
  -28.2615  -38.0098   24.7510 H   0  0  0  0  0  0
  -28.1067  -36.2636   24.6292 H   0  0  0  0  0  0
  -27.2300  -37.1461   25.8863 H   0  0  0  0  0  0
  -20.9333  -29.8756   21.6922 H   0  0  0  0  0  0
  -26.0185  -38.2861   24.1422 H   0  0  0  0  0  0
  -28.6113  -23.8932   16.4830 H   0  0  0  0  0  0
  -28.6124  -26.0708   17.5769 H   0  0  0  0  0  0
  -28.2268  -24.1641   21.4123 H   0  0  0  0  0  0
  -26.1623  -21.3306   17.0288 H   0  0  0  0  0  0
  -26.6945  -19.9471   18.0622 H   0  0  0  0  0  0
  -29.4843  -21.0689   15.6741 H   0  0  0  0  0  0
  -27.9751  -22.0333   15.4297 H   0  0  0  0  0  0
  -29.0232  -20.7248   18.0149 H   0  0  0  0  0  0
  -31.9674  -18.2980   21.9368 H   0  0  0  0  0  0
  -32.3444  -16.5937   21.9525 H   0  0  0  0  0  0
  -31.0682  -17.2127   22.9899 H   0  0  0  0  0  0
  -27.4898  -20.7818   20.0575 H   0  0  0  0  0  0
  -27.4605  -21.8269   21.4038 H   0  0  0  0  0  0
  -29.0582  -20.4915   22.2645 H   0  0  0  0  0  0
  -30.1320  -21.5076   21.3753 H   0  0  0  0  0  0
  -28.9163  -18.2034   21.9036 H   0  0  0  0  0  0
  -28.5724  -17.9533   20.2125 H   0  0  0  0  0  0
  -30.9998  -17.1577   19.9220 H   0  0  0  0  0  0
  -29.0578  -15.4880   21.2910 H   0  0  0  0  0  0
  -27.0057  -19.9248   15.3410 H   0  0  0  0  0  0
  -28.1485  -19.2400   16.3411 H   0  0  0  0  0  0
  -30.8641  -19.5349   20.9040 H   0  0  0  0  0  0
  -29.9675  -19.6862   19.5847 H   0  0  0  0  0  0
  1 25  1  0  0  0
  1 30  2  0  0  0
  1 85  1  0  0  0
  2  3  1  0  0  0
  2 25  1  0  0  0
  2 88  1  0  0  0
  2 89  1  0  0  0
  3  4  1  0  0  0
  3 90  1  0  0  0
  3 91  1  0  0  0
  4  5  1  0  0  0
  4 92  1  0  0  0
  4 93  1  0  0  0
  5  6  1  0  0  0
  5 26  1  0  0  0
  5 94  1  0  0  0
  6 25  1  0  0  0
  6 95  1  0  0  0
  6 96  1  0  0  0
  7  8  2  0  0  0
  7 26  1  0  0  0
  7 29  1  0  0  0
  8  9  1  0  0  0
  8 22  1  0  0  0
  9 10  1  0  0  0
  9 27  2  0  0  0
 10 11  2  0  0  0
 10 15  1  0  0  0
 11 12  1  0  0  0
 11 97  1  0  0  0
 12 13  2  0  0  0
 12 98  1  0  0  0
 13 14  1  0  0  0
 13 31  1  0  0  0
 14 15  2  0  0  0
 14 99  1  0  0  0
 15100  1  0  0  0
 16 17  2  0  0  0
 16 21  1  0  0  0
 16 31  1  0  0  0
 17 18  1  0  0  0
 17101  1  0  0  0
 18 19  2  0  0  0
 18102  1  0  0  0
 19 20  1  0  0  0
 19 24  1  0  0  0
 20 21  2  0  0  0
 20103  1  0  0  0
 21 23  1  0  0  0
 22 28  1  0  0  0
 22 32  2  0  0  0
 26 27  1  0  0  0
 28104  1  0  0  0
 28105  1  0  0  0
 29106  1  0  0  0
 29107  1  0  0  0
 33 34  1  0  0  0
 33 66  1  0  0  0
 33 70  2  0  0  0
 34 36  1  0  0  0
 34 59  1  0  0  0
 34108  1  0  0  0
 35 44  2  0  0  0
 35 45  1  0  0  0
 35 68  1  0  0  0
 36 56  1  0  0  0
 36109  1  0  0  0
 37 39  1  0  0  0
 37 47  1  0  0  0
 37 66  1  0  0  0
 37110  1  0  0  0
 38 43  2  0  0  0
 38 46  1  0  0  0
 38 47  1  0  0  0
 39 64  1  0  0  0
 39 67  2  0  0  0
 40 52  1  0  0  0
 40 53  2  0  0  0
 40 58  1  0  0  0
 41111  1  0  0  0
 41112  1  0  0  0
 41113  1  0  0  0
 41 48  1  0  0  0
 42 43  1  0  0  0
 42 66  1  0  0  0
 42114  1  0  0  0
 42115  1  0  0  0
 43 44  1  0  0  0
 44116  1  0  0  0
 45 46  2  0  0  0
 45117  1  0  0  0
 46118  1  0  0  0
 47119  1  0  0  0
 47120  1  0  0  0
 48 56  1  0  0  0
 48 65  1  0  0  0
 48121  1  0  0  0
 49 50  1  0  0  0
 49 53  1  0  0  0
 49 64  1  0  0  0
 49122  1  0  0  0
 50 51  1  0  0  0
 50123  1  0  0  0
 50124  1  0  0  0
 51 52  1  0  0  0
 51125  1  0  0  0
 51126  1  0  0  0
 52127  1  0  0  0
 52128  1  0  0  0
 53 54  1  0  0  0
 54 55  2  0  0  0
 54129  1  0  0  0
 55 57  1  0  0  0
 55130  1  0  0  0
 56 69  2  0  0  0
 57 58  2  0  0  0
 57131  1  0  0  0
 58132  1  0  0  0
 59 60  1  0  0  0
 59 61  1  0  0  0
 59 62  1  0  0  0
 60133  1  0  0  0
 60134  1  0  0  0
 60135  1  0  0  0
 61136  1  0  0  0
 61137  1  0  0  0
 61138  1  0  0  0
 62139  1  0  0  0
 62140  1  0  0  0
 62141  1  0  0  0
 63 65  1  0  0  0
 63142  1  0  0  0
 63143  1  0  0  0
 63144  1  0  0  0
 64145  1  0  0  0
 65146  1  0  0  0
 68 76  1  0  0  0
 71 72  2  0  0  0
 71 74  1  0  0  0
 71147  1  0  0  0
 72 76  1  0  0  0
 72148  1  0  0  0
 73 75  1  0  0  0
 73 76  2  0  0  0
 73149  1  0  0  0
 74 75  2  0  0  0
 74 79  1  0  0  0
 75 81  1  0  0  0
 77 79  1  0  0  0
 77 86  1  0  0  0
 77150  1  0  0  0
 77151  1  0  0  0
 78 79  1  0  0  0
 78 86  1  0  0  0
 78152  1  0  0  0
 78153  1  0  0  0
 79154  1  0  0  0
 80155  1  0  0  0
 80156  1  0  0  0
 80157  1  0  0  0
 80 84  1  0  0  0
 81 82  1  0  0  0
 81158  1  0  0  0
 81159  1  0  0  0
 82 87  1  0  0  0
 82160  1  0  0  0
 82161  1  0  0  0
 83 84  1  0  0  0
 83 87  1  0  0  0
 83162  1  0  0  0
 83163  1  0  0  0
 84 85  1  0  0  0
 84164  1  0  0  0
 85165  1  0  0  0
 86166  1  0  0  0
 86167  1  0  0  0
 87168  1  0  0  0
 87169  1  0  0  0
M  CHG  2  86   1  87   1
M  ISO  4   1 100  68 101  76 101  85 100
M  END
> <chiral flag>
0

> <version>
0

> <s_m_source_file>
/data/baiqing/PycharmProjects/Reinvent-master-3.2/result/LINK_invent/BTK/process_docking_weight1_custom_sum_contain_oxygen_bond_distance_aromatic_linkinvent_7_9_3/rearranged_h_0137.sdf

> <i_m_source_file_index>
40

> <r_mmod_Potential_Energy-OPLS-2005>
-373.583190917969

> <r_mmod_Stretch_Energy-OPLS-2005>
60.753734588623

> <r_mmod_Bend_Energy-OPLS-2005>
145.903442382812

> <r_mmod_Torsional_Energy-OPLS-2005>
267.574371337891

> <r_mmod_Improper_Torsional_Energy-OPLS-2005>
4.55195617675781

> <r_mmod_Van_der_Waal_Energy-OPLS-2005>
145.160263061523

> <r_mmod_Electrostatic_Energy-OPLS-2005>
22.7816429138184

> <r_mmod_Solvation_Energy-OPLS-2005>
-1048.07946777344

> <b_mmod_Minimization_Converged-OPLS-2005>
0

> <r_mmod_RMS_Derivative-OPLS-2005>
1.43451941013336

$$$$
40
                    3D
 Structure written by MMmdl.
163172  0  0  1  0            999 V2000
  -30.6893  -14.6039   20.5351 C   0  0  0  0  0  0
  -30.4312  -12.3977   19.4192 C   0  0  0  0  0  0
  -29.4868  -12.4990   18.2029 C   0  0  0  0  0  0
  -28.0169  -12.3035   18.6276 C   0  0  0  0  0  0
  -27.6488  -13.1578   19.8644 C   0  0  2  0  0  0
  -28.7171  -12.9875   20.9803 C   0  0  0  0  0  0
  -25.2530  -13.7947   20.5667 C   0  0  0  0  0  0
  -24.1776  -13.0301   20.9214 C   0  0  0  0  0  0
  -24.6314  -11.6774   20.8795 C   0  0  0  0  0  0
  -23.8983  -10.4208   21.0452 C   0  0  0  0  0  0
  -24.3557   -9.4136   21.9221 C   0  0  0  0  0  0
  -23.6243   -8.2173   22.0766 C   0  0  0  0  0  0
  -22.4232   -8.0226   21.3542 C   0  0  0  0  0  0
  -21.9859   -9.0200   20.4651 C   0  0  0  0  0  0
  -22.7176  -10.2079   20.3077 C   0  0  0  0  0  0
  -21.6828   -6.0707   22.5280 C   0  0  0  0  0  0
  -21.3993   -6.5621   23.8210 C   0  0  0  0  0  0
  -21.3655   -5.6781   24.9177 C   0  0  0  0  0  0
  -21.6045   -4.3044   24.7232 C   0  0  0  0  0  0
  -21.8820   -3.8130   23.4356 C   0  0  0  0  0  0
  -21.9186   -4.6940   22.3408 C   0  0  0  0  0  0
  -22.7821  -13.5173   21.1865 C   0  0  0  0  0  0
  -22.1662   -4.2129   21.0987 F   0  0  0  0  0  0
  -21.5634   -3.4532   25.7749 F   0  0  0  0  0  0
  -29.9997  -13.4164   20.4044 N   0  0  0  0  0  0
  -26.2945  -12.9051   20.3376 N   0  0  0  0  0  0
  -25.9226  -11.6272   20.5839 N   0  0  0  0  0  0
  -22.0435  -12.8211   22.0432 N   0  0  0  0  0  0
  -25.4123  -15.1638   20.3994 N   0  0  0  0  0  0
  -31.8719  -14.6406   20.1757 O   0  0  0  0  0  0
  -21.6595   -6.8833   21.4236 O   0  0  0  0  0  0
  -22.3547  -14.5494   20.6706 O   0  0  0  0  0  0
  -24.6153  -31.8672   23.2083 C   0  0  0  0  0  0
  -25.9040  -32.4818   23.8389 C   0  0  1  0  0  0
  -27.2460  -27.4235   20.0981 C   0  0  0  0  0  0
  -25.5892  -33.8616   24.2319 N   0  0  0  0  0  0
  -23.4044  -30.4899   21.5491 C   0  0  2  0  0  0
  -24.8535  -28.9536   20.1154 C   0  0  0  0  0  0
  -22.7416  -29.4657   22.4985 C   0  0  0  0  0  0
  -18.0274  -28.1380   22.8492 C   0  0  0  0  0  0
  -24.1487  -36.7317   23.2639 C   0  0  0  0  0  0
  -25.9348  -30.8295   21.3634 C   0  0  0  0  0  0
  -26.0137  -29.4632   20.7102 C   0  0  0  0  0  0
  -27.2103  -28.7074   20.6954 C   0  0  0  0  0  0
  -26.0625  -26.9345   19.4930 C   0  0  0  0  0  0
  -24.8737  -27.6893   19.5034 C   0  0  0  0  0  0
  -23.6146  -29.8205   20.1646 C   0  0  0  0  0  0
  -25.4108  -36.3109   24.0336 C   0  0  1  0  0  0
  -20.5865  -28.3668   23.1316 C   0  0  2  0  0  0
  -20.6761  -26.9404   22.5414 C   0  0  0  0  0  0
  -19.5742  -26.6390   21.5209 C   0  0  0  0  0  0
  -18.1923  -26.7926   22.1623 C   0  0  0  0  0  0
  -19.1524  -28.8841   23.2902 C   0  0  0  0  0  0
  -18.9450  -30.1448   23.8912 C   0  0  0  0  0  0
  -17.6452  -30.6586   24.0571 C   0  0  0  0  0  0
  -25.9034  -34.9474   23.5125 C   0  0  0  0  0  0
  -16.5343  -29.9089   23.6329 C   0  0  0  0  0  0
  -16.7263  -28.6507   23.0348 C   0  0  0  0  0  0
  -26.4467  -31.6601   25.0721 C   0  0  0  0  0  0
  -25.3729  -31.3714   26.1469 C   0  0  0  0  0  0
  -27.0300  -30.3041   24.6103 C   0  0  0  0  0  0
  -27.6046  -32.4321   25.7480 C   0  0  0  0  0  0
  -27.5583  -37.1813   24.8466 C   0  0  0  0  0  0
  -21.4141  -29.3036   22.3723 N   0  0  0  0  0  0
  -26.4296  -37.3792   23.9408 N   0  0  0  0  0  0
  -24.6698  -31.0764   22.0989 N   0  0  0  0  0  0
  -23.4183  -28.8198   23.3029 O   0  0  0  0  0  0
  -28.4262  -26.6951   20.1256 O   0  0  0  0  0  0
  -26.5604  -34.8924   22.4692 O   0  0  0  0  0  0
  -23.5340  -32.1424   23.7470 O   0  0  0  0  0  0
  -28.4414  -19.4640   22.6444 C   0  0  0  0  0  0
  -28.9658  -20.7286   22.3350 C   0  0  0  0  0  0
  -30.7746  -19.6649   21.0797 C   0  0  0  0  0  0
  -29.0709  -18.3067   22.1521 C   0  0  0  0  0  0
  -30.2660  -18.3771   21.4109 C   0  0  0  0  0  0
  -30.1053  -20.8484   21.5107 C   0  0  0  0  0  0
  -28.4089  -16.9665   22.2966 C   0  0  0  0  0  0
  -30.9263  -17.0544   20.9256 C   0  0  0  0  0  0
  -28.6462  -16.1384   21.0235 C   0  0  1  0  0  0
  -28.1189  -16.8120   19.7239 C   0  0  0  0  0  0
  -30.5703  -22.2608   21.1235 C   0  0  0  0  0  0
  -29.6146  -24.5303   20.4941 C   0  0  0  0  0  0
  -28.3462  -25.2629   19.9714 C   0  0  0  0  0  0
  -30.0837  -15.8033   20.8906 N   0  0  0  0  0  0
  -29.4847  -23.0393   20.4648 N   0  3  0  0  0  0
  -31.4630  -12.5279   19.0894 H   0  0  0  0  0  0
  -30.3955  -11.3972   19.8535 H   0  0  0  0  0  0
  -29.7596  -11.7585   17.4499 H   0  0  0  0  0  0
  -29.6038  -13.4742   17.7275 H   0  0  0  0  0  0
  -27.8701  -11.2466   18.8538 H   0  0  0  0  0  0
  -27.3490  -12.5322   17.7963 H   0  0  0  0  0  0
  -27.6558  -14.1691   19.4825 H   0  0  0  0  0  0
  -28.7704  -11.9361   21.2674 H   0  0  0  0  0  0
  -28.4897  -13.4845   21.9218 H   0  0  0  0  0  0
  -25.2701   -9.5612   22.4797 H   0  0  0  0  0  0
  -23.9951   -7.4557   22.7479 H   0  0  0  0  0  0
  -21.0792   -8.8717   19.8956 H   0  0  0  0  0  0
  -22.3649  -10.9626   19.6187 H   0  0  0  0  0  0
  -21.1973   -7.6128   23.9707 H   0  0  0  0  0  0
  -21.1483   -6.0513   25.9080 H   0  0  0  0  0  0
  -22.0609   -2.7593   23.2861 H   0  0  0  0  0  0
  -22.4018  -11.9866   22.4833 H   0  0  0  0  0  0
  -21.1068  -13.1287   22.2638 H   0  0  0  0  0  0
  -24.6377  -15.8096   20.5025 H   0  0  0  0  0  0
  -26.2598  -15.6057   20.0694 H   0  0  0  0  0  0
  -26.7118  -32.5531   23.1159 H   0  0  0  0  0  0
  -25.0038  -33.9779   25.0459 H   0  0  0  0  0  0
  -22.6933  -31.3066   21.4081 H   0  0  0  0  0  0
  -23.3740  -35.9660   23.3310 H   0  0  0  0  0  0
  -24.3581  -36.8920   22.2052 H   0  0  0  0  0  0
  -23.7246  -37.6527   23.6646 H   0  0  0  0  0  0
  -26.0482  -31.5951   20.5944 H   0  0  0  0  0  0
  -26.8223  -30.8832   21.9826 H   0  0  0  0  0  0
  -28.1054  -29.1005   21.1573 H   0  0  0  0  0  0
  -26.0358  -25.9727   19.0021 H   0  0  0  0  0  0
  -23.9823  -27.2928   19.0367 H   0  0  0  0  0  0
  -23.7227  -30.5938   19.4035 H   0  0  0  0  0  0
  -22.7388  -29.2392   19.8701 H   0  0  0  0  0  0
  -25.1283  -36.1977   25.0829 H   0  0  0  0  0  0
  -20.9960  -28.3232   24.1435 H   0  0  0  0  0  0
  -20.5663  -26.2275   23.3600 H   0  0  0  0  0  0
  -21.6636  -26.7450   22.1212 H   0  0  0  0  0  0
  -19.6905  -25.6305   21.1231 H   0  0  0  0  0  0
  -19.6682  -27.3209   20.6746 H   0  0  0  0  0  0
  -17.4192  -26.6676   21.4025 H   0  0  0  0  0  0
  -18.0329  -26.0063   22.9015 H   0  0  0  0  0  0
  -19.7926  -30.7262   24.2284 H   0  0  0  0  0  0
  -17.5009  -31.6267   24.5173 H   0  0  0  0  0  0
  -15.5347  -30.3000   23.7641 H   0  0  0  0  0  0
  -15.8662  -28.0836   22.7050 H   0  0  0  0  0  0
  -24.5897  -30.7067   25.7806 H   0  0  0  0  0  0
  -24.8926  -32.2874   26.4921 H   0  0  0  0  0  0
  -25.8077  -30.8879   27.0224 H   0  0  0  0  0  0
  -26.2848  -29.6801   24.1154 H   0  0  0  0  0  0
  -27.4065  -29.7278   25.4564 H   0  0  0  0  0  0
  -27.8683  -30.4359   23.9257 H   0  0  0  0  0  0
  -27.2670  -33.3609   26.2089 H   0  0  0  0  0  0
  -28.3837  -32.6901   25.0294 H   0  0  0  0  0  0
  -28.0736  -31.8426   26.5366 H   0  0  0  0  0  0
  -28.2609  -38.0103   24.7509 H   0  0  0  0  0  0
  -28.1069  -36.2634   24.6294 H   0  0  0  0  0  0
  -27.2303  -37.1471   25.8870 H   0  0  0  0  0  0
  -20.9295  -29.8758   21.6949 H   0  0  0  0  0  0
  -26.0183  -38.2873   24.1395 H   0  0  0  0  0  0
  -27.5303  -19.3885   23.2221 H   0  0  0  0  0  0
  -28.4587  -21.6075   22.7090 H   0  0  0  0  0  0
  -31.6657  -19.7435   20.4717 H   0  0  0  0  0  0
  -27.3379  -17.0985   22.4617 H   0  0  0  0  0  0
  -28.8034  -16.4555   23.1763 H   0  0  0  0  0  0
  -31.7890  -16.8767   21.5699 H   0  0  0  0  0  0
  -31.3229  -17.2301   19.9239 H   0  0  0  0  0  0
  -28.0143  -15.2982   21.2177 H   0  0  0  0  0  0
  -28.6809  -17.7030   19.4478 H   0  0  0  0  0  0
  -27.0859  -17.1383   19.8338 H   0  0  0  0  0  0
  -28.1749  -16.1522   18.8593 H   0  0  0  0  0  0
  -31.4428  -22.2170   20.4700 H   0  0  0  0  0  0
  -30.8870  -22.7677   22.0362 H   0  0  0  0  0  0
  -29.7996  -24.8491   21.5206 H   0  0  0  0  0  0
  -30.4849  -24.8305   19.9097 H   0  0  0  0  0  0
  -27.4836  -24.8872   20.5245 H   0  0  0  0  0  0
  -28.1883  -25.0236   18.9188 H   0  0  0  0  0  0
  -28.6316  -22.7834   20.9348 H   0  0  0  0  0  0
  -29.4056  -22.7153   19.5134 H   0  0  0  0  0  0
  1 25  1  0  0  0
  1 30  2  0  0  0
  1 84  1  0  0  0
  2  3  1  0  0  0
  2 25  1  0  0  0
  2 86  1  0  0  0
  2 87  1  0  0  0
  3  4  1  0  0  0
  3 88  1  0  0  0
  3 89  1  0  0  0
  4  5  1  0  0  0
  4 90  1  0  0  0
  4 91  1  0  0  0
  5  6  1  0  0  0
  5 26  1  0  0  0
  5 92  1  0  0  0
  6 25  1  0  0  0
  6 93  1  0  0  0
  6 94  1  0  0  0
  7  8  2  0  0  0
  7 26  1  0  0  0
  7 29  1  0  0  0
  8  9  1  0  0  0
  8 22  1  0  0  0
  9 10  1  0  0  0
  9 27  2  0  0  0
 10 11  2  0  0  0
 10 15  1  0  0  0
 11 12  1  0  0  0
 11 95  1  0  0  0
 12 13  2  0  0  0
 12 96  1  0  0  0
 13 14  1  0  0  0
 13 31  1  0  0  0
 14 15  2  0  0  0
 14 97  1  0  0  0
 15 98  1  0  0  0
 16 17  2  0  0  0
 16 21  1  0  0  0
 16 31  1  0  0  0
 17 18  1  0  0  0
 17 99  1  0  0  0
 18 19  2  0  0  0
 18100  1  0  0  0
 19 20  1  0  0  0
 19 24  1  0  0  0
 20 21  2  0  0  0
 20101  1  0  0  0
 21 23  1  0  0  0
 22 28  1  0  0  0
 22 32  2  0  0  0
 26 27  1  0  0  0
 28102  1  0  0  0
 28103  1  0  0  0
 29104  1  0  0  0
 29105  1  0  0  0
 33 34  1  0  0  0
 33 66  1  0  0  0
 33 70  2  0  0  0
 34 36  1  0  0  0
 34 59  1  0  0  0
 34106  1  0  0  0
 35 44  2  0  0  0
 35 45  1  0  0  0
 35 68  1  0  0  0
 36 56  1  0  0  0
 36107  1  0  0  0
 37 39  1  0  0  0
 37 47  1  0  0  0
 37 66  1  0  0  0
 37108  1  0  0  0
 38 43  2  0  0  0
 38 46  1  0  0  0
 38 47  1  0  0  0
 39 64  1  0  0  0
 39 67  2  0  0  0
 40 52  1  0  0  0
 40 53  2  0  0  0
 40 58  1  0  0  0
 41109  1  0  0  0
 41110  1  0  0  0
 41111  1  0  0  0
 41 48  1  0  0  0
 42 43  1  0  0  0
 42 66  1  0  0  0
 42112  1  0  0  0
 42113  1  0  0  0
 43 44  1  0  0  0
 44114  1  0  0  0
 45 46  2  0  0  0
 45115  1  0  0  0
 46116  1  0  0  0
 47117  1  0  0  0
 47118  1  0  0  0
 48 56  1  0  0  0
 48 65  1  0  0  0
 48119  1  0  0  0
 49 50  1  0  0  0
 49 53  1  0  0  0
 49 64  1  0  0  0
 49120  1  0  0  0
 50 51  1  0  0  0
 50121  1  0  0  0
 50122  1  0  0  0
 51 52  1  0  0  0
 51123  1  0  0  0
 51124  1  0  0  0
 52125  1  0  0  0
 52126  1  0  0  0
 53 54  1  0  0  0
 54 55  2  0  0  0
 54127  1  0  0  0
 55 57  1  0  0  0
 55128  1  0  0  0
 56 69  2  0  0  0
 57 58  2  0  0  0
 57129  1  0  0  0
 58130  1  0  0  0
 59 60  1  0  0  0
 59 61  1  0  0  0
 59 62  1  0  0  0
 60131  1  0  0  0
 60132  1  0  0  0
 60133  1  0  0  0
 61134  1  0  0  0
 61135  1  0  0  0
 61136  1  0  0  0
 62137  1  0  0  0
 62138  1  0  0  0
 62139  1  0  0  0
 63 65  1  0  0  0
 63140  1  0  0  0
 63141  1  0  0  0
 63142  1  0  0  0
 64143  1  0  0  0
 65144  1  0  0  0
 68 83  1  0  0  0
 71 72  2  0  0  0
 71 74  1  0  0  0
 71145  1  0  0  0
 72 76  1  0  0  0
 72146  1  0  0  0
 73 75  1  0  0  0
 73 76  2  0  0  0
 73147  1  0  0  0
 74 75  2  0  0  0
 74 77  1  0  0  0
 75 78  1  0  0  0
 76 81  1  0  0  0
 77 79  1  0  0  0
 77148  1  0  0  0
 77149  1  0  0  0
 78 84  1  0  0  0
 78150  1  0  0  0
 78151  1  0  0  0
 79 80  1  0  0  0
 79 84  1  0  0  0
 79152  1  0  0  0
 80153  1  0  0  0
 80154  1  0  0  0
 80155  1  0  0  0
 81 85  1  0  0  0
 81156  1  0  0  0
 81157  1  0  0  0
 82 83  1  0  0  0
 82 85  1  0  0  0
 82158  1  0  0  0
 82159  1  0  0  0
 83160  1  0  0  0
 83161  1  0  0  0
 85162  1  0  0  0
 85163  1  0  0  0
M  CHG  1  85   1
M  ISO  4   1 100  68 101  83 101  84 100
M  END
> <chiral flag>
0

> <version>
0

> <s_m_source_file>
/data/baiqing/PycharmProjects/Reinvent-master-3.2/result/LINK_invent/BTK/process_docking_weight1_custom_sum_contain_oxygen_bond_distance_aromatic_linkinvent_7_9_3/rearranged_h_0137.sdf

> <i_m_source_file_index>
41

> <r_mmod_Potential_Energy-OPLS-2005>
21.9171295166016

> <r_mmod_Stretch_Energy-OPLS-2005>
58.6792488098145

> <r_mmod_Bend_Energy-OPLS-2005>
140.895034790039

> <r_mmod_Torsional_Energy-OPLS-2005>
272.020385742188

> <r_mmod_Improper_Torsional_Energy-OPLS-2005>
4.18027544021606

> <r_mmod_Van_der_Waal_Energy-OPLS-2005>
180.848709106445

> <r_mmod_Electrostatic_Energy-OPLS-2005>
-224.80729675293

> <r_mmod_Solvation_Energy-OPLS-2005>
-438.794036865234

> <b_mmod_Minimization_Converged-OPLS-2005>
0

> <r_mmod_RMS_Derivative-OPLS-2005>
0.610976457595825

$$$$
41
                    3D
 Structure written by MMmdl.
160168  0  0  1  0            999 V2000
  -30.6757  -14.5247   20.4515 C   0  0  0  0  0  0
  -30.4242  -12.3011   19.4438 C   0  0  0  0  0  0
  -29.5035  -12.4659   18.2173 C   0  0  0  0  0  0
  -28.0220  -12.3313   18.6274 C   0  0  0  0  0  0
  -27.6572  -13.2036   19.8585 C   0  0  2  0  0  0
  -28.7040  -13.0539   20.9906 C   0  0  0  0  0  0
  -25.2576  -13.8180   20.5671 C   0  0  0  0  0  0
  -24.1824  -13.0463   20.9205 C   0  0  0  0  0  0
  -24.6381  -11.6928   20.8725 C   0  0  0  0  0  0
  -23.9060  -10.4315   21.0406 C   0  0  0  0  0  0
  -24.3616   -9.4243   21.9186 C   0  0  0  0  0  0
  -23.6297   -8.2274   22.0753 C   0  0  0  0  0  0
  -22.4284   -8.0297   21.3540 C   0  0  0  0  0  0
  -21.9915   -9.0262   20.4639 C   0  0  0  0  0  0
  -22.7240  -10.2148   20.3056 C   0  0  0  0  0  0
  -21.6869   -6.0734   22.5285 C   0  0  0  0  0  0
  -21.4011   -6.5623   23.8215 C   0  0  0  0  0  0
  -21.3673   -5.6786   24.9178 C   0  0  0  0  0  0
  -21.6065   -4.3046   24.7235 C   0  0  0  0  0  0
  -21.8844   -3.8145   23.4355 C   0  0  0  0  0  0
  -21.9221   -4.6964   22.3414 C   0  0  0  0  0  0
  -22.7853  -13.5273   21.1916 C   0  0  0  0  0  0
  -22.1679   -4.2139   21.0988 F   0  0  0  0  0  0
  -21.5627   -3.4539   25.7750 F   0  0  0  0  0  0
  -30.0315  -13.3283   20.4237 N   0  0  0  0  0  0
  -26.2989  -12.9333   20.3279 N   0  0  0  0  0  0
  -25.9300  -11.6501   20.5716 N   0  0  0  0  0  0
  -22.0501  -12.8195   22.0434 N   0  0  0  0  0  0
  -25.4292  -15.1891   20.4066 N   0  0  0  0  0  0
  -31.8662  -14.6314   20.1518 O   0  0  0  0  0  0
  -21.6645   -6.8891   21.4255 O   0  0  0  0  0  0
  -22.3541  -14.5623   20.6838 O   0  0  0  0  0  0
  -24.6196  -31.8651   23.2072 C   0  0  0  0  0  0
  -25.9068  -32.4807   23.8380 C   0  0  1  0  0  0
  -27.2282  -27.3891   20.1062 C   0  0  0  0  0  0
  -25.5910  -33.8613   24.2299 N   0  0  0  0  0  0
  -23.4099  -30.4901   21.5472 C   0  0  2  0  0  0
  -24.8558  -28.9518   20.1124 C   0  0  0  0  0  0
  -22.7436  -29.4665   22.4953 C   0  0  0  0  0  0
  -18.0290  -28.1396   22.8485 C   0  0  0  0  0  0
  -24.1489  -36.7315   23.2639 C   0  0  0  0  0  0
  -25.9448  -30.8173   21.3657 C   0  0  0  0  0  0
  -26.0204  -29.4489   20.7116 C   0  0  0  0  0  0
  -27.2123  -28.6796   20.6977 C   0  0  0  0  0  0
  -26.0455  -26.9234   19.4901 C   0  0  0  0  0  0
  -24.8666  -27.6904   19.4941 C   0  0  0  0  0  0
  -23.6195  -29.8235   20.1619 C   0  0  0  0  0  0
  -25.4116  -36.3116   24.0328 C   0  0  1  0  0  0
  -20.5879  -28.3688   23.1308 C   0  0  2  0  0  0
  -20.6780  -26.9416   22.5418 C   0  0  0  0  0  0
  -19.5755  -26.6396   21.5222 C   0  0  0  0  0  0
  -18.1938  -26.7943   22.1636 C   0  0  0  0  0  0
  -19.1536  -28.8860   23.2898 C   0  0  0  0  0  0
  -18.9453  -30.1466   23.8900 C   0  0  0  0  0  0
  -17.6448  -30.6590   24.0578 C   0  0  0  0  0  0
  -25.9043  -34.9476   23.5115 C   0  0  0  0  0  0
  -16.5345  -29.9077   23.6339 C   0  0  0  0  0  0
  -16.7279  -28.6513   23.0334 C   0  0  0  0  0  0
  -26.4465  -31.6614   25.0730 C   0  0  0  0  0  0
  -25.3716  -31.3711   26.1463 C   0  0  0  0  0  0
  -27.0304  -30.3063   24.6126 C   0  0  0  0  0  0
  -27.6053  -32.4335   25.7474 C   0  0  0  0  0  0
  -27.5589  -37.1809   24.8468 C   0  0  0  0  0  0
  -21.4162  -29.3047   22.3693 N   0  0  0  0  0  0
  -26.4310  -37.3794   23.9404 N   0  0  0  0  0  0
  -24.6771  -31.0714   22.0987 N   0  0  0  0  0  0
  -23.4190  -28.8226   23.3030 O   0  0  0  0  0  0
  -28.3654  -26.5955   20.1122 O   0  0  0  0  0  0
  -26.5612  -34.8926   22.4681 O   0  0  0  0  0  0
  -23.5381  -32.1410   23.7442 O   0  0  0  0  0  0
  -26.9680  -21.0550   19.1344 C   0  0  0  0  0  0
  -27.8495  -20.0553   19.5738 C   0  0  0  0  0  0
  -27.3383  -22.4213   19.2239 C   0  0  0  0  0  0
  -28.6013  -22.7291   19.8000 C   0  0  0  0  0  0
  -29.0969  -20.4298   20.0922 C   0  0  0  0  0  0
  -29.0804  -24.1712   19.8710 C   0  0  0  0  0  0
  -31.2430  -17.2006   19.0754 C   0  0  0  0  0  0
  -25.3974  -23.1088   17.9754 C   0  0  0  0  0  0
  -28.1679  -25.2218   20.5695 C   0  0  0  0  0  0
  -29.7296  -18.1124   20.9544 C   0  0  0  0  0  0
  -29.9681  -16.9692   19.9179 C   0  0  2  0  0  0
  -29.4598  -21.7322   20.1954 N   0  0  0  0  0  0
  -30.0521  -19.4791   20.4921 N   0  0  0  0  0  0
  -29.8584  -15.6049   20.5278 N   0  0  0  0  0  0
  -30.2030  -24.5197   19.4754 O   0  0  0  0  0  0
  -26.5471  -23.4440   18.7422 O   0  0  0  0  0  0
  -31.4695  -12.3839   19.1388 H   0  0  0  0  0  0
  -30.3220  -11.3053   19.8800 H   0  0  0  0  0  0
  -29.7495  -11.7183   17.4631 H   0  0  0  0  0  0
  -29.6710  -13.4387   17.7516 H   0  0  0  0  0  0
  -27.8402  -11.2799   18.8537 H   0  0  0  0  0  0
  -27.3749  -12.5741   17.7829 H   0  0  0  0  0  0
  -27.6830  -14.2348   19.5074 H   0  0  0  0  0  0
  -28.6846  -12.0476   21.4124 H   0  0  0  0  0  0
  -28.4882  -13.7298   21.8191 H   0  0  0  0  0  0
  -25.2761   -9.5719   22.4755 H   0  0  0  0  0  0
  -24.0036   -7.4675   22.7464 H   0  0  0  0  0  0
  -21.0875   -8.8772   19.8894 H   0  0  0  0  0  0
  -22.3718  -10.9674   19.6144 H   0  0  0  0  0  0
  -21.1952   -7.6122   23.9703 H   0  0  0  0  0  0
  -21.1479   -6.0501   25.9076 H   0  0  0  0  0  0
  -22.0615   -2.7602   23.2857 H   0  0  0  0  0  0
  -22.4139  -11.9833   22.4750 H   0  0  0  0  0  0
  -21.1128  -13.1200   22.2708 H   0  0  0  0  0  0
  -24.6576  -15.8404   20.5043 H   0  0  0  0  0  0
  -26.2722  -15.6255   20.0568 H   0  0  0  0  0  0
  -26.7149  -32.5483   23.1151 H   0  0  0  0  0  0
  -25.0060  -33.9783   25.0438 H   0  0  0  0  0  0
  -22.7027  -31.3095   21.4067 H   0  0  0  0  0  0
  -23.3756  -35.9647   23.3313 H   0  0  0  0  0  0
  -24.3584  -36.8922   22.2059 H   0  0  0  0  0  0
  -23.7236  -37.6516   23.6645 H   0  0  0  0  0  0
  -26.0672  -31.5805   20.5973 H   0  0  0  0  0  0
  -26.8314  -30.8689   21.9863 H   0  0  0  0  0  0
  -28.1101  -29.0609   21.1639 H   0  0  0  0  0  0
  -26.0273  -25.9629   18.9973 H   0  0  0  0  0  0
  -23.9753  -27.3078   19.0153 H   0  0  0  0  0  0
  -23.7262  -30.5987   19.4023 H   0  0  0  0  0  0
  -22.7415  -29.2445   19.8676 H   0  0  0  0  0  0
  -25.1296  -36.1987   25.0823 H   0  0  0  0  0  0
  -20.9999  -28.3270   24.1419 H   0  0  0  0  0  0
  -20.5718  -26.2287   23.3599 H   0  0  0  0  0  0
  -21.6641  -26.7463   22.1184 H   0  0  0  0  0  0
  -19.6911  -25.6308   21.1247 H   0  0  0  0  0  0
  -19.6705  -27.3210   20.6753 H   0  0  0  0  0  0
  -17.4200  -26.6702   21.4046 H   0  0  0  0  0  0
  -18.0337  -26.0086   22.9038 H   0  0  0  0  0  0
  -19.7926  -30.7306   24.2255 H   0  0  0  0  0  0
  -17.4992  -31.6273   24.5183 H   0  0  0  0  0  0
  -15.5344  -30.2981   23.7653 H   0  0  0  0  0  0
  -15.8688  -28.0854   22.7002 H   0  0  0  0  0  0
  -24.5884  -30.7068   25.7781 H   0  0  0  0  0  0
  -24.8898  -32.2856   26.4942 H   0  0  0  0  0  0
  -25.8060  -30.8848   27.0207 H   0  0  0  0  0  0
  -26.2852  -29.6814   24.1185 H   0  0  0  0  0  0
  -27.4086  -29.7320   25.4595 H   0  0  0  0  0  0
  -27.8688  -30.4405   23.9281 H   0  0  0  0  0  0
  -27.2694  -33.3632   26.2079 H   0  0  0  0  0  0
  -28.3829  -32.6900   25.0266 H   0  0  0  0  0  0
  -28.0750  -31.8431   26.5347 H   0  0  0  0  0  0
  -28.2610  -38.0099   24.7505 H   0  0  0  0  0  0
  -28.1074  -36.2630   24.6309 H   0  0  0  0  0  0
  -27.2297  -37.1481   25.8866 H   0  0  0  0  0  0
  -20.9316  -29.8736   21.6884 H   0  0  0  0  0  0
  -26.0201  -38.2880   24.1379 H   0  0  0  0  0  0
  -26.0233  -20.7451   18.7136 H   0  0  0  0  0  0
  -27.5603  -19.0198   19.4679 H   0  0  0  0  0  0
  -31.1883  -18.1288   18.5051 H   0  0  0  0  0  0
  -31.3821  -16.4105   18.3382 H   0  0  0  0  0  0
  -32.1356  -17.2492   19.6993 H   0  0  0  0  0  0
  -24.9605  -24.0178   17.5628 H   0  0  0  0  0  0
  -24.6387  -22.6256   18.5921 H   0  0  0  0  0  0
  -25.6525  -22.4613   17.1346 H   0  0  0  0  0  0
  -28.4347  -25.2040   21.6261 H   0  0  0  0  0  0
  -27.1281  -24.9022   20.5291 H   0  0  0  0  0  0
  -28.7054  -18.0725   21.3241 H   0  0  0  0  0  0
  -30.3677  -17.9243   21.8183 H   0  0  0  0  0  0
  -29.1413  -17.0183   19.2059 H   0  0  0  0  0  0
  -30.9486  -19.8416   20.7935 H   0  0  0  0  0  0
  -28.9288  -15.3595   20.8347 H   0  0  0  0  0  0
  1 25  1  0  0  0
  1 30  2  0  0  0
  1 84  1  0  0  0
  2  3  1  0  0  0
  2 25  1  0  0  0
  2 87  1  0  0  0
  2 88  1  0  0  0
  3  4  1  0  0  0
  3 89  1  0  0  0
  3 90  1  0  0  0
  4  5  1  0  0  0
  4 91  1  0  0  0
  4 92  1  0  0  0
  5  6  1  0  0  0
  5 26  1  0  0  0
  5 93  1  0  0  0
  6 25  1  0  0  0
  6 94  1  0  0  0
  6 95  1  0  0  0
  7  8  2  0  0  0
  7 26  1  0  0  0
  7 29  1  0  0  0
  8  9  1  0  0  0
  8 22  1  0  0  0
  9 10  1  0  0  0
  9 27  2  0  0  0
 10 11  2  0  0  0
 10 15  1  0  0  0
 11 12  1  0  0  0
 11 96  1  0  0  0
 12 13  2  0  0  0
 12 97  1  0  0  0
 13 14  1  0  0  0
 13 31  1  0  0  0
 14 15  2  0  0  0
 14 98  1  0  0  0
 15 99  1  0  0  0
 16 17  2  0  0  0
 16 21  1  0  0  0
 16 31  1  0  0  0
 17 18  1  0  0  0
 17100  1  0  0  0
 18 19  2  0  0  0
 18101  1  0  0  0
 19 20  1  0  0  0
 19 24  1  0  0  0
 20 21  2  0  0  0
 20102  1  0  0  0
 21 23  1  0  0  0
 22 28  1  0  0  0
 22 32  2  0  0  0
 26 27  1  0  0  0
 28103  1  0  0  0
 28104  1  0  0  0
 29105  1  0  0  0
 29106  1  0  0  0
 33 34  1  0  0  0
 33 66  1  0  0  0
 33 70  2  0  0  0
 34 36  1  0  0  0
 34 59  1  0  0  0
 34107  1  0  0  0
 35 44  2  0  0  0
 35 45  1  0  0  0
 35 68  1  0  0  0
 36 56  1  0  0  0
 36108  1  0  0  0
 37 39  1  0  0  0
 37 47  1  0  0  0
 37 66  1  0  0  0
 37109  1  0  0  0
 38 43  2  0  0  0
 38 46  1  0  0  0
 38 47  1  0  0  0
 39 64  1  0  0  0
 39 67  2  0  0  0
 40 52  1  0  0  0
 40 53  2  0  0  0
 40 58  1  0  0  0
 41110  1  0  0  0
 41111  1  0  0  0
 41112  1  0  0  0
 41 48  1  0  0  0
 42 43  1  0  0  0
 42 66  1  0  0  0
 42113  1  0  0  0
 42114  1  0  0  0
 43 44  1  0  0  0
 44115  1  0  0  0
 45 46  2  0  0  0
 45116  1  0  0  0
 46117  1  0  0  0
 47118  1  0  0  0
 47119  1  0  0  0
 48 56  1  0  0  0
 48 65  1  0  0  0
 48120  1  0  0  0
 49 50  1  0  0  0
 49 53  1  0  0  0
 49 64  1  0  0  0
 49121  1  0  0  0
 50 51  1  0  0  0
 50122  1  0  0  0
 50123  1  0  0  0
 51 52  1  0  0  0
 51124  1  0  0  0
 51125  1  0  0  0
 52126  1  0  0  0
 52127  1  0  0  0
 53 54  1  0  0  0
 54 55  2  0  0  0
 54128  1  0  0  0
 55 57  1  0  0  0
 55129  1  0  0  0
 56 69  2  0  0  0
 57 58  2  0  0  0
 57130  1  0  0  0
 58131  1  0  0  0
 59 60  1  0  0  0
 59 61  1  0  0  0
 59 62  1  0  0  0
 60132  1  0  0  0
 60133  1  0  0  0
 60134  1  0  0  0
 61135  1  0  0  0
 61136  1  0  0  0
 61137  1  0  0  0
 62138  1  0  0  0
 62139  1  0  0  0
 62140  1  0  0  0
 63 65  1  0  0  0
 63141  1  0  0  0
 63142  1  0  0  0
 63143  1  0  0  0
 64144  1  0  0  0
 65145  1  0  0  0
 68 79  1  0  0  0
 71 72  2  0  0  0
 71 73  1  0  0  0
 71146  1  0  0  0
 72 75  1  0  0  0
 72147  1  0  0  0
 73 74  2  0  0  0
 73 86  1  0  0  0
 74 76  1  0  0  0
 74 82  1  0  0  0
 75 82  2  0  0  0
 75 83  1  0  0  0
 76 79  1  0  0  0
 76 85  2  0  0  0
 77148  1  0  0  0
 77149  1  0  0  0
 77150  1  0  0  0
 77 81  1  0  0  0
 78 86  1  0  0  0
 78151  1  0  0  0
 78152  1  0  0  0
 78153  1  0  0  0
 79154  1  0  0  0
 79155  1  0  0  0
 80 81  1  0  0  0
 80 83  1  0  0  0
 80156  1  0  0  0
 80157  1  0  0  0
 81 84  1  0  0  0
 81158  1  0  0  0
 83159  1  0  0  0
 84160  1  0  0  0
M  ISO  4   1 100  68 101  79 101  84 100
M  END
> <chiral flag>
0

> <version>
0

> <s_m_source_file>
/data/baiqing/PycharmProjects/Reinvent-master-3.2/result/LINK_invent/BTK/process_docking_weight1_custom_sum_contain_oxygen_bond_distance_aromatic_linkinvent_7_9_3/rearranged_h_0137.sdf

> <i_m_source_file_index>
42

> <r_mmod_Potential_Energy-OPLS-2005>
-136.489074707031

> <r_mmod_Stretch_Energy-OPLS-2005>
52.9978370666504

> <r_mmod_Bend_Energy-OPLS-2005>
126.151695251465

> <r_mmod_Torsional_Energy-OPLS-2005>
263.330932617188

> <r_mmod_Improper_Torsional_Energy-OPLS-2005>
10.7646780014038

> <r_mmod_Van_der_Waal_Energy-OPLS-2005>
159.584625244141

> <r_mmod_Electrostatic_Energy-OPLS-2005>
-522.251953125

> <r_mmod_Solvation_Energy-OPLS-2005>
-253.798217773438

> <b_mmod_Minimization_Converged-OPLS-2005>
0

> <r_mmod_RMS_Derivative-OPLS-2005>
3.521235704422

$$$$
42
                    3D
 Structure written by MMmdl.
172181  0  0  1  0            999 V2000
  -30.7736  -14.4089   20.6316 C   0  0  0  0  0  0
  -30.4080  -12.2890   19.4186 C   0  0  0  0  0  0
  -29.4847  -12.5045   18.2043 C   0  0  0  0  0  0
  -28.0076  -12.3689   18.6176 C   0  0  0  0  0  0
  -27.6589  -13.2087   19.8745 C   0  0  2  0  0  0
  -28.6993  -12.9932   20.9996 C   0  0  0  0  0  0
  -25.2560  -13.8180   20.5672 C   0  0  0  0  0  0
  -24.1826  -13.0451   20.9181 C   0  0  0  0  0  0
  -24.6387  -11.6917   20.8747 C   0  0  0  0  0  0
  -23.9065  -10.4299   21.0417 C   0  0  0  0  0  0
  -24.3617   -9.4208   21.9187 C   0  0  0  0  0  0
  -23.6291   -8.2246   22.0757 C   0  0  0  0  0  0
  -22.4274   -8.0289   21.3544 C   0  0  0  0  0  0
  -21.9912   -9.0265   20.4645 C   0  0  0  0  0  0
  -22.7247  -10.2140   20.3054 C   0  0  0  0  0  0
  -21.6848   -6.0736   22.5279 C   0  0  0  0  0  0
  -21.4014   -6.5642   23.8216 C   0  0  0  0  0  0
  -21.3651   -5.6795   24.9176 C   0  0  0  0  0  0
  -21.6044   -4.3055   24.7229 C   0  0  0  0  0  0
  -21.8820   -3.8148   23.4349 C   0  0  0  0  0  0
  -21.9194   -4.6965   22.3399 C   0  0  0  0  0  0
  -22.7845  -13.5234   21.1844 C   0  0  0  0  0  0
  -22.1659   -4.2151   21.0974 F   0  0  0  0  0  0
  -21.5627   -3.4536   25.7738 F   0  0  0  0  0  0
  -30.0395  -13.2722   20.4540 N   0  0  0  0  0  0
  -26.2994  -12.9353   20.3354 N   0  0  0  0  0  0
  -25.9311  -11.6511   20.5780 N   0  0  0  0  0  0
  -22.0479  -12.8225   22.0398 N   0  0  0  0  0  0
  -25.4291  -15.1903   20.4050 N   0  0  0  0  0  0
  -31.8555  -14.5709   20.0468 O   0  0  0  0  0  0
  -21.6637   -6.8886   21.4244 O   0  0  0  0  0  0
  -22.3533  -14.5545   20.6702 O   0  0  0  0  0  0
  -24.6091  -31.8725   23.2106 C   0  0  0  0  0  0
  -25.8999  -32.4842   23.8413 C   0  0  1  0  0  0
  -27.2354  -27.4540   20.0937 C   0  0  0  0  0  0
  -25.5882  -33.8636   24.2351 N   0  0  0  0  0  0
  -23.3954  -30.4953   21.5542 C   0  0  2  0  0  0
  -24.8407  -28.9598   20.1231 C   0  0  0  0  0  0
  -22.7386  -29.4683   22.5040 C   0  0  0  0  0  0
  -18.0273  -28.1364   22.8498 C   0  0  0  0  0  0
  -24.1481  -36.7317   23.2644 C   0  0  0  0  0  0
  -25.9211  -30.8444   21.3621 C   0  0  0  0  0  0
  -25.9992  -29.4777   20.7137 C   0  0  0  0  0  0
  -27.1964  -28.7311   20.6962 C   0  0  0  0  0  0
  -26.0534  -26.9453   19.5011 C   0  0  0  0  0  0
  -24.8606  -27.6918   19.5189 C   0  0  0  0  0  0
  -23.6027  -29.8243   20.1704 C   0  0  0  0  0  0
  -25.4110  -36.3123   24.0334 C   0  0  1  0  0  0
  -20.5855  -28.3657   23.1336 C   0  0  2  0  0  0
  -20.6758  -26.9405   22.5417 C   0  0  0  0  0  0
  -19.5741  -26.6386   21.5198 C   0  0  0  0  0  0
  -18.1916  -26.7926   22.1609 C   0  0  0  0  0  0
  -19.1521  -28.8827   23.2908 C   0  0  0  0  0  0
  -18.9452  -30.1427   23.8922 C   0  0  0  0  0  0
  -17.6464  -30.6587   24.0561 C   0  0  0  0  0  0
  -25.9026  -34.9484   23.5144 C   0  0  0  0  0  0
  -16.5353  -29.9098   23.6316 C   0  0  0  0  0  0
  -16.7263  -28.6494   23.0360 C   0  0  0  0  0  0
  -26.4451  -31.6616   25.0730 C   0  0  0  0  0  0
  -25.3724  -31.3690   26.1477 C   0  0  0  0  0  0
  -27.0316  -30.3084   24.6077 C   0  0  0  0  0  0
  -27.6037  -32.4335   25.7491 C   0  0  0  0  0  0
  -27.5581  -37.1821   24.8466 C   0  0  0  0  0  0
  -21.4125  -29.3044   22.3759 N   0  0  0  0  0  0
  -26.4300  -37.3793   23.9387 N   0  0  0  0  0  0
  -24.6607  -31.0833   22.1021 N   0  0  0  0  0  0
  -23.4181  -28.8222   23.3064 O   0  0  0  0  0  0
  -28.4437  -26.7893   20.0722 O   0  0  0  0  0  0
  -26.5596  -34.8924   22.4705 O   0  0  0  0  0  0
  -23.5289  -32.1506   23.7490 O   0  0  0  0  0  0
  -31.8734  -19.2271   22.1353 C   0  0  0  0  0  0
  -29.9697  -17.7118   22.2072 C   0  0  0  0  0  0
  -30.5125  -19.0038   22.4261 C   0  0  0  0  0  0
  -32.6493  -18.1822   21.6005 C   0  0  0  0  0  0
  -30.7779  -16.6749   21.6721 C   0  0  0  0  0  0
  -28.7801  -21.0007   20.7618 C   0  0  0  0  0  0
  -27.5555  -21.3135   22.9464 C   0  0  0  0  0  0
  -29.1685  -22.4922   20.8069 C   0  0  0  0  0  0
  -27.9441  -22.8075   22.9021 C   0  0  0  0  0  0
  -28.5078  -20.3944   22.1552 C   0  0  2  0  0  0
  -34.1076  -18.3634   21.2071 C   0  0  0  0  0  0
  -28.3421  -24.7736   21.4595 C   0  0  0  0  0  0
  -34.2980  -18.8681   19.7629 C   0  0  0  0  0  0
  -28.4738  -25.3599   20.0340 C   0  0  0  0  0  0
  -32.0738  -16.9799   21.3967 N   0  3  0  0  0  0
  -29.7349  -20.0824   22.8932 N   0  0  0  0  0  0
  -30.2415  -15.3645   21.4237 N   0  0  0  0  0  0
  -28.1298  -23.2953   21.5087 N   0  3  1  0  0  0
  -34.0790  -17.8465   18.7989 O   0  0  0  0  0  0
  -31.4528  -12.3621   19.1089 H   0  0  0  0  0  0
  -30.2944  -11.2770   19.8101 H   0  0  0  0  0  0
  -29.7187  -11.7832   17.4206 H   0  0  0  0  0  0
  -29.6587  -13.4918   17.7752 H   0  0  0  0  0  0
  -27.8124  -11.3131   18.8087 H   0  0  0  0  0  0
  -27.3587  -12.6503   17.7875 H   0  0  0  0  0  0
  -27.7031  -14.2555   19.5732 H   0  0  0  0  0  0
  -28.6625  -11.9599   21.3503 H   0  0  0  0  0  0
  -28.4534  -13.6013   21.8701 H   0  0  0  0  0  0
  -25.2763   -9.5675   22.4764 H   0  0  0  0  0  0
  -23.9997   -7.4633   22.7472 H   0  0  0  0  0  0
  -21.0849   -8.8790   19.8943 H   0  0  0  0  0  0
  -22.3719  -10.9681   19.6160 H   0  0  0  0  0  0
  -21.2010   -7.6153   23.9721 H   0  0  0  0  0  0
  -21.1469   -6.0521   25.9080 H   0  0  0  0  0  0
  -22.0608   -2.7611   23.2849 H   0  0  0  0  0  0
  -22.4083  -11.9871   22.4763 H   0  0  0  0  0  0
  -21.1092  -13.1248   22.2603 H   0  0  0  0  0  0
  -24.6578  -15.8423   20.4976 H   0  0  0  0  0  0
  -26.2694  -15.6238   20.0433 H   0  0  0  0  0  0
  -26.7071  -32.5577   23.1189 H   0  0  0  0  0  0
  -25.0018  -33.9801   25.0489 H   0  0  0  0  0  0
  -22.6832  -31.3111   21.4140 H   0  0  0  0  0  0
  -23.3738  -35.9656   23.3309 H   0  0  0  0  0  0
  -24.3571  -36.8914   22.2055 H   0  0  0  0  0  0
  -23.7227  -37.6518   23.6661 H   0  0  0  0  0  0
  -26.0262  -31.6093   20.5914 H   0  0  0  0  0  0
  -26.8104  -30.9032   21.9772 H   0  0  0  0  0  0
  -28.0955  -29.1320   21.1456 H   0  0  0  0  0  0
  -26.0213  -25.9948   18.9917 H   0  0  0  0  0  0
  -23.9669  -27.2924   19.0599 H   0  0  0  0  0  0
  -23.7084  -30.5968   19.4080 H   0  0  0  0  0  0
  -22.7287  -29.2399   19.8769 H   0  0  0  0  0  0
  -25.1282  -36.2006   25.0830 H   0  0  0  0  0  0
  -20.9936  -28.3224   24.1465 H   0  0  0  0  0  0
  -20.5644  -26.2274   23.3601 H   0  0  0  0  0  0
  -21.6635  -26.7463   22.1220 H   0  0  0  0  0  0
  -19.6902  -25.6300   21.1226 H   0  0  0  0  0  0
  -19.6664  -27.3195   20.6726 H   0  0  0  0  0  0
  -17.4187  -26.6674   21.4010 H   0  0  0  0  0  0
  -18.0310  -26.0066   22.8999 H   0  0  0  0  0  0
  -19.7930  -30.7202   24.2336 H   0  0  0  0  0  0
  -17.5038  -31.6276   24.5159 H   0  0  0  0  0  0
  -15.5358  -30.3012   23.7624 H   0  0  0  0  0  0
  -15.8657  -28.0804   22.7114 H   0  0  0  0  0  0
  -24.5912  -30.7031   25.7787 H   0  0  0  0  0  0
  -24.8895  -32.2832   26.4950 H   0  0  0  0  0  0
  -25.8083  -30.8841   27.0224 H   0  0  0  0  0  0
  -26.2880  -29.6815   24.1150 H   0  0  0  0  0  0
  -27.4154  -29.7331   25.4509 H   0  0  0  0  0  0
  -27.8659  -30.4423   23.9186 H   0  0  0  0  0  0
  -27.2683  -33.3629   26.2101 H   0  0  0  0  0  0
  -28.3841  -32.6900   25.0319 H   0  0  0  0  0  0
  -28.0725  -31.8447   26.5383 H   0  0  0  0  0  0
  -28.2615  -38.0111   24.7530 H   0  0  0  0  0  0
  -28.1070  -36.2643   24.6294 H   0  0  0  0  0  0
  -27.2295  -37.1465   25.8872 H   0  0  0  0  0  0
  -20.9292  -29.8789   21.6993 H   0  0  0  0  0  0
  -26.0195  -38.2868   24.1407 H   0  0  0  0  0  0
  -32.3190  -20.1999   22.2850 H   0  0  0  0  0  0
  -28.9338  -17.5187   22.4410 H   0  0  0  0  0  0
  -29.5447  -20.4335   20.2284 H   0  0  0  0  0  0
  -27.8744  -20.9005   20.1617 H   0  0  0  0  0  0
  -26.5527  -21.2104   22.5310 H   0  0  0  0  0  0
  -27.4748  -20.9754   23.9809 H   0  0  0  0  0  0
  -29.2967  -22.8300   19.7801 H   0  0  0  0  0  0
  -30.1334  -22.6257   21.2989 H   0  0  0  0  0  0
  -28.8588  -22.9743   23.4735 H   0  0  0  0  0  0
  -27.1634  -23.3904   23.3942 H   0  0  0  0  0  0
  -27.9728  -19.4555   22.0093 H   0  0  0  0  0  0
  -34.6588  -17.4353   21.3653 H   0  0  0  0  0  0
  -34.5499  -19.0832   21.8972 H   0  0  0  0  0  0
  -27.4905  -25.2464   21.9511 H   0  0  0  0  0  0
  -29.2224  -25.0436   22.0448 H   0  0  0  0  0  0
  -35.3220  -19.2233   19.6405 H   0  0  0  0  0  0
  -33.6448  -19.7204   19.5681 H   0  0  0  0  0  0
  -27.7470  -24.9249   19.3531 H   0  0  0  0  0  0
  -29.4456  -25.0910   19.6227 H   0  0  0  0  0  0
  -32.6442  -16.2421   20.9606 H   0  0  0  0  0  0
  -30.2755  -20.8773   23.2182 H   0  0  0  0  0  0
  -29.3444  -15.1463   21.8201 H   0  0  0  0  0  0
  -27.2564  -23.1248   21.0293 H   0  0  0  0  0  0
  -34.7428  -17.1747   18.9215 H   0  0  0  0  0  0
  1 25  1  0  0  0
  1 30  2  0  0  0
  1 87  1  0  0  0
  2  3  1  0  0  0
  2 25  1  0  0  0
  2 90  1  0  0  0
  2 91  1  0  0  0
  3  4  1  0  0  0
  3 92  1  0  0  0
  3 93  1  0  0  0
  4  5  1  0  0  0
  4 94  1  0  0  0
  4 95  1  0  0  0
  5  6  1  0  0  0
  5 26  1  0  0  0
  5 96  1  0  0  0
  6 25  1  0  0  0
  6 97  1  0  0  0
  6 98  1  0  0  0
  7  8  2  0  0  0
  7 26  1  0  0  0
  7 29  1  0  0  0
  8  9  1  0  0  0
  8 22  1  0  0  0
  9 10  1  0  0  0
  9 27  2  0  0  0
 10 11  2  0  0  0
 10 15  1  0  0  0
 11 12  1  0  0  0
 11 99  1  0  0  0
 12 13  2  0  0  0
 12100  1  0  0  0
 13 14  1  0  0  0
 13 31  1  0  0  0
 14 15  2  0  0  0
 14101  1  0  0  0
 15102  1  0  0  0
 16 17  2  0  0  0
 16 21  1  0  0  0
 16 31  1  0  0  0
 17 18  1  0  0  0
 17103  1  0  0  0
 18 19  2  0  0  0
 18104  1  0  0  0
 19 20  1  0  0  0
 19 24  1  0  0  0
 20 21  2  0  0  0
 20105  1  0  0  0
 21 23  1  0  0  0
 22 28  1  0  0  0
 22 32  2  0  0  0
 26 27  1  0  0  0
 28106  1  0  0  0
 28107  1  0  0  0
 29108  1  0  0  0
 29109  1  0  0  0
 33 34  1  0  0  0
 33 66  1  0  0  0
 33 70  2  0  0  0
 34 36  1  0  0  0
 34 59  1  0  0  0
 34110  1  0  0  0
 35 44  2  0  0  0
 35 45  1  0  0  0
 35 68  1  0  0  0
 36 56  1  0  0  0
 36111  1  0  0  0
 37 39  1  0  0  0
 37 47  1  0  0  0
 37 66  1  0  0  0
 37112  1  0  0  0
 38 43  2  0  0  0
 38 46  1  0  0  0
 38 47  1  0  0  0
 39 64  1  0  0  0
 39 67  2  0  0  0
 40 52  1  0  0  0
 40 53  2  0  0  0
 40 58  1  0  0  0
 41113  1  0  0  0
 41114  1  0  0  0
 41115  1  0  0  0
 41 48  1  0  0  0
 42 43  1  0  0  0
 42 66  1  0  0  0
 42116  1  0  0  0
 42117  1  0  0  0
 43 44  1  0  0  0
 44118  1  0  0  0
 45 46  2  0  0  0
 45119  1  0  0  0
 46120  1  0  0  0
 47121  1  0  0  0
 47122  1  0  0  0
 48 56  1  0  0  0
 48 65  1  0  0  0
 48123  1  0  0  0
 49 50  1  0  0  0
 49 53  1  0  0  0
 49 64  1  0  0  0
 49124  1  0  0  0
 50 51  1  0  0  0
 50125  1  0  0  0
 50126  1  0  0  0
 51 52  1  0  0  0
 51127  1  0  0  0
 51128  1  0  0  0
 52129  1  0  0  0
 52130  1  0  0  0
 53 54  1  0  0  0
 54 55  2  0  0  0
 54131  1  0  0  0
 55 57  1  0  0  0
 55132  1  0  0  0
 56 69  2  0  0  0
 57 58  2  0  0  0
 57133  1  0  0  0
 58134  1  0  0  0
 59 60  1  0  0  0
 59 61  1  0  0  0
 59 62  1  0  0  0
 60135  1  0  0  0
 60136  1  0  0  0
 60137  1  0  0  0
 61138  1  0  0  0
 61139  1  0  0  0
 61140  1  0  0  0
 62141  1  0  0  0
 62142  1  0  0  0
 62143  1  0  0  0
 63 65  1  0  0  0
 63144  1  0  0  0
 63145  1  0  0  0
 63146  1  0  0  0
 64147  1  0  0  0
 65148  1  0  0  0
 68 84  1  0  0  0
 71 73  2  0  0  0
 71 74  1  0  0  0
 71149  1  0  0  0
 72 73  1  0  0  0
 72 75  2  0  0  0
 72150  1  0  0  0
 73 86  1  0  0  0
 74 81  1  0  0  0
 74 85  2  0  0  0
 75 85  1  0  0  0
 75 87  1  0  0  0
 76 78  1  0  0  0
 76 80  1  0  0  0
 76151  1  0  0  0
 76152  1  0  0  0
 77 79  1  0  0  0
 77 80  1  0  0  0
 77153  1  0  0  0
 77154  1  0  0  0
 78 88  1  0  0  0
 78155  1  0  0  0
 78156  1  0  0  0
 79 88  1  0  0  0
 79157  1  0  0  0
 79158  1  0  0  0
 80 86  1  0  0  0
 80159  1  0  0  0
 81 83  1  0  0  0
 81160  1  0  0  0
 81161  1  0  0  0
 82 84  1  0  0  0
 82162  1  0  0  0
 82163  1  0  0  0
 82 88  1  0  0  0
 83 89  1  0  0  0
 83164  1  0  0  0
 83165  1  0  0  0
 84166  1  0  0  0
 84167  1  0  0  0
 85168  1  0  0  0
 86169  1  0  0  0
 87170  1  0  0  0
 88171  1  0  0  0
 89172  1  0  0  0
M  CHG  2  85   1  88   1
M  ISO  4   1 100  68 101  84 101  87 100
M  END
> <chiral flag>
0

> <version>
0

> <s_m_source_file>
/data/baiqing/PycharmProjects/Reinvent-master-3.2/result/LINK_invent/BTK/process_docking_weight1_custom_sum_contain_oxygen_bond_distance_aromatic_linkinvent_7_9_3/rearranged_h_0137.sdf

> <i_m_source_file_index>
43

> <r_mmod_Potential_Energy-OPLS-2005>
-57.9540786743164

> <r_mmod_Stretch_Energy-OPLS-2005>
40.1798858642578

> <r_mmod_Bend_Energy-OPLS-2005>
112.304466247559

> <r_mmod_Torsional_Energy-OPLS-2005>
237.33723449707

> <r_mmod_Improper_Torsional_Energy-OPLS-2005>
5.60903358459473

> <r_mmod_Van_der_Waal_Energy-OPLS-2005>
163.847229003906

> <r_mmod_Electrostatic_Energy-OPLS-2005>
231.217071533203

> <r_mmod_Solvation_Energy-OPLS-2005>
-858.4482421875

> <b_mmod_Minimization_Converged-OPLS-2005>
0

> <r_mmod_RMS_Derivative-OPLS-2005>
2.23348116874695

$$$$
43
                    3D
 Structure written by MMmdl.
165174  0  0  1  0            999 V2000
  -30.7728  -14.3325   20.7020 C   0  0  0  0  0  0
  -30.4278  -12.2747   19.3906 C   0  0  0  0  0  0
  -29.4969  -12.5331   18.1918 C   0  0  0  0  0  0
  -28.0188  -12.3873   18.6014 C   0  0  0  0  0  0
  -27.6733  -13.1960   19.8783 C   0  0  2  0  0  0
  -28.7071  -12.9168   20.9915 C   0  0  0  0  0  0
  -25.2637  -13.8140   20.5596 C   0  0  0  0  0  0
  -24.1869  -13.0453   20.9147 C   0  0  0  0  0  0
  -24.6391  -11.6903   20.8711 C   0  0  0  0  0  0
  -23.9056  -10.4289   21.0404 C   0  0  0  0  0  0
  -24.3600   -9.4211   21.9196 C   0  0  0  0  0  0
  -23.6269   -8.2252   22.0766 C   0  0  0  0  0  0
  -22.4259   -8.0287   21.3546 C   0  0  0  0  0  0
  -21.9903   -9.0257   20.4646 C   0  0  0  0  0  0
  -22.7233  -10.2133   20.3046 C   0  0  0  0  0  0
  -21.6849   -6.0737   22.5280 C   0  0  0  0  0  0
  -21.4008   -6.5643   23.8215 C   0  0  0  0  0  0
  -21.3650   -5.6792   24.9177 C   0  0  0  0  0  0
  -21.6038   -4.3053   24.7222 C   0  0  0  0  0  0
  -21.8819   -3.8146   23.4339 C   0  0  0  0  0  0
  -21.9184   -4.6963   22.3398 C   0  0  0  0  0  0
  -22.7891  -13.5275   21.1822 C   0  0  0  0  0  0
  -22.1654   -4.2155   21.0976 F   0  0  0  0  0  0
  -21.5620   -3.4530   25.7725 F   0  0  0  0  0  0
  -30.0607  -13.2008   20.4683 N   0  0  0  0  0  0
  -26.3065  -12.9285   20.3302 N   0  0  0  0  0  0
  -25.9311  -11.6459   20.5706 N   0  0  0  0  0  0
  -22.0484  -12.8259   22.0342 N   0  0  0  0  0  0
  -25.4417  -15.1846   20.3927 N   0  0  0  0  0  0
  -31.7768  -14.6583   20.0577 O   0  0  0  0  0  0
  -21.6640   -6.8874   21.4239 O   0  0  0  0  0  0
  -22.3598  -14.5601   20.6692 O   0  0  0  0  0  0
  -24.6073  -31.8736   23.2148 C   0  0  0  0  0  0
  -25.8995  -32.4838   23.8430 C   0  0  1  0  0  0
  -27.2442  -27.4911   20.0949 C   0  0  0  0  0  0
  -25.5882  -33.8645   24.2364 N   0  0  0  0  0  0
  -23.3918  -30.4995   21.5517 C   0  0  2  0  0  0
  -24.8408  -28.9679   20.1179 C   0  0  0  0  0  0
  -22.7361  -29.4714   22.5001 C   0  0  0  0  0  0
  -18.0251  -28.1394   22.8503 C   0  0  0  0  0  0
  -24.1479  -36.7333   23.2638 C   0  0  0  0  0  0
  -25.9127  -30.8573   21.3573 C   0  0  0  0  0  0
  -25.9939  -29.4932   20.7134 C   0  0  0  0  0  0
  -27.1981  -28.7642   20.7054 C   0  0  0  0  0  0
  -26.0808  -26.9737   19.4912 C   0  0  0  0  0  0
  -24.8760  -27.7018   19.5054 C   0  0  0  0  0  0
  -23.5987  -29.8279   20.1664 C   0  0  0  0  0  0
  -25.4099  -36.3139   24.0352 C   0  0  1  0  0  0
  -20.5843  -28.3693   23.1322 C   0  0  2  0  0  0
  -20.6755  -26.9439   22.5418 C   0  0  0  0  0  0
  -19.5739  -26.6408   21.5221 C   0  0  0  0  0  0
  -18.1910  -26.7951   22.1611 C   0  0  0  0  0  0
  -19.1500  -28.8857   23.2912 C   0  0  0  0  0  0
  -18.9425  -30.1462   23.8921 C   0  0  0  0  0  0
  -17.6426  -30.6613   24.0550 C   0  0  0  0  0  0
  -25.9037  -34.9501   23.5159 C   0  0  0  0  0  0
  -16.5315  -29.9105   23.6321 C   0  0  0  0  0  0
  -16.7240  -28.6513   23.0359 C   0  0  0  0  0  0
  -26.4464  -31.6567   25.0712 C   0  0  0  0  0  0
  -25.3768  -31.3600   26.1470 C   0  0  0  0  0  0
  -27.0271  -30.3018   24.6019 C   0  0  0  0  0  0
  -27.6065  -32.4261   25.7455 C   0  0  0  0  0  0
  -27.5586  -37.1817   24.8457 C   0  0  0  0  0  0
  -21.4103  -29.3072   22.3732 N   0  0  0  0  0  0
  -26.4282  -37.3827   23.9424 N   0  0  0  0  0  0
  -24.6550  -31.0905   22.1006 N   0  0  0  0  0  0
  -23.4152  -28.8263   23.3034 O   0  0  0  0  0  0
  -28.3792  -26.7223   20.0453 O   0  0  0  0  0  0
  -26.5610  -34.8945   22.4727 O   0  0  0  0  0  0
  -23.5285  -32.1459   23.7595 O   0  0  0  0  0  0
  -29.9733  -24.9280   22.6637 C   0  0  0  0  0  0
  -30.4957  -23.6384   22.8554 C   0  0  0  0  0  0
  -31.5447  -17.1421   22.1300 C   0  0  0  0  0  0
  -31.5116  -18.5465   22.2142 C   0  0  0  0  0  0
  -30.5309  -24.7964   20.2933 C   0  0  0  0  0  0
  -29.1601  -17.1272   21.6016 C   0  0  0  0  0  0
  -29.9630  -25.4987   21.3758 C   0  0  0  0  0  0
  -31.0138  -22.9083   21.7649 C   0  0  0  0  0  0
  -31.0471  -23.4967   20.4756 C   0  0  0  0  0  0
  -29.1270  -18.5313   21.6668 C   0  0  0  0  0  0
  -30.3664  -16.4352   21.8168 C   0  0  0  0  0  0
  -30.3052  -19.2472   21.9844 C   0  0  0  0  0  0
  -31.5848  -22.7444   19.2702 C   0  0  0  0  0  0
  -27.8173  -19.2498   21.3842 C   0  0  0  0  0  0
  -31.4217  -21.4693   22.0021 C   0  0  0  0  0  0
  -29.2816  -26.8299   21.1407 C   0  0  0  0  0  0
  -30.3446  -15.0315   21.7568 N   0  0  0  0  0  0
  -30.2323  -20.6394   22.0670 N   0  0  0  0  0  0
  -31.4736  -12.3746   19.0917 H   0  0  0  0  0  0
  -30.3201  -11.2479   19.7434 H   0  0  0  0  0  0
  -29.7318  -11.8443   17.3798 H   0  0  0  0  0  0
  -29.6730  -13.5368   17.8026 H   0  0  0  0  0  0
  -27.8198  -11.3280   18.7690 H   0  0  0  0  0  0
  -27.3725  -12.6906   17.7770 H   0  0  0  0  0  0
  -27.7401  -14.2529   19.6205 H   0  0  0  0  0  0
  -28.6566  -11.8703   21.2964 H   0  0  0  0  0  0
  -28.4436  -13.4843   21.8830 H   0  0  0  0  0  0
  -25.2742   -9.5688   22.4771 H   0  0  0  0  0  0
  -23.9974   -7.4653   22.7493 H   0  0  0  0  0  0
  -21.0838   -8.8762   19.8946 H   0  0  0  0  0  0
  -22.3708  -10.9662   19.6133 H   0  0  0  0  0  0
  -21.2001   -7.6150   23.9724 H   0  0  0  0  0  0
  -21.1462   -6.0517   25.9083 H   0  0  0  0  0  0
  -22.0593   -2.7604   23.2836 H   0  0  0  0  0  0
  -22.4041  -11.9887   22.4710 H   0  0  0  0  0  0
  -21.1097  -13.1296   22.2511 H   0  0  0  0  0  0
  -24.6752  -15.8432   20.4711 H   0  0  0  0  0  0
  -26.2829  -15.5993   20.0117 H   0  0  0  0  0  0
  -26.7071  -32.5599   23.1212 H   0  0  0  0  0  0
  -24.9995  -33.9816   25.0479 H   0  0  0  0  0  0
  -22.6783  -31.3158   21.4145 H   0  0  0  0  0  0
  -23.3775  -35.9626   23.3249 H   0  0  0  0  0  0
  -24.3584  -36.9003   22.2061 H   0  0  0  0  0  0
  -23.7168  -37.6504   23.6675 H   0  0  0  0  0  0
  -26.0147  -31.6184   20.5824 H   0  0  0  0  0  0
  -26.8044  -30.9188   21.9682 H   0  0  0  0  0  0
  -28.0844  -29.1896   21.1556 H   0  0  0  0  0  0
  -26.1092  -26.0024   19.0170 H   0  0  0  0  0  0
  -23.9910  -27.2904   19.0400 H   0  0  0  0  0  0
  -23.7020  -30.6026   19.4053 H   0  0  0  0  0  0
  -22.7244  -29.2441   19.8721 H   0  0  0  0  0  0
  -25.1265  -36.2015   25.0844 H   0  0  0  0  0  0
  -20.9942  -28.3255   24.1440 H   0  0  0  0  0  0
  -20.5694  -26.2314   23.3612 H   0  0  0  0  0  0
  -21.6613  -26.7504   22.1174 H   0  0  0  0  0  0
  -19.6896  -25.6325   21.1235 H   0  0  0  0  0  0
  -19.6672  -27.3219   20.6754 H   0  0  0  0  0  0
  -17.4207  -26.6762   21.3985 H   0  0  0  0  0  0
  -18.0272  -26.0050   22.8946 H   0  0  0  0  0  0
  -19.7908  -30.7269   24.2300 H   0  0  0  0  0  0
  -17.4987  -31.6303   24.5134 H   0  0  0  0  0  0
  -15.5319  -30.3013   23.7632 H   0  0  0  0  0  0
  -15.8648  -28.0812   22.7082 H   0  0  0  0  0  0
  -24.5921  -30.6991   25.7764 H   0  0  0  0  0  0
  -24.8991  -32.2722   26.5059 H   0  0  0  0  0  0
  -25.8153  -30.8639   27.0136 H   0  0  0  0  0  0
  -26.2768  -29.6768   24.1154 H   0  0  0  0  0  0
  -27.4142  -29.7250   25.4428 H   0  0  0  0  0  0
  -27.8568  -30.4343   23.9069 H   0  0  0  0  0  0
  -27.2721  -33.3592   26.2002 H   0  0  0  0  0  0
  -28.3887  -32.6749   25.0270 H   0  0  0  0  0  0
  -28.0709  -31.8380   26.5382 H   0  0  0  0  0  0
  -28.2573  -38.0147   24.7570 H   0  0  0  0  0  0
  -28.1120  -36.2691   24.6192 H   0  0  0  0  0  0
  -27.2328  -37.1339   25.8863 H   0  0  0  0  0  0
  -20.9268  -29.8801   21.6953 H   0  0  0  0  0  0
  -26.0178  -38.2905   24.1449 H   0  0  0  0  0  0
  -29.5399  -25.4552   23.5019 H   0  0  0  0  0  0
  -30.4549  -23.1868   23.8377 H   0  0  0  0  0  0
  -32.4715  -16.6163   22.3131 H   0  0  0  0  0  0
  -32.4259  -19.0664   22.4636 H   0  0  0  0  0  0
  -30.5243  -25.2447   19.3087 H   0  0  0  0  0  0
  -28.2587  -16.5791   21.3687 H   0  0  0  0  0  0
  -31.5304  -23.3525   18.3660 H   0  0  0  0  0  0
  -31.0083  -21.8351   19.0945 H   0  0  0  0  0  0
  -32.6297  -22.4725   19.4199 H   0  0  0  0  0  0
  -27.0445  -18.5574   21.0492 H   0  0  0  0  0  0
  -27.9528  -19.9945   20.5998 H   0  0  0  0  0  0
  -27.4543  -19.7535   22.2797 H   0  0  0  0  0  0
  -31.9627  -21.4102   22.9482 H   0  0  0  0  0  0
  -32.1003  -21.1126   21.2268 H   0  0  0  0  0  0
  -30.0250  -27.6033   20.9450 H   0  0  0  0  0  0
  -28.7541  -27.1059   22.0559 H   0  0  0  0  0  0
  -29.5656  -14.5907   22.2210 H   0  0  0  0  0  0
  -29.3677  -21.0840   21.7793 H   0  0  0  0  0  0
  1 25  1  0  0  0
  1 30  2  0  0  0
  1 87  1  0  0  0
  2  3  1  0  0  0
  2 25  1  0  0  0
  2 89  1  0  0  0
  2 90  1  0  0  0
  3  4  1  0  0  0
  3 91  1  0  0  0
  3 92  1  0  0  0
  4  5  1  0  0  0
  4 93  1  0  0  0
  4 94  1  0  0  0
  5  6  1  0  0  0
  5 26  1  0  0  0
  5 95  1  0  0  0
  6 25  1  0  0  0
  6 96  1  0  0  0
  6 97  1  0  0  0
  7  8  2  0  0  0
  7 26  1  0  0  0
  7 29  1  0  0  0
  8  9  1  0  0  0
  8 22  1  0  0  0
  9 10  1  0  0  0
  9 27  2  0  0  0
 10 11  2  0  0  0
 10 15  1  0  0  0
 11 12  1  0  0  0
 11 98  1  0  0  0
 12 13  2  0  0  0
 12 99  1  0  0  0
 13 14  1  0  0  0
 13 31  1  0  0  0
 14 15  2  0  0  0
 14100  1  0  0  0
 15101  1  0  0  0
 16 17  2  0  0  0
 16 21  1  0  0  0
 16 31  1  0  0  0
 17 18  1  0  0  0
 17102  1  0  0  0
 18 19  2  0  0  0
 18103  1  0  0  0
 19 20  1  0  0  0
 19 24  1  0  0  0
 20 21  2  0  0  0
 20104  1  0  0  0
 21 23  1  0  0  0
 22 28  1  0  0  0
 22 32  2  0  0  0
 26 27  1  0  0  0
 28105  1  0  0  0
 28106  1  0  0  0
 29107  1  0  0  0
 29108  1  0  0  0
 33 34  1  0  0  0
 33 66  1  0  0  0
 33 70  2  0  0  0
 34 36  1  0  0  0
 34 59  1  0  0  0
 34109  1  0  0  0
 35 44  2  0  0  0
 35 45  1  0  0  0
 35 68  1  0  0  0
 36 56  1  0  0  0
 36110  1  0  0  0
 37 39  1  0  0  0
 37 47  1  0  0  0
 37 66  1  0  0  0
 37111  1  0  0  0
 38 43  2  0  0  0
 38 46  1  0  0  0
 38 47  1  0  0  0
 39 64  1  0  0  0
 39 67  2  0  0  0
 40 52  1  0  0  0
 40 53  2  0  0  0
 40 58  1  0  0  0
 41112  1  0  0  0
 41113  1  0  0  0
 41114  1  0  0  0
 41 48  1  0  0  0
 42 43  1  0  0  0
 42 66  1  0  0  0
 42115  1  0  0  0
 42116  1  0  0  0
 43 44  1  0  0  0
 44117  1  0  0  0
 45 46  2  0  0  0
 45118  1  0  0  0
 46119  1  0  0  0
 47120  1  0  0  0
 47121  1  0  0  0
 48 56  1  0  0  0
 48 65  1  0  0  0
 48122  1  0  0  0
 49 50  1  0  0  0
 49 53  1  0  0  0
 49 64  1  0  0  0
 49123  1  0  0  0
 50 51  1  0  0  0
 50124  1  0  0  0
 50125  1  0  0  0
 51 52  1  0  0  0
 51126  1  0  0  0
 51127  1  0  0  0
 52128  1  0  0  0
 52129  1  0  0  0
 53 54  1  0  0  0
 54 55  2  0  0  0
 54130  1  0  0  0
 55 57  1  0  0  0
 55131  1  0  0  0
 56 69  2  0  0  0
 57 58  2  0  0  0
 57132  1  0  0  0
 58133  1  0  0  0
 59 60  1  0  0  0
 59 61  1  0  0  0
 59 62  1  0  0  0
 60134  1  0  0  0
 60135  1  0  0  0
 60136  1  0  0  0
 61137  1  0  0  0
 61138  1  0  0  0
 61139  1  0  0  0
 62140  1  0  0  0
 62141  1  0  0  0
 62142  1  0  0  0
 63 65  1  0  0  0
 63143  1  0  0  0
 63144  1  0  0  0
 63145  1  0  0  0
 64146  1  0  0  0
 65147  1  0  0  0
 68 86  1  0  0  0
 71 72  2  0  0  0
 71 77  1  0  0  0
 71148  1  0  0  0
 72 78  1  0  0  0
 72149  1  0  0  0
 73 74  2  0  0  0
 73 81  1  0  0  0
 73150  1  0  0  0
 74 82  1  0  0  0
 74151  1  0  0  0
 75 77  2  0  0  0
 75 79  1  0  0  0
 75152  1  0  0  0
 76 80  1  0  0  0
 76 81  2  0  0  0
 76153  1  0  0  0
 77 86  1  0  0  0
 78 79  2  0  0  0
 78 85  1  0  0  0
 79 83  1  0  0  0
 80 82  2  0  0  0
 80 84  1  0  0  0
 81 87  1  0  0  0
 82 88  1  0  0  0
 83154  1  0  0  0
 83155  1  0  0  0
 83156  1  0  0  0
 84157  1  0  0  0
 84158  1  0  0  0
 84159  1  0  0  0
 85 88  1  0  0  0
 85160  1  0  0  0
 85161  1  0  0  0
 86162  1  0  0  0
 86163  1  0  0  0
 87164  1  0  0  0
 88165  1  0  0  0
M  ISO  4   1 100  68 101  86 101  87 100
M  END
> <chiral flag>
0

> <version>
0

> <s_m_source_file>
/data/baiqing/PycharmProjects/Reinvent-master-3.2/result/LINK_invent/BTK/process_docking_weight1_custom_sum_contain_oxygen_bond_distance_aromatic_linkinvent_7_9_3/rearranged_h_0137.sdf

> <i_m_source_file_index>
44

> <r_mmod_Potential_Energy-OPLS-2005>
-87.7631149291992

> <r_mmod_Stretch_Energy-OPLS-2005>
31.7417087554932

> <r_mmod_Bend_Energy-OPLS-2005>
98.2014465332031

> <r_mmod_Torsional_Energy-OPLS-2005>
241.032974243164

> <r_mmod_Improper_Torsional_Energy-OPLS-2005>
7.21169519424438

> <r_mmod_Van_der_Waal_Energy-OPLS-2005>
176.502197265625

> <r_mmod_Electrostatic_Energy-OPLS-2005>
-439.715545654297

> <r_mmod_Solvation_Energy-OPLS-2005>
-208.685882568359

> <b_mmod_Minimization_Converged-OPLS-2005>
0

> <r_mmod_RMS_Derivative-OPLS-2005>
2.43910527229309

$$$$
44
                    3D
 Structure written by MMmdl.
170179  0  0  1  0            999 V2000
  -30.5250  -14.9073   20.4376 C   0  0  0  0  0  0
  -30.4468  -12.5566   19.5000 C   0  0  0  0  0  0
  -29.5247  -12.5349   18.2576 C   0  0  0  0  0  0
  -28.0543  -12.3278   18.6674 C   0  0  0  0  0  0
  -27.6372  -13.2412   19.8490 C   0  0  2  0  0  0
  -28.6783  -13.2222   20.9899 C   0  0  0  0  0  0
  -25.2487  -13.8203   20.5697 C   0  0  0  0  0  0
  -24.1788  -13.0438   20.9208 C   0  0  0  0  0  0
  -24.6393  -11.6917   20.8738 C   0  0  0  0  0  0
  -23.9072  -10.4290   21.0399 C   0  0  0  0  0  0
  -24.3618   -9.4206   21.9179 C   0  0  0  0  0  0
  -23.6291   -8.2245   22.0754 C   0  0  0  0  0  0
  -22.4275   -8.0279   21.3544 C   0  0  0  0  0  0
  -21.9907   -9.0253   20.4647 C   0  0  0  0  0  0
  -22.7240  -10.2129   20.3053 C   0  0  0  0  0  0
  -21.6857   -6.0729   22.5274 C   0  0  0  0  0  0
  -21.4017   -6.5632   23.8205 C   0  0  0  0  0  0
  -21.3662   -5.6787   24.9169 C   0  0  0  0  0  0
  -21.6047   -4.3052   24.7223 C   0  0  0  0  0  0
  -21.8819   -3.8140   23.4347 C   0  0  0  0  0  0
  -21.9193   -4.6956   22.3400 C   0  0  0  0  0  0
  -22.7812  -13.5218   21.1867 C   0  0  0  0  0  0
  -22.1662   -4.2142   21.0980 F   0  0  0  0  0  0
  -21.5630   -3.4535   25.7736 F   0  0  0  0  0  0
  -29.9659  -13.6323   20.4114 N   0  0  0  0  0  0
  -26.2913  -12.9421   20.3259 N   0  0  0  0  0  0
  -25.9323  -11.6557   20.5730 N   0  0  0  0  0  0
  -22.0459  -12.8205   22.0422 N   0  0  0  0  0  0
  -25.4164  -15.1931   20.4124 N   0  0  0  0  0  0
  -31.7062  -15.0216   20.0859 O   0  0  0  0  0  0
  -21.6643   -6.8874   21.4236 O   0  0  0  0  0  0
  -22.3498  -14.5527   20.6720 O   0  0  0  0  0  0
  -24.6410  -31.8448   23.1898 C   0  0  0  0  0  0
  -25.9189  -32.4699   23.8279 C   0  0  1  0  0  0
  -27.2189  -27.1499   20.1464 C   0  0  0  0  0  0
  -25.5948  -33.8505   24.2197 N   0  0  0  0  0  0
  -23.4444  -30.4641   21.5344 C   0  0  2  0  0  0
  -24.8952  -28.8951   20.1068 C   0  0  0  0  0  0
  -22.7559  -29.4540   22.4861 C   0  0  0  0  0  0
  -18.0303  -28.1388   22.8476 C   0  0  0  0  0  0
  -24.1492  -36.7261   23.2641 C   0  0  0  0  0  0
  -25.9988  -30.7213   21.3889 C   0  0  0  0  0  0
  -26.0697  -29.3339   20.7302 C   0  0  0  0  0  0
  -27.2298  -28.4750   20.7381 C   0  0  0  0  0  0
  -26.0236  -26.8169   19.4693 C   0  0  0  0  0  0
  -24.8844  -27.6499   19.4613 C   0  0  0  0  0  0
  -23.6707  -29.7945   20.1526 C   0  0  0  0  0  0
  -25.4123  -36.3036   24.0314 C   0  0  1  0  0  0
  -20.5914  -28.3712   23.1240 C   0  0  2  0  0  0
  -20.6784  -26.9416   22.5404 C   0  0  0  0  0  0
  -19.5758  -26.6376   21.5208 C   0  0  0  0  0  0
  -18.1940  -26.7929   22.1620 C   0  0  0  0  0  0
  -19.1558  -28.8866   23.2852 C   0  0  0  0  0  0
  -18.9476  -30.1464   23.8876 C   0  0  0  0  0  0
  -17.6472  -30.6586   24.0556 C   0  0  0  0  0  0
  -25.9069  -34.9410   23.5064 C   0  0  0  0  0  0
  -16.5364  -29.9077   23.6334 C   0  0  0  0  0  0
  -16.7287  -28.6495   23.0355 C   0  0  0  0  0  0
  -26.4519  -31.6565   25.0717 C   0  0  0  0  0  0
  -25.3710  -31.3754   26.1417 C   0  0  0  0  0  0
  -27.0382  -30.2961   24.6293 C   0  0  0  0  0  0
  -27.6050  -32.4331   25.7503 C   0  0  0  0  0  0
  -27.5577  -37.1787   24.8464 C   0  0  0  0  0  0
  -21.4251  -29.3042   22.3615 N   0  0  0  0  0  0
  -26.4289  -37.3747   23.9404 N   0  0  0  0  0  0
  -24.7141  -31.0315   22.0928 N   0  0  0  0  0  0
  -23.4210  -28.8086   23.3004 O   0  0  0  0  0  0
  -28.2748  -26.1745   20.2434 O   0  0  0  0  0  0
  -26.5652  -34.8903   22.4643 O   0  0  0  0  0  0
  -23.5532  -32.1320   23.7124 O   0  0  0  0  0  0
  -29.3346  -19.5766   19.1414 C   0  0  0  0  0  0
  -29.6032  -18.1640   19.2965 C   0  0  0  0  0  0
  -29.1599  -20.5117   20.2209 C   0  0  0  0  0  0
  -29.3347  -19.8008   21.4717 C   0  0  0  0  0  0
  -29.7101  -17.5285   20.5661 C   0  0  0  0  0  0
  -29.7117  -20.1787   25.1914 C   0  0  0  0  0  0
  -30.3438  -20.3237   23.7992 C   0  0  0  0  0  0
  -28.2400  -20.5639   25.0276 C   0  0  0  0  0  0
  -29.1761  -20.5248   22.8103 C   0  0  2  0  0  0
  -27.8914  -20.1726   23.5854 C   0  0  2  0  0  0
  -26.6289  -20.8666   23.0320 C   0  0  0  0  0  0
  -28.8967  -23.3417   20.5491 C   0  0  0  0  0  0
  -25.3252  -20.4295   23.7286 C   0  0  0  0  0  0
  -28.0711  -24.6686   19.9230 C   0  0  0  0  0  0
  -29.5529  -18.4216   21.6040 N   0  0  0  0  0  0
  -28.7635  -21.9219   19.9140 N   0  0  0  0  0  0
  -29.6983  -16.0146   20.7416 N   0  0  0  0  0  0
  -24.1384  -21.0725   23.1385 N   0  3  0  0  0  0
  -31.4816  -12.7153   19.1927 H   0  0  0  0  0  0
  -30.4335  -11.5912   20.0082 H   0  0  0  0  0  0
  -29.8348  -11.7479   17.5688 H   0  0  0  0  0  0
  -29.6231  -13.4752   17.7129 H   0  0  0  0  0  0
  -27.9354  -11.2813   18.9511 H   0  0  0  0  0  0
  -27.3974  -12.4894   17.8122 H   0  0  0  0  0  0
  -27.6145  -14.2534   19.4444 H   0  0  0  0  0  0
  -28.7501  -12.2290   21.4358 H   0  0  0  0  0  0
  -28.3798  -13.8952   21.7951 H   0  0  0  0  0  0
  -25.2761   -9.5681   22.4756 H   0  0  0  0  0  0
  -23.9997   -7.4637   22.7476 H   0  0  0  0  0  0
  -21.0837   -8.8773   19.8956 H   0  0  0  0  0  0
  -22.3696  -10.9666   19.6168 H   0  0  0  0  0  0
  -21.2010   -7.6140   23.9705 H   0  0  0  0  0  0
  -21.1488   -6.0520   25.9071 H   0  0  0  0  0  0
  -22.0597   -2.7602   23.2850 H   0  0  0  0  0  0
  -22.4082  -11.9867   22.4804 H   0  0  0  0  0  0
  -21.1076  -13.1227   22.2633 H   0  0  0  0  0  0
  -24.6426  -15.8406   20.5126 H   0  0  0  0  0  0
  -26.2520  -15.6308   20.0472 H   0  0  0  0  0  0
  -26.7250  -32.5314   23.1005 H   0  0  0  0  0  0
  -25.0084  -33.9625   25.0335 H   0  0  0  0  0  0
  -22.7456  -31.2894   21.3809 H   0  0  0  0  0  0
  -23.3756  -35.9591   23.3294 H   0  0  0  0  0  0
  -24.3576  -36.8904   22.2057 H   0  0  0  0  0  0
  -23.7244  -37.6454   23.6683 H   0  0  0  0  0  0
  -26.1534  -31.4765   20.6172 H   0  0  0  0  0  0
  -26.8696  -30.7716   22.0309 H   0  0  0  0  0  0
  -28.1209  -28.8012   21.2561 H   0  0  0  0  0  0
  -25.9333  -25.8734   18.9534 H   0  0  0  0  0  0
  -23.9904  -27.3131   18.9544 H   0  0  0  0  0  0
  -23.8053  -30.5694   19.3970 H   0  0  0  0  0  0
  -22.7865  -29.2350   19.8425 H   0  0  0  0  0  0
  -25.1308  -36.1869   25.0805 H   0  0  0  0  0  0
  -21.0003  -28.3297   24.1362 H   0  0  0  0  0  0
  -20.5666  -26.2322   23.3621 H   0  0  0  0  0  0
  -21.6652  -26.7415   22.1206 H   0  0  0  0  0  0
  -19.6919  -25.6280   21.1252 H   0  0  0  0  0  0
  -19.6699  -27.3173   20.6727 H   0  0  0  0  0  0
  -17.4208  -26.6670   21.4027 H   0  0  0  0  0  0
  -18.0345  -26.0076   22.9021 H   0  0  0  0  0  0
  -19.7951  -30.7287   24.2237 H   0  0  0  0  0  0
  -17.5023  -31.6266   24.5158 H   0  0  0  0  0  0
  -15.5361  -30.2969   23.7667 H   0  0  0  0  0  0
  -15.8691  -28.0803   22.7081 H   0  0  0  0  0  0
  -24.5893  -30.7094   25.7745 H   0  0  0  0  0  0
  -24.8894  -32.2935   26.4790 H   0  0  0  0  0  0
  -25.7998  -30.8965   27.0228 H   0  0  0  0  0  0
  -26.2992  -29.6688   24.1292 H   0  0  0  0  0  0
  -27.3986  -29.7258   25.4864 H   0  0  0  0  0  0
  -27.8908  -30.4200   23.9612 H   0  0  0  0  0  0
  -27.2639  -33.3647   26.2032 H   0  0  0  0  0  0
  -28.3888  -32.6866   25.0351 H   0  0  0  0  0  0
  -28.0687  -31.8489   26.5463 H   0  0  0  0  0  0
  -28.2583  -38.0093   24.7504 H   0  0  0  0  0  0
  -28.1084  -36.2621   24.6295 H   0  0  0  0  0  0
  -27.2294  -37.1441   25.8866 H   0  0  0  0  0  0
  -20.9452  -29.8771   21.6815 H   0  0  0  0  0  0
  -26.0160  -38.2816   24.1405 H   0  0  0  0  0  0
  -29.2259  -19.9442   18.1315 H   0  0  0  0  0  0
  -29.6625  -17.5573   18.4044 H   0  0  0  0  0  0
  -30.2166  -20.7855   25.9444 H   0  0  0  0  0  0
  -29.7821  -19.1384   25.5136 H   0  0  0  0  0  0
  -30.9279  -19.4304   23.5766 H   0  0  0  0  0  0
  -31.0316  -21.1688   23.7523 H   0  0  0  0  0  0
  -28.1325  -21.6418   25.1624 H   0  0  0  0  0  0
  -27.6026  -20.0747   25.7656 H   0  0  0  0  0  0
  -29.1550  -21.5906   22.6162 H   0  0  0  0  0  0
  -27.7532  -19.0901   23.5569 H   0  0  0  0  0  0
  -26.5512  -20.6429   21.9669 H   0  0  0  0  0  0
  -26.7442  -21.9488   23.1052 H   0  0  0  0  0  0
  -28.6263  -23.2934   21.6016 H   0  0  0  0  0  0
  -29.9600  -23.5842   20.5336 H   0  0  0  0  0  0
  -25.3618  -20.6768   24.7902 H   0  0  0  0  0  0
  -25.2076  -19.3469   23.6620 H   0  0  0  0  0  0
  -27.0266  -24.4405   20.1317 H   0  0  0  0  0  0
  -28.1649  -24.6075   18.8384 H   0  0  0  0  0  0
  -28.4953  -22.0194   18.9360 H   0  0  0  0  0  0
  -28.8359  -15.6965   21.1533 H   0  0  0  0  0  0
  -24.1921  -22.0717   23.2236 H   0  0  0  0  0  0
  -23.3101  -20.7641   23.6164 H   0  0  0  0  0  0
  -24.0451  -20.8331   22.1675 H   0  0  0  0  0  0
  1 25  1  0  0  0
  1 30  2  0  0  0
  1 87  1  0  0  0
  2  3  1  0  0  0
  2 25  1  0  0  0
  2 89  1  0  0  0
  2 90  1  0  0  0
  3  4  1  0  0  0
  3 91  1  0  0  0
  3 92  1  0  0  0
  4  5  1  0  0  0
  4 93  1  0  0  0
  4 94  1  0  0  0
  5  6  1  0  0  0
  5 26  1  0  0  0
  5 95  1  0  0  0
  6 25  1  0  0  0
  6 96  1  0  0  0
  6 97  1  0  0  0
  7  8  2  0  0  0
  7 26  1  0  0  0
  7 29  1  0  0  0
  8  9  1  0  0  0
  8 22  1  0  0  0
  9 10  1  0  0  0
  9 27  2  0  0  0
 10 11  2  0  0  0
 10 15  1  0  0  0
 11 12  1  0  0  0
 11 98  1  0  0  0
 12 13  2  0  0  0
 12 99  1  0  0  0
 13 14  1  0  0  0
 13 31  1  0  0  0
 14 15  2  0  0  0
 14100  1  0  0  0
 15101  1  0  0  0
 16 17  2  0  0  0
 16 21  1  0  0  0
 16 31  1  0  0  0
 17 18  1  0  0  0
 17102  1  0  0  0
 18 19  2  0  0  0
 18103  1  0  0  0
 19 20  1  0  0  0
 19 24  1  0  0  0
 20 21  2  0  0  0
 20104  1  0  0  0
 21 23  1  0  0  0
 22 28  1  0  0  0
 22 32  2  0  0  0
 26 27  1  0  0  0
 28105  1  0  0  0
 28106  1  0  0  0
 29107  1  0  0  0
 29108  1  0  0  0
 33 34  1  0  0  0
 33 66  1  0  0  0
 33 70  2  0  0  0
 34 36  1  0  0  0
 34 59  1  0  0  0
 34109  1  0  0  0
 35 44  2  0  0  0
 35 45  1  0  0  0
 35 68  1  0  0  0
 36 56  1  0  0  0
 36110  1  0  0  0
 37 39  1  0  0  0
 37 47  1  0  0  0
 37 66  1  0  0  0
 37111  1  0  0  0
 38 43  2  0  0  0
 38 46  1  0  0  0
 38 47  1  0  0  0
 39 64  1  0  0  0
 39 67  2  0  0  0
 40 52  1  0  0  0
 40 53  2  0  0  0
 40 58  1  0  0  0
 41112  1  0  0  0
 41113  1  0  0  0
 41114  1  0  0  0
 41 48  1  0  0  0
 42 43  1  0  0  0
 42 66  1  0  0  0
 42115  1  0  0  0
 42116  1  0  0  0
 43 44  1  0  0  0
 44117  1  0  0  0
 45 46  2  0  0  0
 45118  1  0  0  0
 46119  1  0  0  0
 47120  1  0  0  0
 47121  1  0  0  0
 48 56  1  0  0  0
 48 65  1  0  0  0
 48122  1  0  0  0
 49 50  1  0  0  0
 49 53  1  0  0  0
 49 64  1  0  0  0
 49123  1  0  0  0
 50 51  1  0  0  0
 50124  1  0  0  0
 50125  1  0  0  0
 51 52  1  0  0  0
 51126  1  0  0  0
 51127  1  0  0  0
 52128  1  0  0  0
 52129  1  0  0  0
 53 54  1  0  0  0
 54 55  2  0  0  0
 54130  1  0  0  0
 55 57  1  0  0  0
 55131  1  0  0  0
 56 69  2  0  0  0
 57 58  2  0  0  0
 57132  1  0  0  0
 58133  1  0  0  0
 59 60  1  0  0  0
 59 61  1  0  0  0
 59 62  1  0  0  0
 60134  1  0  0  0
 60135  1  0  0  0
 60136  1  0  0  0
 61137  1  0  0  0
 61138  1  0  0  0
 61139  1  0  0  0
 62140  1  0  0  0
 62141  1  0  0  0
 62142  1  0  0  0
 63 65  1  0  0  0
 63143  1  0  0  0
 63144  1  0  0  0
 63145  1  0  0  0
 64146  1  0  0  0
 65147  1  0  0  0
 68 84  1  0  0  0
 71 72  2  0  0  0
 71 73  1  0  0  0
 71148  1  0  0  0
 72 75  1  0  0  0
 72149  1  0  0  0
 73 74  2  0  0  0
 73 86  1  0  0  0
 74 85  1  0  0  0
 74 79  1  0  0  0
 75 85  2  0  0  0
 75 87  1  0  0  0
 76 77  1  0  0  0
 76 78  1  0  0  0
 76150  1  0  0  0
 76151  1  0  0  0
 77 79  1  0  0  0
 77152  1  0  0  0
 77153  1  0  0  0
 78 80  1  0  0  0
 78154  1  0  0  0
 78155  1  0  0  0
 79 80  1  0  0  0
 79156  1  0  0  0
 80 81  1  0  0  0
 80157  1  0  0  0
 81 83  1  0  0  0
 81158  1  0  0  0
 81159  1  0  0  0
 82 84  1  0  0  0
 82 86  1  0  0  0
 82160  1  0  0  0
 82161  1  0  0  0
 83 88  1  0  0  0
 83162  1  0  0  0
 83163  1  0  0  0
 84164  1  0  0  0
 84165  1  0  0  0
 86166  1  0  0  0
 87167  1  0  0  0
 88168  1  0  0  0
 88169  1  0  0  0
 88170  1  0  0  0
M  CHG  1  88   1
M  ISO  4   1 100  68 101  84 101  87 100
M  END
> <chiral flag>
0

> <version>
0

> <s_m_source_file>
/data/baiqing/PycharmProjects/Reinvent-master-3.2/result/LINK_invent/BTK/process_docking_weight1_custom_sum_contain_oxygen_bond_distance_aromatic_linkinvent_7_9_3/rearranged_h_0137.sdf

> <i_m_source_file_index>
45

> <r_mmod_Potential_Energy-OPLS-2005>
220.335037231445

> <r_mmod_Stretch_Energy-OPLS-2005>
216.484329223633

> <r_mmod_Bend_Energy-OPLS-2005>
310.522186279297

> <r_mmod_Torsional_Energy-OPLS-2005>
279.814636230469

> <r_mmod_Improper_Torsional_Energy-OPLS-2005>
6.05645036697388

> <r_mmod_Van_der_Waal_Energy-OPLS-2005>
128.722503662109

> <r_mmod_Electrostatic_Energy-OPLS-2005>
-372.001922607422

> <r_mmod_Solvation_Energy-OPLS-2005>
-521.396789550781

> <b_mmod_Minimization_Converged-OPLS-2005>
0

> <r_mmod_RMS_Derivative-OPLS-2005>
0.809438645839691

$$$$
45
                    3D
 Structure written by MMmdl.
160169  0  0  1  0            999 V2000
  -30.7357  -14.4004   20.5867 C   0  0  0  0  0  0
  -30.4123  -12.2660   19.4160 C   0  0  0  0  0  0
  -29.4904  -12.4994   18.2032 C   0  0  0  0  0  0
  -28.0108  -12.3719   18.6140 C   0  0  0  0  0  0
  -27.6645  -13.2037   19.8783 C   0  0  2  0  0  0
  -28.7026  -12.9643   20.9989 C   0  0  0  0  0  0
  -25.2598  -13.8159   20.5675 C   0  0  0  0  0  0
  -24.1844  -13.0441   20.9174 C   0  0  0  0  0  0
  -24.6391  -11.6906   20.8734 C   0  0  0  0  0  0
  -23.9053  -10.4294   21.0404 C   0  0  0  0  0  0
  -24.3610   -9.4212   21.9182 C   0  0  0  0  0  0
  -23.6290   -8.2244   22.0753 C   0  0  0  0  0  0
  -22.4271   -8.0281   21.3544 C   0  0  0  0  0  0
  -21.9903   -9.0255   20.4646 C   0  0  0  0  0  0
  -22.7228  -10.2135   20.3054 C   0  0  0  0  0  0
  -21.6853   -6.0733   22.5278 C   0  0  0  0  0  0
  -21.4011   -6.5635   23.8213 C   0  0  0  0  0  0
  -21.3656   -5.6789   24.9176 C   0  0  0  0  0  0
  -21.6042   -4.3051   24.7225 C   0  0  0  0  0  0
  -21.8821   -3.8145   23.4347 C   0  0  0  0  0  0
  -21.9194   -4.6962   22.3402 C   0  0  0  0  0  0
  -22.7867  -13.5244   21.1836 C   0  0  0  0  0  0
  -22.1664   -4.2148   21.0980 F   0  0  0  0  0  0
  -21.5627   -3.4534   25.7737 F   0  0  0  0  0  0
  -30.0422  -13.2416   20.4516 N   0  0  0  0  0  0
  -26.3036  -12.9325   20.3373 N   0  0  0  0  0  0
  -25.9316  -11.6484   20.5762 N   0  0  0  0  0  0
  -22.0502  -12.8245   22.0394 N   0  0  0  0  0  0
  -25.4329  -15.1873   20.4064 N   0  0  0  0  0  0
  -31.8544  -14.5690   20.0916 O   0  0  0  0  0  0
  -21.6638   -6.8877   21.4240 O   0  0  0  0  0  0
  -22.3559  -14.5552   20.6684 O   0  0  0  0  0  0
  -24.6097  -31.8711   23.2136 C   0  0  0  0  0  0
  -25.9010  -32.4840   23.8416 C   0  0  1  0  0  0
  -27.2391  -27.4809   20.0778 C   0  0  0  0  0  0
  -25.5885  -33.8639   24.2349 N   0  0  0  0  0  0
  -23.3959  -30.4946   21.5524 C   0  0  2  0  0  0
  -24.8434  -28.9615   20.1181 C   0  0  0  0  0  0
  -22.7381  -29.4672   22.5005 C   0  0  0  0  0  0
  -18.0266  -28.1374   22.8491 C   0  0  0  0  0  0
  -24.1483  -36.7314   23.2638 C   0  0  0  0  0  0
  -25.9199  -30.8464   21.3627 C   0  0  0  0  0  0
  -25.9982  -29.4808   20.7166 C   0  0  0  0  0  0
  -27.1971  -28.7399   20.7084 C   0  0  0  0  0  0
  -26.0680  -26.9551   19.4928 C   0  0  0  0  0  0
  -24.8689  -27.6925   19.5116 C   0  0  0  0  0  0
  -23.6038  -29.8250   20.1668 C   0  0  0  0  0  0
  -25.4099  -36.3122   24.0345 C   0  0  1  0  0  0
  -20.5852  -28.3653   23.1335 C   0  0  2  0  0  0
  -20.6753  -26.9393   22.5429 C   0  0  0  0  0  0
  -19.5742  -26.6388   21.5212 C   0  0  0  0  0  0
  -18.1914  -26.7927   22.1613 C   0  0  0  0  0  0
  -19.1514  -28.8828   23.2914 C   0  0  0  0  0  0
  -18.9448  -30.1433   23.8926 C   0  0  0  0  0  0
  -17.6453  -30.6583   24.0569 C   0  0  0  0  0  0
  -25.9025  -34.9486   23.5143 C   0  0  0  0  0  0
  -16.5344  -29.9091   23.6323 C   0  0  0  0  0  0
  -16.7256  -28.6507   23.0344 C   0  0  0  0  0  0
  -26.4459  -31.6607   25.0724 C   0  0  0  0  0  0
  -25.3748  -31.3711   26.1494 C   0  0  0  0  0  0
  -27.0267  -30.3052   24.6064 C   0  0  0  0  0  0
  -27.6052  -32.4313   25.7469 C   0  0  0  0  0  0
  -27.5585  -37.1800   24.8458 C   0  0  0  0  0  0
  -21.4116  -29.3027   22.3743 N   0  0  0  0  0  0
  -26.4284  -37.3807   23.9425 N   0  0  0  0  0  0
  -24.6597  -31.0845   22.1019 N   0  0  0  0  0  0
  -23.4171  -28.8214   23.3034 O   0  0  0  0  0  0
  -28.4159  -26.7800   20.0441 O   0  0  0  0  0  0
  -26.5583  -34.8931   22.4702 O   0  0  0  0  0  0
  -23.5302  -32.1443   23.7558 O   0  0  0  0  0  0
  -31.7395  -18.6737   20.4448 C   0  0  0  0  0  0
  -29.3688  -18.8286   19.9209 C   0  0  0  0  0  0
  -31.5473  -17.3690   20.9334 C   0  0  0  0  0  0
  -29.1715  -17.5218   20.4092 C   0  0  0  0  0  0
  -30.6594  -19.3980   19.9023 C   0  0  0  0  0  0
  -30.2707  -16.7653   20.8647 C   0  0  0  0  0  0
  -31.6741  -21.8279   19.9299 C   0  0  0  0  0  0
  -30.8976  -20.7244   19.2547 C   0  0  2  0  0  0
  -30.1811  -21.9705   19.7162 C   0  0  2  0  0  0
  -29.6048  -22.9108   18.6773 C   0  0  0  0  0  0
  -28.9153  -25.2471   18.2342 C   0  0  0  0  0  0
  -29.0170  -26.6860   18.7534 C   0  0  0  0  0  0
  -30.0743  -15.3992   21.1926 N   0  0  0  0  0  0
  -29.5306  -24.2932   19.1829 N   0  3  0  0  0  0
  -31.4589  -12.3417   19.1157 H   0  0  0  0  0  0
  -30.2902  -11.2518   19.7997 H   0  0  0  0  0  0
  -29.7206  -11.7833   17.4131 H   0  0  0  0  0  0
  -29.6738  -13.4895   17.7826 H   0  0  0  0  0  0
  -27.8110  -11.3156   18.7994 H   0  0  0  0  0  0
  -27.3636  -12.6612   17.7852 H   0  0  0  0  0  0
  -27.7171  -14.2546   19.5928 H   0  0  0  0  0  0
  -28.6602  -11.9281   21.3373 H   0  0  0  0  0  0
  -28.4708  -13.5634   21.8803 H   0  0  0  0  0  0
  -25.2758   -9.5688   22.4750 H   0  0  0  0  0  0
  -24.0003   -7.4635   22.7470 H   0  0  0  0  0  0
  -21.0834   -8.8773   19.8954 H   0  0  0  0  0  0
  -22.3689  -10.9671   19.6159 H   0  0  0  0  0  0
  -21.2001   -7.6139   23.9714 H   0  0  0  0  0  0
  -21.1471   -6.0516   25.9078 H   0  0  0  0  0  0
  -22.0601   -2.7608   23.2847 H   0  0  0  0  0  0
  -22.4098  -11.9897   22.4782 H   0  0  0  0  0  0
  -21.1124  -13.1288   22.2593 H   0  0  0  0  0  0
  -24.6666  -15.8444   20.5052 H   0  0  0  0  0  0
  -26.2834  -15.6191   20.0695 H   0  0  0  0  0  0
  -26.7084  -32.5571   23.1190 H   0  0  0  0  0  0
  -25.0050  -33.9811   25.0504 H   0  0  0  0  0  0
  -22.6825  -31.3096   21.4145 H   0  0  0  0  0  0
  -23.3754  -35.9637   23.3292 H   0  0  0  0  0  0
  -24.3587  -36.8932   22.2054 H   0  0  0  0  0  0
  -23.7220  -37.6512   23.6650 H   0  0  0  0  0  0
  -26.0251  -31.6104   20.5911 H   0  0  0  0  0  0
  -26.8110  -30.9051   21.9756 H   0  0  0  0  0  0
  -28.0915  -29.1390   21.1664 H   0  0  0  0  0  0
  -26.0753  -25.9811   19.0263 H   0  0  0  0  0  0
  -23.9774  -27.2824   19.0573 H   0  0  0  0  0  0
  -23.7104  -30.5989   19.4058 H   0  0  0  0  0  0
  -22.7288  -29.2430   19.8722 H   0  0  0  0  0  0
  -25.1267  -36.1990   25.0837 H   0  0  0  0  0  0
  -20.9944  -28.3220   24.1456 H   0  0  0  0  0  0
  -20.5645  -26.2260   23.3611 H   0  0  0  0  0  0
  -21.6630  -26.7438   22.1236 H   0  0  0  0  0  0
  -19.6905  -25.6306   21.1222 H   0  0  0  0  0  0
  -19.6690  -27.3213   20.6752 H   0  0  0  0  0  0
  -17.4192  -26.6689   21.4005 H   0  0  0  0  0  0
  -18.0304  -26.0059   22.8998 H   0  0  0  0  0  0
  -19.7926  -30.7235   24.2316 H   0  0  0  0  0  0
  -17.5015  -31.6264   24.5171 H   0  0  0  0  0  0
  -15.5346  -30.3005   23.7633 H   0  0  0  0  0  0
  -15.8653  -28.0835   22.7048 H   0  0  0  0  0  0
  -24.5923  -30.7043   25.7857 H   0  0  0  0  0  0
  -24.8933  -32.2865   26.4942 H   0  0  0  0  0  0
  -25.8131  -30.8900   27.0246 H   0  0  0  0  0  0
  -26.2781  -29.6830   24.1143 H   0  0  0  0  0  0
  -27.4074  -29.7273   25.4496 H   0  0  0  0  0  0
  -27.8605  -30.4377   23.9166 H   0  0  0  0  0  0
  -27.2686  -33.3604   26.2081 H   0  0  0  0  0  0
  -28.3833  -32.6888   25.0271 H   0  0  0  0  0  0
  -28.0747  -31.8414   26.5351 H   0  0  0  0  0  0
  -28.2592  -38.0111   24.7542 H   0  0  0  0  0  0
  -28.1090  -36.2648   24.6223 H   0  0  0  0  0  0
  -27.2319  -37.1388   25.8864 H   0  0  0  0  0  0
  -20.9264  -29.8745   21.6969 H   0  0  0  0  0  0
  -26.0174  -38.2879   24.1460 H   0  0  0  0  0  0
  -32.7328  -19.1012   20.4474 H   0  0  0  0  0  0
  -28.5285  -19.3772   19.5185 H   0  0  0  0  0  0
  -32.3994  -16.8168   21.3052 H   0  0  0  0  0  0
  -28.1826  -17.0874   20.3702 H   0  0  0  0  0  0
  -32.3300  -22.4356   19.3091 H   0  0  0  0  0  0
  -32.0195  -21.6598   20.9483 H   0  0  0  0  0  0
  -31.0556  -20.5935   18.1851 H   0  0  0  0  0  0
  -29.5685  -21.8706   20.6108 H   0  0  0  0  0  0
  -28.6094  -22.5598   18.4016 H   0  0  0  0  0  0
  -30.2168  -22.8826   17.7744 H   0  0  0  0  0  0
  -29.4213  -25.1834   17.2698 H   0  0  0  0  0  0
  -27.8751  -24.9733   18.0609 H   0  0  0  0  0  0
  -28.5703  -27.3790   18.0367 H   0  0  0  0  0  0
  -30.0639  -26.9778   18.8433 H   0  0  0  0  0  0
  -29.1606  -15.1422   21.5335 H   0  0  0  0  0  0
  -30.4651  -24.6003   19.4039 H   0  0  0  0  0  0
  -29.0017  -24.3057   20.0420 H   0  0  0  0  0  0
  1 25  1  0  0  0
  1 30  2  0  0  0
  1 83  1  0  0  0
  2  3  1  0  0  0
  2 25  1  0  0  0
  2 85  1  0  0  0
  2 86  1  0  0  0
  3  4  1  0  0  0
  3 87  1  0  0  0
  3 88  1  0  0  0
  4  5  1  0  0  0
  4 89  1  0  0  0
  4 90  1  0  0  0
  5  6  1  0  0  0
  5 26  1  0  0  0
  5 91  1  0  0  0
  6 25  1  0  0  0
  6 92  1  0  0  0
  6 93  1  0  0  0
  7  8  2  0  0  0
  7 26  1  0  0  0
  7 29  1  0  0  0
  8  9  1  0  0  0
  8 22  1  0  0  0
  9 10  1  0  0  0
  9 27  2  0  0  0
 10 11  2  0  0  0
 10 15  1  0  0  0
 11 12  1  0  0  0
 11 94  1  0  0  0
 12 13  2  0  0  0
 12 95  1  0  0  0
 13 14  1  0  0  0
 13 31  1  0  0  0
 14 15  2  0  0  0
 14 96  1  0  0  0
 15 97  1  0  0  0
 16 17  2  0  0  0
 16 21  1  0  0  0
 16 31  1  0  0  0
 17 18  1  0  0  0
 17 98  1  0  0  0
 18 19  2  0  0  0
 18 99  1  0  0  0
 19 20  1  0  0  0
 19 24  1  0  0  0
 20 21  2  0  0  0
 20100  1  0  0  0
 21 23  1  0  0  0
 22 28  1  0  0  0
 22 32  2  0  0  0
 26 27  1  0  0  0
 28101  1  0  0  0
 28102  1  0  0  0
 29103  1  0  0  0
 29104  1  0  0  0
 33 34  1  0  0  0
 33 66  1  0  0  0
 33 70  2  0  0  0
 34 36  1  0  0  0
 34 59  1  0  0  0
 34105  1  0  0  0
 35 44  2  0  0  0
 35 45  1  0  0  0
 35 68  1  0  0  0
 36 56  1  0  0  0
 36106  1  0  0  0
 37 39  1  0  0  0
 37 47  1  0  0  0
 37 66  1  0  0  0
 37107  1  0  0  0
 38 43  2  0  0  0
 38 46  1  0  0  0
 38 47  1  0  0  0
 39 64  1  0  0  0
 39 67  2  0  0  0
 40 52  1  0  0  0
 40 53  2  0  0  0
 40 58  1  0  0  0
 41108  1  0  0  0
 41109  1  0  0  0
 41110  1  0  0  0
 41 48  1  0  0  0
 42 43  1  0  0  0
 42 66  1  0  0  0
 42111  1  0  0  0
 42112  1  0  0  0
 43 44  1  0  0  0
 44113  1  0  0  0
 45 46  2  0  0  0
 45114  1  0  0  0
 46115  1  0  0  0
 47116  1  0  0  0
 47117  1  0  0  0
 48 56  1  0  0  0
 48 65  1  0  0  0
 48118  1  0  0  0
 49 50  1  0  0  0
 49 53  1  0  0  0
 49 64  1  0  0  0
 49119  1  0  0  0
 50 51  1  0  0  0
 50120  1  0  0  0
 50121  1  0  0  0
 51 52  1  0  0  0
 51122  1  0  0  0
 51123  1  0  0  0
 52124  1  0  0  0
 52125  1  0  0  0
 53 54  1  0  0  0
 54 55  2  0  0  0
 54126  1  0  0  0
 55 57  1  0  0  0
 55127  1  0  0  0
 56 69  2  0  0  0
 57 58  2  0  0  0
 57128  1  0  0  0
 58129  1  0  0  0
 59 60  1  0  0  0
 59 61  1  0  0  0
 59 62  1  0  0  0
 60130  1  0  0  0
 60131  1  0  0  0
 60132  1  0  0  0
 61133  1  0  0  0
 61134  1  0  0  0
 61135  1  0  0  0
 62136  1  0  0  0
 62137  1  0  0  0
 62138  1  0  0  0
 63 65  1  0  0  0
 63139  1  0  0  0
 63140  1  0  0  0
 63141  1  0  0  0
 64142  1  0  0  0
 65143  1  0  0  0
 68 82  1  0  0  0
 71 73  2  0  0  0
 71 75  1  0  0  0
 71144  1  0  0  0
 72 74  1  0  0  0
 72 75  2  0  0  0
 72145  1  0  0  0
 73 76  1  0  0  0
 73146  1  0  0  0
 74 76  2  0  0  0
 74147  1  0  0  0
 75 78  1  0  0  0
 76 83  1  0  0  0
 77 78  1  0  0  0
 77 79  1  0  0  0
 77148  1  0  0  0
 77149  1  0  0  0
 78 79  1  0  0  0
 78150  1  0  0  0
 79 80  1  0  0  0
 79151  1  0  0  0
 80 84  1  0  0  0
 80152  1  0  0  0
 80153  1  0  0  0
 81 82  1  0  0  0
 81 84  1  0  0  0
 81154  1  0  0  0
 81155  1  0  0  0
 82156  1  0  0  0
 82157  1  0  0  0
 83158  1  0  0  0
 84159  1  0  0  0
 84160  1  0  0  0
M  CHG  1  84   1
M  ISO  4   1 100  68 101  82 101  83 100
M  END
> <chiral flag>
0

> <version>
0

> <s_m_source_file>
/data/baiqing/PycharmProjects/Reinvent-master-3.2/result/LINK_invent/BTK/process_docking_weight1_custom_sum_contain_oxygen_bond_distance_aromatic_linkinvent_7_9_3/rearranged_h_0137.sdf

> <i_m_source_file_index>
46

> <r_mmod_Potential_Energy-OPLS-2005>
-155.769165039062

> <r_mmod_Stretch_Energy-OPLS-2005>
30.2028179168701

> <r_mmod_Bend_Energy-OPLS-2005>
82.6674499511719

> <r_mmod_Torsional_Energy-OPLS-2005>
296.103271484375

> <r_mmod_Improper_Torsional_Energy-OPLS-2005>
5.09800624847412

> <r_mmod_Van_der_Waal_Energy-OPLS-2005>
149.095092773438

> <r_mmod_Electrostatic_Energy-OPLS-2005>
-283.749176025391

> <r_mmod_Solvation_Energy-OPLS-2005>
-444.251190185547

> <b_mmod_Minimization_Converged-OPLS-2005>
0

> <r_mmod_RMS_Derivative-OPLS-2005>
0.630528748035431

$$$$
46
                    3D
 Structure written by MMmdl.
167176  0  0  1  0            999 V2000
  -30.7976  -14.2978   20.7239 C   0  0  0  0  0  0
  -30.4092  -12.2721   19.3735 C   0  0  0  0  0  0
  -29.4742  -12.5400   18.1807 C   0  0  0  0  0  0
  -28.0001  -12.3958   18.6011 C   0  0  0  0  0  0
  -27.6682  -13.2018   19.8837 C   0  0  2  0  0  0
  -28.7053  -12.9146   20.9910 C   0  0  0  0  0  0
  -25.2604  -13.8160   20.5661 C   0  0  0  0  0  0
  -24.1847  -13.0440   20.9155 C   0  0  0  0  0  0
  -24.6397  -11.6908   20.8730 C   0  0  0  0  0  0
  -23.9060  -10.4295   21.0401 C   0  0  0  0  0  0
  -24.3615   -9.4207   21.9179 C   0  0  0  0  0  0
  -23.6290   -8.2242   22.0752 C   0  0  0  0  0  0
  -22.4272   -8.0282   21.3543 C   0  0  0  0  0  0
  -21.9909   -9.0254   20.4644 C   0  0  0  0  0  0
  -22.7236  -10.2134   20.3050 C   0  0  0  0  0  0
  -21.6852   -6.0735   22.5278 C   0  0  0  0  0  0
  -21.4014   -6.5639   23.8211 C   0  0  0  0  0  0
  -21.3660   -5.6793   24.9173 C   0  0  0  0  0  0
  -21.6043   -4.3056   24.7226 C   0  0  0  0  0  0
  -21.8818   -3.8147   23.4348 C   0  0  0  0  0  0
  -21.9193   -4.6962   22.3403 C   0  0  0  0  0  0
  -22.7870  -13.5239   21.1830 C   0  0  0  0  0  0
  -22.1660   -4.2149   21.0978 F   0  0  0  0  0  0
  -21.5632   -3.4539   25.7739 F   0  0  0  0  0  0
  -30.0552  -13.1925   20.4618 N   0  0  0  0  0  0
  -26.3054  -12.9332   20.3402 N   0  0  0  0  0  0
  -25.9325  -11.6487   20.5765 N   0  0  0  0  0  0
  -22.0518  -12.8227   22.0388 N   0  0  0  0  0  0
  -25.4318  -15.1874   20.4017 N   0  0  0  0  0  0
  -31.7708  -14.6369   20.0403 O   0  0  0  0  0  0
  -21.6638   -6.8882   21.4239 O   0  0  0  0  0  0
  -22.3549  -14.5546   20.6689 O   0  0  0  0  0  0
  -24.6102  -31.8708   23.2126 C   0  0  0  0  0  0
  -25.9010  -32.4831   23.8405 C   0  0  1  0  0  0
  -27.2372  -27.4758   20.0895 C   0  0  0  0  0  0
  -25.5899  -33.8632   24.2339 N   0  0  0  0  0  0
  -23.3952  -30.4929   21.5534 C   0  0  2  0  0  0
  -24.8411  -28.9633   20.1164 C   0  0  0  0  0  0
  -22.7384  -29.4663   22.5022 C   0  0  0  0  0  0
  -18.0260  -28.1369   22.8479 C   0  0  0  0  0  0
  -24.1489  -36.7311   23.2641 C   0  0  0  0  0  0
  -25.9190  -30.8494   21.3586 C   0  0  0  0  0  0
  -25.9983  -29.4882   20.7047 C   0  0  0  0  0  0
  -27.2009  -28.7525   20.6841 C   0  0  0  0  0  0
  -26.0636  -26.9548   19.4962 C   0  0  0  0  0  0
  -24.8666  -27.6940   19.5111 C   0  0  0  0  0  0
  -23.5992  -29.8229   20.1680 C   0  0  0  0  0  0
  -25.4114  -36.3118   24.0340 C   0  0  1  0  0  0
  -20.5848  -28.3641   23.1327 C   0  0  2  0  0  0
  -20.6753  -26.9385   22.5410 C   0  0  0  0  0  0
  -19.5738  -26.6380   21.5199 C   0  0  0  0  0  0
  -18.1910  -26.7911   22.1611 C   0  0  0  0  0  0
  -19.1509  -28.8821   23.2892 C   0  0  0  0  0  0
  -18.9449  -30.1431   23.8901 C   0  0  0  0  0  0
  -17.6456  -30.6576   24.0562 C   0  0  0  0  0  0
  -25.9035  -34.9481   23.5129 C   0  0  0  0  0  0
  -16.5343  -29.9081   23.6330 C   0  0  0  0  0  0
  -16.7254  -28.6501   23.0340 C   0  0  0  0  0  0
  -26.4461  -31.6608   25.0721 C   0  0  0  0  0  0
  -25.3745  -31.3718   26.1484 C   0  0  0  0  0  0
  -27.0291  -30.3058   24.6070 C   0  0  0  0  0  0
  -27.6037  -32.4328   25.7484 C   0  0  0  0  0  0
  -27.5584  -37.1815   24.8466 C   0  0  0  0  0  0
  -21.4120  -29.3018   22.3755 N   0  0  0  0  0  0
  -26.4304  -37.3791   23.9404 N   0  0  0  0  0  0
  -24.6590  -31.0843   22.1010 N   0  0  0  0  0  0
  -23.4171  -28.8203   23.3048 O   0  0  0  0  0  0
  -28.4233  -26.7841   20.1012 O   0  0  0  0  0  0
  -26.5586  -34.8930   22.4682 O   0  0  0  0  0  0
  -23.5309  -32.1436   23.7557 O   0  0  0  0  0  0
  -32.2254  -16.5250   22.4110 C   0  0  0  0  0  0
  -32.6057  -17.8226   22.7746 C   0  0  0  0  0  0
  -29.9002  -17.2531   22.4987 C   0  0  0  0  0  0
  -30.8554  -16.2313   22.2448 C   0  0  0  0  0  0
  -30.3970  -18.5371   22.8363 C   0  0  0  0  0  0
  -28.4175  -16.9744   22.4330 C   0  0  0  0  0  0
  -28.7991  -21.8375   23.2856 C   0  0  0  0  0  0
  -30.2964  -21.2016   21.3695 C   0  0  0  0  0  0
  -29.0939  -23.3178   22.9842 C   0  0  0  0  0  0
  -30.5801  -22.6928   21.1299 C   0  0  0  0  0  0
  -29.9595  -20.9273   22.8514 C   0  0  2  0  0  0
  -29.5406  -24.9445   21.1596 C   0  0  0  0  0  0
  -28.3263  -25.3842   20.3332 C   0  0  0  0  0  0
  -31.7158  -18.8133   22.9726 N   0  0  0  0  0  0
  -27.6681  -17.7633   21.6704 N   0  0  0  0  0  0
  -30.4526  -14.9286   21.8539 N   0  0  0  0  0  0
  -29.4199  -23.5153   21.5467 N   0  3  2  0  0  0
  -27.9329  -16.0074   23.0180 O   0  0  0  0  0  0
  -29.5128  -19.5815   23.0236 O   0  0  0  0  0  0
  -31.4523  -12.3686   19.0658 H   0  0  0  0  0  0
  -30.2991  -11.2420   19.7160 H   0  0  0  0  0  0
  -29.6977  -11.8539   17.3625 H   0  0  0  0  0  0
  -29.6498  -13.5454   17.7937 H   0  0  0  0  0  0
  -27.7987  -11.3367   18.7643 H   0  0  0  0  0  0
  -27.3467  -12.7054   17.7850 H   0  0  0  0  0  0
  -27.7353  -14.2602   19.6311 H   0  0  0  0  0  0
  -28.6539  -11.8656   21.2867 H   0  0  0  0  0  0
  -28.4498  -13.4764   21.8894 H   0  0  0  0  0  0
  -25.2764   -9.5681   22.4750 H   0  0  0  0  0  0
  -24.0003   -7.4633   22.7471 H   0  0  0  0  0  0
  -21.0843   -8.8771   19.8950 H   0  0  0  0  0  0
  -22.3699  -10.9670   19.6157 H   0  0  0  0  0  0
  -21.2004   -7.6148   23.9714 H   0  0  0  0  0  0
  -21.1484   -6.0524   25.9076 H   0  0  0  0  0  0
  -22.0599   -2.7610   23.2847 H   0  0  0  0  0  0
  -22.4137  -11.9876   22.4753 H   0  0  0  0  0  0
  -21.1135  -13.1249   22.2610 H   0  0  0  0  0  0
  -24.6658  -15.8446   20.4987 H   0  0  0  0  0  0
  -26.3002  -15.6196   20.1131 H   0  0  0  0  0  0
  -26.7092  -32.5558   23.1187 H   0  0  0  0  0  0
  -25.0085  -33.9801   25.0509 H   0  0  0  0  0  0
  -22.6819  -31.3080   21.4162 H   0  0  0  0  0  0
  -23.3751  -35.9643   23.3314 H   0  0  0  0  0  0
  -24.3595  -36.8911   22.2052 H   0  0  0  0  0  0
  -23.7240  -37.6523   23.6648 H   0  0  0  0  0  0
  -26.0271  -31.6198   20.5939 H   0  0  0  0  0  0
  -26.8069  -30.8994   21.9770 H   0  0  0  0  0  0
  -28.0970  -29.1556   21.1353 H   0  0  0  0  0  0
  -26.0662  -25.9874   19.0136 H   0  0  0  0  0  0
  -23.9757  -27.2848   19.0544 H   0  0  0  0  0  0
  -23.6987  -30.5951   19.4038 H   0  0  0  0  0  0
  -22.7249  -29.2356   19.8808 H   0  0  0  0  0  0
  -25.1286  -36.1995   25.0836 H   0  0  0  0  0  0
  -20.9932  -28.3206   24.1453 H   0  0  0  0  0  0
  -20.5666  -26.2247   23.3593 H   0  0  0  0  0  0
  -21.6623  -26.7442   22.1205 H   0  0  0  0  0  0
  -19.6912  -25.6299   21.1210 H   0  0  0  0  0  0
  -19.6693  -27.3209   20.6743 H   0  0  0  0  0  0
  -17.4187  -26.6662   21.4010 H   0  0  0  0  0  0
  -18.0312  -26.0055   22.9007 H   0  0  0  0  0  0
  -19.7936  -30.7225   24.2289 H   0  0  0  0  0  0
  -17.5022  -31.6266   24.5146 H   0  0  0  0  0  0
  -15.5344  -30.2980   23.7664 H   0  0  0  0  0  0
  -15.8653  -28.0828   22.7047 H   0  0  0  0  0  0
  -24.5888  -30.7095   25.7830 H   0  0  0  0  0  0
  -24.8974  -32.2883   26.4964 H   0  0  0  0  0  0
  -25.8102  -30.8861   27.0221 H   0  0  0  0  0  0
  -26.2823  -29.6831   24.1128 H   0  0  0  0  0  0
  -27.4080  -29.7290   25.4515 H   0  0  0  0  0  0
  -27.8648  -30.4386   23.9193 H   0  0  0  0  0  0
  -27.2642  -33.3609   26.2094 H   0  0  0  0  0  0
  -28.3828  -32.6917   25.0303 H   0  0  0  0  0  0
  -28.0721  -31.8436   26.5380 H   0  0  0  0  0  0
  -28.2597  -38.0111   24.7508 H   0  0  0  0  0  0
  -28.1077  -36.2644   24.6295 H   0  0  0  0  0  0
  -27.2296  -37.1460   25.8865 H   0  0  0  0  0  0
  -20.9283  -29.8732   21.6973 H   0  0  0  0  0  0
  -26.0198  -38.2874   24.1405 H   0  0  0  0  0  0
  -32.9862  -15.7714   22.2539 H   0  0  0  0  0  0
  -33.6482  -18.0758   22.9010 H   0  0  0  0  0  0
  -27.8826  -21.5368   22.7753 H   0  0  0  0  0  0
  -28.6086  -21.7089   24.3509 H   0  0  0  0  0  0
  -31.1632  -20.6222   21.0536 H   0  0  0  0  0  0
  -29.4692  -20.8803   20.7351 H   0  0  0  0  0  0
  -29.9240  -23.6662   23.6018 H   0  0  0  0  0  0
  -28.2272  -23.9224   23.2564 H   0  0  0  0  0  0
  -30.7880  -22.8528   20.0709 H   0  0  0  0  0  0
  -31.4728  -23.0026   21.6769 H   0  0  0  0  0  0
  -30.8217  -21.1410   23.4862 H   0  0  0  0  0  0
  -29.6284  -25.5725   22.0472 H   0  0  0  0  0  0
  -30.4481  -25.1236   20.5817 H   0  0  0  0  0  0
  -27.4176  -25.1331   20.8845 H   0  0  0  0  0  0
  -28.2909  -24.8584   19.3784 H   0  0  0  0  0  0
  -28.0706  -18.5343   21.1596 H   0  0  0  0  0  0
  -26.6737  -17.5972   21.6072 H   0  0  0  0  0  0
  -29.6219  -14.5660   22.2979 H   0  0  0  0  0  0
  -28.6307  -23.1579   21.0271 H   0  0  0  0  0  0
  1 25  1  0  0  0
  1 30  2  0  0  0
  1 86  1  0  0  0
  2  3  1  0  0  0
  2 25  1  0  0  0
  2 90  1  0  0  0
  2 91  1  0  0  0
  3  4  1  0  0  0
  3 92  1  0  0  0
  3 93  1  0  0  0
  4  5  1  0  0  0
  4 94  1  0  0  0
  4 95  1  0  0  0
  5  6  1  0  0  0
  5 26  1  0  0  0
  5 96  1  0  0  0
  6 25  1  0  0  0
  6 97  1  0  0  0
  6 98  1  0  0  0
  7  8  2  0  0  0
  7 26  1  0  0  0
  7 29  1  0  0  0
  8  9  1  0  0  0
  8 22  1  0  0  0
  9 10  1  0  0  0
  9 27  2  0  0  0
 10 11  2  0  0  0
 10 15  1  0  0  0
 11 12  1  0  0  0
 11 99  1  0  0  0
 12 13  2  0  0  0
 12100  1  0  0  0
 13 14  1  0  0  0
 13 31  1  0  0  0
 14 15  2  0  0  0
 14101  1  0  0  0
 15102  1  0  0  0
 16 17  2  0  0  0
 16 21  1  0  0  0
 16 31  1  0  0  0
 17 18  1  0  0  0
 17103  1  0  0  0
 18 19  2  0  0  0
 18104  1  0  0  0
 19 20  1  0  0  0
 19 24  1  0  0  0
 20 21  2  0  0  0
 20105  1  0  0  0
 21 23  1  0  0  0
 22 28  1  0  0  0
 22 32  2  0  0  0
 26 27  1  0  0  0
 28106  1  0  0  0
 28107  1  0  0  0
 29108  1  0  0  0
 29109  1  0  0  0
 33 34  1  0  0  0
 33 66  1  0  0  0
 33 70  2  0  0  0
 34 36  1  0  0  0
 34 59  1  0  0  0
 34110  1  0  0  0
 35 44  2  0  0  0
 35 45  1  0  0  0
 35 68  1  0  0  0
 36 56  1  0  0  0
 36111  1  0  0  0
 37 39  1  0  0  0
 37 47  1  0  0  0
 37 66  1  0  0  0
 37112  1  0  0  0
 38 43  2  0  0  0
 38 46  1  0  0  0
 38 47  1  0  0  0
 39 64  1  0  0  0
 39 67  2  0  0  0
 40 52  1  0  0  0
 40 53  2  0  0  0
 40 58  1  0  0  0
 41113  1  0  0  0
 41114  1  0  0  0
 41115  1  0  0  0
 41 48  1  0  0  0
 42 43  1  0  0  0
 42 66  1  0  0  0
 42116  1  0  0  0
 42117  1  0  0  0
 43 44  1  0  0  0
 44118  1  0  0  0
 45 46  2  0  0  0
 45119  1  0  0  0
 46120  1  0  0  0
 47121  1  0  0  0
 47122  1  0  0  0
 48 56  1  0  0  0
 48 65  1  0  0  0
 48123  1  0  0  0
 49 50  1  0  0  0
 49 53  1  0  0  0
 49 64  1  0  0  0
 49124  1  0  0  0
 50 51  1  0  0  0
 50125  1  0  0  0
 50126  1  0  0  0
 51 52  1  0  0  0
 51127  1  0  0  0
 51128  1  0  0  0
 52129  1  0  0  0
 52130  1  0  0  0
 53 54  1  0  0  0
 54 55  2  0  0  0
 54131  1  0  0  0
 55 57  1  0  0  0
 55132  1  0  0  0
 56 69  2  0  0  0
 57 58  2  0  0  0
 57133  1  0  0  0
 58134  1  0  0  0
 59 60  1  0  0  0
 59 61  1  0  0  0
 59 62  1  0  0  0
 60135  1  0  0  0
 60136  1  0  0  0
 60137  1  0  0  0
 61138  1  0  0  0
 61139  1  0  0  0
 61140  1  0  0  0
 62141  1  0  0  0
 62142  1  0  0  0
 62143  1  0  0  0
 63 65  1  0  0  0
 63144  1  0  0  0
 63145  1  0  0  0
 63146  1  0  0  0
 64147  1  0  0  0
 65148  1  0  0  0
 68 83  1  0  0  0
 71 72  2  0  0  0
 71 74  1  0  0  0
 71149  1  0  0  0
 72 84  1  0  0  0
 72150  1  0  0  0
 73 74  2  0  0  0
 73 75  1  0  0  0
 73 76  1  0  0  0
 74 86  1  0  0  0
 75 84  2  0  0  0
 75 89  1  0  0  0
 76 85  1  0  0  0
 76 88  2  0  0  0
 77 79  1  0  0  0
 77 81  1  0  0  0
 77151  1  0  0  0
 77152  1  0  0  0
 78 80  1  0  0  0
 78 81  1  0  0  0
 78153  1  0  0  0
 78154  1  0  0  0
 79 87  1  0  0  0
 79155  1  0  0  0
 79156  1  0  0  0
 80 87  1  0  0  0
 80157  1  0  0  0
 80158  1  0  0  0
 81 89  1  0  0  0
 81159  1  0  0  0
 82 83  1  0  0  0
 82160  1  0  0  0
 82161  1  0  0  0
 82 87  1  0  0  0
 83162  1  0  0  0
 83163  1  0  0  0
 85164  1  0  0  0
 85165  1  0  0  0
 86166  1  0  0  0
 87167  1  0  0  0
M  CHG  1  87   1
M  ISO  4   1 100  68 101  83 101  86 100
M  END
> <chiral flag>
0

> <version>
0

> <s_m_source_file>
/data/baiqing/PycharmProjects/Reinvent-master-3.2/result/LINK_invent/BTK/process_docking_weight1_custom_sum_contain_oxygen_bond_distance_aromatic_linkinvent_7_9_3/rearranged_h_0137.sdf

> <i_m_source_file_index>
47

> <r_mmod_Potential_Energy-OPLS-2005>
-228.322540283203

> <r_mmod_Stretch_Energy-OPLS-2005>
34.1972999572754

> <r_mmod_Bend_Energy-OPLS-2005>
98.3751449584961

> <r_mmod_Torsional_Energy-OPLS-2005>
274.345123291016

> <r_mmod_Improper_Torsional_Energy-OPLS-2005>
3.68946528434753

> <r_mmod_Van_der_Waal_Energy-OPLS-2005>
168.965530395508

> <r_mmod_Electrostatic_Energy-OPLS-2005>
-345.965362548828

> <r_mmod_Solvation_Energy-OPLS-2005>
-470.131561279297

> <b_mmod_Minimization_Converged-OPLS-2005>
0

> <r_mmod_RMS_Derivative-OPLS-2005>
1.49846613407135

$$$$
47
                    3D
 Structure written by MMmdl.
158166  0  0  1  0            999 V2000
  -31.1868  -14.8173   19.7503 C   0  0  0  0  0  0
  -31.0018  -12.3807   19.2756 C   0  0  0  0  0  0
  -30.1295  -12.5464   18.0827 C   0  0  0  0  0  0
  -28.8117  -13.0669   18.5493 C   0  0  0  0  0  0
  -28.4250  -14.1193   20.0263 C   0  0  2  0  0  0
  -29.6517  -13.4699   20.8393 C   0  0  0  0  0  0
  -24.5233  -14.4481   20.5689 C   0  0  0  0  0  0
  -23.6721  -13.3686   20.7140 C   0  0  0  0  0  0
  -24.3162  -12.1435   20.9254 C   0  0  0  0  0  0
  -23.8297  -10.6840   21.0805 C   0  0  0  0  0  0
  -24.3382   -9.6550   21.9370 C   0  0  0  0  0  0
  -23.6803   -8.3891   22.0772 C   0  0  0  0  0  0
  -22.4911   -8.1037   21.3568 C   0  0  0  0  0  0
  -22.0410   -9.0741   20.4467 C   0  0  0  0  0  0
  -22.7051  -10.3115   20.3020 C   0  0  0  0  0  0
  -21.7385   -6.1061   22.5237 C   0  0  0  0  0  0
  -21.4388   -6.5875   23.8175 C   0  0  0  0  0  0
  -21.3758   -5.6957   24.9091 C   0  0  0  0  0  0
  -21.6017   -4.3197   24.7132 C   0  0  0  0  0  0
  -21.8763   -3.8322   23.4240 C   0  0  0  0  0  0
  -21.9358   -4.7200   22.3341 C   0  0  0  0  0  0
  -22.2871  -13.6011   21.0586 C   0  0  0  0  0  0
  -22.1747   -4.2329   21.0925 F   0  0  0  0  0  0
  -21.5517   -3.4646   25.7624 F   0  0  0  0  0  0
  -30.7377  -13.5834   20.0339 N   0  0  0  0  0  0
  -25.7329  -14.1087   20.9662 N   0  0  0  0  0  0
  -25.1350  -12.8531   21.6646 N   0  0  0  0  0  0
  -21.7562  -12.8299   21.9995 N   0  0  0  0  0  0
  -24.3594  -15.7761   20.3305 N   0  0  0  0  0  0
  -32.2720  -15.0870   20.2045 O   0  0  0  0  0  0
  -21.7593   -6.9295   21.4198 O   0  0  0  0  0  0
  -21.7408  -14.5888   20.5999 O   0  0  0  0  0  0
  -24.7311  -31.7349   23.1150 C   0  0  0  0  0  0
  -25.9677  -32.4112   23.7832 C   0  0  1  0  0  0
  -26.8710  -26.0171   20.3300 C   0  0  0  0  0  0
  -25.6056  -33.7989   24.1639 N   0  0  0  0  0  0
  -23.5603  -30.3385   21.4839 C   0  0  2  0  0  0
  -24.9536  -28.5616   20.1117 C   0  0  0  0  0  0
  -22.7887  -29.4013   22.4553 C   0  0  0  0  0  0
  -18.0347  -28.1438   22.8430 C   0  0  0  0  0  0
  -24.1504  -36.7001   23.2666 C   0  0  0  0  0  0
  -26.1483  -30.2287   21.4807 C   0  0  0  0  0  0
  -26.1322  -28.7306   20.8397 C   0  0  0  0  0  0
  -27.0718  -27.4965   20.9057 C   0  0  0  0  0  0
  -25.7594  -26.2431   19.4671 C   0  0  0  0  0  0
  -24.8555  -27.3626   19.3851 C   0  0  0  0  0  0
  -23.8249  -29.6241   20.1216 C   0  0  0  0  0  0
  -25.4178  -36.2695   24.0237 C   0  0  1  0  0  0
  -20.5993  -28.3805   23.1062 C   0  0  2  0  0  0
  -20.6788  -26.9425   22.5413 C   0  0  0  0  0  0
  -19.5777  -26.6347   21.5218 C   0  0  0  0  0  0
  -18.1958  -26.7957   22.1605 C   0  0  0  0  0  0
  -19.1623  -28.8955   23.2719 C   0  0  0  0  0  0
  -18.9530  -30.1528   23.8784 C   0  0  0  0  0  0
  -17.6519  -30.6612   24.0542 C   0  0  0  0  0  0
  -25.9197  -34.9099   23.4813 C   0  0  0  0  0  0
  -16.5403  -29.9090   23.6361 C   0  0  0  0  0  0
  -16.7327  -28.6515   23.0373 C   0  0  0  0  0  0
  -26.4685  -31.6423   25.0702 C   0  0  0  0  0  0
  -25.3609  -31.3913   26.1218 C   0  0  0  0  0  0
  -27.0709  -30.2700   24.7060 C   0  0  0  0  0  0
  -27.6029  -32.4436   25.7521 C   0  0  0  0  0  0
  -27.5549  -37.1659   24.8466 C   0  0  0  0  0  0
  -21.4502  -29.2965   22.3315 N   0  0  0  0  0  0
  -26.4252  -37.3523   23.9404 N   0  0  0  0  0  0
  -24.8487  -30.8206   22.0742 N   0  0  0  0  0  0
  -23.4137  -28.7660   23.3078 O   0  0  0  0  0  0
  -27.4818  -24.4257   20.4733 O   0  0  0  0  0  0
  -26.5910  -34.8785   22.4482 O   0  0  0  0  0  0
  -23.6249  -32.0762   23.5770 O   0  0  0  0  0  0
  -27.0928  -12.3950   20.4129 C   0  0  0  0  0  0
  -26.4971  -13.5245   18.9549 C   0  0  0  0  0  0
  -27.5269  -15.2716   21.9076 C   0  0  0  0  0  0
  -27.5637  -13.3957   22.0170 C   0  0  0  0  0  0
  -26.7316  -15.3726   19.1222 C   0  0  0  0  0  0
  -27.1008  -16.3801   20.5423 C   0  0  0  0  0  0
  -27.9076  -12.6933   23.3177 C   0  0  0  0  0  0
  -27.6815  -15.9973   17.9968 C   0  0  0  0  0  0
  -29.3606  -15.8439   17.8703 C   0  0  0  0  0  0
  -27.3982  -20.1462   20.7433 C   0  0  0  0  0  0
  -27.0782  -22.3986   20.2964 C   0  0  0  0  0  0
  -27.0642  -18.2127   20.3607 N   0  0  0  0  0  0
  -30.5161  -15.7485   18.9258 N   0  0  0  0  0  0
  -32.0522  -12.3398   18.9816 H   0  0  0  0  0  0
  -30.7965  -11.4494   19.8065 H   0  0  0  0  0  0
  -30.0448  -11.6084   17.5281 H   0  0  0  0  0  0
  -30.6044  -13.2380   17.3870 H   0  0  0  0  0  0
  -28.3684  -12.0707   18.5613 H   0  0  0  0  0  0
  -28.4174  -13.4769   17.6202 H   0  0  0  0  0  0
  -28.8156  -15.0837   20.0602 H   0  0  0  0  0  0
  -29.5447  -12.4214   21.1283 H   0  0  0  0  0  0
  -29.9061  -14.0164   21.7546 H   0  0  0  0  0  0
  -25.2144   -9.8647   22.5346 H   0  0  0  0  0  0
  -24.0868   -7.6563   22.7599 H   0  0  0  0  0  0
  -21.1607   -8.8754   19.8515 H   0  0  0  0  0  0
  -22.2925  -11.0266   19.6042 H   0  0  0  0  0  0
  -21.2559   -7.6408   23.9738 H   0  0  0  0  0  0
  -21.1545   -6.0679   25.8989 H   0  0  0  0  0  0
  -22.0368   -2.7765   23.2687 H   0  0  0  0  0  0
  -22.2889  -12.0768   22.4092 H   0  0  0  0  0  0
  -20.8155  -13.0035   22.3233 H   0  0  0  0  0  0
  -25.0990  -16.4642   20.3989 H   0  0  0  0  0  0
  -23.4461  -16.1726   20.1428 H   0  0  0  0  0  0
  -26.7792  -32.4398   23.0546 H   0  0  0  0  0  0
  -25.0022  -33.8945   24.9674 H   0  0  0  0  0  0
  -22.9187  -31.1977   21.2765 H   0  0  0  0  0  0
  -23.3802  -35.9291   23.3225 H   0  0  0  0  0  0
  -24.3551  -36.8804   22.2101 H   0  0  0  0  0  0
  -23.7235  -37.6116   23.6860 H   0  0  0  0  0  0
  -26.4426  -30.9029   20.6753 H   0  0  0  0  0  0
  -26.9794  -30.2772   22.1690 H   0  0  0  0  0  0
  -27.9325  -27.6205   21.5475 H   0  0  0  0  0  0
  -25.4621  -25.3849   18.8812 H   0  0  0  0  0  0
  -23.9915  -27.2377   18.7466 H   0  0  0  0  0  0
  -24.0826  -30.3754   19.3742 H   0  0  0  0  0  0
  -22.9024  -29.1657   19.7619 H   0  0  0  0  0  0
  -25.1415  -36.1374   25.0723 H   0  0  0  0  0  0
  -21.0067  -28.3473   24.1193 H   0  0  0  0  0  0
  -20.5606  -26.2442   23.3712 H   0  0  0  0  0  0
  -21.6648  -26.7299   22.1262 H   0  0  0  0  0  0
  -19.6925  -25.6227   21.1322 H   0  0  0  0  0  0
  -19.6742  -27.3095   20.6700 H   0  0  0  0  0  0
  -17.4232  -26.6703   21.4004 H   0  0  0  0  0  0
  -18.0328  -26.0127   22.9024 H   0  0  0  0  0  0
  -19.8010  -30.7365   24.2108 H   0  0  0  0  0  0
  -17.5073  -31.6281   24.5167 H   0  0  0  0  0  0
  -15.5401  -30.2963   23.7752 H   0  0  0  0  0  0
  -15.8723  -28.0801   22.7154 H   0  0  0  0  0  0
  -24.5858  -30.7192   25.7517 H   0  0  0  0  0  0
  -24.8736  -32.3185   26.4244 H   0  0  0  0  0  0
  -25.7662  -30.9343   27.0255 H   0  0  0  0  0  0
  -26.3481  -29.6071   24.2301 H   0  0  0  0  0  0
  -27.4108  -29.7467   25.6008 H   0  0  0  0  0  0
  -27.9489  -30.3682   24.0677 H   0  0  0  0  0  0
  -27.2503  -33.3886   26.1667 H   0  0  0  0  0  0
  -28.4036  -32.6759   25.0487 H   0  0  0  0  0  0
  -28.0482  -31.8878   26.5782 H   0  0  0  0  0  0
  -28.2496  -38.0016   24.7518 H   0  0  0  0  0  0
  -28.1115  -36.2529   24.6292 H   0  0  0  0  0  0
  -27.2260  -37.1275   25.8866 H   0  0  0  0  0  0
  -20.9890  -29.8585   21.6296 H   0  0  0  0  0  0
  -26.0023  -38.2542   24.1428 H   0  0  0  0  0  0
  -27.0868  -11.3143   20.3710 H   0  0  0  0  0  0
  -26.2567  -13.0837   17.9961 H   0  0  0  0  0  0
  -27.7895  -15.7763   22.8263 H   0  0  0  0  0  0
  -28.2515  -11.6773   23.1245 H   0  0  0  0  0  0
  -27.0285  -12.6405   23.9596 H   0  0  0  0  0  0
  -28.6920  -13.2306   23.8505 H   0  0  0  0  0  0
  -27.4697  -17.0653   17.9937 H   0  0  0  0  0  0
  -27.2632  -15.6639   17.0470 H   0  0  0  0  0  0
  -29.6365  -16.7554   17.3395 H   0  0  0  0  0  0
  -29.5842  -15.1209   17.0920 H   0  0  0  0  0  0
  -27.2014  -20.1400   21.8158 H   0  0  0  0  0  0
  -28.4868  -20.1175   20.6898 H   0  0  0  0  0  0
  -26.0050  -22.4578   20.4776 H   0  0  0  0  0  0
  -27.1519  -22.3574   19.2097 H   0  0  0  0  0  0
  -26.6284  -18.3071   19.4455 H   0  0  0  0  0  0
  -31.0387  -16.6129   18.9387 H   0  0  0  0  0  0
  1 25  1  0  0  0
  1 30  2  0  0  0
  1 83  1  0  0  0
  2  3  1  0  0  0
  2 25  1  0  0  0
  2 84  1  0  0  0
  2 85  1  0  0  0
  3  4  1  0  0  0
  3 86  1  0  0  0
  3 87  1  0  0  0
  4  5  1  0  0  0
  4 88  1  0  0  0
  4 89  1  0  0  0
  5  6  1  0  0  0
  5 26  1  0  0  0
  5 90  1  0  0  0
  6 25  1  0  0  0
  6 91  1  0  0  0
  6 92  1  0  0  0
  7  8  2  0  0  0
  7 26  1  0  0  0
  7 29  1  0  0  0
  8  9  1  0  0  0
  8 22  1  0  0  0
  9 10  1  0  0  0
  9 27  2  0  0  0
 10 11  2  0  0  0
 10 15  1  0  0  0
 11 12  1  0  0  0
 11 93  1  0  0  0
 12 13  2  0  0  0
 12 94  1  0  0  0
 13 14  1  0  0  0
 13 31  1  0  0  0
 14 15  2  0  0  0
 14 95  1  0  0  0
 15 96  1  0  0  0
 16 17  2  0  0  0
 16 21  1  0  0  0
 16 31  1  0  0  0
 17 18  1  0  0  0
 17 97  1  0  0  0
 18 19  2  0  0  0
 18 98  1  0  0  0
 19 20  1  0  0  0
 19 24  1  0  0  0
 20 21  2  0  0  0
 20 99  1  0  0  0
 21 23  1  0  0  0
 22 28  1  0  0  0
 22 32  2  0  0  0
 26 27  1  0  0  0
 28100  1  0  0  0
 28101  1  0  0  0
 29102  1  0  0  0
 29103  1  0  0  0
 33 34  1  0  0  0
 33 66  1  0  0  0
 33 70  2  0  0  0
 34 36  1  0  0  0
 34 59  1  0  0  0
 34104  1  0  0  0
 35 44  2  0  0  0
 35 45  1  0  0  0
 35 68  1  0  0  0
 36 56  1  0  0  0
 36105  1  0  0  0
 37 39  1  0  0  0
 37 47  1  0  0  0
 37 66  1  0  0  0
 37106  1  0  0  0
 38 43  2  0  0  0
 38 46  1  0  0  0
 38 47  1  0  0  0
 39 64  1  0  0  0
 39 67  2  0  0  0
 40 52  1  0  0  0
 40 53  2  0  0  0
 40 58  1  0  0  0
 41107  1  0  0  0
 41108  1  0  0  0
 41109  1  0  0  0
 41 48  1  0  0  0
 42 43  1  0  0  0
 42 66  1  0  0  0
 42110  1  0  0  0
 42111  1  0  0  0
 43 44  1  0  0  0
 44112  1  0  0  0
 45 46  2  0  0  0
 45113  1  0  0  0
 46114  1  0  0  0
 47115  1  0  0  0
 47116  1  0  0  0
 48 56  1  0  0  0
 48 65  1  0  0  0
 48117  1  0  0  0
 49 50  1  0  0  0
 49 53  1  0  0  0
 49 64  1  0  0  0
 49118  1  0  0  0
 50 51  1  0  0  0
 50119  1  0  0  0
 50120  1  0  0  0
 51 52  1  0  0  0
 51121  1  0  0  0
 51122  1  0  0  0
 52123  1  0  0  0
 52124  1  0  0  0
 53 54  1  0  0  0
 54 55  2  0  0  0
 54125  1  0  0  0
 55 57  1  0  0  0
 55126  1  0  0  0
 56 69  2  0  0  0
 57 58  2  0  0  0
 57127  1  0  0  0
 58128  1  0  0  0
 59 60  1  0  0  0
 59 61  1  0  0  0
 59 62  1  0  0  0
 60129  1  0  0  0
 60130  1  0  0  0
 60131  1  0  0  0
 61132  1  0  0  0
 61133  1  0  0  0
 61134  1  0  0  0
 62135  1  0  0  0
 62136  1  0  0  0
 62137  1  0  0  0
 63 65  1  0  0  0
 63138  1  0  0  0
 63139  1  0  0  0
 63140  1  0  0  0
 64141  1  0  0  0
 65142  1  0  0  0
 68 81  1  0  0  0
 71 72  2  0  0  0
 71 74  1  0  0  0
 71143  1  0  0  0
 72 75  1  0  0  0
 72144  1  0  0  0
 73 74  2  0  0  0
 73 76  1  0  0  0
 73145  1  0  0  0
 74 77  1  0  0  0
 75 76  2  0  0  0
 75 78  1  0  0  0
 76 82  1  0  0  0
 77146  1  0  0  0
 77147  1  0  0  0
 77148  1  0  0  0
 78 79  1  0  0  0
 78149  1  0  0  0
 78150  1  0  0  0
 79 83  1  0  0  0
 79151  1  0  0  0
 79152  1  0  0  0
 80 81  1  0  0  0
 80 82  1  0  0  0
 80153  1  0  0  0
 80154  1  0  0  0
 81155  1  0  0  0
 81156  1  0  0  0
 82157  1  0  0  0
 83158  1  0  0  0
M  ISO  4   1 100  68 101  81 101  83 100
M  END
> <chiral flag>
0

> <version>
0

> <s_m_source_file>
/data/baiqing/PycharmProjects/Reinvent-master-3.2/result/LINK_invent/BTK/process_docking_weight1_custom_sum_contain_oxygen_bond_distance_aromatic_linkinvent_7_9_3/rearranged_h_0137.sdf

> <i_m_source_file_index>
48

> <r_mmod_Potential_Energy-OPLS-2005>
15406.1337890625

> <r_mmod_Stretch_Energy-OPLS-2005>
8233.859375

> <r_mmod_Bend_Energy-OPLS-2005>
1375.27062988281

> <r_mmod_Torsional_Energy-OPLS-2005>
553.90771484375

> <r_mmod_Improper_Torsional_Energy-OPLS-2005>
40.1245574951172

> <r_mmod_Van_der_Waal_Energy-OPLS-2005>
2865.89013671875

> <r_mmod_Electrostatic_Energy-OPLS-2005>
-380.378326416016

> <r_mmod_Solvation_Energy-OPLS-2005>
-226.180267333984

> <b_mmod_Minimization_Converged-OPLS-2005>
0

> <r_mmod_RMS_Derivative-OPLS-2005>
0.46014192700386

$$$$
48
                    3D
 Structure written by MMmdl.
159167  0  0  1  0            999 V2000
  -30.5358  -14.9720   20.4138 C   0  0  0  0  0  0
  -30.4418  -12.6069   19.4873 C   0  0  0  0  0  0
  -29.5164  -12.5304   18.2504 C   0  0  0  0  0  0
  -28.0505  -12.3170   18.6734 C   0  0  0  0  0  0
  -27.6266  -13.2515   19.8359 C   0  0  2  0  0  0
  -28.6742  -13.2979   20.9678 C   0  0  0  0  0  0
  -25.2457  -13.8242   20.5723 C   0  0  0  0  0  0
  -24.1782  -13.0442   20.9254 C   0  0  0  0  0  0
  -24.6404  -11.6931   20.8767 C   0  0  0  0  0  0
  -23.9099  -10.4291   21.0398 C   0  0  0  0  0  0
  -24.3648   -9.4203   21.9174 C   0  0  0  0  0  0
  -23.6314   -8.2241   22.0739 C   0  0  0  0  0  0
  -22.4294   -8.0279   21.3524 C   0  0  0  0  0  0
  -21.9941   -9.0263   20.4635 C   0  0  0  0  0  0
  -22.7276  -10.2141   20.3045 C   0  0  0  0  0  0
  -21.6868   -6.0745   22.5271 C   0  0  0  0  0  0
  -21.4022   -6.5641   23.8206 C   0  0  0  0  0  0
  -21.3666   -5.6784   24.9164 C   0  0  0  0  0  0
  -21.6050   -4.3048   24.7211 C   0  0  0  0  0  0
  -21.8828   -3.8148   23.4327 C   0  0  0  0  0  0
  -21.9197   -4.6969   22.3386 C   0  0  0  0  0  0
  -22.7799  -13.5194   21.1902 C   0  0  0  0  0  0
  -22.1660   -4.2158   21.0966 F   0  0  0  0  0  0
  -21.5632   -3.4531   25.7723 F   0  0  0  0  0  0
  -29.9427  -13.7109   20.3560 N   0  0  0  0  0  0
  -26.2888  -12.9470   20.3279 N   0  0  0  0  0  0
  -25.9340  -11.6595   20.5773 N   0  0  0  0  0  0
  -22.0472  -12.8150   22.0457 N   0  0  0  0  0  0
  -25.4099  -15.1958   20.4103 N   0  0  0  0  0  0
  -31.7511  -15.0291   20.1973 O   0  0  0  0  0  0
  -21.6641   -6.8888   21.4232 O   0  0  0  0  0  0
  -22.3460  -14.5485   20.6739 O   0  0  0  0  0  0
  -24.6450  -31.8413   23.1833 C   0  0  0  0  0  0
  -25.9211  -32.4682   23.8231 C   0  0  1  0  0  0
  -27.2213  -27.1129   20.1672 C   0  0  0  0  0  0
  -25.5954  -33.8488   24.2164 N   0  0  0  0  0  0
  -23.4508  -30.4571   21.5304 C   0  0  2  0  0  0
  -24.9035  -28.8796   20.1083 C   0  0  0  0  0  0
  -22.7580  -29.4520   22.4845 C   0  0  0  0  0  0
  -18.0301  -28.1413   22.8467 C   0  0  0  0  0  0
  -24.1498  -36.7250   23.2639 C   0  0  0  0  0  0
  -26.0071  -30.7103   21.3835 C   0  0  0  0  0  0
  -26.0798  -29.3172   20.7301 C   0  0  0  0  0  0
  -27.2393  -28.4515   20.7401 C   0  0  0  0  0  0
  -26.0198  -26.7797   19.5054 C   0  0  0  0  0  0
  -24.8898  -27.6274   19.4752 C   0  0  0  0  0  0
  -23.6793  -29.7834   20.1502 C   0  0  0  0  0  0
  -25.4129  -36.3024   24.0310 C   0  0  1  0  0  0
  -20.5916  -28.3733   23.1244 C   0  0  2  0  0  0
  -20.6798  -26.9433   22.5420 C   0  0  0  0  0  0
  -19.5768  -26.6388   21.5232 C   0  0  0  0  0  0
  -18.1945  -26.7948   22.1631 C   0  0  0  0  0  0
  -19.1560  -28.8893   23.2844 C   0  0  0  0  0  0
  -18.9466  -30.1496   23.8863 C   0  0  0  0  0  0
  -17.6456  -30.6601   24.0568 C   0  0  0  0  0  0
  -25.9082  -34.9401   23.5052 C   0  0  0  0  0  0
  -16.5351  -29.9092   23.6341 C   0  0  0  0  0  0
  -16.7284  -28.6526   23.0334 C   0  0  0  0  0  0
  -26.4525  -31.6541   25.0666 C   0  0  0  0  0  0
  -25.3690  -31.3721   26.1341 C   0  0  0  0  0  0
  -27.0399  -30.2940   24.6250 C   0  0  0  0  0  0
  -27.6060  -32.4295   25.7447 C   0  0  0  0  0  0
  -27.5584  -37.1783   24.8465 C   0  0  0  0  0  0
  -21.4266  -29.3041   22.3606 N   0  0  0  0  0  0
  -26.4295  -37.3739   23.9406 N   0  0  0  0  0  0
  -24.7209  -31.0247   22.0881 N   0  0  0  0  0  0
  -23.4210  -28.8067   23.3006 O   0  0  0  0  0  0
  -28.2726  -26.1207   20.2527 O   0  0  0  0  0  0
  -26.5671  -34.8912   22.4633 O   0  0  0  0  0  0
  -23.5569  -32.1290   23.7052 O   0  0  0  0  0  0
  -28.9695  -21.6773   19.9638 C   0  0  0  0  0  0
  -28.7492  -21.6961   18.4625 C   0  0  0  0  0  0
  -30.0377  -22.2194   17.7870 C   0  0  0  0  0  0
  -30.4564  -23.6240   18.2810 C   0  0  0  0  0  0
  -30.4574  -23.7402   19.8245 C   0  0  0  0  0  0
  -29.1059  -23.3025   20.4280 C   0  0  1  0  0  0
  -30.1737  -17.9077   22.2561 C   0  0  0  0  0  0
  -28.0310  -24.5791   20.0668 C   0  0  0  0  0  0
  -29.1783  -19.0042   20.0856 C   0  0  0  0  0  0
  -30.0695  -17.7048   20.7370 C   0  0  2  0  0  0
  -29.2509  -20.5105   20.6184 N   0  0  0  0  0  0
  -29.7490  -16.1614   20.5179 N   0  0  0  0  0  0
  -31.4686  -12.7818   19.1622 H   0  0  0  0  0  0
  -30.4540  -11.6591   20.0285 H   0  0  0  0  0  0
  -29.8349  -11.7290   17.5817 H   0  0  0  0  0  0
  -29.6005  -13.4564   17.6791 H   0  0  0  0  0  0
  -27.9423  -11.2757   18.9795 H   0  0  0  0  0  0
  -27.3863  -12.4524   17.8188 H   0  0  0  0  0  0
  -27.5837  -14.2503   19.3998 H   0  0  0  0  0  0
  -28.7700  -12.3321   21.4644 H   0  0  0  0  0  0
  -28.3746  -14.0143   21.7345 H   0  0  0  0  0  0
  -25.2796   -9.5680   22.4749 H   0  0  0  0  0  0
  -24.0036   -7.4628   22.7436 H   0  0  0  0  0  0
  -21.0890   -8.8788   19.8919 H   0  0  0  0  0  0
  -22.3740  -10.9690   19.6151 H   0  0  0  0  0  0
  -21.2008   -7.6151   23.9718 H   0  0  0  0  0  0
  -21.1486   -6.0508   25.9075 H   0  0  0  0  0  0
  -22.0604   -2.7614   23.2818 H   0  0  0  0  0  0
  -22.4126  -11.9825   22.4844 H   0  0  0  0  0  0
  -21.1073  -13.1109   22.2657 H   0  0  0  0  0  0
  -24.6376  -15.8449   20.5158 H   0  0  0  0  0  0
  -26.2423  -15.6366   20.0423 H   0  0  0  0  0  0
  -26.7271  -32.5298   23.0959 H   0  0  0  0  0  0
  -25.0088  -33.9589   25.0305 H   0  0  0  0  0  0
  -22.7548  -31.2832   21.3739 H   0  0  0  0  0  0
  -23.3774  -35.9575   23.3284 H   0  0  0  0  0  0
  -24.3586  -36.8901   22.2060 H   0  0  0  0  0  0
  -23.7252  -37.6438   23.6690 H   0  0  0  0  0  0
  -26.1588  -31.4592   20.6041 H   0  0  0  0  0  0
  -26.8791  -30.7700   22.0227 H   0  0  0  0  0  0
  -28.1331  -28.7820   21.2510 H   0  0  0  0  0  0
  -25.9230  -25.8160   19.0285 H   0  0  0  0  0  0
  -23.9960  -27.2866   18.9715 H   0  0  0  0  0  0
  -23.8138  -30.5580   19.3935 H   0  0  0  0  0  0
  -22.7959  -29.2221   19.8405 H   0  0  0  0  0  0
  -25.1327  -36.1846   25.0805 H   0  0  0  0  0  0
  -21.0003  -28.3337   24.1370 H   0  0  0  0  0  0
  -20.5729  -26.2332   23.3634 H   0  0  0  0  0  0
  -21.6657  -26.7462   22.1193 H   0  0  0  0  0  0
  -19.6930  -25.6290   21.1281 H   0  0  0  0  0  0
  -19.6726  -27.3187   20.6751 H   0  0  0  0  0  0
  -17.4220  -26.6683   21.4031 H   0  0  0  0  0  0
  -18.0340  -26.0112   22.9046 H   0  0  0  0  0  0
  -19.7934  -30.7337   24.2207 H   0  0  0  0  0  0
  -17.4998  -31.6273   24.5181 H   0  0  0  0  0  0
  -15.5348  -30.2975   23.7694 H   0  0  0  0  0  0
  -15.8684  -28.0856   22.7025 H   0  0  0  0  0  0
  -24.5896  -30.7056   25.7626 H   0  0  0  0  0  0
  -24.8841  -32.2893   26.4689 H   0  0  0  0  0  0
  -25.7942  -30.8923   27.0162 H   0  0  0  0  0  0
  -26.3017  -29.6640   24.1272 H   0  0  0  0  0  0
  -27.4038  -29.7261   25.4822 H   0  0  0  0  0  0
  -27.8910  -30.4184   23.9551 H   0  0  0  0  0  0
  -27.2683  -33.3640   26.1945 H   0  0  0  0  0  0
  -28.3908  -32.6775   25.0282 H   0  0  0  0  0  0
  -28.0685  -31.8450   26.5418 H   0  0  0  0  0  0
  -28.2581  -38.0096   24.7520 H   0  0  0  0  0  0
  -28.1099  -36.2625   24.6284 H   0  0  0  0  0  0
  -27.2295  -37.1418   25.8863 H   0  0  0  0  0  0
  -20.9478  -29.8732   21.6762 H   0  0  0  0  0  0
  -26.0161  -38.2810   24.1400 H   0  0  0  0  0  0
  -27.9056  -22.3455   18.2288 H   0  0  0  0  0  0
  -28.4755  -20.7160   18.0785 H   0  0  0  0  0  0
  -29.9102  -22.2402   16.7050 H   0  0  0  0  0  0
  -30.8500  -21.5152   17.9796 H   0  0  0  0  0  0
  -29.7863  -24.3742   17.8594 H   0  0  0  0  0  0
  -31.4461  -23.8636   17.8919 H   0  0  0  0  0  0
  -30.6859  -24.7658   20.1189 H   0  0  0  0  0  0
  -31.2604  -23.1273   20.2375 H   0  0  0  0  0  0
  -29.2135  -23.3032   21.5129 H   0  0  0  0  0  0
  -30.5858  -18.8886   22.4946 H   0  0  0  0  0  0
  -30.8205  -17.1625   22.7234 H   0  0  0  0  0  0
  -29.1922  -17.8387   22.7268 H   0  0  0  0  0  0
  -27.1050  -24.3526   20.5950 H   0  0  0  0  0  0
  -27.7704  -24.4728   19.0153 H   0  0  0  0  0  0
  -28.1288  -18.7087   20.1440 H   0  0  0  0  0  0
  -29.3904  -18.9868   19.0174 H   0  0  0  0  0  0
  -31.0805  -17.8214   20.3419 H   0  0  0  0  0  0
  -28.7628  -15.9573   20.5640 H   0  0  0  0  0  0
  1 25  1  0  0  0
  1 30  2  0  0  0
  1 82  1  0  0  0
  2  3  1  0  0  0
  2 25  1  0  0  0
  2 83  1  0  0  0
  2 84  1  0  0  0
  3  4  1  0  0  0
  3 85  1  0  0  0
  3 86  1  0  0  0
  4  5  1  0  0  0
  4 87  1  0  0  0
  4 88  1  0  0  0
  5  6  1  0  0  0
  5 26  1  0  0  0
  5 89  1  0  0  0
  6 25  1  0  0  0
  6 90  1  0  0  0
  6 91  1  0  0  0
  7  8  2  0  0  0
  7 26  1  0  0  0
  7 29  1  0  0  0
  8  9  1  0  0  0
  8 22  1  0  0  0
  9 10  1  0  0  0
  9 27  2  0  0  0
 10 11  2  0  0  0
 10 15  1  0  0  0
 11 12  1  0  0  0
 11 92  1  0  0  0
 12 13  2  0  0  0
 12 93  1  0  0  0
 13 14  1  0  0  0
 13 31  1  0  0  0
 14 15  2  0  0  0
 14 94  1  0  0  0
 15 95  1  0  0  0
 16 17  2  0  0  0
 16 21  1  0  0  0
 16 31  1  0  0  0
 17 18  1  0  0  0
 17 96  1  0  0  0
 18 19  2  0  0  0
 18 97  1  0  0  0
 19 20  1  0  0  0
 19 24  1  0  0  0
 20 21  2  0  0  0
 20 98  1  0  0  0
 21 23  1  0  0  0
 22 28  1  0  0  0
 22 32  2  0  0  0
 26 27  1  0  0  0
 28 99  1  0  0  0
 28100  1  0  0  0
 29101  1  0  0  0
 29102  1  0  0  0
 33 34  1  0  0  0
 33 66  1  0  0  0
 33 70  2  0  0  0
 34 36  1  0  0  0
 34 59  1  0  0  0
 34103  1  0  0  0
 35 44  2  0  0  0
 35 45  1  0  0  0
 35 68  1  0  0  0
 36 56  1  0  0  0
 36104  1  0  0  0
 37 39  1  0  0  0
 37 47  1  0  0  0
 37 66  1  0  0  0
 37105  1  0  0  0
 38 43  2  0  0  0
 38 46  1  0  0  0
 38 47  1  0  0  0
 39 64  1  0  0  0
 39 67  2  0  0  0
 40 52  1  0  0  0
 40 53  2  0  0  0
 40 58  1  0  0  0
 41106  1  0  0  0
 41107  1  0  0  0
 41108  1  0  0  0
 41 48  1  0  0  0
 42 43  1  0  0  0
 42 66  1  0  0  0
 42109  1  0  0  0
 42110  1  0  0  0
 43 44  1  0  0  0
 44111  1  0  0  0
 45 46  2  0  0  0
 45112  1  0  0  0
 46113  1  0  0  0
 47114  1  0  0  0
 47115  1  0  0  0
 48 56  1  0  0  0
 48 65  1  0  0  0
 48116  1  0  0  0
 49 50  1  0  0  0
 49 53  1  0  0  0
 49 64  1  0  0  0
 49117  1  0  0  0
 50 51  1  0  0  0
 50118  1  0  0  0
 50119  1  0  0  0
 51 52  1  0  0  0
 51120  1  0  0  0
 51121  1  0  0  0
 52122  1  0  0  0
 52123  1  0  0  0
 53 54  1  0  0  0
 54 55  2  0  0  0
 54124  1  0  0  0
 55 57  1  0  0  0
 55125  1  0  0  0
 56 69  2  0  0  0
 57 58  2  0  0  0
 57126  1  0  0  0
 58127  1  0  0  0
 59 60  1  0  0  0
 59 61  1  0  0  0
 59 62  1  0  0  0
 60128  1  0  0  0
 60129  1  0  0  0
 60130  1  0  0  0
 61131  1  0  0  0
 61132  1  0  0  0
 61133  1  0  0  0
 62134  1  0  0  0
 62135  1  0  0  0
 62136  1  0  0  0
 63 65  1  0  0  0
 63137  1  0  0  0
 63138  1  0  0  0
 63139  1  0  0  0
 64140  1  0  0  0
 65141  1  0  0  0
 68 78  1  0  0  0
 71 72  1  0  0  0
 71 76  1  0  0  0
 71 81  2  0  0  0
 72 73  1  0  0  0
 72142  1  0  0  0
 72143  1  0  0  0
 73 74  1  0  0  0
 73144  1  0  0  0
 73145  1  0  0  0
 74 75  1  0  0  0
 74146  1  0  0  0
 74147  1  0  0  0
 75 76  1  0  0  0
 75148  1  0  0  0
 75149  1  0  0  0
 76 78  1  0  0  0
 76150  1  0  0  0
 77151  1  0  0  0
 77152  1  0  0  0
 77153  1  0  0  0
 77 80  1  0  0  0
 78154  1  0  0  0
 78155  1  0  0  0
 79 80  1  0  0  0
 79 81  1  0  0  0
 79156  1  0  0  0
 79157  1  0  0  0
 80 82  1  0  0  0
 80158  1  0  0  0
 82159  1  0  0  0
M  ISO  4   1 100  68 101  78 101  82 100
M  END
> <chiral flag>
0

> <version>
0

> <s_m_source_file>
/data/baiqing/PycharmProjects/Reinvent-master-3.2/result/LINK_invent/BTK/process_docking_weight1_custom_sum_contain_oxygen_bond_distance_aromatic_linkinvent_7_9_3/rearranged_h_0137.sdf

> <i_m_source_file_index>
49

> <r_mmod_Potential_Energy-OPLS-2005>
591.013061523438

> <r_mmod_Stretch_Energy-OPLS-2005>
317.471527099609

> <r_mmod_Bend_Energy-OPLS-2005>
287.094665527344

> <r_mmod_Torsional_Energy-OPLS-2005>
239.743423461914

> <r_mmod_Improper_Torsional_Energy-OPLS-2005>
8.78527355194092

> <r_mmod_Van_der_Waal_Energy-OPLS-2005>
120.150421142578

> <r_mmod_Electrostatic_Energy-OPLS-2005>
-378.977508544922

> <r_mmod_Solvation_Energy-OPLS-2005>
-216.973403930664

> <b_mmod_Minimization_Converged-OPLS-2005>
0

> <r_mmod_RMS_Derivative-OPLS-2005>
2.37337231636047

$$$$
49
                    3D
 Structure written by MMmdl.
158167  0  0  1  0            999 V2000
  -30.6271  -14.6861   20.4873 C   0  0  0  0  0  0
  -30.4326  -12.4251   19.4538 C   0  0  0  0  0  0
  -29.5039  -12.5007   18.2227 C   0  0  0  0  0  0
  -28.0293  -12.3336   18.6399 C   0  0  0  0  0  0
  -27.6445  -13.2243   19.8515 C   0  0  2  0  0  0
  -28.6910  -13.1275   20.9821 C   0  0  0  0  0  0
  -25.2526  -13.8185   20.5687 C   0  0  0  0  0  0
  -24.1809  -13.0438   20.9201 C   0  0  0  0  0  0
  -24.6391  -11.6914   20.8746 C   0  0  0  0  0  0
  -23.9066  -10.4291   21.0407 C   0  0  0  0  0  0
  -24.3618   -9.4206   21.9185 C   0  0  0  0  0  0
  -23.6293   -8.2241   22.0755 C   0  0  0  0  0  0
  -22.4276   -8.0279   21.3544 C   0  0  0  0  0  0
  -21.9911   -9.0252   20.4645 C   0  0  0  0  0  0
  -22.7238  -10.2132   20.3054 C   0  0  0  0  0  0
  -21.6854   -6.0734   22.5277 C   0  0  0  0  0  0
  -21.4014   -6.5639   23.8209 C   0  0  0  0  0  0
  -21.3660   -5.6792   24.9172 C   0  0  0  0  0  0
  -21.6044   -4.3054   24.7224 C   0  0  0  0  0  0
  -21.8821   -3.8146   23.4345 C   0  0  0  0  0  0
  -21.9193   -4.6961   22.3400 C   0  0  0  0  0  0
  -22.7832  -13.5223   21.1864 C   0  0  0  0  0  0
  -22.1662   -4.2147   21.0978 F   0  0  0  0  0  0
  -21.5630   -3.4539   25.7738 F   0  0  0  0  0  0
  -29.9941  -13.4719   20.4000 N   0  0  0  0  0  0
  -26.2950  -12.9379   20.3285 N   0  0  0  0  0  0
  -25.9318  -11.6529   20.5753 N   0  0  0  0  0  0
  -22.0481  -12.8209   22.0419 N   0  0  0  0  0  0
  -25.4223  -15.1907   20.4101 N   0  0  0  0  0  0
  -31.8138  -14.8025   20.1740 O   0  0  0  0  0  0
  -21.6639   -6.8876   21.4239 O   0  0  0  0  0  0
  -22.3514  -14.5529   20.6711 O   0  0  0  0  0  0
  -24.6275  -31.8575   23.2002 C   0  0  0  0  0  0
  -25.9111  -32.4770   23.8339 C   0  0  1  0  0  0
  -27.2253  -27.3046   20.1287 C   0  0  0  0  0  0
  -25.5920  -33.8569   24.2269 N   0  0  0  0  0  0
  -23.4234  -30.4793   21.5423 C   0  0  2  0  0  0
  -24.8731  -28.9261   20.1153 C   0  0  0  0  0  0
  -22.7483  -29.4613   22.4927 C   0  0  0  0  0  0
  -18.0287  -28.1390   22.8487 C   0  0  0  0  0  0
  -24.1486  -36.7285   23.2641 C   0  0  0  0  0  0
  -25.9649  -30.7842   21.3728 C   0  0  0  0  0  0
  -26.0418  -29.4073   20.7210 C   0  0  0  0  0  0
  -27.2256  -28.6076   20.7184 C   0  0  0  0  0  0
  -26.0387  -26.8714   19.5074 C   0  0  0  0  0  0
  -24.8728  -27.6629   19.5001 C   0  0  0  0  0  0
  -23.6412  -29.8089   20.1599 C   0  0  0  0  0  0
  -25.4113  -36.3077   24.0329 C   0  0  1  0  0  0
  -20.5888  -28.3692   23.1278 C   0  0  2  0  0  0
  -20.6777  -26.9412   22.5410 C   0  0  0  0  0  0
  -19.5751  -26.6385   21.5214 C   0  0  0  0  0  0
  -18.1931  -26.7934   22.1624 C   0  0  0  0  0  0
  -19.1541  -28.8858   23.2880 C   0  0  0  0  0  0
  -18.9465  -30.1462   23.8896 C   0  0  0  0  0  0
  -17.6465  -30.6592   24.0564 C   0  0  0  0  0  0
  -25.9047  -34.9445   23.5101 C   0  0  0  0  0  0
  -16.5354  -29.9091   23.6332 C   0  0  0  0  0  0
  -16.7274  -28.6508   23.0354 C   0  0  0  0  0  0
  -26.4496  -31.6587   25.0714 C   0  0  0  0  0  0
  -25.3730  -31.3723   26.1442 C   0  0  0  0  0  0
  -27.0344  -30.3012   24.6169 C   0  0  0  0  0  0
  -27.6054  -32.4324   25.7488 C   0  0  0  0  0  0
  -27.5576  -37.1801   24.8468 C   0  0  0  0  0  0
  -21.4194  -29.3044   22.3671 N   0  0  0  0  0  0
  -26.4289  -37.3775   23.9411 N   0  0  0  0  0  0
  -24.6909  -31.0573   22.0957 N   0  0  0  0  0  0
  -23.4197  -28.8155   23.3017 O   0  0  0  0  0  0
  -28.3148  -26.4224   20.1155 O   0  0  0  0  0  0
  -26.5619  -34.8917   22.4669 O   0  0  0  0  0  0
  -23.5432  -32.1371   23.7322 O   0  0  0  0  0  0
  -29.5991  -23.1469   20.2580 C   0  0  0  0  0  0
  -29.7638  -21.7155   20.2502 C   0  0  0  0  0  0
  -27.4123  -22.8831   21.1857 C   0  0  0  0  0  0
  -27.5747  -21.4636   21.2124 C   0  0  0  0  0  0
  -28.4209  -23.7810   20.7521 C   0  0  0  0  0  0
  -28.7696  -20.8291   20.7641 C   0  0  0  0  0  0
  -25.7261  -21.0023   23.0288 C   0  0  0  0  0  0
  -26.6170  -19.7847   22.9961 C   0  0  0  0  0  0
  -26.4486  -20.6281   21.7522 C   0  0  0  0  0  0
  -28.2817  -25.3257   21.1059 C   0  0  0  0  0  0
  -30.2989  -17.2214   21.0437 C   0  0  0  0  0  0
  -29.7320  -18.4852   20.2229 C   0  0  0  0  0  0
  -29.8583  -15.7973   20.7524 N   0  0  0  0  0  0
  -28.8791  -19.4250   20.9647 O   0  0  0  0  0  0
  -31.4724  -12.5530   19.1482 H   0  0  0  0  0  0
  -30.3759  -11.4416   19.9230 H   0  0  0  0  0  0
  -29.7756  -11.7329   17.4970 H   0  0  0  0  0  0
  -29.6366  -13.4593   17.7186 H   0  0  0  0  0  0
  -27.8773  -11.2837   18.8927 H   0  0  0  0  0  0
  -27.3711  -12.5405   17.7951 H   0  0  0  0  0  0
  -27.6477  -14.2508   19.4847 H   0  0  0  0  0  0
  -28.7177  -12.1213   21.4028 H   0  0  0  0  0  0
  -28.4355  -13.7957   21.8060 H   0  0  0  0  0  0
  -25.2764   -9.5682   22.4758 H   0  0  0  0  0  0
  -24.0002   -7.4633   22.7474 H   0  0  0  0  0  0
  -21.0843   -8.8768   19.8951 H   0  0  0  0  0  0
  -22.3696  -10.9669   19.6162 H   0  0  0  0  0  0
  -21.2005   -7.6148   23.9711 H   0  0  0  0  0  0
  -21.1482   -6.0524   25.9074 H   0  0  0  0  0  0
  -22.0600   -2.7608   23.2845 H   0  0  0  0  0  0
  -22.4105  -11.9866   22.4794 H   0  0  0  0  0  0
  -21.1099  -13.1228   22.2633 H   0  0  0  0  0  0
  -24.6547  -15.8440   20.5208 H   0  0  0  0  0  0
  -26.2675  -15.6308   20.0699 H   0  0  0  0  0  0
  -26.7178  -32.5442   23.1087 H   0  0  0  0  0  0
  -25.0083  -33.9713   25.0425 H   0  0  0  0  0  0
  -22.7185  -31.3004   21.3954 H   0  0  0  0  0  0
  -23.3748  -35.9617   23.3308 H   0  0  0  0  0  0
  -24.3576  -36.8899   22.2055 H   0  0  0  0  0  0
  -23.7236  -37.6487   23.6660 H   0  0  0  0  0  0
  -26.0949  -31.5436   20.6007 H   0  0  0  0  0  0
  -26.8459  -30.8383   22.0008 H   0  0  0  0  0  0
  -28.1252  -28.9732   21.1933 H   0  0  0  0  0  0
  -26.0110  -25.8970   19.0398 H   0  0  0  0  0  0
  -23.9762  -27.2867   19.0269 H   0  0  0  0  0  0
  -23.7631  -30.5825   19.4010 H   0  0  0  0  0  0
  -22.7615  -29.2385   19.8570 H   0  0  0  0  0  0
  -25.1297  -36.1927   25.0822 H   0  0  0  0  0  0
  -20.9985  -28.3268   24.1396 H   0  0  0  0  0  0
  -20.5683  -26.2301   23.3611 H   0  0  0  0  0  0
  -21.6646  -26.7445   22.1201 H   0  0  0  0  0  0
  -19.6912  -25.6296   21.1243 H   0  0  0  0  0  0
  -19.6691  -27.3200   20.6748 H   0  0  0  0  0  0
  -17.4204  -26.6683   21.4025 H   0  0  0  0  0  0
  -18.0326  -26.0081   22.9022 H   0  0  0  0  0  0
  -19.7943  -30.7279   24.2263 H   0  0  0  0  0  0
  -17.5020  -31.6272   24.5166 H   0  0  0  0  0  0
  -15.5356  -30.2994   23.7662 H   0  0  0  0  0  0
  -15.8672  -28.0829   22.7070 H   0  0  0  0  0  0
  -24.5914  -30.7061   25.7774 H   0  0  0  0  0  0
  -24.8913  -32.2888   26.4857 H   0  0  0  0  0  0
  -25.8058  -30.8912   27.0223 H   0  0  0  0  0  0
  -26.2919  -29.6760   24.1196 H   0  0  0  0  0  0
  -27.4054  -29.7269   25.4669 H   0  0  0  0  0  0
  -27.8782  -30.4305   23.9385 H   0  0  0  0  0  0
  -27.2663  -33.3630   26.2052 H   0  0  0  0  0  0
  -28.3873  -32.6874   25.0322 H   0  0  0  0  0  0
  -28.0711  -31.8455   26.5416 H   0  0  0  0  0  0
  -28.2601  -38.0090   24.7510 H   0  0  0  0  0  0
  -28.1062  -36.2622   24.6303 H   0  0  0  0  0  0
  -27.2292  -37.1460   25.8871 H   0  0  0  0  0  0
  -20.9374  -29.8759   21.6875 H   0  0  0  0  0  0
  -26.0165  -38.2848   24.1415 H   0  0  0  0  0  0
  -30.4263  -23.7658   19.9397 H   0  0  0  0  0  0
  -30.7050  -21.3128   19.9054 H   0  0  0  0  0  0
  -26.4987  -23.2988   21.5871 H   0  0  0  0  0  0
  -26.0842  -21.8584   23.5976 H   0  0  0  0  0  0
  -24.6537  -20.8242   23.0779 H   0  0  0  0  0  0
  -26.1273  -18.8132   23.0178 H   0  0  0  0  0  0
  -27.5666  -19.8429   23.5245 H   0  0  0  0  0  0
  -25.8549  -20.2114   20.9403 H   0  0  0  0  0  0
  -29.0986  -25.5385   21.7962 H   0  0  0  0  0  0
  -27.3851  -25.4360   21.7190 H   0  0  0  0  0  0
  -30.1100  -17.4000   22.1025 H   0  0  0  0  0  0
  -31.3866  -17.2514   20.9617 H   0  0  0  0  0  0
  -29.1764  -18.1349   19.3526 H   0  0  0  0  0  0
  -30.5826  -19.0351   19.8211 H   0  0  0  0  0  0
  -28.8786  -15.6087   20.9031 H   0  0  0  0  0  0
  1 25  1  0  0  0
  1 30  2  0  0  0
  1 83  1  0  0  0
  2  3  1  0  0  0
  2 25  1  0  0  0
  2 85  1  0  0  0
  2 86  1  0  0  0
  3  4  1  0  0  0
  3 87  1  0  0  0
  3 88  1  0  0  0
  4  5  1  0  0  0
  4 89  1  0  0  0
  4 90  1  0  0  0
  5  6  1  0  0  0
  5 26  1  0  0  0
  5 91  1  0  0  0
  6 25  1  0  0  0
  6 92  1  0  0  0
  6 93  1  0  0  0
  7  8  2  0  0  0
  7 26  1  0  0  0
  7 29  1  0  0  0
  8  9  1  0  0  0
  8 22  1  0  0  0
  9 10  1  0  0  0
  9 27  2  0  0  0
 10 11  2  0  0  0
 10 15  1  0  0  0
 11 12  1  0  0  0
 11 94  1  0  0  0
 12 13  2  0  0  0
 12 95  1  0  0  0
 13 14  1  0  0  0
 13 31  1  0  0  0
 14 15  2  0  0  0
 14 96  1  0  0  0
 15 97  1  0  0  0
 16 17  2  0  0  0
 16 21  1  0  0  0
 16 31  1  0  0  0
 17 18  1  0  0  0
 17 98  1  0  0  0
 18 19  2  0  0  0
 18 99  1  0  0  0
 19 20  1  0  0  0
 19 24  1  0  0  0
 20 21  2  0  0  0
 20100  1  0  0  0
 21 23  1  0  0  0
 22 28  1  0  0  0
 22 32  2  0  0  0
 26 27  1  0  0  0
 28101  1  0  0  0
 28102  1  0  0  0
 29103  1  0  0  0
 29104  1  0  0  0
 33 34  1  0  0  0
 33 66  1  0  0  0
 33 70  2  0  0  0
 34 36  1  0  0  0
 34 59  1  0  0  0
 34105  1  0  0  0
 35 44  2  0  0  0
 35 45  1  0  0  0
 35 68  1  0  0  0
 36 56  1  0  0  0
 36106  1  0  0  0
 37 39  1  0  0  0
 37 47  1  0  0  0
 37 66  1  0  0  0
 37107  1  0  0  0
 38 43  2  0  0  0
 38 46  1  0  0  0
 38 47  1  0  0  0
 39 64  1  0  0  0
 39 67  2  0  0  0
 40 52  1  0  0  0
 40 53  2  0  0  0
 40 58  1  0  0  0
 41108  1  0  0  0
 41109  1  0  0  0
 41110  1  0  0  0
 41 48  1  0  0  0
 42 43  1  0  0  0
 42 66  1  0  0  0
 42111  1  0  0  0
 42112  1  0  0  0
 43 44  1  0  0  0
 44113  1  0  0  0
 45 46  2  0  0  0
 45114  1  0  0  0
 46115  1  0  0  0
 47116  1  0  0  0
 47117  1  0  0  0
 48 56  1  0  0  0
 48 65  1  0  0  0
 48118  1  0  0  0
 49 50  1  0  0  0
 49 53  1  0  0  0
 49 64  1  0  0  0
 49119  1  0  0  0
 50 51  1  0  0  0
 50120  1  0  0  0
 50121  1  0  0  0
 51 52  1  0  0  0
 51122  1  0  0  0
 51123  1  0  0  0
 52124  1  0  0  0
 52125  1  0  0  0
 53 54  1  0  0  0
 54 55  2  0  0  0
 54126  1  0  0  0
 55 57  1  0  0  0
 55127  1  0  0  0
 56 69  2  0  0  0
 57 58  2  0  0  0
 57128  1  0  0  0
 58129  1  0  0  0
 59 60  1  0  0  0
 59 61  1  0  0  0
 59 62  1  0  0  0
 60130  1  0  0  0
 60131  1  0  0  0
 60132  1  0  0  0
 61133  1  0  0  0
 61134  1  0  0  0
 61135  1  0  0  0
 62136  1  0  0  0
 62137  1  0  0  0
 62138  1  0  0  0
 63 65  1  0  0  0
 63139  1  0  0  0
 63140  1  0  0  0
 63141  1  0  0  0
 64142  1  0  0  0
 65143  1  0  0  0
 68 80  1  0  0  0
 71 72  2  0  0  0
 71 75  1  0  0  0
 71144  1  0  0  0
 72 76  1  0  0  0
 72145  1  0  0  0
 73 74  1  0  0  0
 73 75  2  0  0  0
 73146  1  0  0  0
 74 76  2  0  0  0
 74 79  1  0  0  0
 75 80  1  0  0  0
 76 84  1  0  0  0
 77 78  1  0  0  0
 77 79  1  0  0  0
 77147  1  0  0  0
 77148  1  0  0  0
 78 79  1  0  0  0
 78149  1  0  0  0
 78150  1  0  0  0
 79151  1  0  0  0
 80152  1  0  0  0
 80153  1  0  0  0
 81 82  1  0  0  0
 81 83  1  0  0  0
 81154  1  0  0  0
 81155  1  0  0  0
 82 84  1  0  0  0
 82156  1  0  0  0
 82157  1  0  0  0
 83158  1  0  0  0
M  ISO  4   1 100  68 101  80 101  83 100
M  END
> <chiral flag>
0

> <version>
0

> <s_m_source_file>
/data/baiqing/PycharmProjects/Reinvent-master-3.2/result/LINK_invent/BTK/process_docking_weight1_custom_sum_contain_oxygen_bond_distance_aromatic_linkinvent_7_9_3/rearranged_h_0137.sdf

> <i_m_source_file_index>
50

> <r_mmod_Potential_Energy-OPLS-2005>
144.578720092773

> <r_mmod_Stretch_Energy-OPLS-2005>
91.3840484619141

> <r_mmod_Bend_Energy-OPLS-2005>
174.381790161133

> <r_mmod_Torsional_Energy-OPLS-2005>
294.866485595703

> <r_mmod_Improper_Torsional_Energy-OPLS-2005>
6.16132593154907

> <r_mmod_Van_der_Waal_Energy-OPLS-2005>
132.522613525391

> <r_mmod_Electrostatic_Energy-OPLS-2005>
-411.418426513672

> <r_mmod_Solvation_Energy-OPLS-2005>
-205.978439331055

> <b_mmod_Minimization_Converged-OPLS-2005>
0

> <r_mmod_RMS_Derivative-OPLS-2005>
0.522365212440491

$$$$
50
                    3D
 Structure written by MMmdl.
166175  0  0  1  0            999 V2000
  -28.7097  -16.4628   20.8048 C   0  0  0  0  0  0
  -29.9622  -13.9699   19.7529 C   0  0  0  0  0  0
  -29.4717  -13.0107   18.5663 C   0  0  0  0  0  0
  -28.1676  -12.2996   18.9252 C   0  0  0  0  0  0
  -27.4142  -13.2689   19.8380 C   0  0  2  0  0  0
  -28.1666  -13.7612   21.0761 C   0  0  0  0  0  0
  -25.1335  -13.7995   20.5543 C   0  0  0  0  0  0
  -24.0940  -13.0189   20.9327 C   0  0  0  0  0  0
  -24.5708  -11.6704   20.8824 C   0  0  0  0  0  0
  -23.8635  -10.4116   21.0517 C   0  0  0  0  0  0
  -24.3369   -9.4099   21.9244 C   0  0  0  0  0  0
  -23.6154   -8.2096   22.0758 C   0  0  0  0  0  0
  -22.4154   -8.0114   21.3533 C   0  0  0  0  0  0
  -21.9696   -9.0034   20.4645 C   0  0  0  0  0  0
  -22.6895  -10.1952   20.3093 C   0  0  0  0  0  0
  -21.6798   -6.0636   22.5294 C   0  0  0  0  0  0
  -21.3958   -6.5573   23.8211 C   0  0  0  0  0  0
  -21.3643   -5.6751   24.9191 C   0  0  0  0  0  0
  -21.6055   -4.3015   24.7260 C   0  0  0  0  0  0
  -21.8828   -3.8082   23.4388 C   0  0  0  0  0  0
  -21.9177   -4.6881   22.3432 C   0  0  0  0  0  0
  -22.7113  -13.5054   21.2087 C   0  0  0  0  0  0
  -22.1660   -4.2068   21.1009 F   0  0  0  0  0  0
  -21.5645   -3.4518   25.7784 F   0  0  0  0  0  0
  -28.8676  -14.9113   20.5326 N   0  0  0  0  0  0
  -26.1360  -12.9045   20.2705 N   0  0  0  0  0  0
  -25.8464  -11.6232   20.5477 N   0  0  0  0  0  0
  -21.9846  -12.8086   22.0702 N   0  0  0  0  0  0
  -25.3090  -15.1762   20.3996 N   0  0  0  0  0  0
  -29.9931  -16.5523   20.5860 O   0  0  0  0  0  0
  -21.6552   -6.8717   21.4234 O   0  0  0  0  0  0
  -22.2918  -14.5422   20.6971 O   0  0  0  0  0  0
  -24.6717  -31.9293   23.1913 C   0  0  0  0  0  0
  -25.9515  -32.5073   23.8481 C   0  0  1  0  0  0
  -27.1558  -27.3605   20.1542 C   0  0  0  0  0  0
  -25.6287  -33.8794   24.2487 N   0  0  0  0  0  0
  -23.5020  -30.5915   21.5259 C   0  0  2  0  0  0
  -24.8755  -29.0238   20.0813 C   0  0  0  0  0  0
  -23.0261  -29.5154   22.4790 C   0  0  0  0  0  0
  -18.3793  -26.9295   22.6116 C   0  0  0  0  0  0
  -24.1513  -36.7350   23.2600 C   0  0  0  0  0  0
  -26.0146  -30.8562   21.3572 C   0  0  0  0  0  0
  -26.0438  -29.4809   20.7045 C   0  0  0  0  0  0
  -27.1959  -28.6584   20.7241 C   0  0  0  0  0  0
  -25.9765  -26.9481   19.4941 C   0  0  0  0  0  0
  -24.8414  -27.7686   19.4595 C   0  0  0  0  0  0
  -23.6784  -29.9410   20.1248 C   0  0  0  0  0  0
  -25.4133  -36.3183   24.0318 C   0  0  1  0  0  0
  -21.5215  -27.7753   22.6196 C   0  0  2  0  0  0
  -21.8673  -26.4578   21.2351 C   0  0  0  0  0  0
  -20.3013  -25.2703   20.6577 C   0  0  0  0  0  0
  -18.5662  -25.6138   21.5182 C   0  0  0  0  0  0
  -20.0100  -28.1055   23.1491 C   0  0  0  0  0  0
  -19.6560  -29.5195   24.1776 C   0  0  0  0  0  0
  -18.0415  -29.8717   24.6712 C   0  0  0  0  0  0
  -25.9132  -34.9597   23.5126 C   0  0  0  0  0  0
  -16.6949  -28.9208   24.2339 C   0  0  0  0  0  0
  -16.8027  -27.4998   23.2357 C   0  0  0  0  0  0
  -26.4585  -31.6652   25.0805 C   0  0  0  0  0  0
  -25.3666  -31.3792   26.1374 C   0  0  0  0  0  0
  -27.0368  -30.3065   24.6192 C   0  0  0  0  0  0
  -27.6125  -32.4245   25.7739 C   0  0  0  0  0  0
  -27.5611  -37.1848   24.8445 C   0  0  0  0  0  0
  -21.8283  -29.1014   22.2324 N   0  0  0  0  0  0
  -26.4289  -37.3895   23.9438 N   0  0  0  0  0  0
  -24.7499  -31.1705   22.0630 N   0  0  0  0  0  0
  -23.7410  -28.9923   23.3366 O   0  0  0  0  0  0
  -28.2364  -26.5119   20.2817 O   0  0  0  0  0  0
  -26.5546  -34.9014   22.4594 O   0  0  0  0  0  0
  -23.5823  -32.1906   23.7262 O   0  0  0  0  0  0
  -23.0741  -22.1771   22.2603 C   0  0  0  0  0  0
  -23.7767  -24.3155   22.5892 C   0  0  0  0  0  0
  -22.3720  -23.8769   22.6003 C   0  0  0  0  0  0
  -24.6445  -21.2072   21.9443 C   0  0  0  0  0  0
  -25.0654  -23.6822   22.1937 C   0  0  0  0  0  0
  -18.8172  -28.7860   20.9735 C   0  0  0  0  0  0
  -19.8619  -27.5014   20.8956 C   0  0  0  0  0  0
  -18.1682  -29.1716   22.4423 C   0  0  0  0  0  0
  -19.7374  -26.1197   24.5607 C   0  0  0  0  0  0
  -20.6364  -25.5062   22.9236 C   0  0  2  0  0  0
  -25.7918  -19.2053   21.5475 C   0  0  0  0  0  0
  -27.9740  -25.0761   20.2906 C   0  0  0  0  0  0
  -27.4194  -24.3812   21.5913 C   0  0  0  0  0  0
  -25.4474  -22.3358   21.9412 N   0  0  0  0  0  0
  -27.5217  -17.8746   21.1190 N   0  0  0  0  0  0
  -18.5764  -27.5335   24.7320 N   0  3  0  0  0  0
  -26.0423  -24.6575   21.9508 O   0  0  0  0  0  0
  -30.6875  -14.6354   19.2839 H   0  0  0  0  0  0
  -30.5672  -13.4080   20.4668 H   0  0  0  0  0  0
  -30.2478  -12.2949   18.2943 H   0  0  0  0  0  0
  -29.2975  -13.6224   17.6792 H   0  0  0  0  0  0
  -28.3879  -11.3776   19.4640 H   0  0  0  0  0  0
  -27.5927  -12.0321   18.0368 H   0  0  0  0  0  0
  -27.2143  -14.1022   19.1590 H   0  0  0  0  0  0
  -28.7651  -12.9895   21.5625 H   0  0  0  0  0  0
  -27.5029  -14.1355   21.8580 H   0  0  0  0  0  0
  -25.2514   -9.5665   22.4799 H   0  0  0  0  0  0
  -23.9912   -7.4487   22.7454 H   0  0  0  0  0  0
  -21.0639   -8.8476   19.8946 H   0  0  0  0  0  0
  -22.3318  -10.9489   19.6216 H   0  0  0  0  0  0
  -21.1909   -7.6078   23.9685 H   0  0  0  0  0  0
  -21.1472   -6.0491   25.9089 H   0  0  0  0  0  0
  -22.0629   -2.7548   23.2913 H   0  0  0  0  0  0
  -22.3461  -11.9722   22.5057 H   0  0  0  0  0  0
  -21.0496  -13.1132   22.3012 H   0  0  0  0  0  0
  -24.5333  -15.8204   20.5127 H   0  0  0  0  0  0
  -26.1120  -15.6003   19.9576 H   0  0  0  0  0  0
  -26.7712  -32.5722   23.1369 H   0  0  0  0  0  0
  -25.0557  -33.9932   25.0711 H   0  0  0  0  0  0
  -22.7359  -31.3665   21.4519 H   0  0  0  0  0  0
  -23.3812  -35.9644   23.3215 H   0  0  0  0  0  0
  -24.3631  -36.9017   22.2026 H   0  0  0  0  0  0
  -23.7209  -37.6513   23.6644 H   0  0  0  0  0  0
  -26.1826  -31.6174   20.5940 H   0  0  0  0  0  0
  -26.8848  -30.8774   22.0018 H   0  0  0  0  0  0
  -28.0985  -28.9929   21.2146 H   0  0  0  0  0  0
  -25.8839  -25.9918   19.0045 H   0  0  0  0  0  0
  -23.9507  -27.4319   18.9473 H   0  0  0  0  0  0
  -23.8283  -30.7255   19.3819 H   0  0  0  0  0  0
  -22.7861  -29.4055   19.8005 H   0  0  0  0  0  0
  -25.1290  -36.2023   25.0805 H   0  0  0  0  0  0
  -22.0445  -27.4533   23.5248 H   0  0  0  0  0  0
  -22.8189  -25.9802   21.2837 H   0  0  0  0  0  0
  -22.2062  -26.9710   20.3346 H   0  0  0  0  0  0
  -20.5488  -24.2128   20.7738 H   0  0  0  0  0  0
  -20.2054  -25.2893   19.5691 H   0  0  0  0  0  0
  -17.8340  -25.7691   20.7239 H   0  0  0  0  0  0
  -18.1800  -24.7076   21.9884 H   0  0  0  0  0  0
  -20.4665  -30.1691   24.4796 H   0  0  0  0  0  0
  -17.8734  -30.7507   25.2774 H   0  0  0  0  0  0
  -15.7168  -29.2350   24.5729 H   0  0  0  0  0  0
  -15.9002  -26.9650   22.9684 H   0  0  0  0  0  0
  -24.5806  -30.7294   25.7514 H   0  0  0  0  0  0
  -24.8928  -32.2980   26.4838 H   0  0  0  0  0  0
  -25.7813  -30.8810   27.0142 H   0  0  0  0  0  0
  -26.2996  -29.6971   24.0968 H   0  0  0  0  0  0
  -27.3803  -29.7161   25.4695 H   0  0  0  0  0  0
  -27.8971  -30.4329   23.9618 H   0  0  0  0  0  0
  -27.2757  -33.3531   26.2354 H   0  0  0  0  0  0
  -28.4025  -32.6812   25.0674 H   0  0  0  0  0  0
  -28.0671  -31.8282   26.5655 H   0  0  0  0  0  0
  -28.2534  -38.0243   24.7657 H   0  0  0  0  0  0
  -28.1208  -36.2787   24.6067 H   0  0  0  0  0  0
  -27.2351  -37.1239   25.8843 H   0  0  0  0  0  0
  -21.2618  -29.5449   21.5252 H   0  0  0  0  0  0
  -26.0164  -38.2939   24.1549 H   0  0  0  0  0  0
  -22.2504  -21.4723   22.2227 H   0  0  0  0  0  0
  -23.9180  -25.3576   22.8359 H   0  0  0  0  0  0
  -17.9829  -28.5781   20.3014 H   0  0  0  0  0  0
  -19.2809  -29.6743   20.5413 H   0  0  0  0  0  0
  -20.6146  -28.1146   20.3917 H   0  0  0  0  0  0
  -19.4484  -27.1743   19.9305 H   0  0  0  0  0  0
  -17.1626  -29.4359   22.0700 H   0  0  0  0  0  0
  -18.4570  -30.2372   22.4166 H   0  0  0  0  0  0
  -20.5276  -26.3205   25.2834 H   0  0  0  0  0  0
  -19.2223  -25.2599   24.9884 H   0  0  0  0  0  0
  -20.0060  -24.6166   22.9758 H   0  0  0  0  0  0
  -25.1395  -18.8399   20.7517 H   0  0  0  0  0  0
  -25.4238  -18.6733   22.4248 H   0  0  0  0  0  0
  -27.4375  -24.7310   19.4082 H   0  0  0  0  0  0
  -28.9629  -24.6440   20.1378 H   0  0  0  0  0  0
  -27.6079  -23.3140   21.4636 H   0  0  0  0  0  0
  -28.0430  -24.6672   22.4374 H   0  0  0  0  0  0
  -28.2191  -18.5985   21.0127 H   0  0  0  0  0  0
  -17.6667  -27.1637   24.9426 H   0  0  0  0  0  0
  -18.8591  -28.1352   25.4885 H   0  0  0  0  0  0
  1 25  1  0  0  0
  1 30  2  0  0  0
  1 85  1  0  0  0
  2  3  1  0  0  0
  2 25  1  0  0  0
  2 88  1  0  0  0
  2 89  1  0  0  0
  3  4  1  0  0  0
  3 90  1  0  0  0
  3 91  1  0  0  0
  4  5  1  0  0  0
  4 92  1  0  0  0
  4 93  1  0  0  0
  5  6  1  0  0  0
  5 26  1  0  0  0
  5 94  1  0  0  0
  6 25  1  0  0  0
  6 95  1  0  0  0
  6 96  1  0  0  0
  7  8  2  0  0  0
  7 26  1  0  0  0
  7 29  1  0  0  0
  8  9  1  0  0  0
  8 22  1  0  0  0
  9 10  1  0  0  0
  9 27  2  0  0  0
 10 11  2  0  0  0
 10 15  1  0  0  0
 11 12  1  0  0  0
 11 97  1  0  0  0
 12 13  2  0  0  0
 12 98  1  0  0  0
 13 14  1  0  0  0
 13 31  1  0  0  0
 14 15  2  0  0  0
 14 99  1  0  0  0
 15100  1  0  0  0
 16 17  2  0  0  0
 16 21  1  0  0  0
 16 31  1  0  0  0
 17 18  1  0  0  0
 17101  1  0  0  0
 18 19  2  0  0  0
 18102  1  0  0  0
 19 20  1  0  0  0
 19 24  1  0  0  0
 20 21  2  0  0  0
 20103  1  0  0  0
 21 23  1  0  0  0
 22 28  1  0  0  0
 22 32  2  0  0  0
 26 27  1  0  0  0
 28104  1  0  0  0
 28105  1  0  0  0
 29106  1  0  0  0
 29107  1  0  0  0
 33 34  1  0  0  0
 33 66  1  0  0  0
 33 70  2  0  0  0
 34 36  1  0  0  0
 34 59  1  0  0  0
 34108  1  0  0  0
 35 44  2  0  0  0
 35 45  1  0  0  0
 35 68  1  0  0  0
 36 56  1  0  0  0
 36109  1  0  0  0
 37 39  1  0  0  0
 37 47  1  0  0  0
 37 66  1  0  0  0
 37110  1  0  0  0
 38 43  2  0  0  0
 38 46  1  0  0  0
 38 47  1  0  0  0
 39 64  1  0  0  0
 39 67  2  0  0  0
 40 52  1  0  0  0
 40 53  2  0  0  0
 40 58  1  0  0  0
 41111  1  0  0  0
 41112  1  0  0  0
 41113  1  0  0  0
 41 48  1  0  0  0
 42 43  1  0  0  0
 42 66  1  0  0  0
 42114  1  0  0  0
 42115  1  0  0  0
 43 44  1  0  0  0
 44116  1  0  0  0
 45 46  2  0  0  0
 45117  1  0  0  0
 46118  1  0  0  0
 47119  1  0  0  0
 47120  1  0  0  0
 48 56  1  0  0  0
 48 65  1  0  0  0
 48121  1  0  0  0
 49 50  1  0  0  0
 49 53  1  0  0  0
 49 64  1  0  0  0
 49122  1  0  0  0
 50 51  1  0  0  0
 50123  1  0  0  0
 50124  1  0  0  0
 51 52  1  0  0  0
 51125  1  0  0  0
 51126  1  0  0  0
 52127  1  0  0  0
 52128  1  0  0  0
 53 54  1  0  0  0
 54 55  2  0  0  0
 54129  1  0  0  0
 55 57  1  0  0  0
 55130  1  0  0  0
 56 69  2  0  0  0
 57 58  2  0  0  0
 57131  1  0  0  0
 58132  1  0  0  0
 59 60  1  0  0  0
 59 61  1  0  0  0
 59 62  1  0  0  0
 60133  1  0  0  0
 60134  1  0  0  0
 60135  1  0  0  0
 61136  1  0  0  0
 61137  1  0  0  0
 61138  1  0  0  0
 62139  1  0  0  0
 62140  1  0  0  0
 62141  1  0  0  0
 63 65  1  0  0  0
 63142  1  0  0  0
 63143  1  0  0  0
 63144  1  0  0  0
 64145  1  0  0  0
 65146  1  0  0  0
 68 82  1  0  0  0
 71 73  2  0  0  0
 71 74  1  0  0  0
 71147  1  0  0  0
 72 73  1  0  0  0
 72 75  2  0  0  0
 72148  1  0  0  0
 73 80  1  0  0  0
 74 81  1  0  0  0
 74 84  2  0  0  0
 75 84  1  0  0  0
 75 87  1  0  0  0
 76 77  1  0  0  0
 76 78  1  0  0  0
 76149  1  0  0  0
 76150  1  0  0  0
 77 80  1  0  0  0
 77151  1  0  0  0
 77152  1  0  0  0
 78 86  1  0  0  0
 78153  1  0  0  0
 78154  1  0  0  0
 79 80  1  0  0  0
 79 86  1  0  0  0
 79155  1  0  0  0
 79156  1  0  0  0
 80157  1  0  0  0
 81 85  1  0  0  0
 81158  1  0  0  0
 81159  1  0  0  0
 82 83  1  0  0  0
 82160  1  0  0  0
 82161  1  0  0  0
 83 87  1  0  0  0
 83162  1  0  0  0
 83163  1  0  0  0
 85164  1  0  0  0
 86165  1  0  0  0
 86166  1  0  0  0
M  CHG  1  86   1
M  ISO  4   1 100  68 101  82 101  85 100
M  END
> <chiral flag>
0

> <version>
0

> <s_m_source_file>
/data/baiqing/PycharmProjects/Reinvent-master-3.2/result/LINK_invent/BTK/process_docking_weight1_custom_sum_contain_oxygen_bond_distance_aromatic_linkinvent_7_9_3/rearranged_h_0137.sdf

> <i_m_source_file_index>
51

> <r_mmod_Potential_Energy-OPLS-2005>
22616.7109375

> <r_mmod_Stretch_Energy-OPLS-2005>
13077.2294921875

> <r_mmod_Bend_Energy-OPLS-2005>
1757.11340332031

> <r_mmod_Torsional_Energy-OPLS-2005>
371.035369873047

> <r_mmod_Improper_Torsional_Energy-OPLS-2005>
7.28422451019287

> <r_mmod_Van_der_Waal_Energy-OPLS-2005>
4103.23486328125

> <r_mmod_Electrostatic_Energy-OPLS-2005>
-627.819702148438

> <r_mmod_Solvation_Energy-OPLS-2005>
-439.288909912109

> <b_mmod_Minimization_Converged-OPLS-2005>
0

> <r_mmod_RMS_Derivative-OPLS-2005>
6.04337453842163

$$$$
51
                    3D
 Structure written by MMmdl.
169178  0  0  1  0            999 V2000
  -30.5587  -14.7823   20.4383 C   0  0  0  0  0  0
  -30.4300  -12.4706   19.4877 C   0  0  0  0  0  0
  -29.5160  -12.5299   18.2423 C   0  0  0  0  0  0
  -28.0396  -12.3467   18.6454 C   0  0  0  0  0  0
  -27.6404  -13.2335   19.8562 C   0  0  2  0  0  0
  -28.6790  -13.1536   20.9966 C   0  0  0  0  0  0
  -25.2504  -13.8183   20.5684 C   0  0  0  0  0  0
  -24.1795  -13.0437   20.9201 C   0  0  0  0  0  0
  -24.6376  -11.6912   20.8720 C   0  0  0  0  0  0
  -23.9052  -10.4294   21.0386 C   0  0  0  0  0  0
  -24.3617   -9.4222   21.9166 C   0  0  0  0  0  0
  -23.6311   -8.2247   22.0739 C   0  0  0  0  0  0
  -22.4293   -8.0271   21.3537 C   0  0  0  0  0  0
  -21.9918   -9.0237   20.4635 C   0  0  0  0  0  0
  -22.7222  -10.2129   20.3042 C   0  0  0  0  0  0
  -21.6857   -6.0734   22.5281 C   0  0  0  0  0  0
  -21.4009   -6.5637   23.8214 C   0  0  0  0  0  0
  -21.3670   -5.6794   24.9179 C   0  0  0  0  0  0
  -21.6048   -4.3058   24.7224 C   0  0  0  0  0  0
  -21.8822   -3.8142   23.4348 C   0  0  0  0  0  0
  -21.9193   -4.6963   22.3405 C   0  0  0  0  0  0
  -22.7820  -13.5223   21.1879 C   0  0  0  0  0  0
  -22.1657   -4.2144   21.0986 F   0  0  0  0  0  0
  -21.5645   -3.4545   25.7735 F   0  0  0  0  0  0
  -29.9796  -13.5266   20.4285 N   0  0  0  0  0  0
  -26.2922  -12.9379   20.3271 N   0  0  0  0  0  0
  -25.9308  -11.6521   20.5731 N   0  0  0  0  0  0
  -22.0461  -12.8207   22.0428 N   0  0  0  0  0  0
  -25.4212  -15.1907   20.4115 N   0  0  0  0  0  0
  -31.7324  -14.8964   20.0670 O   0  0  0  0  0  0
  -21.6658   -6.8868   21.4239 O   0  0  0  0  0  0
  -22.3503  -14.5516   20.6713 O   0  0  0  0  0  0
  -24.6323  -31.8514   23.1957 C   0  0  0  0  0  0
  -25.9135  -32.4735   23.8322 C   0  0  1  0  0  0
  -27.2210  -27.2381   20.1520 C   0  0  0  0  0  0
  -25.5921  -33.8536   24.2245 N   0  0  0  0  0  0
  -23.4316  -30.4684   21.5395 C   0  0  2  0  0  0
  -24.8802  -28.9004   20.1223 C   0  0  0  0  0  0
  -22.7513  -29.4557   22.4925 C   0  0  0  0  0  0
  -18.0290  -28.1380   22.8488 C   0  0  0  0  0  0
  -24.1486  -36.7279   23.2642 C   0  0  0  0  0  0
  -25.9768  -30.7592   21.3756 C   0  0  0  0  0  0
  -26.0513  -29.3740   20.7288 C   0  0  0  0  0  0
  -27.2283  -28.5567   20.7247 C   0  0  0  0  0  0
  -26.0277  -26.8222   19.5323 C   0  0  0  0  0  0
  -24.8734  -27.6339   19.5124 C   0  0  0  0  0  0
  -23.6527  -29.7926   20.1593 C   0  0  0  0  0  0
  -25.4119  -36.3066   24.0323 C   0  0  1  0  0  0
  -20.5893  -28.3684   23.1283 C   0  0  2  0  0  0
  -20.6764  -26.9399   22.5418 C   0  0  0  0  0  0
  -19.5747  -26.6375   21.5215 C   0  0  0  0  0  0
  -18.1927  -26.7925   22.1624 C   0  0  0  0  0  0
  -19.1544  -28.8853   23.2876 C   0  0  0  0  0  0
  -18.9457  -30.1453   23.8896 C   0  0  0  0  0  0
  -17.6451  -30.6577   24.0561 C   0  0  0  0  0  0
  -25.9053  -34.9428   23.5092 C   0  0  0  0  0  0
  -16.5344  -29.9070   23.6327 C   0  0  0  0  0  0
  -16.7273  -28.6486   23.0353 C   0  0  0  0  0  0
  -26.4506  -31.6567   25.0718 C   0  0  0  0  0  0
  -25.3725  -31.3698   26.1435 C   0  0  0  0  0  0
  -27.0350  -30.2987   24.6189 C   0  0  0  0  0  0
  -27.6064  -32.4308   25.7489 C   0  0  0  0  0  0
  -27.5587  -37.1794   24.8465 C   0  0  0  0  0  0
  -21.4216  -29.3025   22.3673 N   0  0  0  0  0  0
  -26.4300  -37.3764   23.9408 N   0  0  0  0  0  0
  -24.6996  -31.0453   22.0939 N   0  0  0  0  0  0
  -23.4202  -28.8105   23.3039 O   0  0  0  0  0  0
  -28.3374  -26.3761   20.0911 O   0  0  0  0  0  0
  -26.5627  -34.8904   22.4662 O   0  0  0  0  0  0
  -23.5461  -32.1343   23.7225 O   0  0  0  0  0  0
  -29.7529  -17.2636   18.7085 C   0  0  0  0  0  0
  -29.2534  -19.6518   18.6549 C   0  0  0  0  0  0
  -29.5253  -18.4456   17.9712 C   0  0  0  0  0  0
  -29.6692  -17.2432   20.1162 C   0  0  0  0  0  0
  -29.1518  -19.6562   20.0534 C   0  0  0  0  0  0
  -31.0347  -20.0846   15.6016 C   0  0  0  0  0  0
  -27.4044  -19.3495   15.6078 C   0  0  0  0  0  0
  -28.0360  -18.0120   15.9793 C   0  0  0  0  0  0
  -28.5835  -20.2023   15.1391 C   0  0  0  0  0  0
  -29.4584  -18.3608   16.4454 C   0  0  1  0  0  0
  -31.2585  -21.3573   14.7682 C   0  0  0  0  0  0
  -28.1208  -23.5458   20.1526 C   0  0  0  0  0  0
  -29.1786  -22.3111   20.3769 C   0  0  0  0  0  0
  -28.3810  -25.0357   20.7834 C   0  0  0  0  0  0
  -29.3334  -18.4555   20.7477 N   0  0  0  0  0  0
  -29.7791  -19.6109   15.7469 N   0  0  0  0  0  0
  -29.7725  -15.8954   20.7530 N   0  0  0  0  0  0
  -28.7364  -20.8833   20.7072 N   0  0  0  0  0  0
  -32.0192  -19.5338   16.1098 O   0  0  0  0  0  0
  -32.6446  -21.5174   14.5045 O   0  0  0  0  0  0
  -31.4741  -12.5952   19.1944 H   0  0  0  0  0  0
  -30.3713  -11.4873   19.9587 H   0  0  0  0  0  0
  -29.8079  -11.7649   17.5224 H   0  0  0  0  0  0
  -29.6424  -13.4888   17.7370 H   0  0  0  0  0  0
  -27.8963  -11.2950   18.8974 H   0  0  0  0  0  0
  -27.3859  -12.5471   17.7947 H   0  0  0  0  0  0
  -27.6384  -14.2612   19.4906 H   0  0  0  0  0  0
  -28.7204  -12.1462   21.4145 H   0  0  0  0  0  0
  -28.4042  -13.8157   21.8191 H   0  0  0  0  0  0
  -25.2753   -9.5728   22.4750 H   0  0  0  0  0  0
  -24.0032   -7.4652   22.7468 H   0  0  0  0  0  0
  -21.0844   -8.8736   19.8960 H   0  0  0  0  0  0
  -22.3642  -10.9666   19.6166 H   0  0  0  0  0  0
  -21.1980   -7.6141   23.9710 H   0  0  0  0  0  0
  -21.1500   -6.0523   25.9080 H   0  0  0  0  0  0
  -22.0588   -2.7605   23.2849 H   0  0  0  0  0  0
  -22.4082  -11.9877   22.4826 H   0  0  0  0  0  0
  -21.1077  -13.1222   22.2624 H   0  0  0  0  0  0
  -24.6529  -15.8431   20.5140 H   0  0  0  0  0  0
  -26.2673  -15.6293   20.0691 H   0  0  0  0  0  0
  -26.7200  -32.5392   23.1062 H   0  0  0  0  0  0
  -25.0055  -33.9661   25.0383 H   0  0  0  0  0  0
  -22.7307  -31.2914   21.3880 H   0  0  0  0  0  0
  -23.3757  -35.9602   23.3286 H   0  0  0  0  0  0
  -24.3587  -36.8923   22.2066 H   0  0  0  0  0  0
  -23.7219  -37.6463   23.6678 H   0  0  0  0  0  0
  -26.1121  -31.5139   20.5994 H   0  0  0  0  0  0
  -26.8547  -30.8172   22.0070 H   0  0  0  0  0  0
  -28.1353  -28.9200   21.1876 H   0  0  0  0  0  0
  -25.9916  -25.8503   19.0591 H   0  0  0  0  0  0
  -23.9769  -27.2692   19.0309 H   0  0  0  0  0  0
  -23.7820  -30.5635   19.3988 H   0  0  0  0  0  0
  -22.7715  -29.2243   19.8550 H   0  0  0  0  0  0
  -25.1301  -36.1917   25.0814 H   0  0  0  0  0  0
  -20.9988  -28.3245   24.1407 H   0  0  0  0  0  0
  -20.5651  -26.2287   23.3614 H   0  0  0  0  0  0
  -21.6627  -26.7406   22.1218 H   0  0  0  0  0  0
  -19.6899  -25.6287   21.1238 H   0  0  0  0  0  0
  -19.6689  -27.3187   20.6749 H   0  0  0  0  0  0
  -17.4198  -26.6687   21.4019 H   0  0  0  0  0  0
  -18.0321  -26.0064   22.9019 H   0  0  0  0  0  0
  -19.7929  -30.7277   24.2262 H   0  0  0  0  0  0
  -17.4994  -31.6260   24.5159 H   0  0  0  0  0  0
  -15.5337  -30.2963   23.7644 H   0  0  0  0  0  0
  -15.8680  -28.0790   22.7079 H   0  0  0  0  0  0
  -24.5916  -30.7037   25.7751 H   0  0  0  0  0  0
  -24.8898  -32.2852   26.4865 H   0  0  0  0  0  0
  -25.8041  -30.8872   27.0214 H   0  0  0  0  0  0
  -26.2919  -29.6739   24.1221 H   0  0  0  0  0  0
  -27.4055  -29.7245   25.4692 H   0  0  0  0  0  0
  -27.8788  -30.4276   23.9406 H   0  0  0  0  0  0
  -27.2685  -33.3624   26.2039 H   0  0  0  0  0  0
  -28.3883  -32.6839   25.0317 H   0  0  0  0  0  0
  -28.0721  -31.8451   26.5425 H   0  0  0  0  0  0
  -28.2584  -38.0111   24.7531 H   0  0  0  0  0  0
  -28.1095  -36.2640   24.6261 H   0  0  0  0  0  0
  -27.2304  -37.1410   25.8865 H   0  0  0  0  0  0
  -20.9407  -29.8774   21.6894 H   0  0  0  0  0  0
  -26.0174  -38.2831   24.1425 H   0  0  0  0  0  0
  -29.9336  -16.3461   18.1654 H   0  0  0  0  0  0
  -29.0419  -20.5539   18.0978 H   0  0  0  0  0  0
  -26.9552  -19.8016   16.4936 H   0  0  0  0  0  0
  -26.6215  -19.2551   14.8536 H   0  0  0  0  0  0
  -28.0960  -17.3953   15.0817 H   0  0  0  0  0  0
  -27.4564  -17.4508   16.7144 H   0  0  0  0  0  0
  -28.4588  -21.2457   15.4330 H   0  0  0  0  0  0
  -28.6633  -20.1654   14.0519 H   0  0  0  0  0  0
  -30.1449  -17.5771   16.1173 H   0  0  0  0  0  0
  -30.8831  -22.2171   15.3234 H   0  0  0  0  0  0
  -30.7187  -21.3053   13.8220 H   0  0  0  0  0  0
  -27.1514  -23.2243   20.5338 H   0  0  0  0  0  0
  -27.9534  -23.6535   19.0812 H   0  0  0  0  0  0
  -29.8159  -22.6016   21.2126 H   0  0  0  0  0  0
  -29.8539  -22.2756   19.5206 H   0  0  0  0  0  0
  -29.3937  -25.0006   21.1863 H   0  0  0  0  0  0
  -27.7553  -25.1223   21.6723 H   0  0  0  0  0  0
  -28.9870  -15.6727   21.3435 H   0  0  0  0  0  0
  -28.5383  -20.7531   21.6941 H   0  0  0  0  0  0
  -33.0794  -21.0628   15.2252 H   0  0  0  0  0  0
  1 25  1  0  0  0
  1 30  2  0  0  0
  1 87  1  0  0  0
  2  3  1  0  0  0
  2 25  1  0  0  0
  2 91  1  0  0  0
  2 92  1  0  0  0
  3  4  1  0  0  0
  3 93  1  0  0  0
  3 94  1  0  0  0
  4  5  1  0  0  0
  4 95  1  0  0  0
  4 96  1  0  0  0
  5  6  1  0  0  0
  5 26  1  0  0  0
  5 97  1  0  0  0
  6 25  1  0  0  0
  6 98  1  0  0  0
  6 99  1  0  0  0
  7  8  2  0  0  0
  7 26  1  0  0  0
  7 29  1  0  0  0
  8  9  1  0  0  0
  8 22  1  0  0  0
  9 10  1  0  0  0
  9 27  2  0  0  0
 10 11  2  0  0  0
 10 15  1  0  0  0
 11 12  1  0  0  0
 11100  1  0  0  0
 12 13  2  0  0  0
 12101  1  0  0  0
 13 14  1  0  0  0
 13 31  1  0  0  0
 14 15  2  0  0  0
 14102  1  0  0  0
 15103  1  0  0  0
 16 17  2  0  0  0
 16 21  1  0  0  0
 16 31  1  0  0  0
 17 18  1  0  0  0
 17104  1  0  0  0
 18 19  2  0  0  0
 18105  1  0  0  0
 19 20  1  0  0  0
 19 24  1  0  0  0
 20 21  2  0  0  0
 20106  1  0  0  0
 21 23  1  0  0  0
 22 28  1  0  0  0
 22 32  2  0  0  0
 26 27  1  0  0  0
 28107  1  0  0  0
 28108  1  0  0  0
 29109  1  0  0  0
 29110  1  0  0  0
 33 34  1  0  0  0
 33 66  1  0  0  0
 33 70  2  0  0  0
 34 36  1  0  0  0
 34 59  1  0  0  0
 34111  1  0  0  0
 35 44  2  0  0  0
 35 45  1  0  0  0
 35 68  1  0  0  0
 36 56  1  0  0  0
 36112  1  0  0  0
 37 39  1  0  0  0
 37 47  1  0  0  0
 37 66  1  0  0  0
 37113  1  0  0  0
 38 43  2  0  0  0
 38 46  1  0  0  0
 38 47  1  0  0  0
 39 64  1  0  0  0
 39 67  2  0  0  0
 40 52  1  0  0  0
 40 53  2  0  0  0
 40 58  1  0  0  0
 41114  1  0  0  0
 41115  1  0  0  0
 41116  1  0  0  0
 41 48  1  0  0  0
 42 43  1  0  0  0
 42 66  1  0  0  0
 42117  1  0  0  0
 42118  1  0  0  0
 43 44  1  0  0  0
 44119  1  0  0  0
 45 46  2  0  0  0
 45120  1  0  0  0
 46121  1  0  0  0
 47122  1  0  0  0
 47123  1  0  0  0
 48 56  1  0  0  0
 48 65  1  0  0  0
 48124  1  0  0  0
 49 50  1  0  0  0
 49 53  1  0  0  0
 49 64  1  0  0  0
 49125  1  0  0  0
 50 51  1  0  0  0
 50126  1  0  0  0
 50127  1  0  0  0
 51 52  1  0  0  0
 51128  1  0  0  0
 51129  1  0  0  0
 52130  1  0  0  0
 52131  1  0  0  0
 53 54  1  0  0  0
 54 55  2  0  0  0
 54132  1  0  0  0
 55 57  1  0  0  0
 55133  1  0  0  0
 56 69  2  0  0  0
 57 58  2  0  0  0
 57134  1  0  0  0
 58135  1  0  0  0
 59 60  1  0  0  0
 59 61  1  0  0  0
 59 62  1  0  0  0
 60136  1  0  0  0
 60137  1  0  0  0
 60138  1  0  0  0
 61139  1  0  0  0
 61140  1  0  0  0
 61141  1  0  0  0
 62142  1  0  0  0
 62143  1  0  0  0
 62144  1  0  0  0
 63 65  1  0  0  0
 63145  1  0  0  0
 63146  1  0  0  0
 63147  1  0  0  0
 64148  1  0  0  0
 65149  1  0  0  0
 68 84  1  0  0  0
 71 73  2  0  0  0
 71 74  1  0  0  0
 71150  1  0  0  0
 72 73  1  0  0  0
 72 75  2  0  0  0
 72151  1  0  0  0
 73 80  1  0  0  0
 74 85  2  0  0  0
 74 87  1  0  0  0
 75 85  1  0  0  0
 75 88  1  0  0  0
 76 81  1  0  0  0
 76 86  1  0  0  0
 76 89  2  0  0  0
 77 78  1  0  0  0
 77 79  1  0  0  0
 77152  1  0  0  0
 77153  1  0  0  0
 78 80  1  0  0  0
 78154  1  0  0  0
 78155  1  0  0  0
 79 86  1  0  0  0
 79156  1  0  0  0
 79157  1  0  0  0
 80 86  1  0  0  0
 80158  1  0  0  0
 81 90  1  0  0  0
 81159  1  0  0  0
 81160  1  0  0  0
 82 83  1  0  0  0
 82 84  1  0  0  0
 82161  1  0  0  0
 82162  1  0  0  0
 83 88  1  0  0  0
 83163  1  0  0  0
 83164  1  0  0  0
 84165  1  0  0  0
 84166  1  0  0  0
 87167  1  0  0  0
 88168  1  0  0  0
 90169  1  0  0  0
M  ISO  4   1 100  68 101  84 101  87 100
M  END
> <chiral flag>
0

> <version>
0

> <s_m_source_file>
/data/baiqing/PycharmProjects/Reinvent-master-3.2/result/LINK_invent/BTK/process_docking_weight1_custom_sum_contain_oxygen_bond_distance_aromatic_linkinvent_7_9_3/rearranged_h_0137.sdf

> <i_m_source_file_index>
52

> <r_mmod_Potential_Energy-OPLS-2005>
129.658966064453

> <r_mmod_Stretch_Energy-OPLS-2005>
144.017532348633

> <r_mmod_Bend_Energy-OPLS-2005>
228.539474487305

> <r_mmod_Torsional_Energy-OPLS-2005>
370.940643310547

> <r_mmod_Improper_Torsional_Energy-OPLS-2005>
7.90096998214722

> <r_mmod_Van_der_Waal_Energy-OPLS-2005>
131.859939575195

> <r_mmod_Electrostatic_Energy-OPLS-2005>
-568.248779296875

> <r_mmod_Solvation_Energy-OPLS-2005>
-279.829345703125

> <b_mmod_Minimization_Converged-OPLS-2005>
0

> <r_mmod_RMS_Derivative-OPLS-2005>
2.20103311538696

$$$$
52
                    3D
 Structure written by MMmdl.
168176  0  0  1  0            999 V2000
  -30.7709  -14.3734   20.6729 C   0  0  0  0  0  0
  -30.4158  -12.2953   19.3928 C   0  0  0  0  0  0
  -29.4837  -12.5280   18.1901 C   0  0  0  0  0  0
  -28.0089  -12.3855   18.6093 C   0  0  0  0  0  0
  -27.6673  -13.2057   19.8806 C   0  0  2  0  0  0
  -28.7069  -12.9540   20.9945 C   0  0  0  0  0  0
  -25.2607  -13.8162   20.5679 C   0  0  0  0  0  0
  -24.1849  -13.0442   20.9164 C   0  0  0  0  0  0
  -24.6399  -11.6904   20.8721 C   0  0  0  0  0  0
  -23.9059  -10.4295   21.0394 C   0  0  0  0  0  0
  -24.3610   -9.4211   21.9182 C   0  0  0  0  0  0
  -23.6282   -8.2242   22.0751 C   0  0  0  0  0  0
  -22.4266   -8.0276   21.3539 C   0  0  0  0  0  0
  -21.9901   -9.0254   20.4639 C   0  0  0  0  0  0
  -22.7229  -10.2133   20.3046 C   0  0  0  0  0  0
  -21.6858   -6.0728   22.5273 C   0  0  0  0  0  0
  -21.4015   -6.5634   23.8208 C   0  0  0  0  0  0
  -21.3655   -5.6787   24.9170 C   0  0  0  0  0  0
  -21.6048   -4.3051   24.7226 C   0  0  0  0  0  0
  -21.8820   -3.8138   23.4350 C   0  0  0  0  0  0
  -21.9194   -4.6952   22.3401 C   0  0  0  0  0  0
  -22.7877  -13.5245   21.1837 C   0  0  0  0  0  0
  -22.1660   -4.2136   21.0981 F   0  0  0  0  0  0
  -21.5631   -3.4535   25.7745 F   0  0  0  0  0  0
  -30.0470  -13.2462   20.4513 N   0  0  0  0  0  0
  -26.3058  -12.9330   20.3394 N   0  0  0  0  0  0
  -25.9329  -11.6486   20.5760 N   0  0  0  0  0  0
  -22.0509  -12.8227   22.0387 N   0  0  0  0  0  0
  -25.4346  -15.1872   20.4092 N   0  0  0  0  0  0
  -31.7968  -14.6526   20.0454 O   0  0  0  0  0  0
  -21.6634   -6.8869   21.4234 O   0  0  0  0  0  0
  -22.3562  -14.5560   20.6707 O   0  0  0  0  0  0
  -24.6115  -31.8710   23.2142 C   0  0  0  0  0  0
  -25.9021  -32.4833   23.8432 C   0  0  1  0  0  0
  -27.2364  -27.4617   20.0820 C   0  0  0  0  0  0
  -25.5900  -33.8637   24.2368 N   0  0  0  0  0  0
  -23.3993  -30.4937   21.5547 C   0  0  2  0  0  0
  -24.8475  -28.9661   20.1163 C   0  0  0  0  0  0
  -22.7388  -29.4663   22.5012 C   0  0  0  0  0  0
  -18.0260  -28.1377   22.8490 C   0  0  0  0  0  0
  -24.1496  -36.7308   23.2647 C   0  0  0  0  0  0
  -25.9257  -30.8444   21.3637 C   0  0  0  0  0  0
  -26.0073  -29.4831   20.7054 C   0  0  0  0  0  0
  -27.2086  -28.7402   20.6815 C   0  0  0  0  0  0
  -26.0558  -26.9474   19.5046 C   0  0  0  0  0  0
  -24.8641  -27.6949   19.5164 C   0  0  0  0  0  0
  -23.6076  -29.8294   20.1683 C   0  0  0  0  0  0
  -25.4103  -36.3110   24.0355 C   0  0  1  0  0  0
  -20.5849  -28.3654   23.1330 C   0  0  2  0  0  0
  -20.6757  -26.9397   22.5428 C   0  0  0  0  0  0
  -19.5744  -26.6391   21.5214 C   0  0  0  0  0  0
  -18.1915  -26.7927   22.1608 C   0  0  0  0  0  0
  -19.1511  -28.8828   23.2909 C   0  0  0  0  0  0
  -18.9446  -30.1442   23.8915 C   0  0  0  0  0  0
  -17.6454  -30.6595   24.0563 C   0  0  0  0  0  0
  -25.9032  -34.9483   23.5157 C   0  0  0  0  0  0
  -16.5339  -29.9092   23.6346 C   0  0  0  0  0  0
  -16.7255  -28.6511   23.0360 C   0  0  0  0  0  0
  -26.4472  -31.6588   25.0738 C   0  0  0  0  0  0
  -25.3739  -31.3669   26.1479 C   0  0  0  0  0  0
  -27.0313  -30.3038   24.6090 C   0  0  0  0  0  0
  -27.6055  -32.4308   25.7495 C   0  0  0  0  0  0
  -27.5574  -37.1800   24.8465 C   0  0  0  0  0  0
  -21.4123  -29.3021   22.3730 N   0  0  0  0  0  0
  -26.4285  -37.3785   23.9420 N   0  0  0  0  0  0
  -24.6636  -31.0820   22.1038 N   0  0  0  0  0  0
  -23.4166  -28.8205   23.3049 O   0  0  0  0  0  0
  -28.4040  -26.7326   20.0698 O   0  0  0  0  0  0
  -26.5581  -34.8918   22.4713 O   0  0  0  0  0  0
  -23.5316  -32.1472   23.7539 O   0  0  0  0  0  0
  -28.7310  -21.2850   19.4224 C   0  0  0  0  0  0
  -29.2961  -20.0013   19.5389 C   0  0  0  0  0  0
  -28.1699  -21.9017   20.5639 C   0  0  0  0  0  0
  -28.2299  -21.1845   21.7906 C   0  0  0  0  0  0
  -29.2917  -19.3667   20.7902 C   0  0  0  0  0  0
  -28.8104  -21.8464   24.1749 C   0  0  0  0  0  0
  -26.4856  -20.9614   23.6272 C   0  0  0  0  0  0
  -31.5025  -15.9576   23.6404 C   0  0  0  0  0  0
  -28.2055  -24.2648   19.8069 C   0  0  0  0  0  0
  -30.0740  -17.5347   22.2620 C   0  0  0  0  0  0
  -28.3302  -25.4806   20.7539 C   0  0  0  0  0  0
  -27.7010  -21.7495   23.1136 C   0  0  0  0  0  0
  -31.0107  -16.3141   22.2302 C   0  0  2  0  0  0
  -28.7710  -19.9493   21.8854 N   0  0  0  0  0  0
  -27.5336  -23.1516   20.4751 N   0  0  0  0  0  0
  -29.8390  -18.0860   20.9303 N   0  0  0  0  0  0
  -30.3238  -15.1538   21.6644 N   0  0  0  0  0  0
  -31.4594  -12.3921   19.0864 H   0  0  0  0  0  0
  -30.3111  -11.2739   19.7620 H   0  0  0  0  0  0
  -29.7136  -11.8218   17.3915 H   0  0  0  0  0  0
  -29.6550  -13.5227   17.7755 H   0  0  0  0  0  0
  -27.8165  -11.3274   18.7891 H   0  0  0  0  0  0
  -27.3542  -12.6777   17.7881 H   0  0  0  0  0  0
  -27.7234  -14.2603   19.6094 H   0  0  0  0  0  0
  -28.6718  -11.9122   21.3164 H   0  0  0  0  0  0
  -28.4555  -13.5357   21.8814 H   0  0  0  0  0  0
  -25.2750   -9.5690   22.4753 H   0  0  0  0  0  0
  -23.9996   -7.4636   22.7470 H   0  0  0  0  0  0
  -21.0832   -8.8764   19.8946 H   0  0  0  0  0  0
  -22.3683  -10.9669   19.6149 H   0  0  0  0  0  0
  -21.2004   -7.6142   23.9708 H   0  0  0  0  0  0
  -21.1477   -6.0520   25.9078 H   0  0  0  0  0  0
  -22.0603   -2.7597   23.2857 H   0  0  0  0  0  0
  -22.4121  -11.9890   22.4771 H   0  0  0  0  0  0
  -21.1132  -13.1252   22.2587 H   0  0  0  0  0  0
  -24.6736  -15.8488   20.5191 H   0  0  0  0  0  0
  -26.3000  -15.6247   20.1182 H   0  0  0  0  0  0
  -26.7079  -32.5568   23.1195 H   0  0  0  0  0  0
  -25.0072  -33.9811   25.0529 H   0  0  0  0  0  0
  -22.6866  -31.3095   21.4188 H   0  0  0  0  0  0
  -23.3769  -35.9633   23.3309 H   0  0  0  0  0  0
  -24.3606  -36.8936   22.2064 H   0  0  0  0  0  0
  -23.7246  -37.6515   23.6663 H   0  0  0  0  0  0
  -26.0302  -31.6160   20.5999 H   0  0  0  0  0  0
  -26.8140  -30.8979   21.9811 H   0  0  0  0  0  0
  -28.1084  -29.1377   21.1313 H   0  0  0  0  0  0
  -26.0493  -25.9735   19.0408 H   0  0  0  0  0  0
  -23.9694  -27.2861   19.0679 H   0  0  0  0  0  0
  -23.7077  -30.6080   19.4103 H   0  0  0  0  0  0
  -22.7319  -29.2465   19.8758 H   0  0  0  0  0  0
  -25.1272  -36.1982   25.0844 H   0  0  0  0  0  0
  -20.9929  -28.3225   24.1453 H   0  0  0  0  0  0
  -20.5696  -26.2254   23.3606 H   0  0  0  0  0  0
  -21.6623  -26.7459   22.1206 H   0  0  0  0  0  0
  -19.6924  -25.6308   21.1234 H   0  0  0  0  0  0
  -19.6704  -27.3211   20.6755 H   0  0  0  0  0  0
  -17.4191  -26.6690   21.4001 H   0  0  0  0  0  0
  -18.0302  -26.0064   22.8993 H   0  0  0  0  0  0
  -19.7928  -30.7249   24.2301 H   0  0  0  0  0  0
  -17.5013  -31.6285   24.5145 H   0  0  0  0  0  0
  -15.5344  -30.2998   23.7684 H   0  0  0  0  0  0
  -15.8646  -28.0847   22.7068 H   0  0  0  0  0  0
  -24.5981  -30.6932   25.7817 H   0  0  0  0  0  0
  -24.8833  -32.2805   26.4851 H   0  0  0  0  0  0
  -25.8104  -30.8922   27.0275 H   0  0  0  0  0  0
  -26.2861  -29.6776   24.1172 H   0  0  0  0  0  0
  -27.4146  -29.7268   25.4517 H   0  0  0  0  0  0
  -27.8655  -30.4381   23.9199 H   0  0  0  0  0  0
  -27.2705  -33.3633   26.2047 H   0  0  0  0  0  0
  -28.3869  -32.6835   25.0310 H   0  0  0  0  0  0
  -28.0717  -31.8454   26.5428 H   0  0  0  0  0  0
  -28.2568  -38.0113   24.7521 H   0  0  0  0  0  0
  -28.1092  -36.2649   24.6278 H   0  0  0  0  0  0
  -27.2294  -37.1424   25.8865 H   0  0  0  0  0  0
  -20.9295  -29.8732   21.6935 H   0  0  0  0  0  0
  -26.0185  -38.2865   24.1444 H   0  0  0  0  0  0
  -28.7082  -21.7724   18.4581 H   0  0  0  0  0  0
  -29.7146  -19.5218   18.6652 H   0  0  0  0  0  0
  -29.6543  -22.4292   23.8055 H   0  0  0  0  0  0
  -29.1853  -20.8608   24.4514 H   0  0  0  0  0  0
  -28.4449  -22.3284   25.0810 H   0  0  0  0  0  0
  -25.6834  -20.9599   22.8877 H   0  0  0  0  0  0
  -26.0937  -21.4012   24.5445 H   0  0  0  0  0  0
  -26.7467  -19.9242   23.8400 H   0  0  0  0  0  0
  -32.0421  -16.7925   24.0879 H   0  0  0  0  0  0
  -32.1851  -15.1067   23.6168 H   0  0  0  0  0  0
  -30.6759  -15.7044   24.3057 H   0  0  0  0  0  0
  -29.1942  -23.9839   19.4381 H   0  0  0  0  0  0
  -27.6203  -24.5278   18.9259 H   0  0  0  0  0  0
  -30.5319  -18.3098   22.8790 H   0  0  0  0  0  0
  -29.1226  -17.2848   22.7339 H   0  0  0  0  0  0
  -29.2320  -25.3706   21.3561 H   0  0  0  0  0  0
  -27.5068  -25.4967   21.4722 H   0  0  0  0  0  0
  -27.3604  -22.7711   22.9548 H   0  0  0  0  0  0
  -31.8923  -16.5732   21.6394 H   0  0  0  0  0  0
  -26.9819  -23.4213   21.2846 H   0  0  0  0  0  0
  -30.3030  -17.6488   20.1433 H   0  0  0  0  0  0
  -29.4659  -14.8624   22.1085 H   0  0  0  0  0  0
  1 25  1  0  0  0
  1 30  2  0  0  0
  1 87  1  0  0  0
  2  3  1  0  0  0
  2 25  1  0  0  0
  2 88  1  0  0  0
  2 89  1  0  0  0
  3  4  1  0  0  0
  3 90  1  0  0  0
  3 91  1  0  0  0
  4  5  1  0  0  0
  4 92  1  0  0  0
  4 93  1  0  0  0
  5  6  1  0  0  0
  5 26  1  0  0  0
  5 94  1  0  0  0
  6 25  1  0  0  0
  6 95  1  0  0  0
  6 96  1  0  0  0
  7  8  2  0  0  0
  7 26  1  0  0  0
  7 29  1  0  0  0
  8  9  1  0  0  0
  8 22  1  0  0  0
  9 10  1  0  0  0
  9 27  2  0  0  0
 10 11  2  0  0  0
 10 15  1  0  0  0
 11 12  1  0  0  0
 11 97  1  0  0  0
 12 13  2  0  0  0
 12 98  1  0  0  0
 13 14  1  0  0  0
 13 31  1  0  0  0
 14 15  2  0  0  0
 14 99  1  0  0  0
 15100  1  0  0  0
 16 17  2  0  0  0
 16 21  1  0  0  0
 16 31  1  0  0  0
 17 18  1  0  0  0
 17101  1  0  0  0
 18 19  2  0  0  0
 18102  1  0  0  0
 19 20  1  0  0  0
 19 24  1  0  0  0
 20 21  2  0  0  0
 20103  1  0  0  0
 21 23  1  0  0  0
 22 28  1  0  0  0
 22 32  2  0  0  0
 26 27  1  0  0  0
 28104  1  0  0  0
 28105  1  0  0  0
 29106  1  0  0  0
 29107  1  0  0  0
 33 34  1  0  0  0
 33 66  1  0  0  0
 33 70  2  0  0  0
 34 36  1  0  0  0
 34 59  1  0  0  0
 34108  1  0  0  0
 35 44  2  0  0  0
 35 45  1  0  0  0
 35 68  1  0  0  0
 36 56  1  0  0  0
 36109  1  0  0  0
 37 39  1  0  0  0
 37 47  1  0  0  0
 37 66  1  0  0  0
 37110  1  0  0  0
 38 43  2  0  0  0
 38 46  1  0  0  0
 38 47  1  0  0  0
 39 64  1  0  0  0
 39 67  2  0  0  0
 40 52  1  0  0  0
 40 53  2  0  0  0
 40 58  1  0  0  0
 41111  1  0  0  0
 41112  1  0  0  0
 41113  1  0  0  0
 41 48  1  0  0  0
 42 43  1  0  0  0
 42 66  1  0  0  0
 42114  1  0  0  0
 42115  1  0  0  0
 43 44  1  0  0  0
 44116  1  0  0  0
 45 46  2  0  0  0
 45117  1  0  0  0
 46118  1  0  0  0
 47119  1  0  0  0
 47120  1  0  0  0
 48 56  1  0  0  0
 48 65  1  0  0  0
 48121  1  0  0  0
 49 50  1  0  0  0
 49 53  1  0  0  0
 49 64  1  0  0  0
 49122  1  0  0  0
 50 51  1  0  0  0
 50123  1  0  0  0
 50124  1  0  0  0
 51 52  1  0  0  0
 51125  1  0  0  0
 51126  1  0  0  0
 52127  1  0  0  0
 52128  1  0  0  0
 53 54  1  0  0  0
 54 55  2  0  0  0
 54129  1  0  0  0
 55 57  1  0  0  0
 55130  1  0  0  0
 56 69  2  0  0  0
 57 58  2  0  0  0
 57131  1  0  0  0
 58132  1  0  0  0
 59 60  1  0  0  0
 59 61  1  0  0  0
 59 62  1  0  0  0
 60133  1  0  0  0
 60134  1  0  0  0
 60135  1  0  0  0
 61136  1  0  0  0
 61137  1  0  0  0
 61138  1  0  0  0
 62139  1  0  0  0
 62140  1  0  0  0
 62141  1  0  0  0
 63 65  1  0  0  0
 63142  1  0  0  0
 63143  1  0  0  0
 63144  1  0  0  0
 64145  1  0  0  0
 65146  1  0  0  0
 68 81  1  0  0  0
 71 72  2  0  0  0
 71 73  1  0  0  0
 71147  1  0  0  0
 72 75  1  0  0  0
 72148  1  0  0  0
 73 74  2  0  0  0
 73 85  1  0  0  0
 74 82  1  0  0  0
 74 84  1  0  0  0
 75 84  2  0  0  0
 75 86  1  0  0  0
 76149  1  0  0  0
 76150  1  0  0  0
 76151  1  0  0  0
 76 82  1  0  0  0
 77 82  1  0  0  0
 77152  1  0  0  0
 77153  1  0  0  0
 77154  1  0  0  0
 78155  1  0  0  0
 78156  1  0  0  0
 78157  1  0  0  0
 78 83  1  0  0  0
 79 81  1  0  0  0
 79 85  1  0  0  0
 79158  1  0  0  0
 79159  1  0  0  0
 80 83  1  0  0  0
 80 86  1  0  0  0
 80160  1  0  0  0
 80161  1  0  0  0
 81162  1  0  0  0
 81163  1  0  0  0
 82164  1  0  0  0
 83 87  1  0  0  0
 83165  1  0  0  0
 85166  1  0  0  0
 86167  1  0  0  0
 87168  1  0  0  0
M  ISO  4   1 100  68 101  81 101  87 100
M  END
> <chiral flag>
0

> <version>
0

> <s_m_source_file>
/data/baiqing/PycharmProjects/Reinvent-master-3.2/result/LINK_invent/BTK/process_docking_weight1_custom_sum_contain_oxygen_bond_distance_aromatic_linkinvent_7_9_3/rearranged_h_0137.sdf

> <i_m_source_file_index>
53

> <r_mmod_Potential_Energy-OPLS-2005>
-314.950958251953

> <r_mmod_Stretch_Energy-OPLS-2005>
33.6386947631836

> <r_mmod_Bend_Energy-OPLS-2005>
104.276313781738

> <r_mmod_Torsional_Energy-OPLS-2005>
212.987701416016

> <r_mmod_Improper_Torsional_Energy-OPLS-2005>
5.55078268051147

> <r_mmod_Van_der_Waal_Energy-OPLS-2005>
161.218109130859

> <r_mmod_Electrostatic_Energy-OPLS-2005>
-621.826477050781

> <r_mmod_Solvation_Energy-OPLS-2005>
-217.963973999023

> <b_mmod_Minimization_Converged-OPLS-2005>
0

> <r_mmod_RMS_Derivative-OPLS-2005>
1.80948233604431

$$$$
53
                    3D
 Structure written by MMmdl.
155164  0  0  1  0            999 V2000
  -30.4908  -15.0792   20.3974 C   0  0  0  0  0  0
  -30.4391  -12.6782   19.5103 C   0  0  0  0  0  0
  -29.5276  -12.5544   18.2660 C   0  0  0  0  0  0
  -28.0655  -12.3145   18.6844 C   0  0  0  0  0  0
  -27.6217  -13.2602   19.8308 C   0  0  2  0  0  0
  -28.6597  -13.3435   20.9690 C   0  0  0  0  0  0
  -25.2431  -13.8226   20.5715 C   0  0  0  0  0  0
  -24.1766  -13.0435   20.9234 C   0  0  0  0  0  0
  -24.6400  -11.6925   20.8745 C   0  0  0  0  0  0
  -23.9087  -10.4289   21.0402 C   0  0  0  0  0  0
  -24.3636   -9.4208   21.9185 C   0  0  0  0  0  0
  -23.6300   -8.2252   22.0761 C   0  0  0  0  0  0
  -22.4283   -8.0286   21.3552 C   0  0  0  0  0  0
  -21.9923   -9.0257   20.4651 C   0  0  0  0  0  0
  -22.7257  -10.2131   20.3054 C   0  0  0  0  0  0
  -21.6860   -6.0734   22.5279 C   0  0  0  0  0  0
  -21.4021   -6.5638   23.8210 C   0  0  0  0  0  0
  -21.3665   -5.6790   24.9174 C   0  0  0  0  0  0
  -21.6047   -4.3055   24.7221 C   0  0  0  0  0  0
  -21.8816   -3.8145   23.4342 C   0  0  0  0  0  0
  -21.9194   -4.6963   22.3397 C   0  0  0  0  0  0
  -22.7786  -13.5204   21.1879 C   0  0  0  0  0  0
  -22.1663   -4.2151   21.0972 F   0  0  0  0  0  0
  -21.5631   -3.4542   25.7737 F   0  0  0  0  0  0
  -29.9160  -13.7970   20.3592 N   0  0  0  0  0  0
  -26.2854  -12.9476   20.3213 N   0  0  0  0  0  0
  -25.9334  -11.6593   20.5711 N   0  0  0  0  0  0
  -22.0442  -12.8194   22.0438 N   0  0  0  0  0  0
  -25.4064  -15.1960   20.4136 N   0  0  0  0  0  0
  -31.7020  -15.1215   20.1497 O   0  0  0  0  0  0
  -21.6649   -6.8884   21.4243 O   0  0  0  0  0  0
  -22.3461  -14.5500   20.6709 O   0  0  0  0  0  0
  -24.6524  -31.8337   23.1780 C   0  0  0  0  0  0
  -25.9254  -32.4638   23.8214 C   0  0  1  0  0  0
  -27.2159  -27.0332   20.1671 C   0  0  0  0  0  0
  -25.5964  -33.8448   24.2131 N   0  0  0  0  0  0
  -23.4615  -30.4482   21.5256 C   0  0  2  0  0  0
  -24.9108  -28.8514   20.1105 C   0  0  0  0  0  0
  -22.7610  -29.4492   22.4823 C   0  0  0  0  0  0
  -18.0311  -28.1398   22.8464 C   0  0  0  0  0  0
  -24.1493  -36.7234   23.2644 C   0  0  0  0  0  0
  -26.0228  -30.6738   21.3913 C   0  0  0  0  0  0
  -26.0909  -29.2739   20.7352 C   0  0  0  0  0  0
  -27.2399  -28.3825   20.7404 C   0  0  0  0  0  0
  -26.0074  -26.7316   19.5040 C   0  0  0  0  0  0
  -24.8877  -27.5981   19.4779 C   0  0  0  0  0  0
  -23.6933  -29.7679   20.1487 C   0  0  0  0  0  0
  -25.4131  -36.3001   24.0306 C   0  0  1  0  0  0
  -20.5929  -28.3735   23.1209 C   0  0  2  0  0  0
  -20.6789  -26.9427   22.5403 C   0  0  0  0  0  0
  -19.5767  -26.6374   21.5209 C   0  0  0  0  0  0
  -18.1948  -26.7933   22.1616 C   0  0  0  0  0  0
  -19.1568  -28.8885   23.2827 C   0  0  0  0  0  0
  -18.9484  -30.1478   23.8861 C   0  0  0  0  0  0
  -17.6479  -30.6589   24.0557 C   0  0  0  0  0  0
  -25.9087  -34.9377   23.5038 C   0  0  0  0  0  0
  -16.5371  -29.9080   23.6336 C   0  0  0  0  0  0
  -16.7295  -28.6501   23.0352 C   0  0  0  0  0  0
  -26.4535  -31.6541   25.0703 C   0  0  0  0  0  0
  -25.3687  -31.3767   26.1377 C   0  0  0  0  0  0
  -27.0416  -30.2919   24.6368 C   0  0  0  0  0  0
  -27.6044  -32.4325   25.7507 C   0  0  0  0  0  0
  -27.5578  -37.1773   24.8462 C   0  0  0  0  0  0
  -21.4291  -29.3048   22.3572 N   0  0  0  0  0  0
  -26.4286  -37.3723   23.9406 N   0  0  0  0  0  0
  -24.7329  -31.0096   22.0865 N   0  0  0  0  0  0
  -23.4203  -28.8055   23.3025 O   0  0  0  0  0  0
  -28.2686  -26.0181   20.2414 O   0  0  0  0  0  0
  -26.5688  -34.8891   22.4627 O   0  0  0  0  0  0
  -23.5618  -32.1262   23.6937 O   0  0  0  0  0  0
  -29.5133  -21.9740   19.3693 C   0  0  0  0  0  0
  -27.7196  -21.7706   20.9026 C   0  0  0  0  0  0
  -29.5050  -23.6095   19.6078 C   0  0  0  0  0  0
  -27.7100  -23.4026   21.1509 C   0  0  0  0  0  0
  -30.2327  -18.2619   18.9244 C   0  0  0  0  0  0
  -29.0602  -20.9521   20.5265 C   0  0  1  0  0  0
  -30.0502  -17.8835   20.3974 C   0  0  1  0  0  0
  -28.9715  -19.2124   20.2969 C   0  0  2  0  0  0
  -28.1718  -24.4307   20.0054 C   0  0  1  0  0  0
  -29.7149  -16.2976   20.5072 N   0  0  0  0  0  0
  -28.9790  -19.0229   18.8604 O   0  0  0  0  0  0
  -31.4688  -12.8535   19.1957 H   0  0  0  0  0  0
  -30.4578  -11.7416   20.0701 H   0  0  0  0  0  0
  -29.8711  -11.7464   17.6188 H   0  0  0  0  0  0
  -29.5943  -13.4695   17.6753 H   0  0  0  0  0  0
  -27.9824  -11.2766   19.0089 H   0  0  0  0  0  0
  -27.4017  -12.4195   17.8253 H   0  0  0  0  0  0
  -27.5651  -14.2510   19.3782 H   0  0  0  0  0  0
  -28.7818  -12.3801   21.4667 H   0  0  0  0  0  0
  -28.3350  -14.0516   21.7330 H   0  0  0  0  0  0
  -25.2783   -9.5687   22.4759 H   0  0  0  0  0  0
  -24.0010   -7.4644   22.7483 H   0  0  0  0  0  0
  -21.0858   -8.8771   19.8946 H   0  0  0  0  0  0
  -22.3719  -10.9669   19.6161 H   0  0  0  0  0  0
  -21.2018   -7.6148   23.9714 H   0  0  0  0  0  0
  -21.1496   -6.0523   25.9076 H   0  0  0  0  0  0
  -22.0590   -2.7606   23.2838 H   0  0  0  0  0  0
  -22.4068  -11.9876   22.4855 H   0  0  0  0  0  0
  -21.1052  -13.1201   22.2620 H   0  0  0  0  0  0
  -24.6315  -15.8410   20.5214 H   0  0  0  0  0  0
  -26.2362  -15.6376   20.0395 H   0  0  0  0  0  0
  -26.7327  -32.5204   23.0938 H   0  0  0  0  0  0
  -25.0068  -33.9545   25.0251 H   0  0  0  0  0  0
  -22.7699  -31.2770   21.3622 H   0  0  0  0  0  0
  -23.3766  -35.9554   23.3276 H   0  0  0  0  0  0
  -24.3579  -36.8903   22.2065 H   0  0  0  0  0  0
  -23.7237  -37.6412   23.6713 H   0  0  0  0  0  0
  -26.1907  -31.4211   20.6145 H   0  0  0  0  0  0
  -26.8883  -30.7268   22.0402 H   0  0  0  0  0  0
  -28.1387  -28.7022   21.2487 H   0  0  0  0  0  0
  -25.8938  -25.7734   19.0207 H   0  0  0  0  0  0
  -23.9876  -27.2691   18.9771 H   0  0  0  0  0  0
  -23.8387  -30.5379   19.3903 H   0  0  0  0  0  0
  -22.8052  -29.2162   19.8361 H   0  0  0  0  0  0
  -25.1323  -36.1814   25.0799 H   0  0  0  0  0  0
  -21.0018  -28.3335   24.1332 H   0  0  0  0  0  0
  -20.5665  -26.2355   23.3635 H   0  0  0  0  0  0
  -21.6655  -26.7408   22.1215 H   0  0  0  0  0  0
  -19.6928  -25.6273   21.1265 H   0  0  0  0  0  0
  -19.6706  -27.3162   20.6720 H   0  0  0  0  0  0
  -17.4216  -26.6670   21.4023 H   0  0  0  0  0  0
  -18.0350  -26.0087   22.9025 H   0  0  0  0  0  0
  -19.7963  -30.7305   24.2211 H   0  0  0  0  0  0
  -17.5032  -31.6266   24.5170 H   0  0  0  0  0  0
  -15.5371  -30.2971   23.7682 H   0  0  0  0  0  0
  -15.8693  -28.0812   22.7081 H   0  0  0  0  0  0
  -24.5879  -30.7102   25.7696 H   0  0  0  0  0  0
  -24.8867  -32.2961   26.4712 H   0  0  0  0  0  0
  -25.7937  -30.8998   27.0218 H   0  0  0  0  0  0
  -26.3057  -29.6609   24.1371 H   0  0  0  0  0  0
  -27.3979  -29.7260   25.4989 H   0  0  0  0  0  0
  -27.8987  -30.4122   23.9737 H   0  0  0  0  0  0
  -27.2617  -33.3644   26.2014 H   0  0  0  0  0  0
  -28.3897  -32.6846   25.0371 H   0  0  0  0  0  0
  -28.0665  -31.8500   26.5487 H   0  0  0  0  0  0
  -28.2568  -38.0094   24.7520 H   0  0  0  0  0  0
  -28.1098  -36.2621   24.6271 H   0  0  0  0  0  0
  -27.2297  -37.1395   25.8864 H   0  0  0  0  0  0
  -20.9522  -29.8753   21.6726 H   0  0  0  0  0  0
  -26.0143  -38.2786   24.1412 H   0  0  0  0  0  0
  -30.5190  -21.6867   19.0611 H   0  0  0  0  0  0
  -28.8925  -21.7728   18.4953 H   0  0  0  0  0  0
  -26.9814  -21.5602   20.1274 H   0  0  0  0  0  0
  -27.3075  -21.3073   21.7994 H   0  0  0  0  0  0
  -29.9007  -24.0682   18.7009 H   0  0  0  0  0  0
  -30.2553  -23.8218   20.3700 H   0  0  0  0  0  0
  -28.3163  -23.5980   22.0360 H   0  0  0  0  0  0
  -26.6979  -23.6826   21.4428 H   0  0  0  0  0  0
  -30.2454  -17.4131   18.2391 H   0  0  0  0  0  0
  -31.1052  -18.8967   18.7536 H   0  0  0  0  0  0
  -29.7470  -21.1080   21.3590 H   0  0  0  0  0  0
  -30.9313  -18.1513   20.9816 H   0  0  0  0  0  0
  -28.0291  -18.8587   20.7185 H   0  0  0  0  0  0
  -27.4902  -24.2985   19.1666 H   0  0  0  0  0  0
  -28.7357  -16.1123   20.6657 H   0  0  0  0  0  0
  1 25  1  0  0  0
  1 30  2  0  0  0
  1 80  1  0  0  0
  2  3  1  0  0  0
  2 25  1  0  0  0
  2 82  1  0  0  0
  2 83  1  0  0  0
  3  4  1  0  0  0
  3 84  1  0  0  0
  3 85  1  0  0  0
  4  5  1  0  0  0
  4 86  1  0  0  0
  4 87  1  0  0  0
  5  6  1  0  0  0
  5 26  1  0  0  0
  5 88  1  0  0  0
  6 25  1  0  0  0
  6 89  1  0  0  0
  6 90  1  0  0  0
  7  8  2  0  0  0
  7 26  1  0  0  0
  7 29  1  0  0  0
  8  9  1  0  0  0
  8 22  1  0  0  0
  9 10  1  0  0  0
  9 27  2  0  0  0
 10 11  2  0  0  0
 10 15  1  0  0  0
 11 12  1  0  0  0
 11 91  1  0  0  0
 12 13  2  0  0  0
 12 92  1  0  0  0
 13 14  1  0  0  0
 13 31  1  0  0  0
 14 15  2  0  0  0
 14 93  1  0  0  0
 15 94  1  0  0  0
 16 17  2  0  0  0
 16 21  1  0  0  0
 16 31  1  0  0  0
 17 18  1  0  0  0
 17 95  1  0  0  0
 18 19  2  0  0  0
 18 96  1  0  0  0
 19 20  1  0  0  0
 19 24  1  0  0  0
 20 21  2  0  0  0
 20 97  1  0  0  0
 21 23  1  0  0  0
 22 28  1  0  0  0
 22 32  2  0  0  0
 26 27  1  0  0  0
 28 98  1  0  0  0
 28 99  1  0  0  0
 29100  1  0  0  0
 29101  1  0  0  0
 33 34  1  0  0  0
 33 66  1  0  0  0
 33 70  2  0  0  0
 34 36  1  0  0  0
 34 59  1  0  0  0
 34102  1  0  0  0
 35 44  2  0  0  0
 35 45  1  0  0  0
 35 68  1  0  0  0
 36 56  1  0  0  0
 36103  1  0  0  0
 37 39  1  0  0  0
 37 47  1  0  0  0
 37 66  1  0  0  0
 37104  1  0  0  0
 38 43  2  0  0  0
 38 46  1  0  0  0
 38 47  1  0  0  0
 39 64  1  0  0  0
 39 67  2  0  0  0
 40 52  1  0  0  0
 40 53  2  0  0  0
 40 58  1  0  0  0
 41105  1  0  0  0
 41106  1  0  0  0
 41107  1  0  0  0
 41 48  1  0  0  0
 42 43  1  0  0  0
 42 66  1  0  0  0
 42108  1  0  0  0
 42109  1  0  0  0
 43 44  1  0  0  0
 44110  1  0  0  0
 45 46  2  0  0  0
 45111  1  0  0  0
 46112  1  0  0  0
 47113  1  0  0  0
 47114  1  0  0  0
 48 56  1  0  0  0
 48 65  1  0  0  0
 48115  1  0  0  0
 49 50  1  0  0  0
 49 53  1  0  0  0
 49 64  1  0  0  0
 49116  1  0  0  0
 50 51  1  0  0  0
 50117  1  0  0  0
 50118  1  0  0  0
 51 52  1  0  0  0
 51119  1  0  0  0
 51120  1  0  0  0
 52121  1  0  0  0
 52122  1  0  0  0
 53 54  1  0  0  0
 54 55  2  0  0  0
 54123  1  0  0  0
 55 57  1  0  0  0
 55124  1  0  0  0
 56 69  2  0  0  0
 57 58  2  0  0  0
 57125  1  0  0  0
 58126  1  0  0  0
 59 60  1  0  0  0
 59 61  1  0  0  0
 59 62  1  0  0  0
 60127  1  0  0  0
 60128  1  0  0  0
 60129  1  0  0  0
 61130  1  0  0  0
 61131  1  0  0  0
 61132  1  0  0  0
 62133  1  0  0  0
 62134  1  0  0  0
 62135  1  0  0  0
 63 65  1  0  0  0
 63136  1  0  0  0
 63137  1  0  0  0
 63138  1  0  0  0
 64139  1  0  0  0
 65140  1  0  0  0
 68 79  1  0  0  0
 71 73  1  0  0  0
 71141  1  0  0  0
 71142  1  0  0  0
 71 76  1  0  0  0
 72 74  1  0  0  0
 72 76  1  0  0  0
 72143  1  0  0  0
 72144  1  0  0  0
 73 79  1  0  0  0
 73145  1  0  0  0
 73146  1  0  0  0
 74 79  1  0  0  0
 74147  1  0  0  0
 74148  1  0  0  0
 75 77  1  0  0  0
 75 81  1  0  0  0
 75149  1  0  0  0
 75150  1  0  0  0
 76 78  1  0  0  0
 76151  1  0  0  0
 77 78  1  0  0  0
 77 80  1  0  0  0
 77152  1  0  0  0
 78 81  1  0  0  0
 78153  1  0  0  0
 79154  1  0  0  0
 80155  1  0  0  0
M  ISO  4   1 100  68 101  79 101  80 100
M  END
> <chiral flag>
0

> <version>
0

> <s_m_source_file>
/data/baiqing/PycharmProjects/Reinvent-master-3.2/result/LINK_invent/BTK/process_docking_weight1_custom_sum_contain_oxygen_bond_distance_aromatic_linkinvent_7_9_3/rearranged_h_0137.sdf

> <i_m_source_file_index>
54

> <r_mmod_Potential_Energy-OPLS-2005>
794.570617675781

> <r_mmod_Stretch_Energy-OPLS-2005>
368.319885253906

> <r_mmod_Bend_Energy-OPLS-2005>
372.117553710938

> <r_mmod_Torsional_Energy-OPLS-2005>
255.250259399414

> <r_mmod_Improper_Torsional_Energy-OPLS-2005>
4.22387170791626

> <r_mmod_Van_der_Waal_Energy-OPLS-2005>
109.883415222168

> <r_mmod_Electrostatic_Energy-OPLS-2005>
-393.470336914062

> <r_mmod_Solvation_Energy-OPLS-2005>
-214.036346435547

> <b_mmod_Minimization_Converged-OPLS-2005>
0

> <r_mmod_RMS_Derivative-OPLS-2005>
1.01963698863983

$$$$
54
                    3D
 Structure written by MMmdl.
170178  0  0  1  0            999 V2000
  -30.7406  -14.4512   20.5892 C   0  0  0  0  0  0
  -30.4201  -12.3055   19.4163 C   0  0  0  0  0  0
  -29.4991  -12.5213   18.1992 C   0  0  0  0  0  0
  -28.0197  -12.3856   18.6117 C   0  0  0  0  0  0
  -27.6629  -13.2201   19.8724 C   0  0  2  0  0  0
  -28.7070  -13.0018   20.9924 C   0  0  0  0  0  0
  -25.2564  -13.8198   20.5701 C   0  0  0  0  0  0
  -24.1816  -13.0448   20.9169 C   0  0  0  0  0  0
  -24.6394  -11.6917   20.8693 C   0  0  0  0  0  0
  -23.9055  -10.4285   21.0391 C   0  0  0  0  0  0
  -24.3600   -9.4211   21.9179 C   0  0  0  0  0  0
  -23.6289   -8.2235   22.0758 C   0  0  0  0  0  0
  -22.4274   -8.0258   21.3554 C   0  0  0  0  0  0
  -21.9899   -9.0234   20.4659 C   0  0  0  0  0  0
  -22.7225  -10.2122   20.3042 C   0  0  0  0  0  0
  -21.6846   -6.0714   22.5274 C   0  0  0  0  0  0
  -21.3999   -6.5610   23.8214 C   0  0  0  0  0  0
  -21.3671   -5.6766   24.9177 C   0  0  0  0  0  0
  -21.6061   -4.3033   24.7221 C   0  0  0  0  0  0
  -21.8816   -3.8123   23.4333 C   0  0  0  0  0  0
  -21.9197   -4.6938   22.3392 C   0  0  0  0  0  0
  -22.7831  -13.5223   21.1850 C   0  0  0  0  0  0
  -22.1668   -4.2134   21.0967 F   0  0  0  0  0  0
  -21.5646   -3.4516   25.7732 F   0  0  0  0  0  0
  -30.0420  -13.2913   20.4394 N   0  0  0  0  0  0
  -26.3029  -12.9394   20.3347 N   0  0  0  0  0  0
  -25.9321  -11.6537   20.5705 N   0  0  0  0  0  0
  -22.0438  -12.8224   22.0393 N   0  0  0  0  0  0
  -25.4276  -15.1939   20.4219 N   0  0  0  0  0  0
  -31.8419  -14.6383   20.0701 O   0  0  0  0  0  0
  -21.6634   -6.8861   21.4245 O   0  0  0  0  0  0
  -22.3515  -14.5536   20.6717 O   0  0  0  0  0  0
  -24.6162  -31.8738   23.2141 C   0  0  0  0  0  0
  -25.9053  -32.4859   23.8429 C   0  0  1  0  0  0
  -27.2139  -27.4351   20.0723 C   0  0  0  0  0  0
  -25.5911  -33.8652   24.2392 N   0  0  0  0  0  0
  -23.4019  -30.5063   21.5550 C   0  0  2  0  0  0
  -24.8446  -28.9864   20.1063 C   0  0  0  0  0  0
  -22.7411  -29.4722   22.4961 C   0  0  0  0  0  0
  -18.0294  -28.1362   22.8509 C   0  0  0  0  0  0
  -24.1480  -36.7309   23.2639 C   0  0  0  0  0  0
  -25.9362  -30.8380   21.3701 C   0  0  0  0  0  0
  -26.0100  -29.4750   20.7128 C   0  0  0  0  0  0
  -27.1998  -28.7044   20.7000 C   0  0  0  0  0  0
  -26.0363  -26.9965   19.4211 C   0  0  0  0  0  0
  -24.8538  -27.7446   19.4599 C   0  0  0  0  0  0
  -23.6090  -29.8532   20.1649 C   0  0  0  0  0  0
  -25.4086  -36.3137   24.0381 C   0  0  1  0  0  0
  -20.5890  -28.3668   23.1305 C   0  0  2  0  0  0
  -20.6776  -26.9398   22.5416 C   0  0  0  0  0  0
  -19.5743  -26.6385   21.5217 C   0  0  0  0  0  0
  -18.1923  -26.7917   22.1629 C   0  0  0  0  0  0
  -19.1546  -28.8826   23.2913 C   0  0  0  0  0  0
  -18.9468  -30.1429   23.8924 C   0  0  0  0  0  0
  -17.6474  -30.6575   24.0568 C   0  0  0  0  0  0
  -25.9023  -34.9500   23.5179 C   0  0  0  0  0  0
  -16.5361  -29.9084   23.6314 C   0  0  0  0  0  0
  -16.7287  -28.6493   23.0348 C   0  0  0  0  0  0
  -26.4464  -31.6603   25.0735 C   0  0  0  0  0  0
  -25.3713  -31.3729   26.1476 C   0  0  0  0  0  0
  -27.0284  -30.3044   24.6084 C   0  0  0  0  0  0
  -27.6059  -32.4279   25.7496 C   0  0  0  0  0  0
  -27.5595  -37.1802   24.8461 C   0  0  0  0  0  0
  -21.4134  -29.3062   22.3707 N   0  0  0  0  0  0
  -26.4278  -37.3819   23.9448 N   0  0  0  0  0  0
  -24.6697  -31.0850   22.1036 N   0  0  0  0  0  0
  -23.4192  -28.8222   23.2960 O   0  0  0  0  0  0
  -28.3304  -26.6154   20.1158 O   0  0  0  0  0  0
  -26.5560  -34.8947   22.4726 O   0  0  0  0  0  0
  -23.5348  -32.1484   23.7533 O   0  0  0  0  0  0
  -29.4861  -17.8342   21.3157 C   0  0  0  0  0  0
  -29.5259  -21.6134   20.8769 C   0  0  0  0  0  0
  -27.6763  -22.7893   22.1727 C   0  0  0  0  0  0
  -28.1000  -20.3945   22.5788 C   0  0  0  0  0  0
  -28.4861  -22.7735   20.8456 C   0  0  1  0  0  0
  -28.8545  -20.2545   21.2385 C   0  0  2  0  0  0
  -30.5549  -16.3602   24.0408 C   0  0  0  0  0  0
  -32.7591  -16.2219   22.8121 C   0  0  0  0  0  0
  -27.9879  -25.2711   20.5174 C   0  0  0  0  0  0
  -30.6179  -16.7981   21.4912 C   0  0  1  0  0  0
  -29.0888  -24.1844   20.5038 C   0  0  2  0  0  0
  -31.3747  -16.8951   22.8497 C   0  0  0  0  0  0
  -29.8132  -19.1398   21.3075 N   0  0  0  0  0  0
  -30.1193  -15.4312   21.2595 N   0  0  0  0  0  0
  -27.0979  -21.4704   22.5061 N   0  3  0  0  0  0
  -28.3184  -17.4507   21.2061 O   0  0  0  0  0  0
  -29.6027  -24.1318   19.1822 O   0  0  0  0  0  0
  -31.4684  -12.3842   19.1197 H   0  0  0  0  0  0
  -30.2969  -11.2945   19.8098 H   0  0  0  0  0  0
  -29.7411  -11.8026   17.4147 H   0  0  0  0  0  0
  -29.6795  -13.5092   17.7686 H   0  0  0  0  0  0
  -27.8301  -11.3299   18.8068 H   0  0  0  0  0  0
  -27.3722  -12.6625   17.7800 H   0  0  0  0  0  0
  -27.7044  -14.2709   19.5815 H   0  0  0  0  0  0
  -28.6698  -11.9714   21.3482 H   0  0  0  0  0  0
  -28.4697  -13.6173   21.8614 H   0  0  0  0  0  0
  -25.2758   -9.5685   22.4744 H   0  0  0  0  0  0
  -24.0027   -7.4613   22.7455 H   0  0  0  0  0  0
  -21.0833   -8.8732   19.8959 H   0  0  0  0  0  0
  -22.3698  -10.9637   19.6111 H   0  0  0  0  0  0
  -21.1960   -7.6118   23.9693 H   0  0  0  0  0  0
  -21.1518   -6.0505   25.9093 H   0  0  0  0  0  0
  -22.0593   -2.7584   23.2817 H   0  0  0  0  0  0
  -22.4025  -11.9901   22.4832 H   0  0  0  0  0  0
  -21.1053  -13.1269   22.2542 H   0  0  0  0  0  0
  -24.6659  -15.8503   20.5524 H   0  0  0  0  0  0
  -26.3022  -15.6509   20.1904 H   0  0  0  0  0  0
  -26.7134  -32.5591   23.1202 H   0  0  0  0  0  0
  -25.0084  -33.9814   25.0553 H   0  0  0  0  0  0
  -22.6899  -31.3243   21.4242 H   0  0  0  0  0  0
  -23.3781  -35.9603   23.3260 H   0  0  0  0  0  0
  -24.3613  -36.8932   22.2065 H   0  0  0  0  0  0
  -23.7175  -37.6491   23.6636 H   0  0  0  0  0  0
  -26.0504  -31.6040   20.6008 H   0  0  0  0  0  0
  -26.8241  -30.8902   21.9887 H   0  0  0  0  0  0
  -28.0902  -29.0691   21.1921 H   0  0  0  0  0  0
  -25.9992  -26.0760   18.8591 H   0  0  0  0  0  0
  -23.9658  -27.3747   18.9658 H   0  0  0  0  0  0
  -23.7141  -30.6355   19.4116 H   0  0  0  0  0  0
  -22.7306  -29.2769   19.8675 H   0  0  0  0  0  0
  -25.1243  -36.2017   25.0876 H   0  0  0  0  0  0
  -21.0025  -28.3245   24.1407 H   0  0  0  0  0  0
  -20.5674  -26.2283   23.3611 H   0  0  0  0  0  0
  -21.6640  -26.7418   22.1209 H   0  0  0  0  0  0
  -19.6881  -25.6303   21.1228 H   0  0  0  0  0  0
  -19.6664  -27.3214   20.6757 H   0  0  0  0  0  0
  -17.4200  -26.6718   21.4011 H   0  0  0  0  0  0
  -18.0276  -26.0044   22.9002 H   0  0  0  0  0  0
  -19.7951  -30.7233   24.2294 H   0  0  0  0  0  0
  -17.5036  -31.6254   24.5166 H   0  0  0  0  0  0
  -15.5360  -30.2987   23.7602 H   0  0  0  0  0  0
  -15.8701  -28.0812   22.7029 H   0  0  0  0  0  0
  -24.5904  -30.7048   25.7828 H   0  0  0  0  0  0
  -24.8870  -32.2892   26.4861 H   0  0  0  0  0  0
  -25.8052  -30.8957   27.0270 H   0  0  0  0  0  0
  -26.2833  -29.6822   24.1111 H   0  0  0  0  0  0
  -27.4047  -29.7259   25.4529 H   0  0  0  0  0  0
  -27.8671  -30.4380   23.9247 H   0  0  0  0  0  0
  -27.2725  -33.3603   26.2058 H   0  0  0  0  0  0
  -28.3881  -32.6775   25.0318 H   0  0  0  0  0  0
  -28.0687  -31.8379   26.5413 H   0  0  0  0  0  0
  -28.2575  -38.0140   24.7591 H   0  0  0  0  0  0
  -28.1127  -36.2685   24.6153 H   0  0  0  0  0  0
  -27.2348  -37.1307   25.8870 H   0  0  0  0  0  0
  -20.9249  -29.8851   21.7020 H   0  0  0  0  0  0
  -26.0181  -38.2907   24.1445 H   0  0  0  0  0  0
  -30.3055  -21.8504   21.6016 H   0  0  0  0  0  0
  -30.0203  -21.5330   19.9085 H   0  0  0  0  0  0
  -26.8293  -23.4721   22.1101 H   0  0  0  0  0  0
  -28.3037  -23.1384   22.9940 H   0  0  0  0  0  0
  -28.8036  -20.6183   23.3829 H   0  0  0  0  0  0
  -27.5911  -19.4690   22.8498 H   0  0  0  0  0  0
  -27.7740  -22.5296   20.0538 H   0  0  0  0  0  0
  -28.1342  -20.0165   20.4520 H   0  0  0  0  0  0
  -31.0843  -16.5150   24.9817 H   0  0  0  0  0  0
  -30.3647  -15.2904   23.9473 H   0  0  0  0  0  0
  -29.5919  -16.8626   24.1261 H   0  0  0  0  0  0
  -33.3310  -16.4537   23.7117 H   0  0  0  0  0  0
  -33.3455  -16.5631   21.9582 H   0  0  0  0  0  0
  -32.6783  -15.1368   22.7498 H   0  0  0  0  0  0
  -27.6213  -25.3862   21.5382 H   0  0  0  0  0  0
  -27.1667  -24.8430   19.9478 H   0  0  0  0  0  0
  -31.3229  -17.0498   20.6960 H   0  0  0  0  0  0
  -29.8846  -24.4514   21.2005 H   0  0  0  0  0  0
  -31.5622  -17.9523   23.0467 H   0  0  0  0  0  0
  -30.7919  -19.3727   21.4109 H   0  0  0  0  0  0
  -29.1727  -15.2567   21.5623 H   0  0  0  0  0  0
  -26.3940  -21.2226   21.8279 H   0  0  0  0  0  0
  -26.6379  -21.5382   23.4002 H   0  0  0  0  0  0
  -29.8582  -25.0204   18.9466 H   0  0  0  0  0  0
  1 25  1  0  0  0
  1 30  2  0  0  0
  1 84  1  0  0  0
  2  3  1  0  0  0
  2 25  1  0  0  0
  2 88  1  0  0  0
  2 89  1  0  0  0
  3  4  1  0  0  0
  3 90  1  0  0  0
  3 91  1  0  0  0
  4  5  1  0  0  0
  4 92  1  0  0  0
  4 93  1  0  0  0
  5  6  1  0  0  0
  5 26  1  0  0  0
  5 94  1  0  0  0
  6 25  1  0  0  0
  6 95  1  0  0  0
  6 96  1  0  0  0
  7  8  2  0  0  0
  7 26  1  0  0  0
  7 29  1  0  0  0
  8  9  1  0  0  0
  8 22  1  0  0  0
  9 10  1  0  0  0
  9 27  2  0  0  0
 10 11  2  0  0  0
 10 15  1  0  0  0
 11 12  1  0  0  0
 11 97  1  0  0  0
 12 13  2  0  0  0
 12 98  1  0  0  0
 13 14  1  0  0  0
 13 31  1  0  0  0
 14 15  2  0  0  0
 14 99  1  0  0  0
 15100  1  0  0  0
 16 17  2  0  0  0
 16 21  1  0  0  0
 16 31  1  0  0  0
 17 18  1  0  0  0
 17101  1  0  0  0
 18 19  2  0  0  0
 18102  1  0  0  0
 19 20  1  0  0  0
 19 24  1  0  0  0
 20 21  2  0  0  0
 20103  1  0  0  0
 21 23  1  0  0  0
 22 28  1  0  0  0
 22 32  2  0  0  0
 26 27  1  0  0  0
 28104  1  0  0  0
 28105  1  0  0  0
 29106  1  0  0  0
 29107  1  0  0  0
 33 34  1  0  0  0
 33 66  1  0  0  0
 33 70  2  0  0  0
 34 36  1  0  0  0
 34 59  1  0  0  0
 34108  1  0  0  0
 35 44  2  0  0  0
 35 45  1  0  0  0
 35 68  1  0  0  0
 36 56  1  0  0  0
 36109  1  0  0  0
 37 39  1  0  0  0
 37 47  1  0  0  0
 37 66  1  0  0  0
 37110  1  0  0  0
 38 43  2  0  0  0
 38 46  1  0  0  0
 38 47  1  0  0  0
 39 64  1  0  0  0
 39 67  2  0  0  0
 40 52  1  0  0  0
 40 53  2  0  0  0
 40 58  1  0  0  0
 41111  1  0  0  0
 41112  1  0  0  0
 41113  1  0  0  0
 41 48  1  0  0  0
 42 43  1  0  0  0
 42 66  1  0  0  0
 42114  1  0  0  0
 42115  1  0  0  0
 43 44  1  0  0  0
 44116  1  0  0  0
 45 46  2  0  0  0
 45117  1  0  0  0
 46118  1  0  0  0
 47119  1  0  0  0
 47120  1  0  0  0
 48 56  1  0  0  0
 48 65  1  0  0  0
 48121  1  0  0  0
 49 50  1  0  0  0
 49 53  1  0  0  0
 49 64  1  0  0  0
 49122  1  0  0  0
 50 51  1  0  0  0
 50123  1  0  0  0
 50124  1  0  0  0
 51 52  1  0  0  0
 51125  1  0  0  0
 51126  1  0  0  0
 52127  1  0  0  0
 52128  1  0  0  0
 53 54  1  0  0  0
 54 55  2  0  0  0
 54129  1  0  0  0
 55 57  1  0  0  0
 55130  1  0  0  0
 56 69  2  0  0  0
 57 58  2  0  0  0
 57131  1  0  0  0
 58132  1  0  0  0
 59 60  1  0  0  0
 59 61  1  0  0  0
 59 62  1  0  0  0
 60133  1  0  0  0
 60134  1  0  0  0
 60135  1  0  0  0
 61136  1  0  0  0
 61137  1  0  0  0
 61138  1  0  0  0
 62139  1  0  0  0
 62140  1  0  0  0
 62141  1  0  0  0
 63 65  1  0  0  0
 63142  1  0  0  0
 63143  1  0  0  0
 63144  1  0  0  0
 64145  1  0  0  0
 65146  1  0  0  0
 68 79  1  0  0  0
 71 80  1  0  0  0
 71 83  1  0  0  0
 71 86  2  0  0  0
 72 76  1  0  0  0
 72147  1  0  0  0
 72148  1  0  0  0
 72 75  1  0  0  0
 73 75  1  0  0  0
 73 85  1  0  0  0
 73149  1  0  0  0
 73150  1  0  0  0
 74 76  1  0  0  0
 74 85  1  0  0  0
 74151  1  0  0  0
 74152  1  0  0  0
 75 81  1  0  0  0
 75153  1  0  0  0
 76 83  1  0  0  0
 76154  1  0  0  0
 77155  1  0  0  0
 77156  1  0  0  0
 77157  1  0  0  0
 77 82  1  0  0  0
 78 82  1  0  0  0
 78158  1  0  0  0
 78159  1  0  0  0
 78160  1  0  0  0
 79 81  1  0  0  0
 79161  1  0  0  0
 79162  1  0  0  0
 80 82  1  0  0  0
 80 84  1  0  0  0
 80163  1  0  0  0
 81 87  1  0  0  0
 81164  1  0  0  0
 82165  1  0  0  0
 83166  1  0  0  0
 84167  1  0  0  0
 85168  1  0  0  0
 85169  1  0  0  0
 87170  1  0  0  0
M  CHG  1  85   1
M  ISO  4   1 100  68 101  79 101  84 100
M  END
> <chiral flag>
0

> <version>
0

> <s_m_source_file>
/data/baiqing/PycharmProjects/Reinvent-master-3.2/result/LINK_invent/BTK/process_docking_weight1_custom_sum_contain_oxygen_bond_distance_aromatic_linkinvent_7_9_3/rearranged_h_0137.sdf

> <i_m_source_file_index>
55

> <r_mmod_Potential_Energy-OPLS-2005>
-383.072875976562

> <r_mmod_Stretch_Energy-OPLS-2005>
41.9202194213867

> <r_mmod_Bend_Energy-OPLS-2005>
105.960998535156

> <r_mmod_Torsional_Energy-OPLS-2005>
263.949951171875

> <r_mmod_Improper_Torsional_Energy-OPLS-2005>
2.43788433074951

> <r_mmod_Van_der_Waal_Energy-OPLS-2005>
151.399154663086

> <r_mmod_Electrostatic_Energy-OPLS-2005>
-468.284271240234

> <r_mmod_Solvation_Energy-OPLS-2005>
-496.470123291016

> <b_mmod_Minimization_Converged-OPLS-2005>
0

> <r_mmod_RMS_Derivative-OPLS-2005>
3.13745832443237

$$$$
55
                    3D
 Structure written by MMmdl.
167176  0  0  1  0            999 V2000
  -30.5444  -14.9233   20.4231 C   0  0  0  0  0  0
  -30.4375  -12.5708   19.4971 C   0  0  0  0  0  0
  -29.5209  -12.5244   18.2530 C   0  0  0  0  0  0
  -28.0517  -12.3178   18.6680 C   0  0  0  0  0  0
  -27.6292  -13.2458   19.8374 C   0  0  2  0  0  0
  -28.6694  -13.2647   20.9762 C   0  0  0  0  0  0
  -25.2452  -13.8212   20.5690 C   0  0  0  0  0  0
  -24.1771  -13.0437   20.9216 C   0  0  0  0  0  0
  -24.6387  -11.6921   20.8743 C   0  0  0  0  0  0
  -23.9072  -10.4291   21.0403 C   0  0  0  0  0  0
  -24.3622   -9.4209   21.9183 C   0  0  0  0  0  0
  -23.6291   -8.2247   22.0760 C   0  0  0  0  0  0
  -22.4271   -8.0283   21.3554 C   0  0  0  0  0  0
  -21.9905   -9.0256   20.4654 C   0  0  0  0  0  0
  -22.7241  -10.2132   20.3055 C   0  0  0  0  0  0
  -21.6856   -6.0727   22.5274 C   0  0  0  0  0  0
  -21.4021   -6.5634   23.8207 C   0  0  0  0  0  0
  -21.3661   -5.6788   24.9171 C   0  0  0  0  0  0
  -21.6044   -4.3051   24.7225 C   0  0  0  0  0  0
  -21.8820   -3.8139   23.4347 C   0  0  0  0  0  0
  -21.9194   -4.6955   22.3400 C   0  0  0  0  0  0
  -22.7792  -13.5213   21.1868 C   0  0  0  0  0  0
  -22.1662   -4.2140   21.0978 F   0  0  0  0  0  0
  -21.5629   -3.4537   25.7740 F   0  0  0  0  0  0
  -29.9470  -13.6680   20.3779 N   0  0  0  0  0  0
  -26.2872  -12.9440   20.3219 N   0  0  0  0  0  0
  -25.9314  -11.6570   20.5721 N   0  0  0  0  0  0
  -22.0439  -12.8207   22.0430 N   0  0  0  0  0  0
  -25.4114  -15.1945   20.4111 N   0  0  0  0  0  0
  -31.7479  -14.9921   20.1580 O   0  0  0  0  0  0
  -21.6643   -6.8873   21.4239 O   0  0  0  0  0  0
  -22.3472  -14.5512   20.6706 O   0  0  0  0  0  0
  -24.6406  -31.8442   23.1874 C   0  0  0  0  0  0
  -25.9188  -32.4689   23.8262 C   0  0  1  0  0  0
  -27.2226  -27.1459   20.1591 C   0  0  0  0  0  0
  -25.5946  -33.8496   24.2184 N   0  0  0  0  0  0
  -23.4432  -30.4600   21.5326 C   0  0  2  0  0  0
  -24.8921  -28.8775   20.1169 C   0  0  0  0  0  0
  -22.7549  -29.4539   22.4879 C   0  0  0  0  0  0
  -18.0301  -28.1387   22.8478 C   0  0  0  0  0  0
  -24.1496  -36.7255   23.2644 C   0  0  0  0  0  0
  -25.9956  -30.7193   21.3844 C   0  0  0  0  0  0
  -26.0655  -29.3275   20.7346 C   0  0  0  0  0  0
  -27.2286  -28.4757   20.7390 C   0  0  0  0  0  0
  -26.0242  -26.7841   19.5110 C   0  0  0  0  0  0
  -24.8820  -27.6179   19.4933 C   0  0  0  0  0  0
  -23.6690  -29.7809   20.1544 C   0  0  0  0  0  0
  -25.4127  -36.3026   24.0314 C   0  0  1  0  0  0
  -20.5911  -28.3707   23.1249 C   0  0  2  0  0  0
  -20.6785  -26.9414   22.5409 C   0  0  0  0  0  0
  -19.5761  -26.6375   21.5215 C   0  0  0  0  0  0
  -18.1941  -26.7926   22.1626 C   0  0  0  0  0  0
  -19.1557  -28.8867   23.2854 C   0  0  0  0  0  0
  -18.9473  -30.1467   23.8873 C   0  0  0  0  0  0
  -17.6469  -30.6585   24.0557 C   0  0  0  0  0  0
  -25.9073  -34.9401   23.5061 C   0  0  0  0  0  0
  -16.5361  -29.9076   23.6334 C   0  0  0  0  0  0
  -16.7286  -28.6497   23.0352 C   0  0  0  0  0  0
  -26.4518  -31.6557   25.0702 C   0  0  0  0  0  0
  -25.3707  -31.3748   26.1402 C   0  0  0  0  0  0
  -27.0383  -30.2955   24.6278 C   0  0  0  0  0  0
  -27.6050  -32.4323   25.7482 C   0  0  0  0  0  0
  -27.5576  -37.1785   24.8465 C   0  0  0  0  0  0
  -21.4245  -29.3033   22.3624 N   0  0  0  0  0  0
  -26.4289  -37.3739   23.9402 N   0  0  0  0  0  0
  -24.7126  -31.0304   22.0898 N   0  0  0  0  0  0
  -23.4201  -28.8102   23.3034 O   0  0  0  0  0  0
  -28.3385  -26.2427   20.1546 O   0  0  0  0  0  0
  -26.5661  -34.8899   22.4640 O   0  0  0  0  0  0
  -23.5533  -32.1321   23.7107 O   0  0  0  0  0  0
  -29.1682  -24.1411   21.2955 C   0  0  0  0  0  0
  -29.4874  -22.7282   21.3446 C   0  0  0  0  0  0
  -27.9490  -23.7881   19.3257 C   0  0  0  0  0  0
  -28.2786  -22.3548   19.3524 C   0  0  0  0  0  0
  -28.3930  -24.7778   20.2757 C   0  0  0  0  0  0
  -29.0827  -21.7383   20.3888 C   0  0  0  0  0  0
  -31.2210  -23.5038   15.7777 C   0  0  0  0  0  0
  -30.3461  -23.5488   17.0323 C   0  0  0  0  0  0
  -30.1138  -22.6725   15.1248 C   0  0  0  0  0  0
  -29.6403  -22.2763   16.5329 C   0  0  0  0  0  0
  -26.3018  -21.1952   18.3124 C   0  0  0  0  0  0
  -28.1455  -22.0618   16.7824 C   0  0  0  0  0  0
  -30.1727  -17.6321   20.4808 C   0  0  0  0  0  0
  -29.1363  -18.9633   20.4038 C   0  0  0  0  0  0
  -27.8018  -21.4957   18.1819 C   0  0  1  0  0  0
  -29.7705  -16.1063   20.5539 N   0  0  0  0  0  0
  -29.6926  -20.4004   20.4501 O   0  0  0  0  0  0
  -31.4734  -12.7237   19.1905 H   0  0  0  0  0  0
  -30.4223  -11.6172   20.0270 H   0  0  0  0  0  0
  -29.8358  -11.7265   17.5790 H   0  0  0  0  0  0
  -29.6175  -13.4556   17.6924 H   0  0  0  0  0  0
  -27.9380  -11.2752   18.9662 H   0  0  0  0  0  0
  -27.3923  -12.4624   17.8112 H   0  0  0  0  0  0
  -27.5970  -14.2503   19.4142 H   0  0  0  0  0  0
  -28.7492  -12.2876   21.4551 H   0  0  0  0  0  0
  -28.3733  -13.9691   21.7553 H   0  0  0  0  0  0
  -25.2768   -9.5686   22.4755 H   0  0  0  0  0  0
  -24.0000   -7.4639   22.7479 H   0  0  0  0  0  0
  -21.0837   -8.8777   19.8956 H   0  0  0  0  0  0
  -22.3701  -10.9671   19.6162 H   0  0  0  0  0  0
  -21.2018   -7.6142   23.9707 H   0  0  0  0  0  0
  -21.1481   -6.0520   25.9074 H   0  0  0  0  0  0
  -22.0597   -2.7601   23.2849 H   0  0  0  0  0  0
  -22.4061  -11.9888   22.4845 H   0  0  0  0  0  0
  -21.1054  -13.1234   22.2624 H   0  0  0  0  0  0
  -24.6392  -15.8424   20.5226 H   0  0  0  0  0  0
  -26.2480  -15.6365   20.0534 H   0  0  0  0  0  0
  -26.7249  -32.5301   23.0987 H   0  0  0  0  0  0
  -25.0063  -33.9610   25.0310 H   0  0  0  0  0  0
  -22.7451  -31.2847   21.3749 H   0  0  0  0  0  0
  -23.3756  -35.9589   23.3293 H   0  0  0  0  0  0
  -24.3586  -36.8902   22.2063 H   0  0  0  0  0  0
  -23.7254  -37.6449   23.6691 H   0  0  0  0  0  0
  -26.1497  -31.4703   20.6085 H   0  0  0  0  0  0
  -26.8673  -30.7731   22.0252 H   0  0  0  0  0  0
  -28.1314  -28.8206   21.2234 H   0  0  0  0  0  0
  -25.9566  -25.8219   19.0270 H   0  0  0  0  0  0
  -23.9849  -27.2676   19.0010 H   0  0  0  0  0  0
  -23.8064  -30.5506   19.3941 H   0  0  0  0  0  0
  -22.7842  -29.2206   19.8462 H   0  0  0  0  0  0
  -25.1317  -36.1852   25.0805 H   0  0  0  0  0  0
  -21.0002  -28.3291   24.1373 H   0  0  0  0  0  0
  -20.5680  -26.2317   23.3623 H   0  0  0  0  0  0
  -21.6652  -26.7421   22.1208 H   0  0  0  0  0  0
  -19.6919  -25.6281   21.1256 H   0  0  0  0  0  0
  -19.6696  -27.3173   20.6736 H   0  0  0  0  0  0
  -17.4211  -26.6672   21.4028 H   0  0  0  0  0  0
  -18.0336  -26.0071   22.9025 H   0  0  0  0  0  0
  -19.7948  -30.7292   24.2227 H   0  0  0  0  0  0
  -17.5019  -31.6264   24.5160 H   0  0  0  0  0  0
  -15.5358  -30.2967   23.7666 H   0  0  0  0  0  0
  -15.8691  -28.0804   22.7076 H   0  0  0  0  0  0
  -24.5878  -30.7106   25.7721 H   0  0  0  0  0  0
  -24.8907  -32.2934   26.4788 H   0  0  0  0  0  0
  -25.7992  -30.8941   27.0205 H   0  0  0  0  0  0
  -26.2997  -29.6672   24.1289 H   0  0  0  0  0  0
  -27.4002  -29.7259   25.4847 H   0  0  0  0  0  0
  -27.8898  -30.4191   23.9584 H   0  0  0  0  0  0
  -27.2644  -33.3643   26.2005 H   0  0  0  0  0  0
  -28.3886  -32.6856   25.0326 H   0  0  0  0  0  0
  -28.0687  -31.8486   26.5446 H   0  0  0  0  0  0
  -28.2586  -38.0087   24.7503 H   0  0  0  0  0  0
  -28.1080  -36.2618   24.6298 H   0  0  0  0  0  0
  -27.2295  -37.1435   25.8868 H   0  0  0  0  0  0
  -20.9455  -29.8737   21.6795 H   0  0  0  0  0  0
  -26.0155  -38.2807   24.1396 H   0  0  0  0  0  0
  -29.5999  -24.7741   22.0577 H   0  0  0  0  0  0
  -30.1342  -22.4020   22.1463 H   0  0  0  0  0  0
  -27.3884  -24.1553   18.4803 H   0  0  0  0  0  0
  -32.1459  -22.9428   15.9239 H   0  0  0  0  0  0
  -31.4033  -24.4726   15.3106 H   0  0  0  0  0  0
  -29.6909  -24.4217   17.0532 H   0  0  0  0  0  0
  -30.8852  -23.4333   17.9740 H   0  0  0  0  0  0
  -30.4669  -21.8431   14.5104 H   0  0  0  0  0  0
  -29.3878  -23.2860   14.5869 H   0  0  0  0  0  0
  -30.2140  -21.4030   16.8522 H   0  0  0  0  0  0
  -26.0819  -20.7110   19.2643 H   0  0  0  0  0  0
  -25.9628  -20.5266   17.5205 H   0  0  0  0  0  0
  -25.7053  -22.1064   18.2564 H   0  0  0  0  0  0
  -27.7664  -21.3641   16.0343 H   0  0  0  0  0  0
  -27.5992  -22.9872   16.6001 H   0  0  0  0  0  0
  -30.8129  -17.7951   21.3483 H   0  0  0  0  0  0
  -30.8461  -17.7168   19.6270 H   0  0  0  0  0  0
  -28.4374  -18.8862   21.2370 H   0  0  0  0  0  0
  -28.5239  -18.8470   19.5124 H   0  0  0  0  0  0
  -28.3256  -20.5458   18.2358 H   0  0  0  0  0  0
  -28.7887  -15.9372   20.7141 H   0  0  0  0  0  0
  1 25  1  0  0  0
  1 30  2  0  0  0
  1 86  1  0  0  0
  2  3  1  0  0  0
  2 25  1  0  0  0
  2 88  1  0  0  0
  2 89  1  0  0  0
  3  4  1  0  0  0
  3 90  1  0  0  0
  3 91  1  0  0  0
  4  5  1  0  0  0
  4 92  1  0  0  0
  4 93  1  0  0  0
  5  6  1  0  0  0
  5 26  1  0  0  0
  5 94  1  0  0  0
  6 25  1  0  0  0
  6 95  1  0  0  0
  6 96  1  0  0  0
  7  8  2  0  0  0
  7 26  1  0  0  0
  7 29  1  0  0  0
  8  9  1  0  0  0
  8 22  1  0  0  0
  9 10  1  0  0  0
  9 27  2  0  0  0
 10 11  2  0  0  0
 10 15  1  0  0  0
 11 12  1  0  0  0
 11 97  1  0  0  0
 12 13  2  0  0  0
 12 98  1  0  0  0
 13 14  1  0  0  0
 13 31  1  0  0  0
 14 15  2  0  0  0
 14 99  1  0  0  0
 15100  1  0  0  0
 16 17  2  0  0  0
 16 21  1  0  0  0
 16 31  1  0  0  0
 17 18  1  0  0  0
 17101  1  0  0  0
 18 19  2  0  0  0
 18102  1  0  0  0
 19 20  1  0  0  0
 19 24  1  0  0  0
 20 21  2  0  0  0
 20103  1  0  0  0
 21 23  1  0  0  0
 22 28  1  0  0  0
 22 32  2  0  0  0
 26 27  1  0  0  0
 28104  1  0  0  0
 28105  1  0  0  0
 29106  1  0  0  0
 29107  1  0  0  0
 33 34  1  0  0  0
 33 66  1  0  0  0
 33 70  2  0  0  0
 34 36  1  0  0  0
 34 59  1  0  0  0
 34108  1  0  0  0
 35 44  2  0  0  0
 35 45  1  0  0  0
 35 68  1  0  0  0
 36 56  1  0  0  0
 36109  1  0  0  0
 37 39  1  0  0  0
 37 47  1  0  0  0
 37 66  1  0  0  0
 37110  1  0  0  0
 38 43  2  0  0  0
 38 46  1  0  0  0
 38 47  1  0  0  0
 39 64  1  0  0  0
 39 67  2  0  0  0
 40 52  1  0  0  0
 40 53  2  0  0  0
 40 58  1  0  0  0
 41111  1  0  0  0
 41112  1  0  0  0
 41113  1  0  0  0
 41 48  1  0  0  0
 42 43  1  0  0  0
 42 66  1  0  0  0
 42114  1  0  0  0
 42115  1  0  0  0
 43 44  1  0  0  0
 44116  1  0  0  0
 45 46  2  0  0  0
 45117  1  0  0  0
 46118  1  0  0  0
 47119  1  0  0  0
 47120  1  0  0  0
 48 56  1  0  0  0
 48 65  1  0  0  0
 48121  1  0  0  0
 49 50  1  0  0  0
 49 53  1  0  0  0
 49 64  1  0  0  0
 49122  1  0  0  0
 50 51  1  0  0  0
 50123  1  0  0  0
 50124  1  0  0  0
 51 52  1  0  0  0
 51125  1  0  0  0
 51126  1  0  0  0
 52127  1  0  0  0
 52128  1  0  0  0
 53 54  1  0  0  0
 54 55  2  0  0  0
 54129  1  0  0  0
 55 57  1  0  0  0
 55130  1  0  0  0
 56 69  2  0  0  0
 57 58  2  0  0  0
 57131  1  0  0  0
 58132  1  0  0  0
 59 60  1  0  0  0
 59 61  1  0  0  0
 59 62  1  0  0  0
 60133  1  0  0  0
 60134  1  0  0  0
 60135  1  0  0  0
 61136  1  0  0  0
 61137  1  0  0  0
 61138  1  0  0  0
 62139  1  0  0  0
 62140  1  0  0  0
 62141  1  0  0  0
 63 65  1  0  0  0
 63142  1  0  0  0
 63143  1  0  0  0
 63144  1  0  0  0
 64145  1  0  0  0
 65146  1  0  0  0
 68 75  1  0  0  0
 71 72  2  0  0  0
 71 75  1  0  0  0
 71147  1  0  0  0
 72 76  1  0  0  0
 72148  1  0  0  0
 73 74  1  0  0  0
 73 75  2  0  0  0
 73149  1  0  0  0
 74 76  2  0  0  0
 74 85  1  0  0  0
 76 87  1  0  0  0
 77 78  1  0  0  0
 77 79  1  0  0  0
 77150  1  0  0  0
 77151  1  0  0  0
 78 80  1  0  0  0
 78152  1  0  0  0
 78153  1  0  0  0
 79 80  1  0  0  0
 79154  1  0  0  0
 79155  1  0  0  0
 80 82  1  0  0  0
 80156  1  0  0  0
 81157  1  0  0  0
 81158  1  0  0  0
 81159  1  0  0  0
 81 85  1  0  0  0
 82 85  1  0  0  0
 82160  1  0  0  0
 82161  1  0  0  0
 83 84  1  0  0  0
 83 86  1  0  0  0
 83162  1  0  0  0
 83163  1  0  0  0
 84 87  1  0  0  0
 84164  1  0  0  0
 84165  1  0  0  0
 85166  1  0  0  0
 86167  1  0  0  0
M  ISO  4   1 100  68 101  75 101  86 100
M  END
> <chiral flag>
0

> <version>
0

> <s_m_source_file>
/data/baiqing/PycharmProjects/Reinvent-master-3.2/result/LINK_invent/BTK/process_docking_weight1_custom_sum_contain_oxygen_bond_distance_aromatic_linkinvent_7_9_3/rearranged_h_0137.sdf

> <i_m_source_file_index>
56

> <r_mmod_Potential_Energy-OPLS-2005>
468.145812988281

> <r_mmod_Stretch_Energy-OPLS-2005>
219.311676025391

> <r_mmod_Bend_Energy-OPLS-2005>
291.279296875

> <r_mmod_Torsional_Energy-OPLS-2005>
264.403900146484

> <r_mmod_Improper_Torsional_Energy-OPLS-2005>
7.72052812576294

> <r_mmod_Van_der_Waal_Energy-OPLS-2005>
122.644668579102

> <r_mmod_Electrostatic_Energy-OPLS-2005>
-399.055572509766

> <r_mmod_Solvation_Energy-OPLS-2005>
-207.970062255859

> <b_mmod_Minimization_Converged-OPLS-2005>
0

> <r_mmod_RMS_Derivative-OPLS-2005>
0.78090226650238

$$$$
56
                    3D
 Structure written by MMmdl.
164173  0  0  1  0            999 V2000
  -30.6133  -14.5644   20.5390 C   0  0  0  0  0  0
  -30.4374  -12.3474   19.4517 C   0  0  0  0  0  0
  -29.5041  -12.4923   18.2277 C   0  0  0  0  0  0
  -28.0261  -12.3291   18.6353 C   0  0  0  0  0  0
  -27.6531  -13.1851   19.8715 C   0  0  2  0  0  0
  -28.6921  -13.0060   21.0051 C   0  0  0  0  0  0
  -25.2523  -13.7808   20.5553 C   0  0  0  0  0  0
  -24.1791  -13.0231   20.9235 C   0  0  0  0  0  0
  -24.6341  -11.6719   20.8783 C   0  0  0  0  0  0
  -23.8985  -10.4169   21.0429 C   0  0  0  0  0  0
  -24.3552   -9.4104   21.9212 C   0  0  0  0  0  0
  -23.6228   -8.2153   22.0759 C   0  0  0  0  0  0
  -22.4214   -8.0215   21.3541 C   0  0  0  0  0  0
  -21.9847   -9.0180   20.4640 C   0  0  0  0  0  0
  -22.7163  -10.2052   20.3061 C   0  0  0  0  0  0
  -21.6815   -6.0693   22.5278 C   0  0  0  0  0  0
  -21.3989   -6.5604   23.8205 C   0  0  0  0  0  0
  -21.3651   -5.6764   24.9170 C   0  0  0  0  0  0
  -21.6051   -4.3030   24.7230 C   0  0  0  0  0  0
  -21.8818   -3.8117   23.4349 C   0  0  0  0  0  0
  -21.9180   -4.6930   22.3401 C   0  0  0  0  0  0
  -22.7854  -13.5143   21.1867 C   0  0  0  0  0  0
  -22.1652   -4.2116   21.0982 F   0  0  0  0  0  0
  -21.5639   -3.4517   25.7747 F   0  0  0  0  0  0
  -30.0161  -13.3420   20.4565 N   0  0  0  0  0  0
  -26.2973  -12.9045   20.3318 N   0  0  0  0  0  0
  -25.9273  -11.6244   20.5812 N   0  0  0  0  0  0
  -22.0452  -12.8215   22.0437 N   0  0  0  0  0  0
  -25.4182  -15.1349   20.3563 N   0  0  0  0  0  0
  -31.7504  -14.7739   20.1034 O   0  0  0  0  0  0
  -21.6563   -6.8828   21.4242 O   0  0  0  0  0  0
  -22.3617  -14.5470   20.6672 O   0  0  0  0  0  0
  -24.6139  -31.8661   23.2074 C   0  0  0  0  0  0
  -25.9037  -32.4804   23.8371 C   0  0  1  0  0  0
  -27.2566  -27.4402   20.1094 C   0  0  0  0  0  0
  -25.5900  -33.8609   24.2312 N   0  0  0  0  0  0
  -23.4027  -30.4868   21.5458 C   0  0  2  0  0  0
  -24.8554  -28.9413   20.1235 C   0  0  0  0  0  0
  -22.7391  -29.4655   22.4971 C   0  0  0  0  0  0
  -18.0267  -28.1375   22.8482 C   0  0  0  0  0  0
  -24.1486  -36.7324   23.2638 C   0  0  0  0  0  0
  -25.9280  -30.8351   21.3574 C   0  0  0  0  0  0
  -26.0106  -29.4632   20.7190 C   0  0  0  0  0  0
  -27.2134  -28.7208   20.7066 C   0  0  0  0  0  0
  -26.0853  -26.9245   19.5158 C   0  0  0  0  0  0
  -24.8866  -27.6699   19.5208 C   0  0  0  0  0  0
  -23.6146  -29.8085   20.1643 C   0  0  0  0  0  0
  -25.4102  -36.3101   24.0332 C   0  0  1  0  0  0
  -20.5852  -28.3667   23.1312 C   0  0  2  0  0  0
  -20.6757  -26.9403   22.5419 C   0  0  0  0  0  0
  -19.5743  -26.6387   21.5203 C   0  0  0  0  0  0
  -18.1919  -26.7924   22.1613 C   0  0  0  0  0  0
  -19.1514  -28.8834   23.2897 C   0  0  0  0  0  0
  -18.9449  -30.1438   23.8908 C   0  0  0  0  0  0
  -17.6455  -30.6584   24.0567 C   0  0  0  0  0  0
  -25.9023  -34.9466   23.5114 C   0  0  0  0  0  0
  -16.5343  -29.9089   23.6325 C   0  0  0  0  0  0
  -16.7258  -28.6506   23.0339 C   0  0  0  0  0  0
  -26.4478  -31.6581   25.0697 C   0  0  0  0  0  0
  -25.3762  -31.3696   26.1459 C   0  0  0  0  0  0
  -27.0298  -30.3018   24.6066 C   0  0  0  0  0  0
  -27.6045  -32.4295   25.7476 C   0  0  0  0  0  0
  -27.5569  -37.1813   24.8458 C   0  0  0  0  0  0
  -21.4115  -29.3037   22.3714 N   0  0  0  0  0  0
  -26.4284  -37.3786   23.9405 N   0  0  0  0  0  0
  -24.6659  -31.0771   22.0962 N   0  0  0  0  0  0
  -23.4161  -28.8198   23.3014 O   0  0  0  0  0  0
  -28.4537  -26.7622   20.0174 O   0  0  0  0  0  0
  -26.5584  -34.8922   22.4672 O   0  0  0  0  0  0
  -23.5334  -32.1408   23.7479 O   0  0  0  0  0  0
  -26.9210  -20.3797   19.3958 C   0  0  0  0  0  0
  -27.5065  -21.6435   19.4623 C   0  0  0  0  0  0
  -29.2882  -20.7186   20.8283 C   0  0  0  0  0  0
  -27.4505  -19.2933   20.1174 C   0  0  0  0  0  0
  -28.7312  -19.4043   20.7324 C   0  0  0  0  0  0
  -28.6412  -21.8614   20.2702 C   0  0  0  0  0  0
  -25.0255  -18.3075   20.3437 C   0  0  0  0  0  0
  -25.7724  -18.0237   21.6200 C   0  0  0  0  0  0
  -26.5375  -18.1269   20.3116 C   0  0  0  0  0  0
  -29.8246  -16.9842   20.3858 C   0  0  0  0  0  0
  -28.6365  -25.5901   20.8267 C   0  0  0  0  0  0
  -28.2981  -24.2651   20.1045 C   0  0  0  0  0  0
  -29.4564  -18.1716   21.3669 C   0  0  2  0  0  0
  -29.7884  -15.5815   20.9086 N   0  0  0  0  0  0
  -28.7755  -17.7229   22.5889 N   0  3  0  0  0  0
  -29.1065  -23.1435   20.5386 O   0  0  0  0  0  0
  -31.4810  -12.4693   19.1536 H   0  0  0  0  0  0
  -30.3666  -11.3432   19.8701 H   0  0  0  0  0  0
  -29.7594  -11.7535   17.4672 H   0  0  0  0  0  0
  -29.6514  -13.4718   17.7702 H   0  0  0  0  0  0
  -27.8551  -11.2758   18.8608 H   0  0  0  0  0  0
  -27.3727  -12.5637   17.7934 H   0  0  0  0  0  0
  -27.6773  -14.2236   19.5429 H   0  0  0  0  0  0
  -28.6913  -11.9758   21.3639 H   0  0  0  0  0  0
  -28.4385  -13.6117   21.8768 H   0  0  0  0  0  0
  -25.2705   -9.5565   22.4777 H   0  0  0  0  0  0
  -23.9926   -7.4518   22.7451 H   0  0  0  0  0  0
  -21.0788   -8.8664   19.8937 H   0  0  0  0  0  0
  -22.3623  -10.9584   19.6156 H   0  0  0  0  0  0
  -21.1967   -7.6113   23.9686 H   0  0  0  0  0  0
  -21.1485   -6.0508   25.9066 H   0  0  0  0  0  0
  -22.0614   -2.7582   23.2852 H   0  0  0  0  0  0
  -22.4023  -11.9889   22.4890 H   0  0  0  0  0  0
  -21.1063  -13.1261   22.2548 H   0  0  0  0  0  0
  -24.6074  -15.7431   20.3564 H   0  0  0  0  0  0
  -26.1820  -15.4953   19.8046 H   0  0  0  0  0  0
  -26.7115  -32.5535   23.1144 H   0  0  0  0  0  0
  -25.0065  -33.9765   25.0469 H   0  0  0  0  0  0
  -22.6918  -31.3031   21.4003 H   0  0  0  0  0  0
  -23.3721  -35.9682   23.3303 H   0  0  0  0  0  0
  -24.3581  -36.8937   22.2049 H   0  0  0  0  0  0
  -23.7266  -37.6544   23.6652 H   0  0  0  0  0  0
  -26.0293  -31.5937   20.5799 H   0  0  0  0  0  0
  -26.8195  -30.9009   21.9692 H   0  0  0  0  0  0
  -28.1109  -29.1328   21.1458 H   0  0  0  0  0  0
  -26.1073  -25.9618   19.0256 H   0  0  0  0  0  0
  -24.0014  -27.2637   19.0497 H   0  0  0  0  0  0
  -23.7202  -30.5781   19.3984 H   0  0  0  0  0  0
  -22.7408  -29.2230   19.8719 H   0  0  0  0  0  0
  -25.1279  -36.1952   25.0824 H   0  0  0  0  0  0
  -20.9951  -28.3239   24.1427 H   0  0  0  0  0  0
  -20.5641  -26.2271   23.3601 H   0  0  0  0  0  0
  -21.6630  -26.7434   22.1218 H   0  0  0  0  0  0
  -19.6905  -25.6299   21.1218 H   0  0  0  0  0  0
  -19.6692  -27.3206   20.6738 H   0  0  0  0  0  0
  -17.4187  -26.6659   21.4019 H   0  0  0  0  0  0
  -18.0333  -26.0067   22.9011 H   0  0  0  0  0  0
  -19.7930  -30.7247   24.2279 H   0  0  0  0  0  0
  -17.5017  -31.6262   24.5170 H   0  0  0  0  0  0
  -15.5346  -30.3000   23.7644 H   0  0  0  0  0  0
  -15.8654  -28.0839   22.7040 H   0  0  0  0  0  0
  -24.5917  -30.7055   25.7817 H   0  0  0  0  0  0
  -24.8985  -32.2863   26.4927 H   0  0  0  0  0  0
  -25.8137  -30.8857   27.0201 H   0  0  0  0  0  0
  -26.2829  -29.6777   24.1143 H   0  0  0  0  0  0
  -27.4085  -29.7253   25.4516 H   0  0  0  0  0  0
  -27.8658  -30.4317   23.9189 H   0  0  0  0  0  0
  -27.2647  -33.3575   26.2090 H   0  0  0  0  0  0
  -28.3861  -32.6882   25.0321 H   0  0  0  0  0  0
  -28.0710  -31.8395   26.5377 H   0  0  0  0  0  0
  -28.2590  -38.0106   24.7486 H   0  0  0  0  0  0
  -28.1058  -36.2631   24.6297 H   0  0  0  0  0  0
  -27.2289  -37.1485   25.8865 H   0  0  0  0  0  0
  -20.9257  -29.8781   21.6967 H   0  0  0  0  0  0
  -26.0161  -38.2860   24.1406 H   0  0  0  0  0  0
  -25.9915  -20.2854   18.8545 H   0  0  0  0  0  0
  -27.0007  -22.4402   18.9381 H   0  0  0  0  0  0
  -30.2049  -20.8654   21.3823 H   0  0  0  0  0  0
  -24.5927  -19.3024   20.2595 H   0  0  0  0  0  0
  -24.4031  -17.5154   19.9372 H   0  0  0  0  0  0
  -25.6140  -17.0496   22.0752 H   0  0  0  0  0  0
  -25.8233  -18.8544   22.3220 H   0  0  0  0  0  0
  -26.9129  -17.2301   19.8278 H   0  0  0  0  0  0
  -29.1390  -17.0053   19.5397 H   0  0  0  0  0  0
  -30.7990  -17.1917   19.9411 H   0  0  0  0  0  0
  -29.6947  -25.5755   21.0876 H   0  0  0  0  0  0
  -28.0951  -25.6680   21.7710 H   0  0  0  0  0  0
  -28.4466  -24.3918   19.0309 H   0  0  0  0  0  0
  -27.2343  -24.0912   20.2685 H   0  0  0  0  0  0
  -30.4150  -18.5461   21.7281 H   0  0  0  0  0  0
  -28.8914  -15.2517   21.2299 H   0  0  0  0  0  0
  -27.8307  -17.4478   22.3960 H   0  0  0  0  0  0
  -28.7614  -18.4730   23.2572 H   0  0  0  0  0  0
  -29.2804  -16.9529   22.9899 H   0  0  0  0  0  0
  1 25  1  0  0  0
  1 30  2  0  0  0
  1 84  1  0  0  0
  2  3  1  0  0  0
  2 25  1  0  0  0
  2 87  1  0  0  0
  2 88  1  0  0  0
  3  4  1  0  0  0
  3 89  1  0  0  0
  3 90  1  0  0  0
  4  5  1  0  0  0
  4 91  1  0  0  0
  4 92  1  0  0  0
  5  6  1  0  0  0
  5 26  1  0  0  0
  5 93  1  0  0  0
  6 25  1  0  0  0
  6 94  1  0  0  0
  6 95  1  0  0  0
  7  8  2  0  0  0
  7 26  1  0  0  0
  7 29  1  0  0  0
  8  9  1  0  0  0
  8 22  1  0  0  0
  9 10  1  0  0  0
  9 27  2  0  0  0
 10 11  2  0  0  0
 10 15  1  0  0  0
 11 12  1  0  0  0
 11 96  1  0  0  0
 12 13  2  0  0  0
 12 97  1  0  0  0
 13 14  1  0  0  0
 13 31  1  0  0  0
 14 15  2  0  0  0
 14 98  1  0  0  0
 15 99  1  0  0  0
 16 17  2  0  0  0
 16 21  1  0  0  0
 16 31  1  0  0  0
 17 18  1  0  0  0
 17100  1  0  0  0
 18 19  2  0  0  0
 18101  1  0  0  0
 19 20  1  0  0  0
 19 24  1  0  0  0
 20 21  2  0  0  0
 20102  1  0  0  0
 21 23  1  0  0  0
 22 28  1  0  0  0
 22 32  2  0  0  0
 26 27  1  0  0  0
 28103  1  0  0  0
 28104  1  0  0  0
 29105  1  0  0  0
 29106  1  0  0  0
 33 34  1  0  0  0
 33 66  1  0  0  0
 33 70  2  0  0  0
 34 36  1  0  0  0
 34 59  1  0  0  0
 34107  1  0  0  0
 35 44  2  0  0  0
 35 45  1  0  0  0
 35 68  1  0  0  0
 36 56  1  0  0  0
 36108  1  0  0  0
 37 39  1  0  0  0
 37 47  1  0  0  0
 37 66  1  0  0  0
 37109  1  0  0  0
 38 43  2  0  0  0
 38 46  1  0  0  0
 38 47  1  0  0  0
 39 64  1  0  0  0
 39 67  2  0  0  0
 40 52  1  0  0  0
 40 53  2  0  0  0
 40 58  1  0  0  0
 41110  1  0  0  0
 41111  1  0  0  0
 41112  1  0  0  0
 41 48  1  0  0  0
 42 43  1  0  0  0
 42 66  1  0  0  0
 42113  1  0  0  0
 42114  1  0  0  0
 43 44  1  0  0  0
 44115  1  0  0  0
 45 46  2  0  0  0
 45116  1  0  0  0
 46117  1  0  0  0
 47118  1  0  0  0
 47119  1  0  0  0
 48 56  1  0  0  0
 48 65  1  0  0  0
 48120  1  0  0  0
 49 50  1  0  0  0
 49 53  1  0  0  0
 49 64  1  0  0  0
 49121  1  0  0  0
 50 51  1  0  0  0
 50122  1  0  0  0
 50123  1  0  0  0
 51 52  1  0  0  0
 51124  1  0  0  0
 51125  1  0  0  0
 52126  1  0  0  0
 52127  1  0  0  0
 53 54  1  0  0  0
 54 55  2  0  0  0
 54128  1  0  0  0
 55 57  1  0  0  0
 55129  1  0  0  0
 56 69  2  0  0  0
 57 58  2  0  0  0
 57130  1  0  0  0
 58131  1  0  0  0
 59 60  1  0  0  0
 59 61  1  0  0  0
 59 62  1  0  0  0
 60132  1  0  0  0
 60133  1  0  0  0
 60134  1  0  0  0
 61135  1  0  0  0
 61136  1  0  0  0
 61137  1  0  0  0
 62138  1  0  0  0
 62139  1  0  0  0
 62140  1  0  0  0
 63 65  1  0  0  0
 63141  1  0  0  0
 63142  1  0  0  0
 63143  1  0  0  0
 64144  1  0  0  0
 65145  1  0  0  0
 68 81  1  0  0  0
 71 72  2  0  0  0
 71 74  1  0  0  0
 71146  1  0  0  0
 72 76  1  0  0  0
 72147  1  0  0  0
 73 75  1  0  0  0
 73 76  2  0  0  0
 73148  1  0  0  0
 74 75  2  0  0  0
 74 79  1  0  0  0
 75 83  1  0  0  0
 76 86  1  0  0  0
 77 78  1  0  0  0
 77 79  1  0  0  0
 77149  1  0  0  0
 77150  1  0  0  0
 78 79  1  0  0  0
 78151  1  0  0  0
 78152  1  0  0  0
 79153  1  0  0  0
 80 83  1  0  0  0
 80 84  1  0  0  0
 80154  1  0  0  0
 80155  1  0  0  0
 81 82  1  0  0  0
 81156  1  0  0  0
 81157  1  0  0  0
 82 86  1  0  0  0
 82158  1  0  0  0
 82159  1  0  0  0
 83 85  1  0  0  0
 83160  1  0  0  0
 84161  1  0  0  0
 85162  1  0  0  0
 85163  1  0  0  0
 85164  1  0  0  0
M  CHG  1  85   1
M  ISO  4   1 100  68 101  81 101  84 100
M  END
> <chiral flag>
0

> <version>
0

> <s_m_source_file>
/data/baiqing/PycharmProjects/Reinvent-master-3.2/result/LINK_invent/BTK/process_docking_weight1_custom_sum_contain_oxygen_bond_distance_aromatic_linkinvent_7_9_3/rearranged_h_0137.sdf

> <i_m_source_file_index>
57

> <r_mmod_Potential_Energy-OPLS-2005>
-272.970123291016

> <r_mmod_Stretch_Energy-OPLS-2005>
51.7603797912598

> <r_mmod_Bend_Energy-OPLS-2005>
113.761596679688

> <r_mmod_Torsional_Energy-OPLS-2005>
317.010803222656

> <r_mmod_Improper_Torsional_Energy-OPLS-2005>
10.5033521652222

> <r_mmod_Van_der_Waal_Energy-OPLS-2005>
158.193740844727

> <r_mmod_Electrostatic_Energy-OPLS-2005>
-439.557830810547

> <r_mmod_Solvation_Energy-OPLS-2005>
-506.658630371094

> <b_mmod_Minimization_Converged-OPLS-2005>
0

> <r_mmod_RMS_Derivative-OPLS-2005>
2.28691291809082

$$$$
57
                    3D
 Structure written by MMmdl.
179188  0  0  1  0            999 V2000
  -30.6465  -14.4667   20.4637 C   0  0  0  0  0  0
  -30.4167  -12.2700   19.4179 C   0  0  0  0  0  0
  -29.4904  -12.4915   18.2038 C   0  0  0  0  0  0
  -28.0115  -12.3380   18.6206 C   0  0  0  0  0  0
  -27.6549  -13.1854   19.8686 C   0  0  2  0  0  0
  -28.7002  -12.9845   20.9963 C   0  0  0  0  0  0
  -25.2560  -13.8131   20.5629 C   0  0  0  0  0  0
  -24.1795  -13.0420   20.9205 C   0  0  0  0  0  0
  -24.6341  -11.6903   20.8752 C   0  0  0  0  0  0
  -23.9004  -10.4286   21.0426 C   0  0  0  0  0  0
  -24.3570   -9.4211   21.9201 C   0  0  0  0  0  0
  -23.6257   -8.2233   22.0768 C   0  0  0  0  0  0
  -22.4239   -8.0260   21.3546 C   0  0  0  0  0  0
  -21.9867   -9.0243   20.4641 C   0  0  0  0  0  0
  -22.7192  -10.2132   20.3062 C   0  0  0  0  0  0
  -21.6838   -6.0713   22.5273 C   0  0  0  0  0  0
  -21.4011   -6.5626   23.8206 C   0  0  0  0  0  0
  -21.3651   -5.6787   24.9181 C   0  0  0  0  0  0
  -21.6046   -4.3042   24.7236 C   0  0  0  0  0  0
  -21.8815   -3.8127   23.4351 C   0  0  0  0  0  0
  -21.9188   -4.6940   22.3404 C   0  0  0  0  0  0
  -22.7826  -13.5258   21.1851 C   0  0  0  0  0  0
  -22.1657   -4.2119   21.0978 F   0  0  0  0  0  0
  -21.5640   -3.4538   25.7745 F   0  0  0  0  0  0
  -30.0340  -13.2579   20.4350 N   0  0  0  0  0  0
  -26.2959  -12.9229   20.3320 N   0  0  0  0  0  0
  -25.9239  -11.6430   20.5773 N   0  0  0  0  0  0
  -22.0428  -12.8248   22.0399 N   0  0  0  0  0  0
  -25.4295  -15.1827   20.3958 N   0  0  0  0  0  0
  -31.8177  -14.6531   20.1232 O   0  0  0  0  0  0
  -21.6622   -6.8845   21.4229 O   0  0  0  0  0  0
  -22.3519  -14.5550   20.6681 O   0  0  0  0  0  0
  -24.5982  -31.8782   23.2122 C   0  0  0  0  0  0
  -25.8918  -32.4899   23.8390 C   0  0  1  0  0  0
  -27.2425  -27.5338   20.0701 C   0  0  0  0  0  0
  -25.5814  -33.8683   24.2355 N   0  0  0  0  0  0
  -23.3727  -30.5007   21.5588 C   0  0  2  0  0  0
  -24.8187  -28.9820   20.1019 C   0  0  0  0  0  0
  -22.7260  -29.4710   22.5089 C   0  0  0  0  0  0
  -18.0235  -28.1306   22.8536 C   0  0  0  0  0  0
  -24.1484  -36.7315   23.2657 C   0  0  0  0  0  0
  -25.8820  -30.8917   21.3232 C   0  0  0  0  0  0
  -25.9732  -29.5349   20.6655 C   0  0  0  0  0  0
  -27.1871  -28.8290   20.6314 C   0  0  0  0  0  0
  -26.0796  -26.9867   19.4955 C   0  0  0  0  0  0
  -24.8660  -27.7048   19.5070 C   0  0  0  0  0  0
  -23.5670  -29.8279   20.1729 C   0  0  0  0  0  0
  -25.4104  -36.3177   24.0370 C   0  0  1  0  0  0
  -20.5809  -28.3596   23.1399 C   0  0  2  0  0  0
  -20.6738  -26.9375   22.5445 C   0  0  0  0  0  0
  -19.5741  -26.6392   21.5198 C   0  0  0  0  0  0
  -18.1892  -26.7870   22.1596 C   0  0  0  0  0  0
  -19.1476  -28.8757   23.2964 C   0  0  0  0  0  0
  -18.9421  -30.1344   23.9004 C   0  0  0  0  0  0
  -17.6457  -30.6584   24.0559 C   0  0  0  0  0  0
  -25.9020  -34.9545   23.5183 C   0  0  0  0  0  0
  -16.5342  -29.9108   23.6292 C   0  0  0  0  0  0
  -16.7230  -28.6466   23.0395 C   0  0  0  0  0  0
  -26.4398  -31.6595   25.0629 C   0  0  0  0  0  0
  -25.3715  -31.3554   26.1413 C   0  0  0  0  0  0
  -27.0196  -30.3109   24.5739 C   0  0  0  0  0  0
  -27.6020  -32.4287   25.7350 C   0  0  0  0  0  0
  -27.5595  -37.1811   24.8472 C   0  0  0  0  0  0
  -21.4018  -29.2993   22.3819 N   0  0  0  0  0  0
  -26.4304  -37.3850   23.9424 N   0  0  0  0  0  0
  -24.6398  -31.0973   22.0973 N   0  0  0  0  0  0
  -23.4110  -28.8280   23.3088 O   0  0  0  0  0  0
  -28.3796  -26.7617   20.1086 O   0  0  0  0  0  0
  -26.5641  -34.8981   22.4773 O   0  0  0  0  0  0
  -23.5219  -32.1493   23.7618 O   0  0  0  0  0  0
  -31.5107  -24.9349   25.8896 C   0  0  0  0  0  0
  -30.7151  -25.9706   25.3726 C   0  0  0  0  0  0
  -30.0539  -24.5134   23.5371 C   0  0  0  0  0  0
  -31.5708  -23.6774   25.2536 C   0  0  0  0  0  0
  -30.8417  -23.4569   24.0544 C   0  0  0  0  0  0
  -29.9632  -25.7613   24.2039 C   0  0  0  0  0  0
  -29.7261  -19.9597   23.5189 C   0  0  0  0  0  0
  -31.1561  -20.6690   21.5172 C   0  0  0  0  0  0
  -29.6170  -21.4504   23.8764 C   0  0  0  0  0  0
  -30.9679  -22.1270   21.9983 C   0  0  0  0  0  0
  -30.0668  -19.6793   22.0308 C   0  0  0  0  0  0
  -32.3913  -22.5902   25.9292 C   0  0  0  0  0  0
  -29.9622  -16.6915   18.3746 C   0  0  0  0  0  0
  -28.3221  -26.6513   22.5719 C   0  0  0  0  0  0
  -30.9158  -17.7284   20.5773 C   0  0  0  0  0  0
  -29.1652  -26.8991   21.2943 C   0  0  0  0  0  0
  -29.8568  -16.8108   19.9161 C   0  0  2  0  0  0
  -30.8072  -22.1785   23.4517 N   0  0  0  0  0  0
  -29.1228  -26.7956   23.7764 N   0  0  0  0  0  0
  -29.7722  -15.4861   20.5603 N   0  0  0  0  0  0
  -30.4516  -18.2385   21.8931 N   0  3  0  0  0  0
  -31.4628  -12.3580   19.1176 H   0  0  0  0  0  0
  -30.2976  -11.2555   19.8022 H   0  0  0  0  0  0
  -29.7326  -11.7861   17.4061 H   0  0  0  0  0  0
  -29.6511  -13.4874   17.7884 H   0  0  0  0  0  0
  -27.8361  -11.2815   18.8309 H   0  0  0  0  0  0
  -27.3565  -12.5927   17.7888 H   0  0  0  0  0  0
  -27.6826  -14.2241   19.5440 H   0  0  0  0  0  0
  -28.6637  -11.9672   21.3844 H   0  0  0  0  0  0
  -28.4879  -13.6338   21.8491 H   0  0  0  0  0  0
  -25.2713   -9.5694   22.4793 H   0  0  0  0  0  0
  -23.9964   -7.4619   22.7479 H   0  0  0  0  0  0
  -21.0824   -8.8766   19.8930 H   0  0  0  0  0  0
  -22.3664  -10.9677   19.6177 H   0  0  0  0  0  0
  -21.2007   -7.6131   23.9704 H   0  0  0  0  0  0
  -21.1486   -6.0520   25.9077 H   0  0  0  0  0  0
  -22.0598   -2.7587   23.2878 H   0  0  0  0  0  0
  -22.4014  -11.9914   22.4821 H   0  0  0  0  0  0
  -21.1041  -13.1281   22.2563 H   0  0  0  0  0  0
  -24.6577  -15.8332   20.4854 H   0  0  0  0  0  0
  -26.2590  -15.6111   20.0039 H   0  0  0  0  0  0
  -26.6955  -32.5692   23.1157 H   0  0  0  0  0  0
  -24.9926  -33.9833   25.0467 H   0  0  0  0  0  0
  -22.6562  -31.3157   21.4320 H   0  0  0  0  0  0
  -23.3805  -35.9598   23.3316 H   0  0  0  0  0  0
  -24.3578  -36.8890   22.2071 H   0  0  0  0  0  0
  -23.7140  -37.6474   23.6651 H   0  0  0  0  0  0
  -25.9255  -31.6622   20.5508 H   0  0  0  0  0  0
  -26.7916  -30.9870   21.9021 H   0  0  0  0  0  0
  -28.0663  -29.2904   21.0601 H   0  0  0  0  0  0
  -26.1104  -25.9954   19.0679 H   0  0  0  0  0  0
  -23.9743  -27.2649   19.0775 H   0  0  0  0  0  0
  -23.6391  -30.6094   19.4165 H   0  0  0  0  0  0
  -22.6889  -29.2357   19.8998 H   0  0  0  0  0  0
  -25.1271  -36.2103   25.0866 H   0  0  0  0  0  0
  -20.9872  -28.3173   24.1522 H   0  0  0  0  0  0
  -20.5572  -26.2240   23.3605 H   0  0  0  0  0  0
  -21.6634  -26.7458   22.1273 H   0  0  0  0  0  0
  -19.6938  -25.6307   21.1201 H   0  0  0  0  0  0
  -19.6656  -27.3242   20.6757 H   0  0  0  0  0  0
  -17.4166  -26.6656   21.3984 H   0  0  0  0  0  0
  -18.0248  -25.9938   22.8903 H   0  0  0  0  0  0
  -19.7901  -30.7059   24.2495 H   0  0  0  0  0  0
  -17.5056  -31.6299   24.5125 H   0  0  0  0  0  0
  -15.5337  -30.3098   23.7548 H   0  0  0  0  0  0
  -15.8585  -28.0820   22.7157 H   0  0  0  0  0  0
  -24.5965  -30.6829   25.7700 H   0  0  0  0  0  0
  -24.8835  -32.2652   26.4941 H   0  0  0  0  0  0
  -25.8171  -30.8688   27.0109 H   0  0  0  0  0  0
  -26.2620  -29.6861   24.0998 H   0  0  0  0  0  0
  -27.4293  -29.7330   25.4023 H   0  0  0  0  0  0
  -27.8294  -30.4519   23.8568 H   0  0  0  0  0  0
  -27.2668  -33.3573   26.1985 H   0  0  0  0  0  0
  -28.3768  -32.6844   25.0109 H   0  0  0  0  0  0
  -28.0738  -31.8359   26.5173 H   0  0  0  0  0  0
  -28.2645  -38.0102   24.7648 H   0  0  0  0  0  0
  -28.1079  -36.2657   24.6201 H   0  0  0  0  0  0
  -27.2350  -37.1352   25.8887 H   0  0  0  0  0  0
  -20.9114  -29.8681   21.7060 H   0  0  0  0  0  0
  -26.0240  -38.2943   24.1456 H   0  0  0  0  0  0
  -32.0430  -25.1042   26.8134 H   0  0  0  0  0  0
  -30.6613  -26.9086   25.9074 H   0  0  0  0  0  0
  -29.4783  -24.3384   22.6421 H   0  0  0  0  0  0
  -28.7796  -19.4798   23.7782 H   0  0  0  0  0  0
  -30.4790  -19.5065   24.1647 H   0  0  0  0  0  0
  -32.1455  -20.3227   21.8143 H   0  0  0  0  0  0
  -31.1474  -20.6861   20.4261 H   0  0  0  0  0  0
  -29.4723  -21.5675   24.9519 H   0  0  0  0  0  0
  -28.7418  -21.8914   23.3985 H   0  0  0  0  0  0
  -30.0891  -22.5621   21.5202 H   0  0  0  0  0  0
  -31.8177  -22.7355   21.6894 H   0  0  0  0  0  0
  -29.1654  -19.8412   21.4376 H   0  0  0  0  0  0
  -33.3152  -23.0073   26.3291 H   0  0  0  0  0  0
  -32.6599  -21.7764   25.2562 H   0  0  0  0  0  0
  -31.8332  -22.1702   26.7668 H   0  0  0  0  0  0
  -29.9051  -17.6672   17.8895 H   0  0  0  0  0  0
  -29.1360  -16.1028   17.9710 H   0  0  0  0  0  0
  -30.8858  -16.2198   18.0416 H   0  0  0  0  0  0
  -27.8347  -25.6745   22.5338 H   0  0  0  0  0  0
  -27.4989  -27.3585   22.6653 H   0  0  0  0  0  0
  -31.2205  -18.5292   19.9082 H   0  0  0  0  0  0
  -31.8291  -17.1607   20.7646 H   0  0  0  0  0  0
  -29.9712  -26.1699   21.2401 H   0  0  0  0  0  0
  -29.6601  -27.8699   21.3367 H   0  0  0  0  0  0
  -28.8838  -17.2797   20.0769 H   0  0  0  0  0  0
  -29.1635  -27.7118   24.2194 H   0  0  0  0  0  0
  -28.8440  -15.1832   20.8131 H   0  0  0  0  0  0
  -29.6668  -17.6681   22.1628 H   0  0  0  0  0  0
  -31.1839  -18.0432   22.5554 H   0  0  0  0  0  0
  1 25  1  0  0  0
  1 30  2  0  0  0
  1 90  1  0  0  0
  2  3  1  0  0  0
  2 25  1  0  0  0
  2 92  1  0  0  0
  2 93  1  0  0  0
  3  4  1  0  0  0
  3 94  1  0  0  0
  3 95  1  0  0  0
  4  5  1  0  0  0
  4 96  1  0  0  0
  4 97  1  0  0  0
  5  6  1  0  0  0
  5 26  1  0  0  0
  5 98  1  0  0  0
  6 25  1  0  0  0
  6 99  1  0  0  0
  6100  1  0  0  0
  7  8  2  0  0  0
  7 26  1  0  0  0
  7 29  1  0  0  0
  8  9  1  0  0  0
  8 22  1  0  0  0
  9 10  1  0  0  0
  9 27  2  0  0  0
 10 11  2  0  0  0
 10 15  1  0  0  0
 11 12  1  0  0  0
 11101  1  0  0  0
 12 13  2  0  0  0
 12102  1  0  0  0
 13 14  1  0  0  0
 13 31  1  0  0  0
 14 15  2  0  0  0
 14103  1  0  0  0
 15104  1  0  0  0
 16 17  2  0  0  0
 16 21  1  0  0  0
 16 31  1  0  0  0
 17 18  1  0  0  0
 17105  1  0  0  0
 18 19  2  0  0  0
 18106  1  0  0  0
 19 20  1  0  0  0
 19 24  1  0  0  0
 20 21  2  0  0  0
 20107  1  0  0  0
 21 23  1  0  0  0
 22 28  1  0  0  0
 22 32  2  0  0  0
 26 27  1  0  0  0
 28108  1  0  0  0
 28109  1  0  0  0
 29110  1  0  0  0
 29111  1  0  0  0
 33 34  1  0  0  0
 33 66  1  0  0  0
 33 70  2  0  0  0
 34 36  1  0  0  0
 34 59  1  0  0  0
 34112  1  0  0  0
 35 44  2  0  0  0
 35 45  1  0  0  0
 35 68  1  0  0  0
 36 56  1  0  0  0
 36113  1  0  0  0
 37 39  1  0  0  0
 37 47  1  0  0  0
 37 66  1  0  0  0
 37114  1  0  0  0
 38 43  2  0  0  0
 38 46  1  0  0  0
 38 47  1  0  0  0
 39 64  1  0  0  0
 39 67  2  0  0  0
 40 52  1  0  0  0
 40 53  2  0  0  0
 40 58  1  0  0  0
 41115  1  0  0  0
 41116  1  0  0  0
 41117  1  0  0  0
 41 48  1  0  0  0
 42 43  1  0  0  0
 42 66  1  0  0  0
 42118  1  0  0  0
 42119  1  0  0  0
 43 44  1  0  0  0
 44120  1  0  0  0
 45 46  2  0  0  0
 45121  1  0  0  0
 46122  1  0  0  0
 47123  1  0  0  0
 47124  1  0  0  0
 48 56  1  0  0  0
 48 65  1  0  0  0
 48125  1  0  0  0
 49 50  1  0  0  0
 49 53  1  0  0  0
 49 64  1  0  0  0
 49126  1  0  0  0
 50 51  1  0  0  0
 50127  1  0  0  0
 50128  1  0  0  0
 51 52  1  0  0  0
 51129  1  0  0  0
 51130  1  0  0  0
 52131  1  0  0  0
 52132  1  0  0  0
 53 54  1  0  0  0
 54 55  2  0  0  0
 54133  1  0  0  0
 55 57  1  0  0  0
 55134  1  0  0  0
 56 69  2  0  0  0
 57 58  2  0  0  0
 57135  1  0  0  0
 58136  1  0  0  0
 59 60  1  0  0  0
 59 61  1  0  0  0
 59 62  1  0  0  0
 60137  1  0  0  0
 60138  1  0  0  0
 60139  1  0  0  0
 61140  1  0  0  0
 61141  1  0  0  0
 61142  1  0  0  0
 62143  1  0  0  0
 62144  1  0  0  0
 62145  1  0  0  0
 63 65  1  0  0  0
 63146  1  0  0  0
 63147  1  0  0  0
 63148  1  0  0  0
 64149  1  0  0  0
 65150  1  0  0  0
 68 86  1  0  0  0
 71 72  2  0  0  0
 71 74  1  0  0  0
 71151  1  0  0  0
 72 76  1  0  0  0
 72152  1  0  0  0
 73 75  1  0  0  0
 73 76  2  0  0  0
 73153  1  0  0  0
 74 75  2  0  0  0
 74 82  1  0  0  0
 75 88  1  0  0  0
 76 89  1  0  0  0
 77 79  1  0  0  0
 77 81  1  0  0  0
 77154  1  0  0  0
 77155  1  0  0  0
 78 80  1  0  0  0
 78 81  1  0  0  0
 78156  1  0  0  0
 78157  1  0  0  0
 79 88  1  0  0  0
 79158  1  0  0  0
 79159  1  0  0  0
 80 88  1  0  0  0
 80160  1  0  0  0
 80161  1  0  0  0
 81 91  1  0  0  0
 81162  1  0  0  0
 82163  1  0  0  0
 82164  1  0  0  0
 82165  1  0  0  0
 83166  1  0  0  0
 83167  1  0  0  0
 83168  1  0  0  0
 83 87  1  0  0  0
 84 86  1  0  0  0
 84 89  1  0  0  0
 84169  1  0  0  0
 84170  1  0  0  0
 85 87  1  0  0  0
 85 91  1  0  0  0
 85171  1  0  0  0
 85172  1  0  0  0
 86173  1  0  0  0
 86174  1  0  0  0
 87 90  1  0  0  0
 87175  1  0  0  0
 89176  1  0  0  0
 90177  1  0  0  0
 91178  1  0  0  0
 91179  1  0  0  0
M  CHG  1  91   1
M  ISO  4   1 100  68 101  86 101  90 100
M  END
> <chiral flag>
0

> <version>
0

> <s_m_source_file>
/data/baiqing/PycharmProjects/Reinvent-master-3.2/result/LINK_invent/BTK/process_docking_weight1_custom_sum_contain_oxygen_bond_distance_aromatic_linkinvent_7_9_3/rearranged_h_0137.sdf

> <i_m_source_file_index>
58

> <r_mmod_Potential_Energy-OPLS-2005>
-138.543731689453

> <r_mmod_Stretch_Energy-OPLS-2005>
38.695671081543

> <r_mmod_Bend_Energy-OPLS-2005>
119.191436767578

> <r_mmod_Torsional_Energy-OPLS-2005>
305.148590087891

> <r_mmod_Improper_Torsional_Energy-OPLS-2005>
16.7039127349854

> <r_mmod_Van_der_Waal_Energy-OPLS-2005>
171.836242675781

> <r_mmod_Electrostatic_Energy-OPLS-2005>
-341.993621826172

> <r_mmod_Solvation_Energy-OPLS-2005>
-465.477447509766

> <b_mmod_Minimization_Converged-OPLS-2005>
0

> <r_mmod_RMS_Derivative-OPLS-2005>
6.7059531211853

$$$$
58
                    3D
 Structure written by MMmdl.
163172  0  0  1  0            999 V2000
  -30.6181  -14.6437   20.4730 C   0  0  0  0  0  0
  -30.4452  -12.3922   19.4364 C   0  0  0  0  0  0
  -29.5139  -12.5254   18.2096 C   0  0  0  0  0  0
  -28.0283  -12.3814   18.6118 C   0  0  0  0  0  0
  -27.6552  -13.2261   19.8601 C   0  0  2  0  0  0
  -28.7062  -13.0474   20.9798 C   0  0  0  0  0  0
  -25.2516  -13.8160   20.5609 C   0  0  0  0  0  0
  -24.1811  -13.0398   20.9210 C   0  0  0  0  0  0
  -24.6413  -11.6909   20.8726 C   0  0  0  0  0  0
  -23.9082  -10.4273   21.0386 C   0  0  0  0  0  0
  -24.3612   -9.4193   21.9177 C   0  0  0  0  0  0
  -23.6285   -8.2227   22.0754 C   0  0  0  0  0  0
  -22.4274   -8.0264   21.3534 C   0  0  0  0  0  0
  -21.9913   -9.0231   20.4628 C   0  0  0  0  0  0
  -22.7252  -10.2119   20.3036 C   0  0  0  0  0  0
  -21.6866   -6.0712   22.5281 C   0  0  0  0  0  0
  -21.4011   -6.5634   23.8204 C   0  0  0  0  0  0
  -21.3661   -5.6797   24.9173 C   0  0  0  0  0  0
  -21.6053   -4.3054   24.7231 C   0  0  0  0  0  0
  -21.8816   -3.8136   23.4351 C   0  0  0  0  0  0
  -21.9187   -4.6939   22.3407 C   0  0  0  0  0  0
  -22.7831  -13.5194   21.1841 C   0  0  0  0  0  0
  -22.1663   -4.2130   21.0983 F   0  0  0  0  0  0
  -21.5628   -3.4541   25.7741 F   0  0  0  0  0  0
  -30.0255  -13.4037   20.4253 N   0  0  0  0  0  0
  -26.2972  -12.9376   20.3239 N   0  0  0  0  0  0
  -25.9342  -11.6521   20.5705 N   0  0  0  0  0  0
  -22.0453  -12.8166   22.0375 N   0  0  0  0  0  0
  -25.4053  -15.1857   20.3861 N   0  0  0  0  0  0
  -31.7643  -14.8331   20.0615 O   0  0  0  0  0  0
  -21.6658   -6.8860   21.4230 O   0  0  0  0  0  0
  -22.3512  -14.5484   20.6693 O   0  0  0  0  0  0
  -24.6258  -31.8599   23.1948 C   0  0  0  0  0  0
  -25.9014  -32.4808   23.8342 C   0  0  1  0  0  0
  -27.2667  -27.3162   20.0350 C   0  0  0  0  0  0
  -25.5868  -33.8606   24.2270 N   0  0  0  0  0  0
  -23.4304  -30.4727   21.5415 C   0  0  2  0  0  0
  -24.8814  -28.9141   20.1227 C   0  0  0  0  0  0
  -22.7509  -29.4636   22.4969 C   0  0  0  0  0  0
  -18.0335  -28.1433   22.8557 C   0  0  0  0  0  0
  -24.1461  -36.7231   23.2651 C   0  0  0  0  0  0
  -25.9751  -30.7765   21.3727 C   0  0  0  0  0  0
  -26.0564  -29.4003   20.7106 C   0  0  0  0  0  0
  -27.2497  -28.6103   20.6624 C   0  0  0  0  0  0
  -26.0446  -26.8838   19.4640 C   0  0  0  0  0  0
  -24.8778  -27.6589   19.4994 C   0  0  0  0  0  0
  -23.6457  -29.7817   20.1706 C   0  0  0  0  0  0
  -25.4103  -36.3097   24.0357 C   0  0  1  0  0  0
  -20.5948  -28.3701   23.1320 C   0  0  2  0  0  0
  -20.6843  -26.9436   22.5384 C   0  0  0  0  0  0
  -19.5783  -26.6442   21.5223 C   0  0  0  0  0  0
  -18.1973  -26.8019   22.1623 C   0  0  0  0  0  0
  -19.1595  -28.8869   23.2961 C   0  0  0  0  0  0
  -18.9512  -30.1512   23.8917 C   0  0  0  0  0  0
  -17.6514  -30.6644   24.0609 C   0  0  0  0  0  0
  -25.9065  -34.9483   23.5097 C   0  0  0  0  0  0
  -16.5389  -29.9151   23.6395 C   0  0  0  0  0  0
  -16.7321  -28.6575   23.0394 C   0  0  0  0  0  0
  -26.4400  -31.6657   25.0721 C   0  0  0  0  0  0
  -25.3630  -31.3874   26.1446 C   0  0  0  0  0  0
  -27.0179  -30.3098   24.6137 C   0  0  0  0  0  0
  -27.5972  -32.4386   25.7466 C   0  0  0  0  0  0
  -27.5593  -37.1759   24.8463 C   0  0  0  0  0  0
  -21.4236  -29.3064   22.3690 N   0  0  0  0  0  0
  -26.4284  -37.3800   23.9453 N   0  0  0  0  0  0
  -24.6973  -31.0551   22.0908 N   0  0  0  0  0  0
  -23.4233  -28.8190   23.3049 O   0  0  0  0  0  0
  -28.4265  -26.5114   19.9806 O   0  0  0  0  0  0
  -26.5623  -34.8947   22.4674 O   0  0  0  0  0  0
  -23.5391  -32.1329   23.7259 O   0  0  0  0  0  0
  -30.7833  -18.0235   20.5151 C   0  0  0  0  0  0
  -28.4238  -17.6512   20.4143 C   0  0  0  0  0  0
  -30.5525  -19.4427   20.4699 C   0  0  0  0  0  0
  -28.1684  -19.0570   20.3703 C   0  0  0  0  0  0
  -29.2344  -20.0145   20.4585 C   0  0  0  0  0  0
  -29.7120  -17.0934   20.5642 C   0  0  0  0  0  0
  -29.7604  -24.6816   18.7000 C   0  0  0  0  0  0
  -30.1210  -23.3056   19.3214 C   0  0  0  0  0  0
  -28.0977  -23.9083   20.2805 C   0  0  0  0  0  0
  -28.4338  -25.1473   19.3637 C   0  0  1  0  0  0
  -31.7826  -20.3403   20.4983 C   0  0  0  0  0  0
  -26.6954  -19.4432   20.3076 C   0  0  0  0  0  0
  -28.9855  -21.5554   20.8141 C   0  0  0  0  0  0
  -29.7957  -15.6618   20.8711 N   0  0  0  0  0  0
  -28.8529  -22.6865   19.7933 N   0  3  2  0  0  0
  -31.4878  -12.5157   19.1397 H   0  0  0  0  0  0
  -30.3763  -11.3901   19.8662 H   0  0  0  0  0  0
  -29.7747  -11.7798   17.4548 H   0  0  0  0  0  0
  -29.6736  -13.4956   17.7393 H   0  0  0  0  0  0
  -27.8359  -11.3251   18.8027 H   0  0  0  0  0  0
  -27.3906  -12.6571   17.7695 H   0  0  0  0  0  0
  -27.6788  -14.2732   19.5512 H   0  0  0  0  0  0
  -28.7072  -12.0106   21.3177 H   0  0  0  0  0  0
  -28.4544  -13.6461   21.8561 H   0  0  0  0  0  0
  -25.2760   -9.5692   22.4750 H   0  0  0  0  0  0
  -24.0011   -7.4623   22.7472 H   0  0  0  0  0  0
  -21.0856   -8.8723   19.8914 H   0  0  0  0  0  0
  -22.3700  -10.9627   19.6126 H   0  0  0  0  0  0
  -21.2012   -7.6146   23.9694 H   0  0  0  0  0  0
  -21.1494   -6.0536   25.9077 H   0  0  0  0  0  0
  -22.0588   -2.7595   23.2858 H   0  0  0  0  0  0
  -22.4094  -11.9880   22.4808 H   0  0  0  0  0  0
  -21.1015  -13.1085   22.2477 H   0  0  0  0  0  0
  -24.5795  -15.7761   20.4054 H   0  0  0  0  0  0
  -26.1516  -15.5701   19.8221 H   0  0  0  0  0  0
  -26.7083  -32.5479   23.1095 H   0  0  0  0  0  0
  -25.0046  -33.9736   25.0460 H   0  0  0  0  0  0
  -22.7340  -31.2981   21.3839 H   0  0  0  0  0  0
  -23.3789  -35.9488   23.3270 H   0  0  0  0  0  0
  -24.3600  -36.8865   22.2072 H   0  0  0  0  0  0
  -23.7061  -37.6373   23.6669 H   0  0  0  0  0  0
  -26.1096  -31.5330   20.5988 H   0  0  0  0  0  0
  -26.8550  -30.8329   22.0019 H   0  0  0  0  0  0
  -28.1633  -28.9793   21.1101 H   0  0  0  0  0  0
  -25.9435  -25.9286   18.9763 H   0  0  0  0  0  0
  -23.9728  -27.2758   19.0459 H   0  0  0  0  0  0
  -23.7501  -30.5290   19.3874 H   0  0  0  0  0  0
  -22.7747  -29.1871   19.8904 H   0  0  0  0  0  0
  -25.1289  -36.1939   25.0855 H   0  0  0  0  0  0
  -21.0103  -28.3187   24.1419 H   0  0  0  0  0  0
  -20.5851  -26.2249   23.3542 H   0  0  0  0  0  0
  -21.6697  -26.7571   22.1070 H   0  0  0  0  0  0
  -19.6935  -25.6385   21.1165 H   0  0  0  0  0  0
  -19.6692  -27.3350   20.6841 H   0  0  0  0  0  0
  -17.4272  -26.6864   21.3966 H   0  0  0  0  0  0
  -18.0319  -26.0169   22.9005 H   0  0  0  0  0  0
  -19.7965  -30.7398   24.2199 H   0  0  0  0  0  0
  -17.5060  -31.6304   24.5251 H   0  0  0  0  0  0
  -15.5396  -30.3052   23.7742 H   0  0  0  0  0  0
  -15.8741  -28.0915   22.7056 H   0  0  0  0  0  0
  -24.5827  -30.7183   25.7837 H   0  0  0  0  0  0
  -24.8772  -32.3057   26.4781 H   0  0  0  0  0  0
  -25.7929  -30.9171   27.0295 H   0  0  0  0  0  0
  -26.2740  -29.6960   24.1050 H   0  0  0  0  0  0
  -27.3768  -29.7269   25.4621 H   0  0  0  0  0  0
  -27.8668  -30.4436   23.9423 H   0  0  0  0  0  0
  -27.2631  -33.3759   26.1944 H   0  0  0  0  0  0
  -28.3797  -32.6806   25.0267 H   0  0  0  0  0  0
  -28.0575  -31.8559   26.5443 H   0  0  0  0  0  0
  -28.2547  -38.0143   24.7708 H   0  0  0  0  0  0
  -28.1155  -36.2674   24.6056 H   0  0  0  0  0  0
  -27.2366  -37.1153   25.8885 H   0  0  0  0  0  0
  -20.9435  -29.8629   21.6750 H   0  0  0  0  0  0
  -26.0145  -38.2858   24.1572 H   0  0  0  0  0  0
  -31.7990  -17.6542   20.5622 H   0  0  0  0  0  0
  -27.5859  -16.9724   20.3716 H   0  0  0  0  0  0
  -29.6097  -24.5453   17.6219 H   0  0  0  0  0  0
  -30.5834  -25.3924   18.7899 H   0  0  0  0  0  0
  -30.7819  -23.4965   20.1715 H   0  0  0  0  0  0
  -30.6737  -22.6642   18.6373 H   0  0  0  0  0  0
  -27.0255  -23.7231   20.3298 H   0  0  0  0  0  0
  -28.4492  -24.1272   21.2925 H   0  0  0  0  0  0
  -27.7600  -25.1533   18.5095 H   0  0  0  0  0  0
  -32.6468  -19.8114   20.8973 H   0  0  0  0  0  0
  -31.6629  -21.2164   21.1291 H   0  0  0  0  0  0
  -32.0212  -20.6821   19.4910 H   0  0  0  0  0  0
  -26.0858  -18.6033   20.6513 H   0  0  0  0  0  0
  -26.3845  -19.6566   19.2840 H   0  0  0  0  0  0
  -26.4261  -20.2835   20.9429 H   0  0  0  0  0  0
  -29.7513  -21.8527   21.5276 H   0  0  0  0  0  0
  -28.0981  -21.5910   21.4427 H   0  0  0  0  0  0
  -28.9554  -15.2926   21.2866 H   0  0  0  0  0  0
  -28.3521  -22.3186   18.9920 H   0  0  0  0  0  0
  1 25  1  0  0  0
  1 30  2  0  0  0
  1 84  1  0  0  0
  2  3  1  0  0  0
  2 25  1  0  0  0
  2 86  1  0  0  0
  2 87  1  0  0  0
  3  4  1  0  0  0
  3 88  1  0  0  0
  3 89  1  0  0  0
  4  5  1  0  0  0
  4 90  1  0  0  0
  4 91  1  0  0  0
  5  6  1  0  0  0
  5 26  1  0  0  0
  5 92  1  0  0  0
  6 25  1  0  0  0
  6 93  1  0  0  0
  6 94  1  0  0  0
  7  8  2  0  0  0
  7 26  1  0  0  0
  7 29  1  0  0  0
  8  9  1  0  0  0
  8 22  1  0  0  0
  9 10  1  0  0  0
  9 27  2  0  0  0
 10 11  2  0  0  0
 10 15  1  0  0  0
 11 12  1  0  0  0
 11 95  1  0  0  0
 12 13  2  0  0  0
 12 96  1  0  0  0
 13 14  1  0  0  0
 13 31  1  0  0  0
 14 15  2  0  0  0
 14 97  1  0  0  0
 15 98  1  0  0  0
 16 17  2  0  0  0
 16 21  1  0  0  0
 16 31  1  0  0  0
 17 18  1  0  0  0
 17 99  1  0  0  0
 18 19  2  0  0  0
 18100  1  0  0  0
 19 20  1  0  0  0
 19 24  1  0  0  0
 20 21  2  0  0  0
 20101  1  0  0  0
 21 23  1  0  0  0
 22 28  1  0  0  0
 22 32  2  0  0  0
 26 27  1  0  0  0
 28102  1  0  0  0
 28103  1  0  0  0
 29104  1  0  0  0
 29105  1  0  0  0
 33 34  1  0  0  0
 33 66  1  0  0  0
 33 70  2  0  0  0
 34 36  1  0  0  0
 34 59  1  0  0  0
 34106  1  0  0  0
 35 44  2  0  0  0
 35 45  1  0  0  0
 35 68  1  0  0  0
 36 56  1  0  0  0
 36107  1  0  0  0
 37 39  1  0  0  0
 37 47  1  0  0  0
 37 66  1  0  0  0
 37108  1  0  0  0
 38 43  2  0  0  0
 38 46  1  0  0  0
 38 47  1  0  0  0
 39 64  1  0  0  0
 39 67  2  0  0  0
 40 52  1  0  0  0
 40 53  2  0  0  0
 40 58  1  0  0  0
 41109  1  0  0  0
 41110  1  0  0  0
 41111  1  0  0  0
 41 48  1  0  0  0
 42 43  1  0  0  0
 42 66  1  0  0  0
 42112  1  0  0  0
 42113  1  0  0  0
 43 44  1  0  0  0
 44114  1  0  0  0
 45 46  2  0  0  0
 45115  1  0  0  0
 46116  1  0  0  0
 47117  1  0  0  0
 47118  1  0  0  0
 48 56  1  0  0  0
 48 65  1  0  0  0
 48119  1  0  0  0
 49 50  1  0  0  0
 49 53  1  0  0  0
 49 64  1  0  0  0
 49120  1  0  0  0
 50 51  1  0  0  0
 50121  1  0  0  0
 50122  1  0  0  0
 51 52  1  0  0  0
 51123  1  0  0  0
 51124  1  0  0  0
 52125  1  0  0  0
 52126  1  0  0  0
 53 54  1  0  0  0
 54 55  2  0  0  0
 54127  1  0  0  0
 55 57  1  0  0  0
 55128  1  0  0  0
 56 69  2  0  0  0
 57 58  2  0  0  0
 57129  1  0  0  0
 58130  1  0  0  0
 59 60  1  0  0  0
 59 61  1  0  0  0
 59 62  1  0  0  0
 60131  1  0  0  0
 60132  1  0  0  0
 60133  1  0  0  0
 61134  1  0  0  0
 61135  1  0  0  0
 61136  1  0  0  0
 62137  1  0  0  0
 62138  1  0  0  0
 62139  1  0  0  0
 63 65  1  0  0  0
 63140  1  0  0  0
 63141  1  0  0  0
 63142  1  0  0  0
 64143  1  0  0  0
 65144  1  0  0  0
 68 80  1  0  0  0
 71 73  2  0  0  0
 71 76  1  0  0  0
 71145  1  0  0  0
 72 74  1  0  0  0
 72 76  2  0  0  0
 72146  1  0  0  0
 73 75  1  0  0  0
 73 81  1  0  0  0
 74 75  2  0  0  0
 74 82  1  0  0  0
 75 83  1  0  0  0
 76 84  1  0  0  0
 77 78  1  0  0  0
 77 80  1  0  0  0
 77147  1  0  0  0
 77148  1  0  0  0
 78 85  1  0  0  0
 78149  1  0  0  0
 78150  1  0  0  0
 79 80  1  0  0  0
 79 85  1  0  0  0
 79151  1  0  0  0
 79152  1  0  0  0
 80153  1  0  0  0
 81154  1  0  0  0
 81155  1  0  0  0
 81156  1  0  0  0
 82157  1  0  0  0
 82158  1  0  0  0
 82159  1  0  0  0
 83160  1  0  0  0
 83161  1  0  0  0
 83 85  1  0  0  0
 84162  1  0  0  0
 85163  1  0  0  0
M  CHG  1  85   1
M  ISO  4   1 100  68 101  80 101  84 100
M  END
> <chiral flag>
0

> <version>
0

> <s_m_source_file>
/data/baiqing/PycharmProjects/Reinvent-master-3.2/result/LINK_invent/BTK/process_docking_weight1_custom_sum_contain_oxygen_bond_distance_aromatic_linkinvent_7_9_3/rearranged_h_0137.sdf

> <i_m_source_file_index>
59

> <r_mmod_Potential_Energy-OPLS-2005>
80.5210800170898

> <r_mmod_Stretch_Energy-OPLS-2005>
95.9432907104492

> <r_mmod_Bend_Energy-OPLS-2005>
198.389892578125

> <r_mmod_Torsional_Energy-OPLS-2005>
287.922058105469

> <r_mmod_Improper_Torsional_Energy-OPLS-2005>
8.53796195983887

> <r_mmod_Van_der_Waal_Energy-OPLS-2005>
141.694183349609

> <r_mmod_Electrostatic_Energy-OPLS-2005>
-269.474487304688

> <r_mmod_Solvation_Energy-OPLS-2005>
-431.277709960938

> <b_mmod_Minimization_Converged-OPLS-2005>
0

> <r_mmod_RMS_Derivative-OPLS-2005>
8.35106468200684

$$$$
59
                    3D
 Structure written by MMmdl.
155164  0  0  1  0            999 V2000
  -30.6616  -14.6524   20.4789 C   0  0  0  0  0  0
  -30.4202  -12.4012   19.4653 C   0  0  0  0  0  0
  -29.5008  -12.4983   18.2291 C   0  0  0  0  0  0
  -28.0255  -12.3382   18.6440 C   0  0  0  0  0  0
  -27.6444  -13.2275   19.8595 C   0  0  2  0  0  0
  -28.6896  -13.1327   20.9938 C   0  0  0  0  0  0
  -25.2516  -13.8180   20.5727 C   0  0  0  0  0  0
  -24.1798  -13.0437   20.9211 C   0  0  0  0  0  0
  -24.6375  -11.6910   20.8750 C   0  0  0  0  0  0
  -23.9054  -10.4296   21.0405 C   0  0  0  0  0  0
  -24.3607   -9.4212   21.9185 C   0  0  0  0  0  0
  -23.6284   -8.2243   22.0741 C   0  0  0  0  0  0
  -22.4272   -8.0273   21.3534 C   0  0  0  0  0  0
  -21.9907   -9.0245   20.4641 C   0  0  0  0  0  0
  -22.7220  -10.2134   20.3054 C   0  0  0  0  0  0
  -21.6860   -6.0731   22.5286 C   0  0  0  0  0  0
  -21.4012   -6.5641   23.8215 C   0  0  0  0  0  0
  -21.3663   -5.6794   24.9175 C   0  0  0  0  0  0
  -21.6050   -4.3059   24.7228 C   0  0  0  0  0  0
  -21.8821   -3.8143   23.4351 C   0  0  0  0  0  0
  -21.9194   -4.6956   22.3411 C   0  0  0  0  0  0
  -22.7820  -13.5226   21.1855 C   0  0  0  0  0  0
  -22.1663   -4.2139   21.0989 F   0  0  0  0  0  0
  -21.5632   -3.4550   25.7746 F   0  0  0  0  0  0
  -29.9971  -13.4552   20.4116 N   0  0  0  0  0  0
  -26.2947  -12.9387   20.3335 N   0  0  0  0  0  0
  -25.9308  -11.6528   20.5766 N   0  0  0  0  0  0
  -22.0460  -12.8236   22.0424 N   0  0  0  0  0  0
  -25.4209  -15.1908   20.4166 N   0  0  0  0  0  0
  -31.8459  -14.7252   20.1419 O   0  0  0  0  0  0
  -21.6636   -6.8870   21.4243 O   0  0  0  0  0  0
  -22.3505  -14.5526   20.6679 O   0  0  0  0  0  0
  -24.6249  -31.8599   23.2016 C   0  0  0  0  0  0
  -25.9093  -32.4780   23.8345 C   0  0  1  0  0  0
  -27.2199  -27.3228   20.1338 C   0  0  0  0  0  0
  -25.5908  -33.8581   24.2279 N   0  0  0  0  0  0
  -23.4183  -30.4824   21.5438 C   0  0  2  0  0  0
  -24.8658  -28.9354   20.1119 C   0  0  0  0  0  0
  -22.7467  -29.4625   22.4938 C   0  0  0  0  0  0
  -18.0284  -28.1380   22.8492 C   0  0  0  0  0  0
  -24.1488  -36.7297   23.2641 C   0  0  0  0  0  0
  -25.9572  -30.7949   21.3686 C   0  0  0  0  0  0
  -26.0339  -29.4213   20.7149 C   0  0  0  0  0  0
  -27.2180  -28.6276   20.7128 C   0  0  0  0  0  0
  -26.0363  -26.8866   19.5027 C   0  0  0  0  0  0
  -24.8688  -27.6739   19.4939 C   0  0  0  0  0  0
  -23.6321  -29.8143   20.1599 C   0  0  0  0  0  0
  -25.4112  -36.3087   24.0333 C   0  0  1  0  0  0
  -20.5882  -28.3681   23.1286 C   0  0  2  0  0  0
  -20.6768  -26.9402   22.5411 C   0  0  0  0  0  0
  -19.5745  -26.6379   21.5211 C   0  0  0  0  0  0
  -18.1928  -26.7925   22.1628 C   0  0  0  0  0  0
  -19.1537  -28.8847   23.2885 C   0  0  0  0  0  0
  -18.9463  -30.1449   23.8898 C   0  0  0  0  0  0
  -17.6463  -30.6582   24.0562 C   0  0  0  0  0  0
  -25.9048  -34.9452   23.5109 C   0  0  0  0  0  0
  -16.5353  -29.9082   23.6327 C   0  0  0  0  0  0
  -16.7272  -28.6498   23.0353 C   0  0  0  0  0  0
  -26.4483  -31.6585   25.0711 C   0  0  0  0  0  0
  -25.3724  -31.3713   26.1443 C   0  0  0  0  0  0
  -27.0321  -30.3013   24.6142 C   0  0  0  0  0  0
  -27.6048  -32.4312   25.7483 C   0  0  0  0  0  0
  -27.5580  -37.1803   24.8464 C   0  0  0  0  0  0
  -21.4180  -29.3040   22.3682 N   0  0  0  0  0  0
  -26.4292  -37.3778   23.9412 N   0  0  0  0  0  0
  -24.6858  -31.0617   22.0954 N   0  0  0  0  0  0
  -23.4198  -28.8169   23.3016 O   0  0  0  0  0  0
  -28.3253  -26.4658   20.1635 O   0  0  0  0  0  0
  -26.5621  -34.8922   22.4679 O   0  0  0  0  0  0
  -23.5411  -32.1390   23.7352 O   0  0  0  0  0  0
  -29.0485  -20.6534   19.5455 C   0  0  0  0  0  0
  -29.3969  -19.2728   19.4437 C   0  0  0  0  0  0
  -29.4056  -20.4636   21.8875 C   0  0  0  0  0  0
  -29.0750  -21.3264   20.7958 C   0  0  0  0  0  0
  -29.7852  -18.5308   20.5866 C   0  0  0  0  0  0
  -28.8962  -24.9143   22.0118 C   0  0  0  0  0  0
  -28.9185  -23.3913   22.2684 C   0  0  0  0  0  0
  -28.5633  -23.7957   19.9392 C   0  0  0  0  0  0
  -28.1127  -25.1033   20.7093 C   0  0  2  0  0  0
  -30.5610  -17.1672   20.4713 C   0  0  0  0  0  0
  -29.7531  -19.1418   21.7964 N   0  0  0  0  0  0
  -28.8052  -22.7397   20.9633 N   0  0  0  0  0  0
  -29.9534  -15.8079   20.6964 N   0  0  0  0  0  0
  -31.4653  -12.5006   19.1654 H   0  0  0  0  0  0
  -30.3379  -11.4183   19.9320 H   0  0  0  0  0  0
  -29.7677  -11.7326   17.5000 H   0  0  0  0  0  0
  -29.6426  -13.4601   17.7333 H   0  0  0  0  0  0
  -27.8672  -11.2872   18.8917 H   0  0  0  0  0  0
  -27.3690  -12.5509   17.7994 H   0  0  0  0  0  0
  -27.6502  -14.2561   19.4969 H   0  0  0  0  0  0
  -28.7077  -12.1300   21.4248 H   0  0  0  0  0  0
  -28.4408  -13.8142   21.8104 H   0  0  0  0  0  0
  -25.2742   -9.5699   22.4769 H   0  0  0  0  0  0
  -23.9995   -7.4637   22.7457 H   0  0  0  0  0  0
  -21.0839   -8.8749   19.8950 H   0  0  0  0  0  0
  -22.3651  -10.9667   19.6175 H   0  0  0  0  0  0
  -21.1989   -7.6145   23.9717 H   0  0  0  0  0  0
  -21.1489   -6.0518   25.9077 H   0  0  0  0  0  0
  -22.0590   -2.7600   23.2847 H   0  0  0  0  0  0
  -22.4068  -11.9922   22.4856 H   0  0  0  0  0  0
  -21.1065  -13.1249   22.2598 H   0  0  0  0  0  0
  -24.6526  -15.8440   20.5236 H   0  0  0  0  0  0
  -26.2698  -15.6324   20.0898 H   0  0  0  0  0  0
  -26.7165  -32.5458   23.1101 H   0  0  0  0  0  0
  -25.0038  -33.9726   25.0409 H   0  0  0  0  0  0
  -22.7115  -31.3023   21.4001 H   0  0  0  0  0  0
  -23.3750  -35.9630   23.3300 H   0  0  0  0  0  0
  -24.3577  -36.8918   22.2054 H   0  0  0  0  0  0
  -23.7242  -37.6500   23.6662 H   0  0  0  0  0  0
  -26.0810  -31.5559   20.5974 H   0  0  0  0  0  0
  -26.8396  -30.8492   21.9938 H   0  0  0  0  0  0
  -28.1152  -28.9949   21.1909 H   0  0  0  0  0  0
  -26.0075  -25.9162   19.0276 H   0  0  0  0  0  0
  -23.9745  -27.2967   19.0176 H   0  0  0  0  0  0
  -23.7491  -30.5888   19.4014 H   0  0  0  0  0  0
  -22.7530  -29.2413   19.8601 H   0  0  0  0  0  0
  -25.1292  -36.1938   25.0825 H   0  0  0  0  0  0
  -20.9980  -28.3252   24.1403 H   0  0  0  0  0  0
  -20.5659  -26.2292   23.3612 H   0  0  0  0  0  0
  -21.6639  -26.7426   22.1209 H   0  0  0  0  0  0
  -19.6904  -25.6290   21.1239 H   0  0  0  0  0  0
  -19.6681  -27.3193   20.6743 H   0  0  0  0  0  0
  -17.4194  -26.6671   21.4031 H   0  0  0  0  0  0
  -18.0332  -26.0063   22.9021 H   0  0  0  0  0  0
  -19.7937  -30.7265   24.2274 H   0  0  0  0  0  0
  -17.5016  -31.6268   24.5158 H   0  0  0  0  0  0
  -15.5355  -30.2987   23.7644 H   0  0  0  0  0  0
  -15.8673  -28.0817   22.7067 H   0  0  0  0  0  0
  -24.5898  -30.7065   25.7768 H   0  0  0  0  0  0
  -24.8921  -32.2875   26.4882 H   0  0  0  0  0  0
  -25.8054  -30.8878   27.0209 H   0  0  0  0  0  0
  -26.2887  -29.6771   24.1172 H   0  0  0  0  0  0
  -27.4036  -29.7257   25.4630 H   0  0  0  0  0  0
  -27.8746  -30.4308   23.9346 H   0  0  0  0  0  0
  -27.2663  -33.3608   26.2067 H   0  0  0  0  0  0
  -28.3856  -32.6874   25.0310 H   0  0  0  0  0  0
  -28.0718  -31.8430   26.5391 H   0  0  0  0  0  0
  -28.2597  -38.0101   24.7512 H   0  0  0  0  0  0
  -28.1077  -36.2631   24.6290 H   0  0  0  0  0  0
  -27.2297  -37.1450   25.8868 H   0  0  0  0  0  0
  -20.9353  -29.8766   21.6898 H   0  0  0  0  0  0
  -26.0173  -38.2855   24.1407 H   0  0  0  0  0  0
  -28.8013  -21.2009   18.6479 H   0  0  0  0  0  0
  -29.4442  -18.8142   18.4652 H   0  0  0  0  0  0
  -29.4357  -20.8519   22.8945 H   0  0  0  0  0  0
  -29.9170  -25.2739   21.8736 H   0  0  0  0  0  0
  -28.4668  -25.4698   22.8465 H   0  0  0  0  0  0
  -28.0693  -23.1027   22.8915 H   0  0  0  0  0  0
  -29.8319  -23.1109   22.7954 H   0  0  0  0  0  0
  -29.4928  -23.9810   19.3985 H   0  0  0  0  0  0
  -27.8105  -23.4911   19.2103 H   0  0  0  0  0  0
  -27.0613  -24.9699   20.9702 H   0  0  0  0  0  0
  -31.4193  -17.2447   21.1401 H   0  0  0  0  0  0
  -30.9988  -17.1579   19.4712 H   0  0  0  0  0  0
  -28.9729  -15.7594   20.9237 H   0  0  0  0  0  0
  1 25  1  0  0  0
  1 30  2  0  0  0
  1 83  1  0  0  0
  2  3  1  0  0  0
  2 25  1  0  0  0
  2 84  1  0  0  0
  2 85  1  0  0  0
  3  4  1  0  0  0
  3 86  1  0  0  0
  3 87  1  0  0  0
  4  5  1  0  0  0
  4 88  1  0  0  0
  4 89  1  0  0  0
  5  6  1  0  0  0
  5 26  1  0  0  0
  5 90  1  0  0  0
  6 25  1  0  0  0
  6 91  1  0  0  0
  6 92  1  0  0  0
  7  8  2  0  0  0
  7 26  1  0  0  0
  7 29  1  0  0  0
  8  9  1  0  0  0
  8 22  1  0  0  0
  9 10  1  0  0  0
  9 27  2  0  0  0
 10 11  2  0  0  0
 10 15  1  0  0  0
 11 12  1  0  0  0
 11 93  1  0  0  0
 12 13  2  0  0  0
 12 94  1  0  0  0
 13 14  1  0  0  0
 13 31  1  0  0  0
 14 15  2  0  0  0
 14 95  1  0  0  0
 15 96  1  0  0  0
 16 17  2  0  0  0
 16 21  1  0  0  0
 16 31  1  0  0  0
 17 18  1  0  0  0
 17 97  1  0  0  0
 18 19  2  0  0  0
 18 98  1  0  0  0
 19 20  1  0  0  0
 19 24  1  0  0  0
 20 21  2  0  0  0
 20 99  1  0  0  0
 21 23  1  0  0  0
 22 28  1  0  0  0
 22 32  2  0  0  0
 26 27  1  0  0  0
 28100  1  0  0  0
 28101  1  0  0  0
 29102  1  0  0  0
 29103  1  0  0  0
 33 34  1  0  0  0
 33 66  1  0  0  0
 33 70  2  0  0  0
 34 36  1  0  0  0
 34 59  1  0  0  0
 34104  1  0  0  0
 35 44  2  0  0  0
 35 45  1  0  0  0
 35 68  1  0  0  0
 36 56  1  0  0  0
 36105  1  0  0  0
 37 39  1  0  0  0
 37 47  1  0  0  0
 37 66  1  0  0  0
 37106  1  0  0  0
 38 43  2  0  0  0
 38 46  1  0  0  0
 38 47  1  0  0  0
 39 64  1  0  0  0
 39 67  2  0  0  0
 40 52  1  0  0  0
 40 53  2  0  0  0
 40 58  1  0  0  0
 41107  1  0  0  0
 41108  1  0  0  0
 41109  1  0  0  0
 41 48  1  0  0  0
 42 43  1  0  0  0
 42 66  1  0  0  0
 42110  1  0  0  0
 42111  1  0  0  0
 43 44  1  0  0  0
 44112  1  0  0  0
 45 46  2  0  0  0
 45113  1  0  0  0
 46114  1  0  0  0
 47115  1  0  0  0
 47116  1  0  0  0
 48 56  1  0  0  0
 48 65  1  0  0  0
 48117  1  0  0  0
 49 50  1  0  0  0
 49 53  1  0  0  0
 49 64  1  0  0  0
 49118  1  0  0  0
 50 51  1  0  0  0
 50119  1  0  0  0
 50120  1  0  0  0
 51 52  1  0  0  0
 51121  1  0  0  0
 51122  1  0  0  0
 52123  1  0  0  0
 52124  1  0  0  0
 53 54  1  0  0  0
 54 55  2  0  0  0
 54125  1  0  0  0
 55 57  1  0  0  0
 55126  1  0  0  0
 56 69  2  0  0  0
 57 58  2  0  0  0
 57127  1  0  0  0
 58128  1  0  0  0
 59 60  1  0  0  0
 59 61  1  0  0  0
 59 62  1  0  0  0
 60129  1  0  0  0
 60130  1  0  0  0
 60131  1  0  0  0
 61132  1  0  0  0
 61133  1  0  0  0
 61134  1  0  0  0
 62135  1  0  0  0
 62136  1  0  0  0
 62137  1  0  0  0
 63 65  1  0  0  0
 63138  1  0  0  0
 63139  1  0  0  0
 63140  1  0  0  0
 64141  1  0  0  0
 65142  1  0  0  0
 68 79  1  0  0  0
 71 72  2  0  0  0
 71 74  1  0  0  0
 71143  1  0  0  0
 72 75  1  0  0  0
 72144  1  0  0  0
 73 74  2  0  0  0
 73 81  1  0  0  0
 73145  1  0  0  0
 74 82  1  0  0  0
 75 80  1  0  0  0
 75 81  2  0  0  0
 76 77  1  0  0  0
 76 79  1  0  0  0
 76146  1  0  0  0
 76147  1  0  0  0
 77 82  1  0  0  0
 77148  1  0  0  0
 77149  1  0  0  0
 78 79  1  0  0  0
 78 82  1  0  0  0
 78150  1  0  0  0
 78151  1  0  0  0
 79152  1  0  0  0
 80 83  1  0  0  0
 80153  1  0  0  0
 80154  1  0  0  0
 83155  1  0  0  0
M  ISO  4   1 100  68 101  79 101  83 100
M  END
> <chiral flag>
0

> <version>
0

> <s_m_source_file>
/data/baiqing/PycharmProjects/Reinvent-master-3.2/result/LINK_invent/BTK/process_docking_weight1_custom_sum_contain_oxygen_bond_distance_aromatic_linkinvent_7_9_3/rearranged_h_0137.sdf

> <i_m_source_file_index>
60

> <r_mmod_Potential_Energy-OPLS-2005>
-30.4673023223877

> <r_mmod_Stretch_Energy-OPLS-2005>
76.0715789794922

> <r_mmod_Bend_Energy-OPLS-2005>
191.578582763672

> <r_mmod_Torsional_Energy-OPLS-2005>
269.815093994141

> <r_mmod_Improper_Torsional_Energy-OPLS-2005>
7.41600704193115

> <r_mmod_Van_der_Waal_Energy-OPLS-2005>
144.358001708984

> <r_mmod_Electrostatic_Energy-OPLS-2005>
-531.46923828125

> <r_mmod_Solvation_Energy-OPLS-2005>
-241.041076660156

> <b_mmod_Minimization_Converged-OPLS-2005>
0

> <r_mmod_RMS_Derivative-OPLS-2005>
1.57483780384064

$$$$
60
                    3D
 Structure written by MMmdl.
166175  0  0  1  0            999 V2000
  -30.6850  -14.7142   20.4643 C   0  0  0  0  0  0
  -30.4120  -12.4431   19.4635 C   0  0  0  0  0  0
  -29.5002  -12.5167   18.2225 C   0  0  0  0  0  0
  -28.0262  -12.3377   18.6328 C   0  0  0  0  0  0
  -27.6326  -13.2268   19.8421 C   0  0  2  0  0  0
  -28.6857  -13.2000   20.9734 C   0  0  0  0  0  0
  -25.2465  -13.8158   20.5683 C   0  0  0  0  0  0
  -24.1783  -13.0399   20.9234 C   0  0  0  0  0  0
  -24.6399  -11.6891   20.8770 C   0  0  0  0  0  0
  -23.9091  -10.4267   21.0413 C   0  0  0  0  0  0
  -24.3635   -9.4192   21.9197 C   0  0  0  0  0  0
  -23.6302   -8.2235   22.0766 C   0  0  0  0  0  0
  -22.4284   -8.0287   21.3549 C   0  0  0  0  0  0
  -21.9929   -9.0266   20.4651 C   0  0  0  0  0  0
  -22.7269  -10.2137   20.3063 C   0  0  0  0  0  0
  -21.6846   -6.0750   22.5296 C   0  0  0  0  0  0
  -21.4017   -6.5649   23.8232 C   0  0  0  0  0  0
  -21.3657   -5.6799   24.9189 C   0  0  0  0  0  0
  -21.6045   -4.3067   24.7231 C   0  0  0  0  0  0
  -21.8812   -3.8162   23.4349 C   0  0  0  0  0  0
  -21.9182   -4.6981   22.3410 C   0  0  0  0  0  0
  -22.7800  -13.5210   21.1857 C   0  0  0  0  0  0
  -22.1642   -4.2170   21.0983 F   0  0  0  0  0  0
  -21.5631   -3.4543   25.7737 F   0  0  0  0  0  0
  -29.9865  -13.5278   20.3777 N   0  0  0  0  0  0
  -26.2893  -12.9362   20.3285 N   0  0  0  0  0  0
  -25.9327  -11.6510   20.5779 N   0  0  0  0  0  0
  -22.0413  -12.8229   22.0411 N   0  0  0  0  0  0
  -25.4031  -15.1890   20.4030 N   0  0  0  0  0  0
  -31.8882  -14.7210   20.1886 O   0  0  0  0  0  0
  -21.6639   -6.8898   21.4258 O   0  0  0  0  0  0
  -22.3506  -14.5503   20.6680 O   0  0  0  0  0  0
  -24.6343  -31.8585   23.2047 C   0  0  0  0  0  0
  -25.9183  -32.4754   23.8385 C   0  0  1  0  0  0
  -27.2069  -27.2527   20.1237 C   0  0  0  0  0  0
  -25.5994  -33.8561   24.2308 N   0  0  0  0  0  0
  -23.4286  -30.4867   21.5483 C   0  0  2  0  0  0
  -24.8751  -28.9487   20.1090 C   0  0  0  0  0  0
  -22.7513  -29.4636   22.4935 C   0  0  0  0  0  0
  -18.0284  -28.1402   22.8474 C   0  0  0  0  0  0
  -24.1490  -36.7268   23.2630 C   0  0  0  0  0  0
  -25.9794  -30.7672   21.3910 C   0  0  0  0  0  0
  -26.0493  -29.3912   20.7318 C   0  0  0  0  0  0
  -27.2164  -28.5535   20.7395 C   0  0  0  0  0  0
  -26.0130  -26.9155   19.4350 C   0  0  0  0  0  0
  -24.8650  -27.7191   19.4475 C   0  0  0  0  0  0
  -23.6455  -29.8312   20.1610 C   0  0  0  0  0  0
  -25.4118  -36.3061   24.0316 C   0  0  1  0  0  0
  -20.5890  -28.3725   23.1250 C   0  0  2  0  0  0
  -20.6789  -26.9438   22.5398 C   0  0  0  0  0  0
  -19.5761  -26.6389   21.5217 C   0  0  0  0  0  0
  -18.1932  -26.7948   22.1601 C   0  0  0  0  0  0
  -19.1539  -28.8879   23.2856 C   0  0  0  0  0  0
  -18.9458  -30.1488   23.8877 C   0  0  0  0  0  0
  -17.6455  -30.6597   24.0566 C   0  0  0  0  0  0
  -25.9071  -34.9432   23.5100 C   0  0  0  0  0  0
  -16.5347  -29.9082   23.6351 C   0  0  0  0  0  0
  -16.7271  -28.6500   23.0364 C   0  0  0  0  0  0
  -26.4525  -31.6552   25.0768 C   0  0  0  0  0  0
  -25.3735  -31.3722   26.1476 C   0  0  0  0  0  0
  -27.0350  -30.2950   24.6286 C   0  0  0  0  0  0
  -27.6120  -32.4251   25.7536 C   0  0  0  0  0  0
  -27.5578  -37.1781   24.8449 C   0  0  0  0  0  0
  -21.4217  -29.3076   22.3657 N   0  0  0  0  0  0
  -26.4284  -37.3765   23.9403 N   0  0  0  0  0  0
  -24.6996  -31.0552   22.1027 N   0  0  0  0  0  0
  -23.4206  -28.8174   23.3032 O   0  0  0  0  0  0
  -28.2540  -26.2893   20.2157 O   0  0  0  0  0  0
  -26.5624  -34.8902   22.4655 O   0  0  0  0  0  0
  -23.5487  -32.1423   23.7314 O   0  0  0  0  0  0
  -29.0041  -21.1601   19.3363 C   0  0  0  0  0  0
  -28.7145  -22.5446   19.1234 C   0  0  0  0  0  0
  -28.8893  -22.9628   21.4626 C   0  0  0  0  0  0
  -29.2185  -20.6001   20.6266 C   0  0  0  0  0  0
  -28.6054  -23.4980   20.1754 C   0  0  0  0  0  0
  -29.1954  -21.5683   21.6975 C   0  0  0  0  0  0
  -28.8879  -18.0593   19.6994 C   0  0  0  0  0  0
  -30.7414  -18.4356   21.1978 C   0  0  0  0  0  0
  -28.9158  -16.4988   20.0044 C   0  0  0  0  0  0
  -30.7076  -16.9298   21.6650 C   0  0  0  0  0  0
  -29.3468  -19.0131   20.8452 C   0  0  0  0  0  0
  -28.3171  -21.4872   24.1062 C   0  0  0  0  0  0
  -30.8021  -21.7410   23.6423 C   0  0  0  0  0  0
  -27.8462  -24.8738   19.8967 C   0  0  0  0  0  0
  -29.4734  -21.1488   23.1473 C   0  0  0  0  0  0
  -30.0567  -15.9212   20.7755 N   0  0  0  0  0  0
  -31.4587  -12.5264   19.1672 H   0  0  0  0  0  0
  -30.3194  -11.4715   19.9511 H   0  0  0  0  0  0
  -29.7861  -11.7592   17.4920 H   0  0  0  0  0  0
  -29.6285  -13.4801   17.7250 H   0  0  0  0  0  0
  -27.8727  -11.2865   18.8718 H   0  0  0  0  0  0
  -27.3736  -12.5519   17.7848 H   0  0  0  0  0  0
  -27.5989  -14.2345   19.4444 H   0  0  0  0  0  0
  -28.7233  -12.2202   21.4519 H   0  0  0  0  0  0
  -28.4271  -13.9186   21.7542 H   0  0  0  0  0  0
  -25.2764   -9.5674   22.4794 H   0  0  0  0  0  0
  -24.0009   -7.4623   22.7487 H   0  0  0  0  0  0
  -21.0869   -8.8798   19.8939 H   0  0  0  0  0  0
  -22.3737  -10.9696   19.6185 H   0  0  0  0  0  0
  -21.2014   -7.6159   23.9760 H   0  0  0  0  0  0
  -21.1481   -6.0513   25.9098 H   0  0  0  0  0  0
  -22.0590   -2.7624   23.2842 H   0  0  0  0  0  0
  -22.4007  -11.9908   22.4857 H   0  0  0  0  0  0
  -21.1021  -13.1276   22.2540 H   0  0  0  0  0  0
  -24.6205  -15.8249   20.5092 H   0  0  0  0  0  0
  -26.2362  -15.6382   20.0466 H   0  0  0  0  0  0
  -26.7253  -32.5402   23.1130 H   0  0  0  0  0  0
  -25.0214  -33.9713   25.0501 H   0  0  0  0  0  0
  -22.7265  -31.3105   21.4050 H   0  0  0  0  0  0
  -23.3767  -35.9579   23.3260 H   0  0  0  0  0  0
  -24.3601  -36.8934   22.2055 H   0  0  0  0  0  0
  -23.7219  -37.6445   23.6683 H   0  0  0  0  0  0
  -26.1213  -31.5289   20.6222 H   0  0  0  0  0  0
  -26.8563  -30.8146   22.0243 H   0  0  0  0  0  0
  -28.1045  -28.8780   21.2640 H   0  0  0  0  0  0
  -25.8995  -25.9985   18.8804 H   0  0  0  0  0  0
  -23.9767  -27.3818   18.9321 H   0  0  0  0  0  0
  -23.7643  -30.6110   19.4082 H   0  0  0  0  0  0
  -22.7648  -29.2626   19.8566 H   0  0  0  0  0  0
  -25.1293  -36.1898   25.0805 H   0  0  0  0  0  0
  -20.9974  -28.3306   24.1372 H   0  0  0  0  0  0
  -20.5704  -26.2346   23.3623 H   0  0  0  0  0  0
  -21.6656  -26.7467   22.1176 H   0  0  0  0  0  0
  -19.6929  -25.6286   21.1285 H   0  0  0  0  0  0
  -19.6712  -27.3176   20.6733 H   0  0  0  0  0  0
  -17.4216  -26.6728   21.3986 H   0  0  0  0  0  0
  -18.0292  -26.0072   22.8967 H   0  0  0  0  0  0
  -19.7939  -30.7324   24.2223 H   0  0  0  0  0  0
  -17.4999  -31.6286   24.5151 H   0  0  0  0  0  0
  -15.5347  -30.2975   23.7698 H   0  0  0  0  0  0
  -15.8666  -28.0822   22.7092 H   0  0  0  0  0  0
  -24.5953  -30.7010   25.7804 H   0  0  0  0  0  0
  -24.8875  -32.2887   26.4829 H   0  0  0  0  0  0
  -25.8036  -30.8960   27.0293 H   0  0  0  0  0  0
  -26.2930  -29.6701   24.1289 H   0  0  0  0  0  0
  -27.3968  -29.7216   25.4832 H   0  0  0  0  0  0
  -27.8852  -30.4195   23.9575 H   0  0  0  0  0  0
  -27.2796  -33.3589   26.2073 H   0  0  0  0  0  0
  -28.3963  -32.6704   25.0361 H   0  0  0  0  0  0
  -28.0732  -31.8363   26.5476 H   0  0  0  0  0  0
  -28.2539  -38.0130   24.7538 H   0  0  0  0  0  0
  -28.1126  -36.2656   24.6199 H   0  0  0  0  0  0
  -27.2307  -37.1322   25.8855 H   0  0  0  0  0  0
  -20.9423  -29.8807   21.6853 H   0  0  0  0  0  0
  -26.0151  -38.2824   24.1437 H   0  0  0  0  0  0
  -28.9935  -20.5109   18.4725 H   0  0  0  0  0  0
  -28.4754  -22.8567   18.1153 H   0  0  0  0  0  0
  -28.8025  -23.6301   22.3075 H   0  0  0  0  0  0
  -27.8732  -18.3267   19.3996 H   0  0  0  0  0  0
  -29.5023  -18.2452   18.8159 H   0  0  0  0  0  0
  -31.4107  -18.5395   20.3412 H   0  0  0  0  0  0
  -31.1939  -19.0291   21.9918 H   0  0  0  0  0  0
  -28.8553  -15.9871   19.0426 H   0  0  0  0  0  0
  -28.0127  -16.2390   20.5548 H   0  0  0  0  0  0
  -30.1749  -16.8847   22.6161 H   0  0  0  0  0  0
  -31.7298  -16.6279   21.9025 H   0  0  0  0  0  0
  -28.6807  -18.7921   21.6803 H   0  0  0  0  0  0
  -27.3939  -20.9961   23.7967 H   0  0  0  0  0  0
  -28.1184  -22.5568   24.1705 H   0  0  0  0  0  0
  -28.5436  -21.1465   25.1174 H   0  0  0  0  0  0
  -31.6330  -21.4031   23.0227 H   0  0  0  0  0  0
  -31.0130  -21.4332   24.6666 H   0  0  0  0  0  0
  -30.7931  -22.8308   23.6189 H   0  0  0  0  0  0
  -26.8887  -24.6961   20.3891 H   0  0  0  0  0  0
  -27.6591  -24.8588   18.8234 H   0  0  0  0  0  0
  -29.5876  -20.0689   23.2085 H   0  0  0  0  0  0
  1 25  1  0  0  0
  1 30  2  0  0  0
  1 86  1  0  0  0
  2  3  1  0  0  0
  2 25  1  0  0  0
  2 87  1  0  0  0
  2 88  1  0  0  0
  3  4  1  0  0  0
  3 89  1  0  0  0
  3 90  1  0  0  0
  4  5  1  0  0  0
  4 91  1  0  0  0
  4 92  1  0  0  0
  5  6  1  0  0  0
  5 26  1  0  0  0
  5 93  1  0  0  0
  6 25  1  0  0  0
  6 94  1  0  0  0
  6 95  1  0  0  0
  7  8  2  0  0  0
  7 26  1  0  0  0
  7 29  1  0  0  0
  8  9  1  0  0  0
  8 22  1  0  0  0
  9 10  1  0  0  0
  9 27  2  0  0  0
 10 11  2  0  0  0
 10 15  1  0  0  0
 11 12  1  0  0  0
 11 96  1  0  0  0
 12 13  2  0  0  0
 12 97  1  0  0  0
 13 14  1  0  0  0
 13 31  1  0  0  0
 14 15  2  0  0  0
 14 98  1  0  0  0
 15 99  1  0  0  0
 16 17  2  0  0  0
 16 21  1  0  0  0
 16 31  1  0  0  0
 17 18  1  0  0  0
 17100  1  0  0  0
 18 19  2  0  0  0
 18101  1  0  0  0
 19 20  1  0  0  0
 19 24  1  0  0  0
 20 21  2  0  0  0
 20102  1  0  0  0
 21 23  1  0  0  0
 22 28  1  0  0  0
 22 32  2  0  0  0
 26 27  1  0  0  0
 28103  1  0  0  0
 28104  1  0  0  0
 29105  1  0  0  0
 29106  1  0  0  0
 33 34  1  0  0  0
 33 66  1  0  0  0
 33 70  2  0  0  0
 34 36  1  0  0  0
 34 59  1  0  0  0
 34107  1  0  0  0
 35 44  2  0  0  0
 35 45  1  0  0  0
 35 68  1  0  0  0
 36 56  1  0  0  0
 36108  1  0  0  0
 37 39  1  0  0  0
 37 47  1  0  0  0
 37 66  1  0  0  0
 37109  1  0  0  0
 38 43  2  0  0  0
 38 46  1  0  0  0
 38 47  1  0  0  0
 39 64  1  0  0  0
 39 67  2  0  0  0
 40 52  1  0  0  0
 40 53  2  0  0  0
 40 58  1  0  0  0
 41110  1  0  0  0
 41111  1  0  0  0
 41112  1  0  0  0
 41 48  1  0  0  0
 42 43  1  0  0  0
 42 66  1  0  0  0
 42113  1  0  0  0
 42114  1  0  0  0
 43 44  1  0  0  0
 44115  1  0  0  0
 45 46  2  0  0  0
 45116  1  0  0  0
 46117  1  0  0  0
 47118  1  0  0  0
 47119  1  0  0  0
 48 56  1  0  0  0
 48 65  1  0  0  0
 48120  1  0  0  0
 49 50  1  0  0  0
 49 53  1  0  0  0
 49 64  1  0  0  0
 49121  1  0  0  0
 50 51  1  0  0  0
 50122  1  0  0  0
 50123  1  0  0  0
 51 52  1  0  0  0
 51124  1  0  0  0
 51125  1  0  0  0
 52126  1  0  0  0
 52127  1  0  0  0
 53 54  1  0  0  0
 54 55  2  0  0  0
 54128  1  0  0  0
 55 57  1  0  0  0
 55129  1  0  0  0
 56 69  2  0  0  0
 57 58  2  0  0  0
 57130  1  0  0  0
 58131  1  0  0  0
 59 60  1  0  0  0
 59 61  1  0  0  0
 59 62  1  0  0  0
 60132  1  0  0  0
 60133  1  0  0  0
 60134  1  0  0  0
 61135  1  0  0  0
 61136  1  0  0  0
 61137  1  0  0  0
 62138  1  0  0  0
 62139  1  0  0  0
 62140  1  0  0  0
 63 65  1  0  0  0
 63141  1  0  0  0
 63142  1  0  0  0
 63143  1  0  0  0
 64144  1  0  0  0
 65145  1  0  0  0
 68 84  1  0  0  0
 71 72  2  0  0  0
 71 74  1  0  0  0
 71146  1  0  0  0
 72 75  1  0  0  0
 72147  1  0  0  0
 73 75  2  0  0  0
 73 76  1  0  0  0
 73148  1  0  0  0
 74 76  2  0  0  0
 74 81  1  0  0  0
 75 84  1  0  0  0
 76 85  1  0  0  0
 77 79  1  0  0  0
 77 81  1  0  0  0
 77149  1  0  0  0
 77150  1  0  0  0
 78 80  1  0  0  0
 78 81  1  0  0  0
 78151  1  0  0  0
 78152  1  0  0  0
 79 86  1  0  0  0
 79153  1  0  0  0
 79154  1  0  0  0
 80 86  1  0  0  0
 80155  1  0  0  0
 80156  1  0  0  0
 81157  1  0  0  0
 82158  1  0  0  0
 82159  1  0  0  0
 82160  1  0  0  0
 82 85  1  0  0  0
 83 85  1  0  0  0
 83161  1  0  0  0
 83162  1  0  0  0
 83163  1  0  0  0
 84164  1  0  0  0
 84165  1  0  0  0
 85166  1  0  0  0
M  ISO  4   1 100  68 101  84 101  86 100
M  END
> <chiral flag>
0

> <version>
0

> <s_m_source_file>
/data/baiqing/PycharmProjects/Reinvent-master-3.2/result/LINK_invent/BTK/process_docking_weight1_custom_sum_contain_oxygen_bond_distance_aromatic_linkinvent_7_9_3/rearranged_h_0137.sdf

> <i_m_source_file_index>
61

> <r_mmod_Potential_Energy-OPLS-2005>
437.376708984375

> <r_mmod_Stretch_Energy-OPLS-2005>
116.882873535156

> <r_mmod_Bend_Energy-OPLS-2005>
202.401565551758

> <r_mmod_Torsional_Energy-OPLS-2005>
344.816619873047

> <r_mmod_Improper_Torsional_Energy-OPLS-2005>
6.40319299697876

> <r_mmod_Van_der_Waal_Energy-OPLS-2005>
155.635787963867

> <r_mmod_Electrostatic_Energy-OPLS-2005>
-288.356842041016

> <r_mmod_Solvation_Energy-OPLS-2005>
-193.462219238281

> <b_mmod_Minimization_Converged-OPLS-2005>
0

> <r_mmod_RMS_Derivative-OPLS-2005>
2.68227934837341

$$$$
61
                    3D
 Structure written by MMmdl.
165174  0  0  1  0            999 V2000
  -30.7597  -14.4460   20.6391 C   0  0  0  0  0  0
  -30.4136  -12.3243   19.4200 C   0  0  0  0  0  0
  -29.4892  -12.5255   18.2057 C   0  0  0  0  0  0
  -28.0169  -12.3649   18.6247 C   0  0  0  0  0  0
  -27.6607  -13.2101   19.8770 C   0  0  2  0  0  0
  -28.7027  -13.0109   21.0019 C   0  0  0  0  0  0
  -25.2594  -13.8162   20.5699 C   0  0  0  0  0  0
  -24.1849  -13.0444   20.9194 C   0  0  0  0  0  0
  -24.6404  -11.6911   20.8733 C   0  0  0  0  0  0
  -23.9063  -10.4296   21.0402 C   0  0  0  0  0  0
  -24.3611   -9.4212   21.9180 C   0  0  0  0  0  0
  -23.6289   -8.2243   22.0744 C   0  0  0  0  0  0
  -22.4275   -8.0282   21.3534 C   0  0  0  0  0  0
  -21.9910   -9.0253   20.4630 C   0  0  0  0  0  0
  -22.7234  -10.2139   20.3045 C   0  0  0  0  0  0
  -21.6855   -6.0731   22.5274 C   0  0  0  0  0  0
  -21.4015   -6.5638   23.8209 C   0  0  0  0  0  0
  -21.3662   -5.6792   24.9171 C   0  0  0  0  0  0
  -21.6051   -4.3047   24.7214 C   0  0  0  0  0  0
  -21.8816   -3.8148   23.4336 C   0  0  0  0  0  0
  -21.9198   -4.6969   22.3400 C   0  0  0  0  0  0
  -22.7876  -13.5244   21.1846 C   0  0  0  0  0  0
  -22.1665   -4.2150   21.0969 F   0  0  0  0  0  0
  -21.5632   -3.4531   25.7724 F   0  0  0  0  0  0
  -30.0340  -13.3085   20.4472 N   0  0  0  0  0  0
  -26.3027  -12.9337   20.3381 N   0  0  0  0  0  0
  -25.9328  -11.6487   20.5758 N   0  0  0  0  0  0
  -22.0502  -12.8224   22.0388 N   0  0  0  0  0  0
  -25.4323  -15.1875   20.4107 N   0  0  0  0  0  0
  -31.8314  -14.6453   20.0596 O   0  0  0  0  0  0
  -21.6641   -6.8878   21.4230 O   0  0  0  0  0  0
  -22.3570  -14.5561   20.6713 O   0  0  0  0  0  0
  -24.6124  -31.8679   23.2078 C   0  0  0  0  0  0
  -25.9010  -32.4817   23.8401 C   0  0  1  0  0  0
  -27.2377  -27.4393   20.0929 C   0  0  0  0  0  0
  -25.5883  -33.8630   24.2338 N   0  0  0  0  0  0
  -23.4031  -30.4920   21.5481 C   0  0  2  0  0  0
  -24.8496  -28.9447   20.1257 C   0  0  0  0  0  0
  -22.7411  -29.4701   22.4999 C   0  0  0  0  0  0
  -18.0277  -28.1399   22.8507 C   0  0  0  0  0  0
  -24.1473  -36.7312   23.2639 C   0  0  0  0  0  0
  -25.9326  -30.8310   21.3610 C   0  0  0  0  0  0
  -26.0081  -29.4615   20.7172 C   0  0  0  0  0  0
  -27.2083  -28.7160   20.6989 C   0  0  0  0  0  0
  -26.0616  -26.9247   19.5067 C   0  0  0  0  0  0
  -24.8672  -27.6727   19.5219 C   0  0  0  0  0  0
  -23.6116  -29.8135   20.1687 C   0  0  0  0  0  0
  -25.4099  -36.3126   24.0327 C   0  0  1  0  0  0
  -20.5862  -28.3673   23.1335 C   0  0  2  0  0  0
  -20.6777  -26.9417   22.5433 C   0  0  0  0  0  0
  -19.5745  -26.6405   21.5240 C   0  0  0  0  0  0
  -18.1921  -26.7950   22.1637 C   0  0  0  0  0  0
  -19.1521  -28.8849   23.2915 C   0  0  0  0  0  0
  -18.9460  -30.1463   23.8914 C   0  0  0  0  0  0
  -17.6462  -30.6594   24.0574 C   0  0  0  0  0  0
  -25.9024  -34.9490   23.5128 C   0  0  0  0  0  0
  -16.5353  -29.9111   23.6331 C   0  0  0  0  0  0
  -16.7267  -28.6525   23.0360 C   0  0  0  0  0  0
  -26.4460  -31.6600   25.0737 C   0  0  0  0  0  0
  -25.3725  -31.3693   26.1478 C   0  0  0  0  0  0
  -27.0292  -30.3057   24.6100 C   0  0  0  0  0  0
  -27.6060  -32.4316   25.7479 C   0  0  0  0  0  0
  -27.5564  -37.1818   24.8468 C   0  0  0  0  0  0
  -21.4143  -29.3040   22.3747 N   0  0  0  0  0  0
  -26.4277  -37.3828   23.9420 N   0  0  0  0  0  0
  -24.6686  -31.0803   22.0968 N   0  0  0  0  0  0
  -23.4205  -28.8254   23.3023 O   0  0  0  0  0  0
  -28.4106  -26.7214   20.0319 O   0  0  0  0  0  0
  -26.5608  -34.8939   22.4706 O   0  0  0  0  0  0
  -23.5313  -32.1433   23.7468 O   0  0  0  0  0  0
  -32.2840  -18.3031   23.7778 C   0  0  0  0  0  0
  -32.8717  -17.0602   23.5015 C   0  0  0  0  0  0
  -31.0476  -18.6304   23.1984 C   0  0  0  0  0  0
  -32.1913  -16.1322   22.6964 C   0  0  0  0  0  0
  -30.3815  -17.7422   22.3194 C   0  0  0  0  0  0
  -30.9331  -16.4364   22.1150 C   0  0  0  0  0  0
  -27.9187  -21.1233   19.6570 C   0  0  0  0  0  0
  -27.8902  -19.6528   20.1124 C   0  0  0  0  0  0
  -29.5459  -20.6681   21.3495 C   0  0  0  0  0  0
  -29.1600  -21.7370   20.3084 C   0  0  2  0  0  0
  -29.0761  -18.2248   21.6688 C   0  0  0  0  0  0
  -28.6675  -24.2276   20.0231 C   0  0  0  0  0  0
  -28.4585  -25.5331   20.8339 C   0  0  0  0  0  0
  -29.1828  -19.3807   20.7466 N   0  0  0  0  0  0
  -30.2204  -15.3912   21.4380 N   0  0  0  0  0  0
  -28.9345  -23.0739   20.9283 N   0  3  0  0  0  0
  -31.4591  -12.4103   19.1207 H   0  0  0  0  0  0
  -30.3042  -11.3144   19.8176 H   0  0  0  0  0  0
  -29.7367  -11.8094   17.4218 H   0  0  0  0  0  0
  -29.6462  -13.5173   17.7791 H   0  0  0  0  0  0
  -27.8492  -11.3066   18.8323 H   0  0  0  0  0  0
  -27.3557  -12.6216   17.7966 H   0  0  0  0  0  0
  -27.7006  -14.2565   19.5723 H   0  0  0  0  0  0
  -28.6819  -11.9811   21.3629 H   0  0  0  0  0  0
  -28.4517  -13.6267   21.8669 H   0  0  0  0  0  0
  -25.2761   -9.5692   22.4746 H   0  0  0  0  0  0
  -24.0006   -7.4635   22.7465 H   0  0  0  0  0  0
  -21.0844   -8.8770   19.8926 H   0  0  0  0  0  0
  -22.3700  -10.9673   19.6144 H   0  0  0  0  0  0
  -21.1996   -7.6142   23.9712 H   0  0  0  0  0  0
  -21.1494   -6.0514   25.9074 H   0  0  0  0  0  0
  -22.0593   -2.7605   23.2829 H   0  0  0  0  0  0
  -22.4122  -11.9897   22.4792 H   0  0  0  0  0  0
  -21.1105  -13.1222   22.2546 H   0  0  0  0  0  0
  -24.6637  -15.8398   20.5120 H   0  0  0  0  0  0
  -26.2781  -15.6230   20.0656 H   0  0  0  0  0  0
  -26.7095  -32.5520   23.1187 H   0  0  0  0  0  0
  -25.0068  -33.9817   25.0503 H   0  0  0  0  0  0
  -22.6927  -31.3085   21.4050 H   0  0  0  0  0  0
  -23.3742  -35.9637   23.3323 H   0  0  0  0  0  0
  -24.3595  -36.8905   22.2055 H   0  0  0  0  0  0
  -23.7225  -37.6515   23.6665 H   0  0  0  0  0  0
  -26.0418  -31.5870   20.5827 H   0  0  0  0  0  0
  -26.8235  -30.8937   21.9735 H   0  0  0  0  0  0
  -28.1058  -29.1159   21.1479 H   0  0  0  0  0  0
  -26.0701  -25.9556   19.0288 H   0  0  0  0  0  0
  -23.9748  -27.2667   19.0672 H   0  0  0  0  0  0
  -23.7241  -30.5862   19.4066 H   0  0  0  0  0  0
  -22.7387  -29.2308   19.8696 H   0  0  0  0  0  0
  -25.1286  -36.1972   25.0814 H   0  0  0  0  0  0
  -20.9946  -28.3227   24.1446 H   0  0  0  0  0  0
  -20.5730  -26.2283   23.3621 H   0  0  0  0  0  0
  -21.6651  -26.7491   22.1195 H   0  0  0  0  0  0
  -19.6908  -25.6334   21.1234 H   0  0  0  0  0  0
  -19.6687  -27.3258   20.6803 H   0  0  0  0  0  0
  -17.4222  -26.6730   21.4006 H   0  0  0  0  0  0
  -18.0254  -26.0096   22.9010 H   0  0  0  0  0  0
  -19.7932  -30.7297   24.2288 H   0  0  0  0  0  0
  -17.4999  -31.6270   24.5198 H   0  0  0  0  0  0
  -15.5356  -30.3016   23.7638 H   0  0  0  0  0  0
  -15.8659  -28.0850   22.7062 H   0  0  0  0  0  0
  -24.5897  -30.7027   25.7823 H   0  0  0  0  0  0
  -24.8895  -32.2849   26.4907 H   0  0  0  0  0  0
  -25.8059  -30.8882   27.0256 H   0  0  0  0  0  0
  -26.2820  -29.6841   24.1159 H   0  0  0  0  0  0
  -27.4085  -29.7249   25.4519 H   0  0  0  0  0  0
  -27.8662  -30.4418   23.9246 H   0  0  0  0  0  0
  -27.2697  -33.3638   26.2053 H   0  0  0  0  0  0
  -28.3873  -32.6836   25.0281 H   0  0  0  0  0  0
  -28.0767  -31.8445   26.5385 H   0  0  0  0  0  0
  -28.2604  -38.0100   24.7529 H   0  0  0  0  0  0
  -28.1021  -36.2639   24.6252 H   0  0  0  0  0  0
  -27.2303  -37.1400   25.8877 H   0  0  0  0  0  0
  -20.9292  -29.8717   21.6943 H   0  0  0  0  0  0
  -26.0133  -38.2886   24.1447 H   0  0  0  0  0  0
  -32.7751  -19.0087   24.4347 H   0  0  0  0  0  0
  -33.8299  -16.8060   23.9347 H   0  0  0  0  0  0
  -30.6116  -19.5832   23.4505 H   0  0  0  0  0  0
  -32.6519  -15.1628   22.5547 H   0  0  0  0  0  0
  -26.9993  -21.6222   19.9714 H   0  0  0  0  0  0
  -27.9721  -21.2050   18.5702 H   0  0  0  0  0  0
  -27.7041  -18.9679   19.2811 H   0  0  0  0  0  0
  -27.0783  -19.5212   20.8306 H   0  0  0  0  0  0
  -28.9727  -20.8172   22.2690 H   0  0  0  0  0  0
  -30.6063  -20.7260   21.5925 H   0  0  0  0  0  0
  -29.9612  -21.8069   19.5692 H   0  0  0  0  0  0
  -28.3665  -18.4499   22.4658 H   0  0  0  0  0  0
  -28.6433  -17.3923   21.1150 H   0  0  0  0  0  0
  -29.5102  -24.3448   19.3395 H   0  0  0  0  0  0
  -27.7877  -24.0290   19.4105 H   0  0  0  0  0  0
  -29.3046  -25.6616   21.5125 H   0  0  0  0  0  0
  -27.5769  -25.4356   21.4719 H   0  0  0  0  0  0
  -29.2623  -15.2431   21.7154 H   0  0  0  0  0  0
  -29.7787  -23.2911   21.4376 H   0  0  0  0  0  0
  -28.1930  -23.0019   21.6078 H   0  0  0  0  0  0
  1 25  1  0  0  0
  1 30  2  0  0  0
  1 85  1  0  0  0
  2  3  1  0  0  0
  2 25  1  0  0  0
  2 87  1  0  0  0
  2 88  1  0  0  0
  3  4  1  0  0  0
  3 89  1  0  0  0
  3 90  1  0  0  0
  4  5  1  0  0  0
  4 91  1  0  0  0
  4 92  1  0  0  0
  5  6  1  0  0  0
  5 26  1  0  0  0
  5 93  1  0  0  0
  6 25  1  0  0  0
  6 94  1  0  0  0
  6 95  1  0  0  0
  7  8  2  0  0  0
  7 26  1  0  0  0
  7 29  1  0  0  0
  8  9  1  0  0  0
  8 22  1  0  0  0
  9 10  1  0  0  0
  9 27  2  0  0  0
 10 11  2  0  0  0
 10 15  1  0  0  0
 11 12  1  0  0  0
 11 96  1  0  0  0
 12 13  2  0  0  0
 12 97  1  0  0  0
 13 14  1  0  0  0
 13 31  1  0  0  0
 14 15  2  0  0  0
 14 98  1  0  0  0
 15 99  1  0  0  0
 16 17  2  0  0  0
 16 21  1  0  0  0
 16 31  1  0  0  0
 17 18  1  0  0  0
 17100  1  0  0  0
 18 19  2  0  0  0
 18101  1  0  0  0
 19 20  1  0  0  0
 19 24  1  0  0  0
 20 21  2  0  0  0
 20102  1  0  0  0
 21 23  1  0  0  0
 22 28  1  0  0  0
 22 32  2  0  0  0
 26 27  1  0  0  0
 28103  1  0  0  0
 28104  1  0  0  0
 29105  1  0  0  0
 29106  1  0  0  0
 33 34  1  0  0  0
 33 66  1  0  0  0
 33 70  2  0  0  0
 34 36  1  0  0  0
 34 59  1  0  0  0
 34107  1  0  0  0
 35 44  2  0  0  0
 35 45  1  0  0  0
 35 68  1  0  0  0
 36 56  1  0  0  0
 36108  1  0  0  0
 37 39  1  0  0  0
 37 47  1  0  0  0
 37 66  1  0  0  0
 37109  1  0  0  0
 38 43  2  0  0  0
 38 46  1  0  0  0
 38 47  1  0  0  0
 39 64  1  0  0  0
 39 67  2  0  0  0
 40 52  1  0  0  0
 40 53  2  0  0  0
 40 58  1  0  0  0
 41110  1  0  0  0
 41111  1  0  0  0
 41112  1  0  0  0
 41 48  1  0  0  0
 42 43  1  0  0  0
 42 66  1  0  0  0
 42113  1  0  0  0
 42114  1  0  0  0
 43 44  1  0  0  0
 44115  1  0  0  0
 45 46  2  0  0  0
 45116  1  0  0  0
 46117  1  0  0  0
 47118  1  0  0  0
 47119  1  0  0  0
 48 56  1  0  0  0
 48 65  1  0  0  0
 48120  1  0  0  0
 49 50  1  0  0  0
 49 53  1  0  0  0
 49 64  1  0  0  0
 49121  1  0  0  0
 50 51  1  0  0  0
 50122  1  0  0  0
 50123  1  0  0  0
 51 52  1  0  0  0
 51124  1  0  0  0
 51125  1  0  0  0
 52126  1  0  0  0
 52127  1  0  0  0
 53 54  1  0  0  0
 54 55  2  0  0  0
 54128  1  0  0  0
 55 57  1  0  0  0
 55129  1  0  0  0
 56 69  2  0  0  0
 57 58  2  0  0  0
 57130  1  0  0  0
 58131  1  0  0  0
 59 60  1  0  0  0
 59 61  1  0  0  0
 59 62  1  0  0  0
 60132  1  0  0  0
 60133  1  0  0  0
 60134  1  0  0  0
 61135  1  0  0  0
 61136  1  0  0  0
 61137  1  0  0  0
 62138  1  0  0  0
 62139  1  0  0  0
 62140  1  0  0  0
 63 65  1  0  0  0
 63141  1  0  0  0
 63142  1  0  0  0
 63143  1  0  0  0
 64144  1  0  0  0
 65145  1  0  0  0
 68 83  1  0  0  0
 71 72  2  0  0  0
 71 73  1  0  0  0
 71146  1  0  0  0
 72 74  1  0  0  0
 72147  1  0  0  0
 73 75  2  0  0  0
 73148  1  0  0  0
 74 76  2  0  0  0
 74149  1  0  0  0
 75 76  1  0  0  0
 75 81  1  0  0  0
 76 85  1  0  0  0
 77 78  1  0  0  0
 77 80  1  0  0  0
 77150  1  0  0  0
 77151  1  0  0  0
 78 84  1  0  0  0
 78152  1  0  0  0
 78153  1  0  0  0
 79 80  1  0  0  0
 79 84  1  0  0  0
 79154  1  0  0  0
 79155  1  0  0  0
 80 86  1  0  0  0
 80156  1  0  0  0
 81 84  1  0  0  0
 81157  1  0  0  0
 81158  1  0  0  0
 82 83  1  0  0  0
 82 86  1  0  0  0
 82159  1  0  0  0
 82160  1  0  0  0
 83161  1  0  0  0
 83162  1  0  0  0
 85163  1  0  0  0
 86164  1  0  0  0
 86165  1  0  0  0
M  CHG  1  86   1
M  ISO  4   1 100  68 101  83 101  85 100
M  END
> <chiral flag>
0

> <version>
0

> <s_m_source_file>
/data/baiqing/PycharmProjects/Reinvent-master-3.2/result/LINK_invent/BTK/process_docking_weight1_custom_sum_contain_oxygen_bond_distance_aromatic_linkinvent_7_9_3/rearranged_h_0137.sdf

> <i_m_source_file_index>
62

> <r_mmod_Potential_Energy-OPLS-2005>
-50.4213218688965

> <r_mmod_Stretch_Energy-OPLS-2005>
41.778247833252

> <r_mmod_Bend_Energy-OPLS-2005>
118.314842224121

> <r_mmod_Torsional_Energy-OPLS-2005>
315.440826416016

> <r_mmod_Improper_Torsional_Energy-OPLS-2005>
2.75706887245178

> <r_mmod_Van_der_Waal_Energy-OPLS-2005>
151.387420654297

> <r_mmod_Electrostatic_Energy-OPLS-2005>
-220.254684448242

> <r_mmod_Solvation_Energy-OPLS-2005>
-470.265197753906

> <b_mmod_Minimization_Converged-OPLS-2005>
0

> <r_mmod_RMS_Derivative-OPLS-2005>
4.00795936584473

$$$$
62
                    3D
 Structure written by MMmdl.
154163  0  0  1  0            999 V2000
  -30.4173  -15.3225   20.3585 C   0  0  0  0  0  0
  -30.4370  -12.8481   19.5342 C   0  0  0  0  0  0
  -29.5400  -12.5884   18.2967 C   0  0  0  0  0  0
  -28.0904  -12.3020   18.7229 C   0  0  0  0  0  0
  -27.6095  -13.2813   19.8223 C   0  0  2  0  0  0
  -28.6393  -13.4792   20.9562 C   0  0  0  0  0  0
  -25.2377  -13.8255   20.5749 C   0  0  0  0  0  0
  -24.1736  -13.0437   20.9261 C   0  0  0  0  0  0
  -24.6398  -11.6937   20.8761 C   0  0  0  0  0  0
  -23.9090  -10.4296   21.0398 C   0  0  0  0  0  0
  -24.3635   -9.4207   21.9175 C   0  0  0  0  0  0
  -23.6306   -8.2244   22.0745 C   0  0  0  0  0  0
  -22.4287   -8.0280   21.3538 C   0  0  0  0  0  0
  -21.9925   -9.0255   20.4643 C   0  0  0  0  0  0
  -22.7257  -10.2133   20.3051 C   0  0  0  0  0  0
  -21.6857   -6.0737   22.5275 C   0  0  0  0  0  0
  -21.4019   -6.5639   23.8210 C   0  0  0  0  0  0
  -21.3660   -5.6789   24.9170 C   0  0  0  0  0  0
  -21.6045   -4.3051   24.7222 C   0  0  0  0  0  0
  -21.8820   -3.8144   23.4342 C   0  0  0  0  0  0
  -21.9194   -4.6963   22.3400 C   0  0  0  0  0  0
  -22.7753  -13.5187   21.1903 C   0  0  0  0  0  0
  -22.1660   -4.2146   21.0978 F   0  0  0  0  0  0
  -21.5627   -3.4537   25.7735 F   0  0  0  0  0  0
  -29.8647  -14.0031   20.3287 N   0  0  0  0  0  0
  -26.2807  -12.9539   20.3212 N   0  0  0  0  0  0
  -25.9336  -11.6638   20.5710 N   0  0  0  0  0  0
  -22.0409  -12.8175   22.0460 N   0  0  0  0  0  0
  -25.3999  -15.1994   20.4185 N   0  0  0  0  0  0
  -31.6389  -15.3026   20.1379 O   0  0  0  0  0  0
  -21.6645   -6.8882   21.4238 O   0  0  0  0  0  0
  -22.3436  -14.5484   20.6729 O   0  0  0  0  0  0
  -24.6652  -31.8201   23.1664 C   0  0  0  0  0  0
  -25.9321  -32.4570   23.8146 C   0  0  1  0  0  0
  -27.2205  -26.8955   20.1927 C   0  0  0  0  0  0
  -25.5976  -33.8387   24.2050 N   0  0  0  0  0  0
  -23.4815  -30.4288   21.5160 C   0  0  2  0  0  0
  -24.9359  -28.8067   20.1117 C   0  0  0  0  0  0
  -22.7678  -29.4420   22.4770 C   0  0  0  0  0  0
  -18.0324  -28.1406   22.8460 C   0  0  0  0  0  0
  -24.1497  -36.7207   23.2645 C   0  0  0  0  0  0
  -26.0513  -30.6163   21.4000 C   0  0  0  0  0  0
  -26.1193  -29.2018   20.7467 C   0  0  0  0  0  0
  -27.2544  -28.2683   20.7599 C   0  0  0  0  0  0
  -26.0084  -26.6578   19.5070 C   0  0  0  0  0  0
  -24.9076  -27.5564   19.4706 C   0  0  0  0  0  0
  -23.7231  -29.7388   20.1440 C   0  0  0  0  0  0
  -25.4137  -36.2956   24.0294 C   0  0  1  0  0  0
  -20.5947  -28.3757   23.1180 C   0  0  2  0  0  0
  -20.6797  -26.9433   22.5403 C   0  0  0  0  0  0
  -19.5776  -26.6371   21.5213 C   0  0  0  0  0  0
  -18.1958  -26.7938   22.1619 C   0  0  0  0  0  0
  -19.1584  -28.8903   23.2807 C   0  0  0  0  0  0
  -18.9495  -30.1489   23.8846 C   0  0  0  0  0  0
  -17.6488  -30.6594   24.0552 C   0  0  0  0  0  0
  -25.9104  -34.9341   23.4998 C   0  0  0  0  0  0
  -16.5378  -29.9081   23.6341 C   0  0  0  0  0  0
  -16.7306  -28.6501   23.0359 C   0  0  0  0  0  0
  -26.4559  -31.6526   25.0690 C   0  0  0  0  0  0
  -25.3675  -31.3792   26.1343 C   0  0  0  0  0  0
  -27.0457  -30.2885   24.6449 C   0  0  0  0  0  0
  -27.6037  -32.4347   25.7500 C   0  0  0  0  0  0
  -27.5572  -37.1761   24.8463 C   0  0  0  0  0  0
  -21.4345  -29.3039   22.3524 N   0  0  0  0  0  0
  -26.4281  -37.3695   23.9403 N   0  0  0  0  0  0
  -24.7543  -30.9832   22.0811 N   0  0  0  0  0  0
  -23.4217  -28.7996   23.3027 O   0  0  0  0  0  0
  -28.2266  -25.7848   20.2852 O   0  0  0  0  0  0
  -26.5722  -34.8881   22.4601 O   0  0  0  0  0  0
  -23.5718  -32.1187   23.6739 O   0  0  0  0  0  0
  -31.6352  -19.8335   19.5155 C   0  0  0  0  0  0
  -31.1731  -18.5160   19.7223 C   0  0  0  0  0  0
  -29.0920  -19.5445   20.4689 C   0  0  0  0  0  0
  -30.8722  -20.9951   19.7834 C   0  0  0  0  0  0
  -29.5266  -21.0233   20.2071 C   0  0  0  0  0  0
  -29.9006  -18.2146   20.2491 C   0  0  0  0  0  0
  -31.5558  -22.3331   19.8096 C   0  0  0  0  0  0
  -29.1570  -22.7496   20.5309 C   0  0  1  0  0  0
  -30.4576  -23.3825   19.9618 C   0  0  1  0  0  0
  -28.0520  -24.1312   20.0935 C   0  0  0  0  0  0
  -29.6507  -16.6105   20.4639 N   0  0  0  0  0  0
  -30.9032  -24.6214   20.6316 N   0  3  0  0  0  0
  -31.4537  -13.0573   19.1983 H   0  0  0  0  0  0
  -30.5167  -11.9522   20.1526 H   0  0  0  0  0  0
  -29.9330  -11.7572   17.7097 H   0  0  0  0  0  0
  -29.5622  -13.4631   17.6447 H   0  0  0  0  0  0
  -28.0546  -11.2806   19.1031 H   0  0  0  0  0  0
  -27.4239  -12.3308   17.8604 H   0  0  0  0  0  0
  -27.5168  -14.2427   19.3147 H   0  0  0  0  0  0
  -28.8212  -12.5516   21.5011 H   0  0  0  0  0  0
  -28.2672  -14.2009   21.6852 H   0  0  0  0  0  0
  -25.2778   -9.5683   22.4752 H   0  0  0  0  0  0
  -24.0008   -7.4642   22.7474 H   0  0  0  0  0  0
  -21.0846   -8.8781   19.8966 H   0  0  0  0  0  0
  -22.3705  -10.9671   19.6165 H   0  0  0  0  0  0
  -21.2013   -7.6148   23.9713 H   0  0  0  0  0  0
  -21.1479   -6.0518   25.9072 H   0  0  0  0  0  0
  -22.0600   -2.7606   23.2842 H   0  0  0  0  0  0
  -22.4036  -11.9857   22.4874 H   0  0  0  0  0  0
  -21.1015  -13.1178   22.2643 H   0  0  0  0  0  0
  -24.6277  -15.8468   20.5359 H   0  0  0  0  0  0
  -26.2314  -15.6398   20.0475 H   0  0  0  0  0  0
  -26.7393  -32.5097   23.0863 H   0  0  0  0  0  0
  -25.0059  -33.9461   25.0158 H   0  0  0  0  0  0
  -22.7961  -31.2609   21.3415 H   0  0  0  0  0  0
  -23.3767  -35.9531   23.3271 H   0  0  0  0  0  0
  -24.3573  -36.8895   22.2067 H   0  0  0  0  0  0
  -23.7252  -37.6382   23.6730 H   0  0  0  0  0  0
  -26.2337  -31.3545   20.6177 H   0  0  0  0  0  0
  -26.9106  -30.6761   22.0561 H   0  0  0  0  0  0
  -28.1488  -28.5700   21.2862 H   0  0  0  0  0  0
  -25.8782  -25.7012   19.0217 H   0  0  0  0  0  0
  -24.0084  -27.2470   18.9554 H   0  0  0  0  0  0
  -23.8807  -30.5054   19.3844 H   0  0  0  0  0  0
  -22.8315  -29.1949   19.8265 H   0  0  0  0  0  0
  -25.1339  -36.1746   25.0786 H   0  0  0  0  0  0
  -21.0036  -28.3365   24.1305 H   0  0  0  0  0  0
  -20.5669  -26.2378   23.3648 H   0  0  0  0  0  0
  -21.6662  -26.7404   22.1217 H   0  0  0  0  0  0
  -19.6938  -25.6269   21.1277 H   0  0  0  0  0  0
  -19.6714  -27.3151   20.6717 H   0  0  0  0  0  0
  -17.4228  -26.6677   21.4020 H   0  0  0  0  0  0
  -18.0353  -26.0091   22.9026 H   0  0  0  0  0  0
  -19.7969  -30.7316   24.2194 H   0  0  0  0  0  0
  -17.5038  -31.6267   24.5165 H   0  0  0  0  0  0
  -15.5374  -30.2968   23.7691 H   0  0  0  0  0  0
  -15.8706  -28.0802   22.7106 H   0  0  0  0  0  0
  -24.5871  -30.7130   25.7652 H   0  0  0  0  0  0
  -24.8854  -32.3002   26.4629 H   0  0  0  0  0  0
  -25.7900  -30.9048   27.0212 H   0  0  0  0  0  0
  -26.3128  -29.6550   24.1445 H   0  0  0  0  0  0
  -27.3958  -29.7264   25.5118 H   0  0  0  0  0  0
  -27.9082  -30.4047   23.9885 H   0  0  0  0  0  0
  -27.2591  -33.3692   26.1940 H   0  0  0  0  0  0
  -28.3922  -32.6844   25.0387 H   0  0  0  0  0  0
  -28.0629  -31.8573   26.5534 H   0  0  0  0  0  0
  -28.2564  -38.0079   24.7508 H   0  0  0  0  0  0
  -28.1093  -36.2606   24.6292 H   0  0  0  0  0  0
  -27.2291  -37.1403   25.8866 H   0  0  0  0  0  0
  -20.9605  -29.8728   21.6648 H   0  0  0  0  0  0
  -26.0126  -38.2756   24.1400 H   0  0  0  0  0  0
  -32.6592  -19.9560   19.1895 H   0  0  0  0  0  0
  -31.8632  -17.7159   19.4992 H   0  0  0  0  0  0
  -28.1103  -19.4231   20.9051 H   0  0  0  0  0  0
  -32.1471  -22.4941   18.9073 H   0  0  0  0  0  0
  -32.2374  -22.3467   20.6616 H   0  0  0  0  0  0
  -29.2051  -22.7773   21.6200 H   0  0  0  0  0  0
  -30.2219  -23.6640   18.9336 H   0  0  0  0  0  0
  -27.0903  -23.8955   20.5498 H   0  0  0  0  0  0
  -27.8629  -24.0240   19.0248 H   0  0  0  0  0  0
  -28.6888  -16.4075   20.6951 H   0  0  0  0  0  0
  -31.1768  -24.4427   21.5816 H   0  0  0  0  0  0
  -30.1533  -25.2952   20.6334 H   0  0  0  0  0  0
  -31.6843  -25.0245   20.1443 H   0  0  0  0  0  0
  1 25  1  0  0  0
  1 30  2  0  0  0
  1 81  1  0  0  0
  2  3  1  0  0  0
  2 25  1  0  0  0
  2 83  1  0  0  0
  2 84  1  0  0  0
  3  4  1  0  0  0
  3 85  1  0  0  0
  3 86  1  0  0  0
  4  5  1  0  0  0
  4 87  1  0  0  0
  4 88  1  0  0  0
  5  6  1  0  0  0
  5 26  1  0  0  0
  5 89  1  0  0  0
  6 25  1  0  0  0
  6 90  1  0  0  0
  6 91  1  0  0  0
  7  8  2  0  0  0
  7 26  1  0  0  0
  7 29  1  0  0  0
  8  9  1  0  0  0
  8 22  1  0  0  0
  9 10  1  0  0  0
  9 27  2  0  0  0
 10 11  2  0  0  0
 10 15  1  0  0  0
 11 12  1  0  0  0
 11 92  1  0  0  0
 12 13  2  0  0  0
 12 93  1  0  0  0
 13 14  1  0  0  0
 13 31  1  0  0  0
 14 15  2  0  0  0
 14 94  1  0  0  0
 15 95  1  0  0  0
 16 17  2  0  0  0
 16 21  1  0  0  0
 16 31  1  0  0  0
 17 18  1  0  0  0
 17 96  1  0  0  0
 18 19  2  0  0  0
 18 97  1  0  0  0
 19 20  1  0  0  0
 19 24  1  0  0  0
 20 21  2  0  0  0
 20 98  1  0  0  0
 21 23  1  0  0  0
 22 28  1  0  0  0
 22 32  2  0  0  0
 26 27  1  0  0  0
 28 99  1  0  0  0
 28100  1  0  0  0
 29101  1  0  0  0
 29102  1  0  0  0
 33 34  1  0  0  0
 33 66  1  0  0  0
 33 70  2  0  0  0
 34 36  1  0  0  0
 34 59  1  0  0  0
 34103  1  0  0  0
 35 44  2  0  0  0
 35 45  1  0  0  0
 35 68  1  0  0  0
 36 56  1  0  0  0
 36104  1  0  0  0
 37 39  1  0  0  0
 37 47  1  0  0  0
 37 66  1  0  0  0
 37105  1  0  0  0
 38 43  2  0  0  0
 38 46  1  0  0  0
 38 47  1  0  0  0
 39 64  1  0  0  0
 39 67  2  0  0  0
 40 52  1  0  0  0
 40 53  2  0  0  0
 40 58  1  0  0  0
 41106  1  0  0  0
 41107  1  0  0  0
 41108  1  0  0  0
 41 48  1  0  0  0
 42 43  1  0  0  0
 42 66  1  0  0  0
 42109  1  0  0  0
 42110  1  0  0  0
 43 44  1  0  0  0
 44111  1  0  0  0
 45 46  2  0  0  0
 45112  1  0  0  0
 46113  1  0  0  0
 47114  1  0  0  0
 47115  1  0  0  0
 48 56  1  0  0  0
 48 65  1  0  0  0
 48116  1  0  0  0
 49 50  1  0  0  0
 49 53  1  0  0  0
 49 64  1  0  0  0
 49117  1  0  0  0
 50 51  1  0  0  0
 50118  1  0  0  0
 50119  1  0  0  0
 51 52  1  0  0  0
 51120  1  0  0  0
 51121  1  0  0  0
 52122  1  0  0  0
 52123  1  0  0  0
 53 54  1  0  0  0
 54 55  2  0  0  0
 54124  1  0  0  0
 55 57  1  0  0  0
 55125  1  0  0  0
 56 69  2  0  0  0
 57 58  2  0  0  0
 57126  1  0  0  0
 58127  1  0  0  0
 59 60  1  0  0  0
 59 61  1  0  0  0
 59 62  1  0  0  0
 60128  1  0  0  0
 60129  1  0  0  0
 60130  1  0  0  0
 61131  1  0  0  0
 61132  1  0  0  0
 61133  1  0  0  0
 62134  1  0  0  0
 62135  1  0  0  0
 62136  1  0  0  0
 63 65  1  0  0  0
 63137  1  0  0  0
 63138  1  0  0  0
 63139  1  0  0  0
 64140  1  0  0  0
 65141  1  0  0  0
 68 80  1  0  0  0
 71 72  2  0  0  0
 71 74  1  0  0  0
 71142  1  0  0  0
 72 76  1  0  0  0
 72143  1  0  0  0
 73 75  1  0  0  0
 73 76  2  0  0  0
 73144  1  0  0  0
 74 75  2  0  0  0
 74 77  1  0  0  0
 75 78  1  0  0  0
 76 81  1  0  0  0
 77 79  1  0  0  0
 77145  1  0  0  0
 77146  1  0  0  0
 78 79  1  0  0  0
 78 80  1  0  0  0
 78147  1  0  0  0
 79 82  1  0  0  0
 79148  1  0  0  0
 80149  1  0  0  0
 80150  1  0  0  0
 81151  1  0  0  0
 82152  1  0  0  0
 82153  1  0  0  0
 82154  1  0  0  0
M  CHG  1  82   1
M  ISO  4   1 100  68 101  80 101  81 100
M  END
> <chiral flag>
0

> <version>
0

> <s_m_source_file>
/data/baiqing/PycharmProjects/Reinvent-master-3.2/result/LINK_invent/BTK/process_docking_weight1_custom_sum_contain_oxygen_bond_distance_aromatic_linkinvent_7_9_3/rearranged_h_0137.sdf

> <i_m_source_file_index>
63

> <r_mmod_Potential_Energy-OPLS-2005>
1270.38024902344

> <r_mmod_Stretch_Energy-OPLS-2005>
671.725646972656

> <r_mmod_Bend_Energy-OPLS-2005>
546.84326171875

> <r_mmod_Torsional_Energy-OPLS-2005>
250.61360168457

> <r_mmod_Improper_Torsional_Energy-OPLS-2005>
7.52179288864136

> <r_mmod_Van_der_Waal_Energy-OPLS-2005>
127.133430480957

> <r_mmod_Electrostatic_Energy-OPLS-2005>
-348.641296386719

> <r_mmod_Solvation_Energy-OPLS-2005>
-496.699127197266

> <b_mmod_Minimization_Converged-OPLS-2005>
0

> <r_mmod_RMS_Derivative-OPLS-2005>
0.834907650947571

$$$$
63
                    3D
 Structure written by MMmdl.
159168  0  0  1  0            999 V2000
  -30.3823  -15.3745   20.3619 C   0  0  0  0  0  0
  -30.4359  -12.8956   19.5100 C   0  0  0  0  0  0
  -29.5360  -12.5962   18.2820 C   0  0  0  0  0  0
  -28.0910  -12.2967   18.7153 C   0  0  0  0  0  0
  -27.6020  -13.2788   19.8077 C   0  0  2  0  0  0
  -28.6362  -13.5018   20.9306 C   0  0  0  0  0  0
  -25.2371  -13.8221   20.5696 C   0  0  0  0  0  0
  -24.1743  -13.0415   20.9274 C   0  0  0  0  0  0
  -24.6405  -11.6911   20.8781 C   0  0  0  0  0  0
  -23.9094  -10.4276   21.0409 C   0  0  0  0  0  0
  -24.3637   -9.4196   21.9188 C   0  0  0  0  0  0
  -23.6303   -8.2236   22.0752 C   0  0  0  0  0  0
  -22.4282   -8.0278   21.3543 C   0  0  0  0  0  0
  -21.9925   -9.0251   20.4646 C   0  0  0  0  0  0
  -22.7258  -10.2129   20.3060 C   0  0  0  0  0  0
  -21.6857   -6.0737   22.5278 C   0  0  0  0  0  0
  -21.4005   -6.5632   23.8210 C   0  0  0  0  0  0
  -21.3662   -5.6783   24.9171 C   0  0  0  0  0  0
  -21.6048   -4.3047   24.7218 C   0  0  0  0  0  0
  -21.8821   -3.8146   23.4335 C   0  0  0  0  0  0
  -21.9188   -4.6967   22.3395 C   0  0  0  0  0  0
  -22.7768  -13.5188   21.1895 C   0  0  0  0  0  0
  -22.1654   -4.2164   21.0968 F   0  0  0  0  0  0
  -21.5642   -3.4521   25.7724 F   0  0  0  0  0  0
  -29.8395  -14.0515   20.2807 N   0  0  0  0  0  0
  -26.2789  -12.9504   20.3158 N   0  0  0  0  0  0
  -25.9343  -11.6613   20.5712 N   0  0  0  0  0  0
  -22.0407  -12.8182   22.0454 N   0  0  0  0  0  0
  -25.3970  -15.1936   20.3991 N   0  0  0  0  0  0
  -31.6203  -15.3637   20.2623 O   0  0  0  0  0  0
  -21.6645   -6.8875   21.4238 O   0  0  0  0  0  0
  -22.3442  -14.5470   20.6698 O   0  0  0  0  0  0
  -24.6708  -31.8168   23.1660 C   0  0  0  0  0  0
  -25.9363  -32.4546   23.8152 C   0  0  1  0  0  0
  -27.2108  -26.8466   20.1983 C   0  0  0  0  0  0
  -25.6013  -33.8366   24.2043 N   0  0  0  0  0  0
  -23.4881  -30.4274   21.5176 C   0  0  2  0  0  0
  -24.9432  -28.7998   20.1190 C   0  0  0  0  0  0
  -22.7692  -29.4421   22.4769 C   0  0  0  0  0  0
  -18.0327  -28.1408   22.8467 C   0  0  0  0  0  0
  -24.1489  -36.7173   23.2645 C   0  0  0  0  0  0
  -26.0636  -30.5963   21.4127 C   0  0  0  0  0  0
  -26.1286  -29.1769   20.7621 C   0  0  0  0  0  0
  -27.2551  -28.2219   20.7780 C   0  0  0  0  0  0
  -26.0014  -26.6540   19.4894 C   0  0  0  0  0  0
  -24.9088  -27.5582   19.4660 C   0  0  0  0  0  0
  -23.7326  -29.7366   20.1488 C   0  0  0  0  0  0
  -25.4134  -36.2930   24.0288 C   0  0  1  0  0  0
  -20.5955  -28.3747   23.1176 C   0  0  2  0  0  0
  -20.6789  -26.9408   22.5443 C   0  0  0  0  0  0
  -19.5771  -26.6365   21.5243 C   0  0  0  0  0  0
  -18.1946  -26.7945   22.1625 C   0  0  0  0  0  0
  -19.1594  -28.8903   23.2800 C   0  0  0  0  0  0
  -18.9500  -30.1512   23.8810 C   0  0  0  0  0  0
  -17.6496  -30.6597   24.0549 C   0  0  0  0  0  0
  -25.9103  -34.9319   23.4987 C   0  0  0  0  0  0
  -16.5383  -29.9072   23.6370 C   0  0  0  0  0  0
  -16.7309  -28.6494   23.0383 C   0  0  0  0  0  0
  -26.4585  -31.6518   25.0713 C   0  0  0  0  0  0
  -25.3696  -31.3824   26.1364 C   0  0  0  0  0  0
  -27.0477  -30.2851   24.6526 C   0  0  0  0  0  0
  -27.6049  -32.4355   25.7513 C   0  0  0  0  0  0
  -27.5557  -37.1740   24.8466 C   0  0  0  0  0  0
  -21.4360  -29.3025   22.3507 N   0  0  0  0  0  0
  -26.4260  -37.3689   23.9423 N   0  0  0  0  0  0
  -24.7627  -30.9750   22.0847 N   0  0  0  0  0  0
  -23.4209  -28.8006   23.3040 O   0  0  0  0  0  0
  -28.1806  -25.6816   20.2121 O   0  0  0  0  0  0
  -26.5731  -34.8856   22.4584 O   0  0  0  0  0  0
  -23.5771  -32.1197   23.6698 O   0  0  0  0  0  0
  -26.3075  -22.5154   21.3178 C   0  0  0  0  0  0
  -26.6973  -23.8426   21.0563 C   0  0  0  0  0  0
  -27.0872  -21.3652   21.0153 C   0  0  0  0  0  0
  -28.3904  -21.4800   20.4394 C   0  0  0  0  0  0
  -27.9109  -24.1586   20.4360 C   0  0  0  0  0  0
  -24.5232  -18.5709   19.9483 C   0  0  0  0  0  0
  -23.9756  -19.9762   20.0259 C   0  0  0  0  0  0
  -25.4738  -19.7470   20.0038 C   0  0  0  0  0  0
  -25.7116  -19.8395   22.5796 C   0  0  0  0  0  0
  -29.1301  -19.9239   19.9333 C   0  0  0  0  0  0
  -29.6522  -18.3291   20.7156 C   0  0  0  0  0  0
  -26.3916  -20.0062   21.2018 C   0  0  2  0  0  0
  -28.7300  -22.9254   20.1593 N   0  0  0  0  0  0
  -29.5865  -16.6553   20.3534 N   0  0  0  0  0  0
  -31.4439  -13.1357   19.1681 H   0  0  0  0  0  0
  -30.5434  -12.0124   20.1417 H   0  0  0  0  0  0
  -29.9428  -11.7632   17.7053 H   0  0  0  0  0  0
  -29.5382  -13.4627   17.6164 H   0  0  0  0  0  0
  -28.0601  -11.2755   19.0953 H   0  0  0  0  0  0
  -27.4230  -12.3214   17.8541 H   0  0  0  0  0  0
  -27.4967  -14.2308   19.2877 H   0  0  0  0  0  0
  -28.8410  -12.5821   21.4796 H   0  0  0  0  0  0
  -28.2591  -14.2242   21.6559 H   0  0  0  0  0  0
  -25.2776   -9.5672   22.4770 H   0  0  0  0  0  0
  -24.0016   -7.4615   22.7460 H   0  0  0  0  0  0
  -21.0865   -8.8741   19.8940 H   0  0  0  0  0  0
  -22.3701  -10.9658   19.6168 H   0  0  0  0  0  0
  -21.1987   -7.6137   23.9711 H   0  0  0  0  0  0
  -21.1496   -6.0516   25.9074 H   0  0  0  0  0  0
  -22.0615   -2.7614   23.2821 H   0  0  0  0  0  0
  -22.4033  -11.9860   22.4852 H   0  0  0  0  0  0
  -21.1016  -13.1199   22.2631 H   0  0  0  0  0  0
  -24.6052  -15.8219   20.4604 H   0  0  0  0  0  0
  -26.2001  -15.6088   19.9467 H   0  0  0  0  0  0
  -26.7441  -32.5050   23.0869 H   0  0  0  0  0  0
  -25.0116  -33.9461   25.0164 H   0  0  0  0  0  0
  -22.8062  -31.2613   21.3399 H   0  0  0  0  0  0
  -23.3769  -35.9486   23.3278 H   0  0  0  0  0  0
  -24.3561  -36.8867   22.2066 H   0  0  0  0  0  0
  -23.7215  -37.6332   23.6737 H   0  0  0  0  0  0
  -26.2532  -31.3320   20.6301 H   0  0  0  0  0  0
  -26.9215  -30.6579   22.0712 H   0  0  0  0  0  0
  -28.1520  -28.5160   21.3031 H   0  0  0  0  0  0
  -25.8665  -25.7091   18.9810 H   0  0  0  0  0  0
  -24.0089  -27.2624   18.9451 H   0  0  0  0  0  0
  -23.8948  -30.5031   19.3894 H   0  0  0  0  0  0
  -22.8403  -29.1948   19.8295 H   0  0  0  0  0  0
  -25.1326  -36.1717   25.0782 H   0  0  0  0  0  0
  -21.0024  -28.3369   24.1302 H   0  0  0  0  0  0
  -20.5618  -26.2368   23.3698 H   0  0  0  0  0  0
  -21.6660  -26.7358   22.1273 H   0  0  0  0  0  0
  -19.6945  -25.6258   21.1299 H   0  0  0  0  0  0
  -19.6710  -27.3137   20.6747 H   0  0  0  0  0  0
  -17.4208  -26.6667   21.4037 H   0  0  0  0  0  0
  -18.0336  -26.0101   22.9037 H   0  0  0  0  0  0
  -19.7991  -30.7375   24.2070 H   0  0  0  0  0  0
  -17.5060  -31.6281   24.5138 H   0  0  0  0  0  0
  -15.5388  -30.2968   23.7704 H   0  0  0  0  0  0
  -15.8715  -28.0778   22.7136 H   0  0  0  0  0  0
  -24.5863  -30.7183   25.7698 H   0  0  0  0  0  0
  -24.8909  -32.3051   26.4648 H   0  0  0  0  0  0
  -25.7915  -30.9083   27.0233 H   0  0  0  0  0  0
  -26.3174  -29.6502   24.1489 H   0  0  0  0  0  0
  -27.3909  -29.7236   25.5232 H   0  0  0  0  0  0
  -27.9162  -30.3981   24.0027 H   0  0  0  0  0  0
  -27.2591  -33.3715   26.1910 H   0  0  0  0  0  0
  -28.3940  -32.6832   25.0400 H   0  0  0  0  0  0
  -28.0623  -31.8610   26.5582 H   0  0  0  0  0  0
  -28.2541  -38.0064   24.7514 H   0  0  0  0  0  0
  -28.1079  -36.2583   24.6283 H   0  0  0  0  0  0
  -27.2278  -37.1369   25.8868 H   0  0  0  0  0  0
  -20.9613  -29.8718   21.6627 H   0  0  0  0  0  0
  -26.0093  -38.2738   24.1451 H   0  0  0  0  0  0
  -25.3213  -22.3895   21.7382 H   0  0  0  0  0  0
  -26.0141  -24.6311   21.3312 H   0  0  0  0  0  0
  -24.4415  -18.0482   18.9965 H   0  0  0  0  0  0
  -24.4102  -17.9414   20.8286 H   0  0  0  0  0  0
  -23.4950  -20.2697   20.9568 H   0  0  0  0  0  0
  -23.5194  -20.3830   19.1249 H   0  0  0  0  0  0
  -25.9640  -19.9546   19.0542 H   0  0  0  0  0  0
  -26.4267  -19.9924   23.3871 H   0  0  0  0  0  0
  -25.3062  -18.8341   22.6988 H   0  0  0  0  0  0
  -24.8842  -20.5285   22.7463 H   0  0  0  0  0  0
  -29.9955  -20.2375   19.3503 H   0  0  0  0  0  0
  -28.4329  -19.5973   19.1623 H   0  0  0  0  0  0
  -29.1462  -18.3475   21.6804 H   0  0  0  0  0  0
  -30.6928  -18.4923   20.9914 H   0  0  0  0  0  0
  -27.1272  -19.2124   21.1799 H   0  0  0  0  0  0
  -28.6195  -16.3971   20.2257 H   0  0  0  0  0  0
  1 25  1  0  0  0
  1 30  2  0  0  0
  1 84  1  0  0  0
  2  3  1  0  0  0
  2 25  1  0  0  0
  2 85  1  0  0  0
  2 86  1  0  0  0
  3  4  1  0  0  0
  3 87  1  0  0  0
  3 88  1  0  0  0
  4  5  1  0  0  0
  4 89  1  0  0  0
  4 90  1  0  0  0
  5  6  1  0  0  0
  5 26  1  0  0  0
  5 91  1  0  0  0
  6 25  1  0  0  0
  6 92  1  0  0  0
  6 93  1  0  0  0
  7  8  2  0  0  0
  7 26  1  0  0  0
  7 29  1  0  0  0
  8  9  1  0  0  0
  8 22  1  0  0  0
  9 10  1  0  0  0
  9 27  2  0  0  0
 10 11  2  0  0  0
 10 15  1  0  0  0
 11 12  1  0  0  0
 11 94  1  0  0  0
 12 13  2  0  0  0
 12 95  1  0  0  0
 13 14  1  0  0  0
 13 31  1  0  0  0
 14 15  2  0  0  0
 14 96  1  0  0  0
 15 97  1  0  0  0
 16 17  2  0  0  0
 16 21  1  0  0  0
 16 31  1  0  0  0
 17 18  1  0  0  0
 17 98  1  0  0  0
 18 19  2  0  0  0
 18 99  1  0  0  0
 19 20  1  0  0  0
 19 24  1  0  0  0
 20 21  2  0  0  0
 20100  1  0  0  0
 21 23  1  0  0  0
 22 28  1  0  0  0
 22 32  2  0  0  0
 26 27  1  0  0  0
 28101  1  0  0  0
 28102  1  0  0  0
 29103  1  0  0  0
 29104  1  0  0  0
 33 34  1  0  0  0
 33 66  1  0  0  0
 33 70  2  0  0  0
 34 36  1  0  0  0
 34 59  1  0  0  0
 34105  1  0  0  0
 35 44  2  0  0  0
 35 45  1  0  0  0
 35 68  1  0  0  0
 36 56  1  0  0  0
 36106  1  0  0  0
 37 39  1  0  0  0
 37 47  1  0  0  0
 37 66  1  0  0  0
 37107  1  0  0  0
 38 43  2  0  0  0
 38 46  1  0  0  0
 38 47  1  0  0  0
 39 64  1  0  0  0
 39 67  2  0  0  0
 40 52  1  0  0  0
 40 53  2  0  0  0
 40 58  1  0  0  0
 41108  1  0  0  0
 41109  1  0  0  0
 41110  1  0  0  0
 41 48  1  0  0  0
 42 43  1  0  0  0
 42 66  1  0  0  0
 42111  1  0  0  0
 42112  1  0  0  0
 43 44  1  0  0  0
 44113  1  0  0  0
 45 46  2  0  0  0
 45114  1  0  0  0
 46115  1  0  0  0
 47116  1  0  0  0
 47117  1  0  0  0
 48 56  1  0  0  0
 48 65  1  0  0  0
 48118  1  0  0  0
 49 50  1  0  0  0
 49 53  1  0  0  0
 49 64  1  0  0  0
 49119  1  0  0  0
 50 51  1  0  0  0
 50120  1  0  0  0
 50121  1  0  0  0
 51 52  1  0  0  0
 51122  1  0  0  0
 51123  1  0  0  0
 52124  1  0  0  0
 52125  1  0  0  0
 53 54  1  0  0  0
 54 55  2  0  0  0
 54126  1  0  0  0
 55 57  1  0  0  0
 55127  1  0  0  0
 56 69  2  0  0  0
 57 58  2  0  0  0
 57128  1  0  0  0
 58129  1  0  0  0
 59 60  1  0  0  0
 59 61  1  0  0  0
 59 62  1  0  0  0
 60130  1  0  0  0
 60131  1  0  0  0
 60132  1  0  0  0
 61133  1  0  0  0
 61134  1  0  0  0
 61135  1  0  0  0
 62136  1  0  0  0
 62137  1  0  0  0
 62138  1  0  0  0
 63 65  1  0  0  0
 63139  1  0  0  0
 63140  1  0  0  0
 63141  1  0  0  0
 64142  1  0  0  0
 65143  1  0  0  0
 68 75  1  0  0  0
 71 72  2  0  0  0
 71 73  1  0  0  0
 71144  1  0  0  0
 72 75  1  0  0  0
 72145  1  0  0  0
 73 74  2  0  0  0
 73 82  1  0  0  0
 74 80  1  0  0  0
 74 83  1  0  0  0
 75 83  2  0  0  0
 76 77  1  0  0  0
 76146  1  0  0  0
 76147  1  0  0  0
 76 78  1  0  0  0
 77 78  1  0  0  0
 77148  1  0  0  0
 77149  1  0  0  0
 78 82  1  0  0  0
 78150  1  0  0  0
 79151  1  0  0  0
 79152  1  0  0  0
 79153  1  0  0  0
 79 82  1  0  0  0
 80 81  1  0  0  0
 80154  1  0  0  0
 80155  1  0  0  0
 81 84  1  0  0  0
 81156  1  0  0  0
 81157  1  0  0  0
 82158  1  0  0  0
 84159  1  0  0  0
M  ISO  4   1 100  68 101  75 101  84 100
M  END
> <chiral flag>
0

> <version>
0

> <s_m_source_file>
/data/baiqing/PycharmProjects/Reinvent-master-3.2/result/LINK_invent/BTK/process_docking_weight1_custom_sum_contain_oxygen_bond_distance_aromatic_linkinvent_7_9_3/rearranged_h_0137.sdf

> <i_m_source_file_index>
64

> <r_mmod_Potential_Energy-OPLS-2005>
1500.05322265625

> <r_mmod_Stretch_Energy-OPLS-2005>
715.849426269531

> <r_mmod_Bend_Energy-OPLS-2005>
500.562286376953

> <r_mmod_Torsional_Energy-OPLS-2005>
270.647033691406

> <r_mmod_Improper_Torsional_Energy-OPLS-2005>
7.52259540557861

> <r_mmod_Van_der_Waal_Energy-OPLS-2005>
126.957130432129

> <r_mmod_Electrostatic_Energy-OPLS-2005>
-483.660430908203

> <r_mmod_Solvation_Energy-OPLS-2005>
-228.924789428711

> <b_mmod_Minimization_Converged-OPLS-2005>
0

> <r_mmod_RMS_Derivative-OPLS-2005>
3.00456404685974

$$$$
64
                    3D
 Structure written by MMmdl.
154162  0  0  1  0            999 V2000
  -30.6353  -14.6498   20.4618 C   0  0  0  0  0  0
  -30.4278  -12.3891   19.4694 C   0  0  0  0  0  0
  -29.5085  -12.4889   18.2323 C   0  0  0  0  0  0
  -28.0308  -12.3335   18.6432 C   0  0  0  0  0  0
  -27.6483  -13.2210   19.8587 C   0  0  2  0  0  0
  -28.6896  -13.1147   20.9956 C   0  0  0  0  0  0
  -25.2533  -13.8176   20.5658 C   0  0  0  0  0  0
  -24.1812  -13.0440   20.9192 C   0  0  0  0  0  0
  -24.6379  -11.6910   20.8730 C   0  0  0  0  0  0
  -23.9040  -10.4295   21.0405 C   0  0  0  0  0  0
  -24.3603   -9.4215   21.9179 C   0  0  0  0  0  0
  -23.6290   -8.2242   22.0747 C   0  0  0  0  0  0
  -22.4274   -8.0268   21.3538 C   0  0  0  0  0  0
  -21.9902   -9.0238   20.4637 C   0  0  0  0  0  0
  -22.7220  -10.2124   20.3046 C   0  0  0  0  0  0
  -21.6863   -6.0715   22.5274 C   0  0  0  0  0  0
  -21.4012   -6.5619   23.8204 C   0  0  0  0  0  0
  -21.3668   -5.6781   24.9171 C   0  0  0  0  0  0
  -21.6052   -4.3043   24.7232 C   0  0  0  0  0  0
  -21.8823   -3.8127   23.4358 C   0  0  0  0  0  0
  -21.9197   -4.6940   22.3408 C   0  0  0  0  0  0
  -22.7838  -13.5238   21.1862 C   0  0  0  0  0  0
  -22.1668   -4.2118   21.0986 F   0  0  0  0  0  0
  -21.5640   -3.4531   25.7751 F   0  0  0  0  0  0
  -30.0040  -13.4349   20.4241 N   0  0  0  0  0  0
  -26.2961  -12.9364   20.3294 N   0  0  0  0  0  0
  -25.9311  -11.6513   20.5752 N   0  0  0  0  0  0
  -22.0480  -12.8212   22.0400 N   0  0  0  0  0  0
  -25.4241  -15.1898   20.4041 N   0  0  0  0  0  0
  -31.8066  -14.7674   20.0941 O   0  0  0  0  0  0
  -21.6652   -6.8858   21.4235 O   0  0  0  0  0  0
  -22.3518  -14.5551   20.6723 O   0  0  0  0  0  0
  -24.6263  -31.8613   23.2014 C   0  0  0  0  0  0
  -25.9107  -32.4798   23.8348 C   0  0  1  0  0  0
  -27.2133  -27.3230   20.1299 C   0  0  0  0  0  0
  -25.5935  -33.8589   24.2277 N   0  0  0  0  0  0
  -23.4189  -30.4849   21.5452 C   0  0  2  0  0  0
  -24.8655  -28.9376   20.1112 C   0  0  0  0  0  0
  -22.7477  -29.4643   22.4945 C   0  0  0  0  0  0
  -18.0297  -28.1396   22.8491 C   0  0  0  0  0  0
  -24.1486  -36.7271   23.2635 C   0  0  0  0  0  0
  -25.9585  -30.7961   21.3676 C   0  0  0  0  0  0
  -26.0343  -29.4216   20.7139 C   0  0  0  0  0  0
  -27.2179  -28.6263   20.7116 C   0  0  0  0  0  0
  -26.0296  -26.8907   19.4982 C   0  0  0  0  0  0
  -24.8642  -27.6770   19.4928 C   0  0  0  0  0  0
  -23.6333  -29.8170   20.1609 C   0  0  0  0  0  0
  -25.4110  -36.3084   24.0338 C   0  0  1  0  0  0
  -20.5905  -28.3696   23.1292 C   0  0  2  0  0  0
  -20.6775  -26.9421   22.5417 C   0  0  0  0  0  0
  -19.5747  -26.6410   21.5212 C   0  0  0  0  0  0
  -18.1927  -26.7950   22.1628 C   0  0  0  0  0  0
  -19.1550  -28.8863   23.2891 C   0  0  0  0  0  0
  -18.9470  -30.1467   23.8903 C   0  0  0  0  0  0
  -17.6465  -30.6598   24.0572 C   0  0  0  0  0  0
  -25.9047  -34.9462   23.5104 C   0  0  0  0  0  0
  -16.5358  -29.9091   23.6342 C   0  0  0  0  0  0
  -16.7287  -28.6515   23.0362 C   0  0  0  0  0  0
  -26.4477  -31.6602   25.0717 C   0  0  0  0  0  0
  -25.3705  -31.3739   26.1447 C   0  0  0  0  0  0
  -27.0294  -30.3030   24.6137 C   0  0  0  0  0  0
  -27.6056  -32.4307   25.7490 C   0  0  0  0  0  0
  -27.5573  -37.1796   24.8468 C   0  0  0  0  0  0
  -21.4192  -29.3045   22.3682 N   0  0  0  0  0  0
  -26.4278  -37.3790   23.9424 N   0  0  0  0  0  0
  -24.6873  -31.0633   22.0956 N   0  0  0  0  0  0
  -23.4202  -28.8192   23.3035 O   0  0  0  0  0  0
  -28.2833  -26.4247   20.1806 O   0  0  0  0  0  0
  -26.5612  -34.8929   22.4665 O   0  0  0  0  0  0
  -23.5434  -32.1412   23.7346 O   0  0  0  0  0  0
  -28.3558  -22.7415   21.6194 C   0  0  0  0  0  0
  -28.7017  -21.3737   21.3959 C   0  0  0  0  0  0
  -29.3158  -21.9475   19.1503 C   0  0  0  0  0  0
  -28.4803  -23.7613   20.6285 C   0  0  0  0  0  0
  -28.9559  -23.3181   19.3633 C   0  0  0  0  0  0
  -29.2095  -20.9362   20.1480 C   0  0  0  0  0  0
  -29.0885  -24.2971   18.2120 C   0  0  0  0  0  0
  -28.0213  -25.2262   21.0098 C   0  0  0  0  0  0
  -30.1651  -17.1441   20.1085 C   0  0  0  0  0  0
  -29.4470  -18.4471   20.6975 C   0  0  0  0  0  0
  -29.8630  -15.7675   20.6591 N   0  0  0  0  0  0
  -29.6156  -19.6207   19.8286 O   0  0  0  0  0  0
  -31.4723  -12.4956   19.1708 H   0  0  0  0  0  0
  -30.3495  -11.4028   19.9298 H   0  0  0  0  0  0
  -29.7746  -11.7213   17.5039 H   0  0  0  0  0  0
  -29.6569  -13.4487   17.7353 H   0  0  0  0  0  0
  -27.8692  -11.2831   18.8895 H   0  0  0  0  0  0
  -27.3777  -12.5497   17.7969 H   0  0  0  0  0  0
  -27.6584  -14.2500   19.4984 H   0  0  0  0  0  0
  -28.6973  -12.1115   21.4243 H   0  0  0  0  0  0
  -28.4416  -13.7923   21.8141 H   0  0  0  0  0  0
  -25.2749   -9.5704   22.4749 H   0  0  0  0  0  0
  -24.0012   -7.4638   22.7465 H   0  0  0  0  0  0
  -21.0836   -8.8744   19.8944 H   0  0  0  0  0  0
  -22.3673  -10.9651   19.6147 H   0  0  0  0  0  0
  -21.1991   -7.6121   23.9694 H   0  0  0  0  0  0
  -21.1494   -6.0509   25.9070 H   0  0  0  0  0  0
  -22.0596   -2.7583   23.2871 H   0  0  0  0  0  0
  -22.4116  -11.9880   22.4782 H   0  0  0  0  0  0
  -21.1081  -13.1202   22.2587 H   0  0  0  0  0  0
  -24.6517  -15.8409   20.4980 H   0  0  0  0  0  0
  -26.2639  -15.6228   20.0410 H   0  0  0  0  0  0
  -26.7175  -32.5482   23.1092 H   0  0  0  0  0  0
  -25.0110  -33.9724   25.0452 H   0  0  0  0  0  0
  -22.7134  -31.3067   21.4022 H   0  0  0  0  0  0
  -23.3769  -35.9583   23.3303 H   0  0  0  0  0  0
  -24.3561  -36.8875   22.2041 H   0  0  0  0  0  0
  -23.7215  -37.6468   23.6642 H   0  0  0  0  0  0
  -26.0847  -31.5564   20.5956 H   0  0  0  0  0  0
  -26.8399  -30.8504   21.9941 H   0  0  0  0  0  0
  -28.1155  -28.9874   21.1934 H   0  0  0  0  0  0
  -26.0001  -25.9139   19.0361 H   0  0  0  0  0  0
  -23.9668  -27.2989   19.0221 H   0  0  0  0  0  0
  -23.7513  -30.5910   19.4026 H   0  0  0  0  0  0
  -22.7533  -29.2452   19.8613 H   0  0  0  0  0  0
  -25.1292  -36.1921   25.0833 H   0  0  0  0  0  0
  -21.0004  -28.3261   24.1413 H   0  0  0  0  0  0
  -20.5646  -26.2310   23.3614 H   0  0  0  0  0  0
  -21.6647  -26.7427   22.1228 H   0  0  0  0  0  0
  -19.6881  -25.6320   21.1239 H   0  0  0  0  0  0
  -19.6681  -27.3222   20.6737 H   0  0  0  0  0  0
  -17.4202  -26.6739   21.4016 H   0  0  0  0  0  0
  -18.0304  -26.0076   22.9009 H   0  0  0  0  0  0
  -19.7937  -30.7297   24.2272 H   0  0  0  0  0  0
  -17.5018  -31.6275   24.5181 H   0  0  0  0  0  0
  -15.5358  -30.2992   23.7663 H   0  0  0  0  0  0
  -15.8696  -28.0830   22.7073 H   0  0  0  0  0  0
  -24.5952  -30.6982   25.7814 H   0  0  0  0  0  0
  -24.8802  -32.2891   26.4778 H   0  0  0  0  0  0
  -25.8057  -30.9038   27.0276 H   0  0  0  0  0  0
  -26.2844  -29.6825   24.1138 H   0  0  0  0  0  0
  -27.3979  -29.7246   25.4620 H   0  0  0  0  0  0
  -27.8736  -30.4332   23.9356 H   0  0  0  0  0  0
  -27.2718  -33.3666   26.1985 H   0  0  0  0  0  0
  -28.3926  -32.6748   25.0342 H   0  0  0  0  0  0
  -28.0645  -31.8456   26.5467 H   0  0  0  0  0  0
  -28.2613  -38.0075   24.7528 H   0  0  0  0  0  0
  -28.1053  -36.2615   24.6292 H   0  0  0  0  0  0
  -27.2298  -37.1445   25.8873 H   0  0  0  0  0  0
  -20.9369  -29.8759   21.6880 H   0  0  0  0  0  0
  -26.0158  -38.2867   24.1440 H   0  0  0  0  0  0
  -27.9707  -23.0143   22.5919 H   0  0  0  0  0  0
  -28.5754  -20.6676   22.2037 H   0  0  0  0  0  0
  -29.6869  -21.6552   18.1776 H   0  0  0  0  0  0
  -29.2539  -23.7869   17.2634 H   0  0  0  0  0  0
  -29.9290  -24.9679   18.3879 H   0  0  0  0  0  0
  -28.1845  -24.8958   18.1024 H   0  0  0  0  0  0
  -28.4902  -25.4449   21.9706 H   0  0  0  0  0  0
  -26.9579  -25.1473   21.2434 H   0  0  0  0  0  0
  -31.2433  -17.3093   20.1351 H   0  0  0  0  0  0
  -29.9149  -17.0928   19.0482 H   0  0  0  0  0  0
  -29.8523  -18.6666   21.6858 H   0  0  0  0  0  0
  -28.3796  -18.2631   20.8226 H   0  0  0  0  0  0
  -28.9184  -15.6035   20.9748 H   0  0  0  0  0  0
  1 25  1  0  0  0
  1 30  2  0  0  0
  1 81  1  0  0  0
  2  3  1  0  0  0
  2 25  1  0  0  0
  2 83  1  0  0  0
  2 84  1  0  0  0
  3  4  1  0  0  0
  3 85  1  0  0  0
  3 86  1  0  0  0
  4  5  1  0  0  0
  4 87  1  0  0  0
  4 88  1  0  0  0
  5  6  1  0  0  0
  5 26  1  0  0  0
  5 89  1  0  0  0
  6 25  1  0  0  0
  6 90  1  0  0  0
  6 91  1  0  0  0
  7  8  2  0  0  0
  7 26  1  0  0  0
  7 29  1  0  0  0
  8  9  1  0  0  0
  8 22  1  0  0  0
  9 10  1  0  0  0
  9 27  2  0  0  0
 10 11  2  0  0  0
 10 15  1  0  0  0
 11 12  1  0  0  0
 11 92  1  0  0  0
 12 13  2  0  0  0
 12 93  1  0  0  0
 13 14  1  0  0  0
 13 31  1  0  0  0
 14 15  2  0  0  0
 14 94  1  0  0  0
 15 95  1  0  0  0
 16 17  2  0  0  0
 16 21  1  0  0  0
 16 31  1  0  0  0
 17 18  1  0  0  0
 17 96  1  0  0  0
 18 19  2  0  0  0
 18 97  1  0  0  0
 19 20  1  0  0  0
 19 24  1  0  0  0
 20 21  2  0  0  0
 20 98  1  0  0  0
 21 23  1  0  0  0
 22 28  1  0  0  0
 22 32  2  0  0  0
 26 27  1  0  0  0
 28 99  1  0  0  0
 28100  1  0  0  0
 29101  1  0  0  0
 29102  1  0  0  0
 33 34  1  0  0  0
 33 66  1  0  0  0
 33 70  2  0  0  0
 34 36  1  0  0  0
 34 59  1  0  0  0
 34103  1  0  0  0
 35 44  2  0  0  0
 35 45  1  0  0  0
 35 68  1  0  0  0
 36 56  1  0  0  0
 36104  1  0  0  0
 37 39  1  0  0  0
 37 47  1  0  0  0
 37 66  1  0  0  0
 37105  1  0  0  0
 38 43  2  0  0  0
 38 46  1  0  0  0
 38 47  1  0  0  0
 39 64  1  0  0  0
 39 67  2  0  0  0
 40 52  1  0  0  0
 40 53  2  0  0  0
 40 58  1  0  0  0
 41106  1  0  0  0
 41107  1  0  0  0
 41108  1  0  0  0
 41 48  1  0  0  0
 42 43  1  0  0  0
 42 66  1  0  0  0
 42109  1  0  0  0
 42110  1  0  0  0
 43 44  1  0  0  0
 44111  1  0  0  0
 45 46  2  0  0  0
 45112  1  0  0  0
 46113  1  0  0  0
 47114  1  0  0  0
 47115  1  0  0  0
 48 56  1  0  0  0
 48 65  1  0  0  0
 48116  1  0  0  0
 49 50  1  0  0  0
 49 53  1  0  0  0
 49 64  1  0  0  0
 49117  1  0  0  0
 50 51  1  0  0  0
 50118  1  0  0  0
 50119  1  0  0  0
 51 52  1  0  0  0
 51120  1  0  0  0
 51121  1  0  0  0
 52122  1  0  0  0
 52123  1  0  0  0
 53 54  1  0  0  0
 54 55  2  0  0  0
 54124  1  0  0  0
 55 57  1  0  0  0
 55125  1  0  0  0
 56 69  2  0  0  0
 57 58  2  0  0  0
 57126  1  0  0  0
 58127  1  0  0  0
 59 60  1  0  0  0
 59 61  1  0  0  0
 59 62  1  0  0  0
 60128  1  0  0  0
 60129  1  0  0  0
 60130  1  0  0  0
 61131  1  0  0  0
 61132  1  0  0  0
 61133  1  0  0  0
 62134  1  0  0  0
 62135  1  0  0  0
 62136  1  0  0  0
 63 65  1  0  0  0
 63137  1  0  0  0
 63138  1  0  0  0
 63139  1  0  0  0
 64140  1  0  0  0
 65141  1  0  0  0
 68 78  1  0  0  0
 71 72  2  0  0  0
 71 74  1  0  0  0
 71142  1  0  0  0
 72 76  1  0  0  0
 72143  1  0  0  0
 73 75  1  0  0  0
 73 76  2  0  0  0
 73144  1  0  0  0
 74 75  2  0  0  0
 74 78  1  0  0  0
 75 77  1  0  0  0
 76 82  1  0  0  0
 77145  1  0  0  0
 77146  1  0  0  0
 77147  1  0  0  0
 78148  1  0  0  0
 78149  1  0  0  0
 79 80  1  0  0  0
 79 81  1  0  0  0
 79150  1  0  0  0
 79151  1  0  0  0
 80 82  1  0  0  0
 80152  1  0  0  0
 80153  1  0  0  0
 81154  1  0  0  0
M  ISO  4   1 100  68 101  78 101  81 100
M  END
> <chiral flag>
0

> <version>
0

> <s_m_source_file>
/data/baiqing/PycharmProjects/Reinvent-master-3.2/result/LINK_invent/BTK/process_docking_weight1_custom_sum_contain_oxygen_bond_distance_aromatic_linkinvent_7_9_3/rearranged_h_0137.sdf

> <i_m_source_file_index>
65

> <r_mmod_Potential_Energy-OPLS-2005>
64.3451232910156

> <r_mmod_Stretch_Energy-OPLS-2005>
80.9729843139648

> <r_mmod_Bend_Energy-OPLS-2005>
152.473678588867

> <r_mmod_Torsional_Energy-OPLS-2005>
238.631332397461

> <r_mmod_Improper_Torsional_Energy-OPLS-2005>
7.27256488800049

> <r_mmod_Van_der_Waal_Energy-OPLS-2005>
140.233062744141

> <r_mmod_Electrostatic_Energy-OPLS-2005>
-401.215240478516

> <r_mmod_Solvation_Energy-OPLS-2005>
-209.803802490234

> <b_mmod_Minimization_Converged-OPLS-2005>
0

> <r_mmod_RMS_Derivative-OPLS-2005>
2.13020539283752

$$$$
65
                    3D
 Structure written by MMmdl.
160169  0  0  1  0            999 V2000
  -30.6522  -14.7500   20.4699 C   0  0  0  0  0  0
  -30.4177  -12.4614   19.4864 C   0  0  0  0  0  0
  -29.5066  -12.5139   18.2424 C   0  0  0  0  0  0
  -28.0333  -12.3427   18.6529 C   0  0  0  0  0  0
  -27.6384  -13.2447   19.8529 C   0  0  2  0  0  0
  -28.6819  -13.2031   20.9916 C   0  0  0  0  0  0
  -25.2488  -13.8226   20.5727 C   0  0  0  0  0  0
  -24.1793  -13.0445   20.9227 C   0  0  0  0  0  0
  -24.6409  -11.6932   20.8769 C   0  0  0  0  0  0
  -23.9093  -10.4301   21.0421 C   0  0  0  0  0  0
  -24.3639   -9.4208   21.9192 C   0  0  0  0  0  0
  -23.6306   -8.2247   22.0758 C   0  0  0  0  0  0
  -22.4285   -8.0294   21.3552 C   0  0  0  0  0  0
  -21.9938   -9.0273   20.4647 C   0  0  0  0  0  0
  -22.7274  -10.2144   20.3064 C   0  0  0  0  0  0
  -21.6851   -6.0745   22.5281 C   0  0  0  0  0  0
  -21.4020   -6.5646   23.8219 C   0  0  0  0  0  0
  -21.3662   -5.6797   24.9180 C   0  0  0  0  0  0
  -21.6042   -4.3059   24.7225 C   0  0  0  0  0  0
  -21.8821   -3.8153   23.4344 C   0  0  0  0  0  0
  -21.9198   -4.6974   22.3403 C   0  0  0  0  0  0
  -22.7811  -13.5219   21.1876 C   0  0  0  0  0  0
  -22.1665   -4.2160   21.0984 F   0  0  0  0  0  0
  -21.5628   -3.4545   25.7737 F   0  0  0  0  0  0
  -29.9816  -13.5452   20.4035 N   0  0  0  0  0  0
  -26.2926  -12.9460   20.3316 N   0  0  0  0  0  0
  -25.9345  -11.6585   20.5782 N   0  0  0  0  0  0
  -22.0462  -12.8201   22.0423 N   0  0  0  0  0  0
  -25.4152  -15.1951   20.4137 N   0  0  0  0  0  0
  -31.8344  -14.7630   20.1205 O   0  0  0  0  0  0
  -21.6642   -6.8895   21.4245 O   0  0  0  0  0  0
  -22.3494  -14.5517   20.6717 O   0  0  0  0  0  0
  -24.6338  -31.8556   23.1993 C   0  0  0  0  0  0
  -25.9159  -32.4752   23.8341 C   0  0  1  0  0  0
  -27.2023  -27.2261   20.1331 C   0  0  0  0  0  0
  -25.5948  -33.8558   24.2247 N   0  0  0  0  0  0
  -23.4313  -30.4794   21.5446 C   0  0  2  0  0  0
  -24.8765  -28.9327   20.1059 C   0  0  0  0  0  0
  -22.7520  -29.4594   22.4916 C   0  0  0  0  0  0
  -18.0293  -28.1385   22.8490 C   0  0  0  0  0  0
  -24.1491  -36.7275   23.2638 C   0  0  0  0  0  0
  -25.9823  -30.7538   21.3907 C   0  0  0  0  0  0
  -26.0498  -29.3763   20.7288 C   0  0  0  0  0  0
  -27.2123  -28.5331   20.7397 C   0  0  0  0  0  0
  -26.0149  -26.8869   19.4394 C   0  0  0  0  0  0
  -24.8661  -27.6965   19.4504 C   0  0  0  0  0  0
  -23.6500  -29.8225   20.1579 C   0  0  0  0  0  0
  -25.4123  -36.3070   24.0319 C   0  0  1  0  0  0
  -20.5902  -28.3691   23.1276 C   0  0  2  0  0  0
  -20.6783  -26.9407   22.5414 C   0  0  0  0  0  0
  -19.5754  -26.6377   21.5223 C   0  0  0  0  0  0
  -18.1933  -26.7925   22.1632 C   0  0  0  0  0  0
  -19.1551  -28.8856   23.2871 C   0  0  0  0  0  0
  -18.9467  -30.1459   23.8880 C   0  0  0  0  0  0
  -17.6466  -30.6586   24.0558 C   0  0  0  0  0  0
  -25.9070  -34.9443   23.5083 C   0  0  0  0  0  0
  -16.5355  -29.9079   23.6339 C   0  0  0  0  0  0
  -16.7280  -28.6499   23.0358 C   0  0  0  0  0  0
  -26.4501  -31.6591   25.0751 C   0  0  0  0  0  0
  -25.3709  -31.3751   26.1458 C   0  0  0  0  0  0
  -27.0358  -30.3000   24.6284 C   0  0  0  0  0  0
  -27.6050  -32.4332   25.7527 C   0  0  0  0  0  0
  -27.5580  -37.1793   24.8463 C   0  0  0  0  0  0
  -21.4225  -29.3036   22.3663 N   0  0  0  0  0  0
  -26.4292  -37.3772   23.9407 N   0  0  0  0  0  0
  -24.7016  -31.0487   22.0997 N   0  0  0  0  0  0
  -23.4215  -28.8139   23.3024 O   0  0  0  0  0  0
  -28.2613  -26.2772   20.2418 O   0  0  0  0  0  0
  -26.5650  -34.8922   22.4657 O   0  0  0  0  0  0
  -23.5478  -32.1401   23.7258 O   0  0  0  0  0  0
  -32.5036  -18.8057   20.7362 C   0  0  0  0  0  0
  -31.8564  -17.5669   20.9240 C   0  0  0  0  0  0
  -29.6270  -18.5781   20.5007 C   0  0  0  0  0  0
  -31.6738  -19.8930   20.4881 C   0  0  0  0  0  0
  -30.2441  -19.9012   20.5013 C   0  0  0  0  0  0
  -30.4519  -17.3658   20.7195 C   0  0  0  0  0  0
  -31.7968  -21.2205   19.8460 C   0  0  0  0  0  0
  -30.1838  -21.3752   19.8162 C   0  0  2  0  0  0
  -30.8612  -23.9046   18.2608 C   0  0  0  0  0  0
  -30.8207  -23.8761   19.8060 C   0  0  0  0  0  0
  -28.5368  -23.4375   20.6116 C   0  0  0  0  0  0
  -28.0119  -24.8173   19.8880 C   0  0  0  0  0  0
  -29.9598  -15.9455   20.7062 N   0  0  0  0  0  0
  -29.9248  -22.8196   20.3902 N   0  3  1  0  0  0
  -31.4624  -12.5546   19.1850 H   0  0  0  0  0  0
  -30.3409  -11.4919   19.9815 H   0  0  0  0  0  0
  -29.7888  -11.7371   17.5303 H   0  0  0  0  0  0
  -29.6383  -13.4671   17.7272 H   0  0  0  0  0  0
  -27.8861  -11.2945   18.9147 H   0  0  0  0  0  0
  -27.3783  -12.5387   17.8028 H   0  0  0  0  0  0
  -27.6267  -14.2639   19.4656 H   0  0  0  0  0  0
  -28.7174  -12.2163   21.4547 H   0  0  0  0  0  0
  -28.4168  -13.9032   21.7851 H   0  0  0  0  0  0
  -25.2786   -9.5671   22.4765 H   0  0  0  0  0  0
  -24.0014   -7.4635   22.7473 H   0  0  0  0  0  0
  -21.0877   -8.8801   19.8943 H   0  0  0  0  0  0
  -22.3747  -10.9691   19.6174 H   0  0  0  0  0  0
  -21.2006   -7.6154   23.9725 H   0  0  0  0  0  0
  -21.1483   -6.0526   25.9084 H   0  0  0  0  0  0
  -22.0592   -2.7614   23.2841 H   0  0  0  0  0  0
  -22.4098  -11.9877   22.4822 H   0  0  0  0  0  0
  -21.1067  -13.1203   22.2609 H   0  0  0  0  0  0
  -24.6447  -15.8457   20.5224 H   0  0  0  0  0  0
  -26.2594  -15.6372   20.0732 H   0  0  0  0  0  0
  -26.7232  -32.5377   23.1084 H   0  0  0  0  0  0
  -25.0072  -33.9695   25.0377 H   0  0  0  0  0  0
  -22.7285  -31.3027   21.4018 H   0  0  0  0  0  0
  -23.3763  -35.9594   23.3292 H   0  0  0  0  0  0
  -24.3581  -36.8910   22.2054 H   0  0  0  0  0  0
  -23.7234  -37.6464   23.6677 H   0  0  0  0  0  0
  -26.1336  -31.5139   20.6229 H   0  0  0  0  0  0
  -26.8558  -30.7964   22.0297 H   0  0  0  0  0  0
  -28.0998  -28.8568   21.2652 H   0  0  0  0  0  0
  -25.9188  -25.9653   18.8869 H   0  0  0  0  0  0
  -23.9736  -27.3579   18.9416 H   0  0  0  0  0  0
  -23.7760  -30.6033   19.4066 H   0  0  0  0  0  0
  -22.7667  -29.2592   19.8506 H   0  0  0  0  0  0
  -25.1306  -36.1910   25.0810 H   0  0  0  0  0  0
  -20.9981  -28.3256   24.1402 H   0  0  0  0  0  0
  -20.5699  -26.2289   23.3612 H   0  0  0  0  0  0
  -21.6648  -26.7437   22.1199 H   0  0  0  0  0  0
  -19.6913  -25.6288   21.1253 H   0  0  0  0  0  0
  -19.6693  -27.3191   20.6758 H   0  0  0  0  0  0
  -17.4204  -26.6675   21.4030 H   0  0  0  0  0  0
  -18.0321  -26.0070   22.9030 H   0  0  0  0  0  0
  -19.7937  -30.7287   24.2235 H   0  0  0  0  0  0
  -17.5015  -31.6270   24.5153 H   0  0  0  0  0  0
  -15.5354  -30.2974   23.7674 H   0  0  0  0  0  0
  -15.8678  -28.0818   22.7077 H   0  0  0  0  0  0
  -24.5889  -30.7098   25.7779 H   0  0  0  0  0  0
  -24.8896  -32.2922   26.4863 H   0  0  0  0  0  0
  -25.8012  -30.8940   27.0251 H   0  0  0  0  0  0
  -26.2967  -29.6739   24.1272 H   0  0  0  0  0  0
  -27.3970  -29.7278   25.4839 H   0  0  0  0  0  0
  -27.8875  -30.4253   23.9597 H   0  0  0  0  0  0
  -27.2656  -33.3626   26.2109 H   0  0  0  0  0  0
  -28.3862  -32.6895   25.0363 H   0  0  0  0  0  0
  -28.0721  -31.8459   26.5441 H   0  0  0  0  0  0
  -28.2587  -38.0101   24.7530 H   0  0  0  0  0  0
  -28.1088  -36.2632   24.6268 H   0  0  0  0  0  0
  -27.2299  -37.1414   25.8865 H   0  0  0  0  0  0
  -20.9411  -29.8754   21.6867 H   0  0  0  0  0  0
  -26.0164  -38.2837   24.1423 H   0  0  0  0  0  0
  -33.5815  -18.8861   20.7181 H   0  0  0  0  0  0
  -32.5126  -16.7404   21.1411 H   0  0  0  0  0  0
  -28.5786  -18.4793   20.2563 H   0  0  0  0  0  0
  -32.2733  -21.1569   18.8673 H   0  0  0  0  0  0
  -32.3649  -21.8287   20.5474 H   0  0  0  0  0  0
  -29.7954  -21.2838   18.8017 H   0  0  0  0  0  0
  -31.4252  -24.7712   17.9155 H   0  0  0  0  0  0
  -29.8739  -23.9575   17.8080 H   0  0  0  0  0  0
  -31.3542  -23.0292   17.8418 H   0  0  0  0  0  0
  -30.5391  -24.8601   20.1784 H   0  0  0  0  0  0
  -31.8365  -23.7947   20.1848 H   0  0  0  0  0  0
  -27.8317  -22.6472   20.3516 H   0  0  0  0  0  0
  -28.4186  -23.5651   21.6872 H   0  0  0  0  0  0
  -26.9541  -24.6686   20.0898 H   0  0  0  0  0  0
  -28.0933  -24.7198   18.8077 H   0  0  0  0  0  0
  -28.9671  -15.8295   20.8390 H   0  0  0  0  0  0
  -30.2626  -22.7313   21.3378 H   0  0  0  0  0  0
  1 25  1  0  0  0
  1 30  2  0  0  0
  1 83  1  0  0  0
  2  3  1  0  0  0
  2 25  1  0  0  0
  2 85  1  0  0  0
  2 86  1  0  0  0
  3  4  1  0  0  0
  3 87  1  0  0  0
  3 88  1  0  0  0
  4  5  1  0  0  0
  4 89  1  0  0  0
  4 90  1  0  0  0
  5  6  1  0  0  0
  5 26  1  0  0  0
  5 91  1  0  0  0
  6 25  1  0  0  0
  6 92  1  0  0  0
  6 93  1  0  0  0
  7  8  2  0  0  0
  7 26  1  0  0  0
  7 29  1  0  0  0
  8  9  1  0  0  0
  8 22  1  0  0  0
  9 10  1  0  0  0
  9 27  2  0  0  0
 10 11  2  0  0  0
 10 15  1  0  0  0
 11 12  1  0  0  0
 11 94  1  0  0  0
 12 13  2  0  0  0
 12 95  1  0  0  0
 13 14  1  0  0  0
 13 31  1  0  0  0
 14 15  2  0  0  0
 14 96  1  0  0  0
 15 97  1  0  0  0
 16 17  2  0  0  0
 16 21  1  0  0  0
 16 31  1  0  0  0
 17 18  1  0  0  0
 17 98  1  0  0  0
 18 19  2  0  0  0
 18 99  1  0  0  0
 19 20  1  0  0  0
 19 24  1  0  0  0
 20 21  2  0  0  0
 20100  1  0  0  0
 21 23  1  0  0  0
 22 28  1  0  0  0
 22 32  2  0  0  0
 26 27  1  0  0  0
 28101  1  0  0  0
 28102  1  0  0  0
 29103  1  0  0  0
 29104  1  0  0  0
 33 34  1  0  0  0
 33 66  1  0  0  0
 33 70  2  0  0  0
 34 36  1  0  0  0
 34 59  1  0  0  0
 34105  1  0  0  0
 35 44  2  0  0  0
 35 45  1  0  0  0
 35 68  1  0  0  0
 36 56  1  0  0  0
 36106  1  0  0  0
 37 39  1  0  0  0
 37 47  1  0  0  0
 37 66  1  0  0  0
 37107  1  0  0  0
 38 43  2  0  0  0
 38 46  1  0  0  0
 38 47  1  0  0  0
 39 64  1  0  0  0
 39 67  2  0  0  0
 40 52  1  0  0  0
 40 53  2  0  0  0
 40 58  1  0  0  0
 41108  1  0  0  0
 41109  1  0  0  0
 41110  1  0  0  0
 41 48  1  0  0  0
 42 43  1  0  0  0
 42 66  1  0  0  0
 42111  1  0  0  0
 42112  1  0  0  0
 43 44  1  0  0  0
 44113  1  0  0  0
 45 46  2  0  0  0
 45114  1  0  0  0
 46115  1  0  0  0
 47116  1  0  0  0
 47117  1  0  0  0
 48 56  1  0  0  0
 48 65  1  0  0  0
 48118  1  0  0  0
 49 50  1  0  0  0
 49 53  1  0  0  0
 49 64  1  0  0  0
 49119  1  0  0  0
 50 51  1  0  0  0
 50120  1  0  0  0
 50121  1  0  0  0
 51 52  1  0  0  0
 51122  1  0  0  0
 51123  1  0  0  0
 52124  1  0  0  0
 52125  1  0  0  0
 53 54  1  0  0  0
 54 55  2  0  0  0
 54126  1  0  0  0
 55 57  1  0  0  0
 55127  1  0  0  0
 56 69  2  0  0  0
 57 58  2  0  0  0
 57128  1  0  0  0
 58129  1  0  0  0
 59 60  1  0  0  0
 59 61  1  0  0  0
 59 62  1  0  0  0
 60130  1  0  0  0
 60131  1  0  0  0
 60132  1  0  0  0
 61133  1  0  0  0
 61134  1  0  0  0
 61135  1  0  0  0
 62136  1  0  0  0
 62137  1  0  0  0
 62138  1  0  0  0
 63 65  1  0  0  0
 63139  1  0  0  0
 63140  1  0  0  0
 63141  1  0  0  0
 64142  1  0  0  0
 65143  1  0  0  0
 68 82  1  0  0  0
 71 72  2  0  0  0
 71 74  1  0  0  0
 71144  1  0  0  0
 72 76  1  0  0  0
 72145  1  0  0  0
 73 75  1  0  0  0
 73 76  2  0  0  0
 73146  1  0  0  0
 74 75  2  0  0  0
 74 77  1  0  0  0
 75 78  1  0  0  0
 76 83  1  0  0  0
 77147  1  0  0  0
 77148  1  0  0  0
 77 78  1  0  0  0
 78 84  1  0  0  0
 78149  1  0  0  0
 79 80  1  0  0  0
 79150  1  0  0  0
 79151  1  0  0  0
 79152  1  0  0  0
 80153  1  0  0  0
 80154  1  0  0  0
 80 84  1  0  0  0
 81 82  1  0  0  0
 81 84  1  0  0  0
 81155  1  0  0  0
 81156  1  0  0  0
 82157  1  0  0  0
 82158  1  0  0  0
 83159  1  0  0  0
 84160  1  0  0  0
M  CHG  1  84   1
M  ISO  4   1 100  68 101  82 101  83 100
M  END
> <chiral flag>
0

> <version>
0

> <s_m_source_file>
/data/baiqing/PycharmProjects/Reinvent-master-3.2/result/LINK_invent/BTK/process_docking_weight1_custom_sum_contain_oxygen_bond_distance_aromatic_linkinvent_7_9_3/rearranged_h_0137.sdf

> <i_m_source_file_index>
66

> <r_mmod_Potential_Energy-OPLS-2005>
653.384704589844

> <r_mmod_Stretch_Energy-OPLS-2005>
186.977691650391

> <r_mmod_Bend_Energy-OPLS-2005>
608.35400390625

> <r_mmod_Torsional_Energy-OPLS-2005>
295.353240966797

> <r_mmod_Improper_Torsional_Energy-OPLS-2005>
21.5089817047119

> <r_mmod_Van_der_Waal_Energy-OPLS-2005>
168.794036865234

> <r_mmod_Electrostatic_Energy-OPLS-2005>
-288.115814208984

> <r_mmod_Solvation_Energy-OPLS-2005>
-441.925842285156

> <b_mmod_Minimization_Converged-OPLS-2005>
0

> <r_mmod_RMS_Derivative-OPLS-2005>
1.19704926013947

$$$$
66
                    3D
 Structure written by MMmdl.
160169  0  0  1  0            999 V2000
  -30.6555  -14.6600   20.6233 C   0  0  0  0  0  0
  -30.4329  -12.4423   19.4753 C   0  0  0  0  0  0
  -29.5137  -12.5307   18.2378 C   0  0  0  0  0  0
  -28.0429  -12.3299   18.6458 C   0  0  0  0  0  0
  -27.6473  -13.2161   19.8526 C   0  0  2  0  0  0
  -28.6715  -13.0977   20.9948 C   0  0  0  0  0  0
  -25.2550  -13.8163   20.5636 C   0  0  0  0  0  0
  -24.1822  -13.0433   20.9157 C   0  0  0  0  0  0
  -24.6376  -11.6901   20.8700 C   0  0  0  0  0  0
  -23.9046  -10.4301   21.0391 C   0  0  0  0  0  0
  -24.3600   -9.4223   21.9171 C   0  0  0  0  0  0
  -23.6276   -8.2253   22.0749 C   0  0  0  0  0  0
  -22.4252   -8.0289   21.3551 C   0  0  0  0  0  0
  -21.9885   -9.0256   20.4652 C   0  0  0  0  0  0
  -22.7208  -10.2137   20.3051 C   0  0  0  0  0  0
  -21.6852   -6.0724   22.5277 C   0  0  0  0  0  0
  -21.4016   -6.5635   23.8210 C   0  0  0  0  0  0
  -21.3663   -5.6791   24.9177 C   0  0  0  0  0  0
  -21.6037   -4.3050   24.7230 C   0  0  0  0  0  0
  -21.8824   -3.8135   23.4356 C   0  0  0  0  0  0
  -21.9194   -4.6951   22.3408 C   0  0  0  0  0  0
  -22.7865  -13.5244   21.1855 C   0  0  0  0  0  0
  -22.1658   -4.2138   21.0984 F   0  0  0  0  0  0
  -21.5628   -3.4535   25.7744 F   0  0  0  0  0  0
  -29.9986  -13.4571   20.4670 N   0  0  0  0  0  0
  -26.2945  -12.9326   20.3193 N   0  0  0  0  0  0
  -25.9297  -11.6490   20.5671 N   0  0  0  0  0  0
  -22.0522  -12.8223   22.0426 N   0  0  0  0  0  0
  -25.4300  -15.1881   20.4114 N   0  0  0  0  0  0
  -31.7349  -14.8518   20.0516 O   0  0  0  0  0  0
  -21.6627   -6.8864   21.4240 O   0  0  0  0  0  0
  -22.3557  -14.5579   20.6754 O   0  0  0  0  0  0
  -24.6265  -31.8579   23.2008 C   0  0  0  0  0  0
  -25.9106  -32.4771   23.8348 C   0  0  1  0  0  0
  -27.2344  -27.3126   20.1107 C   0  0  0  0  0  0
  -25.5924  -33.8568   24.2280 N   0  0  0  0  0  0
  -23.4219  -30.4790   21.5425 C   0  0  2  0  0  0
  -24.8682  -28.9267   20.1112 C   0  0  0  0  0  0
  -22.7468  -29.4616   22.4917 C   0  0  0  0  0  0
  -18.0288  -28.1376   22.8485 C   0  0  0  0  0  0
  -24.1490  -36.7285   23.2639 C   0  0  0  0  0  0
  -25.9611  -30.7850   21.3728 C   0  0  0  0  0  0
  -26.0336  -29.4099   20.7153 C   0  0  0  0  0  0
  -27.2152  -28.6126   20.7054 C   0  0  0  0  0  0
  -26.0402  -26.8690   19.4994 C   0  0  0  0  0  0
  -24.8727  -27.6607   19.4992 C   0  0  0  0  0  0
  -23.6382  -29.8106   20.1581 C   0  0  0  0  0  0
  -25.4115  -36.3072   24.0328 C   0  0  1  0  0  0
  -20.5883  -28.3686   23.1272 C   0  0  2  0  0  0
  -20.6779  -26.9400   22.5409 C   0  0  0  0  0  0
  -19.5749  -26.6360   21.5220 C   0  0  0  0  0  0
  -18.1936  -26.7916   22.1640 C   0  0  0  0  0  0
  -19.1539  -28.8846   23.2879 C   0  0  0  0  0  0
  -18.9459  -30.1451   23.8890 C   0  0  0  0  0  0
  -17.6458  -30.6575   24.0564 C   0  0  0  0  0  0
  -25.9053  -34.9444   23.5106 C   0  0  0  0  0  0
  -16.5353  -29.9075   23.6329 C   0  0  0  0  0  0
  -16.7275  -28.6497   23.0347 C   0  0  0  0  0  0
  -26.4489  -31.6584   25.0717 C   0  0  0  0  0  0
  -25.3737  -31.3720   26.1459 C   0  0  0  0  0  0
  -27.0348  -30.3015   24.6193 C   0  0  0  0  0  0
  -27.6046  -32.4333   25.7503 C   0  0  0  0  0  0
  -27.5579  -37.1802   24.8463 C   0  0  0  0  0  0
  -21.4175  -29.3052   22.3668 N   0  0  0  0  0  0
  -26.4287  -37.3770   23.9412 N   0  0  0  0  0  0
  -24.6880  -31.0589   22.0952 N   0  0  0  0  0  0
  -23.4191  -28.8134   23.2979 O   0  0  0  0  0  0
  -28.3896  -26.5177   20.1691 O   0  0  0  0  0  0
  -26.5611  -34.8918   22.4666 O   0  0  0  0  0  0
  -23.5425  -32.1378   23.7341 O   0  0  0  0  0  0
  -29.4748  -19.0569   19.6766 C   0  0  0  0  0  0
  -29.8883  -17.6937   19.8955 C   0  0  0  0  0  0
  -28.6873  -19.1790   21.9298 C   0  0  0  0  0  0
  -29.1026  -17.8339   22.1530 C   0  0  0  0  0  0
  -28.8520  -19.8436   20.6912 C   0  0  0  0  0  0
  -29.7120  -17.0239   21.1466 C   0  0  0  0  0  0
  -28.9161  -17.2626   23.5389 C   0  0  0  0  0  0
  -30.1495  -16.4452   23.8899 C   0  0  0  0  0  0
  -30.3142  -15.2755   22.9081 C   0  0  0  0  0  0
  -28.1675  -21.2641   20.4826 C   0  0  0  0  0  0
  -28.2273  -23.8699   20.5429 C   0  0  0  0  0  0
  -28.5063  -25.1428   19.6178 C   0  0  0  0  0  0
  -30.1231  -15.6220   21.4716 N   0  0  0  0  0  0
  -28.9395  -22.5457   20.2199 N   0  3  0  0  0  0
  -31.4742  -12.5766   19.1768 H   0  0  0  0  0  0
  -30.3800  -11.4473   19.9211 H   0  0  0  0  0  0
  -29.8068  -11.7815   17.5018 H   0  0  0  0  0  0
  -29.6323  -13.5015   17.7542 H   0  0  0  0  0  0
  -27.9191  -11.2797   18.9119 H   0  0  0  0  0  0
  -27.3777  -12.5105   17.8001 H   0  0  0  0  0  0
  -27.6663  -14.2482   19.5009 H   0  0  0  0  0  0
  -28.6847  -12.0901   21.4139 H   0  0  0  0  0  0
  -28.3335  -13.7509   21.7934 H   0  0  0  0  0  0
  -25.2751   -9.5695   22.4734 H   0  0  0  0  0  0
  -23.9995   -7.4640   22.7473 H   0  0  0  0  0  0
  -21.0811   -8.8768   19.8964 H   0  0  0  0  0  0
  -22.3660  -10.9669   19.6156 H   0  0  0  0  0  0
  -21.2007   -7.6141   23.9721 H   0  0  0  0  0  0
  -21.1475   -6.0511   25.9078 H   0  0  0  0  0  0
  -22.0594   -2.7598   23.2854 H   0  0  0  0  0  0
  -22.4121  -11.9845   22.4747 H   0  0  0  0  0  0
  -21.1169  -13.1299   22.2707 H   0  0  0  0  0  0
  -24.6728  -15.8494   20.5403 H   0  0  0  0  0  0
  -26.2905  -15.6268   20.1073 H   0  0  0  0  0  0
  -26.7172  -32.5424   23.1091 H   0  0  0  0  0  0
  -25.0091  -33.9722   25.0432 H   0  0  0  0  0  0
  -22.7158  -31.2981   21.3946 H   0  0  0  0  0  0
  -23.3752  -35.9620   23.3305 H   0  0  0  0  0  0
  -24.3569  -36.8905   22.2052 H   0  0  0  0  0  0
  -23.7251  -37.6489   23.6665 H   0  0  0  0  0  0
  -26.0944  -31.5487   20.6046 H   0  0  0  0  0  0
  -26.8402  -30.8326   22.0038 H   0  0  0  0  0  0
  -28.1123  -28.9841   21.1810 H   0  0  0  0  0  0
  -25.9771  -25.8986   19.0316 H   0  0  0  0  0  0
  -23.9741  -27.2801   19.0331 H   0  0  0  0  0  0
  -23.7612  -30.5847   19.3994 H   0  0  0  0  0  0
  -22.7584  -29.2414   19.8549 H   0  0  0  0  0  0
  -25.1302  -36.1924   25.0819 H   0  0  0  0  0  0
  -20.9987  -28.3279   24.1394 H   0  0  0  0  0  0
  -20.5659  -26.2307   23.3621 H   0  0  0  0  0  0
  -21.6650  -26.7412   22.1223 H   0  0  0  0  0  0
  -19.6916  -25.6266   21.1267 H   0  0  0  0  0  0
  -19.6684  -27.3159   20.6742 H   0  0  0  0  0  0
  -17.4201  -26.6639   21.4054 H   0  0  0  0  0  0
  -18.0346  -26.0063   22.9044 H   0  0  0  0  0  0
  -19.7930  -30.7269   24.2264 H   0  0  0  0  0  0
  -17.5015  -31.6261   24.5164 H   0  0  0  0  0  0
  -15.5354  -30.2985   23.7643 H   0  0  0  0  0  0
  -15.8681  -28.0813   22.7060 H   0  0  0  0  0  0
  -24.5888  -30.7096   25.7787 H   0  0  0  0  0  0
  -24.8963  -32.2886   26.4921 H   0  0  0  0  0  0
  -25.8059  -30.8872   27.0225 H   0  0  0  0  0  0
  -26.2949  -29.6773   24.1171 H   0  0  0  0  0  0
  -27.3973  -29.7252   25.4713 H   0  0  0  0  0  0
  -27.8842  -30.4288   23.9482 H   0  0  0  0  0  0
  -27.2636  -33.3610   26.2108 H   0  0  0  0  0  0
  -28.3840  -32.6937   25.0337 H   0  0  0  0  0  0
  -28.0731  -31.8454   26.5404 H   0  0  0  0  0  0
  -28.2601  -38.0091   24.7493 H   0  0  0  0  0  0
  -28.1065  -36.2625   24.6308 H   0  0  0  0  0  0
  -27.2291  -37.1468   25.8862 H   0  0  0  0  0  0
  -20.9338  -29.8809   21.6915 H   0  0  0  0  0  0
  -26.0167  -38.2841   24.1419 H   0  0  0  0  0  0
  -29.6194  -19.4892   18.6960 H   0  0  0  0  0  0
  -30.3608  -17.1660   19.0788 H   0  0  0  0  0  0
  -28.1906  -19.7033   22.7343 H   0  0  0  0  0  0
  -28.0181  -16.6418   23.5586 H   0  0  0  0  0  0
  -28.7701  -18.0601   24.2681 H   0  0  0  0  0  0
  -30.0843  -16.0750   24.9160 H   0  0  0  0  0  0
  -31.0285  -17.0897   23.8532 H   0  0  0  0  0  0
  -31.2998  -14.8340   23.0699 H   0  0  0  0  0  0
  -29.6083  -14.5102   23.2193 H   0  0  0  0  0  0
  -27.5857  -21.4550   21.3851 H   0  0  0  0  0  0
  -27.4228  -21.1586   19.6923 H   0  0  0  0  0  0
  -27.1506  -23.7023   20.5657 H   0  0  0  0  0  0
  -28.5027  -24.1321   21.5646 H   0  0  0  0  0  0
  -27.9469  -25.0551   18.6874 H   0  0  0  0  0  0
  -29.5482  -25.0769   19.3026 H   0  0  0  0  0  0
  -29.2081  -22.5309   19.2503 H   0  0  0  0  0  0
  -29.7913  -22.5090   20.7575 H   0  0  0  0  0  0
  1 25  1  0  0  0
  1 30  2  0  0  0
  1 83  1  0  0  0
  2  3  1  0  0  0
  2 25  1  0  0  0
  2 85  1  0  0  0
  2 86  1  0  0  0
  3  4  1  0  0  0
  3 87  1  0  0  0
  3 88  1  0  0  0
  4  5  1  0  0  0
  4 89  1  0  0  0
  4 90  1  0  0  0
  5  6  1  0  0  0
  5 26  1  0  0  0
  5 91  1  0  0  0
  6 25  1  0  0  0
  6 92  1  0  0  0
  6 93  1  0  0  0
  7  8  2  0  0  0
  7 26  1  0  0  0
  7 29  1  0  0  0
  8  9  1  0  0  0
  8 22  1  0  0  0
  9 10  1  0  0  0
  9 27  2  0  0  0
 10 11  2  0  0  0
 10 15  1  0  0  0
 11 12  1  0  0  0
 11 94  1  0  0  0
 12 13  2  0  0  0
 12 95  1  0  0  0
 13 14  1  0  0  0
 13 31  1  0  0  0
 14 15  2  0  0  0
 14 96  1  0  0  0
 15 97  1  0  0  0
 16 17  2  0  0  0
 16 21  1  0  0  0
 16 31  1  0  0  0
 17 18  1  0  0  0
 17 98  1  0  0  0
 18 19  2  0  0  0
 18 99  1  0  0  0
 19 20  1  0  0  0
 19 24  1  0  0  0
 20 21  2  0  0  0
 20100  1  0  0  0
 21 23  1  0  0  0
 22 28  1  0  0  0
 22 32  2  0  0  0
 26 27  1  0  0  0
 28101  1  0  0  0
 28102  1  0  0  0
 29103  1  0  0  0
 29104  1  0  0  0
 33 34  1  0  0  0
 33 66  1  0  0  0
 33 70  2  0  0  0
 34 36  1  0  0  0
 34 59  1  0  0  0
 34105  1  0  0  0
 35 44  2  0  0  0
 35 45  1  0  0  0
 35 68  1  0  0  0
 36 56  1  0  0  0
 36106  1  0  0  0
 37 39  1  0  0  0
 37 47  1  0  0  0
 37 66  1  0  0  0
 37107  1  0  0  0
 38 43  2  0  0  0
 38 46  1  0  0  0
 38 47  1  0  0  0
 39 64  1  0  0  0
 39 67  2  0  0  0
 40 52  1  0  0  0
 40 53  2  0  0  0
 40 58  1  0  0  0
 41108  1  0  0  0
 41109  1  0  0  0
 41110  1  0  0  0
 41 48  1  0  0  0
 42 43  1  0  0  0
 42 66  1  0  0  0
 42111  1  0  0  0
 42112  1  0  0  0
 43 44  1  0  0  0
 44113  1  0  0  0
 45 46  2  0  0  0
 45114  1  0  0  0
 46115  1  0  0  0
 47116  1  0  0  0
 47117  1  0  0  0
 48 56  1  0  0  0
 48 65  1  0  0  0
 48118  1  0  0  0
 49 50  1  0  0  0
 49 53  1  0  0  0
 49 64  1  0  0  0
 49119  1  0  0  0
 50 51  1  0  0  0
 50120  1  0  0  0
 50121  1  0  0  0
 51 52  1  0  0  0
 51122  1  0  0  0
 51123  1  0  0  0
 52124  1  0  0  0
 52125  1  0  0  0
 53 54  1  0  0  0
 54 55  2  0  0  0
 54126  1  0  0  0
 55 57  1  0  0  0
 55127  1  0  0  0
 56 69  2  0  0  0
 57 58  2  0  0  0
 57128  1  0  0  0
 58129  1  0  0  0
 59 60  1  0  0  0
 59 61  1  0  0  0
 59 62  1  0  0  0
 60130  1  0  0  0
 60131  1  0  0  0
 60132  1  0  0  0
 61133  1  0  0  0
 61134  1  0  0  0
 61135  1  0  0  0
 62136  1  0  0  0
 62137  1  0  0  0
 62138  1  0  0  0
 63 65  1  0  0  0
 63139  1  0  0  0
 63140  1  0  0  0
 63141  1  0  0  0
 64142  1  0  0  0
 65143  1  0  0  0
 68 82  1  0  0  0
 71 72  2  0  0  0
 71 75  1  0  0  0
 71144  1  0  0  0
 72 76  1  0  0  0
 72145  1  0  0  0
 73 74  1  0  0  0
 73 75  2  0  0  0
 73146  1  0  0  0
 74 76  2  0  0  0
 74 77  1  0  0  0
 75 80  1  0  0  0
 76 83  1  0  0  0
 77 78  1  0  0  0
 77147  1  0  0  0
 77148  1  0  0  0
 78 79  1  0  0  0
 78149  1  0  0  0
 78150  1  0  0  0
 79 83  1  0  0  0
 79151  1  0  0  0
 79152  1  0  0  0
 80 84  1  0  0  0
 80153  1  0  0  0
 80154  1  0  0  0
 81 82  1  0  0  0
 81 84  1  0  0  0
 81155  1  0  0  0
 81156  1  0  0  0
 82157  1  0  0  0
 82158  1  0  0  0
 84159  1  0  0  0
 84160  1  0  0  0
M  CHG  1  84   1
M  ISO  4   1 100  68 101  82 101  83 100
M  END
> <chiral flag>
0

> <version>
0

> <s_m_source_file>
/data/baiqing/PycharmProjects/Reinvent-master-3.2/result/LINK_invent/BTK/process_docking_weight1_custom_sum_contain_oxygen_bond_distance_aromatic_linkinvent_7_9_3/rearranged_h_0137.sdf

> <i_m_source_file_index>
67

> <r_mmod_Potential_Energy-OPLS-2005>
117.628051757812

> <r_mmod_Stretch_Energy-OPLS-2005>
102.417663574219

> <r_mmod_Bend_Energy-OPLS-2005>
178.155654907227

> <r_mmod_Torsional_Energy-OPLS-2005>
280.230072021484

> <r_mmod_Improper_Torsional_Energy-OPLS-2005>
3.49734950065613

> <r_mmod_Van_der_Waal_Energy-OPLS-2005>
148.293792724609

> <r_mmod_Electrostatic_Energy-OPLS-2005>
-198.910949707031

> <r_mmod_Solvation_Energy-OPLS-2005>
-447.930053710938

> <b_mmod_Minimization_Converged-OPLS-2005>
0

> <r_mmod_RMS_Derivative-OPLS-2005>
2.83581447601318

$$$$
67
                    3D
 Structure written by MMmdl.
161169  0  0  1  0            999 V2000
  -30.6260  -14.6103   20.5205 C   0  0  0  0  0  0
  -30.4360  -12.3811   19.4401 C   0  0  0  0  0  0
  -29.5025  -12.5103   18.2153 C   0  0  0  0  0  0
  -28.0276  -12.3403   18.6331 C   0  0  0  0  0  0
  -27.6533  -13.2074   19.8652 C   0  0  2  0  0  0
  -28.6985  -13.0487   20.9926 C   0  0  0  0  0  0
  -25.2576  -13.8130   20.5677 C   0  0  0  0  0  0
  -24.1828  -13.0414   20.9186 C   0  0  0  0  0  0
  -24.6372  -11.6883   20.8739 C   0  0  0  0  0  0
  -23.9034  -10.4274   21.0406 C   0  0  0  0  0  0
  -24.3589   -9.4203   21.9192 C   0  0  0  0  0  0
  -23.6268   -8.2236   22.0762 C   0  0  0  0  0  0
  -22.4258   -8.0263   21.3541 C   0  0  0  0  0  0
  -21.9891   -9.0231   20.4648 C   0  0  0  0  0  0
  -22.7204  -10.2118   20.3058 C   0  0  0  0  0  0
  -21.6857   -6.0717   22.5274 C   0  0  0  0  0  0
  -21.4011   -6.5631   23.8201 C   0  0  0  0  0  0
  -21.3663   -5.6793   24.9173 C   0  0  0  0  0  0
  -21.6048   -4.3052   24.7236 C   0  0  0  0  0  0
  -21.8816   -3.8130   23.4356 C   0  0  0  0  0  0
  -21.9191   -4.6944   22.3402 C   0  0  0  0  0  0
  -22.7866  -13.5231   21.1845 C   0  0  0  0  0  0
  -22.1662   -4.2126   21.0980 F   0  0  0  0  0  0
  -21.5635   -3.4541   25.7752 F   0  0  0  0  0  0
  -30.0126  -13.3918   20.4271 N   0  0  0  0  0  0
  -26.2985  -12.9288   20.3324 N   0  0  0  0  0  0
  -25.9297  -11.6458   20.5744 N   0  0  0  0  0  0
  -22.0507  -12.8222   22.0398 N   0  0  0  0  0  0
  -25.4289  -15.1845   20.4038 N   0  0  0  0  0  0
  -31.7878  -14.7881   20.1423 O   0  0  0  0  0  0
  -21.6635   -6.8847   21.4224 O   0  0  0  0  0  0
  -22.3573  -14.5545   20.6692 O   0  0  0  0  0  0
  -24.6206  -31.8613   23.2028 C   0  0  0  0  0  0
  -25.9042  -32.4800   23.8360 C   0  0  1  0  0  0
  -27.2311  -27.3276   20.1127 C   0  0  0  0  0  0
  -25.5840  -33.8584   24.2267 N   0  0  0  0  0  0
  -23.4162  -30.4806   21.5469 C   0  0  2  0  0  0
  -24.8637  -28.9314   20.1174 C   0  0  0  0  0  0
  -22.7472  -29.4592   22.4947 C   0  0  0  0  0  0
  -18.0285  -28.1384   22.8494 C   0  0  0  0  0  0
  -24.1480  -36.7330   23.2638 C   0  0  0  0  0  0
  -25.9534  -30.7904   21.3746 C   0  0  0  0  0  0
  -26.0273  -29.4155   20.7239 C   0  0  0  0  0  0
  -27.2088  -28.6206   20.7181 C   0  0  0  0  0  0
  -26.0398  -26.8879   19.4892 C   0  0  0  0  0  0
  -24.8708  -27.6737   19.4933 C   0  0  0  0  0  0
  -23.6308  -29.8098   20.1641 C   0  0  0  0  0  0
  -25.4107  -36.3113   24.0329 C   0  0  1  0  0  0
  -20.5883  -28.3670   23.1303 C   0  0  2  0  0  0
  -20.6780  -26.9398   22.5405 C   0  0  0  0  0  0
  -19.5748  -26.6389   21.5212 C   0  0  0  0  0  0
  -18.1931  -26.7928   22.1640 C   0  0  0  0  0  0
  -19.1539  -28.8837   23.2896 C   0  0  0  0  0  0
  -18.9468  -30.1447   23.8905 C   0  0  0  0  0  0
  -17.6467  -30.6589   24.0551 C   0  0  0  0  0  0
  -25.9032  -34.9463   23.5122 C   0  0  0  0  0  0
  -16.5352  -29.9092   23.6308 C   0  0  0  0  0  0
  -16.7275  -28.6505   23.0341 C   0  0  0  0  0  0
  -26.4424  -31.6603   25.0726 C   0  0  0  0  0  0
  -25.3644  -31.3705   26.1434 C   0  0  0  0  0  0
  -27.0262  -30.3047   24.6128 C   0  0  0  0  0  0
  -27.5995  -32.4329   25.7488 C   0  0  0  0  0  0
  -27.5597  -37.1826   24.8456 C   0  0  0  0  0  0
  -21.4191  -29.3032   22.3715 N   0  0  0  0  0  0
  -26.4305  -37.3798   23.9398 N   0  0  0  0  0  0
  -24.6820  -31.0606   22.0995 N   0  0  0  0  0  0
  -23.4212  -28.8119   23.2999 O   0  0  0  0  0  0
  -28.3965  -26.5516   20.1605 O   0  0  0  0  0  0
  -26.5632  -34.8925   22.4705 O   0  0  0  0  0  0
  -23.5360  -32.1378   23.7355 O   0  0  0  0  0  0
  -27.8119  -21.7800   20.5721 C   0  0  0  0  0  0
  -30.1190  -21.8633   20.9538 C   0  0  0  0  0  0
  -27.9482  -20.3075   20.0391 C   0  0  0  0  0  0
  -30.3120  -20.4027   20.4075 C   0  0  0  0  0  0
  -29.9251  -24.5537   21.7444 C   0  0  0  0  0  0
  -30.0996  -17.1207   21.0414 C   0  0  0  0  0  0
  -29.1791  -18.1049   20.2023 C   0  0  0  0  0  0
  -28.4836  -25.1392   19.7318 C   0  0  0  0  0  0
  -28.7727  -24.0458   20.8502 C   0  0  1  0  0  0
  -29.0001  -22.6310   20.3403 N   0  0  0  0  0  0
  -29.8207  -15.6515   20.8813 N   0  0  0  0  0  0
  -29.1033  -19.5655   20.6336 N   0  3  0  0  0  0
  -31.4776  -12.5083   19.1413 H   0  0  0  0  0  0
  -30.3672  -11.3810   19.8696 H   0  0  0  0  0  0
  -29.7654  -11.7661   17.4624 H   0  0  0  0  0  0
  -29.6403  -13.4849   17.7443 H   0  0  0  0  0  0
  -27.8730  -11.2855   18.8663 H   0  0  0  0  0  0
  -27.3666  -12.5653   17.7964 H   0  0  0  0  0  0
  -27.6750  -14.2440   19.5307 H   0  0  0  0  0  0
  -28.7094  -12.0235   21.3665 H   0  0  0  0  0  0
  -28.4478  -13.6729   21.8524 H   0  0  0  0  0  0
  -25.2727   -9.5701   22.4779 H   0  0  0  0  0  0
  -23.9982   -7.4643   22.7502 H   0  0  0  0  0  0
  -21.0823   -8.8728   19.8966 H   0  0  0  0  0  0
  -22.3634  -10.9649   19.6177 H   0  0  0  0  0  0
  -21.1993   -7.6146   23.9691 H   0  0  0  0  0  0
  -21.1502   -6.0536   25.9074 H   0  0  0  0  0  0
  -22.0594   -2.7598   23.2865 H   0  0  0  0  0  0
  -22.4097  -11.9856   22.4749 H   0  0  0  0  0  0
  -21.1131  -13.1255   22.2596 H   0  0  0  0  0  0
  -24.6510  -15.8307   20.4757 H   0  0  0  0  0  0
  -26.2607  -15.6094   20.0135 H   0  0  0  0  0  0
  -26.7100  -32.5468   23.1101 H   0  0  0  0  0  0
  -24.9836  -33.9686   25.0312 H   0  0  0  0  0  0
  -22.7077  -31.3007   21.4042 H   0  0  0  0  0  0
  -23.3741  -35.9670   23.3290 H   0  0  0  0  0  0
  -24.3546  -36.8975   22.2055 H   0  0  0  0  0  0
  -23.7248  -37.6535   23.6670 H   0  0  0  0  0  0
  -26.0723  -31.5467   20.5980 H   0  0  0  0  0  0
  -26.8401  -30.8531   21.9942 H   0  0  0  0  0  0
  -28.1047  -28.9846   21.2026 H   0  0  0  0  0  0
  -25.9666  -25.9359   18.9929 H   0  0  0  0  0  0
  -23.9750  -27.3009   19.0113 H   0  0  0  0  0  0
  -23.7525  -30.5826   19.4032 H   0  0  0  0  0  0
  -22.7527  -29.2347   19.8675 H   0  0  0  0  0  0
  -25.1305  -36.1987   25.0832 H   0  0  0  0  0  0
  -20.9963  -28.3253   24.1433 H   0  0  0  0  0  0
  -20.5714  -26.2265   23.3593 H   0  0  0  0  0  0
  -21.6651  -26.7455   22.1185 H   0  0  0  0  0  0
  -19.6885  -25.6307   21.1225 H   0  0  0  0  0  0
  -19.6689  -27.3207   20.6741 H   0  0  0  0  0  0
  -17.4209  -26.6661   21.4049 H   0  0  0  0  0  0
  -18.0336  -26.0065   22.9029 H   0  0  0  0  0  0
  -19.7947  -30.7252   24.2298 H   0  0  0  0  0  0
  -17.5029  -31.6275   24.5169 H   0  0  0  0  0  0
  -15.5352  -30.2999   23.7639 H   0  0  0  0  0  0
  -15.8678  -28.0837   22.7046 H   0  0  0  0  0  0
  -24.5833  -30.7063   25.7707 H   0  0  0  0  0  0
  -24.8787  -32.2853   26.4856 H   0  0  0  0  0  0
  -25.7946  -30.8858   27.0205 H   0  0  0  0  0  0
  -26.2840  -29.6821   24.1115 H   0  0  0  0  0  0
  -27.3958  -29.7269   25.4600 H   0  0  0  0  0  0
  -27.8698  -30.4375   23.9348 H   0  0  0  0  0  0
  -27.2653  -33.3646   26.2045 H   0  0  0  0  0  0
  -28.3807  -32.6842   25.0312 H   0  0  0  0  0  0
  -28.0639  -31.8454   26.5410 H   0  0  0  0  0  0
  -28.2605  -38.0133   24.7528 H   0  0  0  0  0  0
  -28.1119  -36.2668   24.6293 H   0  0  0  0  0  0
  -27.2274  -37.1464   25.8842 H   0  0  0  0  0  0
  -20.9370  -29.8780   21.6945 H   0  0  0  0  0  0
  -26.0202  -38.2885   24.1391 H   0  0  0  0  0  0
  -27.5840  -21.7528   21.6401 H   0  0  0  0  0  0
  -26.9471  -22.2466   20.0975 H   0  0  0  0  0  0
  -31.0572  -22.3940   20.7906 H   0  0  0  0  0  0
  -29.9822  -21.8078   22.0353 H   0  0  0  0  0  0
  -28.0409  -20.3146   18.9512 H   0  0  0  0  0  0
  -27.0248  -19.7684   20.2641 H   0  0  0  0  0  0
  -31.1597  -19.9443   20.9198 H   0  0  0  0  0  0
  -30.5635  -20.4234   19.3451 H   0  0  0  0  0  0
  -29.7009  -25.5495   22.1257 H   0  0  0  0  0  0
  -30.8664  -24.6225   21.1985 H   0  0  0  0  0  0
  -30.0775  -23.9311   22.6261 H   0  0  0  0  0  0
  -29.9703  -17.3439   22.1006 H   0  0  0  0  0  0
  -31.1469  -17.3267   20.8246 H   0  0  0  0  0  0
  -28.1632  -17.7088   20.2307 H   0  0  0  0  0  0
  -29.4708  -18.0653   19.1518 H   0  0  0  0  0  0
  -27.6478  -24.8104   19.1190 H   0  0  0  0  0  0
  -29.3328  -25.1152   19.0477 H   0  0  0  0  0  0
  -27.8909  -24.0317   21.4940 H   0  0  0  0  0  0
  -28.8906  -15.3627   21.1485 H   0  0  0  0  0  0
  -28.9400  -19.5604   21.6273 H   0  0  0  0  0  0
  1 25  1  0  0  0
  1 30  2  0  0  0
  1 81  1  0  0  0
  2  3  1  0  0  0
  2 25  1  0  0  0
  2 83  1  0  0  0
  2 84  1  0  0  0
  3  4  1  0  0  0
  3 85  1  0  0  0
  3 86  1  0  0  0
  4  5  1  0  0  0
  4 87  1  0  0  0
  4 88  1  0  0  0
  5  6  1  0  0  0
  5 26  1  0  0  0
  5 89  1  0  0  0
  6 25  1  0  0  0
  6 90  1  0  0  0
  6 91  1  0  0  0
  7  8  2  0  0  0
  7 26  1  0  0  0
  7 29  1  0  0  0
  8  9  1  0  0  0
  8 22  1  0  0  0
  9 10  1  0  0  0
  9 27  2  0  0  0
 10 11  2  0  0  0
 10 15  1  0  0  0
 11 12  1  0  0  0
 11 92  1  0  0  0
 12 13  2  0  0  0
 12 93  1  0  0  0
 13 14  1  0  0  0
 13 31  1  0  0  0
 14 15  2  0  0  0
 14 94  1  0  0  0
 15 95  1  0  0  0
 16 17  2  0  0  0
 16 21  1  0  0  0
 16 31  1  0  0  0
 17 18  1  0  0  0
 17 96  1  0  0  0
 18 19  2  0  0  0
 18 97  1  0  0  0
 19 20  1  0  0  0
 19 24  1  0  0  0
 20 21  2  0  0  0
 20 98  1  0  0  0
 21 23  1  0  0  0
 22 28  1  0  0  0
 22 32  2  0  0  0
 26 27  1  0  0  0
 28 99  1  0  0  0
 28100  1  0  0  0
 29101  1  0  0  0
 29102  1  0  0  0
 33 34  1  0  0  0
 33 66  1  0  0  0
 33 70  2  0  0  0
 34 36  1  0  0  0
 34 59  1  0  0  0
 34103  1  0  0  0
 35 44  2  0  0  0
 35 45  1  0  0  0
 35 68  1  0  0  0
 36 56  1  0  0  0
 36104  1  0  0  0
 37 39  1  0  0  0
 37 47  1  0  0  0
 37 66  1  0  0  0
 37105  1  0  0  0
 38 43  2  0  0  0
 38 46  1  0  0  0
 38 47  1  0  0  0
 39 64  1  0  0  0
 39 67  2  0  0  0
 40 52  1  0  0  0
 40 53  2  0  0  0
 40 58  1  0  0  0
 41106  1  0  0  0
 41107  1  0  0  0
 41108  1  0  0  0
 41 48  1  0  0  0
 42 43  1  0  0  0
 42 66  1  0  0  0
 42109  1  0  0  0
 42110  1  0  0  0
 43 44  1  0  0  0
 44111  1  0  0  0
 45 46  2  0  0  0
 45112  1  0  0  0
 46113  1  0  0  0
 47114  1  0  0  0
 47115  1  0  0  0
 48 56  1  0  0  0
 48 65  1  0  0  0
 48116  1  0  0  0
 49 50  1  0  0  0
 49 53  1  0  0  0
 49 64  1  0  0  0
 49117  1  0  0  0
 50 51  1  0  0  0
 50118  1  0  0  0
 50119  1  0  0  0
 51 52  1  0  0  0
 51120  1  0  0  0
 51121  1  0  0  0
 52122  1  0  0  0
 52123  1  0  0  0
 53 54  1  0  0  0
 54 55  2  0  0  0
 54124  1  0  0  0
 55 57  1  0  0  0
 55125  1  0  0  0
 56 69  2  0  0  0
 57 58  2  0  0  0
 57126  1  0  0  0
 58127  1  0  0  0
 59 60  1  0  0  0
 59 61  1  0  0  0
 59 62  1  0  0  0
 60128  1  0  0  0
 60129  1  0  0  0
 60130  1  0  0  0
 61131  1  0  0  0
 61132  1  0  0  0
 61133  1  0  0  0
 62134  1  0  0  0
 62135  1  0  0  0
 62136  1  0  0  0
 63 65  1  0  0  0
 63137  1  0  0  0
 63138  1  0  0  0
 63139  1  0  0  0
 64140  1  0  0  0
 65141  1  0  0  0
 68 78  1  0  0  0
 71 73  1  0  0  0
 71 80  1  0  0  0
 71142  1  0  0  0
 71143  1  0  0  0
 72 74  1  0  0  0
 72 80  1  0  0  0
 72144  1  0  0  0
 72145  1  0  0  0
 73 82  1  0  0  0
 73146  1  0  0  0
 73147  1  0  0  0
 74 82  1  0  0  0
 74148  1  0  0  0
 74149  1  0  0  0
 75150  1  0  0  0
 75151  1  0  0  0
 75152  1  0  0  0
 75 79  1  0  0  0
 76 77  1  0  0  0
 76 81  1  0  0  0
 76153  1  0  0  0
 76154  1  0  0  0
 77155  1  0  0  0
 77156  1  0  0  0
 77 82  1  0  0  0
 78 79  1  0  0  0
 78157  1  0  0  0
 78158  1  0  0  0
 79 80  1  0  0  0
 79159  1  0  0  0
 81160  1  0  0  0
 82161  1  0  0  0
M  CHG  1  82   1
M  ISO  4   1 100  68 101  78 101  81 100
M  END
> <chiral flag>
0

> <version>
0

> <s_m_source_file>
/data/baiqing/PycharmProjects/Reinvent-master-3.2/result/LINK_invent/BTK/process_docking_weight1_custom_sum_contain_oxygen_bond_distance_aromatic_linkinvent_7_9_3/rearranged_h_0137.sdf

> <i_m_source_file_index>
68

> <r_mmod_Potential_Energy-OPLS-2005>
-67.2727584838867

> <r_mmod_Stretch_Energy-OPLS-2005>
79.0479049682617

> <r_mmod_Bend_Energy-OPLS-2005>
152.435440063477

> <r_mmod_Torsional_Energy-OPLS-2005>
217.285308837891

> <r_mmod_Improper_Torsional_Energy-OPLS-2005>
4.35519313812256

> <r_mmod_Van_der_Waal_Energy-OPLS-2005>
142.104675292969

> <r_mmod_Electrostatic_Energy-OPLS-2005>
-233.738815307617

> <r_mmod_Solvation_Energy-OPLS-2005>
-468.334594726562

> <b_mmod_Minimization_Converged-OPLS-2005>
0

> <r_mmod_RMS_Derivative-OPLS-2005>
3.21470928192139

$$$$
68
                    3D
 Structure written by MMmdl.
159168  0  0  1  0            999 V2000
  -30.6130  -14.7388   20.4921 C   0  0  0  0  0  0
  -30.4381  -12.4614   19.4635 C   0  0  0  0  0  0
  -29.5076  -12.5076   18.2304 C   0  0  0  0  0  0
  -28.0354  -12.3242   18.6493 C   0  0  0  0  0  0
  -27.6435  -13.2250   19.8508 C   0  0  2  0  0  0
  -28.6913  -13.1519   20.9829 C   0  0  0  0  0  0
  -25.2533  -13.8187   20.5707 C   0  0  0  0  0  0
  -24.1811  -13.0445   20.9218 C   0  0  0  0  0  0
  -24.6391  -11.6920   20.8763 C   0  0  0  0  0  0
  -23.9064  -10.4299   21.0412 C   0  0  0  0  0  0
  -24.3623   -9.4211   21.9184 C   0  0  0  0  0  0
  -23.6301   -8.2244   22.0755 C   0  0  0  0  0  0
  -22.4280   -8.0284   21.3547 C   0  0  0  0  0  0
  -21.9912   -9.0254   20.4642 C   0  0  0  0  0  0
  -22.7240  -10.2136   20.3053 C   0  0  0  0  0  0
  -21.6854   -6.0742   22.5282 C   0  0  0  0  0  0
  -21.4006   -6.5648   23.8212 C   0  0  0  0  0  0
  -21.3661   -5.6799   24.9175 C   0  0  0  0  0  0
  -21.6048   -4.3060   24.7224 C   0  0  0  0  0  0
  -21.8821   -3.8152   23.4344 C   0  0  0  0  0  0
  -21.9191   -4.6970   22.3402 C   0  0  0  0  0  0
  -22.7834  -13.5227   21.1887 C   0  0  0  0  0  0
  -22.1662   -4.2161   21.0978 F   0  0  0  0  0  0
  -21.5635   -3.4540   25.7733 F   0  0  0  0  0  0
  -29.9869  -13.5165   20.3967 N   0  0  0  0  0  0
  -26.2949  -12.9376   20.3290 N   0  0  0  0  0  0
  -25.9317  -11.6529   20.5770 N   0  0  0  0  0  0
  -22.0478  -12.8200   22.0430 N   0  0  0  0  0  0
  -25.4235  -15.1910   20.4131 N   0  0  0  0  0  0
  -31.8077  -14.8469   20.2043 O   0  0  0  0  0  0
  -21.6642   -6.8880   21.4244 O   0  0  0  0  0  0
  -22.3515  -14.5539   20.6749 O   0  0  0  0  0  0
  -24.6306  -31.8530   23.1992 C   0  0  0  0  0  0
  -25.9127  -32.4746   23.8332 C   0  0  1  0  0  0
  -27.2273  -27.2694   20.1391 C   0  0  0  0  0  0
  -25.5941  -33.8561   24.2237 N   0  0  0  0  0  0
  -23.4293  -30.4741   21.5427 C   0  0  2  0  0  0
  -24.8779  -28.9173   20.1158 C   0  0  0  0  0  0
  -22.7488  -29.4594   22.4942 C   0  0  0  0  0  0
  -18.0272  -28.1375   22.8480 C   0  0  0  0  0  0
  -24.1498  -36.7272   23.2634 C   0  0  0  0  0  0
  -25.9740  -30.7680   21.3797 C   0  0  0  0  0  0
  -26.0471  -29.3890   20.7274 C   0  0  0  0  0  0
  -27.2263  -28.5774   20.7298 C   0  0  0  0  0  0
  -26.0371  -26.8588   19.5029 C   0  0  0  0  0  0
  -24.8749  -27.6567   19.4960 C   0  0  0  0  0  0
  -23.6484  -29.8047   20.1598 C   0  0  0  0  0  0
  -25.4115  -36.3066   24.0321 C   0  0  1  0  0  0
  -20.5880  -28.3669   23.1274 C   0  0  2  0  0  0
  -20.6782  -26.9394   22.5411 C   0  0  0  0  0  0
  -19.5755  -26.6370   21.5212 C   0  0  0  0  0  0
  -18.1923  -26.7922   22.1613 C   0  0  0  0  0  0
  -19.1532  -28.8841   23.2870 C   0  0  0  0  0  0
  -18.9473  -30.1453   23.8870 C   0  0  0  0  0  0
  -17.6477  -30.6588   24.0555 C   0  0  0  0  0  0
  -25.9061  -34.9438   23.5079 C   0  0  0  0  0  0
  -16.5358  -29.9083   23.6347 C   0  0  0  0  0  0
  -16.7260  -28.6504   23.0351 C   0  0  0  0  0  0
  -26.4488  -31.6590   25.0729 C   0  0  0  0  0  0
  -25.3717  -31.3764   26.1460 C   0  0  0  0  0  0
  -27.0308  -30.2996   24.6217 C   0  0  0  0  0  0
  -27.6065  -32.4320   25.7477 C   0  0  0  0  0  0
  -27.5598  -37.1729   24.8412 C   0  0  0  0  0  0
  -21.4199  -29.3025   22.3670 N   0  0  0  0  0  0
  -26.4244  -37.3803   23.9470 N   0  0  0  0  0  0
  -24.6974  -31.0506   22.0959 N   0  0  0  0  0  0
  -23.4180  -28.8147   23.3060 O   0  0  0  0  0  0
  -28.3260  -26.3812   20.1184 O   0  0  0  0  0  0
  -26.5656  -34.8916   22.4654 O   0  0  0  0  0  0
  -23.5458  -32.1342   23.7284 O   0  0  0  0  0  0
  -28.0131  -22.5793   21.9620 C   0  0  0  0  0  0
  -28.7892  -23.8433   20.0696 C   0  0  0  0  0  0
  -28.6754  -22.5457   20.7185 C   0  0  0  0  0  0
  -27.5121  -23.7902   22.4772 C   0  0  0  0  0  0
  -28.2448  -25.0566   20.6564 C   0  0  0  0  0  0
  -30.6027  -20.9600   19.7361 C   0  0  0  0  0  0
  -30.9273  -19.4268   19.6877 C   0  0  0  0  0  0
  -28.9471  -19.7859   20.9673 C   0  0  0  0  0  0
  -29.1277  -21.1284   20.1290 C   0  0  1  0  0  0
  -29.7461  -18.5977   20.2686 C   0  0  2  0  0  0
  -26.7663  -23.7996   23.7954 C   0  0  0  0  0  0
  -30.2167  -17.2876   21.1166 C   0  0  0  0  0  0
  -27.6227  -24.9828   21.8522 N   0  0  0  0  0  0
  -29.8328  -15.8574   20.7358 N   0  0  0  0  0  0
  -31.4770  -12.6001   19.1562 H   0  0  0  0  0  0
  -30.3948  -11.4837   19.9452 H   0  0  0  0  0  0
  -29.7923  -11.7364   17.5121 H   0  0  0  0  0  0
  -29.6230  -13.4638   17.7157 H   0  0  0  0  0  0
  -27.8970  -11.2746   18.9138 H   0  0  0  0  0  0
  -27.3728  -12.5110   17.8035 H   0  0  0  0  0  0
  -27.6379  -14.2467   19.4707 H   0  0  0  0  0  0
  -28.7359  -12.1486   21.4086 H   0  0  0  0  0  0
  -28.4257  -13.8191   21.8045 H   0  0  0  0  0  0
  -25.2768   -9.5700   22.4759 H   0  0  0  0  0  0
  -24.0028   -7.4628   22.7461 H   0  0  0  0  0  0
  -21.0851   -8.8755   19.8932 H   0  0  0  0  0  0
  -22.3691  -10.9674   19.6163 H   0  0  0  0  0  0
  -21.1984   -7.6155   23.9722 H   0  0  0  0  0  0
  -21.1488   -6.0524   25.9080 H   0  0  0  0  0  0
  -22.0595   -2.7615   23.2831 H   0  0  0  0  0  0
  -22.4104  -11.9853   22.4795 H   0  0  0  0  0  0
  -21.1091  -13.1207   22.2647 H   0  0  0  0  0  0
  -24.6566  -15.8451   20.5252 H   0  0  0  0  0  0
  -26.2700  -15.6308   20.0765 H   0  0  0  0  0  0
  -26.7194  -32.5365   23.1075 H   0  0  0  0  0  0
  -25.0105  -33.9725   25.0393 H   0  0  0  0  0  0
  -22.7251  -31.2962   21.3940 H   0  0  0  0  0  0
  -23.3807  -35.9546   23.3179 H   0  0  0  0  0  0
  -24.3657  -36.9016   22.2083 H   0  0  0  0  0  0
  -23.7158  -37.6396   23.6729 H   0  0  0  0  0  0
  -26.1143  -31.5274   20.6106 H   0  0  0  0  0  0
  -26.8518  -30.8159   22.0130 H   0  0  0  0  0  0
  -28.1260  -28.9401   21.2080 H   0  0  0  0  0  0
  -26.0015  -25.8890   19.0272 H   0  0  0  0  0  0
  -23.9806  -27.2881   19.0123 H   0  0  0  0  0  0
  -23.7726  -30.5788   19.4016 H   0  0  0  0  0  0
  -22.7682  -29.2368   19.8561 H   0  0  0  0  0  0
  -25.1280  -36.1884   25.0804 H   0  0  0  0  0  0
  -20.9935  -28.3231   24.1410 H   0  0  0  0  0  0
  -20.5684  -26.2279   23.3604 H   0  0  0  0  0  0
  -21.6650  -26.7432   22.1200 H   0  0  0  0  0  0
  -19.6932  -25.6275   21.1243 H   0  0  0  0  0  0
  -19.6714  -27.3193   20.6750 H   0  0  0  0  0  0
  -17.4205  -26.6653   21.4011 H   0  0  0  0  0  0
  -18.0331  -26.0070   22.9017 H   0  0  0  0  0  0
  -19.7964  -30.7268   24.2221 H   0  0  0  0  0  0
  -17.5046  -31.6279   24.5142 H   0  0  0  0  0  0
  -15.5356  -30.2986   23.7714 H   0  0  0  0  0  0
  -15.8653  -28.0832   22.7070 H   0  0  0  0  0  0
  -24.5860  -30.7142   25.7793 H   0  0  0  0  0  0
  -24.8953  -32.2954   26.4879 H   0  0  0  0  0  0
  -25.8034  -30.8924   27.0230 H   0  0  0  0  0  0
  -26.2874  -29.6764   24.1225 H   0  0  0  0  0  0
  -27.3969  -29.7235   25.4728 H   0  0  0  0  0  0
  -27.8774  -30.4265   23.9468 H   0  0  0  0  0  0
  -27.2694  -33.3647   26.2010 H   0  0  0  0  0  0
  -28.3883  -32.6826   25.0291 H   0  0  0  0  0  0
  -28.0714  -31.8461   26.5413 H   0  0  0  0  0  0
  -28.2419  -38.0216   24.7774 H   0  0  0  0  0  0
  -28.1273  -36.2781   24.5818 H   0  0  0  0  0  0
  -27.2382  -37.0865   25.8803 H   0  0  0  0  0  0
  -20.9365  -29.8736   21.6878 H   0  0  0  0  0  0
  -26.0092  -38.2808   24.1696 H   0  0  0  0  0  0
  -27.8616  -21.6693   22.5262 H   0  0  0  0  0  0
  -29.2865  -23.9093   19.1121 H   0  0  0  0  0  0
  -30.8288  -21.4634   18.7951 H   0  0  0  0  0  0
  -31.2275  -21.4266   20.4997 H   0  0  0  0  0  0
  -31.8418  -19.2539   20.2577 H   0  0  0  0  0  0
  -31.1473  -19.1019   18.6690 H   0  0  0  0  0  0
  -27.8939  -19.5359   21.0987 H   0  0  0  0  0  0
  -29.3620  -19.9371   21.9640 H   0  0  0  0  0  0
  -28.5422  -21.0053   19.2170 H   0  0  0  0  0  0
  -29.1357  -18.2565   19.4312 H   0  0  0  0  0  0
  -25.8507  -23.2143   23.7074 H   0  0  0  0  0  0
  -26.4920  -24.8110   24.0989 H   0  0  0  0  0  0
  -27.3786  -23.3625   24.5848 H   0  0  0  0  0  0
  -29.8338  -17.4192   22.1280 H   0  0  0  0  0  0
  -31.2982  -17.3134   21.2574 H   0  0  0  0  0  0
  -28.8519  -15.6453   20.8412 H   0  0  0  0  0  0
  1 25  1  0  0  0
  1 30  2  0  0  0
  1 84  1  0  0  0
  2  3  1  0  0  0
  2 25  1  0  0  0
  2 85  1  0  0  0
  2 86  1  0  0  0
  3  4  1  0  0  0
  3 87  1  0  0  0
  3 88  1  0  0  0
  4  5  1  0  0  0
  4 89  1  0  0  0
  4 90  1  0  0  0
  5  6  1  0  0  0
  5 26  1  0  0  0
  5 91  1  0  0  0
  6 25  1  0  0  0
  6 92  1  0  0  0
  6 93  1  0  0  0
  7  8  2  0  0  0
  7 26  1  0  0  0
  7 29  1  0  0  0
  8  9  1  0  0  0
  8 22  1  0  0  0
  9 10  1  0  0  0
  9 27  2  0  0  0
 10 11  2  0  0  0
 10 15  1  0  0  0
 11 12  1  0  0  0
 11 94  1  0  0  0
 12 13  2  0  0  0
 12 95  1  0  0  0
 13 14  1  0  0  0
 13 31  1  0  0  0
 14 15  2  0  0  0
 14 96  1  0  0  0
 15 97  1  0  0  0
 16 17  2  0  0  0
 16 21  1  0  0  0
 16 31  1  0  0  0
 17 18  1  0  0  0
 17 98  1  0  0  0
 18 19  2  0  0  0
 18 99  1  0  0  0
 19 20  1  0  0  0
 19 24  1  0  0  0
 20 21  2  0  0  0
 20100  1  0  0  0
 21 23  1  0  0  0
 22 28  1  0  0  0
 22 32  2  0  0  0
 26 27  1  0  0  0
 28101  1  0  0  0
 28102  1  0  0  0
 29103  1  0  0  0
 29104  1  0  0  0
 33 34  1  0  0  0
 33 66  1  0  0  0
 33 70  2  0  0  0
 34 36  1  0  0  0
 34 59  1  0  0  0
 34105  1  0  0  0
 35 44  2  0  0  0
 35 45  1  0  0  0
 35 68  1  0  0  0
 36 56  1  0  0  0
 36106  1  0  0  0
 37 39  1  0  0  0
 37 47  1  0  0  0
 37 66  1  0  0  0
 37107  1  0  0  0
 38 43  2  0  0  0
 38 46  1  0  0  0
 38 47  1  0  0  0
 39 64  1  0  0  0
 39 67  2  0  0  0
 40 52  1  0  0  0
 40 53  2  0  0  0
 40 58  1  0  0  0
 41108  1  0  0  0
 41109  1  0  0  0
 41110  1  0  0  0
 41 48  1  0  0  0
 42 43  1  0  0  0
 42 66  1  0  0  0
 42111  1  0  0  0
 42112  1  0  0  0
 43 44  1  0  0  0
 44113  1  0  0  0
 45 46  2  0  0  0
 45114  1  0  0  0
 46115  1  0  0  0
 47116  1  0  0  0
 47117  1  0  0  0
 48 56  1  0  0  0
 48 65  1  0  0  0
 48118  1  0  0  0
 49 50  1  0  0  0
 49 53  1  0  0  0
 49 64  1  0  0  0
 49119  1  0  0  0
 50 51  1  0  0  0
 50120  1  0  0  0
 50121  1  0  0  0
 51 52  1  0  0  0
 51122  1  0  0  0
 51123  1  0  0  0
 52124  1  0  0  0
 52125  1  0  0  0
 53 54  1  0  0  0
 54 55  2  0  0  0
 54126  1  0  0  0
 55 57  1  0  0  0
 55127  1  0  0  0
 56 69  2  0  0  0
 57 58  2  0  0  0
 57128  1  0  0  0
 58129  1  0  0  0
 59 60  1  0  0  0
 59 61  1  0  0  0
 59 62  1  0  0  0
 60130  1  0  0  0
 60131  1  0  0  0
 60132  1  0  0  0
 61133  1  0  0  0
 61134  1  0  0  0
 61135  1  0  0  0
 62136  1  0  0  0
 62137  1  0  0  0
 62138  1  0  0  0
 63 65  1  0  0  0
 63139  1  0  0  0
 63140  1  0  0  0
 63141  1  0  0  0
 64142  1  0  0  0
 65143  1  0  0  0
 68 75  1  0  0  0
 71 73  2  0  0  0
 71 74  1  0  0  0
 71144  1  0  0  0
 72 73  1  0  0  0
 72 75  2  0  0  0
 72145  1  0  0  0
 73 79  1  0  0  0
 74 81  1  0  0  0
 74 83  2  0  0  0
 75 83  1  0  0  0
 76 77  1  0  0  0
 76 79  1  0  0  0
 76146  1  0  0  0
 76147  1  0  0  0
 77 80  1  0  0  0
 77148  1  0  0  0
 77149  1  0  0  0
 78 79  1  0  0  0
 78 80  1  0  0  0
 78150  1  0  0  0
 78151  1  0  0  0
 79152  1  0  0  0
 80 82  1  0  0  0
 80153  1  0  0  0
 81154  1  0  0  0
 81155  1  0  0  0
 81156  1  0  0  0
 82 84  1  0  0  0
 82157  1  0  0  0
 82158  1  0  0  0
 84159  1  0  0  0
M  ISO  4   1 100  68 101  75 101  84 100
M  END
> <chiral flag>
0

> <version>
0

> <s_m_source_file>
/data/baiqing/PycharmProjects/Reinvent-master-3.2/result/LINK_invent/BTK/process_docking_weight1_custom_sum_contain_oxygen_bond_distance_aromatic_linkinvent_7_9_3/rearranged_h_0137.sdf

> <i_m_source_file_index>
69

> <r_mmod_Potential_Energy-OPLS-2005>
60.8540077209473

> <r_mmod_Stretch_Energy-OPLS-2005>
111.058052062988

> <r_mmod_Bend_Energy-OPLS-2005>
186.342956542969

> <r_mmod_Torsional_Energy-OPLS-2005>
278.936767578125

> <r_mmod_Improper_Torsional_Energy-OPLS-2005>
4.32167148590088

> <r_mmod_Van_der_Waal_Energy-OPLS-2005>
133.417633056641

> <r_mmod_Electrostatic_Energy-OPLS-2005>
-520.352233886719

> <r_mmod_Solvation_Energy-OPLS-2005>
-214.341339111328

> <b_mmod_Minimization_Converged-OPLS-2005>
0

> <r_mmod_RMS_Derivative-OPLS-2005>
2.84619498252869

$$$$
69
                    3D
 Structure written by MMmdl.
160169  0  0  1  0            999 V2000
  -30.6259  -14.6303   20.5111 C   0  0  0  0  0  0
  -30.4412  -12.3874   19.4515 C   0  0  0  0  0  0
  -29.5096  -12.5071   18.2245 C   0  0  0  0  0  0
  -28.0317  -12.3469   18.6350 C   0  0  0  0  0  0
  -27.6561  -13.2138   19.8663 C   0  0  2  0  0  0
  -28.6999  -13.0604   20.9960 C   0  0  0  0  0  0
  -25.2574  -13.8162   20.5671 C   0  0  0  0  0  0
  -24.1838  -13.0436   20.9190 C   0  0  0  0  0  0
  -24.6399  -11.6904   20.8738 C   0  0  0  0  0  0
  -23.9067  -10.4293   21.0405 C   0  0  0  0  0  0
  -24.3617   -9.4211   21.9186 C   0  0  0  0  0  0
  -23.6294   -8.2244   22.0755 C   0  0  0  0  0  0
  -22.4277   -8.0281   21.3545 C   0  0  0  0  0  0
  -21.9914   -9.0252   20.4644 C   0  0  0  0  0  0
  -22.7239  -10.2134   20.3055 C   0  0  0  0  0  0
  -21.6857   -6.0738   22.5283 C   0  0  0  0  0  0
  -21.4011   -6.5640   23.8214 C   0  0  0  0  0  0
  -21.3661   -5.6793   24.9175 C   0  0  0  0  0  0
  -21.6045   -4.3057   24.7223 C   0  0  0  0  0  0
  -21.8820   -3.8149   23.4346 C   0  0  0  0  0  0
  -21.9191   -4.6966   22.3404 C   0  0  0  0  0  0
  -22.7862  -13.5236   21.1852 C   0  0  0  0  0  0
  -22.1663   -4.2153   21.0982 F   0  0  0  0  0  0
  -21.5630   -3.4541   25.7735 F   0  0  0  0  0  0
  -30.0183  -13.4033   20.4356 N   0  0  0  0  0  0
  -26.3004  -12.9337   20.3324 N   0  0  0  0  0  0
  -25.9330  -11.6498   20.5759 N   0  0  0  0  0  0
  -22.0500  -12.8222   22.0398 N   0  0  0  0  0  0
  -25.4289  -15.1879   20.4044 N   0  0  0  0  0  0
  -31.7840  -14.7988   20.1177 O   0  0  0  0  0  0
  -21.6641   -6.8880   21.4243 O   0  0  0  0  0  0
  -22.3551  -14.5548   20.6711 O   0  0  0  0  0  0
  -24.6247  -31.8610   23.2038 C   0  0  0  0  0  0
  -25.9096  -32.4793   23.8358 C   0  0  1  0  0  0
  -27.2284  -27.3306   20.1135 C   0  0  0  0  0  0
  -25.5920  -33.8589   24.2293 N   0  0  0  0  0  0
  -23.4184  -30.4861   21.5456 C   0  0  2  0  0  0
  -24.8658  -28.9461   20.1089 C   0  0  0  0  0  0
  -22.7470  -29.4624   22.4924 C   0  0  0  0  0  0
  -18.0290  -28.1375   22.8494 C   0  0  0  0  0  0
  -24.1486  -36.7292   23.2645 C   0  0  0  0  0  0
  -25.9581  -30.7975   21.3717 C   0  0  0  0  0  0
  -26.0337  -29.4250   20.7147 C   0  0  0  0  0  0
  -27.2159  -28.6292   20.7092 C   0  0  0  0  0  0
  -26.0367  -26.9086   19.4753 C   0  0  0  0  0  0
  -24.8696  -27.6924   19.4806 C   0  0  0  0  0  0
  -23.6323  -29.8233   20.1596 C   0  0  0  0  0  0
  -25.4107  -36.3093   24.0342 C   0  0  1  0  0  0
  -20.5892  -28.3665   23.1290 C   0  0  2  0  0  0
  -20.6766  -26.9388   22.5402 C   0  0  0  0  0  0
  -19.5739  -26.6379   21.5206 C   0  0  0  0  0  0
  -18.1923  -26.7928   22.1626 C   0  0  0  0  0  0
  -19.1545  -28.8833   23.2900 C   0  0  0  0  0  0
  -18.9471  -30.1443   23.8911 C   0  0  0  0  0  0
  -17.6470  -30.6582   24.0555 C   0  0  0  0  0  0
  -25.9039  -34.9461   23.5113 C   0  0  0  0  0  0
  -16.5358  -29.9080   23.6326 C   0  0  0  0  0  0
  -16.7276  -28.6496   23.0353 C   0  0  0  0  0  0
  -26.4488  -31.6591   25.0710 C   0  0  0  0  0  0
  -25.3735  -31.3709   26.1445 C   0  0  0  0  0  0
  -27.0320  -30.3029   24.6108 C   0  0  0  0  0  0
  -27.6045  -32.4316   25.7486 C   0  0  0  0  0  0
  -27.5578  -37.1802   24.8475 C   0  0  0  0  0  0
  -21.4177  -29.3041   22.3688 N   0  0  0  0  0  0
  -26.4289  -37.3782   23.9415 N   0  0  0  0  0  0
  -24.6861  -31.0629   22.0984 N   0  0  0  0  0  0
  -23.4206  -28.8151   23.2982 O   0  0  0  0  0  0
  -28.3501  -26.4868   20.1807 O   0  0  0  0  0  0
  -26.5605  -34.8931   22.4682 O   0  0  0  0  0  0
  -23.5414  -32.1387   23.7376 O   0  0  0  0  0  0
  -31.0452  -19.2920   20.3907 C   0  0  0  0  0  0
  -28.7216  -19.3115   21.0073 C   0  0  0  0  0  0
  -31.0582  -17.8639   20.4296 C   0  0  0  0  0  0
  -28.7356  -17.8873   21.0553 C   0  0  0  0  0  0
  -29.8833  -20.0590   20.6913 C   0  0  0  0  0  0
  -29.8994  -17.1194   20.7791 C   0  0  0  0  0  0
  -29.1629  -22.5397   19.7679 C   0  0  0  0  0  0
  -29.4709  -22.2592   22.0951 C   0  0  0  0  0  0
  -29.9368  -21.6318   20.7683 C   0  0  1  0  0  0
  -29.2532  -23.9875   20.3884 C   0  0  1  0  0  0
  -30.1905  -24.5836   22.6201 C   0  0  0  0  0  0
  -28.1491  -25.0414   19.9384 C   0  0  0  0  0  0
  -29.8118  -15.6636   20.8905 N   0  0  0  0  0  0
  -29.2591  -23.7214   21.8581 N   0  3  2  0  0  0
  -31.4816  -12.5166   19.1478 H   0  0  0  0  0  0
  -30.3803  -11.3888   19.8870 H   0  0  0  0  0  0
  -29.7716  -11.7572   17.4774 H   0  0  0  0  0  0
  -29.6545  -13.4775   17.7465 H   0  0  0  0  0  0
  -27.8652  -11.2934   18.8608 H   0  0  0  0  0  0
  -27.3788  -12.5828   17.7938 H   0  0  0  0  0  0
  -27.6769  -14.2508   19.5316 H   0  0  0  0  0  0
  -28.7085  -12.0363   21.3729 H   0  0  0  0  0  0
  -28.4442  -13.6863   21.8523 H   0  0  0  0  0  0
  -25.2763   -9.5688   22.4760 H   0  0  0  0  0  0
  -24.0008   -7.4634   22.7472 H   0  0  0  0  0  0
  -21.0852   -8.8765   19.8944 H   0  0  0  0  0  0
  -22.3701  -10.9669   19.6162 H   0  0  0  0  0  0
  -21.2004   -7.6146   23.9720 H   0  0  0  0  0  0
  -21.1482   -6.0520   25.9078 H   0  0  0  0  0  0
  -22.0598   -2.7612   23.2843 H   0  0  0  0  0  0
  -22.4109  -11.9873   22.4773 H   0  0  0  0  0  0
  -21.1115  -13.1242   22.2601 H   0  0  0  0  0  0
  -24.6551  -15.8379   20.4923 H   0  0  0  0  0  0
  -26.2647  -15.6182   20.0298 H   0  0  0  0  0  0
  -26.7150  -32.5459   23.1094 H   0  0  0  0  0  0
  -25.0078  -33.9736   25.0443 H   0  0  0  0  0  0
  -22.7119  -31.3062   21.4038 H   0  0  0  0  0  0
  -23.3761  -35.9619   23.3314 H   0  0  0  0  0  0
  -24.3584  -36.8894   22.2061 H   0  0  0  0  0  0
  -23.7234  -37.6497   23.6649 H   0  0  0  0  0  0
  -26.0820  -31.5603   20.6020 H   0  0  0  0  0  0
  -26.8426  -30.8499   21.9948 H   0  0  0  0  0  0
  -28.1100  -28.9947   21.1945 H   0  0  0  0  0  0
  -25.9710  -25.9573   18.9693 H   0  0  0  0  0  0
  -23.9770  -27.3209   18.9970 H   0  0  0  0  0  0
  -23.7501  -30.6015   19.4050 H   0  0  0  0  0  0
  -22.7530  -29.2525   19.8557 H   0  0  0  0  0  0
  -25.1290  -36.1943   25.0838 H   0  0  0  0  0  0
  -20.9990  -28.3221   24.1407 H   0  0  0  0  0  0
  -20.5647  -26.2271   23.3595 H   0  0  0  0  0  0
  -21.6634  -26.7400   22.1201 H   0  0  0  0  0  0
  -19.6888  -25.6296   21.1221 H   0  0  0  0  0  0
  -19.6680  -27.3196   20.6750 H   0  0  0  0  0  0
  -17.4187  -26.6686   21.4030 H   0  0  0  0  0  0
  -18.0316  -26.0067   22.9019 H   0  0  0  0  0  0
  -19.7950  -30.7254   24.2280 H   0  0  0  0  0  0
  -17.5031  -31.6270   24.5145 H   0  0  0  0  0  0
  -15.5359  -30.2984   23.7654 H   0  0  0  0  0  0
  -15.8679  -28.0817   22.7061 H   0  0  0  0  0  0
  -24.5925  -30.7035   25.7782 H   0  0  0  0  0  0
  -24.8910  -32.2868   26.4867 H   0  0  0  0  0  0
  -25.8085  -30.8903   27.0217 H   0  0  0  0  0  0
  -26.2865  -29.6790   24.1159 H   0  0  0  0  0  0
  -27.4092  -29.7262   25.4564 H   0  0  0  0  0  0
  -27.8708  -30.4361   23.9270 H   0  0  0  0  0  0
  -27.2657  -33.3623   26.2050 H   0  0  0  0  0  0
  -28.3870  -32.6852   25.0321 H   0  0  0  0  0  0
  -28.0689  -31.8442   26.5414 H   0  0  0  0  0  0
  -28.2595  -38.0097   24.7514 H   0  0  0  0  0  0
  -28.1072  -36.2627   24.6307 H   0  0  0  0  0  0
  -27.2298  -37.1461   25.8880 H   0  0  0  0  0  0
  -20.9323  -29.8824   21.6966 H   0  0  0  0  0  0
  -26.0177  -38.2863   24.1411 H   0  0  0  0  0  0
  -31.9666  -19.8042   20.1478 H   0  0  0  0  0  0
  -27.8021  -19.8283   21.2478 H   0  0  0  0  0  0
  -31.9836  -17.3527   20.2050 H   0  0  0  0  0  0
  -27.8188  -17.3816   21.3251 H   0  0  0  0  0  0
  -28.1213  -22.2208   19.7074 H   0  0  0  0  0  0
  -29.5808  -22.4944   18.7612 H   0  0  0  0  0  0
  -30.1693  -22.0526   22.9081 H   0  0  0  0  0  0
  -28.5103  -21.8377   22.3920 H   0  0  0  0  0  0
  -30.9906  -21.8956   20.6602 H   0  0  0  0  0  0
  -30.2277  -24.3877   20.1035 H   0  0  0  0  0  0
  -30.0945  -24.4039   23.6917 H   0  0  0  0  0  0
  -29.9742  -25.6374   22.4434 H   0  0  0  0  0  0
  -31.2267  -24.3946   22.3373 H   0  0  0  0  0  0
  -27.2085  -24.7237   20.3901 H   0  0  0  0  0  0
  -28.0237  -24.9275   18.8610 H   0  0  0  0  0  0
  -28.9117  -15.3297   21.1995 H   0  0  0  0  0  0
  -28.3354  -23.9235   22.2144 H   0  0  0  0  0  0
  1 25  1  0  0  0
  1 30  2  0  0  0
  1 83  1  0  0  0
  2  3  1  0  0  0
  2 25  1  0  0  0
  2 85  1  0  0  0
  2 86  1  0  0  0
  3  4  1  0  0  0
  3 87  1  0  0  0
  3 88  1  0  0  0
  4  5  1  0  0  0
  4 89  1  0  0  0
  4 90  1  0  0  0
  5  6  1  0  0  0
  5 26  1  0  0  0
  5 91  1  0  0  0
  6 25  1  0  0  0
  6 92  1  0  0  0
  6 93  1  0  0  0
  7  8  2  0  0  0
  7 26  1  0  0  0
  7 29  1  0  0  0
  8  9  1  0  0  0
  8 22  1  0  0  0
  9 10  1  0  0  0
  9 27  2  0  0  0
 10 11  2  0  0  0
 10 15  1  0  0  0
 11 12  1  0  0  0
 11 94  1  0  0  0
 12 13  2  0  0  0
 12 95  1  0  0  0
 13 14  1  0  0  0
 13 31  1  0  0  0
 14 15  2  0  0  0
 14 96  1  0  0  0
 15 97  1  0  0  0
 16 17  2  0  0  0
 16 21  1  0  0  0
 16 31  1  0  0  0
 17 18  1  0  0  0
 17 98  1  0  0  0
 18 19  2  0  0  0
 18 99  1  0  0  0
 19 20  1  0  0  0
 19 24  1  0  0  0
 20 21  2  0  0  0
 20100  1  0  0  0
 21 23  1  0  0  0
 22 28  1  0  0  0
 22 32  2  0  0  0
 26 27  1  0  0  0
 28101  1  0  0  0
 28102  1  0  0  0
 29103  1  0  0  0
 29104  1  0  0  0
 33 34  1  0  0  0
 33 66  1  0  0  0
 33 70  2  0  0  0
 34 36  1  0  0  0
 34 59  1  0  0  0
 34105  1  0  0  0
 35 44  2  0  0  0
 35 45  1  0  0  0
 35 68  1  0  0  0
 36 56  1  0  0  0
 36106  1  0  0  0
 37 39  1  0  0  0
 37 47  1  0  0  0
 37 66  1  0  0  0
 37107  1  0  0  0
 38 43  2  0  0  0
 38 46  1  0  0  0
 38 47  1  0  0  0
 39 64  1  0  0  0
 39 67  2  0  0  0
 40 52  1  0  0  0
 40 53  2  0  0  0
 40 58  1  0  0  0
 41108  1  0  0  0
 41109  1  0  0  0
 41110  1  0  0  0
 41 48  1  0  0  0
 42 43  1  0  0  0
 42 66  1  0  0  0
 42111  1  0  0  0
 42112  1  0  0  0
 43 44  1  0  0  0
 44113  1  0  0  0
 45 46  2  0  0  0
 45114  1  0  0  0
 46115  1  0  0  0
 47116  1  0  0  0
 47117  1  0  0  0
 48 56  1  0  0  0
 48 65  1  0  0  0
 48118  1  0  0  0
 49 50  1  0  0  0
 49 53  1  0  0  0
 49 64  1  0  0  0
 49119  1  0  0  0
 50 51  1  0  0  0
 50120  1  0  0  0
 50121  1  0  0  0
 51 52  1  0  0  0
 51122  1  0  0  0
 51123  1  0  0  0
 52124  1  0  0  0
 52125  1  0  0  0
 53 54  1  0  0  0
 54 55  2  0  0  0
 54126  1  0  0  0
 55 57  1  0  0  0
 55127  1  0  0  0
 56 69  2  0  0  0
 57 58  2  0  0  0
 57128  1  0  0  0
 58129  1  0  0  0
 59 60  1  0  0  0
 59 61  1  0  0  0
 59 62  1  0  0  0
 60130  1  0  0  0
 60131  1  0  0  0
 60132  1  0  0  0
 61133  1  0  0  0
 61134  1  0  0  0
 61135  1  0  0  0
 62136  1  0  0  0
 62137  1  0  0  0
 62138  1  0  0  0
 63 65  1  0  0  0
 63139  1  0  0  0
 63140  1  0  0  0
 63141  1  0  0  0
 64142  1  0  0  0
 65143  1  0  0  0
 68 82  1  0  0  0
 71 73  2  0  0  0
 71 75  1  0  0  0
 71144  1  0  0  0
 72 74  1  0  0  0
 72 75  2  0  0  0
 72145  1  0  0  0
 73 76  1  0  0  0
 73146  1  0  0  0
 74 76  2  0  0  0
 74147  1  0  0  0
 75 79  1  0  0  0
 76 83  1  0  0  0
 77 79  1  0  0  0
 77 80  1  0  0  0
 77148  1  0  0  0
 77149  1  0  0  0
 78 79  1  0  0  0
 78 84  1  0  0  0
 78150  1  0  0  0
 78151  1  0  0  0
 79152  1  0  0  0
 80 82  1  0  0  0
 80 84  1  0  0  0
 80153  1  0  0  0
 81154  1  0  0  0
 81155  1  0  0  0
 81156  1  0  0  0
 81 84  1  0  0  0
 82157  1  0  0  0
 82158  1  0  0  0
 83159  1  0  0  0
 84160  1  0  0  0
M  CHG  1  84   1
M  ISO  4   1 100  68 101  82 101  83 100
M  END
> <chiral flag>
0

> <version>
0

> <s_m_source_file>
/data/baiqing/PycharmProjects/Reinvent-master-3.2/result/LINK_invent/BTK/process_docking_weight1_custom_sum_contain_oxygen_bond_distance_aromatic_linkinvent_7_9_3/rearranged_h_0137.sdf

> <i_m_source_file_index>
70

> <r_mmod_Potential_Energy-OPLS-2005>
27.7915096282959

> <r_mmod_Stretch_Energy-OPLS-2005>
73.3955459594727

> <r_mmod_Bend_Energy-OPLS-2005>
166.175674438477

> <r_mmod_Torsional_Energy-OPLS-2005>
271.519287109375

> <r_mmod_Improper_Torsional_Energy-OPLS-2005>
4.39148044586182

> <r_mmod_Van_der_Waal_Energy-OPLS-2005>
140.963897705078

> <r_mmod_Electrostatic_Energy-OPLS-2005>
-245.58821105957

> <r_mmod_Solvation_Energy-OPLS-2005>
-427.910888671875

> <b_mmod_Minimization_Converged-OPLS-2005>
0

> <r_mmod_RMS_Derivative-OPLS-2005>
1.36419498920441

$$$$
70
                    3D
 Structure written by MMmdl.
163171  0  0  1  0            999 V2000
  -30.7690  -14.3757   20.6465 C   0  0  0  0  0  0
  -30.4003  -12.2895   19.3920 C   0  0  0  0  0  0
  -29.4657  -12.4954   18.1864 C   0  0  0  0  0  0
  -27.9920  -12.3600   18.6130 C   0  0  0  0  0  0
  -27.6511  -13.1947   19.8752 C   0  0  2  0  0  0
  -28.6964  -12.9687   20.9870 C   0  0  0  0  0  0
  -25.2549  -13.8139   20.5722 C   0  0  0  0  0  0
  -24.1789  -13.0433   20.9183 C   0  0  0  0  0  0
  -24.6318  -11.6884   20.8730 C   0  0  0  0  0  0
  -23.8986  -10.4288   21.0412 C   0  0  0  0  0  0
  -24.3568   -9.4205   21.9188 C   0  0  0  0  0  0
  -23.6269   -8.2224   22.0744 C   0  0  0  0  0  0
  -22.4249   -8.0258   21.3528 C   0  0  0  0  0  0
  -21.9869   -9.0227   20.4623 C   0  0  0  0  0  0
  -22.7168  -10.2120   20.3049 C   0  0  0  0  0  0
  -21.6854   -6.0717   22.5278 C   0  0  0  0  0  0
  -21.4005   -6.5627   23.8206 C   0  0  0  0  0  0
  -21.3661   -5.6781   24.9173 C   0  0  0  0  0  0
  -21.6051   -4.3045   24.7229 C   0  0  0  0  0  0
  -21.8815   -3.8133   23.4351 C   0  0  0  0  0  0
  -21.9185   -4.6946   22.3403 C   0  0  0  0  0  0
  -22.7810  -13.5218   21.1867 C   0  0  0  0  0  0
  -22.1657   -4.2134   21.0981 F   0  0  0  0  0  0
  -21.5637   -3.4532   25.7743 F   0  0  0  0  0  0
  -30.0230  -13.2653   20.4231 N   0  0  0  0  0  0
  -26.2963  -12.9280   20.3425 N   0  0  0  0  0  0
  -25.9243  -11.6447   20.5801 N   0  0  0  0  0  0
  -22.0454  -12.8220   22.0430 N   0  0  0  0  0  0
  -25.4323  -15.1862   20.4162 N   0  0  0  0  0  0
  -31.8746  -14.5649   20.1329 O   0  0  0  0  0  0
  -21.6620   -6.8854   21.4234 O   0  0  0  0  0  0
  -22.3489  -14.5536   20.6732 O   0  0  0  0  0  0
  -24.6076  -31.8716   23.2089 C   0  0  0  0  0  0
  -25.8981  -32.4860   23.8369 C   0  0  1  0  0  0
  -27.2294  -27.4662   20.1041 C   0  0  0  0  0  0
  -25.5864  -33.8658   24.2357 N   0  0  0  0  0  0
  -23.3939  -30.4979   21.5499 C   0  0  2  0  0  0
  -24.8452  -28.9759   20.1075 C   0  0  0  0  0  0
  -22.7285  -29.4723   22.4941 C   0  0  0  0  0  0
  -18.0233  -28.1435   22.8405 C   0  0  0  0  0  0
  -24.1490  -36.7321   23.2642 C   0  0  0  0  0  0
  -25.9184  -30.8564   21.3515 C   0  0  0  0  0  0
  -25.9997  -29.4900   20.7037 C   0  0  0  0  0  0
  -27.1968  -28.7409   20.7057 C   0  0  0  0  0  0
  -26.0617  -26.9692   19.4804 C   0  0  0  0  0  0
  -24.8668  -27.7085   19.4976 C   0  0  0  0  0  0
  -23.6054  -29.8394   20.1595 C   0  0  0  0  0  0
  -25.4100  -36.3123   24.0338 C   0  0  1  0  0  0
  -20.5821  -28.3740   23.1359 C   0  0  2  0  0  0
  -20.6690  -26.9441   22.5527 C   0  0  0  0  0  0
  -19.5798  -26.6307   21.5248 C   0  0  0  0  0  0
  -18.1838  -26.8060   22.1366 C   0  0  0  0  0  0
  -19.1462  -28.8879   23.2929 C   0  0  0  0  0  0
  -18.9321  -30.1459   23.8987 C   0  0  0  0  0  0
  -17.6332  -30.6600   24.0583 C   0  0  0  0  0  0
  -25.9008  -34.9493   23.5152 C   0  0  0  0  0  0
  -16.5232  -29.9139   23.6238 C   0  0  0  0  0  0
  -16.7217  -28.6582   23.0201 C   0  0  0  0  0  0
  -26.4448  -31.6595   25.0670 C   0  0  0  0  0  0
  -25.3718  -31.3692   26.1412 C   0  0  0  0  0  0
  -27.0294  -30.3058   24.5996 C   0  0  0  0  0  0
  -27.6031  -32.4295   25.7402 C   0  0  0  0  0  0
  -27.5579  -37.1813   24.8465 C   0  0  0  0  0  0
  -21.4028  -29.3004   22.3611 N   0  0  0  0  0  0
  -26.4293  -37.3803   23.9411 N   0  0  0  0  0  0
  -24.6591  -31.0831   22.0999 N   0  0  0  0  0  0
  -23.3981  -28.8395   23.3127 O   0  0  0  0  0  0
  -28.3871  -26.7295   20.1661 O   0  0  0  0  0  0
  -26.5590  -34.8953   22.4723 O   0  0  0  0  0  0
  -23.5269  -32.1480   23.7478 O   0  0  0  0  0  0
  -28.6082  -16.7866   22.3383 C   0  0  0  0  0  0
  -27.6604  -17.8209   22.2519 C   0  0  0  0  0  0
  -27.7970  -17.7170   19.8324 C   0  0  0  0  0  0
  -28.7953  -16.7238   19.9006 C   0  0  0  0  0  0
  -29.1998  -16.2360   21.1824 C   0  0  0  0  0  0
  -27.2571  -18.3012   20.9882 C   0  0  0  0  0  0
  -29.3962  -16.3182   18.5608 C   0  0  0  0  0  0
  -25.7778  -21.6114   21.1361 C   0  0  0  0  0  0
  -25.9583  -22.9204   21.9292 C   0  0  0  0  0  0
  -27.4385  -24.9377   21.6379 C   0  0  0  0  0  0
  -26.3775  -20.3575   21.7957 C   0  0  0  0  0  0
  -28.2461  -25.3140   20.3657 C   0  0  0  0  0  0
  -30.2564  -15.3182   21.4431 N   0  0  0  0  0  0
  -27.3371  -23.4657   21.8052 N   0  3  0  0  0  0
  -26.3655  -19.3309   20.8165 O   0  0  0  0  0  0
  -31.4407  -12.3862   19.0769 H   0  0  0  0  0  0
  -30.3063  -11.2748   19.7858 H   0  0  0  0  0  0
  -29.6937  -11.7690   17.4035 H   0  0  0  0  0  0
  -29.6360  -13.4791   17.7485 H   0  0  0  0  0  0
  -27.7982  -11.3039   18.8086 H   0  0  0  0  0  0
  -27.3331  -12.6374   17.7906 H   0  0  0  0  0  0
  -27.6890  -14.2401   19.5837 H   0  0  0  0  0  0
  -28.6666  -11.9329   21.3264 H   0  0  0  0  0  0
  -28.4600  -13.5696   21.8649 H   0  0  0  0  0  0
  -25.2720   -9.5695   22.4759 H   0  0  0  0  0  0
  -23.9989   -7.4610   22.7457 H   0  0  0  0  0  0
  -21.0809   -8.8718   19.8930 H   0  0  0  0  0  0
  -22.3618  -10.9654   19.6154 H   0  0  0  0  0  0
  -21.1992   -7.6137   23.9709 H   0  0  0  0  0  0
  -21.1494   -6.0513   25.9076 H   0  0  0  0  0  0
  -22.0596   -2.7602   23.2851 H   0  0  0  0  0  0
  -22.4080  -11.9884   22.4816 H   0  0  0  0  0  0
  -21.1070  -13.1237   22.2660 H   0  0  0  0  0  0
  -24.6832  -15.8536   20.5592 H   0  0  0  0  0  0
  -26.3195  -15.6230   20.1979 H   0  0  0  0  0  0
  -26.7035  -32.5631   23.1104 H   0  0  0  0  0  0
  -24.9899  -33.9811   25.0425 H   0  0  0  0  0  0
  -22.6867  -31.3158   21.4084 H   0  0  0  0  0  0
  -23.3752  -35.9667   23.3326 H   0  0  0  0  0  0
  -24.3567  -36.8920   22.2058 H   0  0  0  0  0  0
  -23.7255  -37.6538   23.6641 H   0  0  0  0  0  0
  -26.0205  -31.6329   20.5887 H   0  0  0  0  0  0
  -26.8026  -30.9052   21.9723 H   0  0  0  0  0  0
  -28.0830  -29.1321   21.1886 H   0  0  0  0  0  0
  -26.0735  -26.0118   18.9813 H   0  0  0  0  0  0
  -23.9840  -27.2978   19.0258 H   0  0  0  0  0  0
  -23.6997  -30.6292   19.4104 H   0  0  0  0  0  0
  -22.7348  -29.2581   19.8511 H   0  0  0  0  0  0
  -25.1295  -36.1982   25.0832 H   0  0  0  0  0  0
  -20.9916  -28.3444   24.1446 H   0  0  0  0  0  0
  -20.5367  -26.2441   23.3788 H   0  0  0  0  0  0
  -21.6590  -26.7429   22.1555 H   0  0  0  0  0  0
  -19.6980  -25.6175   21.1381 H   0  0  0  0  0  0
  -19.6937  -27.3010   20.6744 H   0  0  0  0  0  0
  -17.9744  -26.0091   22.8474 H   0  0  0  0  0  0
  -17.4280  -26.7014   21.3550 H   0  0  0  0  0  0
  -19.7656  -30.7327   24.2546 H   0  0  0  0  0  0
  -17.4859  -31.6202   24.5365 H   0  0  0  0  0  0
  -15.5205  -30.3052   23.7602 H   0  0  0  0  0  0
  -15.8674  -28.0918   22.6747 H   0  0  0  0  0  0
  -24.5858  -30.7095   25.7719 H   0  0  0  0  0  0
  -24.8958  -32.2877   26.4862 H   0  0  0  0  0  0
  -25.8055  -30.8830   27.0144 H   0  0  0  0  0  0
  -26.2864  -29.6765   24.1099 H   0  0  0  0  0  0
  -27.4176  -29.7319   25.4400 H   0  0  0  0  0  0
  -27.8607  -30.4424   23.9075 H   0  0  0  0  0  0
  -27.2650  -33.3559   26.2024 H   0  0  0  0  0  0
  -28.3771  -32.6878   25.0171 H   0  0  0  0  0  0
  -28.0721  -31.8370   26.5250 H   0  0  0  0  0  0
  -28.2612  -38.0096   24.7495 H   0  0  0  0  0  0
  -28.1055  -36.2628   24.6309 H   0  0  0  0  0  0
  -27.2282  -37.1479   25.8862 H   0  0  0  0  0  0
  -20.9097  -29.8320   21.6512 H   0  0  0  0  0  0
  -26.0185  -38.2887   24.1421 H   0  0  0  0  0  0
  -28.9075  -16.4455   23.3192 H   0  0  0  0  0  0
  -27.2622  -18.2402   23.1633 H   0  0  0  0  0  0
  -27.4870  -18.0944   18.8668 H   0  0  0  0  0  0
  -28.7638  -15.5807   18.0669 H   0  0  0  0  0  0
  -30.4149  -15.9502   18.6112 H   0  0  0  0  0  0
  -29.4434  -17.1871   17.9027 H   0  0  0  0  0  0
  -26.1976  -21.7451   20.1409 H   0  0  0  0  0  0
  -24.7129  -21.4180   20.9856 H   0  0  0  0  0  0
  -25.7205  -22.7768   22.9834 H   0  0  0  0  0  0
  -25.2260  -23.6272   21.5430 H   0  0  0  0  0  0
  -26.4398  -25.3627   21.5746 H   0  0  0  0  0  0
  -27.8895  -25.3554   22.5359 H   0  0  0  0  0  0
  -25.7936  -20.0584   22.6667 H   0  0  0  0  0  0
  -27.4010  -20.5598   22.1212 H   0  0  0  0  0  0
  -27.8261  -24.8389   19.4770 H   0  0  0  0  0  0
  -29.2496  -24.9043   20.4495 H   0  0  0  0  0  0
  -30.9777  -15.7416   22.0085 H   0  0  0  0  0  0
  -27.7812  -23.0503   21.0026 H   0  0  0  0  0  0
  -27.8727  -23.1815   22.6125 H   0  0  0  0  0  0
  1 25  1  0  0  0
  1 30  2  0  0  0
  1 83  1  0  0  0
  2  3  1  0  0  0
  2 25  1  0  0  0
  2 86  1  0  0  0
  2 87  1  0  0  0
  3  4  1  0  0  0
  3 88  1  0  0  0
  3 89  1  0  0  0
  4  5  1  0  0  0
  4 90  1  0  0  0
  4 91  1  0  0  0
  5  6  1  0  0  0
  5 26  1  0  0  0
  5 92  1  0  0  0
  6 25  1  0  0  0
  6 93  1  0  0  0
  6 94  1  0  0  0
  7  8  2  0  0  0
  7 26  1  0  0  0
  7 29  1  0  0  0
  8  9  1  0  0  0
  8 22  1  0  0  0
  9 10  1  0  0  0
  9 27  2  0  0  0
 10 11  2  0  0  0
 10 15  1  0  0  0
 11 12  1  0  0  0
 11 95  1  0  0  0
 12 13  2  0  0  0
 12 96  1  0  0  0
 13 14  1  0  0  0
 13 31  1  0  0  0
 14 15  2  0  0  0
 14 97  1  0  0  0
 15 98  1  0  0  0
 16 17  2  0  0  0
 16 21  1  0  0  0
 16 31  1  0  0  0
 17 18  1  0  0  0
 17 99  1  0  0  0
 18 19  2  0  0  0
 18100  1  0  0  0
 19 20  1  0  0  0
 19 24  1  0  0  0
 20 21  2  0  0  0
 20101  1  0  0  0
 21 23  1  0  0  0
 22 28  1  0  0  0
 22 32  2  0  0  0
 26 27  1  0  0  0
 28102  1  0  0  0
 28103  1  0  0  0
 29104  1  0  0  0
 29105  1  0  0  0
 33 34  1  0  0  0
 33 66  1  0  0  0
 33 70  2  0  0  0
 34 36  1  0  0  0
 34 59  1  0  0  0
 34106  1  0  0  0
 35 44  2  0  0  0
 35 45  1  0  0  0
 35 68  1  0  0  0
 36 56  1  0  0  0
 36107  1  0  0  0
 37 39  1  0  0  0
 37 47  1  0  0  0
 37 66  1  0  0  0
 37108  1  0  0  0
 38 43  2  0  0  0
 38 46  1  0  0  0
 38 47  1  0  0  0
 39 64  1  0  0  0
 39 67  2  0  0  0
 40 52  1  0  0  0
 40 53  2  0  0  0
 40 58  1  0  0  0
 41109  1  0  0  0
 41110  1  0  0  0
 41111  1  0  0  0
 41 48  1  0  0  0
 42 43  1  0  0  0
 42 66  1  0  0  0
 42112  1  0  0  0
 42113  1  0  0  0
 43 44  1  0  0  0
 44114  1  0  0  0
 45 46  2  0  0  0
 45115  1  0  0  0
 46116  1  0  0  0
 47117  1  0  0  0
 47118  1  0  0  0
 48 56  1  0  0  0
 48 65  1  0  0  0
 48119  1  0  0  0
 49 50  1  0  0  0
 49 53  1  0  0  0
 49 64  1  0  0  0
 49120  1  0  0  0
 50 51  1  0  0  0
 50121  1  0  0  0
 50122  1  0  0  0
 51 52  1  0  0  0
 51123  1  0  0  0
 51124  1  0  0  0
 52125  1  0  0  0
 52126  1  0  0  0
 53 54  1  0  0  0
 54 55  2  0  0  0
 54127  1  0  0  0
 55 57  1  0  0  0
 55128  1  0  0  0
 56 69  2  0  0  0
 57 58  2  0  0  0
 57129  1  0  0  0
 58130  1  0  0  0
 59 60  1  0  0  0
 59 61  1  0  0  0
 59 62  1  0  0  0
 60131  1  0  0  0
 60132  1  0  0  0
 60133  1  0  0  0
 61134  1  0  0  0
 61135  1  0  0  0
 61136  1  0  0  0
 62137  1  0  0  0
 62138  1  0  0  0
 62139  1  0  0  0
 63 65  1  0  0  0
 63140  1  0  0  0
 63141  1  0  0  0
 63142  1  0  0  0
 64143  1  0  0  0
 65144  1  0  0  0
 68 82  1  0  0  0
 71 72  2  0  0  0
 71 75  1  0  0  0
 71145  1  0  0  0
 72 76  1  0  0  0
 72146  1  0  0  0
 73 74  1  0  0  0
 73 76  2  0  0  0
 73147  1  0  0  0
 74 75  2  0  0  0
 74 77  1  0  0  0
 75 83  1  0  0  0
 76 85  1  0  0  0
 77148  1  0  0  0
 77149  1  0  0  0
 77150  1  0  0  0
 78 79  1  0  0  0
 78 81  1  0  0  0
 78151  1  0  0  0
 78152  1  0  0  0
 79 84  1  0  0  0
 79153  1  0  0  0
 79154  1  0  0  0
 80 82  1  0  0  0
 80 84  1  0  0  0
 80155  1  0  0  0
 80156  1  0  0  0
 81 85  1  0  0  0
 81157  1  0  0  0
 81158  1  0  0  0
 82159  1  0  0  0
 82160  1  0  0  0
 83161  1  0  0  0
 84162  1  0  0  0
 84163  1  0  0  0
M  CHG  1  84   1
M  ISO  4   1 100  68 101  82 101  83 100
M  END
> <chiral flag>
0

> <version>
0

> <s_m_source_file>
/data/baiqing/PycharmProjects/Reinvent-master-3.2/result/LINK_invent/BTK/process_docking_weight1_custom_sum_contain_oxygen_bond_distance_aromatic_linkinvent_7_9_3/rearranged_h_0137.sdf

> <i_m_source_file_index>
71

> <r_mmod_Potential_Energy-OPLS-2005>
-130.590225219727

> <r_mmod_Stretch_Energy-OPLS-2005>
34.2873878479004

> <r_mmod_Bend_Energy-OPLS-2005>
121.063949584961

> <r_mmod_Torsional_Energy-OPLS-2005>
287.005401611328

> <r_mmod_Improper_Torsional_Energy-OPLS-2005>
4.96033763885498

> <r_mmod_Van_der_Waal_Energy-OPLS-2005>
156.903625488281

> <r_mmod_Electrostatic_Energy-OPLS-2005>
-301.654266357422

> <r_mmod_Solvation_Energy-OPLS-2005>
-445.981079101562

> <b_mmod_Minimization_Converged-OPLS-2005>
0

> <r_mmod_RMS_Derivative-OPLS-2005>
7.75880146026611

$$$$
71
                    3D
 Structure written by MMmdl.
171181  0  0  1  0            999 V2000
  -30.6151  -14.8665   20.4371 C   0  0  0  0  0  0
  -30.4220  -12.5376   19.4909 C   0  0  0  0  0  0
  -29.5102  -12.5183   18.2459 C   0  0  0  0  0  0
  -28.0419  -12.3228   18.6644 C   0  0  0  0  0  0
  -27.6293  -13.2510   19.8389 C   0  0  2  0  0  0
  -28.6736  -13.2708   20.9747 C   0  0  0  0  0  0
  -25.2470  -13.8235   20.5734 C   0  0  0  0  0  0
  -24.1779  -13.0451   20.9221 C   0  0  0  0  0  0
  -24.6397  -11.6935   20.8753 C   0  0  0  0  0  0
  -23.9085  -10.4299   21.0403 C   0  0  0  0  0  0
  -24.3630   -9.4211   21.9182 C   0  0  0  0  0  0
  -23.6303   -8.2247   22.0751 C   0  0  0  0  0  0
  -22.4286   -8.0284   21.3542 C   0  0  0  0  0  0
  -21.9924   -9.0259   20.4644 C   0  0  0  0  0  0
  -22.7255  -10.2137   20.3053 C   0  0  0  0  0  0
  -21.6854   -6.0743   22.5282 C   0  0  0  0  0  0
  -21.4015   -6.5645   23.8216 C   0  0  0  0  0  0
  -21.3659   -5.6795   24.9176 C   0  0  0  0  0  0
  -21.6044   -4.3059   24.7224 C   0  0  0  0  0  0
  -21.8819   -3.8152   23.4344 C   0  0  0  0  0  0
  -21.9193   -4.6970   22.3402 C   0  0  0  0  0  0
  -22.7800  -13.5221   21.1875 C   0  0  0  0  0  0
  -22.1659   -4.2156   21.0978 F   0  0  0  0  0  0
  -21.5627   -3.4540   25.7735 F   0  0  0  0  0  0
  -29.9534  -13.6474   20.3673 N   0  0  0  0  0  0
  -26.2894  -12.9471   20.3274 N   0  0  0  0  0  0
  -25.9333  -11.6595   20.5751 N   0  0  0  0  0  0
  -22.0452  -12.8205   22.0428 N   0  0  0  0  0  0
  -25.4168  -15.1962   20.4197 N   0  0  0  0  0  0
  -31.8211  -14.8573   20.1656 O   0  0  0  0  0  0
  -21.6643   -6.8886   21.4244 O   0  0  0  0  0  0
  -22.3480  -14.5521   20.6714 O   0  0  0  0  0  0
  -24.6402  -31.8478   23.1932 C   0  0  0  0  0  0
  -25.9193  -32.4712   23.8302 C   0  0  1  0  0  0
  -27.2076  -27.1696   20.1417 C   0  0  0  0  0  0
  -25.5957  -33.8519   24.2220 N   0  0  0  0  0  0
  -23.4413  -30.4706   21.5384 C   0  0  2  0  0  0
  -24.8891  -28.9099   20.1068 C   0  0  0  0  0  0
  -22.7550  -29.4568   22.4877 C   0  0  0  0  0  0
  -18.0302  -28.1393   22.8481 C   0  0  0  0  0  0
  -24.1491  -36.7262   23.2642 C   0  0  0  0  0  0
  -25.9959  -30.7312   21.3891 C   0  0  0  0  0  0
  -26.0656  -29.3475   20.7284 C   0  0  0  0  0  0
  -27.2266  -28.4913   20.7350 C   0  0  0  0  0  0
  -26.0103  -26.8384   19.4655 C   0  0  0  0  0  0
  -24.8728  -27.6679   19.4603 C   0  0  0  0  0  0
  -23.6648  -29.8071   20.1548 C   0  0  0  0  0  0
  -25.4121  -36.3043   24.0320 C   0  0  1  0  0  0
  -20.5912  -28.3716   23.1244 C   0  0  2  0  0  0
  -20.6788  -26.9424   22.5404 C   0  0  0  0  0  0
  -19.5761  -26.6382   21.5214 C   0  0  0  0  0  0
  -18.1942  -26.7933   22.1625 C   0  0  0  0  0  0
  -19.1558  -28.8873   23.2856 C   0  0  0  0  0  0
  -18.9473  -30.1470   23.8878 C   0  0  0  0  0  0
  -17.6471  -30.6592   24.0559 C   0  0  0  0  0  0
  -25.9070  -34.9415   23.5074 C   0  0  0  0  0  0
  -16.5362  -29.9084   23.6337 C   0  0  0  0  0  0
  -16.7286  -28.6502   23.0357 C   0  0  0  0  0  0
  -26.4528  -31.6562   25.0725 C   0  0  0  0  0  0
  -25.3719  -31.3738   26.1423 C   0  0  0  0  0  0
  -27.0389  -30.2961   24.6282 C   0  0  0  0  0  0
  -27.6064  -32.4319   25.7506 C   0  0  0  0  0  0
  -27.5577  -37.1788   24.8465 C   0  0  0  0  0  0
  -21.4248  -29.3048   22.3620 N   0  0  0  0  0  0
  -26.4287  -37.3752   23.9408 N   0  0  0  0  0  0
  -24.7121  -31.0365   22.0954 N   0  0  0  0  0  0
  -23.4211  -28.8109   23.3010 O   0  0  0  0  0  0
  -28.2444  -26.1790   20.2357 O   0  0  0  0  0  0
  -26.5648  -34.8905   22.4649 O   0  0  0  0  0  0
  -23.5529  -32.1347   23.7169 O   0  0  0  0  0  0
  -28.5658  -21.9492   20.0652 C   0  0  0  0  0  0
  -28.7316  -23.3644   20.4655 C   0  0  0  0  0  0
  -29.4375  -21.0341   20.6906 C   0  0  0  0  0  0
  -29.7323  -23.2571   21.3987 C   0  0  0  0  0  0
  -30.1909  -24.4364   23.7128 C   0  0  0  0  0  0
  -29.4732  -25.4422   22.8533 C   0  0  0  0  0  0
  -29.0201  -18.3920   21.5796 C   0  0  0  0  0  0
  -29.6516  -18.5978   19.3072 C   0  0  0  0  0  0
  -29.6299  -16.8979   21.6656 C   0  0  0  0  0  0
  -30.3047  -17.1267   19.3516 C   0  0  0  0  0  0
  -29.7410  -19.4207   20.6295 C   0  0  0  0  0  0
  -30.3329  -24.3772   22.2053 C   0  0  0  0  0  0
  -32.6272  -21.3199   21.5465 C   0  0  0  0  0  0
  -31.0596  -20.4595   23.4115 C   0  0  0  0  0  0
  -27.8914  -24.6951   20.0022 C   0  0  0  0  0  0
  -31.3453  -21.5496   22.3654 C   0  0  0  0  0  0
  -30.1886  -21.9122   21.5145 N   0  0  0  0  0  0
  -29.9245  -16.1145   20.4132 N   0  0  0  0  0  0
  -31.4623  -12.6544   19.1837 H   0  0  0  0  0  0
  -30.3760  -11.5841   20.0192 H   0  0  0  0  0  0
  -29.8155  -11.7243   17.5630 H   0  0  0  0  0  0
  -29.6157  -13.4549   17.6963 H   0  0  0  0  0  0
  -27.9244  -11.2800   18.9601 H   0  0  0  0  0  0
  -27.3797  -12.4725   17.8106 H   0  0  0  0  0  0
  -27.5972  -14.2574   19.4200 H   0  0  0  0  0  0
  -28.7429  -12.3000   21.4677 H   0  0  0  0  0  0
  -28.3892  -13.9922   21.7417 H   0  0  0  0  0  0
  -25.2769   -9.5691   22.4766 H   0  0  0  0  0  0
  -24.0013   -7.4640   22.7471 H   0  0  0  0  0  0
  -21.0855   -8.8779   19.8951 H   0  0  0  0  0  0
  -22.3710  -10.9677   19.6166 H   0  0  0  0  0  0
  -21.2006   -7.6153   23.9723 H   0  0  0  0  0  0
  -21.1481   -6.0523   25.9079 H   0  0  0  0  0  0
  -22.0598   -2.7614   23.2842 H   0  0  0  0  0  0
  -22.4072  -11.9868   22.4817 H   0  0  0  0  0  0
  -21.1064  -13.1216   22.2622 H   0  0  0  0  0  0
  -24.6557  -15.8546   20.5437 H   0  0  0  0  0  0
  -26.2810  -15.6383   20.1319 H   0  0  0  0  0  0
  -26.7260  -32.5329   23.1034 H   0  0  0  0  0  0
  -25.0087  -33.9642   25.0355 H   0  0  0  0  0  0
  -22.7425  -31.2962   21.3889 H   0  0  0  0  0  0
  -23.3758  -35.9588   23.3291 H   0  0  0  0  0  0
  -24.3579  -36.8903   22.2059 H   0  0  0  0  0  0
  -23.7240  -37.6454   23.6682 H   0  0  0  0  0  0
  -26.1485  -31.4880   20.6185 H   0  0  0  0  0  0
  -26.8684  -30.7785   22.0289 H   0  0  0  0  0  0
  -28.1186  -28.8146   21.2531 H   0  0  0  0  0  0
  -25.9070  -25.8962   18.9496 H   0  0  0  0  0  0
  -23.9775  -27.3314   18.9558 H   0  0  0  0  0  0
  -23.7969  -30.5846   19.4014 H   0  0  0  0  0  0
  -22.7807  -29.2471   19.8447 H   0  0  0  0  0  0
  -25.1307  -36.1876   25.0813 H   0  0  0  0  0  0
  -21.0006  -28.3300   24.1363 H   0  0  0  0  0  0
  -20.5684  -26.2329   23.3619 H   0  0  0  0  0  0
  -21.6651  -26.7435   22.1194 H   0  0  0  0  0  0
  -19.6919  -25.6288   21.1254 H   0  0  0  0  0  0
  -19.6696  -27.3184   20.6737 H   0  0  0  0  0  0
  -17.4211  -26.6682   21.4029 H   0  0  0  0  0  0
  -18.0340  -26.0078   22.9024 H   0  0  0  0  0  0
  -19.7948  -30.7293   24.2238 H   0  0  0  0  0  0
  -17.5022  -31.6270   24.5163 H   0  0  0  0  0  0
  -15.5361  -30.2979   23.7672 H   0  0  0  0  0  0
  -15.8686  -28.0815   22.7084 H   0  0  0  0  0  0
  -24.5910  -30.7076   25.7743 H   0  0  0  0  0  0
  -24.8897  -32.2912   26.4806 H   0  0  0  0  0  0
  -25.8010  -30.8940   27.0229 H   0  0  0  0  0  0
  -26.3001  -29.6688   24.1282 H   0  0  0  0  0  0
  -27.4006  -29.7252   25.4846 H   0  0  0  0  0  0
  -27.8908  -30.4206   23.9594 H   0  0  0  0  0  0
  -27.2667  -33.3640   26.2034 H   0  0  0  0  0  0
  -28.3903  -32.6843   25.0352 H   0  0  0  0  0  0
  -28.0700  -31.8472   26.5464 H   0  0  0  0  0  0
  -28.2584  -38.0094   24.7512 H   0  0  0  0  0  0
  -28.1083  -36.2623   24.6291 H   0  0  0  0  0  0
  -27.2291  -37.1429   25.8867 H   0  0  0  0  0  0
  -20.9453  -29.8772   21.6812 H   0  0  0  0  0  0
  -26.0156  -38.2819   24.1412 H   0  0  0  0  0  0
  -27.8326  -21.6214   19.3409 H   0  0  0  0  0  0
  -29.5914  -23.6660   24.1941 H   0  0  0  0  0  0
  -31.0504  -24.7830   24.2834 H   0  0  0  0  0  0
  -29.8507  -26.4628   22.8436 H   0  0  0  0  0  0
  -28.3913  -25.3461   22.7899 H   0  0  0  0  0  0
  -28.9909  -18.7985   22.5892 H   0  0  0  0  0  0
  -27.9707  -18.3264   21.2884 H   0  0  0  0  0  0
  -28.6105  -18.5280   18.9881 H   0  0  0  0  0  0
  -30.1545  -19.1623   18.5214 H   0  0  0  0  0  0
  -28.9642  -16.2934   22.2828 H   0  0  0  0  0  0
  -30.5650  -16.9557   22.2254 H   0  0  0  0  0  0
  -31.3849  -17.2686   19.4103 H   0  0  0  0  0  0
  -30.1332  -16.6553   18.3826 H   0  0  0  0  0  0
  -30.7909  -19.3244   20.8774 H   0  0  0  0  0  0
  -31.2817  -24.6992   21.7799 H   0  0  0  0  0  0
  -33.4806  -21.1607   22.2059 H   0  0  0  0  0  0
  -32.8511  -22.1943   20.9351 H   0  0  0  0  0  0
  -32.5721  -20.4647   20.8777 H   0  0  0  0  0  0
  -31.7750  -20.5273   24.2314 H   0  0  0  0  0  0
  -31.1531  -19.4515   23.0164 H   0  0  0  0  0  0
  -30.0658  -20.5781   23.8444 H   0  0  0  0  0  0
  -26.9123  -24.5324   20.4539 H   0  0  0  0  0  0
  -27.7463  -24.5788   18.9279 H   0  0  0  0  0  0
  -31.5900  -22.4082   22.9818 H   0  0  0  0  0  0
  1 25  1  0  0  0
  1 30  2  0  0  0
  1 88  1  0  0  0
  2  3  1  0  0  0
  2 25  1  0  0  0
  2 89  1  0  0  0
  2 90  1  0  0  0
  3  4  1  0  0  0
  3 91  1  0  0  0
  3 92  1  0  0  0
  4  5  1  0  0  0
  4 93  1  0  0  0
  4 94  1  0  0  0
  5  6  1  0  0  0
  5 26  1  0  0  0
  5 95  1  0  0  0
  6 25  1  0  0  0
  6 96  1  0  0  0
  6 97  1  0  0  0
  7  8  2  0  0  0
  7 26  1  0  0  0
  7 29  1  0  0  0
  8  9  1  0  0  0
  8 22  1  0  0  0
  9 10  1  0  0  0
  9 27  2  0  0  0
 10 11  2  0  0  0
 10 15  1  0  0  0
 11 12  1  0  0  0
 11 98  1  0  0  0
 12 13  2  0  0  0
 12 99  1  0  0  0
 13 14  1  0  0  0
 13 31  1  0  0  0
 14 15  2  0  0  0
 14100  1  0  0  0
 15101  1  0  0  0
 16 17  2  0  0  0
 16 21  1  0  0  0
 16 31  1  0  0  0
 17 18  1  0  0  0
 17102  1  0  0  0
 18 19  2  0  0  0
 18103  1  0  0  0
 19 20  1  0  0  0
 19 24  1  0  0  0
 20 21  2  0  0  0
 20104  1  0  0  0
 21 23  1  0  0  0
 22 28  1  0  0  0
 22 32  2  0  0  0
 26 27  1  0  0  0
 28105  1  0  0  0
 28106  1  0  0  0
 29107  1  0  0  0
 29108  1  0  0  0
 33 34  1  0  0  0
 33 66  1  0  0  0
 33 70  2  0  0  0
 34 36  1  0  0  0
 34 59  1  0  0  0
 34109  1  0  0  0
 35 44  2  0  0  0
 35 45  1  0  0  0
 35 68  1  0  0  0
 36 56  1  0  0  0
 36110  1  0  0  0
 37 39  1  0  0  0
 37 47  1  0  0  0
 37 66  1  0  0  0
 37111  1  0  0  0
 38 43  2  0  0  0
 38 46  1  0  0  0
 38 47  1  0  0  0
 39 64  1  0  0  0
 39 67  2  0  0  0
 40 52  1  0  0  0
 40 53  2  0  0  0
 40 58  1  0  0  0
 41112  1  0  0  0
 41113  1  0  0  0
 41114  1  0  0  0
 41 48  1  0  0  0
 42 43  1  0  0  0
 42 66  1  0  0  0
 42115  1  0  0  0
 42116  1  0  0  0
 43 44  1  0  0  0
 44117  1  0  0  0
 45 46  2  0  0  0
 45118  1  0  0  0
 46119  1  0  0  0
 47120  1  0  0  0
 47121  1  0  0  0
 48 56  1  0  0  0
 48 65  1  0  0  0
 48122  1  0  0  0
 49 50  1  0  0  0
 49 53  1  0  0  0
 49 64  1  0  0  0
 49123  1  0  0  0
 50 51  1  0  0  0
 50124  1  0  0  0
 50125  1  0  0  0
 51 52  1  0  0  0
 51126  1  0  0  0
 51127  1  0  0  0
 52128  1  0  0  0
 52129  1  0  0  0
 53 54  1  0  0  0
 54 55  2  0  0  0
 54130  1  0  0  0
 55 57  1  0  0  0
 55131  1  0  0  0
 56 69  2  0  0  0
 57 58  2  0  0  0
 57132  1  0  0  0
 58133  1  0  0  0
 59 60  1  0  0  0
 59 61  1  0  0  0
 59 62  1  0  0  0
 60134  1  0  0  0
 60135  1  0  0  0
 60136  1  0  0  0
 61137  1  0  0  0
 61138  1  0  0  0
 61139  1  0  0  0
 62140  1  0  0  0
 62141  1  0  0  0
 62142  1  0  0  0
 63 65  1  0  0  0
 63143  1  0  0  0
 63144  1  0  0  0
 63145  1  0  0  0
 64146  1  0  0  0
 65147  1  0  0  0
 68 85  1  0  0  0
 71 72  1  0  0  0
 71 73  2  0  0  0
 71148  1  0  0  0
 72 74  2  0  0  0
 72 85  1  0  0  0
 73 87  1  0  0  0
 73 81  1  0  0  0
 74 87  1  0  0  0
 74 82  1  0  0  0
 75 76  1  0  0  0
 75 82  1  0  0  0
 75149  1  0  0  0
 75150  1  0  0  0
 76 82  1  0  0  0
 76151  1  0  0  0
 76152  1  0  0  0
 77 79  1  0  0  0
 77 81  1  0  0  0
 77153  1  0  0  0
 77154  1  0  0  0
 78 80  1  0  0  0
 78 81  1  0  0  0
 78155  1  0  0  0
 78156  1  0  0  0
 79 88  1  0  0  0
 79157  1  0  0  0
 79158  1  0  0  0
 80 88  1  0  0  0
 80159  1  0  0  0
 80160  1  0  0  0
 81161  1  0  0  0
 82162  1  0  0  0
 83163  1  0  0  0
 83164  1  0  0  0
 83165  1  0  0  0
 83 86  1  0  0  0
 84 86  1  0  0  0
 84166  1  0  0  0
 84167  1  0  0  0
 84168  1  0  0  0
 85169  1  0  0  0
 85170  1  0  0  0
 86 87  1  0  0  0
 86171  1  0  0  0
M  ISO  4   1 100  68 101  85 101  88 100
M  END
> <chiral flag>
0

> <version>
0

> <s_m_source_file>
/data/baiqing/PycharmProjects/Reinvent-master-3.2/result/LINK_invent/BTK/process_docking_weight1_custom_sum_contain_oxygen_bond_distance_aromatic_linkinvent_7_9_3/rearranged_h_0137.sdf

> <i_m_source_file_index>
72

> <r_mmod_Potential_Energy-OPLS-2005>
638.700378417969

> <r_mmod_Stretch_Energy-OPLS-2005>
198.181060791016

> <r_mmod_Bend_Energy-OPLS-2005>
256.394592285156

> <r_mmod_Torsional_Energy-OPLS-2005>
388.843658447266

> <r_mmod_Improper_Torsional_Energy-OPLS-2005>
15.0442199707031

> <r_mmod_Van_der_Waal_Energy-OPLS-2005>
122.031814575195

> <r_mmod_Electrostatic_Energy-OPLS-2005>
-306.951263427734

> <r_mmod_Solvation_Energy-OPLS-2005>
-190.426513671875

> <b_mmod_Minimization_Converged-OPLS-2005>
0

> <r_mmod_RMS_Derivative-OPLS-2005>
0.610651612281799

$$$$
72
                    3D
 Structure written by MMmdl.
165174  0  0  1  0            999 V2000
  -30.7390  -14.4057   20.6195 C   0  0  0  0  0  0
  -30.4141  -12.2841   19.4136 C   0  0  0  0  0  0
  -29.4873  -12.5046   18.2018 C   0  0  0  0  0  0
  -28.0131  -12.3595   18.6194 C   0  0  0  0  0  0
  -27.6644  -13.1985   19.8779 C   0  0  2  0  0  0
  -28.7012  -12.9665   21.0013 C   0  0  0  0  0  0
  -25.2625  -13.8138   20.5674 C   0  0  0  0  0  0
  -24.1856  -13.0442   20.9175 C   0  0  0  0  0  0
  -24.6378  -11.6901   20.8718 C   0  0  0  0  0  0
  -23.9025  -10.4299   21.0385 C   0  0  0  0  0  0
  -24.3581   -9.4232   21.9173 C   0  0  0  0  0  0
  -23.6279   -8.2254   22.0750 C   0  0  0  0  0  0
  -22.4266   -8.0278   21.3529 C   0  0  0  0  0  0
  -21.9882   -9.0250   20.4634 C   0  0  0  0  0  0
  -22.7192  -10.2141   20.3046 C   0  0  0  0  0  0
  -21.6872   -6.0722   22.5265 C   0  0  0  0  0  0
  -21.4024   -6.5627   23.8193 C   0  0  0  0  0  0
  -21.3666   -5.6787   24.9159 C   0  0  0  0  0  0
  -21.6054   -4.3047   24.7220 C   0  0  0  0  0  0
  -21.8820   -3.8140   23.4341 C   0  0  0  0  0  0
  -21.9207   -4.6950   22.3395 C   0  0  0  0  0  0
  -22.7889  -13.5273   21.1841 C   0  0  0  0  0  0
  -22.1672   -4.2142   21.0969 F   0  0  0  0  0  0
  -21.5631   -3.4525   25.7724 F   0  0  0  0  0  0
  -30.0419  -13.2513   20.4560 N   0  0  0  0  0  0
  -26.3043  -12.9294   20.3369 N   0  0  0  0  0  0
  -25.9304  -11.6460   20.5757 N   0  0  0  0  0  0
  -22.0524  -12.8259   22.0392 N   0  0  0  0  0  0
  -25.4442  -15.1842   20.4063 N   0  0  0  0  0  0
  -31.8179  -14.6317   20.0688 O   0  0  0  0  0  0
  -21.6659   -6.8858   21.4221 O   0  0  0  0  0  0
  -22.3583  -14.5591   20.6703 O   0  0  0  0  0  0
  -24.6113  -31.8698   23.2141 C   0  0  0  0  0  0
  -25.9011  -32.4843   23.8427 C   0  0  1  0  0  0
  -27.2543  -27.4643   20.0935 C   0  0  0  0  0  0
  -25.5872  -33.8641   24.2355 N   0  0  0  0  0  0
  -23.4009  -30.4918   21.5523 C   0  0  2  0  0  0
  -24.8538  -28.9608   20.1209 C   0  0  0  0  0  0
  -22.7400  -29.4653   22.5004 C   0  0  0  0  0  0
  -18.0263  -28.1379   22.8496 C   0  0  0  0  0  0
  -24.1478  -36.7328   23.2639 C   0  0  0  0  0  0
  -25.9262  -30.8433   21.3657 C   0  0  0  0  0  0
  -26.0093  -29.4758   20.7230 C   0  0  0  0  0  0
  -27.2116  -28.7337   20.7196 C   0  0  0  0  0  0
  -26.0806  -26.9608   19.4963 C   0  0  0  0  0  0
  -24.8808  -27.6970   19.5083 C   0  0  0  0  0  0
  -23.6122  -29.8227   20.1674 C   0  0  0  0  0  0
  -25.4097  -36.3128   24.0346 C   0  0  1  0  0  0
  -20.5853  -28.3653   23.1325 C   0  0  2  0  0  0
  -20.6750  -26.9391   22.5418 C   0  0  0  0  0  0
  -19.5728  -26.6387   21.5213 C   0  0  0  0  0  0
  -18.1908  -26.7923   22.1631 C   0  0  0  0  0  0
  -19.1514  -28.8832   23.2914 C   0  0  0  0  0  0
  -18.9446  -30.1443   23.8918 C   0  0  0  0  0  0
  -17.6450  -30.6586   24.0565 C   0  0  0  0  0  0
  -25.9018  -34.9489   23.5152 C   0  0  0  0  0  0
  -16.5339  -29.9089   23.6331 C   0  0  0  0  0  0
  -16.7255  -28.6509   23.0346 C   0  0  0  0  0  0
  -26.4454  -31.6606   25.0736 C   0  0  0  0  0  0
  -25.3739  -31.3700   26.1499 C   0  0  0  0  0  0
  -27.0277  -30.3055   24.6080 C   0  0  0  0  0  0
  -27.6040  -32.4318   25.7486 C   0  0  0  0  0  0
  -27.5579  -37.1814   24.8466 C   0  0  0  0  0  0
  -21.4124  -29.3033   22.3739 N   0  0  0  0  0  0
  -26.4291  -37.3803   23.9414 N   0  0  0  0  0  0
  -24.6640  -31.0813   22.1035 N   0  0  0  0  0  0
  -23.4178  -28.8195   23.3034 O   0  0  0  0  0  0
  -28.3707  -26.6644   19.9896 O   0  0  0  0  0  0
  -26.5584  -34.8929   22.4712 O   0  0  0  0  0  0
  -23.5311  -32.1430   23.7540 O   0  0  0  0  0  0
  -32.5753  -22.6690   18.3182 C   0  0  0  0  0  0
  -32.0577  -23.7172   19.1082 C   0  0  0  0  0  0
  -30.2680  -22.2542   19.9261 C   0  0  0  0  0  0
  -31.9206  -21.4267   18.3437 C   0  0  0  0  0  0
  -30.8129  -21.2065   19.1557 C   0  0  0  0  0  0
  -30.8828  -23.5320   19.8873 C   0  0  0  0  0  0
  -32.2358  -20.2265   17.4955 C   0  0  0  0  0  0
  -31.0008  -19.3207   17.7031 C   0  0  0  0  0  0
  -30.2867  -19.7902   19.0068 C   0  0  1  0  0  0
  -30.5576  -16.7566   21.4240 C   0  0  0  0  0  0
  -30.6282  -25.9654   20.2811 C   0  0  0  0  0  0
  -30.1549  -17.5599   20.1621 C   0  0  0  0  0  0
  -29.5442  -26.9632   20.7338 C   0  0  0  0  0  0
  -30.2945  -24.5795   20.6156 N   0  0  0  0  0  0
  -30.1244  -15.3566   21.3368 N   0  0  0  0  0  0
  -30.6393  -18.9628   20.1884 N   0  3  0  0  0  0
  -31.4584  -12.3707   19.1119 H   0  0  0  0  0  0
  -30.3011  -11.2673   19.7939 H   0  0  0  0  0  0
  -29.7200  -11.7843   17.4158 H   0  0  0  0  0  0
  -29.6602  -13.4923   17.7731 H   0  0  0  0  0  0
  -27.8336  -11.3027   18.8232 H   0  0  0  0  0  0
  -27.3556  -12.6235   17.7905 H   0  0  0  0  0  0
  -27.7160  -14.2482   19.5870 H   0  0  0  0  0  0
  -28.6651  -11.9327   21.3494 H   0  0  0  0  0  0
  -28.4539  -13.5704   21.8756 H   0  0  0  0  0  0
  -25.2712   -9.5744   22.4750 H   0  0  0  0  0  0
  -24.0013   -7.4658   22.7460 H   0  0  0  0  0  0
  -21.0834   -8.8752   19.8920 H   0  0  0  0  0  0
  -22.3631  -10.9686   19.6169 H   0  0  0  0  0  0
  -21.2008   -7.6132   23.9692 H   0  0  0  0  0  0
  -21.1493   -6.0512   25.9064 H   0  0  0  0  0  0
  -22.0594   -2.7603   23.2837 H   0  0  0  0  0  0
  -22.4145  -11.9906   22.4744 H   0  0  0  0  0  0
  -21.1152  -13.1292   22.2607 H   0  0  0  0  0  0
  -24.6861  -15.8518   20.5003 H   0  0  0  0  0  0
  -26.3046  -15.6073   20.0827 H   0  0  0  0  0  0
  -26.7090  -32.5581   23.1208 H   0  0  0  0  0  0
  -25.0012  -33.9807   25.0493 H   0  0  0  0  0  0
  -22.6892  -31.3081   21.4123 H   0  0  0  0  0  0
  -23.3732  -35.9670   23.3317 H   0  0  0  0  0  0
  -24.3576  -36.8922   22.2052 H   0  0  0  0  0  0
  -23.7237  -37.6543   23.6637 H   0  0  0  0  0  0
  -26.0286  -31.6040   20.5901 H   0  0  0  0  0  0
  -26.8180  -30.9069   21.9777 H   0  0  0  0  0  0
  -28.0926  -29.1502   21.1853 H   0  0  0  0  0  0
  -26.1000  -25.9922   19.0165 H   0  0  0  0  0  0
  -23.9942  -27.2912   19.0401 H   0  0  0  0  0  0
  -23.7168  -30.5963   19.4052 H   0  0  0  0  0  0
  -22.7391  -29.2365   19.8750 H   0  0  0  0  0  0
  -25.1269  -36.2001   25.0838 H   0  0  0  0  0  0
  -20.9955  -28.3215   24.1442 H   0  0  0  0  0  0
  -20.5643  -26.2265   23.3605 H   0  0  0  0  0  0
  -21.6622  -26.7428   22.1217 H   0  0  0  0  0  0
  -19.6884  -25.6302   21.1230 H   0  0  0  0  0  0
  -19.6669  -27.3211   20.6755 H   0  0  0  0  0  0
  -17.4178  -26.6677   21.4033 H   0  0  0  0  0  0
  -18.0309  -26.0060   22.9023 H   0  0  0  0  0  0
  -19.7919  -30.7252   24.2301 H   0  0  0  0  0  0
  -17.5002  -31.6267   24.5160 H   0  0  0  0  0  0
  -15.5341  -30.2999   23.7636 H   0  0  0  0  0  0
  -15.8655  -28.0838   22.7044 H   0  0  0  0  0  0
  -24.5912  -30.7039   25.7853 H   0  0  0  0  0  0
  -24.8928  -32.2850   26.4964 H   0  0  0  0  0  0
  -25.8110  -30.8872   27.0247 H   0  0  0  0  0  0
  -26.2810  -29.6830   24.1136 H   0  0  0  0  0  0
  -27.4061  -29.7271   25.4518 H   0  0  0  0  0  0
  -27.8637  -30.4388   23.9211 H   0  0  0  0  0  0
  -27.2666  -33.3604   26.2098 H   0  0  0  0  0  0
  -28.3822  -32.6897   25.0292 H   0  0  0  0  0  0
  -28.0734  -31.8421   26.5368 H   0  0  0  0  0  0
  -28.2607  -38.0101   24.7506 H   0  0  0  0  0  0
  -28.1061  -36.2634   24.6292 H   0  0  0  0  0  0
  -27.2302  -37.1471   25.8871 H   0  0  0  0  0  0
  -20.9279  -29.8774   21.6980 H   0  0  0  0  0  0
  -26.0185  -38.2885   24.1410 H   0  0  0  0  0  0
  -33.4396  -22.8315   17.6881 H   0  0  0  0  0  0
  -32.5678  -24.6695   19.0798 H   0  0  0  0  0  0
  -29.3756  -22.0857   20.5124 H   0  0  0  0  0  0
  -33.1484  -19.7481   17.8542 H   0  0  0  0  0  0
  -32.3759  -20.4978   16.4470 H   0  0  0  0  0  0
  -31.2342  -18.2619   17.6310 H   0  0  0  0  0  0
  -30.3140  -19.5243   16.8788 H   0  0  0  0  0  0
  -29.2034  -19.8048   18.8791 H   0  0  0  0  0  0
  -30.1078  -17.2000   22.3135 H   0  0  0  0  0  0
  -31.6377  -16.7957   21.5735 H   0  0  0  0  0  0
  -31.5790  -26.2216   20.7508 H   0  0  0  0  0  0
  -30.7685  -26.0708   19.2041 H   0  0  0  0  0  0
  -29.0697  -17.5586   20.0592 H   0  0  0  0  0  0
  -30.5505  -17.0516   19.2833 H   0  0  0  0  0  0
  -29.8899  -27.9757   20.5235 H   0  0  0  0  0  0
  -29.3562  -26.8849   21.8052 H   0  0  0  0  0  0
  -29.3379  -24.4315   20.9270 H   0  0  0  0  0  0
  -29.2528  -15.1027   21.7794 H   0  0  0  0  0  0
  -30.2416  -19.4130   20.9965 H   0  0  0  0  0  0
  -31.6398  -18.9745   20.3033 H   0  0  0  0  0  0
  1 25  1  0  0  0
  1 30  2  0  0  0
  1 85  1  0  0  0
  2  3  1  0  0  0
  2 25  1  0  0  0
  2 87  1  0  0  0
  2 88  1  0  0  0
  3  4  1  0  0  0
  3 89  1  0  0  0
  3 90  1  0  0  0
  4  5  1  0  0  0
  4 91  1  0  0  0
  4 92  1  0  0  0
  5  6  1  0  0  0
  5 26  1  0  0  0
  5 93  1  0  0  0
  6 25  1  0  0  0
  6 94  1  0  0  0
  6 95  1  0  0  0
  7  8  2  0  0  0
  7 26  1  0  0  0
  7 29  1  0  0  0
  8  9  1  0  0  0
  8 22  1  0  0  0
  9 10  1  0  0  0
  9 27  2  0  0  0
 10 11  2  0  0  0
 10 15  1  0  0  0
 11 12  1  0  0  0
 11 96  1  0  0  0
 12 13  2  0  0  0
 12 97  1  0  0  0
 13 14  1  0  0  0
 13 31  1  0  0  0
 14 15  2  0  0  0
 14 98  1  0  0  0
 15 99  1  0  0  0
 16 17  2  0  0  0
 16 21  1  0  0  0
 16 31  1  0  0  0
 17 18  1  0  0  0
 17100  1  0  0  0
 18 19  2  0  0  0
 18101  1  0  0  0
 19 20  1  0  0  0
 19 24  1  0  0  0
 20 21  2  0  0  0
 20102  1  0  0  0
 21 23  1  0  0  0
 22 28  1  0  0  0
 22 32  2  0  0  0
 26 27  1  0  0  0
 28103  1  0  0  0
 28104  1  0  0  0
 29105  1  0  0  0
 29106  1  0  0  0
 33 34  1  0  0  0
 33 66  1  0  0  0
 33 70  2  0  0  0
 34 36  1  0  0  0
 34 59  1  0  0  0
 34107  1  0  0  0
 35 44  2  0  0  0
 35 45  1  0  0  0
 35 68  1  0  0  0
 36 56  1  0  0  0
 36108  1  0  0  0
 37 39  1  0  0  0
 37 47  1  0  0  0
 37 66  1  0  0  0
 37109  1  0  0  0
 38 43  2  0  0  0
 38 46  1  0  0  0
 38 47  1  0  0  0
 39 64  1  0  0  0
 39 67  2  0  0  0
 40 52  1  0  0  0
 40 53  2  0  0  0
 40 58  1  0  0  0
 41110  1  0  0  0
 41111  1  0  0  0
 41112  1  0  0  0
 41 48  1  0  0  0
 42 43  1  0  0  0
 42 66  1  0  0  0
 42113  1  0  0  0
 42114  1  0  0  0
 43 44  1  0  0  0
 44115  1  0  0  0
 45 46  2  0  0  0
 45116  1  0  0  0
 46117  1  0  0  0
 47118  1  0  0  0
 47119  1  0  0  0
 48 56  1  0  0  0
 48 65  1  0  0  0
 48120  1  0  0  0
 49 50  1  0  0  0
 49 53  1  0  0  0
 49 64  1  0  0  0
 49121  1  0  0  0
 50 51  1  0  0  0
 50122  1  0  0  0
 50123  1  0  0  0
 51 52  1  0  0  0
 51124  1  0  0  0
 51125  1  0  0  0
 52126  1  0  0  0
 52127  1  0  0  0
 53 54  1  0  0  0
 54 55  2  0  0  0
 54128  1  0  0  0
 55 57  1  0  0  0
 55129  1  0  0  0
 56 69  2  0  0  0
 57 58  2  0  0  0
 57130  1  0  0  0
 58131  1  0  0  0
 59 60  1  0  0  0
 59 61  1  0  0  0
 59 62  1  0  0  0
 60132  1  0  0  0
 60133  1  0  0  0
 60134  1  0  0  0
 61135  1  0  0  0
 61136  1  0  0  0
 61137  1  0  0  0
 62138  1  0  0  0
 62139  1  0  0  0
 62140  1  0  0  0
 63 65  1  0  0  0
 63141  1  0  0  0
 63142  1  0  0  0
 63143  1  0  0  0
 64144  1  0  0  0
 65145  1  0  0  0
 68 83  1  0  0  0
 71 72  2  0  0  0
 71 74  1  0  0  0
 71146  1  0  0  0
 72 76  1  0  0  0
 72147  1  0  0  0
 73 75  1  0  0  0
 73 76  2  0  0  0
 73148  1  0  0  0
 74 75  2  0  0  0
 74 77  1  0  0  0
 75 79  1  0  0  0
 76 84  1  0  0  0
 77 78  1  0  0  0
 77149  1  0  0  0
 77150  1  0  0  0
 78 79  1  0  0  0
 78151  1  0  0  0
 78152  1  0  0  0
 79 86  1  0  0  0
 79153  1  0  0  0
 80 82  1  0  0  0
 80 85  1  0  0  0
 80154  1  0  0  0
 80155  1  0  0  0
 81 83  1  0  0  0
 81 84  1  0  0  0
 81156  1  0  0  0
 81157  1  0  0  0
 82 86  1  0  0  0
 82158  1  0  0  0
 82159  1  0  0  0
 83160  1  0  0  0
 83161  1  0  0  0
 84162  1  0  0  0
 85163  1  0  0  0
 86164  1  0  0  0
 86165  1  0  0  0
M  CHG  1  86   1
M  ISO  4   1 100  68 101  83 101  85 100
M  END
> <chiral flag>
0

> <version>
0

> <s_m_source_file>
/data/baiqing/PycharmProjects/Reinvent-master-3.2/result/LINK_invent/BTK/process_docking_weight1_custom_sum_contain_oxygen_bond_distance_aromatic_linkinvent_7_9_3/rearranged_h_0137.sdf

> <i_m_source_file_index>
73

> <r_mmod_Potential_Energy-OPLS-2005>
-329.952484130859

> <r_mmod_Stretch_Energy-OPLS-2005>
35.2745208740234

> <r_mmod_Bend_Energy-OPLS-2005>
146.552947998047

> <r_mmod_Torsional_Energy-OPLS-2005>
201.271575927734

> <r_mmod_Improper_Torsional_Energy-OPLS-2005>
5.79166173934937

> <r_mmod_Van_der_Waal_Energy-OPLS-2005>
152.179977416992

> <r_mmod_Electrostatic_Energy-OPLS-2005>
-398.556121826172

> <r_mmod_Solvation_Energy-OPLS-2005>
-480.214294433594

> <b_mmod_Minimization_Converged-OPLS-2005>
0

> <r_mmod_RMS_Derivative-OPLS-2005>
2.29466462135315

$$$$
73
                    3D
 Structure written by MMmdl.
163172  0  0  1  0            999 V2000
  -30.4481  -15.3324   20.3761 C   0  0  0  0  0  0
  -30.4339  -12.8550   19.5465 C   0  0  0  0  0  0
  -29.5411  -12.5950   18.3050 C   0  0  0  0  0  0
  -28.0930  -12.3065   18.7304 C   0  0  0  0  0  0
  -27.6098  -13.2873   19.8266 C   0  0  2  0  0  0
  -28.6387  -13.5042   20.9602 C   0  0  0  0  0  0
  -25.2378  -13.8264   20.5771 C   0  0  0  0  0  0
  -24.1735  -13.0439   20.9265 C   0  0  0  0  0  0
  -24.6389  -11.6945   20.8744 C   0  0  0  0  0  0
  -23.9089  -10.4293   21.0383 C   0  0  0  0  0  0
  -24.3635   -9.4208   21.9166 C   0  0  0  0  0  0
  -23.6308   -8.2250   22.0743 C   0  0  0  0  0  0
  -22.4294   -8.0291   21.3540 C   0  0  0  0  0  0
  -21.9931   -9.0247   20.4633 C   0  0  0  0  0  0
  -22.7258  -10.2120   20.3028 C   0  0  0  0  0  0
  -21.6870   -6.0734   22.5272 C   0  0  0  0  0  0
  -21.4011   -6.5634   23.8202 C   0  0  0  0  0  0
  -21.3661   -5.6789   24.9173 C   0  0  0  0  0  0
  -21.6046   -4.3051   24.7218 C   0  0  0  0  0  0
  -21.8830   -3.8143   23.4342 C   0  0  0  0  0  0
  -21.9191   -4.6960   22.3400 C   0  0  0  0  0  0
  -22.7743  -13.5181   21.1913 C   0  0  0  0  0  0
  -22.1674   -4.2144   21.0979 F   0  0  0  0  0  0
  -21.5627   -3.4539   25.7732 F   0  0  0  0  0  0
  -29.8692  -14.0212   20.3348 N   0  0  0  0  0  0
  -26.2820  -12.9560   20.3247 N   0  0  0  0  0  0
  -25.9344  -11.6654   20.5717 N   0  0  0  0  0  0
  -22.0431  -12.8122   22.0449 N   0  0  0  0  0  0
  -25.4015  -15.2007   20.4219 N   0  0  0  0  0  0
  -31.6637  -15.2862   20.1384 O   0  0  0  0  0  0
  -21.6659   -6.8880   21.4237 O   0  0  0  0  0  0
  -22.3407  -14.5500   20.6788 O   0  0  0  0  0  0
  -24.6669  -31.8162   23.1642 C   0  0  0  0  0  0
  -25.9336  -32.4532   23.8127 C   0  0  1  0  0  0
  -27.2304  -26.8832   20.1988 C   0  0  0  0  0  0
  -25.6009  -33.8353   24.2037 N   0  0  0  0  0  0
  -23.4838  -30.4244   21.5109 C   0  0  2  0  0  0
  -24.9433  -28.8023   20.1052 C   0  0  0  0  0  0
  -22.7665  -29.4409   22.4742 C   0  0  0  0  0  0
  -18.0309  -28.1434   22.8477 C   0  0  0  0  0  0
  -24.1497  -36.7084   23.2640 C   0  0  0  0  0  0
  -26.0551  -30.6062   21.4041 C   0  0  0  0  0  0
  -26.1224  -29.1923   20.7515 C   0  0  0  0  0  0
  -27.2539  -28.2530   20.7760 C   0  0  0  0  0  0
  -26.0322  -26.6645   19.4783 C   0  0  0  0  0  0
  -24.9267  -27.5614   19.4459 C   0  0  0  0  0  0
  -23.7275  -29.7323   20.1388 C   0  0  0  0  0  0
  -25.4157  -36.2895   24.0298 C   0  0  1  0  0  0
  -20.5940  -28.3755   23.1180 C   0  0  2  0  0  0
  -20.6772  -26.9426   22.5436 C   0  0  0  0  0  0
  -19.5751  -26.6388   21.5234 C   0  0  0  0  0  0
  -18.1916  -26.7979   22.1611 C   0  0  0  0  0  0
  -19.1579  -28.8911   23.2822 C   0  0  0  0  0  0
  -18.9523  -30.1518   23.8852 C   0  0  0  0  0  0
  -17.6517  -30.6620   24.0573 C   0  0  0  0  0  0
  -25.9127  -34.9297   23.4983 C   0  0  0  0  0  0
  -16.5402  -29.9133   23.6353 C   0  0  0  0  0  0
  -16.7296  -28.6548   23.0376 C   0  0  0  0  0  0
  -26.4608  -31.6476   25.0667 C   0  0  0  0  0  0
  -25.3751  -31.3744   26.1331 C   0  0  0  0  0  0
  -27.0480  -30.2822   24.6424 C   0  0  0  0  0  0
  -27.6098  -32.4277   25.7490 C   0  0  0  0  0  0
  -27.5560  -37.1728   24.8498 C   0  0  0  0  0  0
  -21.4331  -29.3035   22.3513 N   0  0  0  0  0  0
  -26.4265  -37.3675   23.9436 N   0  0  0  0  0  0
  -24.7563  -30.9791   22.0788 N   0  0  0  0  0  0
  -23.4208  -28.8006   23.3008 O   0  0  0  0  0  0
  -28.2132  -25.7492   20.3589 O   0  0  0  0  0  0
  -26.5732  -34.8859   22.4583 O   0  0  0  0  0  0
  -23.5720  -32.1167   23.6683 O   0  0  0  0  0  0
  -28.4417  -22.4386   21.9512 C   0  0  0  0  0  0
  -29.3259  -19.8553   20.7044 C   0  0  0  0  0  0
  -29.2582  -20.0382   22.1144 C   0  0  0  0  0  0
  -28.6876  -21.2398   22.6901 C   0  0  0  0  0  0
  -28.6259  -22.5857   20.5642 C   0  0  0  0  0  0
  -29.0447  -21.2047   19.9809 C   0  0  0  0  0  0
  -31.4409  -18.5099   20.7744 C   0  0  0  0  0  0
  -31.3916  -18.6323   22.3163 C   0  0  0  0  0  0
  -30.0327  -18.3012   20.2063 C   0  0  1  0  0  0
  -29.9787  -18.9178   22.9191 C   0  0  1  0  0  0
  -28.2197  -21.3258   24.1382 C   0  0  0  0  0  0
  -29.2639  -21.1624   18.4848 C   0  0  0  0  0  0
  -28.1434  -24.1508   19.8760 C   0  0  0  0  0  0
  -29.7277  -16.6512   20.4812 N   0  0  0  0  0  0
  -30.1270  -19.1231   24.3665 N   0  3  0  0  0  0
  -31.4543  -13.0490   19.2142 H   0  0  0  0  0  0
  -30.5014  -11.9611   20.1693 H   0  0  0  0  0  0
  -29.9363  -11.7616   17.7222 H   0  0  0  0  0  0
  -29.5633  -13.4704   17.6514 H   0  0  0  0  0  0
  -28.0571  -11.2859   19.1127 H   0  0  0  0  0  0
  -27.4275  -12.3369   17.8667 H   0  0  0  0  0  0
  -27.5143  -14.2446   19.3136 H   0  0  0  0  0  0
  -28.8145  -12.5893   21.5267 H   0  0  0  0  0  0
  -28.2610  -14.2386   21.6739 H   0  0  0  0  0  0
  -25.2774   -9.5706   22.4749 H   0  0  0  0  0  0
  -24.0033   -7.4634   22.7462 H   0  0  0  0  0  0
  -21.0870   -8.8747   19.8919 H   0  0  0  0  0  0
  -22.3711  -10.9656   19.6134 H   0  0  0  0  0  0
  -21.2007   -7.6144   23.9709 H   0  0  0  0  0  0
  -21.1474   -6.0519   25.9076 H   0  0  0  0  0  0
  -22.0606   -2.7605   23.2841 H   0  0  0  0  0  0
  -22.4104  -11.9781   22.4786 H   0  0  0  0  0  0
  -21.1027  -13.1071   22.2685 H   0  0  0  0  0  0
  -24.6302  -15.8510   20.5271 H   0  0  0  0  0  0
  -26.2449  -15.6371   20.0726 H   0  0  0  0  0  0
  -26.7393  -32.5059   23.0823 H   0  0  0  0  0  0
  -25.0200  -33.9433   25.0220 H   0  0  0  0  0  0
  -22.7976  -31.2559   21.3349 H   0  0  0  0  0  0
  -23.3786  -35.9374   23.3288 H   0  0  0  0  0  0
  -24.3564  -36.8698   22.2044 H   0  0  0  0  0  0
  -23.7191  -37.6263   23.6680 H   0  0  0  0  0  0
  -26.2448  -31.3403   20.6209 H   0  0  0  0  0  0
  -26.9106  -30.6612   22.0624 H   0  0  0  0  0  0
  -28.1389  -28.5494   21.3215 H   0  0  0  0  0  0
  -25.9023  -25.7201   18.9726 H   0  0  0  0  0  0
  -24.0379  -27.2586   18.9093 H   0  0  0  0  0  0
  -23.8743  -30.4945   19.3734 H   0  0  0  0  0  0
  -22.8416  -29.1790   19.8240 H   0  0  0  0  0  0
  -25.1359  -36.1674   25.0786 H   0  0  0  0  0  0
  -21.0052  -28.3362   24.1287 H   0  0  0  0  0  0
  -20.5580  -26.2402   23.3692 H   0  0  0  0  0  0
  -21.6647  -26.7339   22.1302 H   0  0  0  0  0  0
  -19.6902  -25.6287   21.1266 H   0  0  0  0  0  0
  -19.6707  -27.3217   20.6772 H   0  0  0  0  0  0
  -17.4220  -26.6758   21.3982 H   0  0  0  0  0  0
  -18.0254  -26.0139   22.9011 H   0  0  0  0  0  0
  -19.8022  -30.7343   24.2180 H   0  0  0  0  0  0
  -17.5095  -31.6294   24.5206 H   0  0  0  0  0  0
  -15.5413  -30.3043   23.7726 H   0  0  0  0  0  0
  -15.8681  -28.0872   22.7123 H   0  0  0  0  0  0
  -24.6159  -30.6768   25.7793 H   0  0  0  0  0  0
  -24.8680  -32.2906   26.4384 H   0  0  0  0  0  0
  -25.8098  -30.9351   27.0311 H   0  0  0  0  0  0
  -26.3110  -29.6485   24.1500 H   0  0  0  0  0  0
  -27.4048  -29.7240   25.5080 H   0  0  0  0  0  0
  -27.9049  -30.3944   23.9776 H   0  0  0  0  0  0
  -27.2719  -33.3730   26.1760 H   0  0  0  0  0  0
  -28.4134  -32.6559   25.0475 H   0  0  0  0  0  0
  -28.0477  -31.8539   26.5668 H   0  0  0  0  0  0
  -28.2614  -38.0000   24.7575 H   0  0  0  0  0  0
  -28.1018  -36.2544   24.6321 H   0  0  0  0  0  0
  -27.2258  -37.1345   25.8890 H   0  0  0  0  0  0
  -20.9570  -29.8633   21.6586 H   0  0  0  0  0  0
  -26.0058  -38.2699   24.1500 H   0  0  0  0  0  0
  -28.0623  -23.3015   22.4801 H   0  0  0  0  0  0
  -32.1416  -17.7343   20.4714 H   0  0  0  0  0  0
  -31.8524  -19.4326   20.3579 H   0  0  0  0  0  0
  -32.0711  -19.4403   22.5936 H   0  0  0  0  0  0
  -31.8109  -17.7308   22.7661 H   0  0  0  0  0  0
  -30.0970  -18.3651   19.1197 H   0  0  0  0  0  0
  -29.3697  -18.0178   22.8118 H   0  0  0  0  0  0
  -27.3050  -21.9205   24.1922 H   0  0  0  0  0  0
  -28.9592  -21.8093   24.7805 H   0  0  0  0  0  0
  -27.9336  -20.3588   24.5468 H   0  0  0  0  0  0
  -30.3309  -21.1069   18.2693 H   0  0  0  0  0  0
  -28.8587  -22.0451   17.9936 H   0  0  0  0  0  0
  -28.7778  -20.2877   18.0519 H   0  0  0  0  0  0
  -27.0974  -23.9733   19.6377 H   0  0  0  0  0  0
  -28.6392  -24.1768   18.9068 H   0  0  0  0  0  0
  -28.7479  -16.4881   20.6612 H   0  0  0  0  0  0
  -30.6921  -19.9295   24.5612 H   0  0  0  0  0  0
  -30.5666  -18.3205   24.7839 H   0  0  0  0  0  0
  -29.2269  -19.2352   24.7952 H   0  0  0  0  0  0
  1 25  1  0  0  0
  1 30  2  0  0  0
  1 84  1  0  0  0
  2  3  1  0  0  0
  2 25  1  0  0  0
  2 86  1  0  0  0
  2 87  1  0  0  0
  3  4  1  0  0  0
  3 88  1  0  0  0
  3 89  1  0  0  0
  4  5  1  0  0  0
  4 90  1  0  0  0
  4 91  1  0  0  0
  5  6  1  0  0  0
  5 26  1  0  0  0
  5 92  1  0  0  0
  6 25  1  0  0  0
  6 93  1  0  0  0
  6 94  1  0  0  0
  7  8  2  0  0  0
  7 26  1  0  0  0
  7 29  1  0  0  0
  8  9  1  0  0  0
  8 22  1  0  0  0
  9 10  1  0  0  0
  9 27  2  0  0  0
 10 11  2  0  0  0
 10 15  1  0  0  0
 11 12  1  0  0  0
 11 95  1  0  0  0
 12 13  2  0  0  0
 12 96  1  0  0  0
 13 14  1  0  0  0
 13 31  1  0  0  0
 14 15  2  0  0  0
 14 97  1  0  0  0
 15 98  1  0  0  0
 16 17  2  0  0  0
 16 21  1  0  0  0
 16 31  1  0  0  0
 17 18  1  0  0  0
 17 99  1  0  0  0
 18 19  2  0  0  0
 18100  1  0  0  0
 19 20  1  0  0  0
 19 24  1  0  0  0
 20 21  2  0  0  0
 20101  1  0  0  0
 21 23  1  0  0  0
 22 28  1  0  0  0
 22 32  2  0  0  0
 26 27  1  0  0  0
 28102  1  0  0  0
 28103  1  0  0  0
 29104  1  0  0  0
 29105  1  0  0  0
 33 34  1  0  0  0
 33 66  1  0  0  0
 33 70  2  0  0  0
 34 36  1  0  0  0
 34 59  1  0  0  0
 34106  1  0  0  0
 35 44  2  0  0  0
 35 45  1  0  0  0
 35 68  1  0  0  0
 36 56  1  0  0  0
 36107  1  0  0  0
 37 39  1  0  0  0
 37 47  1  0  0  0
 37 66  1  0  0  0
 37108  1  0  0  0
 38 43  2  0  0  0
 38 46  1  0  0  0
 38 47  1  0  0  0
 39 64  1  0  0  0
 39 67  2  0  0  0
 40 52  1  0  0  0
 40 53  2  0  0  0
 40 58  1  0  0  0
 41109  1  0  0  0
 41110  1  0  0  0
 41111  1  0  0  0
 41 48  1  0  0  0
 42 43  1  0  0  0
 42 66  1  0  0  0
 42112  1  0  0  0
 42113  1  0  0  0
 43 44  1  0  0  0
 44114  1  0  0  0
 45 46  2  0  0  0
 45115  1  0  0  0
 46116  1  0  0  0
 47117  1  0  0  0
 47118  1  0  0  0
 48 56  1  0  0  0
 48 65  1  0  0  0
 48119  1  0  0  0
 49 50  1  0  0  0
 49 53  1  0  0  0
 49 64  1  0  0  0
 49120  1  0  0  0
 50 51  1  0  0  0
 50121  1  0  0  0
 50122  1  0  0  0
 51 52  1  0  0  0
 51123  1  0  0  0
 51124  1  0  0  0
 52125  1  0  0  0
 52126  1  0  0  0
 53 54  1  0  0  0
 54 55  2  0  0  0
 54127  1  0  0  0
 55 57  1  0  0  0
 55128  1  0  0  0
 56 69  2  0  0  0
 57 58  2  0  0  0
 57129  1  0  0  0
 58130  1  0  0  0
 59 60  1  0  0  0
 59 61  1  0  0  0
 59 62  1  0  0  0
 60131  1  0  0  0
 60132  1  0  0  0
 60133  1  0  0  0
 61134  1  0  0  0
 61135  1  0  0  0
 61136  1  0  0  0
 62137  1  0  0  0
 62138  1  0  0  0
 62139  1  0  0  0
 63 65  1  0  0  0
 63140  1  0  0  0
 63141  1  0  0  0
 63142  1  0  0  0
 64143  1  0  0  0
 65144  1  0  0  0
 68 83  1  0  0  0
 71 74  2  0  0  0
 71 75  1  0  0  0
 71145  1  0  0  0
 72 73  2  0  0  0
 72 76  1  0  0  0
 72 79  1  0  0  0
 73 74  1  0  0  0
 73 80  1  0  0  0
 74 81  1  0  0  0
 75 76  2  0  0  0
 75 83  1  0  0  0
 76 82  1  0  0  0
 77 78  1  0  0  0
 77 79  1  0  0  0
 77146  1  0  0  0
 77147  1  0  0  0
 78 80  1  0  0  0
 78148  1  0  0  0
 78149  1  0  0  0
 79 84  1  0  0  0
 79150  1  0  0  0
 80 85  1  0  0  0
 80151  1  0  0  0
 81152  1  0  0  0
 81153  1  0  0  0
 81154  1  0  0  0
 82155  1  0  0  0
 82156  1  0  0  0
 82157  1  0  0  0
 83158  1  0  0  0
 83159  1  0  0  0
 84160  1  0  0  0
 85161  1  0  0  0
 85162  1  0  0  0
 85163  1  0  0  0
M  CHG  1  85   1
M  ISO  4   1 100  68 101  83 101  84 100
M  END
> <chiral flag>
0

> <version>
0

> <s_m_source_file>
/data/baiqing/PycharmProjects/Reinvent-master-3.2/result/LINK_invent/BTK/process_docking_weight1_custom_sum_contain_oxygen_bond_distance_aromatic_linkinvent_7_9_3/rearranged_h_0137.sdf

> <i_m_source_file_index>
74

> <r_mmod_Potential_Energy-OPLS-2005>
1213.32604980469

> <r_mmod_Stretch_Energy-OPLS-2005>
668.824523925781

> <r_mmod_Bend_Energy-OPLS-2005>
482.674499511719

> <r_mmod_Torsional_Energy-OPLS-2005>
253.481384277344

> <r_mmod_Improper_Torsional_Energy-OPLS-2005>
8.62874126434326

> <r_mmod_Van_der_Waal_Energy-OPLS-2005>
141.565170288086

> <r_mmod_Electrostatic_Energy-OPLS-2005>
-375.596496582031

> <r_mmod_Solvation_Energy-OPLS-2005>
-498.580200195312

> <b_mmod_Minimization_Converged-OPLS-2005>
0

> <r_mmod_RMS_Derivative-OPLS-2005>
3.95610952377319

$$$$
74
                    3D
 Structure written by MMmdl.
151159  0  0  1  0            999 V2000
  -30.5581  -14.9673   20.4207 C   0  0  0  0  0  0
  -30.4383  -12.6030   19.5007 C   0  0  0  0  0  0
  -29.5220  -12.5285   18.2564 C   0  0  0  0  0  0
  -28.0544  -12.3174   18.6723 C   0  0  0  0  0  0
  -27.6282  -13.2519   19.8345 C   0  0  2  0  0  0
  -28.6727  -13.3009   20.9713 C   0  0  0  0  0  0
  -25.2468  -13.8215   20.5721 C   0  0  0  0  0  0
  -24.1785  -13.0433   20.9216 C   0  0  0  0  0  0
  -24.6402  -11.6922   20.8738 C   0  0  0  0  0  0
  -23.9084  -10.4293   21.0396 C   0  0  0  0  0  0
  -24.3634   -9.4212   21.9174 C   0  0  0  0  0  0
  -23.6309   -8.2248   22.0748 C   0  0  0  0  0  0
  -22.4290   -8.0285   21.3545 C   0  0  0  0  0  0
  -21.9931   -9.0250   20.4641 C   0  0  0  0  0  0
  -22.7258  -10.2128   20.3047 C   0  0  0  0  0  0
  -21.6861   -6.0751   22.5281 C   0  0  0  0  0  0
  -21.4009   -6.5650   23.8213 C   0  0  0  0  0  0
  -21.3658   -5.6801   24.9172 C   0  0  0  0  0  0
  -21.6042   -4.3064   24.7222 C   0  0  0  0  0  0
  -21.8827   -3.8157   23.4343 C   0  0  0  0  0  0
  -21.9198   -4.6977   22.3399 C   0  0  0  0  0  0
  -22.7809  -13.5201   21.1873 C   0  0  0  0  0  0
  -22.1672   -4.2164   21.0979 F   0  0  0  0  0  0
  -21.5627   -3.4541   25.7729 F   0  0  0  0  0  0
  -29.9461  -13.7131   20.3678 N   0  0  0  0  0  0
  -26.2892  -12.9449   20.3241 N   0  0  0  0  0  0
  -25.9341  -11.6574   20.5735 N   0  0  0  0  0  0
  -22.0477  -12.8176   22.0425 N   0  0  0  0  0  0
  -25.4118  -15.1948   20.4164 N   0  0  0  0  0  0
  -31.7639  -15.0103   20.1584 O   0  0  0  0  0  0
  -21.6653   -6.8889   21.4243 O   0  0  0  0  0  0
  -22.3485  -14.5507   20.6728 O   0  0  0  0  0  0
  -24.6490  -31.8407   23.1839 C   0  0  0  0  0  0
  -25.9258  -32.4666   23.8249 C   0  0  1  0  0  0
  -27.2244  -27.1067   20.1582 C   0  0  0  0  0  0
  -25.5997  -33.8472   24.2171 N   0  0  0  0  0  0
  -23.4532  -30.4588   21.5292 C   0  0  2  0  0  0
  -24.9039  -28.8787   20.1100 C   0  0  0  0  0  0
  -22.7588  -29.4540   22.4835 C   0  0  0  0  0  0
  -18.0313  -28.1400   22.8492 C   0  0  0  0  0  0
  -24.1481  -36.7211   23.2637 C   0  0  0  0  0  0
  -26.0125  -30.7029   21.3874 C   0  0  0  0  0  0
  -26.0830  -29.3123   20.7296 C   0  0  0  0  0  0
  -27.2438  -28.4442   20.7338 C   0  0  0  0  0  0
  -26.0158  -26.7818   19.4999 C   0  0  0  0  0  0
  -24.8851  -27.6266   19.4797 C   0  0  0  0  0  0
  -23.6815  -29.7844   20.1509 C   0  0  0  0  0  0
  -25.4117  -36.3008   24.0317 C   0  0  1  0  0  0
  -20.5925  -28.3728   23.1217 C   0  0  2  0  0  0
  -20.6785  -26.9421   22.5407 C   0  0  0  0  0  0
  -19.5761  -26.6386   21.5212 C   0  0  0  0  0  0
  -18.1940  -26.7942   22.1625 C   0  0  0  0  0  0
  -19.1574  -28.8881   23.2844 C   0  0  0  0  0  0
  -18.9490  -30.1476   23.8872 C   0  0  0  0  0  0
  -17.6485  -30.6598   24.0560 C   0  0  0  0  0  0
  -25.9077  -34.9390   23.5048 C   0  0  0  0  0  0
  -16.5375  -29.9091   23.6347 C   0  0  0  0  0  0
  -16.7292  -28.6507   23.0374 C   0  0  0  0  0  0
  -26.4547  -31.6543   25.0710 C   0  0  0  0  0  0
  -25.3725  -31.3762   26.1410 C   0  0  0  0  0  0
  -27.0398  -30.2927   24.6311 C   0  0  0  0  0  0
  -27.6092  -32.4289   25.7493 C   0  0  0  0  0  0
  -27.5551  -37.1759   24.8476 C   0  0  0  0  0  0
  -21.4277  -29.3045   22.3583 N   0  0  0  0  0  0
  -26.4263  -37.3742   23.9432 N   0  0  0  0  0  0
  -24.7251  -31.0236   22.0893 N   0  0  0  0  0  0
  -23.4227  -28.8085   23.2987 O   0  0  0  0  0  0
  -28.2664  -26.1001   20.2391 O   0  0  0  0  0  0
  -26.5658  -34.8910   22.4618 O   0  0  0  0  0  0
  -23.5605  -32.1286   23.7044 O   0  0  0  0  0  0
  -28.5961  -21.8205   20.2936 C   0  0  0  0  0  0
  -30.3042  -23.4661   20.6165 C   0  0  0  0  0  0
  -28.9398  -23.2694   20.3496 C   0  0  0  0  0  0
  -29.5410  -20.6828   20.4895 C   0  0  0  0  0  0
  -30.8451  -21.1598   20.7504 C   0  0  0  0  0  0
  -29.1756  -19.0503   20.4752 C   0  0  0  0  0  0
  -27.9362  -24.5706   20.1127 C   0  0  0  0  0  0
  -30.2273  -17.7103   20.5082 C   0  0  0  0  0  0
  -31.2016  -22.4618   20.8085 N   0  0  0  0  0  0
  -31.9016  -20.3025   21.0001 N   0  0  0  0  0  0
  -29.8097  -16.1759   20.5581 N   0  0  0  0  0  0
  -31.4727  -12.7570   19.1885 H   0  0  0  0  0  0
  -30.4314  -11.6581   20.0456 H   0  0  0  0  0  0
  -29.8446  -11.7220   17.5962 H   0  0  0  0  0  0
  -29.6095  -13.4525   17.6819 H   0  0  0  0  0  0
  -27.9471  -11.2752   18.9764 H   0  0  0  0  0  0
  -27.3952  -12.4547   17.8145 H   0  0  0  0  0  0
  -27.5852  -14.2499   19.3952 H   0  0  0  0  0  0
  -28.7663  -12.3341   21.4680 H   0  0  0  0  0  0
  -28.3698  -14.0174   21.7375 H   0  0  0  0  0  0
  -25.2782   -9.5699   22.4748 H   0  0  0  0  0  0
  -24.0034   -7.4642   22.7463 H   0  0  0  0  0  0
  -21.0871   -8.8758   19.8941 H   0  0  0  0  0  0
  -22.3712  -10.9664   19.6155 H   0  0  0  0  0  0
  -21.1997   -7.6157   23.9719 H   0  0  0  0  0  0
  -21.1470   -6.0527   25.9074 H   0  0  0  0  0  0
  -22.0606   -2.7621   23.2830 H   0  0  0  0  0  0
  -22.4139  -11.9841   22.4791 H   0  0  0  0  0  0
  -21.1077  -13.1154   22.2629 H   0  0  0  0  0  0
  -24.6365  -15.8401   20.5220 H   0  0  0  0  0  0
  -26.2536  -15.6419   20.0781 H   0  0  0  0  0  0
  -26.7314  -32.5256   23.0970 H   0  0  0  0  0  0
  -25.0199  -33.9558   25.0360 H   0  0  0  0  0  0
  -22.7585  -31.2859   21.3686 H   0  0  0  0  0  0
  -23.3764  -35.9521   23.3319 H   0  0  0  0  0  0
  -24.3576  -36.8818   22.2048 H   0  0  0  0  0  0
  -23.7205  -37.6394   23.6679 H   0  0  0  0  0  0
  -26.1712  -31.4530   20.6118 H   0  0  0  0  0  0
  -26.8843  -30.7561   22.0289 H   0  0  0  0  0  0
  -28.1384  -28.7715   21.2422 H   0  0  0  0  0  0
  -25.9049  -25.8249   19.0142 H   0  0  0  0  0  0
  -23.9848  -27.2848   18.9855 H   0  0  0  0  0  0
  -23.8219  -30.5576   19.3951 H   0  0  0  0  0  0
  -22.7959  -29.2281   19.8372 H   0  0  0  0  0  0
  -25.1294  -36.1820   25.0804 H   0  0  0  0  0  0
  -21.0011  -28.3322   24.1338 H   0  0  0  0  0  0
  -20.5661  -26.2334   23.3628 H   0  0  0  0  0  0
  -21.6642  -26.7415   22.1193 H   0  0  0  0  0  0
  -19.6923  -25.6294   21.1238 H   0  0  0  0  0  0
  -19.6694  -27.3197   20.6748 H   0  0  0  0  0  0
  -17.4197  -26.6690   21.4038 H   0  0  0  0  0  0
  -18.0346  -26.0089   22.9026 H   0  0  0  0  0  0
  -19.7965  -30.7299   24.2215 H   0  0  0  0  0  0
  -17.5047  -31.6280   24.5166 H   0  0  0  0  0  0
  -15.5377  -30.2988   23.7693 H   0  0  0  0  0  0
  -15.8689  -28.0820   22.7107 H   0  0  0  0  0  0
  -24.5920  -30.7086   25.7746 H   0  0  0  0  0  0
  -24.8895  -32.2948   26.4757 H   0  0  0  0  0  0
  -25.8004  -30.8994   27.0239 H   0  0  0  0  0  0
  -26.3006  -29.6656   24.1312 H   0  0  0  0  0  0
  -27.3986  -29.7231   25.4891 H   0  0  0  0  0  0
  -27.8946  -30.4134   23.9652 H   0  0  0  0  0  0
  -27.2752  -33.3695   26.1887 H   0  0  0  0  0  0
  -28.4022  -32.6647   25.0387 H   0  0  0  0  0  0
  -28.0626  -31.8498   26.5546 H   0  0  0  0  0  0
  -28.2567  -38.0048   24.7524 H   0  0  0  0  0  0
  -28.1038  -36.2586   24.6313 H   0  0  0  0  0  0
  -27.2276  -37.1390   25.8874 H   0  0  0  0  0  0
  -20.9501  -29.8753   21.6749 H   0  0  0  0  0  0
  -26.0119  -38.2803   24.1470 H   0  0  0  0  0  0
  -27.5648  -21.5706   20.0942 H   0  0  0  0  0  0
  -30.7073  -24.4655   20.6839 H   0  0  0  0  0  0
  -28.5357  -18.9117   19.6045 H   0  0  0  0  0  0
  -28.5083  -18.9230   21.3276 H   0  0  0  0  0  0
  -27.0786  -24.3932   20.7624 H   0  0  0  0  0  0
  -27.5659  -24.4195   19.1004 H   0  0  0  0  0  0
  -30.8664  -17.8311   21.3826 H   0  0  0  0  0  0
  -30.8957  -17.8075   19.6514 H   0  0  0  0  0  0
  -31.8342  -19.3330   20.7257 H   0  0  0  0  0  0
  -32.8434  -20.6737   21.0055 H   0  0  0  0  0  0
  -28.8239  -16.0225   20.7099 H   0  0  0  0  0  0
  1 25  1  0  0  0
  1 30  2  0  0  0
  1 81  1  0  0  0
  2  3  1  0  0  0
  2 25  1  0  0  0
  2 82  1  0  0  0
  2 83  1  0  0  0
  3  4  1  0  0  0
  3 84  1  0  0  0
  3 85  1  0  0  0
  4  5  1  0  0  0
  4 86  1  0  0  0
  4 87  1  0  0  0
  5  6  1  0  0  0
  5 26  1  0  0  0
  5 88  1  0  0  0
  6 25  1  0  0  0
  6 89  1  0  0  0
  6 90  1  0  0  0
  7  8  2  0  0  0
  7 26  1  0  0  0
  7 29  1  0  0  0
  8  9  1  0  0  0
  8 22  1  0  0  0
  9 10  1  0  0  0
  9 27  2  0  0  0
 10 11  2  0  0  0
 10 15  1  0  0  0
 11 12  1  0  0  0
 11 91  1  0  0  0
 12 13  2  0  0  0
 12 92  1  0  0  0
 13 14  1  0  0  0
 13 31  1  0  0  0
 14 15  2  0  0  0
 14 93  1  0  0  0
 15 94  1  0  0  0
 16 17  2  0  0  0
 16 21  1  0  0  0
 16 31  1  0  0  0
 17 18  1  0  0  0
 17 95  1  0  0  0
 18 19  2  0  0  0
 18 96  1  0  0  0
 19 20  1  0  0  0
 19 24  1  0  0  0
 20 21  2  0  0  0
 20 97  1  0  0  0
 21 23  1  0  0  0
 22 28  1  0  0  0
 22 32  2  0  0  0
 26 27  1  0  0  0
 28 98  1  0  0  0
 28 99  1  0  0  0
 29100  1  0  0  0
 29101  1  0  0  0
 33 34  1  0  0  0
 33 66  1  0  0  0
 33 70  2  0  0  0
 34 36  1  0  0  0
 34 59  1  0  0  0
 34102  1  0  0  0
 35 44  2  0  0  0
 35 45  1  0  0  0
 35 68  1  0  0  0
 36 56  1  0  0  0
 36103  1  0  0  0
 37 39  1  0  0  0
 37 47  1  0  0  0
 37 66  1  0  0  0
 37104  1  0  0  0
 38 43  2  0  0  0
 38 46  1  0  0  0
 38 47  1  0  0  0
 39 64  1  0  0  0
 39 67  2  0  0  0
 40 52  1  0  0  0
 40 53  2  0  0  0
 40 58  1  0  0  0
 41105  1  0  0  0
 41106  1  0  0  0
 41107  1  0  0  0
 41 48  1  0  0  0
 42 43  1  0  0  0
 42 66  1  0  0  0
 42108  1  0  0  0
 42109  1  0  0  0
 43 44  1  0  0  0
 44110  1  0  0  0
 45 46  2  0  0  0
 45111  1  0  0  0
 46112  1  0  0  0
 47113  1  0  0  0
 47114  1  0  0  0
 48 56  1  0  0  0
 48 65  1  0  0  0
 48115  1  0  0  0
 49 50  1  0  0  0
 49 53  1  0  0  0
 49 64  1  0  0  0
 49116  1  0  0  0
 50 51  1  0  0  0
 50117  1  0  0  0
 50118  1  0  0  0
 51 52  1  0  0  0
 51119  1  0  0  0
 51120  1  0  0  0
 52121  1  0  0  0
 52122  1  0  0  0
 53 54  1  0  0  0
 54 55  2  0  0  0
 54123  1  0  0  0
 55 57  1  0  0  0
 55124  1  0  0  0
 56 69  2  0  0  0
 57 58  2  0  0  0
 57125  1  0  0  0
 58126  1  0  0  0
 59 60  1  0  0  0
 59 61  1  0  0  0
 59 62  1  0  0  0
 60127  1  0  0  0
 60128  1  0  0  0
 60129  1  0  0  0
 61130  1  0  0  0
 61131  1  0  0  0
 61132  1  0  0  0
 62133  1  0  0  0
 62134  1  0  0  0
 62135  1  0  0  0
 63 65  1  0  0  0
 63136  1  0  0  0
 63137  1  0  0  0
 63138  1  0  0  0
 64139  1  0  0  0
 65140  1  0  0  0
 68 77  1  0  0  0
 71 73  2  0  0  0
 71 74  1  0  0  0
 71141  1  0  0  0
 72 73  1  0  0  0
 72 79  2  0  0  0
 72142  1  0  0  0
 73 77  1  0  0  0
 74 75  2  0  0  0
 74 76  1  0  0  0
 75 79  1  0  0  0
 75 80  1  0  0  0
 76 78  1  0  0  0
 76143  1  0  0  0
 76144  1  0  0  0
 77145  1  0  0  0
 77146  1  0  0  0
 78 81  1  0  0  0
 78147  1  0  0  0
 78148  1  0  0  0
 80149  1  0  0  0
 80150  1  0  0  0
 81151  1  0  0  0
M  ISO  4   1 100  68 101  77 101  81 100
M  END
> <chiral flag>
0

> <version>
0

> <s_m_source_file>
/data/baiqing/PycharmProjects/Reinvent-master-3.2/result/LINK_invent/BTK/process_docking_weight1_custom_sum_contain_oxygen_bond_distance_aromatic_linkinvent_7_9_3/rearranged_h_0137.sdf

> <i_m_source_file_index>
75

> <r_mmod_Potential_Energy-OPLS-2005>
209.490798950195

> <r_mmod_Stretch_Energy-OPLS-2005>
281.086364746094

> <r_mmod_Bend_Energy-OPLS-2005>
257.950408935547

> <r_mmod_Torsional_Energy-OPLS-2005>
210.235824584961

> <r_mmod_Improper_Torsional_Energy-OPLS-2005>
6.51430988311768

> <r_mmod_Van_der_Waal_Energy-OPLS-2005>
132.469512939453

> <r_mmod_Electrostatic_Energy-OPLS-2005>
-653.249755859375

> <r_mmod_Solvation_Energy-OPLS-2005>
-239.254928588867

> <b_mmod_Minimization_Converged-OPLS-2005>
0

> <r_mmod_RMS_Derivative-OPLS-2005>
2.49530291557312

$$$$
75
                    3D
 Structure written by MMmdl.
155164  0  0  1  0            999 V2000
  -30.5075  -15.0802   20.4087 C   0  0  0  0  0  0
  -30.4519  -12.6836   19.4904 C   0  0  0  0  0  0
  -29.5273  -12.5312   18.2594 C   0  0  0  0  0  0
  -28.0735  -12.2832   18.7016 C   0  0  0  0  0  0
  -27.6262  -13.2487   19.8288 C   0  0  2  0  0  0
  -28.6733  -13.3545   20.9577 C   0  0  0  0  0  0
  -25.2502  -13.8213   20.5761 C   0  0  0  0  0  0
  -24.1798  -13.0434   20.9253 C   0  0  0  0  0  0
  -24.6415  -11.6916   20.8761 C   0  0  0  0  0  0
  -23.9095  -10.4286   21.0412 C   0  0  0  0  0  0
  -24.3639   -9.4195   21.9189 C   0  0  0  0  0  0
  -23.6307   -8.2235   22.0756 C   0  0  0  0  0  0
  -22.4288   -8.0285   21.3546 C   0  0  0  0  0  0
  -21.9934   -9.0262   20.4644 C   0  0  0  0  0  0
  -22.7271  -10.2135   20.3056 C   0  0  0  0  0  0
  -21.6857   -6.0743   22.5278 C   0  0  0  0  0  0
  -21.4010   -6.5650   23.8208 C   0  0  0  0  0  0
  -21.3654   -5.6801   24.9172 C   0  0  0  0  0  0
  -21.6043   -4.3067   24.7222 C   0  0  0  0  0  0
  -21.8816   -3.8159   23.4346 C   0  0  0  0  0  0
  -21.9190   -4.6972   22.3399 C   0  0  0  0  0  0
  -22.7824  -13.5219   21.1877 C   0  0  0  0  0  0
  -22.1660   -4.2159   21.0977 F   0  0  0  0  0  0
  -21.5624   -3.4550   25.7733 F   0  0  0  0  0  0
  -29.9208  -13.8062   20.3243 N   0  0  0  0  0  0
  -26.2896  -12.9422   20.3266 N   0  0  0  0  0  0
  -25.9347  -11.6554   20.5764 N   0  0  0  0  0  0
  -22.0456  -12.8205   22.0421 N   0  0  0  0  0  0
  -25.4221  -15.1931   20.4214 N   0  0  0  0  0  0
  -31.7370  -15.1051   20.2633 O   0  0  0  0  0  0
  -21.6645   -6.8889   21.4238 O   0  0  0  0  0  0
  -22.3502  -14.5517   20.6719 O   0  0  0  0  0  0
  -24.6474  -31.8372   23.1799 C   0  0  0  0  0  0
  -25.9226  -32.4649   23.8194 C   0  0  1  0  0  0
  -27.2287  -27.0725   20.1607 C   0  0  0  0  0  0
  -25.5938  -33.8442   24.2131 N   0  0  0  0  0  0
  -23.4550  -30.4571   21.5234 C   0  0  2  0  0  0
  -24.9083  -28.8640   20.1155 C   0  0  0  0  0  0
  -22.7571  -29.4521   22.4755 C   0  0  0  0  0  0
  -18.0326  -28.1332   22.8485 C   0  0  0  0  0  0
  -24.1526  -36.7239   23.2657 C   0  0  0  0  0  0
  -26.0154  -30.6878   21.3919 C   0  0  0  0  0  0
  -26.0864  -29.2916   20.7371 C   0  0  0  0  0  0
  -27.2411  -28.4118   20.7486 C   0  0  0  0  0  0
  -26.0184  -26.7562   19.5082 C   0  0  0  0  0  0
  -24.8851  -27.6048   19.4938 C   0  0  0  0  0  0
  -23.6941  -29.7832   20.1463 C   0  0  0  0  0  0
  -25.4143  -36.2998   24.0336 C   0  0  1  0  0  0
  -20.5947  -28.3690   23.1188 C   0  0  2  0  0  0
  -20.6792  -26.9369   22.5398 C   0  0  0  0  0  0
  -19.5766  -26.6328   21.5202 C   0  0  0  0  0  0
  -18.1951  -26.7873   22.1621 C   0  0  0  0  0  0
  -19.1590  -28.8823   23.2844 C   0  0  0  0  0  0
  -18.9503  -30.1412   23.8888 C   0  0  0  0  0  0
  -17.6506  -30.6544   24.0537 C   0  0  0  0  0  0
  -25.9084  -34.9380   23.5053 C   0  0  0  0  0  0
  -16.5400  -29.9040   23.6309 C   0  0  0  0  0  0
  -16.7314  -28.6449   23.0350 C   0  0  0  0  0  0
  -26.4547  -31.6505   25.0629 C   0  0  0  0  0  0
  -25.3706  -31.3697   26.1294 C   0  0  0  0  0  0
  -27.0436  -30.2900   24.6236 C   0  0  0  0  0  0
  -27.6082  -32.4261   25.7399 C   0  0  0  0  0  0
  -27.5584  -37.1771   24.8470 C   0  0  0  0  0  0
  -21.4254  -29.3052   22.3546 N   0  0  0  0  0  0
  -26.4303  -37.3710   23.9415 N   0  0  0  0  0  0
  -24.7256  -31.0160   22.0877 N   0  0  0  0  0  0
  -23.4208  -28.8037   23.2881 O   0  0  0  0  0  0
  -28.2768  -26.0567   20.2207 O   0  0  0  0  0  0
  -26.5680  -34.8899   22.4635 O   0  0  0  0  0  0
  -23.5578  -32.1275   23.6990 O   0  0  0  0  0  0
  -30.2540  -18.0107   22.0307 C   0  0  0  0  0  0
  -29.7612  -20.4221   21.9297 C   0  0  0  0  0  0
  -30.1813  -19.2826   22.6487 C   0  0  0  0  0  0
  -29.8168  -17.7953   20.7075 C   0  0  0  0  0  0
  -29.3215  -20.3331   20.6044 C   0  0  0  0  0  0
  -29.7638  -18.4834   25.1035 C   0  0  0  0  0  0
  -29.2845  -19.9106   24.9932 C   0  0  0  0  0  0
  -30.4205  -19.4252   24.1181 C   0  0  0  0  0  0
  -29.0465  -23.1422   20.3746 C   0  0  0  0  0  0
  -28.0452  -24.4984   19.9964 C   0  0  0  0  0  0
  -29.3365  -18.9989   20.0465 N   0  0  0  0  0  0
  -29.7097  -16.2858   20.3188 N   0  0  0  0  0  0
  -28.8228  -21.6086   19.9800 N   0  0  0  0  0  0
  -31.4762  -12.8742   19.1635 H   0  0  0  0  0  0
  -30.4907  -11.7554   20.0631 H   0  0  0  0  0  0
  -29.8702  -11.7087   17.6304 H   0  0  0  0  0  0
  -29.5797  -13.4321   17.6468 H   0  0  0  0  0  0
  -28.0226  -11.2558   19.0648 H   0  0  0  0  0  0
  -27.3923  -12.3381   17.8521 H   0  0  0  0  0  0
  -27.5642  -14.2294   19.3568 H   0  0  0  0  0  0
  -28.8061  -12.4010   21.4711 H   0  0  0  0  0  0
  -28.3528  -14.0746   21.7135 H   0  0  0  0  0  0
  -25.2776   -9.5665   22.4775 H   0  0  0  0  0  0
  -24.0005   -7.4620   22.7475 H   0  0  0  0  0  0
  -21.0869   -8.8793   19.8941 H   0  0  0  0  0  0
  -22.3742  -10.9683   19.6168 H   0  0  0  0  0  0
  -21.2006   -7.6161   23.9712 H   0  0  0  0  0  0
  -21.1475   -6.0539   25.9072 H   0  0  0  0  0  0
  -22.0601   -2.7626   23.2844 H   0  0  0  0  0  0
  -22.4099  -11.9896   22.4845 H   0  0  0  0  0  0
  -21.1041  -13.1182   22.2551 H   0  0  0  0  0  0
  -24.6638  -15.8541   20.5483 H   0  0  0  0  0  0
  -26.2792  -15.6329   20.1153 H   0  0  0  0  0  0
  -26.7267  -32.5255   23.0881 H   0  0  0  0  0  0
  -25.0033  -33.9546   25.0247 H   0  0  0  0  0  0
  -22.7657  -31.2889   21.3611 H   0  0  0  0  0  0
  -23.3807  -35.9549   23.3290 H   0  0  0  0  0  0
  -24.3658  -36.8888   22.2082 H   0  0  0  0  0  0
  -23.7282  -37.6428   23.6706 H   0  0  0  0  0  0
  -26.1778  -31.4391   20.6175 H   0  0  0  0  0  0
  -26.8838  -30.7316   22.0374 H   0  0  0  0  0  0
  -28.1241  -28.7344   21.2796 H   0  0  0  0  0  0
  -25.9232  -25.7945   19.0280 H   0  0  0  0  0  0
  -23.9794  -27.2684   19.0077 H   0  0  0  0  0  0
  -23.8593  -30.5625   19.4004 H   0  0  0  0  0  0
  -22.8082  -29.2385   19.8133 H   0  0  0  0  0  0
  -25.1342  -36.1815   25.0834 H   0  0  0  0  0  0
  -21.0090  -28.3306   24.1282 H   0  0  0  0  0  0
  -20.5617  -26.2312   23.3638 H   0  0  0  0  0  0
  -21.6644  -26.7270   22.1216 H   0  0  0  0  0  0
  -19.6908  -25.6233   21.1227 H   0  0  0  0  0  0
  -19.6700  -27.3141   20.6735 H   0  0  0  0  0  0
  -17.4201  -26.6651   21.4038 H   0  0  0  0  0  0
  -18.0335  -25.9980   22.8987 H   0  0  0  0  0  0
  -19.7993  -30.7210   24.2250 H   0  0  0  0  0  0
  -17.5071  -31.6236   24.5110 H   0  0  0  0  0  0
  -15.5397  -30.2946   23.7605 H   0  0  0  0  0  0
  -15.8722  -28.0769   22.7045 H   0  0  0  0  0  0
  -24.5914  -30.7027   25.7587 H   0  0  0  0  0  0
  -24.8875  -32.2875   26.4627 H   0  0  0  0  0  0
  -25.7948  -30.8904   27.0117 H   0  0  0  0  0  0
  -26.3055  -29.6563   24.1302 H   0  0  0  0  0  0
  -27.4109  -29.7251   25.4812 H   0  0  0  0  0  0
  -27.8927  -30.4147   23.9520 H   0  0  0  0  0  0
  -27.2713  -33.3622   26.1855 H   0  0  0  0  0  0
  -28.3924  -32.6692   25.0220 H   0  0  0  0  0  0
  -28.0674  -31.8429   26.5387 H   0  0  0  0  0  0
  -28.2560  -38.0097   24.7504 H   0  0  0  0  0  0
  -28.1112  -36.2616   24.6302 H   0  0  0  0  0  0
  -27.2301  -37.1411   25.8871 H   0  0  0  0  0  0
  -20.9382  -29.8929   21.6920 H   0  0  0  0  0  0
  -26.0173  -38.2779   24.1402 H   0  0  0  0  0  0
  -30.5532  -17.1663   22.6383 H   0  0  0  0  0  0
  -29.7196  -21.3651   22.4536 H   0  0  0  0  0  0
  -29.1071  -17.7080   24.7119 H   0  0  0  0  0  0
  -30.3234  -18.2179   25.9973 H   0  0  0  0  0  0
  -29.5221  -20.5834   25.8134 H   0  0  0  0  0  0
  -28.3223  -20.0814   24.5098 H   0  0  0  0  0  0
  -31.4232  -19.7890   24.3400 H   0  0  0  0  0  0
  -29.2259  -23.1827   21.4470 H   0  0  0  0  0  0
  -30.0118  -23.3817   19.9310 H   0  0  0  0  0  0
  -27.1112  -24.2888   20.5156 H   0  0  0  0  0  0
  -27.8176  -24.4074   18.9338 H   0  0  0  0  0  0
  -28.7691  -16.0551   20.0504 H   0  0  0  0  0  0
  -28.4896  -21.4996   19.0266 H   0  0  0  0  0  0
  1 25  1  0  0  0
  1 30  2  0  0  0
  1 82  1  0  0  0
  2  3  1  0  0  0
  2 25  1  0  0  0
  2 84  1  0  0  0
  2 85  1  0  0  0
  3  4  1  0  0  0
  3 86  1  0  0  0
  3 87  1  0  0  0
  4  5  1  0  0  0
  4 88  1  0  0  0
  4 89  1  0  0  0
  5  6  1  0  0  0
  5 26  1  0  0  0
  5 90  1  0  0  0
  6 25  1  0  0  0
  6 91  1  0  0  0
  6 92  1  0  0  0
  7  8  2  0  0  0
  7 26  1  0  0  0
  7 29  1  0  0  0
  8  9  1  0  0  0
  8 22  1  0  0  0
  9 10  1  0  0  0
  9 27  2  0  0  0
 10 11  2  0  0  0
 10 15  1  0  0  0
 11 12  1  0  0  0
 11 93  1  0  0  0
 12 13  2  0  0  0
 12 94  1  0  0  0
 13 14  1  0  0  0
 13 31  1  0  0  0
 14 15  2  0  0  0
 14 95  1  0  0  0
 15 96  1  0  0  0
 16 17  2  0  0  0
 16 21  1  0  0  0
 16 31  1  0  0  0
 17 18  1  0  0  0
 17 97  1  0  0  0
 18 19  2  0  0  0
 18 98  1  0  0  0
 19 20  1  0  0  0
 19 24  1  0  0  0
 20 21  2  0  0  0
 20 99  1  0  0  0
 21 23  1  0  0  0
 22 28  1  0  0  0
 22 32  2  0  0  0
 26 27  1  0  0  0
 28100  1  0  0  0
 28101  1  0  0  0
 29102  1  0  0  0
 29103  1  0  0  0
 33 34  1  0  0  0
 33 66  1  0  0  0
 33 70  2  0  0  0
 34 36  1  0  0  0
 34 59  1  0  0  0
 34104  1  0  0  0
 35 44  2  0  0  0
 35 45  1  0  0  0
 35 68  1  0  0  0
 36 56  1  0  0  0
 36105  1  0  0  0
 37 39  1  0  0  0
 37 47  1  0  0  0
 37 66  1  0  0  0
 37106  1  0  0  0
 38 43  2  0  0  0
 38 46  1  0  0  0
 38 47  1  0  0  0
 39 64  1  0  0  0
 39 67  2  0  0  0
 40 52  1  0  0  0
 40 53  2  0  0  0
 40 58  1  0  0  0
 41107  1  0  0  0
 41108  1  0  0  0
 41109  1  0  0  0
 41 48  1  0  0  0
 42 43  1  0  0  0
 42 66  1  0  0  0
 42110  1  0  0  0
 42111  1  0  0  0
 43 44  1  0  0  0
 44112  1  0  0  0
 45 46  2  0  0  0
 45113  1  0  0  0
 46114  1  0  0  0
 47115  1  0  0  0
 47116  1  0  0  0
 48 56  1  0  0  0
 48 65  1  0  0  0
 48117  1  0  0  0
 49 50  1  0  0  0
 49 53  1  0  0  0
 49 64  1  0  0  0
 49118  1  0  0  0
 50 51  1  0  0  0
 50119  1  0  0  0
 50120  1  0  0  0
 51 52  1  0  0  0
 51121  1  0  0  0
 51122  1  0  0  0
 52123  1  0  0  0
 52124  1  0  0  0
 53 54  1  0  0  0
 54 55  2  0  0  0
 54125  1  0  0  0
 55 57  1  0  0  0
 55126  1  0  0  0
 56 69  2  0  0  0
 57 58  2  0  0  0
 57127  1  0  0  0
 58128  1  0  0  0
 59 60  1  0  0  0
 59 61  1  0  0  0
 59 62  1  0  0  0
 60129  1  0  0  0
 60130  1  0  0  0
 60131  1  0  0  0
 61132  1  0  0  0
 61133  1  0  0  0
 61134  1  0  0  0
 62135  1  0  0  0
 62136  1  0  0  0
 62137  1  0  0  0
 63 65  1  0  0  0
 63138  1  0  0  0
 63139  1  0  0  0
 63140  1  0  0  0
 64141  1  0  0  0
 65142  1  0  0  0
 68 80  1  0  0  0
 71 73  2  0  0  0
 71 74  1  0  0  0
 71143  1  0  0  0
 72 73  1  0  0  0
 72 75  2  0  0  0
 72144  1  0  0  0
 73 78  1  0  0  0
 74 81  2  0  0  0
 74 82  1  0  0  0
 75 81  1  0  0  0
 75 83  1  0  0  0
 76 77  1  0  0  0
 76 78  1  0  0  0
 76145  1  0  0  0
 76146  1  0  0  0
 77 78  1  0  0  0
 77147  1  0  0  0
 77148  1  0  0  0
 78149  1  0  0  0
 79 80  1  0  0  0
 79 83  1  0  0  0
 79150  1  0  0  0
 79151  1  0  0  0
 80152  1  0  0  0
 80153  1  0  0  0
 82154  1  0  0  0
 83155  1  0  0  0
M  ISO  4   1 100  68 101  80 101  82 100
M  END
> <chiral flag>
0

> <version>
0

> <s_m_source_file>
/data/baiqing/PycharmProjects/Reinvent-master-3.2/result/LINK_invent/BTK/process_docking_weight1_custom_sum_contain_oxygen_bond_distance_aromatic_linkinvent_7_9_3/rearranged_h_0137.sdf

> <i_m_source_file_index>
76

> <r_mmod_Potential_Energy-OPLS-2005>
504.080932617188

> <r_mmod_Stretch_Energy-OPLS-2005>
341.378570556641

> <r_mmod_Bend_Energy-OPLS-2005>
310.513946533203

> <r_mmod_Torsional_Energy-OPLS-2005>
262.180206298828

> <r_mmod_Improper_Torsional_Energy-OPLS-2005>
11.6069202423096

> <r_mmod_Van_der_Waal_Energy-OPLS-2005>
127.560409545898

> <r_mmod_Electrostatic_Energy-OPLS-2005>
-586.044067382812

> <r_mmod_Solvation_Energy-OPLS-2005>
-242.459365844727

> <b_mmod_Minimization_Converged-OPLS-2005>
0

> <r_mmod_RMS_Derivative-OPLS-2005>
4.13475275039673

$$$$
76
                    3D
 Structure written by MMmdl.
168176  0  0  1  0            999 V2000
  -30.6772  -14.5677   20.5093 C   0  0  0  0  0  0
  -30.4238  -12.3538   19.4480 C   0  0  0  0  0  0
  -29.4984  -12.4854   18.2195 C   0  0  0  0  0  0
  -28.0198  -12.3455   18.6291 C   0  0  0  0  0  0
  -27.6525  -13.2153   19.8631 C   0  0  2  0  0  0
  -28.6963  -13.0631   20.9922 C   0  0  0  0  0  0
  -25.2580  -13.8198   20.5744 C   0  0  0  0  0  0
  -24.1829  -13.0451   20.9230 C   0  0  0  0  0  0
  -24.6375  -11.6919   20.8749 C   0  0  0  0  0  0
  -23.9054  -10.4298   21.0431 C   0  0  0  0  0  0
  -24.3601   -9.4216   21.9198 C   0  0  0  0  0  0
  -23.6285   -8.2245   22.0745 C   0  0  0  0  0  0
  -22.4273   -8.0287   21.3527 C   0  0  0  0  0  0
  -21.9916   -9.0268   20.4636 C   0  0  0  0  0  0
  -22.7241  -10.2150   20.3070 C   0  0  0  0  0  0
  -21.6866   -6.0741   22.5281 C   0  0  0  0  0  0
  -21.4018   -6.5639   23.8218 C   0  0  0  0  0  0
  -21.3663   -5.6781   24.9176 C   0  0  0  0  0  0
  -21.6054   -4.3046   24.7223 C   0  0  0  0  0  0
  -21.8816   -3.8146   23.4342 C   0  0  0  0  0  0
  -21.9200   -4.6972   22.3408 C   0  0  0  0  0  0
  -22.7862  -13.5280   21.1871 C   0  0  0  0  0  0
  -22.1660   -4.2167   21.0987 F   0  0  0  0  0  0
  -21.5628   -3.4526   25.7734 F   0  0  0  0  0  0
  -30.0117  -13.3799   20.4202 N   0  0  0  0  0  0
  -26.2984  -12.9350   20.3328 N   0  0  0  0  0  0
  -25.9302  -11.6494   20.5748 N   0  0  0  0  0  0
  -22.0448  -12.8273   22.0397 N   0  0  0  0  0  0
  -25.4310  -15.1901   20.4180 N   0  0  0  0  0  0
  -31.8484  -14.6806   20.1401 O   0  0  0  0  0  0
  -21.6626   -6.8894   21.4243 O   0  0  0  0  0  0
  -22.3580  -14.5589   20.6736 O   0  0  0  0  0  0
  -24.6242  -31.8643   23.2064 C   0  0  0  0  0  0
  -25.9123  -32.4801   23.8366 C   0  0  1  0  0  0
  -27.2246  -27.3683   20.1078 C   0  0  0  0  0  0
  -25.5957  -33.8594   24.2309 N   0  0  0  0  0  0
  -23.4114  -30.4904   21.5478 C   0  0  2  0  0  0
  -24.8594  -28.9472   20.1196 C   0  0  0  0  0  0
  -22.7459  -29.4636   22.4921 C   0  0  0  0  0  0
  -18.0323  -28.1391   22.8460 C   0  0  0  0  0  0
  -24.1484  -36.7305   23.2619 C   0  0  0  0  0  0
  -25.9510  -30.8111   21.3712 C   0  0  0  0  0  0
  -26.0264  -29.4383   20.7201 C   0  0  0  0  0  0
  -27.2169  -28.6592   20.7062 C   0  0  0  0  0  0
  -26.0443  -26.9246   19.4819 C   0  0  0  0  0  0
  -24.8657  -27.6919   19.4944 C   0  0  0  0  0  0
  -23.6256  -29.8220   20.1650 C   0  0  0  0  0  0
  -25.4111  -36.3081   24.0297 C   0  0  1  0  0  0
  -20.5912  -28.3710   23.1307 C   0  0  2  0  0  0
  -20.6811  -26.9457   22.5356 C   0  0  0  0  0  0
  -19.5812  -26.6471   21.5136 C   0  0  0  0  0  0
  -18.1993  -26.7967   22.1536 C   0  0  0  0  0  0
  -19.1566  -28.8849   23.2892 C   0  0  0  0  0  0
  -18.9471  -30.1434   23.8926 C   0  0  0  0  0  0
  -17.6461  -30.6559   24.0573 C   0  0  0  0  0  0
  -25.9044  -34.9458   23.5089 C   0  0  0  0  0  0
  -16.5352  -29.9085   23.6286 C   0  0  0  0  0  0
  -16.7305  -28.6499   23.0314 C   0  0  0  0  0  0
  -26.4506  -31.6599   25.0716 C   0  0  0  0  0  0
  -25.3742  -31.3760   26.1455 C   0  0  0  0  0  0
  -27.0344  -30.3015   24.6143 C   0  0  0  0  0  0
  -27.6049  -32.4358   25.7510 C   0  0  0  0  0  0
  -27.5578  -37.1820   24.8444 C   0  0  0  0  0  0
  -21.4169  -29.3102   22.3731 N   0  0  0  0  0  0
  -26.4289  -37.3785   23.9376 N   0  0  0  0  0  0
  -24.6796  -31.0709   22.0981 N   0  0  0  0  0  0
  -23.4211  -28.8099   23.2926 O   0  0  0  0  0  0
  -28.3489  -26.5524   20.0678 O   0  0  0  0  0  0
  -26.5587  -34.8906   22.4643 O   0  0  0  0  0  0
  -23.5433  -32.1386   23.7468 O   0  0  0  0  0  0
  -27.1980  -18.6249   23.3850 C   0  0  0  0  0  0
  -27.1494  -20.0015   23.6266 C   0  0  0  0  0  0
  -27.9826  -18.1351   22.3334 C   0  0  0  0  0  0
  -27.8766  -20.8848   22.8095 C   0  0  0  0  0  0
  -28.7479  -18.9934   21.5090 C   0  0  0  0  0  0
  -28.6789  -20.4277   21.7267 C   0  0  0  0  0  0
  -25.8982  -23.5829   20.9438 C   0  0  0  0  0  0
  -26.6530  -23.4707   18.4965 C   0  0  0  0  0  0
  -29.5638  -18.2770   20.4113 C   0  0  0  0  0  0
  -29.4268  -21.5070   20.8774 C   0  0  0  0  0  0
  -30.4821  -17.0735   20.8697 C   0  0  0  0  0  0
  -28.3577  -25.3839   20.9491 C   0  0  0  0  0  0
  -27.0468  -23.2618   19.9709 C   0  0  0  0  0  0
  -28.4297  -23.8939   20.3549 C   0  0  2  0  0  0
  -29.9490  -15.6735   20.8310 N   0  0  0  0  0  0
  -29.1804  -22.9492   21.2718 N   0  3  0  0  0  0
  -31.4667  -12.4608   19.1401 H   0  0  0  0  0  0
  -30.3389  -11.3623   19.8952 H   0  0  0  0  0  0
  -29.7470  -11.7222   17.4805 H   0  0  0  0  0  0
  -29.6606  -13.4498   17.7334 H   0  0  0  0  0  0
  -27.8490  -11.2939   18.8575 H   0  0  0  0  0  0
  -27.3680  -12.5803   17.7874 H   0  0  0  0  0  0
  -27.6761  -14.2526   19.5285 H   0  0  0  0  0  0
  -28.7001  -12.0428   21.3797 H   0  0  0  0  0  0
  -28.4573  -13.7048   21.8397 H   0  0  0  0  0  0
  -25.2730   -9.5715   22.4778 H   0  0  0  0  0  0
  -24.0006   -7.4650   22.7462 H   0  0  0  0  0  0
  -21.0848   -8.8805   19.8938 H   0  0  0  0  0  0
  -22.3706  -10.9697   19.6188 H   0  0  0  0  0  0
  -21.1992   -7.6144   23.9743 H   0  0  0  0  0  0
  -21.1485   -6.0496   25.9090 H   0  0  0  0  0  0
  -22.0590   -2.7614   23.2830 H   0  0  0  0  0  0
  -22.3994  -11.9948   22.4837 H   0  0  0  0  0  0
  -21.1070  -13.1339   22.2545 H   0  0  0  0  0  0
  -24.6656  -15.8453   20.5390 H   0  0  0  0  0  0
  -26.2746  -15.6276   20.0694 H   0  0  0  0  0  0
  -26.7197  -32.5452   23.1137 H   0  0  0  0  0  0
  -25.0140  -33.9750   25.0481 H   0  0  0  0  0  0
  -22.7038  -31.3096   21.4051 H   0  0  0  0  0  0
  -23.3707  -35.9679   23.3273 H   0  0  0  0  0  0
  -24.3554  -36.8934   22.2026 H   0  0  0  0  0  0
  -23.7288  -37.6519   23.6670 H   0  0  0  0  0  0
  -26.0795  -31.5764   20.6053 H   0  0  0  0  0  0
  -26.8355  -30.8651   21.9931 H   0  0  0  0  0  0
  -28.1193  -29.0456   21.1579 H   0  0  0  0  0  0
  -26.0392  -25.9809   18.9647 H   0  0  0  0  0  0
  -23.9727  -27.3232   19.0083 H   0  0  0  0  0  0
  -23.7405  -30.5984   19.4082 H   0  0  0  0  0  0
  -22.7526  -29.2446   19.8595 H   0  0  0  0  0  0
  -25.1316  -36.1922   25.0791 H   0  0  0  0  0  0
  -21.0054  -28.3265   24.1401 H   0  0  0  0  0  0
  -20.5759  -26.2302   23.3518 H   0  0  0  0  0  0
  -21.6662  -26.7533   22.1102 H   0  0  0  0  0  0
  -19.7042  -25.6431   21.1055 H   0  0  0  0  0  0
  -19.6739  -27.3400   20.6746 H   0  0  0  0  0  0
  -17.4329  -26.6754   21.3872 H   0  0  0  0  0  0
  -18.0389  -26.0048   22.8865 H   0  0  0  0  0  0
  -19.7942  -30.7238   24.2325 H   0  0  0  0  0  0
  -17.4985  -31.6203   24.5241 H   0  0  0  0  0  0
  -15.5353  -30.2982   23.7573 H   0  0  0  0  0  0
  -15.8720  -28.0809   22.7013 H   0  0  0  0  0  0
  -24.5867  -30.7170   25.7786 H   0  0  0  0  0  0
  -24.8982  -32.2945   26.4907 H   0  0  0  0  0  0
  -25.8054  -30.8903   27.0213 H   0  0  0  0  0  0
  -26.2909  -29.6760   24.1178 H   0  0  0  0  0  0
  -27.4049  -29.7283   25.4643 H   0  0  0  0  0  0
  -27.8777  -30.4237   23.9333 H   0  0  0  0  0  0
  -27.2595  -33.3614   26.2122 H   0  0  0  0  0  0
  -28.3856  -32.7002   25.0374 H   0  0  0  0  0  0
  -28.0721  -31.8468   26.5408 H   0  0  0  0  0  0
  -28.2608  -38.0110   24.7504 H   0  0  0  0  0  0
  -28.1071  -36.2644   24.6289 H   0  0  0  0  0  0
  -27.2272  -37.1491   25.8841 H   0  0  0  0  0  0
  -20.9296  -29.8896   21.7042 H   0  0  0  0  0  0
  -26.0139  -38.2833   24.1449 H   0  0  0  0  0  0
  -26.6373  -17.9432   24.0086 H   0  0  0  0  0  0
  -26.5484  -20.3830   24.4398 H   0  0  0  0  0  0
  -27.9874  -17.0676   22.1704 H   0  0  0  0  0  0
  -27.7928  -21.9326   23.0566 H   0  0  0  0  0  0
  -25.0724  -22.8826   20.8064 H   0  0  0  0  0  0
  -25.5031  -24.5873   20.8028 H   0  0  0  0  0  0
  -26.2185  -23.4935   21.9815 H   0  0  0  0  0  0
  -26.6252  -22.5137   17.9698 H   0  0  0  0  0  0
  -25.6605  -23.9079   18.3952 H   0  0  0  0  0  0
  -27.3628  -24.1031   17.9620 H   0  0  0  0  0  0
  -28.8843  -17.9519   19.6209 H   0  0  0  0  0  0
  -30.2061  -19.0218   19.9428 H   0  0  0  0  0  0
  -29.2460  -21.3545   19.8112 H   0  0  0  0  0  0
  -30.4938  -21.3354   21.0204 H   0  0  0  0  0  0
  -30.8919  -17.2780   21.8586 H   0  0  0  0  0  0
  -31.3442  -17.1045   20.2010 H   0  0  0  0  0  0
  -29.2552  -25.5355   21.5481 H   0  0  0  0  0  0
  -27.5558  -25.4655   21.6835 H   0  0  0  0  0  0
  -27.1327  -22.1791   20.0424 H   0  0  0  0  0  0
  -29.0607  -23.9467   19.4645 H   0  0  0  0  0  0
  -28.9776  -15.5303   21.0647 H   0  0  0  0  0  0
  -30.0933  -23.3530   21.4215 H   0  0  0  0  0  0
  -28.7388  -22.9209   22.1753 H   0  0  0  0  0  0
  1 25  1  0  0  0
  1 30  2  0  0  0
  1 85  1  0  0  0
  2  3  1  0  0  0
  2 25  1  0  0  0
  2 87  1  0  0  0
  2 88  1  0  0  0
  3  4  1  0  0  0
  3 89  1  0  0  0
  3 90  1  0  0  0
  4  5  1  0  0  0
  4 91  1  0  0  0
  4 92  1  0  0  0
  5  6  1  0  0  0
  5 26  1  0  0  0
  5 93  1  0  0  0
  6 25  1  0  0  0
  6 94  1  0  0  0
  6 95  1  0  0  0
  7  8  2  0  0  0
  7 26  1  0  0  0
  7 29  1  0  0  0
  8  9  1  0  0  0
  8 22  1  0  0  0
  9 10  1  0  0  0
  9 27  2  0  0  0
 10 11  2  0  0  0
 10 15  1  0  0  0
 11 12  1  0  0  0
 11 96  1  0  0  0
 12 13  2  0  0  0
 12 97  1  0  0  0
 13 14  1  0  0  0
 13 31  1  0  0  0
 14 15  2  0  0  0
 14 98  1  0  0  0
 15 99  1  0  0  0
 16 17  2  0  0  0
 16 21  1  0  0  0
 16 31  1  0  0  0
 17 18  1  0  0  0
 17100  1  0  0  0
 18 19  2  0  0  0
 18101  1  0  0  0
 19 20  1  0  0  0
 19 24  1  0  0  0
 20 21  2  0  0  0
 20102  1  0  0  0
 21 23  1  0  0  0
 22 28  1  0  0  0
 22 32  2  0  0  0
 26 27  1  0  0  0
 28103  1  0  0  0
 28104  1  0  0  0
 29105  1  0  0  0
 29106  1  0  0  0
 33 34  1  0  0  0
 33 66  1  0  0  0
 33 70  2  0  0  0
 34 36  1  0  0  0
 34 59  1  0  0  0
 34107  1  0  0  0
 35 44  2  0  0  0
 35 45  1  0  0  0
 35 68  1  0  0  0
 36 56  1  0  0  0
 36108  1  0  0  0
 37 39  1  0  0  0
 37 47  1  0  0  0
 37 66  1  0  0  0
 37109  1  0  0  0
 38 43  2  0  0  0
 38 46  1  0  0  0
 38 47  1  0  0  0
 39 64  1  0  0  0
 39 67  2  0  0  0
 40 52  1  0  0  0
 40 53  2  0  0  0
 40 58  1  0  0  0
 41110  1  0  0  0
 41111  1  0  0  0
 41112  1  0  0  0
 41 48  1  0  0  0
 42 43  1  0  0  0
 42 66  1  0  0  0
 42113  1  0  0  0
 42114  1  0  0  0
 43 44  1  0  0  0
 44115  1  0  0  0
 45 46  2  0  0  0
 45116  1  0  0  0
 46117  1  0  0  0
 47118  1  0  0  0
 47119  1  0  0  0
 48 56  1  0  0  0
 48 65  1  0  0  0
 48120  1  0  0  0
 49 50  1  0  0  0
 49 53  1  0  0  0
 49 64  1  0  0  0
 49121  1  0  0  0
 50 51  1  0  0  0
 50122  1  0  0  0
 50123  1  0  0  0
 51 52  1  0  0  0
 51124  1  0  0  0
 51125  1  0  0  0
 52126  1  0  0  0
 52127  1  0  0  0
 53 54  1  0  0  0
 54 55  2  0  0  0
 54128  1  0  0  0
 55 57  1  0  0  0
 55129  1  0  0  0
 56 69  2  0  0  0
 57 58  2  0  0  0
 57130  1  0  0  0
 58131  1  0  0  0
 59 60  1  0  0  0
 59 61  1  0  0  0
 59 62  1  0  0  0
 60132  1  0  0  0
 60133  1  0  0  0
 60134  1  0  0  0
 61135  1  0  0  0
 61136  1  0  0  0
 61137  1  0  0  0
 62138  1  0  0  0
 62139  1  0  0  0
 62140  1  0  0  0
 63 65  1  0  0  0
 63141  1  0  0  0
 63142  1  0  0  0
 63143  1  0  0  0
 64144  1  0  0  0
 65145  1  0  0  0
 68 82  1  0  0  0
 71 72  2  0  0  0
 71 73  1  0  0  0
 71146  1  0  0  0
 72 74  1  0  0  0
 72147  1  0  0  0
 73 75  2  0  0  0
 73148  1  0  0  0
 74 76  2  0  0  0
 74149  1  0  0  0
 75 76  1  0  0  0
 75 79  1  0  0  0
 76 80  1  0  0  0
 77150  1  0  0  0
 77151  1  0  0  0
 77152  1  0  0  0
 77 83  1  0  0  0
 78 83  1  0  0  0
 78153  1  0  0  0
 78154  1  0  0  0
 78155  1  0  0  0
 79 81  1  0  0  0
 79156  1  0  0  0
 79157  1  0  0  0
 80 86  1  0  0  0
 80158  1  0  0  0
 80159  1  0  0  0
 81 85  1  0  0  0
 81160  1  0  0  0
 81161  1  0  0  0
 82162  1  0  0  0
 82163  1  0  0  0
 82 84  1  0  0  0
 83 84  1  0  0  0
 83164  1  0  0  0
 84 86  1  0  0  0
 84165  1  0  0  0
 85166  1  0  0  0
 86167  1  0  0  0
 86168  1  0  0  0
M  CHG  1  86   1
M  ISO  4   1 100  68 101  82 101  85 100
M  END
> <chiral flag>
0

> <version>
0

> <s_m_source_file>
/data/baiqing/PycharmProjects/Reinvent-master-3.2/result/LINK_invent/BTK/process_docking_weight1_custom_sum_contain_oxygen_bond_distance_aromatic_linkinvent_7_9_3/rearranged_h_0137.sdf

> <i_m_source_file_index>
77

> <r_mmod_Potential_Energy-OPLS-2005>
-35.7834854125977

> <r_mmod_Stretch_Energy-OPLS-2005>
71.3753662109375

> <r_mmod_Bend_Energy-OPLS-2005>
144.724853515625

> <r_mmod_Torsional_Energy-OPLS-2005>
283.815307617188

> <r_mmod_Improper_Torsional_Energy-OPLS-2005>
4.25935935974121

> <r_mmod_Van_der_Waal_Energy-OPLS-2005>
144.359970092773

> <r_mmod_Electrostatic_Energy-OPLS-2005>
-269.119293212891

> <r_mmod_Solvation_Energy-OPLS-2005>
-445.228637695312

> <b_mmod_Minimization_Converged-OPLS-2005>
0

> <r_mmod_RMS_Derivative-OPLS-2005>
4.0427942276001

$$$$
77
                    3D
 Structure written by MMmdl.
158167  0  0  1  0            999 V2000
  -30.5742  -14.7587   20.4513 C   0  0  0  0  0  0
  -30.4355  -12.4534   19.4890 C   0  0  0  0  0  0
  -29.5131  -12.5168   18.2453 C   0  0  0  0  0  0
  -28.0312  -12.3546   18.6461 C   0  0  0  0  0  0
  -27.6455  -13.2297   19.8676 C   0  0  2  0  0  0
  -28.6913  -13.1305   21.0045 C   0  0  0  0  0  0
  -25.2554  -13.8187   20.5781 C   0  0  0  0  0  0
  -24.1825  -13.0428   20.9225 C   0  0  0  0  0  0
  -24.6383  -11.6902   20.8728 C   0  0  0  0  0  0
  -23.9039  -10.4292   21.0365 C   0  0  0  0  0  0
  -24.3594   -9.4228   21.9144 C   0  0  0  0  0  0
  -23.6281   -8.2274   22.0702 C   0  0  0  0  0  0
  -22.4250   -8.0306   21.3516 C   0  0  0  0  0  0
  -21.9895   -9.0266   20.4609 C   0  0  0  0  0  0
  -22.7221  -10.2136   20.3013 C   0  0  0  0  0  0
  -21.6879   -6.0772   22.5298 C   0  0  0  0  0  0
  -21.4041   -6.5665   23.8239 C   0  0  0  0  0  0
  -21.3642   -5.6800   24.9187 C   0  0  0  0  0  0
  -21.6026   -4.3061   24.7238 C   0  0  0  0  0  0
  -21.8814   -3.8169   23.4367 C   0  0  0  0  0  0
  -21.9195   -4.7001   22.3416 C   0  0  0  0  0  0
  -22.7845  -13.5211   21.1901 C   0  0  0  0  0  0
  -22.1662   -4.2186   21.1009 F   0  0  0  0  0  0
  -21.5610   -3.4522   25.7739 F   0  0  0  0  0  0
  -29.9978  -13.5043   20.4418 N   0  0  0  0  0  0
  -26.2958  -12.9393   20.3352 N   0  0  0  0  0  0
  -25.9323  -11.6524   20.5731 N   0  0  0  0  0  0
  -22.0520  -12.8124   22.0426 N   0  0  0  0  0  0
  -25.4338  -15.1913   20.4262 N   0  0  0  0  0  0
  -31.7158  -14.9106   20.0121 O   0  0  0  0  0  0
  -21.6642   -6.8896   21.4241 O   0  0  0  0  0  0
  -22.3512  -14.5536   20.6782 O   0  0  0  0  0  0
  -24.6374  -31.8506   23.1971 C   0  0  0  0  0  0
  -25.9200  -32.4734   23.8304 C   0  0  1  0  0  0
  -27.2142  -27.2320   20.1211 C   0  0  0  0  0  0
  -25.5983  -33.8541   24.2198 N   0  0  0  0  0  0
  -23.4319  -30.4762   21.5458 C   0  0  2  0  0  0
  -24.8748  -28.9258   20.1106 C   0  0  0  0  0  0
  -22.7534  -29.4548   22.4910 C   0  0  0  0  0  0
  -18.0281  -28.1416   22.8481 C   0  0  0  0  0  0
  -24.1490  -36.7278   23.2618 C   0  0  0  0  0  0
  -25.9824  -30.7578   21.3750 C   0  0  0  0  0  0
  -26.0544  -29.3818   20.7110 C   0  0  0  0  0  0
  -27.2289  -28.5543   20.6920 C   0  0  0  0  0  0
  -25.9977  -26.8434   19.5108 C   0  0  0  0  0  0
  -24.8534  -27.6653   19.4976 C   0  0  0  0  0  0
  -23.6522  -29.8248   20.1559 C   0  0  0  0  0  0
  -25.4119  -36.3043   24.0284 C   0  0  1  0  0  0
  -20.5901  -28.3690   23.1301 C   0  0  2  0  0  0
  -20.6811  -26.9404   22.5446 C   0  0  0  0  0  0
  -19.5789  -26.6397   21.5254 C   0  0  0  0  0  0
  -18.1940  -26.7956   22.1625 C   0  0  0  0  0  0
  -19.1537  -28.8872   23.2889 C   0  0  0  0  0  0
  -18.9462  -30.1487   23.8895 C   0  0  0  0  0  0
  -17.6460  -30.6607   24.0585 C   0  0  0  0  0  0
  -25.9088  -34.9425   23.5029 C   0  0  0  0  0  0
  -16.5349  -29.9108   23.6349 C   0  0  0  0  0  0
  -16.7263  -28.6541   23.0325 C   0  0  0  0  0  0
  -26.4526  -31.6578   25.0709 C   0  0  0  0  0  0
  -25.3755  -31.3762   26.1438 C   0  0  0  0  0  0
  -27.0338  -30.2983   24.6197 C   0  0  0  0  0  0
  -27.6040  -32.4328   25.7529 C   0  0  0  0  0  0
  -27.5580  -37.1772   24.8409 C   0  0  0  0  0  0
  -21.4235  -29.3018   22.3687 N   0  0  0  0  0  0
  -26.4243  -37.3783   23.9429 N   0  0  0  0  0  0
  -24.7044  -31.0455   22.0958 N   0  0  0  0  0  0
  -23.4229  -28.8071   23.2994 O   0  0  0  0  0  0
  -28.3144  -26.3269   20.1632 O   0  0  0  0  0  0
  -26.5669  -34.8910   22.4602 O   0  0  0  0  0  0
  -23.5526  -32.1329   23.7283 O   0  0  0  0  0  0
  -31.3418  -18.7854   20.8606 C   0  0  0  0  0  0
  -31.0396  -21.2129   20.7977 C   0  0  0  0  0  0
  -31.8634  -20.0869   21.0556 C   0  0  0  0  0  0
  -30.0175  -18.6189   20.4190 C   0  0  0  0  0  0
  -29.7067  -21.0503   20.3809 C   0  0  0  0  0  0
  -33.8590  -19.5914   22.7124 C   0  0  0  0  0  0
  -33.6048  -21.0788   22.7498 C   0  0  0  0  0  0
  -33.2864  -20.2908   21.4967 C   0  0  0  0  0  0
  -29.4824  -17.1630   20.0404 C   0  0  0  0  0  0
  -29.2350  -23.6888   20.2112 C   0  0  0  0  0  0
  -28.0728  -24.8312   20.0653 C   0  0  0  0  0  0
  -29.2293  -19.7553   20.1989 N   0  0  0  0  0  0
  -28.8533  -22.2056   20.1554 N   0  0  0  0  0  0
  -29.7751  -15.8449   20.7767 N   0  0  0  0  0  0
  -31.4785  -12.5796   19.1949 H   0  0  0  0  0  0
  -30.3825  -11.4693   19.9570 H   0  0  0  0  0  0
  -29.7913  -11.7430   17.5302 H   0  0  0  0  0  0
  -29.6563  -13.4713   17.7315 H   0  0  0  0  0  0
  -27.8647  -11.3024   18.8751 H   0  0  0  0  0  0
  -27.3798  -12.5819   17.7982 H   0  0  0  0  0  0
  -27.6453  -14.2571   19.5099 H   0  0  0  0  0  0
  -28.7285  -12.1177   21.4104 H   0  0  0  0  0  0
  -28.4241  -13.7759   21.8426 H   0  0  0  0  0  0
  -25.2740   -9.5721   22.4686 H   0  0  0  0  0  0
  -24.0030   -7.4668   22.7388 H   0  0  0  0  0  0
  -21.0840   -8.8763   19.8904 H   0  0  0  0  0  0
  -22.3687  -10.9654   19.6093 H   0  0  0  0  0  0
  -21.2057   -7.6164   23.9758 H   0  0  0  0  0  0
  -21.1442   -6.0526   25.9079 H   0  0  0  0  0  0
  -22.0596   -2.7642   23.2862 H   0  0  0  0  0  0
  -22.4134  -11.9730   22.4690 H   0  0  0  0  0  0
  -21.1136  -13.1120   22.2655 H   0  0  0  0  0  0
  -24.6859  -15.8630   20.5669 H   0  0  0  0  0  0
  -26.2981  -15.6204   20.1257 H   0  0  0  0  0  0
  -26.7247  -32.5344   23.1020 H   0  0  0  0  0  0
  -25.0091  -33.9663   25.0309 H   0  0  0  0  0  0
  -22.7296  -31.3010   21.4104 H   0  0  0  0  0  0
  -23.3780  -35.9573   23.3139 H   0  0  0  0  0  0
  -24.3597  -36.9080   22.2063 H   0  0  0  0  0  0
  -23.7198  -37.6404   23.6761 H   0  0  0  0  0  0
  -26.1241  -31.5178   20.6063 H   0  0  0  0  0  0
  -26.8621  -30.8036   22.0041 H   0  0  0  0  0  0
  -28.1365  -28.9102   21.1572 H   0  0  0  0  0  0
  -25.8858  -25.8744   19.0502 H   0  0  0  0  0  0
  -23.9440  -27.3090   19.0298 H   0  0  0  0  0  0
  -23.8036  -30.6180   19.4221 H   0  0  0  0  0  0
  -22.7631  -29.2860   19.8283 H   0  0  0  0  0  0
  -25.1299  -36.1827   25.0765 H   0  0  0  0  0  0
  -20.9959  -28.3266   24.1441 H   0  0  0  0  0  0
  -20.5793  -26.2252   23.3620 H   0  0  0  0  0  0
  -21.6661  -26.7507   22.1178 H   0  0  0  0  0  0
  -19.6958  -25.6321   21.1245 H   0  0  0  0  0  0
  -19.6775  -27.3244   20.6816 H   0  0  0  0  0  0
  -17.4243  -26.6715   21.3992 H   0  0  0  0  0  0
  -18.0311  -26.0113   22.9017 H   0  0  0  0  0  0
  -19.7932  -30.7328   24.2229 H   0  0  0  0  0  0
  -17.5000  -31.6274   24.5205 H   0  0  0  0  0  0
  -15.5341  -30.3014   23.7696 H   0  0  0  0  0  0
  -15.8650  -28.0902   22.6988 H   0  0  0  0  0  0
  -24.5822  -30.7256   25.7727 H   0  0  0  0  0  0
  -24.9117  -32.2990   26.4950 H   0  0  0  0  0  0
  -25.8058  -30.8804   27.0153 H   0  0  0  0  0  0
  -26.2898  -29.6768   24.1204 H   0  0  0  0  0  0
  -27.3979  -29.7201   25.4694 H   0  0  0  0  0  0
  -27.8801  -30.4207   23.9434 H   0  0  0  0  0  0
  -27.2582  -33.3599   26.2105 H   0  0  0  0  0  0
  -28.3895  -32.6950   25.0427 H   0  0  0  0  0  0
  -28.0669  -31.8485   26.5490 H   0  0  0  0  0  0
  -28.2442  -38.0217   24.7642 H   0  0  0  0  0  0
  -28.1228  -36.2760   24.5975 H   0  0  0  0  0  0
  -27.2334  -37.1097   25.8809 H   0  0  0  0  0  0
  -20.9407  -29.8712   21.6881 H   0  0  0  0  0  0
  -26.0077  -38.2786   24.1635 H   0  0  0  0  0  0
  -31.9692  -17.9140   21.0022 H   0  0  0  0  0  0
  -31.4586  -22.2006   20.9274 H   0  0  0  0  0  0
  -33.2046  -18.9659   23.3136 H   0  0  0  0  0  0
  -34.9016  -19.2766   22.6830 H   0  0  0  0  0  0
  -34.4819  -21.7240   22.7399 H   0  0  0  0  0  0
  -32.7755  -21.4331   23.3600 H   0  0  0  0  0  0
  -33.9438  -20.4448   20.6424 H   0  0  0  0  0  0
  -29.6820  -17.0024   18.9819 H   0  0  0  0  0  0
  -28.3963  -17.2574   20.0938 H   0  0  0  0  0  0
  -29.7838  -23.8631   21.1368 H   0  0  0  0  0  0
  -29.9563  -23.8565   19.4113 H   0  0  0  0  0  0
  -27.3133  -24.5954   20.8126 H   0  0  0  0  0  0
  -27.6108  -24.6447   19.0973 H   0  0  0  0  0  0
  -27.8915  -22.0138   19.9085 H   0  0  0  0  0  0
  -28.9782  -15.5626   21.3278 H   0  0  0  0  0  0
  1 25  1  0  0  0
  1 30  2  0  0  0
  1 84  1  0  0  0
  2  3  1  0  0  0
  2 25  1  0  0  0
  2 85  1  0  0  0
  2 86  1  0  0  0
  3  4  1  0  0  0
  3 87  1  0  0  0
  3 88  1  0  0  0
  4  5  1  0  0  0
  4 89  1  0  0  0
  4 90  1  0  0  0
  5  6  1  0  0  0
  5 26  1  0  0  0
  5 91  1  0  0  0
  6 25  1  0  0  0
  6 92  1  0  0  0
  6 93  1  0  0  0
  7  8  2  0  0  0
  7 26  1  0  0  0
  7 29  1  0  0  0
  8  9  1  0  0  0
  8 22  1  0  0  0
  9 10  1  0  0  0
  9 27  2  0  0  0
 10 11  2  0  0  0
 10 15  1  0  0  0
 11 12  1  0  0  0
 11 94  1  0  0  0
 12 13  2  0  0  0
 12 95  1  0  0  0
 13 14  1  0  0  0
 13 31  1  0  0  0
 14 15  2  0  0  0
 14 96  1  0  0  0
 15 97  1  0  0  0
 16 17  2  0  0  0
 16 21  1  0  0  0
 16 31  1  0  0  0
 17 18  1  0  0  0
 17 98  1  0  0  0
 18 19  2  0  0  0
 18 99  1  0  0  0
 19 20  1  0  0  0
 19 24  1  0  0  0
 20 21  2  0  0  0
 20100  1  0  0  0
 21 23  1  0  0  0
 22 28  1  0  0  0
 22 32  2  0  0  0
 26 27  1  0  0  0
 28101  1  0  0  0
 28102  1  0  0  0
 29103  1  0  0  0
 29104  1  0  0  0
 33 34  1  0  0  0
 33 66  1  0  0  0
 33 70  2  0  0  0
 34 36  1  0  0  0
 34 59  1  0  0  0
 34105  1  0  0  0
 35 44  2  0  0  0
 35 45  1  0  0  0
 35 68  1  0  0  0
 36 56  1  0  0  0
 36106  1  0  0  0
 37 39  1  0  0  0
 37 47  1  0  0  0
 37 66  1  0  0  0
 37107  1  0  0  0
 38 43  2  0  0  0
 38 46  1  0  0  0
 38 47  1  0  0  0
 39 64  1  0  0  0
 39 67  2  0  0  0
 40 52  1  0  0  0
 40 53  2  0  0  0
 40 58  1  0  0  0
 41108  1  0  0  0
 41109  1  0  0  0
 41110  1  0  0  0
 41 48  1  0  0  0
 42 43  1  0  0  0
 42 66  1  0  0  0
 42111  1  0  0  0
 42112  1  0  0  0
 43 44  1  0  0  0
 44113  1  0  0  0
 45 46  2  0  0  0
 45114  1  0  0  0
 46115  1  0  0  0
 47116  1  0  0  0
 47117  1  0  0  0
 48 56  1  0  0  0
 48 65  1  0  0  0
 48118  1  0  0  0
 49 50  1  0  0  0
 49 53  1  0  0  0
 49 64  1  0  0  0
 49119  1  0  0  0
 50 51  1  0  0  0
 50120  1  0  0  0
 50121  1  0  0  0
 51 52  1  0  0  0
 51122  1  0  0  0
 51123  1  0  0  0
 52124  1  0  0  0
 52125  1  0  0  0
 53 54  1  0  0  0
 54 55  2  0  0  0
 54126  1  0  0  0
 55 57  1  0  0  0
 55127  1  0  0  0
 56 69  2  0  0  0
 57 58  2  0  0  0
 57128  1  0  0  0
 58129  1  0  0  0
 59 60  1  0  0  0
 59 61  1  0  0  0
 59 62  1  0  0  0
 60130  1  0  0  0
 60131  1  0  0  0
 60132  1  0  0  0
 61133  1  0  0  0
 61134  1  0  0  0
 61135  1  0  0  0
 62136  1  0  0  0
 62137  1  0  0  0
 62138  1  0  0  0
 63 65  1  0  0  0
 63139  1  0  0  0
 63140  1  0  0  0
 63141  1  0  0  0
 64142  1  0  0  0
 65143  1  0  0  0
 68 81  1  0  0  0
 71 73  2  0  0  0
 71 74  1  0  0  0
 71144  1  0  0  0
 72 73  1  0  0  0
 72 75  2  0  0  0
 72145  1  0  0  0
 73 78  1  0  0  0
 74 79  1  0  0  0
 74 82  2  0  0  0
 75 82  1  0  0  0
 75 83  1  0  0  0
 76 77  1  0  0  0
 76 78  1  0  0  0
 76146  1  0  0  0
 76147  1  0  0  0
 77 78  1  0  0  0
 77148  1  0  0  0
 77149  1  0  0  0
 78150  1  0  0  0
 79 84  1  0  0  0
 79151  1  0  0  0
 79152  1  0  0  0
 80 81  1  0  0  0
 80 83  1  0  0  0
 80153  1  0  0  0
 80154  1  0  0  0
 81155  1  0  0  0
 81156  1  0  0  0
 83157  1  0  0  0
 84158  1  0  0  0
M  ISO  4   1 100  68 101  81 101  84 100
M  END
> <chiral flag>
0

> <version>
0

> <s_m_source_file>
/data/baiqing/PycharmProjects/Reinvent-master-3.2/result/LINK_invent/BTK/process_docking_weight1_custom_sum_contain_oxygen_bond_distance_aromatic_linkinvent_7_9_3/rearranged_h_0137.sdf

> <i_m_source_file_index>
78

> <r_mmod_Potential_Energy-OPLS-2005>
-153.214736938477

> <r_mmod_Stretch_Energy-OPLS-2005>
137.057846069336

> <r_mmod_Bend_Energy-OPLS-2005>
196.450836181641

> <r_mmod_Torsional_Energy-OPLS-2005>
240.991439819336

> <r_mmod_Improper_Torsional_Energy-OPLS-2005>
7.06462669372559

> <r_mmod_Van_der_Waal_Energy-OPLS-2005>
133.070281982422

> <r_mmod_Electrostatic_Energy-OPLS-2005>
-716.686828613281

> <r_mmod_Solvation_Energy-OPLS-2005>
-246.461013793945

> <b_mmod_Minimization_Converged-OPLS-2005>
0

> <r_mmod_RMS_Derivative-OPLS-2005>
5.52009344100952

$$$$
78
                    3D
 Structure written by MMmdl.
159169  0  0  1  0            999 V2000
  -30.4719  -15.2974   20.3629 C   0  0  0  0  0  0
  -30.4229  -12.8233   19.5420 C   0  0  0  0  0  0
  -29.5273  -12.5793   18.3039 C   0  0  0  0  0  0
  -28.0834  -12.2984   18.7364 C   0  0  0  0  0  0
  -27.6101  -13.2834   19.8311 C   0  0  2  0  0  0
  -28.6395  -13.4976   20.9651 C   0  0  0  0  0  0
  -25.2391  -13.8293   20.5764 C   0  0  0  0  0  0
  -24.1725  -13.0471   20.9226 C   0  0  0  0  0  0
  -24.6381  -11.6971   20.8758 C   0  0  0  0  0  0
  -23.9087  -10.4312   21.0417 C   0  0  0  0  0  0
  -24.3642   -9.4227   21.9198 C   0  0  0  0  0  0
  -23.6308   -8.2260   22.0768 C   0  0  0  0  0  0
  -22.4277   -8.0288   21.3559 C   0  0  0  0  0  0
  -21.9922   -9.0269   20.4651 C   0  0  0  0  0  0
  -22.7261  -10.2161   20.3059 C   0  0  0  0  0  0
  -21.6877   -6.0750   22.5272 C   0  0  0  0  0  0
  -21.4031   -6.5655   23.8207 C   0  0  0  0  0  0
  -21.3643   -5.6803   24.9164 C   0  0  0  0  0  0
  -21.6041   -4.3064   24.7223 C   0  0  0  0  0  0
  -21.8814   -3.8152   23.4341 C   0  0  0  0  0  0
  -21.9201   -4.6971   22.3397 C   0  0  0  0  0  0
  -22.7739  -13.5201   21.1870 C   0  0  0  0  0  0
  -22.1663   -4.2160   21.0975 F   0  0  0  0  0  0
  -21.5626   -3.4532   25.7744 F   0  0  0  0  0  0
  -29.8789  -13.9936   20.3420 N   0  0  0  0  0  0
  -26.2810  -12.9592   20.3302 N   0  0  0  0  0  0
  -25.9333  -11.6684   20.5751 N   0  0  0  0  0  0
  -22.0428  -12.8174   22.0429 N   0  0  0  0  0  0
  -25.4078  -15.2038   20.4266 N   0  0  0  0  0  0
  -31.6567  -15.2482   19.9918 O   0  0  0  0  0  0
  -21.6644   -6.8892   21.4240 O   0  0  0  0  0  0
  -22.3415  -14.5490   20.6729 O   0  0  0  0  0  0
  -24.6681  -31.8171   23.1608 C   0  0  0  0  0  0
  -25.9342  -32.4532   23.8105 C   0  0  1  0  0  0
  -27.2246  -26.9091   20.1644 C   0  0  0  0  0  0
  -25.5998  -33.8357   24.2018 N   0  0  0  0  0  0
  -23.4828  -30.4341   21.5062 C   0  0  2  0  0  0
  -24.9352  -28.8174   20.0958 C   0  0  0  0  0  0
  -22.7660  -29.4447   22.4692 C   0  0  0  0  0  0
  -18.0330  -28.1410   22.8446 C   0  0  0  0  0  0
  -24.1488  -36.7184   23.2664 C   0  0  0  0  0  0
  -26.0543  -30.6197   21.3934 C   0  0  0  0  0  0
  -26.1167  -29.2090   20.7332 C   0  0  0  0  0  0
  -27.2488  -28.2732   20.7513 C   0  0  0  0  0  0
  -26.0210  -26.6821   19.4593 C   0  0  0  0  0  0
  -24.9123  -27.5736   19.4450 C   0  0  0  0  0  0
  -23.7222  -29.7467   20.1313 C   0  0  0  0  0  0
  -25.4119  -36.2930   24.0305 C   0  0  1  0  0  0
  -20.5957  -28.3745   23.1138 C   0  0  2  0  0  0
  -20.6783  -26.9424   22.5367 C   0  0  0  0  0  0
  -19.5747  -26.6370   21.5182 C   0  0  0  0  0  0
  -18.1940  -26.7944   22.1604 C   0  0  0  0  0  0
  -19.1605  -28.8884   23.2819 C   0  0  0  0  0  0
  -18.9535  -30.1484   23.8845 C   0  0  0  0  0  0
  -17.6525  -30.6603   24.0545 C   0  0  0  0  0  0
  -25.9097  -34.9318   23.4964 C   0  0  0  0  0  0
  -16.5412  -29.9102   23.6339 C   0  0  0  0  0  0
  -16.7314  -28.6511   23.0362 C   0  0  0  0  0  0
  -26.4569  -31.6507   25.0647 C   0  0  0  0  0  0
  -25.3703  -31.3783   26.1308 C   0  0  0  0  0  0
  -27.0485  -30.2862   24.6460 C   0  0  0  0  0  0
  -27.6059  -32.4314   25.7449 C   0  0  0  0  0  0
  -27.5537  -37.1751   24.8478 C   0  0  0  0  0  0
  -21.4321  -29.3063   22.3497 N   0  0  0  0  0  0
  -26.4226  -37.3676   23.9439 N   0  0  0  0  0  0
  -24.7569  -30.9838   22.0735 N   0  0  0  0  0  0
  -23.4172  -28.8007   23.2948 O   0  0  0  0  0  0
  -28.2138  -25.7889   20.2964 O   0  0  0  0  0  0
  -26.5734  -34.8871   22.4581 O   0  0  0  0  0  0
  -23.5718  -32.1147   23.6660 O   0  0  0  0  0  0
  -29.0482  -21.2725   20.0448 C   0  0  0  0  0  0
  -29.1417  -19.9413   20.8406 C   0  0  0  0  0  0
  -28.6527  -20.2529   22.1756 C   0  0  0  0  0  0
  -28.5199  -22.6619   20.4994 C   0  0  0  0  0  0
  -27.9926  -21.4998   22.4546 C   0  0  0  0  0  0
  -28.9395  -19.7453   24.8214 C   0  0  0  0  0  0
  -30.1684  -19.3023   24.1210 C   0  0  0  0  0  0
  -31.0909  -18.2755   21.0953 C   0  0  0  0  0  0
  -30.6566  -17.0547   21.9086 C   0  0  0  0  0  0
  -28.8413  -19.3085   23.3542 C   0  0  0  0  0  0
  -29.7447  -18.2995   20.3837 C   0  0  2  0  0  0
  -28.1710  -24.2164   19.7577 C   0  0  0  0  0  0
  -27.9646  -22.6169   21.7137 N   0  0  0  0  0  0
  -29.8585  -16.6116   20.7648 N   0  0  0  0  0  0
  -27.1941  -21.6796   23.5714 N   0  0  0  0  0  0
  -31.4438  -12.9903   19.2015 H   0  0  0  0  0  0
  -30.4775  -11.9282   20.1616 H   0  0  0  0  0  0
  -29.9087  -11.7452   17.7137 H   0  0  0  0  0  0
  -29.5426  -13.4588   17.6588 H   0  0  0  0  0  0
  -28.0348  -11.2770   19.1140 H   0  0  0  0  0  0
  -27.4142  -12.3288   17.8795 H   0  0  0  0  0  0
  -27.5143  -14.2378   19.3154 H   0  0  0  0  0  0
  -28.8042  -12.5825   21.5351 H   0  0  0  0  0  0
  -28.2629  -14.2444   21.6663 H   0  0  0  0  0  0
  -25.2808   -9.5715   22.4754 H   0  0  0  0  0  0
  -24.0035   -7.4653   22.7498 H   0  0  0  0  0  0
  -21.0850   -8.8769   19.8941 H   0  0  0  0  0  0
  -22.3708  -10.9694   19.6135 H   0  0  0  0  0  0
  -21.2025   -7.6165   23.9712 H   0  0  0  0  0  0
  -21.1465   -6.0532   25.9072 H   0  0  0  0  0  0
  -22.0607   -2.7607   23.2832 H   0  0  0  0  0  0
  -22.4087  -11.9825   22.4783 H   0  0  0  0  0  0
  -21.1047  -13.1167   22.2718 H   0  0  0  0  0  0
  -24.6482  -15.8635   20.5488 H   0  0  0  0  0  0
  -26.2776  -15.6378   20.1454 H   0  0  0  0  0  0
  -26.7400  -32.5091   23.0804 H   0  0  0  0  0  0
  -25.0083  -33.9411   25.0132 H   0  0  0  0  0  0
  -22.8019  -31.2705   21.3265 H   0  0  0  0  0  0
  -23.3733  -35.9538   23.3282 H   0  0  0  0  0  0
  -24.3554  -36.8852   22.2081 H   0  0  0  0  0  0
  -23.7264  -37.6370   23.6724 H   0  0  0  0  0  0
  -26.2406  -31.3661   20.6202 H   0  0  0  0  0  0
  -26.9130  -30.6677   22.0520 H   0  0  0  0  0  0
  -28.1354  -28.5707   21.2941 H   0  0  0  0  0  0
  -25.8845  -25.7433   18.9429 H   0  0  0  0  0  0
  -24.0157  -27.2602   18.9243 H   0  0  0  0  0  0
  -23.8749  -30.5154   19.3723 H   0  0  0  0  0  0
  -22.8314  -29.2050   19.8103 H   0  0  0  0  0  0
  -25.1328  -36.1639   25.0788 H   0  0  0  0  0  0
  -21.0092  -28.3330   24.1229 H   0  0  0  0  0  0
  -20.5579  -26.2396   23.3634 H   0  0  0  0  0  0
  -21.6667  -26.7346   22.1251 H   0  0  0  0  0  0
  -19.6934  -25.6264   21.1249 H   0  0  0  0  0  0
  -19.6696  -27.3172   20.6701 H   0  0  0  0  0  0
  -17.4229  -26.6679   21.4015 H   0  0  0  0  0  0
  -18.0317  -26.0150   22.9032 H   0  0  0  0  0  0
  -19.8044  -30.7298   24.2173 H   0  0  0  0  0  0
  -17.5125  -31.6274   24.5158 H   0  0  0  0  0  0
  -15.5421  -30.2997   23.7713 H   0  0  0  0  0  0
  -15.8713  -28.0828   22.7099 H   0  0  0  0  0  0
  -24.5953  -30.7019   25.7657 H   0  0  0  0  0  0
  -24.8827  -32.2991   26.4523 H   0  0  0  0  0  0
  -25.7981  -30.9124   27.0215 H   0  0  0  0  0  0
  -26.3176  -29.6494   24.1470 H   0  0  0  0  0  0
  -27.4002  -29.7219   25.5134 H   0  0  0  0  0  0
  -27.9096  -30.4010   23.9880 H   0  0  0  0  0  0
  -27.2646  -33.3696   26.1825 H   0  0  0  0  0  0
  -28.3993  -32.6753   25.0362 H   0  0  0  0  0  0
  -28.0611  -31.8572   26.5541 H   0  0  0  0  0  0
  -28.2548  -38.0048   24.7500 H   0  0  0  0  0  0
  -28.1024  -36.2577   24.6295 H   0  0  0  0  0  0
  -27.2269  -37.1390   25.8885 H   0  0  0  0  0  0
  -20.9537  -29.8805   21.6701 H   0  0  0  0  0  0
  -26.0038  -38.2718   24.1459 H   0  0  0  0  0  0
  -29.3948  -21.2179   19.0209 H   0  0  0  0  0  0
  -28.9923  -20.7874   25.1265 H   0  0  0  0  0  0
  -28.5387  -19.0728   25.5791 H   0  0  0  0  0  0
  -30.5933  -18.3876   24.5279 H   0  0  0  0  0  0
  -30.8977  -20.0818   23.8985 H   0  0  0  0  0  0
  -31.9030  -18.0680   20.3958 H   0  0  0  0  0  0
  -31.3374  -19.1487   21.6978 H   0  0  0  0  0  0
  -31.5174  -16.4517   22.2103 H   0  0  0  0  0  0
  -30.0411  -17.1884   22.7812 H   0  0  0  0  0  0
  -28.2928  -18.3803   23.1881 H   0  0  0  0  0  0
  -28.7599  -18.1961   20.8347 H   0  0  0  0  0  0
  -27.1468  -24.0722   19.4193 H   0  0  0  0  0  0
  -28.7442  -24.2220   18.8309 H   0  0  0  0  0  0
  -27.1963  -21.0047   24.3257 H   0  0  0  0  0  0
  -26.8302  -22.5955   23.7967 H   0  0  0  0  0  0
  1 25  1  0  0  0
  1 30  2  0  0  0
  1 84  1  0  0  0
  2  3  1  0  0  0
  2 25  1  0  0  0
  2 86  1  0  0  0
  2 87  1  0  0  0
  3  4  1  0  0  0
  3 88  1  0  0  0
  3 89  1  0  0  0
  4  5  1  0  0  0
  4 90  1  0  0  0
  4 91  1  0  0  0
  5  6  1  0  0  0
  5 26  1  0  0  0
  5 92  1  0  0  0
  6 25  1  0  0  0
  6 93  1  0  0  0
  6 94  1  0  0  0
  7  8  2  0  0  0
  7 26  1  0  0  0
  7 29  1  0  0  0
  8  9  1  0  0  0
  8 22  1  0  0  0
  9 10  1  0  0  0
  9 27  2  0  0  0
 10 11  2  0  0  0
 10 15  1  0  0  0
 11 12  1  0  0  0
 11 95  1  0  0  0
 12 13  2  0  0  0
 12 96  1  0  0  0
 13 14  1  0  0  0
 13 31  1  0  0  0
 14 15  2  0  0  0
 14 97  1  0  0  0
 15 98  1  0  0  0
 16 17  2  0  0  0
 16 21  1  0  0  0
 16 31  1  0  0  0
 17 18  1  0  0  0
 17 99  1  0  0  0
 18 19  2  0  0  0
 18100  1  0  0  0
 19 20  1  0  0  0
 19 24  1  0  0  0
 20 21  2  0  0  0
 20101  1  0  0  0
 21 23  1  0  0  0
 22 28  1  0  0  0
 22 32  2  0  0  0
 26 27  1  0  0  0
 28102  1  0  0  0
 28103  1  0  0  0
 29104  1  0  0  0
 29105  1  0  0  0
 33 34  1  0  0  0
 33 66  1  0  0  0
 33 70  2  0  0  0
 34 36  1  0  0  0
 34 59  1  0  0  0
 34106  1  0  0  0
 35 44  2  0  0  0
 35 45  1  0  0  0
 35 68  1  0  0  0
 36 56  1  0  0  0
 36107  1  0  0  0
 37 39  1  0  0  0
 37 47  1  0  0  0
 37 66  1  0  0  0
 37108  1  0  0  0
 38 43  2  0  0  0
 38 46  1  0  0  0
 38 47  1  0  0  0
 39 64  1  0  0  0
 39 67  2  0  0  0
 40 52  1  0  0  0
 40 53  2  0  0  0
 40 58  1  0  0  0
 41109  1  0  0  0
 41110  1  0  0  0
 41111  1  0  0  0
 41 48  1  0  0  0
 42 43  1  0  0  0
 42 66  1  0  0  0
 42112  1  0  0  0
 42113  1  0  0  0
 43 44  1  0  0  0
 44114  1  0  0  0
 45 46  2  0  0  0
 45115  1  0  0  0
 46116  1  0  0  0
 47117  1  0  0  0
 47118  1  0  0  0
 48 56  1  0  0  0
 48 65  1  0  0  0
 48119  1  0  0  0
 49 50  1  0  0  0
 49 53  1  0  0  0
 49 64  1  0  0  0
 49120  1  0  0  0
 50 51  1  0  0  0
 50121  1  0  0  0
 50122  1  0  0  0
 51 52  1  0  0  0
 51123  1  0  0  0
 51124  1  0  0  0
 52125  1  0  0  0
 52126  1  0  0  0
 53 54  1  0  0  0
 54 55  2  0  0  0
 54127  1  0  0  0
 55 57  1  0  0  0
 55128  1  0  0  0
 56 69  2  0  0  0
 57 58  2  0  0  0
 57129  1  0  0  0
 58130  1  0  0  0
 59 60  1  0  0  0
 59 61  1  0  0  0
 59 62  1  0  0  0
 60131  1  0  0  0
 60132  1  0  0  0
 60133  1  0  0  0
 61134  1  0  0  0
 61135  1  0  0  0
 61136  1  0  0  0
 62137  1  0  0  0
 62138  1  0  0  0
 62139  1  0  0  0
 63 65  1  0  0  0
 63140  1  0  0  0
 63141  1  0  0  0
 63142  1  0  0  0
 64143  1  0  0  0
 65144  1  0  0  0
 68 82  1  0  0  0
 71 72  2  0  0  0
 71 74  1  0  0  0
 71145  1  0  0  0
 72 73  1  0  0  0
 72 81  1  0  0  0
 73 75  2  0  0  0
 73 80  1  0  0  0
 74 82  1  0  0  0
 74 83  2  0  0  0
 75 83  1  0  0  0
 75 85  1  0  0  0
 76 77  1  0  0  0
 76 80  1  0  0  0
 76146  1  0  0  0
 76147  1  0  0  0
 77 80  1  0  0  0
 77148  1  0  0  0
 77149  1  0  0  0
 78 79  1  0  0  0
 78 81  1  0  0  0
 78150  1  0  0  0
 78151  1  0  0  0
 79 84  1  0  0  0
 79152  1  0  0  0
 79153  1  0  0  0
 80154  1  0  0  0
 81 84  1  0  0  0
 81155  1  0  0  0
 82156  1  0  0  0
 82157  1  0  0  0
 85158  1  0  0  0
 85159  1  0  0  0
M  ISO  4   1 100  68 101  82 101  84 100
M  END
> <chiral flag>
0

> <version>
0

> <s_m_source_file>
/data/baiqing/PycharmProjects/Reinvent-master-3.2/result/LINK_invent/BTK/process_docking_weight1_custom_sum_contain_oxygen_bond_distance_aromatic_linkinvent_7_9_3/rearranged_h_0137.sdf

> <i_m_source_file_index>
79

> <r_mmod_Potential_Energy-OPLS-2005>
1558.84716796875

> <r_mmod_Stretch_Energy-OPLS-2005>
687.057922363281

> <r_mmod_Bend_Energy-OPLS-2005>
725.065307617188

> <r_mmod_Torsional_Energy-OPLS-2005>
303.740631103516

> <r_mmod_Improper_Torsional_Energy-OPLS-2005>
11.7215204238892

> <r_mmod_Van_der_Waal_Energy-OPLS-2005>
167.642288208008

> <r_mmod_Electrostatic_Energy-OPLS-2005>
-601.066284179688

> <r_mmod_Solvation_Energy-OPLS-2005>
-224.312408447266

> <b_mmod_Minimization_Converged-OPLS-2005>
0

> <r_mmod_RMS_Derivative-OPLS-2005>
5.89156055450439

$$$$
79
                    3D
 Structure written by MMmdl.
154163  0  0  1  0            999 V2000
  -30.5105  -14.9231   20.4311 C   0  0  0  0  0  0
  -30.4511  -12.5660   19.4939 C   0  0  0  0  0  0
  -29.5266  -12.5369   18.2533 C   0  0  0  0  0  0
  -28.0567  -12.3244   18.6658 C   0  0  0  0  0  0
  -27.6367  -13.2393   19.8452 C   0  0  2  0  0  0
  -28.6797  -13.2234   20.9837 C   0  0  0  0  0  0
  -25.2489  -13.8195   20.5686 C   0  0  0  0  0  0
  -24.1799  -13.0440   20.9234 C   0  0  0  0  0  0
  -24.6395  -11.6920   20.8756 C   0  0  0  0  0  0
  -23.9073  -10.4295   21.0413 C   0  0  0  0  0  0
  -24.3623   -9.4208   21.9188 C   0  0  0  0  0  0
  -23.6293   -8.2247   22.0757 C   0  0  0  0  0  0
  -22.4274   -8.0286   21.3548 C   0  0  0  0  0  0
  -21.9910   -9.0262   20.4652 C   0  0  0  0  0  0
  -22.7245  -10.2138   20.3064 C   0  0  0  0  0  0
  -21.6854   -6.0736   22.5276 C   0  0  0  0  0  0
  -21.4017   -6.5640   23.8212 C   0  0  0  0  0  0
  -21.3660   -5.6792   24.9174 C   0  0  0  0  0  0
  -21.6045   -4.3054   24.7226 C   0  0  0  0  0  0
  -21.8818   -3.8145   23.4345 C   0  0  0  0  0  0
  -21.9191   -4.6963   22.3400 C   0  0  0  0  0  0
  -22.7820  -13.5227   21.1883 C   0  0  0  0  0  0
  -22.1660   -4.2149   21.0977 F   0  0  0  0  0  0
  -21.5628   -3.4537   25.7738 F   0  0  0  0  0  0
  -29.9644  -13.6415   20.4012 N   0  0  0  0  0  0
  -26.2908  -12.9407   20.3235 N   0  0  0  0  0  0
  -25.9324  -11.6548   20.5730 N   0  0  0  0  0  0
  -22.0454  -12.8222   22.0434 N   0  0  0  0  0  0
  -25.4156  -15.1915   20.4041 N   0  0  0  0  0  0
  -31.7032  -15.0466   20.1229 O   0  0  0  0  0  0
  -21.6641   -6.8882   21.4240 O   0  0  0  0  0  0
  -22.3511  -14.5529   20.6716 O   0  0  0  0  0  0
  -24.6434  -31.8448   23.1888 C   0  0  0  0  0  0
  -25.9207  -32.4698   23.8280 C   0  0  1  0  0  0
  -27.2184  -27.1412   20.1491 C   0  0  0  0  0  0
  -25.5956  -33.8504   24.2193 N   0  0  0  0  0  0
  -23.4467  -30.4645   21.5349 C   0  0  2  0  0  0
  -24.8959  -28.8932   20.1106 C   0  0  0  0  0  0
  -22.7570  -29.4549   22.4865 C   0  0  0  0  0  0
  -18.0306  -28.1398   22.8476 C   0  0  0  0  0  0
  -24.1492  -36.7258   23.2641 C   0  0  0  0  0  0
  -26.0029  -30.7196   21.3877 C   0  0  0  0  0  0
  -26.0741  -29.3318   20.7281 C   0  0  0  0  0  0
  -27.2363  -28.4726   20.7299 C   0  0  0  0  0  0
  -26.0114  -26.8033   19.4957 C   0  0  0  0  0  0
  -24.8772  -27.6417   19.4792 C   0  0  0  0  0  0
  -23.6728  -29.7952   20.1537 C   0  0  0  0  0  0
  -25.4123  -36.3033   24.0314 C   0  0  1  0  0  0
  -20.5919  -28.3721   23.1237 C   0  0  2  0  0  0
  -20.6794  -26.9425   22.5403 C   0  0  0  0  0  0
  -19.5765  -26.6379   21.5215 C   0  0  0  0  0  0
  -18.1946  -26.7934   22.1626 C   0  0  0  0  0  0
  -19.1564  -28.8878   23.2846 C   0  0  0  0  0  0
  -18.9480  -30.1476   23.8870 C   0  0  0  0  0  0
  -17.6477  -30.6591   24.0560 C   0  0  0  0  0  0
  -25.9075  -34.9408   23.5062 C   0  0  0  0  0  0
  -16.5367  -29.9084   23.6337 C   0  0  0  0  0  0
  -16.7290  -28.6505   23.0352 C   0  0  0  0  0  0
  -26.4521  -31.6568   25.0725 C   0  0  0  0  0  0
  -25.3704  -31.3769   26.1421 C   0  0  0  0  0  0
  -27.0386  -30.2963   24.6313 C   0  0  0  0  0  0
  -27.6049  -32.4336   25.7510 C   0  0  0  0  0  0
  -27.5576  -37.1784   24.8461 C   0  0  0  0  0  0
  -21.4264  -29.3046   22.3612 N   0  0  0  0  0  0
  -26.4284  -37.3747   23.9407 N   0  0  0  0  0  0
  -24.7175  -31.0306   22.0920 N   0  0  0  0  0  0
  -23.4212  -28.8098   23.3016 O   0  0  0  0  0  0
  -28.2725  -26.1575   20.2182 O   0  0  0  0  0  0
  -26.5659  -34.8906   22.4639 O   0  0  0  0  0  0
  -23.5554  -32.1326   23.7107 O   0  0  0  0  0  0
  -28.2115  -18.0674   20.7210 C   0  0  0  0  0  0
  -30.1374  -19.9002   20.2397 C   0  0  0  0  0  0
  -27.8720  -19.4663   20.6532 C   0  0  0  0  0  0
  -28.8299  -20.4989   20.3968 C   0  0  0  0  0  0
  -29.5195  -17.5330   20.5378 C   0  0  0  0  0  0
  -26.0086  -20.7060   22.0208 C   0  0  0  0  0  0
  -25.5988  -19.2541   21.9626 C   0  0  0  0  0  0
  -26.4339  -19.8497   20.8500 C   0  0  0  0  0  0
  -27.9700  -24.6350   20.0844 C   0  0  0  0  0  0
  -28.9493  -23.2777   20.3241 C   0  0  0  0  0  0
  -30.4560  -18.5256   20.2997 N   0  0  0  0  0  0
  -29.6264  -16.0087   20.6484 N   0  0  0  0  0  0
  -28.3271  -21.8760   20.2850 O   0  0  0  0  0  0
  -31.4850  -12.7322   19.1876 H   0  0  0  0  0  0
  -30.4428  -11.6020   20.0048 H   0  0  0  0  0  0
  -29.8399  -11.7522   17.5632 H   0  0  0  0  0  0
  -29.6199  -13.4772   17.7074 H   0  0  0  0  0  0
  -27.9424  -11.2782   18.9528 H   0  0  0  0  0  0
  -27.3983  -12.4808   17.8109 H   0  0  0  0  0  0
  -27.6109  -14.2500   19.4371 H   0  0  0  0  0  0
  -28.7561  -12.2296   21.4274 H   0  0  0  0  0  0
  -28.3807  -13.8934   21.7916 H   0  0  0  0  0  0
  -25.2767   -9.5683   22.4765 H   0  0  0  0  0  0
  -24.0001   -7.4634   22.7473 H   0  0  0  0  0  0
  -21.0842   -8.8786   19.8955 H   0  0  0  0  0  0
  -22.3705  -10.9680   19.6176 H   0  0  0  0  0  0
  -21.2013   -7.6148   23.9715 H   0  0  0  0  0  0
  -21.1482   -6.0523   25.9078 H   0  0  0  0  0  0
  -22.0594   -2.7606   23.2847 H   0  0  0  0  0  0
  -22.4068  -11.9889   22.4836 H   0  0  0  0  0  0
  -21.1074  -13.1251   22.2633 H   0  0  0  0  0  0
  -24.6291  -15.8272   20.4825 H   0  0  0  0  0  0
  -26.2161  -15.6104   19.9506 H   0  0  0  0  0  0
  -26.7277  -32.5304   23.1015 H   0  0  0  0  0  0
  -25.0080  -33.9621   25.0325 H   0  0  0  0  0  0
  -22.7490  -31.2904   21.3816 H   0  0  0  0  0  0
  -23.3759  -35.9584   23.3286 H   0  0  0  0  0  0
  -24.3578  -36.8909   22.2059 H   0  0  0  0  0  0
  -23.7245  -37.6447   23.6692 H   0  0  0  0  0  0
  -26.1595  -31.4750   20.6166 H   0  0  0  0  0  0
  -26.8729  -30.7684   22.0307 H   0  0  0  0  0  0
  -28.1330  -28.8032   21.2346 H   0  0  0  0  0  0
  -25.9039  -25.8480   19.0062 H   0  0  0  0  0  0
  -23.9779  -27.2997   18.9856 H   0  0  0  0  0  0
  -23.8107  -30.5706   19.3995 H   0  0  0  0  0  0
  -22.7871  -29.2390   19.8411 H   0  0  0  0  0  0
  -25.1310  -36.1860   25.0806 H   0  0  0  0  0  0
  -21.0008  -28.3313   24.1359 H   0  0  0  0  0  0
  -20.5697  -26.2334   23.3623 H   0  0  0  0  0  0
  -21.6661  -26.7437   22.1198 H   0  0  0  0  0  0
  -19.6928  -25.6284   21.1258 H   0  0  0  0  0  0
  -19.6697  -27.3178   20.6735 H   0  0  0  0  0  0
  -17.4214  -26.6676   21.4031 H   0  0  0  0  0  0
  -18.0344  -26.0085   22.9030 H   0  0  0  0  0  0
  -19.7956  -30.7303   24.2223 H   0  0  0  0  0  0
  -17.5027  -31.6267   24.5170 H   0  0  0  0  0  0
  -15.5367  -30.2974   23.7676 H   0  0  0  0  0  0
  -15.8691  -28.0815   22.7075 H   0  0  0  0  0  0
  -24.5866  -30.7139   25.7742 H   0  0  0  0  0  0
  -24.8916  -32.2960   26.4809 H   0  0  0  0  0  0
  -25.7979  -30.8957   27.0226 H   0  0  0  0  0  0
  -26.3008  -29.6685   24.1305 H   0  0  0  0  0  0
  -27.3978  -29.7264   25.4893 H   0  0  0  0  0  0
  -27.8924  -30.4195   23.9647 H   0  0  0  0  0  0
  -27.2636  -33.3650   26.2040 H   0  0  0  0  0  0
  -28.3883  -32.6876   25.0358 H   0  0  0  0  0  0
  -28.0691  -31.8498   26.5468 H   0  0  0  0  0  0
  -28.2580  -38.0093   24.7515 H   0  0  0  0  0  0
  -28.1086  -36.2624   24.6277 H   0  0  0  0  0  0
  -27.2296  -37.1419   25.8864 H   0  0  0  0  0  0
  -20.9481  -29.8754   21.6783 H   0  0  0  0  0  0
  -26.0149  -38.2813   24.1415 H   0  0  0  0  0  0
  -27.4043  -17.3765   20.9179 H   0  0  0  0  0  0
  -30.9760  -20.5454   20.0250 H   0  0  0  0  0  0
  -26.7726  -20.9846   22.7445 H   0  0  0  0  0  0
  -25.2332  -21.4490   21.8467 H   0  0  0  0  0  0
  -24.5518  -19.0445   21.7522 H   0  0  0  0  0  0
  -26.0804  -18.5754   22.6642 H   0  0  0  0  0  0
  -25.9477  -20.0293   19.8928 H   0  0  0  0  0  0
  -27.1083  -24.4728   20.7328 H   0  0  0  0  0  0
  -27.5892  -24.5053   19.0719 H   0  0  0  0  0  0
  -29.4213  -23.3763   21.3019 H   0  0  0  0  0  0
  -29.7632  -23.3022   19.5996 H   0  0  0  0  0  0
  -28.7343  -15.6160   20.8987 H   0  0  0  0  0  0
  1 25  1  0  0  0
  1 30  2  0  0  0
  1 82  1  0  0  0
  2  3  1  0  0  0
  2 25  1  0  0  0
  2 84  1  0  0  0
  2 85  1  0  0  0
  3  4  1  0  0  0
  3 86  1  0  0  0
  3 87  1  0  0  0
  4  5  1  0  0  0
  4 88  1  0  0  0
  4 89  1  0  0  0
  5  6  1  0  0  0
  5 26  1  0  0  0
  5 90  1  0  0  0
  6 25  1  0  0  0
  6 91  1  0  0  0
  6 92  1  0  0  0
  7  8  2  0  0  0
  7 26  1  0  0  0
  7 29  1  0  0  0
  8  9  1  0  0  0
  8 22  1  0  0  0
  9 10  1  0  0  0
  9 27  2  0  0  0
 10 11  2  0  0  0
 10 15  1  0  0  0
 11 12  1  0  0  0
 11 93  1  0  0  0
 12 13  2  0  0  0
 12 94  1  0  0  0
 13 14  1  0  0  0
 13 31  1  0  0  0
 14 15  2  0  0  0
 14 95  1  0  0  0
 15 96  1  0  0  0
 16 17  2  0  0  0
 16 21  1  0  0  0
 16 31  1  0  0  0
 17 18  1  0  0  0
 17 97  1  0  0  0
 18 19  2  0  0  0
 18 98  1  0  0  0
 19 20  1  0  0  0
 19 24  1  0  0  0
 20 21  2  0  0  0
 20 99  1  0  0  0
 21 23  1  0  0  0
 22 28  1  0  0  0
 22 32  2  0  0  0
 26 27  1  0  0  0
 28100  1  0  0  0
 28101  1  0  0  0
 29102  1  0  0  0
 29103  1  0  0  0
 33 34  1  0  0  0
 33 66  1  0  0  0
 33 70  2  0  0  0
 34 36  1  0  0  0
 34 59  1  0  0  0
 34104  1  0  0  0
 35 44  2  0  0  0
 35 45  1  0  0  0
 35 68  1  0  0  0
 36 56  1  0  0  0
 36105  1  0  0  0
 37 39  1  0  0  0
 37 47  1  0  0  0
 37 66  1  0  0  0
 37106  1  0  0  0
 38 43  2  0  0  0
 38 46  1  0  0  0
 38 47  1  0  0  0
 39 64  1  0  0  0
 39 67  2  0  0  0
 40 52  1  0  0  0
 40 53  2  0  0  0
 40 58  1  0  0  0
 41107  1  0  0  0
 41108  1  0  0  0
 41109  1  0  0  0
 41 48  1  0  0  0
 42 43  1  0  0  0
 42 66  1  0  0  0
 42110  1  0  0  0
 42111  1  0  0  0
 43 44  1  0  0  0
 44112  1  0  0  0
 45 46  2  0  0  0
 45113  1  0  0  0
 46114  1  0  0  0
 47115  1  0  0  0
 47116  1  0  0  0
 48 56  1  0  0  0
 48 65  1  0  0  0
 48117  1  0  0  0
 49 50  1  0  0  0
 49 53  1  0  0  0
 49 64  1  0  0  0
 49118  1  0  0  0
 50 51  1  0  0  0
 50119  1  0  0  0
 50120  1  0  0  0
 51 52  1  0  0  0
 51121  1  0  0  0
 51122  1  0  0  0
 52123  1  0  0  0
 52124  1  0  0  0
 53 54  1  0  0  0
 54 55  2  0  0  0
 54125  1  0  0  0
 55 57  1  0  0  0
 55126  1  0  0  0
 56 69  2  0  0  0
 57 58  2  0  0  0
 57127  1  0  0  0
 58128  1  0  0  0
 59 60  1  0  0  0
 59 61  1  0  0  0
 59 62  1  0  0  0
 60129  1  0  0  0
 60130  1  0  0  0
 60131  1  0  0  0
 61132  1  0  0  0
 61133  1  0  0  0
 61134  1  0  0  0
 62135  1  0  0  0
 62136  1  0  0  0
 62137  1  0  0  0
 63 65  1  0  0  0
 63138  1  0  0  0
 63139  1  0  0  0
 63140  1  0  0  0
 64141  1  0  0  0
 65142  1  0  0  0
 68 79  1  0  0  0
 71 73  2  0  0  0
 71 75  1  0  0  0
 71143  1  0  0  0
 72 74  2  0  0  0
 72 81  1  0  0  0
 72144  1  0  0  0
 73 74  1  0  0  0
 73 78  1  0  0  0
 74 83  1  0  0  0
 75 81  2  0  0  0
 75 82  1  0  0  0
 76 77  1  0  0  0
 76 78  1  0  0  0
 76145  1  0  0  0
 76146  1  0  0  0
 77 78  1  0  0  0
 77147  1  0  0  0
 77148  1  0  0  0
 78149  1  0  0  0
 79 80  1  0  0  0
 79150  1  0  0  0
 79151  1  0  0  0
 80 83  1  0  0  0
 80152  1  0  0  0
 80153  1  0  0  0
 82154  1  0  0  0
M  ISO  4   1 100  68 101  79 101  82 100
M  END
> <chiral flag>
0

> <version>
0

> <s_m_source_file>
/data/baiqing/PycharmProjects/Reinvent-master-3.2/result/LINK_invent/BTK/process_docking_weight1_custom_sum_contain_oxygen_bond_distance_aromatic_linkinvent_7_9_3/rearranged_h_0137.sdf

> <i_m_source_file_index>
80

> <r_mmod_Potential_Energy-OPLS-2005>
399.379669189453

> <r_mmod_Stretch_Energy-OPLS-2005>
226.296905517578

> <r_mmod_Bend_Energy-OPLS-2005>
313.954040527344

> <r_mmod_Torsional_Energy-OPLS-2005>
235.156005859375

> <r_mmod_Improper_Torsional_Energy-OPLS-2005>
4.65514421463013

> <r_mmod_Van_der_Waal_Energy-OPLS-2005>
128.905578613281

> <r_mmod_Electrostatic_Energy-OPLS-2005>
-454.99560546875

> <r_mmod_Solvation_Energy-OPLS-2005>
-235.890686035156

> <b_mmod_Minimization_Converged-OPLS-2005>
0

> <r_mmod_RMS_Derivative-OPLS-2005>
0.791295528411865

$$$$
80
                    3D
 Structure written by MMmdl.
172182  0  0  1  0            999 V2000
  -30.6782  -14.5194   20.5247 C   0  0  0  0  0  0
  -30.4237  -12.3210   19.4437 C   0  0  0  0  0  0
  -29.4996  -12.4966   18.2200 C   0  0  0  0  0  0
  -28.0213  -12.3527   18.6311 C   0  0  0  0  0  0
  -27.6588  -13.2092   19.8740 C   0  0  2  0  0  0
  -28.6993  -13.0292   21.0035 C   0  0  0  0  0  0
  -25.2579  -13.8168   20.5685 C   0  0  0  0  0  0
  -24.1836  -13.0446   20.9191 C   0  0  0  0  0  0
  -24.6387  -11.6909   20.8739 C   0  0  0  0  0  0
  -23.9052  -10.4291   21.0408 C   0  0  0  0  0  0
  -24.3611   -9.4206   21.9184 C   0  0  0  0  0  0
  -23.6291   -8.2236   22.0750 C   0  0  0  0  0  0
  -22.4269   -8.0279   21.3547 C   0  0  0  0  0  0
  -21.9904   -9.0248   20.4643 C   0  0  0  0  0  0
  -22.7228  -10.2130   20.3053 C   0  0  0  0  0  0
  -21.6856   -6.0735   22.5276 C   0  0  0  0  0  0
  -21.4012   -6.5637   23.8206 C   0  0  0  0  0  0
  -21.3663   -5.6792   24.9171 C   0  0  0  0  0  0
  -21.6046   -4.3053   24.7222 C   0  0  0  0  0  0
  -21.8822   -3.8143   23.4345 C   0  0  0  0  0  0
  -21.9191   -4.6959   22.3400 C   0  0  0  0  0  0
  -22.7859  -13.5241   21.1860 C   0  0  0  0  0  0
  -22.1665   -4.2146   21.0978 F   0  0  0  0  0  0
  -21.5633   -3.4537   25.7737 F   0  0  0  0  0  0
  -30.0274  -13.3255   20.4458 N   0  0  0  0  0  0
  -26.3008  -12.9335   20.3363 N   0  0  0  0  0  0
  -25.9315  -11.6493   20.5779 N   0  0  0  0  0  0
  -22.0499  -12.8217   22.0408 N   0  0  0  0  0  0
  -25.4297  -15.1889   20.4094 N   0  0  0  0  0  0
  -31.8308  -14.6718   20.1115 O   0  0  0  0  0  0
  -21.6640   -6.8873   21.4235 O   0  0  0  0  0  0
  -22.3548  -14.5552   20.6723 O   0  0  0  0  0  0
  -24.6151  -31.8677   23.2089 C   0  0  0  0  0  0
  -25.9038  -32.4824   23.8388 C   0  0  1  0  0  0
  -27.2324  -27.4021   20.1250 C   0  0  0  0  0  0
  -25.5912  -33.8627   24.2330 N   0  0  0  0  0  0
  -23.4048  -30.4882   21.5492 C   0  0  2  0  0  0
  -24.8537  -28.9433   20.1228 C   0  0  0  0  0  0
  -22.7420  -29.4642   22.4992 C   0  0  0  0  0  0
  -18.0276  -28.1379   22.8483 C   0  0  0  0  0  0
  -24.1484  -36.7314   23.2643 C   0  0  0  0  0  0
  -25.9340  -30.8231   21.3660 C   0  0  0  0  0  0
  -26.0123  -29.4487   20.7270 C   0  0  0  0  0  0
  -27.2038  -28.6839   20.7299 C   0  0  0  0  0  0
  -26.0631  -26.9211   19.5017 C   0  0  0  0  0  0
  -24.8752  -27.6781   19.5071 C   0  0  0  0  0  0
  -23.6174  -29.8159   20.1655 C   0  0  0  0  0  0
  -25.4103  -36.3117   24.0349 C   0  0  1  0  0  0
  -20.5869  -28.3663   23.1330 C   0  0  2  0  0  0
  -20.6761  -26.9401   22.5427 C   0  0  0  0  0  0
  -19.5744  -26.6382   21.5228 C   0  0  0  0  0  0
  -18.1918  -26.7922   22.1622 C   0  0  0  0  0  0
  -19.1530  -28.8834   23.2895 C   0  0  0  0  0  0
  -18.9457  -30.1436   23.8906 C   0  0  0  0  0  0
  -17.6464  -30.6581   24.0553 C   0  0  0  0  0  0
  -25.9042  -34.9488   23.5138 C   0  0  0  0  0  0
  -16.5353  -29.9079   23.6332 C   0  0  0  0  0  0
  -16.7262  -28.6502   23.0340 C   0  0  0  0  0  0
  -26.4472  -31.6610   25.0722 C   0  0  0  0  0  0
  -25.3737  -31.3711   26.1476 C   0  0  0  0  0  0
  -27.0322  -30.3069   24.6074 C   0  0  0  0  0  0
  -27.6049  -32.4335   25.7477 C   0  0  0  0  0  0
  -27.5580  -37.1801   24.8472 C   0  0  0  0  0  0
  -21.4147  -29.3035   22.3737 N   0  0  0  0  0  0
  -26.4286  -37.3799   23.9412 N   0  0  0  0  0  0
  -24.6690  -31.0754   22.0997 N   0  0  0  0  0  0
  -23.4182  -28.8181   23.3044 O   0  0  0  0  0  0
  -28.4010  -26.6735   20.0391 O   0  0  0  0  0  0
  -26.5596  -34.8929   22.4693 O   0  0  0  0  0  0
  -23.5342  -32.1442   23.7482 O   0  0  0  0  0  0
  -27.8688  -24.4828   21.0950 C   0  0  0  0  0  0
  -30.2743  -24.7708   22.3441 C   0  0  0  0  0  0
  -29.4925  -23.6494   22.6944 C   0  0  0  0  0  0
  -28.2593  -23.4570   22.0112 C   0  0  0  0  0  0
  -28.6813  -25.6259   20.9038 C   0  0  0  0  0  0
  -29.4059  -22.8501   25.2022 C   0  0  0  0  0  0
  -30.8336  -23.2638   24.9440 C   0  0  0  0  0  0
  -28.6851  -18.9104   23.2515 C   0  0  0  0  0  0
  -27.6591  -20.0329   23.4516 C   0  0  0  0  0  0
  -28.7843  -20.3698   21.3563 C   0  0  0  0  0  0
  -29.9776  -22.7474   23.8045 C   0  0  0  0  0  0
  -28.9243  -18.8583   21.7409 C   0  0  1  0  0  0
  -25.8651  -22.4951   21.8365 C   0  0  0  0  0  0
  -30.2395  -18.1012   21.3711 C   0  0  0  0  0  0
  -30.1210  -16.9633   20.3129 C   0  0  0  0  0  0
  -27.2861  -22.3069   22.4000 C   0  0  1  0  0  0
  -29.8901  -25.7307   21.4827 N   0  0  0  0  0  0
  -29.9089  -15.5905   20.8356 N   0  0  0  0  0  0
  -27.6707  -20.8585   22.2183 N   0  3  2  0  0  0
  -31.4693  -12.4192   19.1450 H   0  0  0  0  0  0
  -30.3261  -11.3176   19.8595 H   0  0  0  0  0  0
  -29.7455  -11.7602   17.4540 H   0  0  0  0  0  0
  -29.6624  -13.4762   17.7682 H   0  0  0  0  0  0
  -27.8404  -11.2984   18.8441 H   0  0  0  0  0  0
  -27.3700  -12.6082   17.7939 H   0  0  0  0  0  0
  -27.6914  -14.2504   19.5534 H   0  0  0  0  0  0
  -28.6785  -12.0081   21.3853 H   0  0  0  0  0  0
  -28.4642  -13.6688   21.8553 H   0  0  0  0  0  0
  -25.2758   -9.5688   22.4761 H   0  0  0  0  0  0
  -24.0004   -7.4630   22.7466 H   0  0  0  0  0  0
  -21.0841   -8.8763   19.8950 H   0  0  0  0  0  0
  -22.3685  -10.9671   19.6166 H   0  0  0  0  0  0
  -21.2000   -7.6142   23.9711 H   0  0  0  0  0  0
  -21.1489   -6.0521   25.9076 H   0  0  0  0  0  0
  -22.0597   -2.7603   23.2843 H   0  0  0  0  0  0
  -22.4119  -11.9865   22.4771 H   0  0  0  0  0  0
  -21.1121  -13.1240   22.2634 H   0  0  0  0  0  0
  -24.6593  -15.8405   20.5081 H   0  0  0  0  0  0
  -26.2750  -15.6237   20.0628 H   0  0  0  0  0  0
  -26.7100  -32.5528   23.1143 H   0  0  0  0  0  0
  -25.0099  -33.9783   25.0502 H   0  0  0  0  0  0
  -22.6973  -31.3073   21.4055 H   0  0  0  0  0  0
  -23.3763  -35.9634   23.3329 H   0  0  0  0  0  0
  -24.3580  -36.8915   22.2055 H   0  0  0  0  0  0
  -23.7227  -37.6518   23.6640 H   0  0  0  0  0  0
  -26.0446  -31.5789   20.5871 H   0  0  0  0  0  0
  -26.8232  -30.8891   21.9786 H   0  0  0  0  0  0
  -28.1028  -29.0707   21.1892 H   0  0  0  0  0  0
  -26.0761  -25.9629   19.0013 H   0  0  0  0  0  0
  -23.9889  -27.2865   19.0262 H   0  0  0  0  0  0
  -23.7289  -30.5888   19.4055 H   0  0  0  0  0  0
  -22.7396  -29.2391   19.8698 H   0  0  0  0  0  0
  -25.1277  -36.1988   25.0844 H   0  0  0  0  0  0
  -20.9954  -28.3217   24.1450 H   0  0  0  0  0  0
  -20.5698  -26.2260   23.3602 H   0  0  0  0  0  0
  -21.6622  -26.7455   22.1196 H   0  0  0  0  0  0
  -19.6922  -25.6306   21.1233 H   0  0  0  0  0  0
  -19.6694  -27.3205   20.6777 H   0  0  0  0  0  0
  -17.4195  -26.6710   21.3996 H   0  0  0  0  0  0
  -18.0274  -26.0053   22.9007 H   0  0  0  0  0  0
  -19.7938  -30.7232   24.2289 H   0  0  0  0  0  0
  -17.5024  -31.6267   24.5146 H   0  0  0  0  0  0
  -15.5348  -30.2978   23.7657 H   0  0  0  0  0  0
  -15.8668  -28.0817   22.7055 H   0  0  0  0  0  0
  -24.5916  -30.7055   25.7819 H   0  0  0  0  0  0
  -24.8909  -32.2856   26.4923 H   0  0  0  0  0  0
  -25.8091  -30.8885   27.0234 H   0  0  0  0  0  0
  -26.2864  -29.6809   24.1160 H   0  0  0  0  0  0
  -27.4184  -29.7315   25.4500 H   0  0  0  0  0  0
  -27.8645  -30.4452   23.9172 H   0  0  0  0  0  0
  -27.2694  -33.3650   26.2035 H   0  0  0  0  0  0
  -28.3848  -32.6874   25.0296 H   0  0  0  0  0  0
  -28.0708  -31.8467   26.5397 H   0  0  0  0  0  0
  -28.2600  -38.0091   24.7516 H   0  0  0  0  0  0
  -28.1072  -36.2629   24.6301 H   0  0  0  0  0  0
  -27.2298  -37.1468   25.8873 H   0  0  0  0  0  0
  -20.9322  -29.8788   21.6977 H   0  0  0  0  0  0
  -26.0208  -38.2887   24.1407 H   0  0  0  0  0  0
  -26.9283  -24.4381   20.5706 H   0  0  0  0  0  0
  -31.2339  -24.9382   22.8088 H   0  0  0  0  0  0
  -28.6940  -23.6464   25.4140 H   0  0  0  0  0  0
  -29.2705  -21.9383   25.7813 H   0  0  0  0  0  0
  -31.6134  -22.6055   25.3240 H   0  0  0  0  0  0
  -31.0508  -24.3271   25.0164 H   0  0  0  0  0  0
  -28.3468  -17.9566   23.6578 H   0  0  0  0  0  0
  -29.6083  -19.1777   23.7676 H   0  0  0  0  0  0
  -27.9023  -20.6010   24.3485 H   0  0  0  0  0  0
  -26.6577  -19.6236   23.5926 H   0  0  0  0  0  0
  -28.5478  -20.5051   20.3008 H   0  0  0  0  0  0
  -29.7104  -20.9073   21.5497 H   0  0  0  0  0  0
  -30.2473  -21.7619   23.4393 H   0  0  0  0  0  0
  -28.0805  -18.3225   21.3015 H   0  0  0  0  0  0
  -25.4564  -23.4635   22.1244 H   0  0  0  0  0  0
  -25.1782  -21.7411   22.2231 H   0  0  0  0  0  0
  -25.8455  -22.4294   20.7479 H   0  0  0  0  0  0
  -30.7174  -17.6931   22.2630 H   0  0  0  0  0  0
  -30.9555  -18.8365   20.9987 H   0  0  0  0  0  0
  -31.0224  -16.9872   19.6971 H   0  0  0  0  0  0
  -29.3121  -17.1898   19.6179 H   0  0  0  0  0  0
  -27.1518  -22.4608   23.4709 H   0  0  0  0  0  0
  -28.9821  -15.3771   21.1735 H   0  0  0  0  0  0
  -26.8663  -20.5086   21.7223 H   0  0  0  0  0  0
  1 25  1  0  0  0
  1 30  2  0  0  0
  1 88  1  0  0  0
  2  3  1  0  0  0
  2 25  1  0  0  0
  2 90  1  0  0  0
  2 91  1  0  0  0
  3  4  1  0  0  0
  3 92  1  0  0  0
  3 93  1  0  0  0
  4  5  1  0  0  0
  4 94  1  0  0  0
  4 95  1  0  0  0
  5  6  1  0  0  0
  5 26  1  0  0  0
  5 96  1  0  0  0
  6 25  1  0  0  0
  6 97  1  0  0  0
  6 98  1  0  0  0
  7  8  2  0  0  0
  7 26  1  0  0  0
  7 29  1  0  0  0
  8  9  1  0  0  0
  8 22  1  0  0  0
  9 10  1  0  0  0
  9 27  2  0  0  0
 10 11  2  0  0  0
 10 15  1  0  0  0
 11 12  1  0  0  0
 11 99  1  0  0  0
 12 13  2  0  0  0
 12100  1  0  0  0
 13 14  1  0  0  0
 13 31  1  0  0  0
 14 15  2  0  0  0
 14101  1  0  0  0
 15102  1  0  0  0
 16 17  2  0  0  0
 16 21  1  0  0  0
 16 31  1  0  0  0
 17 18  1  0  0  0
 17103  1  0  0  0
 18 19  2  0  0  0
 18104  1  0  0  0
 19 20  1  0  0  0
 19 24  1  0  0  0
 20 21  2  0  0  0
 20105  1  0  0  0
 21 23  1  0  0  0
 22 28  1  0  0  0
 22 32  2  0  0  0
 26 27  1  0  0  0
 28106  1  0  0  0
 28107  1  0  0  0
 29108  1  0  0  0
 29109  1  0  0  0
 33 34  1  0  0  0
 33 66  1  0  0  0
 33 70  2  0  0  0
 34 36  1  0  0  0
 34 59  1  0  0  0
 34110  1  0  0  0
 35 44  2  0  0  0
 35 45  1  0  0  0
 35 68  1  0  0  0
 36 56  1  0  0  0
 36111  1  0  0  0
 37 39  1  0  0  0
 37 47  1  0  0  0
 37 66  1  0  0  0
 37112  1  0  0  0
 38 43  2  0  0  0
 38 46  1  0  0  0
 38 47  1  0  0  0
 39 64  1  0  0  0
 39 67  2  0  0  0
 40 52  1  0  0  0
 40 53  2  0  0  0
 40 58  1  0  0  0
 41113  1  0  0  0
 41114  1  0  0  0
 41115  1  0  0  0
 41 48  1  0  0  0
 42 43  1  0  0  0
 42 66  1  0  0  0
 42116  1  0  0  0
 42117  1  0  0  0
 43 44  1  0  0  0
 44118  1  0  0  0
 45 46  2  0  0  0
 45119  1  0  0  0
 46120  1  0  0  0
 47121  1  0  0  0
 47122  1  0  0  0
 48 56  1  0  0  0
 48 65  1  0  0  0
 48123  1  0  0  0
 49 50  1  0  0  0
 49 53  1  0  0  0
 49 64  1  0  0  0
 49124  1  0  0  0
 50 51  1  0  0  0
 50125  1  0  0  0
 50126  1  0  0  0
 51 52  1  0  0  0
 51127  1  0  0  0
 51128  1  0  0  0
 52129  1  0  0  0
 52130  1  0  0  0
 53 54  1  0  0  0
 54 55  2  0  0  0
 54131  1  0  0  0
 55 57  1  0  0  0
 55132  1  0  0  0
 56 69  2  0  0  0
 57 58  2  0  0  0
 57133  1  0  0  0
 58134  1  0  0  0
 59 60  1  0  0  0
 59 61  1  0  0  0
 59 62  1  0  0  0
 60135  1  0  0  0
 60136  1  0  0  0
 60137  1  0  0  0
 61138  1  0  0  0
 61139  1  0  0  0
 61140  1  0  0  0
 62141  1  0  0  0
 62142  1  0  0  0
 62143  1  0  0  0
 63 65  1  0  0  0
 63144  1  0  0  0
 63145  1  0  0  0
 63146  1  0  0  0
 64147  1  0  0  0
 65148  1  0  0  0
 68 75  1  0  0  0
 71 74  2  0  0  0
 71 75  1  0  0  0
 71149  1  0  0  0
 72 73  2  0  0  0
 72 87  1  0  0  0
 72150  1  0  0  0
 73 74  1  0  0  0
 73 81  1  0  0  0
 74 86  1  0  0  0
 75 87  2  0  0  0
 76 77  1  0  0  0
 76 81  1  0  0  0
 76151  1  0  0  0
 76152  1  0  0  0
 77 81  1  0  0  0
 77153  1  0  0  0
 77154  1  0  0  0
 78 79  1  0  0  0
 78 82  1  0  0  0
 78155  1  0  0  0
 78156  1  0  0  0
 79157  1  0  0  0
 79158  1  0  0  0
 79 89  1  0  0  0
 80 82  1  0  0  0
 80 89  1  0  0  0
 80159  1  0  0  0
 80160  1  0  0  0
 81161  1  0  0  0
 82 84  1  0  0  0
 82162  1  0  0  0
 83163  1  0  0  0
 83164  1  0  0  0
 83165  1  0  0  0
 83 86  1  0  0  0
 84 85  1  0  0  0
 84166  1  0  0  0
 84167  1  0  0  0
 85 88  1  0  0  0
 85168  1  0  0  0
 85169  1  0  0  0
 86 89  1  0  0  0
 86170  1  0  0  0
 88171  1  0  0  0
 89172  1  0  0  0
M  CHG  1  89   1
M  ISO  4   1 100  68 101  75 101  88 100
M  END
> <chiral flag>
0

> <version>
0

> <s_m_source_file>
/data/baiqing/PycharmProjects/Reinvent-master-3.2/result/LINK_invent/BTK/process_docking_weight1_custom_sum_contain_oxygen_bond_distance_aromatic_linkinvent_7_9_3/rearranged_h_0137.sdf

> <i_m_source_file_index>
81

> <r_mmod_Potential_Energy-OPLS-2005>
-162.6044921875

> <r_mmod_Stretch_Energy-OPLS-2005>
47.9576988220215

> <r_mmod_Bend_Energy-OPLS-2005>
169.1044921875

> <r_mmod_Torsional_Energy-OPLS-2005>
335.552947998047

> <r_mmod_Improper_Torsional_Energy-OPLS-2005>
8.88755321502686

> <r_mmod_Van_der_Waal_Energy-OPLS-2005>
140.815948486328

> <r_mmod_Electrostatic_Energy-OPLS-2005>
-410.976989746094

> <r_mmod_Solvation_Energy-OPLS-2005>
-471.716491699219

> <b_mmod_Minimization_Converged-OPLS-2005>
0

> <r_mmod_RMS_Derivative-OPLS-2005>
2.2289879322052

$$$$
81
                    3D
 Structure written by MMmdl.
159168  0  0  1  0            999 V2000
  -30.6928  -14.6350   20.5174 C   0  0  0  0  0  0
  -30.4226  -12.4015   19.4551 C   0  0  0  0  0  0
  -29.4993  -12.5059   18.2230 C   0  0  0  0  0  0
  -28.0232  -12.3494   18.6368 C   0  0  0  0  0  0
  -27.6492  -13.2248   19.8633 C   0  0  2  0  0  0
  -28.6978  -13.0896   20.9892 C   0  0  0  0  0  0
  -25.2529  -13.8189   20.5691 C   0  0  0  0  0  0
  -24.1810  -13.0441   20.9199 C   0  0  0  0  0  0
  -24.6397  -11.6918   20.8755 C   0  0  0  0  0  0
  -23.9073  -10.4294   21.0409 C   0  0  0  0  0  0
  -24.3621   -9.4206   21.9185 C   0  0  0  0  0  0
  -23.6294   -8.2242   22.0754 C   0  0  0  0  0  0
  -22.4277   -8.0281   21.3543 C   0  0  0  0  0  0
  -21.9913   -9.0258   20.4648 C   0  0  0  0  0  0
  -22.7244  -10.2136   20.3059 C   0  0  0  0  0  0
  -21.6855   -6.0737   22.5278 C   0  0  0  0  0  0
  -21.4015   -6.5641   23.8211 C   0  0  0  0  0  0
  -21.3660   -5.6794   24.9173 C   0  0  0  0  0  0
  -21.6043   -4.3056   24.7225 C   0  0  0  0  0  0
  -21.8820   -3.8148   23.4346 C   0  0  0  0  0  0
  -21.9193   -4.6964   22.3402 C   0  0  0  0  0  0
  -22.7831  -13.5225   21.1857 C   0  0  0  0  0  0
  -22.1660   -4.2148   21.0979 F   0  0  0  0  0  0
  -21.5630   -3.4539   25.7738 F   0  0  0  0  0  0
  -30.0016  -13.4488   20.4139 N   0  0  0  0  0  0
  -26.2973  -12.9392   20.3348 N   0  0  0  0  0  0
  -25.9330  -11.6537   20.5787 N   0  0  0  0  0  0
  -22.0481  -12.8216   22.0419 N   0  0  0  0  0  0
  -25.4212  -15.1906   20.4069 N   0  0  0  0  0  0
  -31.8654  -14.6854   20.1332 O   0  0  0  0  0  0
  -21.6639   -6.8879   21.4239 O   0  0  0  0  0  0
  -22.3511  -14.5528   20.6704 O   0  0  0  0  0  0
  -24.6285  -31.8621   23.2087 C   0  0  0  0  0  0
  -25.9136  -32.4788   23.8397 C   0  0  1  0  0  0
  -27.2025  -27.3032   20.1009 C   0  0  0  0  0  0
  -25.5953  -33.8591   24.2310 N   0  0  0  0  0  0
  -23.4210  -30.4938   21.5524 C   0  0  2  0  0  0
  -24.8638  -28.9669   20.1052 C   0  0  0  0  0  0
  -22.7489  -29.4644   22.4933 C   0  0  0  0  0  0
  -18.0292  -28.1383   22.8486 C   0  0  0  0  0  0
  -24.1492  -36.7295   23.2631 C   0  0  0  0  0  0
  -25.9694  -30.7843   21.3900 C   0  0  0  0  0  0
  -26.0380  -29.4161   20.7233 C   0  0  0  0  0  0
  -27.2094  -28.5939   20.7227 C   0  0  0  0  0  0
  -26.0089  -26.9502   19.4165 C   0  0  0  0  0  0
  -24.8524  -27.7381   19.4433 C   0  0  0  0  0  0
  -23.6350  -29.8473   20.1624 C   0  0  0  0  0  0
  -25.4112  -36.3087   24.0332 C   0  0  1  0  0  0
  -20.5896  -28.3693   23.1270 C   0  0  2  0  0  0
  -20.6783  -26.9414   22.5400 C   0  0  0  0  0  0
  -19.5755  -26.6382   21.5208 C   0  0  0  0  0  0
  -18.1937  -26.7925   22.1625 C   0  0  0  0  0  0
  -19.1545  -28.8854   23.2874 C   0  0  0  0  0  0
  -18.9465  -30.1455   23.8893 C   0  0  0  0  0  0
  -17.6464  -30.6585   24.0561 C   0  0  0  0  0  0
  -25.9057  -34.9456   23.5113 C   0  0  0  0  0  0
  -16.5354  -29.9081   23.6330 C   0  0  0  0  0  0
  -16.7279  -28.6498   23.0353 C   0  0  0  0  0  0
  -26.4508  -31.6591   25.0764 C   0  0  0  0  0  0
  -25.3735  -31.3739   26.1485 C   0  0  0  0  0  0
  -27.0345  -30.3003   24.6241 C   0  0  0  0  0  0
  -27.6071  -32.4322   25.7528 C   0  0  0  0  0  0
  -27.5590  -37.1791   24.8453 C   0  0  0  0  0  0
  -21.4202  -29.3053   22.3669 N   0  0  0  0  0  0
  -26.4284  -37.3787   23.9424 N   0  0  0  0  0  0
  -24.6919  -31.0626   22.1057 N   0  0  0  0  0  0
  -23.4211  -28.8157   23.2992 O   0  0  0  0  0  0
  -28.2640  -26.3697   20.1911 O   0  0  0  0  0  0
  -26.5614  -34.8916   22.4672 O   0  0  0  0  0  0
  -23.5444  -32.1433   23.7399 O   0  0  0  0  0  0
  -27.8067  -22.4925   20.5002 C   0  0  0  0  0  0
  -28.3389  -21.1821   20.6413 C   0  0  0  0  0  0
  -30.0054  -23.4088   20.1908 C   0  0  0  0  0  0
  -28.6111  -23.6425   20.2571 C   0  0  0  0  0  0
  -30.5519  -22.0909   20.3423 C   0  0  0  0  0  0
  -29.7272  -20.9389   20.5506 C   0  0  0  0  0  0
  -29.1346  -17.7432   21.9003 C   0  0  0  0  0  0
  -29.0519  -16.2062   21.7057 C   0  0  0  0  0  0
  -30.5034  -17.1188   20.0779 C   0  0  0  0  0  0
  -29.6099  -18.3088   20.5623 C   0  0  2  0  0  0
  -32.0588  -21.9244   20.2395 C   0  0  0  0  0  0
  -27.8730  -24.9716   19.8594 C   0  0  0  0  0  0
  -30.0084  -15.8313   20.6555 N   0  0  0  0  0  0
  -30.3024  -19.6291   20.6499 N   0  0  0  0  0  0
  -31.4650  -12.4988   19.1474 H   0  0  0  0  0  0
  -30.3466  -11.4132   19.9110 H   0  0  0  0  0  0
  -29.7635  -11.7456   17.4866 H   0  0  0  0  0  0
  -29.6435  -13.4707   17.7340 H   0  0  0  0  0  0
  -27.8596  -11.2971   18.8719 H   0  0  0  0  0  0
  -27.3672  -12.5763   17.7955 H   0  0  0  0  0  0
  -27.6645  -14.2593   19.5192 H   0  0  0  0  0  0
  -28.7217  -12.0651   21.3638 H   0  0  0  0  0  0
  -28.4394  -13.6984   21.8519 H   0  0  0  0  0  0
  -25.2765   -9.5683   22.4759 H   0  0  0  0  0  0
  -24.0004   -7.4632   22.7471 H   0  0  0  0  0  0
  -21.0846   -8.8779   19.8953 H   0  0  0  0  0  0
  -22.3703  -10.9675   19.6170 H   0  0  0  0  0  0
  -21.2008   -7.6150   23.9713 H   0  0  0  0  0  0
  -21.1481   -6.0525   25.9076 H   0  0  0  0  0  0
  -22.0599   -2.7609   23.2844 H   0  0  0  0  0  0
  -22.4100  -11.9876   22.4802 H   0  0  0  0  0  0
  -21.1100  -13.1237   22.2631 H   0  0  0  0  0  0
  -24.6548  -15.8459   20.5151 H   0  0  0  0  0  0
  -26.2730  -15.6277   20.0796 H   0  0  0  0  0  0
  -26.7201  -32.5448   23.1139 H   0  0  0  0  0  0
  -25.0112  -33.9744   25.0463 H   0  0  0  0  0  0
  -22.7152  -31.3163   21.4184 H   0  0  0  0  0  0
  -23.3761  -35.9618   23.3268 H   0  0  0  0  0  0
  -24.3596  -36.8936   22.2051 H   0  0  0  0  0  0
  -23.7229  -37.6487   23.6661 H   0  0  0  0  0  0
  -26.1126  -31.5512   20.6275 H   0  0  0  0  0  0
  -26.8461  -30.8221   22.0246 H   0  0  0  0  0  0
  -28.0989  -28.9248   21.2406 H   0  0  0  0  0  0
  -25.9034  -26.0350   18.8552 H   0  0  0  0  0  0
  -23.9602  -27.3963   18.9367 H   0  0  0  0  0  0
  -23.7566  -30.6331   19.4159 H   0  0  0  0  0  0
  -22.7533  -29.2832   19.8528 H   0  0  0  0  0  0
  -25.1281  -36.1938   25.0823 H   0  0  0  0  0  0
  -20.9993  -28.3262   24.1389 H   0  0  0  0  0  0
  -20.5688  -26.2302   23.3601 H   0  0  0  0  0  0
  -21.6649  -26.7445   22.1187 H   0  0  0  0  0  0
  -19.6916  -25.6292   21.1238 H   0  0  0  0  0  0
  -19.6688  -27.3191   20.6736 H   0  0  0  0  0  0
  -17.4205  -26.6669   21.4031 H   0  0  0  0  0  0
  -18.0343  -26.0067   22.9022 H   0  0  0  0  0  0
  -19.7939  -30.7273   24.2261 H   0  0  0  0  0  0
  -17.5017  -31.6264   24.5158 H   0  0  0  0  0  0
  -15.5355  -30.2982   23.7657 H   0  0  0  0  0  0
  -15.8678  -28.0814   22.7073 H   0  0  0  0  0  0
  -24.5922  -30.7069   25.7820 H   0  0  0  0  0  0
  -24.8910  -32.2905   26.4889 H   0  0  0  0  0  0
  -25.8057  -30.8940   27.0274 H   0  0  0  0  0  0
  -26.2928  -29.6762   24.1243 H   0  0  0  0  0  0
  -27.3994  -29.7256   25.4765 H   0  0  0  0  0  0
  -27.8829  -30.4266   23.9510 H   0  0  0  0  0  0
  -27.2682  -33.3618   26.2112 H   0  0  0  0  0  0
  -28.3877  -32.6886   25.0353 H   0  0  0  0  0  0
  -28.0745  -31.8442   26.5437 H   0  0  0  0  0  0
  -28.2561  -38.0135   24.7571 H   0  0  0  0  0  0
  -28.1134  -36.2672   24.6181 H   0  0  0  0  0  0
  -27.2324  -37.1317   25.8856 H   0  0  0  0  0  0
  -20.9373  -29.8804   21.6908 H   0  0  0  0  0  0
  -26.0163  -38.2852   24.1466 H   0  0  0  0  0  0
  -26.7314  -22.5979   20.5315 H   0  0  0  0  0  0
  -27.6559  -20.3601   20.8016 H   0  0  0  0  0  0
  -30.6589  -24.2427   19.9760 H   0  0  0  0  0  0
  -29.8683  -17.9621   22.6780 H   0  0  0  0  0  0
  -28.1851  -18.1727   22.2220 H   0  0  0  0  0  0
  -28.0481  -15.9330   21.3814 H   0  0  0  0  0  0
  -29.2570  -15.6869   22.6429 H   0  0  0  0  0  0
  -31.5313  -17.2675   20.4142 H   0  0  0  0  0  0
  -30.5279  -17.0647   18.9885 H   0  0  0  0  0  0
  -28.7535  -18.3931   19.8906 H   0  0  0  0  0  0
  -32.5596  -22.8782   20.0726 H   0  0  0  0  0  0
  -32.3134  -21.2649   19.4095 H   0  0  0  0  0  0
  -32.4586  -21.4947   21.1583 H   0  0  0  0  0  0
  -26.8898  -24.8068   20.3020 H   0  0  0  0  0  0
  -27.7601  -24.9131   18.7757 H   0  0  0  0  0  0
  -31.3147  -19.5912   20.5799 H   0  0  0  0  0  0
  1 25  1  0  0  0
  1 30  2  0  0  0
  1 83  1  0  0  0
  2  3  1  0  0  0
  2 25  1  0  0  0
  2 85  1  0  0  0
  2 86  1  0  0  0
  3  4  1  0  0  0
  3 87  1  0  0  0
  3 88  1  0  0  0
  4  5  1  0  0  0
  4 89  1  0  0  0
  4 90  1  0  0  0
  5  6  1  0  0  0
  5 26  1  0  0  0
  5 91  1  0  0  0
  6 25  1  0  0  0
  6 92  1  0  0  0
  6 93  1  0  0  0
  7  8  2  0  0  0
  7 26  1  0  0  0
  7 29  1  0  0  0
  8  9  1  0  0  0
  8 22  1  0  0  0
  9 10  1  0  0  0
  9 27  2  0  0  0
 10 11  2  0  0  0
 10 15  1  0  0  0
 11 12  1  0  0  0
 11 94  1  0  0  0
 12 13  2  0  0  0
 12 95  1  0  0  0
 13 14  1  0  0  0
 13 31  1  0  0  0
 14 15  2  0  0  0
 14 96  1  0  0  0
 15 97  1  0  0  0
 16 17  2  0  0  0
 16 21  1  0  0  0
 16 31  1  0  0  0
 17 18  1  0  0  0
 17 98  1  0  0  0
 18 19  2  0  0  0
 18 99  1  0  0  0
 19 20  1  0  0  0
 19 24  1  0  0  0
 20 21  2  0  0  0
 20100  1  0  0  0
 21 23  1  0  0  0
 22 28  1  0  0  0
 22 32  2  0  0  0
 26 27  1  0  0  0
 28101  1  0  0  0
 28102  1  0  0  0
 29103  1  0  0  0
 29104  1  0  0  0
 33 34  1  0  0  0
 33 66  1  0  0  0
 33 70  2  0  0  0
 34 36  1  0  0  0
 34 59  1  0  0  0
 34105  1  0  0  0
 35 44  2  0  0  0
 35 45  1  0  0  0
 35 68  1  0  0  0
 36 56  1  0  0  0
 36106  1  0  0  0
 37 39  1  0  0  0
 37 47  1  0  0  0
 37 66  1  0  0  0
 37107  1  0  0  0
 38 43  2  0  0  0
 38 46  1  0  0  0
 38 47  1  0  0  0
 39 64  1  0  0  0
 39 67  2  0  0  0
 40 52  1  0  0  0
 40 53  2  0  0  0
 40 58  1  0  0  0
 41108  1  0  0  0
 41109  1  0  0  0
 41110  1  0  0  0
 41 48  1  0  0  0
 42 43  1  0  0  0
 42 66  1  0  0  0
 42111  1  0  0  0
 42112  1  0  0  0
 43 44  1  0  0  0
 44113  1  0  0  0
 45 46  2  0  0  0
 45114  1  0  0  0
 46115  1  0  0  0
 47116  1  0  0  0
 47117  1  0  0  0
 48 56  1  0  0  0
 48 65  1  0  0  0
 48118  1  0  0  0
 49 50  1  0  0  0
 49 53  1  0  0  0
 49 64  1  0  0  0
 49119  1  0  0  0
 50 51  1  0  0  0
 50120  1  0  0  0
 50121  1  0  0  0
 51 52  1  0  0  0
 51122  1  0  0  0
 51123  1  0  0  0
 52124  1  0  0  0
 52125  1  0  0  0
 53 54  1  0  0  0
 54 55  2  0  0  0
 54126  1  0  0  0
 55 57  1  0  0  0
 55127  1  0  0  0
 56 69  2  0  0  0
 57 58  2  0  0  0
 57128  1  0  0  0
 58129  1  0  0  0
 59 60  1  0  0  0
 59 61  1  0  0  0
 59 62  1  0  0  0
 60130  1  0  0  0
 60131  1  0  0  0
 60132  1  0  0  0
 61133  1  0  0  0
 61134  1  0  0  0
 61135  1  0  0  0
 62136  1  0  0  0
 62137  1  0  0  0
 62138  1  0  0  0
 63 65  1  0  0  0
 63139  1  0  0  0
 63140  1  0  0  0
 63141  1  0  0  0
 64142  1  0  0  0
 65143  1  0  0  0
 68 82  1  0  0  0
 71 72  2  0  0  0
 71 74  1  0  0  0
 71144  1  0  0  0
 72 76  1  0  0  0
 72145  1  0  0  0
 73 74  2  0  0  0
 73 75  1  0  0  0
 73146  1  0  0  0
 74 82  1  0  0  0
 75 76  2  0  0  0
 75 81  1  0  0  0
 76 84  1  0  0  0
 77 78  1  0  0  0
 77 80  1  0  0  0
 77147  1  0  0  0
 77148  1  0  0  0
 78 83  1  0  0  0
 78149  1  0  0  0
 78150  1  0  0  0
 79 80  1  0  0  0
 79 83  1  0  0  0
 79151  1  0  0  0
 79152  1  0  0  0
 80 84  1  0  0  0
 80153  1  0  0  0
 81154  1  0  0  0
 81155  1  0  0  0
 81156  1  0  0  0
 82157  1  0  0  0
 82158  1  0  0  0
 84159  1  0  0  0
M  ISO  4   1 100  68 101  82 101  83 100
M  END
> <chiral flag>
0

> <version>
0

> <s_m_source_file>
/data/baiqing/PycharmProjects/Reinvent-master-3.2/result/LINK_invent/BTK/process_docking_weight1_custom_sum_contain_oxygen_bond_distance_aromatic_linkinvent_7_9_3/rearranged_h_0137.sdf

> <i_m_source_file_index>
82

> <r_mmod_Potential_Energy-OPLS-2005>
242.295166015625

> <r_mmod_Stretch_Energy-OPLS-2005>
79.8982772827148

> <r_mmod_Bend_Energy-OPLS-2005>
194.888900756836

> <r_mmod_Torsional_Energy-OPLS-2005>
308.563018798828

> <r_mmod_Improper_Torsional_Energy-OPLS-2005>
14.3053092956543

> <r_mmod_Van_der_Waal_Energy-OPLS-2005>
158.438903808594

> <r_mmod_Electrostatic_Energy-OPLS-2005>
-369.234619140625

> <r_mmod_Solvation_Energy-OPLS-2005>
-204.879409790039

> <b_mmod_Minimization_Converged-OPLS-2005>
0

> <r_mmod_RMS_Derivative-OPLS-2005>
0.430273681879044

$$$$
82
                    3D
 Structure written by MMmdl.
159167  0  0  1  0            999 V2000
  -30.7662  -14.3889   20.6733 C   0  0  0  0  0  0
  -30.4160  -12.3024   19.3977 C   0  0  0  0  0  0
  -29.4830  -12.5241   18.1932 C   0  0  0  0  0  0
  -28.0085  -12.3753   18.6119 C   0  0  0  0  0  0
  -27.6634  -13.2054   19.8763 C   0  0  2  0  0  0
  -28.7031  -12.9639   20.9921 C   0  0  0  0  0  0
  -25.2590  -13.8160   20.5670 C   0  0  0  0  0  0
  -24.1839  -13.0438   20.9165 C   0  0  0  0  0  0
  -24.6393  -11.6904   20.8729 C   0  0  0  0  0  0
  -23.9061  -10.4291   21.0405 C   0  0  0  0  0  0
  -24.3615   -9.4207   21.9183 C   0  0  0  0  0  0
  -23.6291   -8.2243   22.0755 C   0  0  0  0  0  0
  -22.4272   -8.0282   21.3546 C   0  0  0  0  0  0
  -21.9906   -9.0254   20.4647 C   0  0  0  0  0  0
  -22.7234  -10.2133   20.3055 C   0  0  0  0  0  0
  -21.6851   -6.0737   22.5281 C   0  0  0  0  0  0
  -21.4014   -6.5641   23.8215 C   0  0  0  0  0  0
  -21.3659   -5.6793   24.9175 C   0  0  0  0  0  0
  -21.6044   -4.3056   24.7224 C   0  0  0  0  0  0
  -21.8820   -3.8148   23.4346 C   0  0  0  0  0  0
  -21.9192   -4.6966   22.3403 C   0  0  0  0  0  0
  -22.7863  -13.5240   21.1836 C   0  0  0  0  0  0
  -22.1660   -4.2152   21.0981 F   0  0  0  0  0  0
  -21.5628   -3.4540   25.7737 F   0  0  0  0  0  0
  -30.0418  -13.2606   20.4488 N   0  0  0  0  0  0
  -26.3031  -12.9331   20.3371 N   0  0  0  0  0  0
  -25.9320  -11.6489   20.5760 N   0  0  0  0  0  0
  -22.0506  -12.8233   22.0396 N   0  0  0  0  0  0
  -25.4317  -15.1876   20.4078 N   0  0  0  0  0  0
  -31.8158  -14.6470   20.0772 O   0  0  0  0  0  0
  -21.6638   -6.8878   21.4243 O   0  0  0  0  0  0
  -22.3548  -14.5550   20.6692 O   0  0  0  0  0  0
  -24.6143  -31.8692   23.2121 C   0  0  0  0  0  0
  -25.9042  -32.4826   23.8410 C   0  0  1  0  0  0
  -27.2326  -27.4412   20.0827 C   0  0  0  0  0  0
  -25.5905  -33.8627   24.2342 N   0  0  0  0  0  0
  -23.4003  -30.4951   21.5537 C   0  0  2  0  0  0
  -24.8436  -28.9658   20.1153 C   0  0  0  0  0  0
  -22.7397  -29.4673   22.5003 C   0  0  0  0  0  0
  -18.0268  -28.1376   22.8496 C   0  0  0  0  0  0
  -24.1488  -36.7320   23.2637 C   0  0  0  0  0  0
  -25.9302  -30.8356   21.3655 C   0  0  0  0  0  0
  -26.0051  -29.4716   20.7107 C   0  0  0  0  0  0
  -27.2002  -28.7162   20.6936 C   0  0  0  0  0  0
  -26.0444  -26.9521   19.4836 C   0  0  0  0  0  0
  -24.8577  -27.7045   19.5011 C   0  0  0  0  0  0
  -23.6063  -29.8316   20.1675 C   0  0  0  0  0  0
  -25.4108  -36.3116   24.0337 C   0  0  1  0  0  0
  -20.5856  -28.3662   23.1325 C   0  0  2  0  0  0
  -20.6761  -26.9401   22.5417 C   0  0  0  0  0  0
  -19.5739  -26.6388   21.5214 C   0  0  0  0  0  0
  -18.1917  -26.7925   22.1627 C   0  0  0  0  0  0
  -19.1516  -28.8837   23.2908 C   0  0  0  0  0  0
  -18.9444  -30.1446   23.8917 C   0  0  0  0  0  0
  -17.6446  -30.6585   24.0569 C   0  0  0  0  0  0
  -25.9034  -34.9479   23.5134 C   0  0  0  0  0  0
  -16.5339  -29.9085   23.6328 C   0  0  0  0  0  0
  -16.7257  -28.6500   23.0352 C   0  0  0  0  0  0
  -26.4470  -31.6598   25.0731 C   0  0  0  0  0  0
  -25.3743  -31.3700   26.1486 C   0  0  0  0  0  0
  -27.0287  -30.3038   24.6101 C   0  0  0  0  0  0
  -27.6064  -32.4305   25.7480 C   0  0  0  0  0  0
  -27.5583  -37.1813   24.8462 C   0  0  0  0  0  0
  -21.4126  -29.3036   22.3736 N   0  0  0  0  0  0
  -26.4296  -37.3798   23.9404 N   0  0  0  0  0  0
  -24.6666  -31.0805   22.1021 N   0  0  0  0  0  0
  -23.4173  -28.8212   23.3039 O   0  0  0  0  0  0
  -28.4145  -26.7220   20.0918 O   0  0  0  0  0  0
  -26.5592  -34.8922   22.4693 O   0  0  0  0  0  0
  -23.5338  -32.1446   23.7518 O   0  0  0  0  0  0
  -31.0493  -20.3998   20.5998 C   0  0  0  0  0  0
  -30.9537  -21.6951   20.0494 C   0  0  0  0  0  0
  -28.6439  -20.1369   20.3851 C   0  0  0  0  0  0
  -28.5445  -21.4276   19.8193 C   0  0  0  0  0  0
  -29.8920  -19.6022   20.7697 C   0  0  0  0  0  0
  -29.7061  -22.2148   19.6513 C   0  0  0  0  0  0
  -27.1839  -21.9501   19.3947 C   0  0  0  0  0  0
  -31.1717  -17.5501   21.3912 C   0  0  0  0  0  0
  -31.0305  -16.2900   22.2674 C   0  0  0  0  0  0
  -28.3558  -25.3612   19.6480 C   0  0  0  0  0  0
  -29.6652  -24.5863   19.8713 C   0  0  0  0  0  0
  -29.9240  -18.3026   21.3075 N   0  0  0  0  0  0
  -30.2930  -15.1975   21.6312 N   0  0  0  0  0  0
  -29.6422  -23.4357   19.0260 O   0  0  0  0  0  0
  -31.4589  -12.4018   19.0911 H   0  0  0  0  0  0
  -30.3169  -11.2836   19.7751 H   0  0  0  0  0  0
  -29.7186  -11.8161   17.3977 H   0  0  0  0  0  0
  -29.6477  -13.5193   17.7771 H   0  0  0  0  0  0
  -27.8205  -11.3176   18.7998 H   0  0  0  0  0  0
  -27.3529  -12.6574   17.7872 H   0  0  0  0  0  0
  -27.7160  -14.2572   19.5940 H   0  0  0  0  0  0
  -28.6717  -11.9234   21.3181 H   0  0  0  0  0  0
  -28.4494  -13.5484   21.8765 H   0  0  0  0  0  0
  -25.2763   -9.5684   22.4753 H   0  0  0  0  0  0
  -24.0002   -7.4636   22.7473 H   0  0  0  0  0  0
  -21.0837   -8.8773   19.8952 H   0  0  0  0  0  0
  -22.3696  -10.9672   19.6161 H   0  0  0  0  0  0
  -21.2006   -7.6149   23.9720 H   0  0  0  0  0  0
  -21.1480   -6.0522   25.9079 H   0  0  0  0  0  0
  -22.0599   -2.7610   23.2846 H   0  0  0  0  0  0
  -22.4117  -11.9886   22.4773 H   0  0  0  0  0  0
  -21.1128  -13.1266   22.2615 H   0  0  0  0  0  0
  -24.6685  -15.8467   20.5157 H   0  0  0  0  0  0
  -26.2915  -15.6243   20.0993 H   0  0  0  0  0  0
  -26.7118  -32.5536   23.1181 H   0  0  0  0  0  0
  -25.0057  -33.9797   25.0487 H   0  0  0  0  0  0
  -22.6889  -31.3121   21.4172 H   0  0  0  0  0  0
  -23.3746  -35.9656   23.3301 H   0  0  0  0  0  0
  -24.3591  -36.8934   22.2051 H   0  0  0  0  0  0
  -23.7241  -37.6527   23.6648 H   0  0  0  0  0  0
  -26.0440  -31.6028   20.5983 H   0  0  0  0  0  0
  -26.8181  -30.8860   21.9837 H   0  0  0  0  0  0
  -28.0975  -29.1063   21.1540 H   0  0  0  0  0  0
  -26.0025  -25.9934   18.9886 H   0  0  0  0  0  0
  -23.9652  -27.3101   19.0356 H   0  0  0  0  0  0
  -23.7113  -30.6081   19.4088 H   0  0  0  0  0  0
  -22.7302  -29.2508   19.8733 H   0  0  0  0  0  0
  -25.1283  -36.1987   25.0830 H   0  0  0  0  0  0
  -20.9946  -28.3227   24.1447 H   0  0  0  0  0  0
  -20.5673  -26.2266   23.3599 H   0  0  0  0  0  0
  -21.6633  -26.7456   22.1198 H   0  0  0  0  0  0
  -19.6898  -25.6304   21.1232 H   0  0  0  0  0  0
  -19.6681  -27.3212   20.6753 H   0  0  0  0  0  0
  -17.4186  -26.6678   21.4027 H   0  0  0  0  0  0
  -18.0322  -26.0060   22.9017 H   0  0  0  0  0  0
  -19.7920  -30.7257   24.2296 H   0  0  0  0  0  0
  -17.5002  -31.6270   24.5163 H   0  0  0  0  0  0
  -15.5343  -30.2994   23.7642 H   0  0  0  0  0  0
  -15.8655  -28.0826   22.7061 H   0  0  0  0  0  0
  -24.5896  -30.7074   25.7818 H   0  0  0  0  0  0
  -24.8960  -32.2853   26.4982 H   0  0  0  0  0  0
  -25.8100  -30.8825   27.0215 H   0  0  0  0  0  0
  -26.2820  -29.6805   24.1163 H   0  0  0  0  0  0
  -27.4060  -29.7269   25.4555 H   0  0  0  0  0  0
  -27.8657  -30.4349   23.9239 H   0  0  0  0  0  0
  -27.2712  -33.3606   26.2079 H   0  0  0  0  0  0
  -28.3857  -32.6860   25.0288 H   0  0  0  0  0  0
  -28.0741  -31.8405   26.5371 H   0  0  0  0  0  0
  -28.2602  -38.0110   24.7516 H   0  0  0  0  0  0
  -28.1080  -36.2644   24.6276 H   0  0  0  0  0  0
  -27.2305  -37.1449   25.8867 H   0  0  0  0  0  0
  -20.9275  -29.8764   21.6972 H   0  0  0  0  0  0
  -26.0185  -38.2878   24.1407 H   0  0  0  0  0  0
  -32.0293  -20.0439   20.8782 H   0  0  0  0  0  0
  -31.8506  -22.2812   19.9090 H   0  0  0  0  0  0
  -27.7456  -19.5484   20.5099 H   0  0  0  0  0  0
  -26.5283  -21.1326   19.0935 H   0  0  0  0  0  0
  -27.2635  -22.6350   18.5504 H   0  0  0  0  0  0
  -26.7091  -22.4784   20.2215 H   0  0  0  0  0  0
  -31.5330  -17.3032   20.3914 H   0  0  0  0  0  0
  -31.9369  -18.1726   21.8556 H   0  0  0  0  0  0
  -30.5589  -16.5358   23.2199 H   0  0  0  0  0  0
  -32.0277  -15.9237   22.5203 H   0  0  0  0  0  0
  -27.5517  -24.8250   20.1536 H   0  0  0  0  0  0
  -28.1357  -25.3617   18.5793 H   0  0  0  0  0  0
  -29.7959  -24.3412   20.9272 H   0  0  0  0  0  0
  -30.5166  -25.2003   19.5764 H   0  0  0  0  0  0
  -29.0630  -17.7623   21.3154 H   0  0  0  0  0  0
  -29.4207  -14.9238   22.0582 H   0  0  0  0  0  0
  1 25  1  0  0  0
  1 30  2  0  0  0
  1 83  1  0  0  0
  2  3  1  0  0  0
  2 25  1  0  0  0
  2 85  1  0  0  0
  2 86  1  0  0  0
  3  4  1  0  0  0
  3 87  1  0  0  0
  3 88  1  0  0  0
  4  5  1  0  0  0
  4 89  1  0  0  0
  4 90  1  0  0  0
  5  6  1  0  0  0
  5 26  1  0  0  0
  5 91  1  0  0  0
  6 25  1  0  0  0
  6 92  1  0  0  0
  6 93  1  0  0  0
  7  8  2  0  0  0
  7 26  1  0  0  0
  7 29  1  0  0  0
  8  9  1  0  0  0
  8 22  1  0  0  0
  9 10  1  0  0  0
  9 27  2  0  0  0
 10 11  2  0  0  0
 10 15  1  0  0  0
 11 12  1  0  0  0
 11 94  1  0  0  0
 12 13  2  0  0  0
 12 95  1  0  0  0
 13 14  1  0  0  0
 13 31  1  0  0  0
 14 15  2  0  0  0
 14 96  1  0  0  0
 15 97  1  0  0  0
 16 17  2  0  0  0
 16 21  1  0  0  0
 16 31  1  0  0  0
 17 18  1  0  0  0
 17 98  1  0  0  0
 18 19  2  0  0  0
 18 99  1  0  0  0
 19 20  1  0  0  0
 19 24  1  0  0  0
 20 21  2  0  0  0
 20100  1  0  0  0
 21 23  1  0  0  0
 22 28  1  0  0  0
 22 32  2  0  0  0
 26 27  1  0  0  0
 28101  1  0  0  0
 28102  1  0  0  0
 29103  1  0  0  0
 29104  1  0  0  0
 33 34  1  0  0  0
 33 66  1  0  0  0
 33 70  2  0  0  0
 34 36  1  0  0  0
 34 59  1  0  0  0
 34105  1  0  0  0
 35 44  2  0  0  0
 35 45  1  0  0  0
 35 68  1  0  0  0
 36 56  1  0  0  0
 36106  1  0  0  0
 37 39  1  0  0  0
 37 47  1  0  0  0
 37 66  1  0  0  0
 37107  1  0  0  0
 38 43  2  0  0  0
 38 46  1  0  0  0
 38 47  1  0  0  0
 39 64  1  0  0  0
 39 67  2  0  0  0
 40 52  1  0  0  0
 40 53  2  0  0  0
 40 58  1  0  0  0
 41108  1  0  0  0
 41109  1  0  0  0
 41110  1  0  0  0
 41 48  1  0  0  0
 42 43  1  0  0  0
 42 66  1  0  0  0
 42111  1  0  0  0
 42112  1  0  0  0
 43 44  1  0  0  0
 44113  1  0  0  0
 45 46  2  0  0  0
 45114  1  0  0  0
 46115  1  0  0  0
 47116  1  0  0  0
 47117  1  0  0  0
 48 56  1  0  0  0
 48 65  1  0  0  0
 48118  1  0  0  0
 49 50  1  0  0  0
 49 53  1  0  0  0
 49 64  1  0  0  0
 49119  1  0  0  0
 50 51  1  0  0  0
 50120  1  0  0  0
 50121  1  0  0  0
 51 52  1  0  0  0
 51122  1  0  0  0
 51123  1  0  0  0
 52124  1  0  0  0
 52125  1  0  0  0
 53 54  1  0  0  0
 54 55  2  0  0  0
 54126  1  0  0  0
 55 57  1  0  0  0
 55127  1  0  0  0
 56 69  2  0  0  0
 57 58  2  0  0  0
 57128  1  0  0  0
 58129  1  0  0  0
 59 60  1  0  0  0
 59 61  1  0  0  0
 59 62  1  0  0  0
 60130  1  0  0  0
 60131  1  0  0  0
 60132  1  0  0  0
 61133  1  0  0  0
 61134  1  0  0  0
 61135  1  0  0  0
 62136  1  0  0  0
 62137  1  0  0  0
 62138  1  0  0  0
 63 65  1  0  0  0
 63139  1  0  0  0
 63140  1  0  0  0
 63141  1  0  0  0
 64142  1  0  0  0
 65143  1  0  0  0
 68 80  1  0  0  0
 71 72  2  0  0  0
 71 75  1  0  0  0
 71144  1  0  0  0
 72 76  1  0  0  0
 72145  1  0  0  0
 73 74  1  0  0  0
 73 75  2  0  0  0
 73146  1  0  0  0
 74 76  2  0  0  0
 74 77  1  0  0  0
 75 82  1  0  0  0
 76 84  1  0  0  0
 77147  1  0  0  0
 77148  1  0  0  0
 77149  1  0  0  0
 78 79  1  0  0  0
 78 82  1  0  0  0
 78150  1  0  0  0
 78151  1  0  0  0
 79 83  1  0  0  0
 79152  1  0  0  0
 79153  1  0  0  0
 80 81  1  0  0  0
 80154  1  0  0  0
 80155  1  0  0  0
 81 84  1  0  0  0
 81156  1  0  0  0
 81157  1  0  0  0
 82158  1  0  0  0
 83159  1  0  0  0
M  ISO  4   1 100  68 101  80 101  83 100
M  END
> <chiral flag>
0

> <version>
0

> <s_m_source_file>
/data/baiqing/PycharmProjects/Reinvent-master-3.2/result/LINK_invent/BTK/process_docking_weight1_custom_sum_contain_oxygen_bond_distance_aromatic_linkinvent_7_9_3/rearranged_h_0137.sdf

> <i_m_source_file_index>
83

> <r_mmod_Potential_Energy-OPLS-2005>
-154.837814331055

> <r_mmod_Stretch_Energy-OPLS-2005>
34.0788917541504

> <r_mmod_Bend_Energy-OPLS-2005>
102.650802612305

> <r_mmod_Torsional_Energy-OPLS-2005>
225.17692565918

> <r_mmod_Improper_Torsional_Energy-OPLS-2005>
3.45617318153381

> <r_mmod_Van_der_Waal_Energy-OPLS-2005>
159.700500488281

> <r_mmod_Electrostatic_Energy-OPLS-2005>
-465.540100097656

> <r_mmod_Solvation_Energy-OPLS-2005>
-223.090286254883

> <b_mmod_Minimization_Converged-OPLS-2005>
0

> <r_mmod_RMS_Derivative-OPLS-2005>
0.598922431468964

$$$$
83
                    3D
 Structure written by MMmdl.
163172  0  0  1  0            999 V2000
  -29.7111  -16.4940   20.4569 C   0  0  0  0  0  0
  -30.2451  -13.7727   19.6010 C   0  0  0  0  0  0
  -29.5410  -12.9300   18.4496 C   0  0  0  0  0  0
  -28.2205  -12.3331   18.9342 C   0  0  0  0  0  0
  -27.5391  -13.3721   19.8303 C   0  0  2  0  0  0
  -28.4326  -13.9970   20.9412 C   0  0  0  0  0  0
  -25.2029  -13.8346   20.5763 C   0  0  0  0  0  0
  -24.1547  -13.0423   20.9298 C   0  0  0  0  0  0
  -24.6331  -11.6933   20.8779 C   0  0  0  0  0  0
  -23.9083  -10.4265   21.0414 C   0  0  0  0  0  0
  -24.3628   -9.4199   21.9189 C   0  0  0  0  0  0
  -23.6292   -8.2243   22.0761 C   0  0  0  0  0  0
  -22.4274   -8.0293   21.3551 C   0  0  0  0  0  0
  -21.9920   -9.0256   20.4639 C   0  0  0  0  0  0
  -22.7270  -10.2119   20.3043 C   0  0  0  0  0  0
  -21.6866   -6.0735   22.5278 C   0  0  0  0  0  0
  -21.4012   -6.5640   23.8207 C   0  0  0  0  0  0
  -21.3663   -5.6793   24.9165 C   0  0  0  0  0  0
  -21.6040   -4.3055   24.7213 C   0  0  0  0  0  0
  -21.8842   -3.8152   23.4338 C   0  0  0  0  0  0
  -21.9195   -4.6962   22.3391 C   0  0  0  0  0  0
  -22.7591  -13.5151   21.2012 C   0  0  0  0  0  0
  -22.1666   -4.2147   21.0968 F   0  0  0  0  0  0
  -21.5630   -3.4538   25.7726 F   0  0  0  0  0  0
  -29.3935  -14.9571   20.2909 N   0  0  0  0  0  0
  -26.2469  -12.9747   20.3283 N   0  0  0  0  0  0
  -25.9294  -11.6770   20.5672 N   0  0  0  0  0  0
  -22.0217  -12.8089   22.0468 N   0  0  0  0  0  0
  -25.3663  -15.2098   20.4200 N   0  0  0  0  0  0
  -30.9629  -16.3368   20.3407 O   0  0  0  0  0  0
  -21.6671   -6.8880   21.4237 O   0  0  0  0  0  0
  -22.3218  -14.5407   20.6845 O   0  0  0  0  0  0
  -24.6690  -31.6718   23.1405 C   0  0  0  0  0  0
  -25.9063  -32.3853   23.7621 C   0  0  1  0  0  0
  -28.1319  -26.7871   19.7623 C   0  0  0  0  0  0
  -25.5088  -33.7790   24.1068 N   0  0  0  0  0  0
  -23.5201  -30.0515   21.6609 C   0  0  2  0  0  0
  -24.8108  -27.6069   20.7623 C   0  0  0  0  0  0
  -22.7157  -29.3420   22.7010 C   0  0  0  0  0  0
  -17.9590  -28.1469   22.8756 C   0  0  0  0  0  0
  -24.1397  -36.7169   23.2653 C   0  0  0  0  0  0
  -26.0191  -30.0314   21.6635 C   0  0  0  0  0  0
  -26.1288  -28.4068   21.5061 C   0  0  0  0  0  0
  -27.6836  -27.8700   21.0650 C   0  0  0  0  0  0
  -27.2214  -25.7956   18.9674 C   0  0  0  0  0  0
  -25.6613  -25.9403   19.0141 C   0  0  0  0  0  0
  -23.6951  -28.8863   20.6150 C   0  0  0  0  0  0
  -25.4026  -36.2625   24.0137 C   0  0  1  0  0  0
  -20.5159  -28.3468   23.1455 C   0  0  2  0  0  0
  -20.5825  -26.9723   22.4439 C   0  0  0  0  0  0
  -19.4415  -26.8404   21.4225 C   0  0  0  0  0  0
  -18.1017  -26.8402   22.1385 C   0  0  0  0  0  0
  -19.0977  -28.8866   23.2987 C   0  0  0  0  0  0
  -18.9229  -30.1485   23.8983 C   0  0  0  0  0  0
  -17.6323  -30.6712   24.0681 C   0  0  0  0  0  0
  -25.9026  -34.8980   23.4810 C   0  0  0  0  0  0
  -16.5117  -29.9333   23.6437 C   0  0  0  0  0  0
  -16.6686  -28.6695   23.0516 C   0  0  0  0  0  0
  -26.4557  -31.6324   25.0415 C   0  0  0  0  0  0
  -25.3798  -31.3766   26.1264 C   0  0  0  0  0  0
  -27.0838  -30.2556   24.7004 C   0  0  0  0  0  0
  -27.5723  -32.4715   25.6925 C   0  0  0  0  0  0
  -27.5428  -37.1471   24.8366 C   0  0  0  0  0  0
  -21.4019  -29.3032   22.4989 N   0  0  0  0  0  0
  -26.4131  -37.3387   23.9347 N   0  0  0  0  0  0
  -24.7664  -30.6599   22.2006 N   0  0  0  0  0  0
  -23.3035  -28.7047   23.5708 O   0  0  0  0  0  0
  -28.1821  -27.1440   18.3071 O   0  0  0  0  0  0
  -26.6499  -34.8685   22.5027 O   0  0  0  0  0  0
  -23.5667  -32.0660   23.5720 O   0  0  0  0  0  0
  -24.9336  -28.2242   18.3863 C   0  0  0  0  0  0
  -26.2433  -28.0050   19.2423 C   0  0  0  0  0  0
  -24.5594  -25.2762   20.9483 C   0  0  0  0  0  0
  -23.7985  -27.1366   18.3825 C   0  0  0  0  0  0
  -26.2100  -25.8703   21.0817 C   0  0  0  0  0  0
  -23.4315  -25.9002   19.7198 C   0  0  0  0  0  0
  -22.1044  -22.9888   21.3194 C   0  0  0  0  0  0
  -22.0194  -24.0944   22.3478 C   0  0  0  0  0  0
  -21.6257  -24.3794   20.8719 C   0  0  0  0  0  0
  -24.9742  -27.0131   16.9704 C   0  0  0  0  0  0
  -27.3029  -22.1839   20.7856 C   0  0  0  0  0  0
  -28.5508  -20.1714   20.7830 C   0  0  0  0  0  0
  -26.9155  -27.1751   17.0149 C   0  0  0  0  0  0
  -27.1042  -24.1904   21.1047 N   0  0  0  0  0  0
  -28.8975  -18.0917   20.5883 N   0  0  0  0  0  0
  -22.2070  -25.2249   19.7656 O   0  0  0  0  0  0
  -31.1321  -14.2090   19.1377 H   0  0  0  0  0  0
  -30.6478  -13.0818   20.3432 H   0  0  0  0  0  0
  -30.1995  -12.1446   18.0730 H   0  0  0  0  0  0
  -29.3431  -13.5924   17.6061 H   0  0  0  0  0  0
  -28.4342  -11.4389   19.5165 H   0  0  0  0  0  0
  -27.5854  -12.0221   18.1054 H   0  0  0  0  0  0
  -27.3185  -14.1877   19.1389 H   0  0  0  0  0  0
  -28.8893  -13.2459   21.5895 H   0  0  0  0  0  0
  -27.8159  -14.5963   21.6111 H   0  0  0  0  0  0
  -25.2746   -9.5708   22.4791 H   0  0  0  0  0  0
  -24.0005   -7.4634   22.7509 H   0  0  0  0  0  0
  -21.0856   -8.8825   19.8910 H   0  0  0  0  0  0
  -22.3757  -10.9696   19.6164 H   0  0  0  0  0  0
  -21.2007   -7.6143   23.9710 H   0  0  0  0  0  0
  -21.1460   -6.0507   25.9062 H   0  0  0  0  0  0
  -22.0599   -2.7609   23.2850 H   0  0  0  0  0  0
  -22.3832  -11.9772   22.4899 H   0  0  0  0  0  0
  -21.0816  -13.1109   22.2666 H   0  0  0  0  0  0
  -24.6192  -15.8827   20.5492 H   0  0  0  0  0  0
  -26.2360  -15.6320   20.1239 H   0  0  0  0  0  0
  -26.6956  -32.4144   23.0097 H   0  0  0  0  0  0
  -24.7191  -33.8534   24.7331 H   0  0  0  0  0  0
  -22.9331  -30.8613   21.2174 H   0  0  0  0  0  0
  -23.3440  -35.9704   23.3181 H   0  0  0  0  0  0
  -24.3377  -36.9201   22.2101 H   0  0  0  0  0  0
  -23.7417  -37.6309   23.7050 H   0  0  0  0  0  0
  -26.0990  -30.4325   20.6559 H   0  0  0  0  0  0
  -26.9198  -30.4074   22.1342 H   0  0  0  0  0  0
  -28.5011  -28.4888   21.4081 H   0  0  0  0  0  0
  -27.6764  -25.0617   18.2959 H   0  0  0  0  0  0
  -25.1737  -25.1628   18.4436 H   0  0  0  0  0  0
  -23.8957  -29.5912   19.8193 H   0  0  0  0  0  0
  -22.7229  -28.4590   20.3645 H   0  0  0  0  0  0
  -25.1259  -36.1237   25.0585 H   0  0  0  0  0  0
  -20.8679  -28.2196   24.1683 H   0  0  0  0  0  0
  -20.4608  -26.1930   23.1959 H   0  0  0  0  0  0
  -21.5523  -26.8145   21.9762 H   0  0  0  0  0  0
  -19.4257  -25.9819   20.7860 H   0  0  0  0  0  0
  -19.4943  -27.6620   20.6983 H   0  0  0  0  0  0
  -17.3235  -26.7760   21.3808 H   0  0  0  0  0  0
  -17.9410  -25.9754   22.7913 H   0  0  0  0  0  0
  -19.7872  -30.7055   24.2365 H   0  0  0  0  0  0
  -17.5047  -31.6361   24.5369 H   0  0  0  0  0  0
  -15.5196  -30.3402   23.7782 H   0  0  0  0  0  0
  -15.7960  -28.1284   22.6987 H   0  0  0  0  0  0
  -24.5821  -30.7217   25.7866 H   0  0  0  0  0  0
  -24.9062  -32.2893   26.4833 H   0  0  0  0  0  0
  -25.8045  -30.8800   26.9995 H   0  0  0  0  0  0
  -26.3559  -29.5539   24.2848 H   0  0  0  0  0  0
  -27.4537  -29.7653   25.6051 H   0  0  0  0  0  0
  -27.9538  -30.3404   24.0441 H   0  0  0  0  0  0
  -27.2208  -33.4555   26.0080 H   0  0  0  0  0  0
  -28.3883  -32.6502   24.9910 H   0  0  0  0  0  0
  -27.9893  -31.9865   26.5765 H   0  0  0  0  0  0
  -28.2389  -37.9824   24.7414 H   0  0  0  0  0  0
  -28.0938  -36.2289   24.6136 H   0  0  0  0  0  0
  -27.2084  -37.1109   25.8751 H   0  0  0  0  0  0
  -21.0105  -29.8810   21.7723 H   0  0  0  0  0  0
  -25.9918  -38.2427   24.1227 H   0  0  0  0  0  0
  -24.8699  -29.1155   17.7516 H   0  0  0  0  0  0
  -26.9499  -28.8331   19.0961 H   0  0  0  0  0  0
  -24.3797  -24.3533   21.4613 H   0  0  0  0  0  0
  -23.0723  -22.6133   21.0026 H   0  0  0  0  0  0
  -21.3477  -22.2161   21.5104 H   0  0  0  0  0  0
  -22.9195  -24.4530   22.8243 H   0  0  0  0  0  0
  -21.2323  -23.9031   23.0874 H   0  0  0  0  0  0
  -20.5616  -24.3794   20.7313 H   0  0  0  0  0  0
  -24.6086  -27.6529   16.1459 H   0  0  0  0  0  0
  -24.7857  -26.0317   16.5064 H   0  0  0  0  0  0
  -26.3866  -21.8306   21.2584 H   0  0  0  0  0  0
  -27.0540  -22.1796   19.7173 H   0  0  0  0  0  0
  -29.0243  -20.2593   21.7549 H   0  0  0  0  0  0
  -29.3069  -20.4690   20.0499 H   0  0  0  0  0  0
  -27.0797  -28.1595   16.5684 H   0  0  0  0  0  0
  -27.2823  -26.5397   16.2127 H   0  0  0  0  0  0
  -28.0791  -24.4624   21.1787 H   0  0  0  0  0  0
  -29.8726  -18.3598   20.4863 H   0  0  0  0  0  0
  1 25  1  0  0  0
  1 30  2  0  0  0
  1 85  1  0  0  0
  2  3  1  0  0  0
  2 25  1  0  0  0
  2 87  1  0  0  0
  2 88  1  0  0  0
  3  4  1  0  0  0
  3 89  1  0  0  0
  3 90  1  0  0  0
  4  5  1  0  0  0
  4 91  1  0  0  0
  4 92  1  0  0  0
  5  6  1  0  0  0
  5 26  1  0  0  0
  5 93  1  0  0  0
  6 25  1  0  0  0
  6 94  1  0  0  0
  6 95  1  0  0  0
  7  8  2  0  0  0
  7 26  1  0  0  0
  7 29  1  0  0  0
  8  9  1  0  0  0
  8 22  1  0  0  0
  9 10  1  0  0  0
  9 27  2  0  0  0
 10 11  2  0  0  0
 10 15  1  0  0  0
 11 12  1  0  0  0
 11 96  1  0  0  0
 12 13  2  0  0  0
 12 97  1  0  0  0
 13 14  1  0  0  0
 13 31  1  0  0  0
 14 15  2  0  0  0
 14 98  1  0  0  0
 15 99  1  0  0  0
 16 17  2  0  0  0
 16 21  1  0  0  0
 16 31  1  0  0  0
 17 18  1  0  0  0
 17100  1  0  0  0
 18 19  2  0  0  0
 18101  1  0  0  0
 19 20  1  0  0  0
 19 24  1  0  0  0
 20 21  2  0  0  0
 20102  1  0  0  0
 21 23  1  0  0  0
 22 28  1  0  0  0
 22 32  2  0  0  0
 26 27  1  0  0  0
 28103  1  0  0  0
 28104  1  0  0  0
 29105  1  0  0  0
 29106  1  0  0  0
 33 34  1  0  0  0
 33 66  1  0  0  0
 33 70  2  0  0  0
 34 36  1  0  0  0
 34 59  1  0  0  0
 34107  1  0  0  0
 35 44  2  0  0  0
 35 45  1  0  0  0
 35 68  1  0  0  0
 36 56  1  0  0  0
 36108  1  0  0  0
 37 39  1  0  0  0
 37 47  1  0  0  0
 37 66  1  0  0  0
 37109  1  0  0  0
 38 43  2  0  0  0
 38 46  1  0  0  0
 38 47  1  0  0  0
 39 64  1  0  0  0
 39 67  2  0  0  0
 40 52  1  0  0  0
 40 53  2  0  0  0
 40 58  1  0  0  0
 41110  1  0  0  0
 41111  1  0  0  0
 41112  1  0  0  0
 41 48  1  0  0  0
 42 43  1  0  0  0
 42 66  1  0  0  0
 42113  1  0  0  0
 42114  1  0  0  0
 43 44  1  0  0  0
 44115  1  0  0  0
 45 46  2  0  0  0
 45116  1  0  0  0
 46117  1  0  0  0
 47118  1  0  0  0
 47119  1  0  0  0
 48 56  1  0  0  0
 48 65  1  0  0  0
 48120  1  0  0  0
 49 50  1  0  0  0
 49 53  1  0  0  0
 49 64  1  0  0  0
 49121  1  0  0  0
 50 51  1  0  0  0
 50122  1  0  0  0
 50123  1  0  0  0
 51 52  1  0  0  0
 51124  1  0  0  0
 51125  1  0  0  0
 52126  1  0  0  0
 52127  1  0  0  0
 53 54  1  0  0  0
 54 55  2  0  0  0
 54128  1  0  0  0
 55 57  1  0  0  0
 55129  1  0  0  0
 56 69  2  0  0  0
 57 58  2  0  0  0
 57130  1  0  0  0
 58131  1  0  0  0
 59 60  1  0  0  0
 59 61  1  0  0  0
 59 62  1  0  0  0
 60132  1  0  0  0
 60133  1  0  0  0
 60134  1  0  0  0
 61135  1  0  0  0
 61136  1  0  0  0
 61137  1  0  0  0
 62138  1  0  0  0
 62139  1  0  0  0
 62140  1  0  0  0
 63 65  1  0  0  0
 63141  1  0  0  0
 63142  1  0  0  0
 63143  1  0  0  0
 64144  1  0  0  0
 65145  1  0  0  0
 68 83  1  0  0  0
 71 72  2  0  0  0
 71 74  1  0  0  0
 71146  1  0  0  0
 72 75  1  0  0  0
 72147  1  0  0  0
 73 75  2  0  0  0
 73 76  1  0  0  0
 73148  1  0  0  0
 74 76  2  0  0  0
 74 80  1  0  0  0
 75 84  1  0  0  0
 76 86  1  0  0  0
 77 78  1  0  0  0
 77 79  1  0  0  0
 77149  1  0  0  0
 77150  1  0  0  0
 78 79  1  0  0  0
 78151  1  0  0  0
 78152  1  0  0  0
 79 86  1  0  0  0
 79153  1  0  0  0
 80 83  1  0  0  0
 80154  1  0  0  0
 80155  1  0  0  0
 81 82  1  0  0  0
 81 84  1  0  0  0
 81156  1  0  0  0
 81157  1  0  0  0
 82 85  1  0  0  0
 82158  1  0  0  0
 82159  1  0  0  0
 83160  1  0  0  0
 83161  1  0  0  0
 84162  1  0  0  0
 85163  1  0  0  0
M  ISO  4   1 100  68 101  83 101  85 100
M  END
> <chiral flag>
0

> <version>
0

> <s_m_source_file>
/data/baiqing/PycharmProjects/Reinvent-master-3.2/result/LINK_invent/BTK/process_docking_weight1_custom_sum_contain_oxygen_bond_distance_aromatic_linkinvent_7_9_3/rearranged_h_0137.sdf

> <i_m_source_file_index>
84

> <r_mmod_Potential_Energy-OPLS-2005>
22437.37890625

> <r_mmod_Stretch_Energy-OPLS-2005>
12216.080078125

> <r_mmod_Bend_Energy-OPLS-2005>
2105.3828125

> <r_mmod_Torsional_Energy-OPLS-2005>
706.561950683594

> <r_mmod_Improper_Torsional_Energy-OPLS-2005>
120.821754455566

> <r_mmod_Van_der_Waal_Energy-OPLS-2005>
4306.5556640625

> <r_mmod_Electrostatic_Energy-OPLS-2005>
-405.711517333984

> <r_mmod_Solvation_Energy-OPLS-2005>
-234.462738037109

> <b_mmod_Minimization_Converged-OPLS-2005>
0

> <r_mmod_RMS_Derivative-OPLS-2005>
30.533863067627

$$$$
84
                    3D
 Structure written by MMmdl.
159168  0  0  1  0            999 V2000
  -30.6914  -14.7851   20.4431 C   0  0  0  0  0  0
  -30.4071  -12.4971   19.4697 C   0  0  0  0  0  0
  -29.4916  -12.5024   18.2306 C   0  0  0  0  0  0
  -28.0254  -12.3175   18.6578 C   0  0  0  0  0  0
  -27.6277  -13.2390   19.8417 C   0  0  2  0  0  0
  -28.6830  -13.2358   20.9707 C   0  0  0  0  0  0
  -25.2449  -13.8208   20.5730 C   0  0  0  0  0  0
  -24.1761  -13.0438   20.9242 C   0  0  0  0  0  0
  -24.6373  -11.6923   20.8783 C   0  0  0  0  0  0
  -23.9061  -10.4293   21.0424 C   0  0  0  0  0  0
  -24.3616   -9.4205   21.9195 C   0  0  0  0  0  0
  -23.6292   -8.2240   22.0758 C   0  0  0  0  0  0
  -22.4274   -8.0279   21.3546 C   0  0  0  0  0  0
  -21.9909   -9.0254   20.4650 C   0  0  0  0  0  0
  -22.7236  -10.2135   20.3066 C   0  0  0  0  0  0
  -21.6854   -6.0733   22.5277 C   0  0  0  0  0  0
  -21.4015   -6.5637   23.8210 C   0  0  0  0  0  0
  -21.3659   -5.6791   24.9172 C   0  0  0  0  0  0
  -21.6044   -4.3054   24.7224 C   0  0  0  0  0  0
  -21.8820   -3.8144   23.4345 C   0  0  0  0  0  0
  -21.9193   -4.6961   22.3401 C   0  0  0  0  0  0
  -22.7782  -13.5213   21.1881 C   0  0  0  0  0  0
  -22.1663   -4.2146   21.0979 F   0  0  0  0  0  0
  -21.5628   -3.4538   25.7737 F   0  0  0  0  0  0
  -29.9596  -13.6108   20.3517 N   0  0  0  0  0  0
  -26.2876  -12.9430   20.3315 N   0  0  0  0  0  0
  -25.9306  -11.6566   20.5804 N   0  0  0  0  0  0
  -22.0430  -12.8206   22.0438 N   0  0  0  0  0  0
  -25.4099  -15.1930   20.4113 N   0  0  0  0  0  0
  -31.9009  -14.6878   20.2143 O   0  0  0  0  0  0
  -21.6640   -6.8875   21.4239 O   0  0  0  0  0  0
  -22.3469  -14.5516   20.6718 O   0  0  0  0  0  0
  -24.6332  -31.8540   23.1985 C   0  0  0  0  0  0
  -25.9149  -32.4749   23.8333 C   0  0  1  0  0  0
  -27.2083  -27.2445   20.1375 C   0  0  0  0  0  0
  -25.5937  -33.8552   24.2251 N   0  0  0  0  0  0
  -23.4314  -30.4775   21.5416 C   0  0  2  0  0  0
  -24.8801  -28.9273   20.1066 C   0  0  0  0  0  0
  -22.7517  -29.4593   22.4897 C   0  0  0  0  0  0
  -18.0296  -28.1386   22.8482 C   0  0  0  0  0  0
  -24.1491  -36.7282   23.2640 C   0  0  0  0  0  0
  -25.9799  -30.7619   21.3831 C   0  0  0  0  0  0
  -26.0535  -29.3841   20.7234 C   0  0  0  0  0  0
  -27.2253  -28.5551   20.7288 C   0  0  0  0  0  0
  -26.0230  -26.8727   19.4694 C   0  0  0  0  0  0
  -24.8712  -27.6802   19.4658 C   0  0  0  0  0  0
  -23.6516  -29.8154   20.1566 C   0  0  0  0  0  0
  -25.4117  -36.3066   24.0325 C   0  0  1  0  0  0
  -20.5902  -28.3701   23.1258 C   0  0  2  0  0  0
  -20.6782  -26.9415   22.5406 C   0  0  0  0  0  0
  -19.5758  -26.6379   21.5211 C   0  0  0  0  0  0
  -18.1938  -26.7927   22.1623 C   0  0  0  0  0  0
  -19.1551  -28.8862   23.2864 C   0  0  0  0  0  0
  -18.9471  -30.1460   23.8887 C   0  0  0  0  0  0
  -17.6469  -30.6587   24.0560 C   0  0  0  0  0  0
  -25.9058  -34.9436   23.5090 C   0  0  0  0  0  0
  -16.5360  -29.9083   23.6331 C   0  0  0  0  0  0
  -16.7282  -28.6500   23.0354 C   0  0  0  0  0  0
  -26.4507  -31.6581   25.0731 C   0  0  0  0  0  0
  -25.3721  -31.3741   26.1446 C   0  0  0  0  0  0
  -27.0362  -30.2991   24.6242 C   0  0  0  0  0  0
  -27.6055  -32.4329   25.7506 C   0  0  0  0  0  0
  -27.5578  -37.1796   24.8464 C   0  0  0  0  0  0
  -21.4220  -29.3045   22.3645 N   0  0  0  0  0  0
  -26.4290  -37.3765   23.9407 N   0  0  0  0  0  0
  -24.7005  -31.0492   22.0971 N   0  0  0  0  0  0
  -23.4208  -28.8131   23.3001 O   0  0  0  0  0  0
  -28.2408  -26.2756   20.1955 O   0  0  0  0  0  0
  -26.5635  -34.8912   22.4661 O   0  0  0  0  0  0
  -23.5475  -32.1369   23.7265 O   0  0  0  0  0  0
  -28.4889  -22.6090   21.7641 C   0  0  0  0  0  0
  -28.7827  -21.2080   21.6579 C   0  0  0  0  0  0
  -28.7628  -22.8817   19.4172 C   0  0  0  0  0  0
  -28.4516  -23.5117   20.6575 C   0  0  0  0  0  0
  -29.0733  -21.4710   19.3033 C   0  0  0  0  0  0
  -29.0741  -20.5680   20.4221 C   0  0  0  0  0  0
  -30.7111  -18.7118   20.6522 C   0  0  0  0  0  0
  -28.4503  -18.1259   20.8905 C   0  0  0  0  0  0
  -31.0844  -17.2429   20.2176 C   0  0  0  0  0  0
  -28.7415  -16.5895   20.5322 C   0  0  0  0  0  0
  -29.3764  -20.9153   17.9231 C   0  0  0  0  0  0
  -27.8485  -24.9880   20.8784 C   0  0  0  0  0  0
  -29.3557  -19.1371   20.2992 N   0  0  0  0  0  0
  -30.1541  -16.0955   20.5125 N   0  0  0  0  0  0
  -31.4463  -12.5876   19.1500 H   0  0  0  0  0  0
  -30.3478  -11.5410   19.9921 H   0  0  0  0  0  0
  -29.7826  -11.7104   17.5391 H   0  0  0  0  0  0
  -29.6052  -13.4426   17.6886 H   0  0  0  0  0  0
  -27.8998  -11.2731   18.9461 H   0  0  0  0  0  0
  -27.3594  -12.4800   17.8095 H   0  0  0  0  0  0
  -27.5965  -14.2425   19.4224 H   0  0  0  0  0  0
  -28.7508  -12.2495   21.4320 H   0  0  0  0  0  0
  -28.4177  -13.9195   21.7758 H   0  0  0  0  0  0
  -25.2760   -9.5682   22.4772 H   0  0  0  0  0  0
  -24.0001   -7.4629   22.7476 H   0  0  0  0  0  0
  -21.0841   -8.8772   19.8954 H   0  0  0  0  0  0
  -22.3693  -10.9677   19.6178 H   0  0  0  0  0  0
  -21.2009   -7.6146   23.9711 H   0  0  0  0  0  0
  -21.1480   -6.0523   25.9075 H   0  0  0  0  0  0
  -22.0600   -2.7606   23.2847 H   0  0  0  0  0  0
  -22.4049  -11.9873   22.4833 H   0  0  0  0  0  0
  -21.1048  -13.1233   22.2645 H   0  0  0  0  0  0
  -24.6373  -15.8416   20.5162 H   0  0  0  0  0  0
  -26.2512  -15.6314   20.0626 H   0  0  0  0  0  0
  -26.7217  -32.5395   23.1074 H   0  0  0  0  0  0
  -25.0073  -33.9686   25.0390 H   0  0  0  0  0  0
  -22.7287  -31.3007   21.3962 H   0  0  0  0  0  0
  -23.3753  -35.9615   23.3299 H   0  0  0  0  0  0
  -24.3581  -36.8910   22.2056 H   0  0  0  0  0  0
  -23.7245  -37.6481   23.6669 H   0  0  0  0  0  0
  -26.1234  -31.5230   20.6150 H   0  0  0  0  0  0
  -26.8552  -30.8087   22.0192 H   0  0  0  0  0  0
  -28.1187  -28.8927   21.2355 H   0  0  0  0  0  0
  -25.9710  -25.9144   18.9716 H   0  0  0  0  0  0
  -23.9768  -27.3284   18.9701 H   0  0  0  0  0  0
  -23.7775  -30.5939   19.4032 H   0  0  0  0  0  0
  -22.7694  -29.2509   19.8491 H   0  0  0  0  0  0
  -25.1300  -36.1911   25.0818 H   0  0  0  0  0  0
  -20.9995  -28.3283   24.1379 H   0  0  0  0  0  0
  -20.5677  -26.2314   23.3615 H   0  0  0  0  0  0
  -21.6650  -26.7431   22.1205 H   0  0  0  0  0  0
  -19.6919  -25.6287   21.1249 H   0  0  0  0  0  0
  -19.6694  -27.3182   20.6735 H   0  0  0  0  0  0
  -17.4206  -26.6670   21.4028 H   0  0  0  0  0  0
  -18.0341  -26.0071   22.9023 H   0  0  0  0  0  0
  -19.7946  -30.7278   24.2252 H   0  0  0  0  0  0
  -17.5023  -31.6267   24.5162 H   0  0  0  0  0  0
  -15.5360  -30.2982   23.7659 H   0  0  0  0  0  0
  -15.8682  -28.0814   22.7077 H   0  0  0  0  0  0
  -24.5901  -30.7085   25.7772 H   0  0  0  0  0  0
  -24.8908  -32.2914   26.4846 H   0  0  0  0  0  0
  -25.8029  -30.8934   27.0238 H   0  0  0  0  0  0
  -26.2957  -29.6732   24.1247 H   0  0  0  0  0  0
  -27.4009  -29.7265   25.4780 H   0  0  0  0  0  0
  -27.8850  -30.4257   23.9519 H   0  0  0  0  0  0
  -27.2658  -33.3634   26.2065 H   0  0  0  0  0  0
  -28.3873  -32.6881   25.0340 H   0  0  0  0  0  0
  -28.0716  -31.8468   26.5437 H   0  0  0  0  0  0
  -28.2594  -38.0094   24.7508 H   0  0  0  0  0  0
  -28.1076  -36.2624   24.6294 H   0  0  0  0  0  0
  -27.2297  -37.1449   25.8868 H   0  0  0  0  0  0
  -20.9409  -29.8776   21.6854 H   0  0  0  0  0  0
  -26.0168  -38.2839   24.1406 H   0  0  0  0  0  0
  -28.2350  -22.9903   22.7432 H   0  0  0  0  0  0
  -28.7651  -20.6153   22.5612 H   0  0  0  0  0  0
  -28.7221  -23.4859   18.5217 H   0  0  0  0  0  0
  -31.4279  -19.4071   20.2114 H   0  0  0  0  0  0
  -30.8342  -18.8072   21.7330 H   0  0  0  0  0  0
  -28.4872  -18.2371   21.9759 H   0  0  0  0  0  0
  -27.4240  -18.3686   20.6096 H   0  0  0  0  0  0
  -32.0653  -17.0521   20.6569 H   0  0  0  0  0  0
  -31.2448  -17.2420   19.1382 H   0  0  0  0  0  0
  -28.3462  -16.4059   19.5331 H   0  0  0  0  0  0
  -28.1492  -15.9809   21.2108 H   0  0  0  0  0  0
  -29.3839  -21.6960   17.1626 H   0  0  0  0  0  0
  -28.6265  -20.1754   17.6421 H   0  0  0  0  0  0
  -30.3524  -20.4294   17.9161 H   0  0  0  0  0  0
  -27.9961  -25.2047   21.9371 H   0  0  0  0  0  0
  -26.7729  -24.8348   20.7996 H   0  0  0  0  0  0
  1 25  1  0  0  0
  1 30  2  0  0  0
  1 84  1  0  0  0
  2  3  1  0  0  0
  2 25  1  0  0  0
  2 85  1  0  0  0
  2 86  1  0  0  0
  3  4  1  0  0  0
  3 87  1  0  0  0
  3 88  1  0  0  0
  4  5  1  0  0  0
  4 89  1  0  0  0
  4 90  1  0  0  0
  5  6  1  0  0  0
  5 26  1  0  0  0
  5 91  1  0  0  0
  6 25  1  0  0  0
  6 92  1  0  0  0
  6 93  1  0  0  0
  7  8  2  0  0  0
  7 26  1  0  0  0
  7 29  1  0  0  0
  8  9  1  0  0  0
  8 22  1  0  0  0
  9 10  1  0  0  0
  9 27  2  0  0  0
 10 11  2  0  0  0
 10 15  1  0  0  0
 11 12  1  0  0  0
 11 94  1  0  0  0
 12 13  2  0  0  0
 12 95  1  0  0  0
 13 14  1  0  0  0
 13 31  1  0  0  0
 14 15  2  0  0  0
 14 96  1  0  0  0
 15 97  1  0  0  0
 16 17  2  0  0  0
 16 21  1  0  0  0
 16 31  1  0  0  0
 17 18  1  0  0  0
 17 98  1  0  0  0
 18 19  2  0  0  0
 18 99  1  0  0  0
 19 20  1  0  0  0
 19 24  1  0  0  0
 20 21  2  0  0  0
 20100  1  0  0  0
 21 23  1  0  0  0
 22 28  1  0  0  0
 22 32  2  0  0  0
 26 27  1  0  0  0
 28101  1  0  0  0
 28102  1  0  0  0
 29103  1  0  0  0
 29104  1  0  0  0
 33 34  1  0  0  0
 33 66  1  0  0  0
 33 70  2  0  0  0
 34 36  1  0  0  0
 34 59  1  0  0  0
 34105  1  0  0  0
 35 44  2  0  0  0
 35 45  1  0  0  0
 35 68  1  0  0  0
 36 56  1  0  0  0
 36106  1  0  0  0
 37 39  1  0  0  0
 37 47  1  0  0  0
 37 66  1  0  0  0
 37107  1  0  0  0
 38 43  2  0  0  0
 38 46  1  0  0  0
 38 47  1  0  0  0
 39 64  1  0  0  0
 39 67  2  0  0  0
 40 52  1  0  0  0
 40 53  2  0  0  0
 40 58  1  0  0  0
 41108  1  0  0  0
 41109  1  0  0  0
 41110  1  0  0  0
 41 48  1  0  0  0
 42 43  1  0  0  0
 42 66  1  0  0  0
 42111  1  0  0  0
 42112  1  0  0  0
 43 44  1  0  0  0
 44113  1  0  0  0
 45 46  2  0  0  0
 45114  1  0  0  0
 46115  1  0  0  0
 47116  1  0  0  0
 47117  1  0  0  0
 48 56  1  0  0  0
 48 65  1  0  0  0
 48118  1  0  0  0
 49 50  1  0  0  0
 49 53  1  0  0  0
 49 64  1  0  0  0
 49119  1  0  0  0
 50 51  1  0  0  0
 50120  1  0  0  0
 50121  1  0  0  0
 51 52  1  0  0  0
 51122  1  0  0  0
 51123  1  0  0  0
 52124  1  0  0  0
 52125  1  0  0  0
 53 54  1  0  0  0
 54 55  2  0  0  0
 54126  1  0  0  0
 55 57  1  0  0  0
 55127  1  0  0  0
 56 69  2  0  0  0
 57 58  2  0  0  0
 57128  1  0  0  0
 58129  1  0  0  0
 59 60  1  0  0  0
 59 61  1  0  0  0
 59 62  1  0  0  0
 60130  1  0  0  0
 60131  1  0  0  0
 60132  1  0  0  0
 61133  1  0  0  0
 61134  1  0  0  0
 61135  1  0  0  0
 62136  1  0  0  0
 62137  1  0  0  0
 62138  1  0  0  0
 63 65  1  0  0  0
 63139  1  0  0  0
 63140  1  0  0  0
 63141  1  0  0  0
 64142  1  0  0  0
 65143  1  0  0  0
 68 82  1  0  0  0
 71 72  2  0  0  0
 71 74  1  0  0  0
 71144  1  0  0  0
 72 76  1  0  0  0
 72145  1  0  0  0
 73 74  2  0  0  0
 73 75  1  0  0  0
 73146  1  0  0  0
 74 82  1  0  0  0
 75 76  2  0  0  0
 75 81  1  0  0  0
 76 83  1  0  0  0
 77 79  1  0  0  0
 77 83  1  0  0  0
 77147  1  0  0  0
 77148  1  0  0  0
 78 80  1  0  0  0
 78 83  1  0  0  0
 78149  1  0  0  0
 78150  1  0  0  0
 79 84  1  0  0  0
 79151  1  0  0  0
 79152  1  0  0  0
 80 84  1  0  0  0
 80153  1  0  0  0
 80154  1  0  0  0
 81155  1  0  0  0
 81156  1  0  0  0
 81157  1  0  0  0
 82158  1  0  0  0
 82159  1  0  0  0
M  ISO  4   1 100  68 101  82 101  84 100
M  END
> <chiral flag>
0

> <version>
0

> <s_m_source_file>
/data/baiqing/PycharmProjects/Reinvent-master-3.2/result/LINK_invent/BTK/process_docking_weight1_custom_sum_contain_oxygen_bond_distance_aromatic_linkinvent_7_9_3/rearranged_h_0137.sdf

> <i_m_source_file_index>
85

> <r_mmod_Potential_Energy-OPLS-2005>
447.599029541016

> <r_mmod_Stretch_Energy-OPLS-2005>
129.408920288086

> <r_mmod_Bend_Energy-OPLS-2005>
229.680282592773

> <r_mmod_Torsional_Energy-OPLS-2005>
370.936248779297

> <r_mmod_Improper_Torsional_Energy-OPLS-2005>
12.8916940689087

> <r_mmod_Van_der_Waal_Energy-OPLS-2005>
151.022644042969

> <r_mmod_Electrostatic_Energy-OPLS-2005>
-351.015594482422

> <r_mmod_Solvation_Energy-OPLS-2005>
-209.134979248047

> <b_mmod_Minimization_Converged-OPLS-2005>
0

> <r_mmod_RMS_Derivative-OPLS-2005>
0.326807647943497

$$$$
85
                    3D
 Structure written by MMmdl.
160168  0  0  1  0            999 V2000
  -30.6895  -14.4478   20.5822 C   0  0  0  0  0  0
  -30.4286  -12.2959   19.4162 C   0  0  0  0  0  0
  -29.4936  -12.5013   18.2057 C   0  0  0  0  0  0
  -28.0132  -12.3708   18.6179 C   0  0  0  0  0  0
  -27.6666  -13.2000   19.8830 C   0  0  2  0  0  0
  -28.7063  -12.9517   21.0000 C   0  0  0  0  0  0
  -25.2610  -13.8140   20.5685 C   0  0  0  0  0  0
  -24.1850  -13.0432   20.9176 C   0  0  0  0  0  0
  -24.6404  -11.6890   20.8757 C   0  0  0  0  0  0
  -23.9053  -10.4286   21.0443 C   0  0  0  0  0  0
  -24.3615   -9.4190   21.9207 C   0  0  0  0  0  0
  -23.6299   -8.2227   22.0756 C   0  0  0  0  0  0
  -22.4275   -8.0277   21.3546 C   0  0  0  0  0  0
  -21.9918   -9.0250   20.4644 C   0  0  0  0  0  0
  -22.7236  -10.2136   20.3075 C   0  0  0  0  0  0
  -21.6848   -6.0741   22.5283 C   0  0  0  0  0  0
  -21.4005   -6.5643   23.8215 C   0  0  0  0  0  0
  -21.3653   -5.6801   24.9176 C   0  0  0  0  0  0
  -21.6042   -4.3065   24.7235 C   0  0  0  0  0  0
  -21.8813   -3.8152   23.4353 C   0  0  0  0  0  0
  -21.9193   -4.6968   22.3410 C   0  0  0  0  0  0
  -22.7865  -13.5235   21.1841 C   0  0  0  0  0  0
  -22.1652   -4.2152   21.0985 F   0  0  0  0  0  0
  -21.5651   -3.4551   25.7750 F   0  0  0  0  0  0
  -30.0396  -13.2616   20.4541 N   0  0  0  0  0  0
  -26.3046  -12.9304   20.3394 N   0  0  0  0  0  0
  -25.9329  -11.6467   20.5784 N   0  0  0  0  0  0
  -22.0502  -12.8232   22.0400 N   0  0  0  0  0  0
  -25.4347  -15.1858   20.4066 N   0  0  0  0  0  0
  -31.8027  -14.6677   20.0952 O   0  0  0  0  0  0
  -21.6629   -6.8882   21.4245 O   0  0  0  0  0  0
  -22.3556  -14.5547   20.6689 O   0  0  0  0  0  0
  -24.6137  -31.8684   23.2106 C   0  0  0  0  0  0
  -25.9039  -32.4817   23.8396 C   0  0  1  0  0  0
  -27.2373  -27.4376   20.0788 C   0  0  0  0  0  0
  -25.5902  -33.8622   24.2321 N   0  0  0  0  0  0
  -23.4006  -30.4912   21.5504 C   0  0  2  0  0  0
  -24.8444  -28.9524   20.1161 C   0  0  0  0  0  0
  -22.7398  -29.4671   22.5000 C   0  0  0  0  0  0
  -18.0270  -28.1374   22.8500 C   0  0  0  0  0  0
  -24.1488  -36.7314   23.2639 C   0  0  0  0  0  0
  -25.9286  -30.8301   21.3654 C   0  0  0  0  0  0
  -26.0022  -29.4634   20.7127 C   0  0  0  0  0  0
  -27.1952  -28.7082   20.6993 C   0  0  0  0  0  0
  -26.0548  -26.9313   19.4918 C   0  0  0  0  0  0
  -24.8641  -27.6842   19.5100 C   0  0  0  0  0  0
  -23.6075  -29.8205   20.1655 C   0  0  0  0  0  0
  -25.4113  -36.3110   24.0336 C   0  0  1  0  0  0
  -20.5856  -28.3667   23.1314 C   0  0  2  0  0  0
  -20.6762  -26.9407   22.5411 C   0  0  0  0  0  0
  -19.5733  -26.6368   21.5223 C   0  0  0  0  0  0
  -18.1906  -26.7922   22.1619 C   0  0  0  0  0  0
  -19.1515  -28.8838   23.2898 C   0  0  0  0  0  0
  -18.9449  -30.1456   23.8889 C   0  0  0  0  0  0
  -17.6453  -30.6593   24.0550 C   0  0  0  0  0  0
  -25.9047  -34.9476   23.5131 C   0  0  0  0  0  0
  -16.5342  -29.9087   23.6332 C   0  0  0  0  0  0
  -16.7259  -28.6500   23.0360 C   0  0  0  0  0  0
  -26.4471  -31.6599   25.0727 C   0  0  0  0  0  0
  -25.3738  -31.3702   26.1476 C   0  0  0  0  0  0
  -27.0307  -30.3042   24.6108 C   0  0  0  0  0  0
  -27.6045  -32.4326   25.7481 C   0  0  0  0  0  0
  -27.5580  -37.1813   24.8467 C   0  0  0  0  0  0
  -21.4125  -29.3035   22.3723 N   0  0  0  0  0  0
  -26.4297  -37.3796   23.9404 N   0  0  0  0  0  0
  -24.6654  -31.0794   22.0994 N   0  0  0  0  0  0
  -23.4172  -28.8229   23.3049 O   0  0  0  0  0  0
  -28.4383  -26.7564   20.0829 O   0  0  0  0  0  0
  -26.5608  -34.8928   22.4691 O   0  0  0  0  0  0
  -23.5335  -32.1432   23.7505 O   0  0  0  0  0  0
  -27.8414  -21.3654   20.5558 C   0  0  0  0  0  0
  -29.9906  -19.7581   19.9925 C   0  0  0  0  0  0
  -27.7875  -20.0096   20.9452 C   0  0  0  0  0  0
  -28.8948  -19.1672   20.6615 C   0  0  0  0  0  0
  -28.9680  -21.8433   19.8662 C   0  0  0  0  0  0
  -26.6224  -19.6750   23.1686 C   0  0  0  0  0  0
  -26.5348  -19.5079   21.6475 C   0  0  0  0  0  0
  -28.8669  -17.6704   21.0204 C   0  0  0  0  0  0
  -30.1934  -16.8718   20.9263 C   0  0  0  0  0  0
  -28.3645  -24.2667   19.9997 C   0  0  0  0  0  0
  -28.6355  -25.6002   19.2614 C   0  0  0  0  0  0
  -30.0210  -21.0525   19.5968 N   0  0  0  0  0  0
  -29.0724  -23.1485   19.3710 N   0  0  0  0  0  0
  -29.9546  -15.4358   21.1174 N   0  0  0  0  0  0
  -31.4700  -12.4092   19.1105 H   0  0  0  0  0  0
  -30.3440  -11.2788   19.8019 H   0  0  0  0  0  0
  -29.7249  -11.7771   17.4230 H   0  0  0  0  0  0
  -29.6664  -13.4865   17.7700 H   0  0  0  0  0  0
  -27.8144  -11.3145   18.8035 H   0  0  0  0  0  0
  -27.3646  -12.6599   17.7893 H   0  0  0  0  0  0
  -27.7193  -14.2506   19.5997 H   0  0  0  0  0  0
  -28.6785  -11.9077   21.3162 H   0  0  0  0  0  0
  -28.4707  -13.5323   21.8931 H   0  0  0  0  0  0
  -25.2776   -9.5663   22.4769 H   0  0  0  0  0  0
  -24.0006   -7.4618   22.7482 H   0  0  0  0  0  0
  -21.0844   -8.8769   19.8959 H   0  0  0  0  0  0
  -22.3704  -10.9678   19.6181 H   0  0  0  0  0  0
  -21.1967   -7.6151   23.9718 H   0  0  0  0  0  0
  -21.1487   -6.0531   25.9081 H   0  0  0  0  0  0
  -22.0599   -2.7615   23.2853 H   0  0  0  0  0  0
  -22.4116  -11.9896   22.4792 H   0  0  0  0  0  0
  -21.1126  -13.1268   22.2634 H   0  0  0  0  0  0
  -24.6643  -15.8383   20.5019 H   0  0  0  0  0  0
  -26.2762  -15.6157   20.0462 H   0  0  0  0  0  0
  -26.7105  -32.5517   23.1152 H   0  0  0  0  0  0
  -25.0047  -33.9787   25.0462 H   0  0  0  0  0  0
  -22.6884  -31.3073   21.4108 H   0  0  0  0  0  0
  -23.3748  -35.9651   23.3323 H   0  0  0  0  0  0
  -24.3573  -36.8909   22.2048 H   0  0  0  0  0  0
  -23.7247  -37.6529   23.6643 H   0  0  0  0  0  0
  -26.0469  -31.5966   20.5985 H   0  0  0  0  0  0
  -26.8145  -30.8781   21.9871 H   0  0  0  0  0  0
  -28.0913  -29.1024   21.1588 H   0  0  0  0  0  0
  -26.0295  -25.9585   19.0227 H   0  0  0  0  0  0
  -23.9684  -27.2826   19.0555 H   0  0  0  0  0  0
  -23.7146  -30.5927   19.4028 H   0  0  0  0  0  0
  -22.7311  -29.2400   19.8722 H   0  0  0  0  0  0
  -25.1289  -36.1975   25.0830 H   0  0  0  0  0  0
  -20.9923  -28.3227   24.1438 H   0  0  0  0  0  0
  -21.6627  -26.7480   22.1162 H   0  0  0  0  0  0
  -20.5719  -26.2269   23.3597 H   0  0  0  0  0  0
  -19.6892  -25.6268   21.1277 H   0  0  0  0  0  0
  -19.6675  -27.3164   20.6737 H   0  0  0  0  0  0
  -17.4197  -26.6687   21.4000 H   0  0  0  0  0  0
  -18.0274  -26.0048   22.8998 H   0  0  0  0  0  0
  -19.7941  -30.7274   24.2234 H   0  0  0  0  0  0
  -17.5021  -31.6285   24.5133 H   0  0  0  0  0  0
  -15.5343  -30.2990   23.7676 H   0  0  0  0  0  0
  -15.8653  -28.0827   22.7081 H   0  0  0  0  0  0
  -24.5899  -30.7067   25.7805 H   0  0  0  0  0  0
  -24.8951  -32.2861   26.4957 H   0  0  0  0  0  0
  -25.8096  -30.8838   27.0211 H   0  0  0  0  0  0
  -26.2851  -29.6799   24.1169 H   0  0  0  0  0  0
  -27.4078  -29.7285   25.4571 H   0  0  0  0  0  0
  -27.8687  -30.4368   23.9260 H   0  0  0  0  0  0
  -27.2657  -33.3606   26.2102 H   0  0  0  0  0  0
  -28.3824  -32.6922   25.0287 H   0  0  0  0  0  0
  -28.0747  -31.8428   26.5357 H   0  0  0  0  0  0
  -28.2615  -38.0093   24.7498 H   0  0  0  0  0  0
  -28.1054  -36.2626   24.6312 H   0  0  0  0  0  0
  -27.2291  -37.1489   25.8868 H   0  0  0  0  0  0
  -20.9288  -29.8739   21.6929 H   0  0  0  0  0  0
  -26.0186  -38.2876   24.1395 H   0  0  0  0  0  0
  -27.0014  -22.0118   20.7666 H   0  0  0  0  0  0
  -30.8714  -19.1902   19.7375 H   0  0  0  0  0  0
  -26.7555  -20.7229   23.4454 H   0  0  0  0  0  0
  -27.4590  -19.1093   23.5784 H   0  0  0  0  0  0
  -25.7119  -19.3149   23.6480 H   0  0  0  0  0  0
  -26.3358  -18.4672   21.3908 H   0  0  0  0  0  0
  -25.6747  -20.0641   21.2724 H   0  0  0  0  0  0
  -28.1306  -17.2053   20.3636 H   0  0  0  0  0  0
  -28.4822  -17.5660   22.0349 H   0  0  0  0  0  0
  -30.6409  -17.0129   19.9415 H   0  0  0  0  0  0
  -30.9160  -17.2201   21.6665 H   0  0  0  0  0  0
  -27.2909  -24.0777   20.0335 H   0  0  0  0  0  0
  -28.7109  -24.3405   21.0312 H   0  0  0  0  0  0
  -28.0953  -25.6568   18.3150 H   0  0  0  0  0  0
  -29.6883  -25.6367   18.9809 H   0  0  0  0  0  0
  -29.9436  -23.3769   18.9044 H   0  0  0  0  0  0
  -29.0682  -15.1623   21.5148 H   0  0  0  0  0  0
  1 25  1  0  0  0
  1 30  2  0  0  0
  1 84  1  0  0  0
  2  3  1  0  0  0
  2 25  1  0  0  0
  2 85  1  0  0  0
  2 86  1  0  0  0
  3  4  1  0  0  0
  3 87  1  0  0  0
  3 88  1  0  0  0
  4  5  1  0  0  0
  4 89  1  0  0  0
  4 90  1  0  0  0
  5  6  1  0  0  0
  5 26  1  0  0  0
  5 91  1  0  0  0
  6 25  1  0  0  0
  6 92  1  0  0  0
  6 93  1  0  0  0
  7  8  2  0  0  0
  7 26  1  0  0  0
  7 29  1  0  0  0
  8  9  1  0  0  0
  8 22  1  0  0  0
  9 10  1  0  0  0
  9 27  2  0  0  0
 10 11  2  0  0  0
 10 15  1  0  0  0
 11 12  1  0  0  0
 11 94  1  0  0  0
 12 13  2  0  0  0
 12 95  1  0  0  0
 13 14  1  0  0  0
 13 31  1  0  0  0
 14 15  2  0  0  0
 14 96  1  0  0  0
 15 97  1  0  0  0
 16 17  2  0  0  0
 16 21  1  0  0  0
 16 31  1  0  0  0
 17 18  1  0  0  0
 17 98  1  0  0  0
 18 19  2  0  0  0
 18 99  1  0  0  0
 19 20  1  0  0  0
 19 24  1  0  0  0
 20 21  2  0  0  0
 20100  1  0  0  0
 21 23  1  0  0  0
 22 28  1  0  0  0
 22 32  2  0  0  0
 26 27  1  0  0  0
 28101  1  0  0  0
 28102  1  0  0  0
 29103  1  0  0  0
 29104  1  0  0  0
 33 34  1  0  0  0
 33 66  1  0  0  0
 33 70  2  0  0  0
 34 36  1  0  0  0
 34 59  1  0  0  0
 34105  1  0  0  0
 35 44  2  0  0  0
 35 45  1  0  0  0
 35 68  1  0  0  0
 36 56  1  0  0  0
 36106  1  0  0  0
 37 39  1  0  0  0
 37 47  1  0  0  0
 37 66  1  0  0  0
 37107  1  0  0  0
 38 43  2  0  0  0
 38 46  1  0  0  0
 38 47  1  0  0  0
 39 64  1  0  0  0
 39 67  2  0  0  0
 40 52  1  0  0  0
 40 53  2  0  0  0
 40 58  1  0  0  0
 41108  1  0  0  0
 41109  1  0  0  0
 41110  1  0  0  0
 41 48  1  0  0  0
 42 43  1  0  0  0
 42 66  1  0  0  0
 42111  1  0  0  0
 42112  1  0  0  0
 43 44  1  0  0  0
 44113  1  0  0  0
 45 46  2  0  0  0
 45114  1  0  0  0
 46115  1  0  0  0
 47116  1  0  0  0
 47117  1  0  0  0
 48 56  1  0  0  0
 48 65  1  0  0  0
 48118  1  0  0  0
 49 50  1  0  0  0
 49 53  1  0  0  0
 49 64  1  0  0  0
 49119  1  0  0  0
 50 51  1  0  0  0
 50120  1  0  0  0
 50121  1  0  0  0
 51 52  1  0  0  0
 51122  1  0  0  0
 51123  1  0  0  0
 52124  1  0  0  0
 52125  1  0  0  0
 53 54  1  0  0  0
 54 55  2  0  0  0
 54126  1  0  0  0
 55 57  1  0  0  0
 55127  1  0  0  0
 56 69  2  0  0  0
 57 58  2  0  0  0
 57128  1  0  0  0
 58129  1  0  0  0
 59 60  1  0  0  0
 59 61  1  0  0  0
 59 62  1  0  0  0
 60130  1  0  0  0
 60131  1  0  0  0
 60132  1  0  0  0
 61133  1  0  0  0
 61134  1  0  0  0
 61135  1  0  0  0
 62136  1  0  0  0
 62137  1  0  0  0
 62138  1  0  0  0
 63 65  1  0  0  0
 63139  1  0  0  0
 63140  1  0  0  0
 63141  1  0  0  0
 64142  1  0  0  0
 65143  1  0  0  0
 68 81  1  0  0  0
 71 73  2  0  0  0
 71 75  1  0  0  0
 71144  1  0  0  0
 72 74  2  0  0  0
 72 82  1  0  0  0
 72145  1  0  0  0
 73 74  1  0  0  0
 73 77  1  0  0  0
 74 78  1  0  0  0
 75 82  2  0  0  0
 75 83  1  0  0  0
 76 77  1  0  0  0
 76146  1  0  0  0
 76147  1  0  0  0
 76148  1  0  0  0
 77149  1  0  0  0
 77150  1  0  0  0
 78 79  1  0  0  0
 78151  1  0  0  0
 78152  1  0  0  0
 79 84  1  0  0  0
 79153  1  0  0  0
 79154  1  0  0  0
 80 81  1  0  0  0
 80 83  1  0  0  0
 80155  1  0  0  0
 80156  1  0  0  0
 81157  1  0  0  0
 81158  1  0  0  0
 83159  1  0  0  0
 84160  1  0  0  0
M  ISO  4   1 100  68 101  81 101  84 100
M  END
> <chiral flag>
0

> <version>
0

> <s_m_source_file>
/data/baiqing/PycharmProjects/Reinvent-master-3.2/result/LINK_invent/BTK/process_docking_weight1_custom_sum_contain_oxygen_bond_distance_aromatic_linkinvent_7_9_3/rearranged_h_0137.sdf

> <i_m_source_file_index>
86

> <r_mmod_Potential_Energy-OPLS-2005>
-370.306823730469

> <r_mmod_Stretch_Energy-OPLS-2005>
35.6976013183594

> <r_mmod_Bend_Energy-OPLS-2005>
110.378913879395

> <r_mmod_Torsional_Energy-OPLS-2005>
189.353286743164

> <r_mmod_Improper_Torsional_Energy-OPLS-2005>
6.82408952713013

> <r_mmod_Van_der_Waal_Energy-OPLS-2005>
156.012130737305

> <r_mmod_Electrostatic_Energy-OPLS-2005>
-641.484191894531

> <r_mmod_Solvation_Energy-OPLS-2005>
-237.95524597168

> <b_mmod_Minimization_Converged-OPLS-2005>
0

> <r_mmod_RMS_Derivative-OPLS-2005>
1.98536801338196

$$$$
86
                    3D
 Structure written by MMmdl.
166175  0  0  1  0            999 V2000
  -30.6761  -14.4993   20.5018 C   0  0  0  0  0  0
  -30.4342  -12.3012   19.4454 C   0  0  0  0  0  0
  -29.5022  -12.4529   18.2247 C   0  0  0  0  0  0
  -28.0222  -12.3331   18.6419 C   0  0  0  0  0  0
  -27.6583  -13.1779   19.8931 C   0  0  2  0  0  0
  -28.7101  -13.0017   21.0117 C   0  0  0  0  0  0
  -25.2608  -13.8071   20.5757 C   0  0  0  0  0  0
  -24.1824  -13.0405   20.9220 C   0  0  0  0  0  0
  -24.6346  -11.6864   20.8806 C   0  0  0  0  0  0
  -23.9013  -10.4273   21.0451 C   0  0  0  0  0  0
  -24.3590   -9.4182   21.9205 C   0  0  0  0  0  0
  -23.6287   -8.2211   22.0752 C   0  0  0  0  0  0
  -22.4257   -8.0267   21.3559 C   0  0  0  0  0  0
  -21.9884   -9.0232   20.4659 C   0  0  0  0  0  0
  -22.7199  -10.2119   20.3081 C   0  0  0  0  0  0
  -21.6845   -6.0737   22.5298 C   0  0  0  0  0  0
  -21.4007   -6.5646   23.8229 C   0  0  0  0  0  0
  -21.3655   -5.6791   24.9186 C   0  0  0  0  0  0
  -21.6040   -4.3051   24.7232 C   0  0  0  0  0  0
  -21.8822   -3.8148   23.4352 C   0  0  0  0  0  0
  -21.9195   -4.6968   22.3414 C   0  0  0  0  0  0
  -22.7853  -13.5249   21.1858 C   0  0  0  0  0  0
  -22.1664   -4.2156   21.0991 F   0  0  0  0  0  0
  -21.5628   -3.4534   25.7742 F   0  0  0  0  0  0
  -30.0338  -13.3047   20.4457 N   0  0  0  0  0  0
  -26.3010  -12.9161   20.3503 N   0  0  0  0  0  0
  -25.9273  -11.6363   20.5902 N   0  0  0  0  0  0
  -22.0475  -12.8260   22.0410 N   0  0  0  0  0  0
  -25.4334  -15.1793   20.4163 N   0  0  0  0  0  0
  -31.8539  -14.6396   20.1521 O   0  0  0  0  0  0
  -21.6614   -6.8877   21.4263 O   0  0  0  0  0  0
  -22.3585  -14.5565   20.6695 O   0  0  0  0  0  0
  -24.6132  -31.8685   23.2126 C   0  0  0  0  0  0
  -25.9036  -32.4822   23.8410 C   0  0  1  0  0  0
  -27.2154  -27.4355   20.1077 C   0  0  0  0  0  0
  -25.5893  -33.8622   24.2330 N   0  0  0  0  0  0
  -23.4013  -30.4927   21.5506 C   0  0  2  0  0  0
  -24.8495  -28.9693   20.1020 C   0  0  0  0  0  0
  -22.7406  -29.4655   22.4974 C   0  0  0  0  0  0
  -18.0274  -28.1363   22.8495 C   0  0  0  0  0  0
  -24.1481  -36.7318   23.2638 C   0  0  0  0  0  0
  -25.9307  -30.8368   21.3669 C   0  0  0  0  0  0
  -26.0080  -29.4748   20.7087 C   0  0  0  0  0  0
  -27.1985  -28.7118   20.7140 C   0  0  0  0  0  0
  -26.0562  -26.9567   19.4683 C   0  0  0  0  0  0
  -24.8693  -27.7112   19.4753 C   0  0  0  0  0  0
  -23.6086  -29.8307   20.1618 C   0  0  0  0  0  0
  -25.4105  -36.3123   24.0339 C   0  0  1  0  0  0
  -20.5864  -28.3655   23.1306 C   0  0  2  0  0  0
  -20.6746  -26.9390   22.5414 C   0  0  0  0  0  0
  -19.5740  -26.6374   21.5202 C   0  0  0  0  0  0
  -18.1919  -26.7915   22.1620 C   0  0  0  0  0  0
  -19.1520  -28.8831   23.2896 C   0  0  0  0  0  0
  -18.9449  -30.1430   23.8905 C   0  0  0  0  0  0
  -17.6450  -30.6574   24.0571 C   0  0  0  0  0  0
  -25.9032  -34.9478   23.5140 C   0  0  0  0  0  0
  -16.5350  -29.9073   23.6326 C   0  0  0  0  0  0
  -16.7259  -28.6493   23.0353 C   0  0  0  0  0  0
  -26.4466  -31.6602   25.0734 C   0  0  0  0  0  0
  -25.3735  -31.3734   26.1494 C   0  0  0  0  0  0
  -27.0270  -30.3035   24.6109 C   0  0  0  0  0  0
  -27.6062  -32.4316   25.7467 C   0  0  0  0  0  0
  -27.5578  -37.1817   24.8465 C   0  0  0  0  0  0
  -21.4137  -29.3022   22.3716 N   0  0  0  0  0  0
  -26.4299  -37.3800   23.9406 N   0  0  0  0  0  0
  -24.6659  -31.0797   22.1011 N   0  0  0  0  0  0
  -23.4186  -28.8204   23.3017 O   0  0  0  0  0  0
  -28.3130  -26.6106   20.1688 O   0  0  0  0  0  0
  -26.5598  -34.8935   22.4700 O   0  0  0  0  0  0
  -23.5329  -32.1431   23.7529 O   0  0  0  0  0  0
  -29.1082  -18.7320   20.7463 C   0  0  0  0  0  0
  -29.0560  -20.1486   20.8353 C   0  0  0  0  0  0
  -30.8814  -20.2936   19.2531 C   0  0  0  0  0  0
  -30.0230  -18.0838   19.8759 C   0  0  0  0  0  0
  -30.9505  -18.8913   19.1618 C   0  0  0  0  0  0
  -29.9239  -20.9440   20.0482 C   0  0  0  0  0  0
  -30.2252  -24.4515   20.8243 C   0  0  0  0  0  0
  -27.9079  -23.6283   20.5670 C   0  0  0  0  0  0
  -29.7317  -25.5821   21.7470 C   0  0  0  0  0  0
  -27.4520  -24.7862   21.4879 C   0  0  0  0  0  0
  -29.3456  -23.1921   20.8994 C   0  0  0  0  0  0
  -31.9981  -18.3102   18.2239 C   0  0  0  0  0  0
  -28.6189  -16.4391   18.6246 C   0  0  0  0  0  0
  -29.8654  -16.5931   19.5097 C   0  0  2  0  0  0
  -28.3446  -25.9626   21.4797 N   0  0  0  0  0  0
  -29.8587  -15.5729   20.5824 N   0  0  0  0  0  0
  -29.9043  -22.3190   19.9181 O   0  0  0  0  0  0
  -31.4745  -12.4149   19.1346 H   0  0  0  0  0  0
  -30.3600  -11.2975   19.8646 H   0  0  0  0  0  0
  -29.7284  -11.6815   17.4857 H   0  0  0  0  0  0
  -29.6821  -13.4075   17.7288 H   0  0  0  0  0  0
  -27.8351  -11.2803   18.8539 H   0  0  0  0  0  0
  -27.3738  -12.5945   17.8050 H   0  0  0  0  0  0
  -27.6680  -14.2116   19.5917 H   0  0  0  0  0  0
  -28.6998  -11.9774   21.3849 H   0  0  0  0  0  0
  -28.4881  -13.6369   21.8706 H   0  0  0  0  0  0
  -25.2760   -9.5626   22.4743 H   0  0  0  0  0  0
  -23.9998   -7.4590   22.7445 H   0  0  0  0  0  0
  -21.0813   -8.8757   19.8964 H   0  0  0  0  0  0
  -22.3689  -10.9656   19.6175 H   0  0  0  0  0  0
  -21.1998   -7.6158   23.9740 H   0  0  0  0  0  0
  -21.1468   -6.0517   25.9087 H   0  0  0  0  0  0
  -22.0598   -2.7613   23.2853 H   0  0  0  0  0  0
  -22.4086  -11.9942   22.4840 H   0  0  0  0  0  0
  -21.1100  -13.1298   22.2594 H   0  0  0  0  0  0
  -24.6620  -15.8297   20.5158 H   0  0  0  0  0  0
  -26.2784  -15.6169   20.0752 H   0  0  0  0  0  0
  -26.7109  -32.5532   23.1180 H   0  0  0  0  0  0
  -25.0026  -33.9779   25.0472 H   0  0  0  0  0  0
  -22.6876  -31.3081   21.4158 H   0  0  0  0  0  0
  -23.3726  -35.9668   23.3339 H   0  0  0  0  0  0
  -24.3567  -36.8885   22.2043 H   0  0  0  0  0  0
  -23.7247  -37.6548   23.6615 H   0  0  0  0  0  0
  -26.0462  -31.6056   20.6022 H   0  0  0  0  0  0
  -26.8172  -30.8844   21.9876 H   0  0  0  0  0  0
  -28.0878  -29.0802   21.2057 H   0  0  0  0  0  0
  -26.0646  -25.9833   18.9985 H   0  0  0  0  0  0
  -23.9800  -27.3207   18.9987 H   0  0  0  0  0  0
  -23.7092  -30.6099   19.4061 H   0  0  0  0  0  0
  -22.7336  -29.2485   19.8664 H   0  0  0  0  0  0
  -25.1288  -36.1994   25.0833 H   0  0  0  0  0  0
  -20.9955  -28.3217   24.1433 H   0  0  0  0  0  0
  -20.5633  -26.2263   23.3595 H   0  0  0  0  0  0
  -21.6615  -26.7399   22.1222 H   0  0  0  0  0  0
  -19.6890  -25.6297   21.1208 H   0  0  0  0  0  0
  -19.6683  -27.3195   20.6750 H   0  0  0  0  0  0
  -17.4184  -26.6662   21.4026 H   0  0  0  0  0  0
  -18.0332  -26.0048   22.9006 H   0  0  0  0  0  0
  -19.7922  -30.7236   24.2287 H   0  0  0  0  0  0
  -17.5008  -31.6250   24.5165 H   0  0  0  0  0  0
  -15.5350  -30.2982   23.7636 H   0  0  0  0  0  0
  -15.8661  -28.0806   22.7076 H   0  0  0  0  0  0
  -24.5892  -30.7089   25.7850 H   0  0  0  0  0  0
  -24.8947  -32.2896   26.4957 H   0  0  0  0  0  0
  -25.8092  -30.8897   27.0245 H   0  0  0  0  0  0
  -26.2795  -29.6818   24.1162 H   0  0  0  0  0  0
  -27.4019  -29.7267   25.4576 H   0  0  0  0  0  0
  -27.8651  -30.4343   23.9261 H   0  0  0  0  0  0
  -27.2701  -33.3614   26.2073 H   0  0  0  0  0  0
  -28.3841  -32.6873   25.0259 H   0  0  0  0  0  0
  -28.0755  -31.8415   26.5352 H   0  0  0  0  0  0
  -28.2638  -38.0076   24.7474 H   0  0  0  0  0  0
  -28.1034  -36.2609   24.6338 H   0  0  0  0  0  0
  -27.2293  -37.1523   25.8871 H   0  0  0  0  0  0
  -20.9291  -29.8757   21.6955 H   0  0  0  0  0  0
  -26.0194  -38.2884   24.1397 H   0  0  0  0  0  0
  -28.3798  -18.1467   21.2905 H   0  0  0  0  0  0
  -28.3017  -20.6120   21.4554 H   0  0  0  0  0  0
  -31.5567  -20.9027   18.6672 H   0  0  0  0  0  0
  -31.2530  -24.1966   21.0821 H   0  0  0  0  0  0
  -30.2515  -24.8154   19.7955 H   0  0  0  0  0  0
  -27.8394  -23.9442   19.5253 H   0  0  0  0  0  0
  -27.2255  -22.7850   20.6750 H   0  0  0  0  0  0
  -30.3723  -26.4595   21.6452 H   0  0  0  0  0  0
  -29.8102  -25.2594   22.7859 H   0  0  0  0  0  0
  -27.4138  -24.4157   22.5134 H   0  0  0  0  0  0
  -26.4288  -25.0802   21.2557 H   0  0  0  0  0  0
  -29.4006  -22.7564   21.8976 H   0  0  0  0  0  0
  -32.6043  -19.0949   17.7713 H   0  0  0  0  0  0
  -31.5314  -17.7594   17.4066 H   0  0  0  0  0  0
  -32.6691  -17.6425   18.7694 H   0  0  0  0  0  0
  -28.6412  -17.1498   17.7998 H   0  0  0  0  0  0
  -27.6954  -16.6161   19.1772 H   0  0  0  0  0  0
  -28.5781  -15.4541   18.1629 H   0  0  0  0  0  0
  -30.6764  -16.3293   18.8370 H   0  0  0  0  0  0
  -28.9643  -15.3964   21.0125 H   0  0  0  0  0  0
  1 25  1  0  0  0
  1 30  2  0  0  0
  1 86  1  0  0  0
  2  3  1  0  0  0
  2 25  1  0  0  0
  2 88  1  0  0  0
  2 89  1  0  0  0
  3  4  1  0  0  0
  3 90  1  0  0  0
  3 91  1  0  0  0
  4  5  1  0  0  0
  4 92  1  0  0  0
  4 93  1  0  0  0
  5  6  1  0  0  0
  5 26  1  0  0  0
  5 94  1  0  0  0
  6 25  1  0  0  0
  6 95  1  0  0  0
  6 96  1  0  0  0
  7  8  2  0  0  0
  7 26  1  0  0  0
  7 29  1  0  0  0
  8  9  1  0  0  0
  8 22  1  0  0  0
  9 10  1  0  0  0
  9 27  2  0  0  0
 10 11  2  0  0  0
 10 15  1  0  0  0
 11 12  1  0  0  0
 11 97  1  0  0  0
 12 13  2  0  0  0
 12 98  1  0  0  0
 13 14  1  0  0  0
 13 31  1  0  0  0
 14 15  2  0  0  0
 14 99  1  0  0  0
 15100  1  0  0  0
 16 17  2  0  0  0
 16 21  1  0  0  0
 16 31  1  0  0  0
 17 18  1  0  0  0
 17101  1  0  0  0
 18 19  2  0  0  0
 18102  1  0  0  0
 19 20  1  0  0  0
 19 24  1  0  0  0
 20 21  2  0  0  0
 20103  1  0  0  0
 21 23  1  0  0  0
 22 28  1  0  0  0
 22 32  2  0  0  0
 26 27  1  0  0  0
 28104  1  0  0  0
 28105  1  0  0  0
 29106  1  0  0  0
 29107  1  0  0  0
 33 34  1  0  0  0
 33 66  1  0  0  0
 33 70  2  0  0  0
 34 36  1  0  0  0
 34 59  1  0  0  0
 34108  1  0  0  0
 35 44  2  0  0  0
 35 45  1  0  0  0
 35 68  1  0  0  0
 36 56  1  0  0  0
 36109  1  0  0  0
 37 39  1  0  0  0
 37 47  1  0  0  0
 37 66  1  0  0  0
 37110  1  0  0  0
 38 43  2  0  0  0
 38 46  1  0  0  0
 38 47  1  0  0  0
 39 64  1  0  0  0
 39 67  2  0  0  0
 40 52  1  0  0  0
 40 53  2  0  0  0
 40 58  1  0  0  0
 41111  1  0  0  0
 41112  1  0  0  0
 41113  1  0  0  0
 41 48  1  0  0  0
 42 43  1  0  0  0
 42 66  1  0  0  0
 42114  1  0  0  0
 42115  1  0  0  0
 43 44  1  0  0  0
 44116  1  0  0  0
 45 46  2  0  0  0
 45117  1  0  0  0
 46118  1  0  0  0
 47119  1  0  0  0
 47120  1  0  0  0
 48 56  1  0  0  0
 48 65  1  0  0  0
 48121  1  0  0  0
 49 50  1  0  0  0
 49 53  1  0  0  0
 49 64  1  0  0  0
 49122  1  0  0  0
 50 51  1  0  0  0
 50123  1  0  0  0
 50124  1  0  0  0
 51 52  1  0  0  0
 51125  1  0  0  0
 51126  1  0  0  0
 52127  1  0  0  0
 52128  1  0  0  0
 53 54  1  0  0  0
 54 55  2  0  0  0
 54129  1  0  0  0
 55 57  1  0  0  0
 55130  1  0  0  0
 56 69  2  0  0  0
 57 58  2  0  0  0
 57131  1  0  0  0
 58132  1  0  0  0
 59 60  1  0  0  0
 59 61  1  0  0  0
 59 62  1  0  0  0
 60133  1  0  0  0
 60134  1  0  0  0
 60135  1  0  0  0
 61136  1  0  0  0
 61137  1  0  0  0
 61138  1  0  0  0
 62139  1  0  0  0
 62140  1  0  0  0
 62141  1  0  0  0
 63 65  1  0  0  0
 63142  1  0  0  0
 63143  1  0  0  0
 63144  1  0  0  0
 64145  1  0  0  0
 65146  1  0  0  0
 68 85  1  0  0  0
 71 72  2  0  0  0
 71 74  1  0  0  0
 71147  1  0  0  0
 72 76  1  0  0  0
 72148  1  0  0  0
 73 75  1  0  0  0
 73 76  2  0  0  0
 73149  1  0  0  0
 74 75  2  0  0  0
 74 84  1  0  0  0
 75 82  1  0  0  0
 76 87  1  0  0  0
 77 79  1  0  0  0
 77 81  1  0  0  0
 77150  1  0  0  0
 77151  1  0  0  0
 78 80  1  0  0  0
 78 81  1  0  0  0
 78152  1  0  0  0
 78153  1  0  0  0
 79 85  1  0  0  0
 79154  1  0  0  0
 79155  1  0  0  0
 80 85  1  0  0  0
 80156  1  0  0  0
 80157  1  0  0  0
 81 87  1  0  0  0
 81158  1  0  0  0
 82159  1  0  0  0
 82160  1  0  0  0
 82161  1  0  0  0
 83162  1  0  0  0
 83163  1  0  0  0
 83164  1  0  0  0
 83 84  1  0  0  0
 84 86  1  0  0  0
 84165  1  0  0  0
 86166  1  0  0  0
M  ISO  4   1 100  68 101  85 101  86 100
M  END
> <chiral flag>
0

> <version>
0

> <s_m_source_file>
/data/baiqing/PycharmProjects/Reinvent-master-3.2/result/LINK_invent/BTK/process_docking_weight1_custom_sum_contain_oxygen_bond_distance_aromatic_linkinvent_7_9_3/rearranged_h_0137.sdf

> <i_m_source_file_index>
87

> <r_mmod_Potential_Energy-OPLS-2005>
-13.7723112106323

> <r_mmod_Stretch_Energy-OPLS-2005>
40.0822143554688

> <r_mmod_Bend_Energy-OPLS-2005>
131.001220703125

> <r_mmod_Torsional_Energy-OPLS-2005>
273.763519287109

> <r_mmod_Improper_Torsional_Energy-OPLS-2005>
14.9849967956543

> <r_mmod_Van_der_Waal_Energy-OPLS-2005>
156.335144042969

> <r_mmod_Electrostatic_Energy-OPLS-2005>
-434.403686523438

> <r_mmod_Solvation_Energy-OPLS-2005>
-217.825912475586

> <b_mmod_Minimization_Converged-OPLS-2005>
0

> <r_mmod_RMS_Derivative-OPLS-2005>
3.66275334358215

$$$$
87
                    3D
 Structure written by MMmdl.
168177  0  0  1  0            999 V2000
  -30.7245  -14.5073   20.4778 C   0  0  0  0  0  0
  -30.4114  -12.3120   19.4322 C   0  0  0  0  0  0
  -29.4897  -12.5032   18.2153 C   0  0  0  0  0  0
  -28.0155  -12.3525   18.6372 C   0  0  0  0  0  0
  -27.6495  -13.2200   19.8709 C   0  0  2  0  0  0
  -28.7020  -13.0781   20.9929 C   0  0  0  0  0  0
  -25.2499  -13.8169   20.5748 C   0  0  0  0  0  0
  -24.1767  -13.0449   20.9208 C   0  0  0  0  0  0
  -24.6340  -11.6907   20.8746 C   0  0  0  0  0  0
  -23.9021  -10.4289   21.0419 C   0  0  0  0  0  0
  -24.3583   -9.4206   21.9182 C   0  0  0  0  0  0
  -23.6272   -8.2224   22.0735 C   0  0  0  0  0  0
  -22.4249   -8.0239   21.3526 C   0  0  0  0  0  0
  -21.9892   -9.0223   20.4634 C   0  0  0  0  0  0
  -22.7210  -10.2111   20.3062 C   0  0  0  0  0  0
  -21.6844   -6.0685   22.5261 C   0  0  0  0  0  0
  -21.4014   -6.5618   23.8186 C   0  0  0  0  0  0
  -21.3676   -5.6798   24.9163 C   0  0  0  0  0  0
  -21.6050   -4.3047   24.7240 C   0  0  0  0  0  0
  -21.8815   -3.8116   23.4371 C   0  0  0  0  0  0
  -21.9192   -4.6916   22.3411 C   0  0  0  0  0  0
  -22.7778  -13.5178   21.1942 C   0  0  0  0  0  0
  -22.1652   -4.2091   21.0991 F   0  0  0  0  0  0
  -21.5666   -3.4544   25.7771 F   0  0  0  0  0  0
  -30.0287  -13.3391   20.4098 N   0  0  0  0  0  0
  -26.2957  -12.9385   20.3405 N   0  0  0  0  0  0
  -25.9267  -11.6523   20.5745 N   0  0  0  0  0  0
  -22.0448  -12.8108   22.0482 N   0  0  0  0  0  0
  -25.4285  -15.1906   20.4255 N   0  0  0  0  0  0
  -31.9247  -14.5772   20.1995 O   0  0  0  0  0  0
  -21.6637   -6.8812   21.4205 O   0  0  0  0  0  0
  -22.3462  -14.5518   20.6848 O   0  0  0  0  0  0
  -24.6132  -31.8636   23.2110 C   0  0  0  0  0  0
  -25.9016  -32.4793   23.8400 C   0  0  1  0  0  0
  -27.2313  -27.3959   20.1040 C   0  0  0  0  0  0
  -25.5890  -33.8613   24.2311 N   0  0  0  0  0  0
  -23.4031  -30.4858   21.5527 C   0  0  2  0  0  0
  -24.8501  -28.9428   20.1234 C   0  0  0  0  0  0
  -22.7370  -29.4626   22.5041 C   0  0  0  0  0  0
  -18.0242  -28.1365   22.8461 C   0  0  0  0  0  0
  -24.1477  -36.7309   23.2646 C   0  0  0  0  0  0
  -25.9359  -30.8137   21.3732 C   0  0  0  0  0  0
  -26.0115  -29.4440   20.7238 C   0  0  0  0  0  0
  -27.1974  -28.6728   20.7225 C   0  0  0  0  0  0
  -26.0535  -26.9278   19.4707 C   0  0  0  0  0  0
  -24.8687  -27.6836   19.4981 C   0  0  0  0  0  0
  -23.6127  -29.8094   20.1698 C   0  0  0  0  0  0
  -25.4093  -36.3095   24.0336 C   0  0  1  0  0  0
  -20.5826  -28.3629   23.1341 C   0  0  2  0  0  0
  -20.6743  -26.9386   22.5398 C   0  0  0  0  0  0
  -19.5749  -26.6371   21.5181 C   0  0  0  0  0  0
  -18.1922  -26.7904   22.1586 C   0  0  0  0  0  0
  -19.1490  -28.8803   23.2894 C   0  0  0  0  0  0
  -18.9446  -30.1425   23.8876 C   0  0  0  0  0  0
  -17.6439  -30.6584   24.0526 C   0  0  0  0  0  0
  -25.9012  -34.9463   23.5103 C   0  0  0  0  0  0
  -16.5321  -29.9081   23.6346 C   0  0  0  0  0  0
  -16.7223  -28.6501   23.0345 C   0  0  0  0  0  0
  -26.4460  -31.6610   25.0753 C   0  0  0  0  0  0
  -25.3772  -31.3723   26.1544 C   0  0  0  0  0  0
  -27.0306  -30.3037   24.6174 C   0  0  0  0  0  0
  -27.6015  -32.4350   25.7529 C   0  0  0  0  0  0
  -27.5566  -37.1809   24.8471 C   0  0  0  0  0  0
  -21.4089  -29.3020   22.3765 N   0  0  0  0  0  0
  -26.4274  -37.3780   23.9422 N   0  0  0  0  0  0
  -24.6692  -31.0690   22.1024 N   0  0  0  0  0  0
  -23.4123  -28.8195   23.3121 O   0  0  0  0  0  0
  -28.4120  -26.6715   20.1479 O   0  0  0  0  0  0
  -26.5576  -34.8922   22.4659 O   0  0  0  0  0  0
  -23.5325  -32.1411   23.7482 O   0  0  0  0  0  0
  -29.7981  -20.9394   20.3879 C   0  0  0  0  0  0
  -28.4694  -21.9738   18.9390 C   0  0  0  0  0  0
  -29.4608  -22.2061   19.8439 C   0  0  0  0  0  0
  -29.0134  -19.9665   19.8149 C   0  0  0  0  0  0
  -30.1232  -17.8319   19.1062 C   0  0  0  0  0  0
  -29.4313  -17.9923   21.4488 C   0  0  0  0  0  0
  -29.9582  -16.3073   19.0673 C   0  0  0  0  0  0
  -29.8658  -16.4950   21.6125 C   0  0  0  0  0  0
  -29.0802  -18.4608   20.0239 C   0  0  0  0  0  0
  -27.4100  -18.7553   17.2630 C   0  0  0  0  0  0
  -26.4946  -21.0500   17.0319 C   0  0  0  0  0  0
  -28.4462  -25.2745   19.7705 C   0  0  0  0  0  0
  -29.3251  -24.4418   20.7349 C   0  0  0  0  0  0
  -27.0689  -20.0399   18.0567 C   0  0  0  0  0  0
  -28.1663  -20.6103   18.8885 N   0  0  0  0  0  0
  -29.9783  -15.6442   20.3970 N   0  0  0  0  0  0
  -30.0898  -23.4041   20.1055 O   0  0  0  0  0  0
  -31.4564  -12.3860   19.1294 H   0  0  0  0  0  0
  -30.2830  -11.3123   19.8539 H   0  0  0  0  0  0
  -29.7391  -11.7868   17.4290 H   0  0  0  0  0  0
  -29.6547  -13.4894   17.7817 H   0  0  0  0  0  0
  -27.8418  -11.3006   18.8635 H   0  0  0  0  0  0
  -27.3611  -12.5924   17.8008 H   0  0  0  0  0  0
  -27.6622  -14.2577   19.5423 H   0  0  0  0  0  0
  -28.6599  -12.0796   21.4309 H   0  0  0  0  0  0
  -28.4758  -13.7766   21.8026 H   0  0  0  0  0  0
  -25.2708   -9.5666   22.4789 H   0  0  0  0  0  0
  -23.9975   -7.4586   22.7448 H   0  0  0  0  0  0
  -21.0828   -8.8741   19.8926 H   0  0  0  0  0  0
  -22.3658  -10.9656   19.6194 H   0  0  0  0  0  0
  -21.1988   -7.6125   23.9656 H   0  0  0  0  0  0
  -21.1526   -6.0545   25.9060 H   0  0  0  0  0  0
  -22.0584   -2.7575   23.2912 H   0  0  0  0  0  0
  -22.4128  -11.9757   22.4802 H   0  0  0  0  0  0
  -21.1072  -13.1093   22.2785 H   0  0  0  0  0  0
  -24.6790  -15.8645   20.5391 H   0  0  0  0  0  0
  -26.3062  -15.6154   20.1550 H   0  0  0  0  0  0
  -26.7073  -32.5459   23.1168 H   0  0  0  0  0  0
  -25.0113  -33.9795   25.0503 H   0  0  0  0  0  0
  -22.6955  -31.3056   21.4050 H   0  0  0  0  0  0
  -23.3721  -35.9657   23.3304 H   0  0  0  0  0  0
  -24.3578  -36.8920   22.2065 H   0  0  0  0  0  0
  -23.7267  -37.6531   23.6649 H   0  0  0  0  0  0
  -26.0522  -31.5752   20.6021 H   0  0  0  0  0  0
  -26.8227  -30.8702   21.9936 H   0  0  0  0  0  0
  -28.0867  -29.0404   21.2158 H   0  0  0  0  0  0
  -26.0206  -25.9877   18.9398 H   0  0  0  0  0  0
  -23.9774  -27.2993   19.0239 H   0  0  0  0  0  0
  -23.7230  -30.5764   19.4039 H   0  0  0  0  0  0
  -22.7376  -29.2231   19.8721 H   0  0  0  0  0  0
  -25.1268  -36.1943   25.0825 H   0  0  0  0  0  0
  -20.9868  -28.3163   24.1484 H   0  0  0  0  0  0
  -20.5651  -26.2223   23.3562 H   0  0  0  0  0  0
  -21.6646  -26.7450   22.1229 H   0  0  0  0  0  0
  -19.6948  -25.6289   21.1245 H   0  0  0  0  0  0
  -19.6740  -27.3154   20.6706 H   0  0  0  0  0  0
  -17.4189  -26.6590   21.3992 H   0  0  0  0  0  0
  -18.0375  -26.0038   22.8991 H   0  0  0  0  0  0
  -19.7919  -30.7248   24.2265 H   0  0  0  0  0  0
  -17.4998  -31.6291   24.5108 H   0  0  0  0  0  0
  -15.5328  -30.2968   23.7732 H   0  0  0  0  0  0
  -15.8604  -28.0824   22.7094 H   0  0  0  0  0  0
  -24.5937  -30.7049   25.7948 H   0  0  0  0  0  0
  -24.8990  -32.2876   26.5013 H   0  0  0  0  0  0
  -25.8186  -30.8925   27.0288 H   0  0  0  0  0  0
  -26.2868  -29.6816   24.1176 H   0  0  0  0  0  0
  -27.4010  -29.7259   25.4660 H   0  0  0  0  0  0
  -27.8717  -30.4347   23.9369 H   0  0  0  0  0  0
  -27.2583  -33.3623   26.2121 H   0  0  0  0  0  0
  -28.3814  -32.6951   25.0368 H   0  0  0  0  0  0
  -28.0671  -31.8478   26.5455 H   0  0  0  0  0  0
  -28.2576  -38.0111   24.7476 H   0  0  0  0  0  0
  -28.1056  -36.2632   24.6291 H   0  0  0  0  0  0
  -27.2286  -37.1465   25.8880 H   0  0  0  0  0  0
  -20.9266  -29.8665   21.6927 H   0  0  0  0  0  0
  -26.0135  -38.2850   24.1414 H   0  0  0  0  0  0
  -30.5820  -20.7523   21.1084 H   0  0  0  0  0  0
  -27.9727  -22.6900   18.3036 H   0  0  0  0  0  0
  -30.0422  -18.2276   18.0953 H   0  0  0  0  0  0
  -31.1233  -18.1106   19.4401 H   0  0  0  0  0  0
  -30.2525  -18.6008   21.8259 H   0  0  0  0  0  0
  -28.5870  -18.2088   22.1053 H   0  0  0  0  0  0
  -29.0183  -16.0566   18.5728 H   0  0  0  0  0  0
  -30.7428  -15.9167   18.4126 H   0  0  0  0  0  0
  -29.1846  -16.0128   22.3121 H   0  0  0  0  0  0
  -30.8349  -16.4861   22.1188 H   0  0  0  0  0  0
  -28.1057  -18.0318   19.8220 H   0  0  0  0  0  0
  -26.6507  -18.5668   16.4999 H   0  0  0  0  0  0
  -27.4255  -17.8449   17.8571 H   0  0  0  0  0  0
  -28.3551  -18.8429   16.7292 H   0  0  0  0  0  0
  -25.6226  -20.6378   16.5274 H   0  0  0  0  0  0
  -27.2187  -21.2927   16.2531 H   0  0  0  0  0  0
  -26.1420  -21.9724   17.4910 H   0  0  0  0  0  0
  -27.4790  -24.7846   19.7240 H   0  0  0  0  0  0
  -28.8733  -25.2155   18.7705 H   0  0  0  0  0  0
  -30.0641  -25.1106   21.1738 H   0  0  0  0  0  0
  -28.7436  -24.0475   21.5710 H   0  0  0  0  0  0
  -26.2569  -19.8144   18.7463 H   0  0  0  0  0  0
  1 25  1  0  0  0
  1 30  2  0  0  0
  1 86  1  0  0  0
  2  3  1  0  0  0
  2 25  1  0  0  0
  2 88  1  0  0  0
  2 89  1  0  0  0
  3  4  1  0  0  0
  3 90  1  0  0  0
  3 91  1  0  0  0
  4  5  1  0  0  0
  4 92  1  0  0  0
  4 93  1  0  0  0
  5  6  1  0  0  0
  5 26  1  0  0  0
  5 94  1  0  0  0
  6 25  1  0  0  0
  6 95  1  0  0  0
  6 96  1  0  0  0
  7  8  2  0  0  0
  7 26  1  0  0  0
  7 29  1  0  0  0
  8  9  1  0  0  0
  8 22  1  0  0  0
  9 10  1  0  0  0
  9 27  2  0  0  0
 10 11  2  0  0  0
 10 15  1  0  0  0
 11 12  1  0  0  0
 11 97  1  0  0  0
 12 13  2  0  0  0
 12 98  1  0  0  0
 13 14  1  0  0  0
 13 31  1  0  0  0
 14 15  2  0  0  0
 14 99  1  0  0  0
 15100  1  0  0  0
 16 17  2  0  0  0
 16 21  1  0  0  0
 16 31  1  0  0  0
 17 18  1  0  0  0
 17101  1  0  0  0
 18 19  2  0  0  0
 18102  1  0  0  0
 19 20  1  0  0  0
 19 24  1  0  0  0
 20 21  2  0  0  0
 20103  1  0  0  0
 21 23  1  0  0  0
 22 28  1  0  0  0
 22 32  2  0  0  0
 26 27  1  0  0  0
 28104  1  0  0  0
 28105  1  0  0  0
 29106  1  0  0  0
 29107  1  0  0  0
 33 34  1  0  0  0
 33 66  1  0  0  0
 33 70  2  0  0  0
 34 36  1  0  0  0
 34 59  1  0  0  0
 34108  1  0  0  0
 35 44  2  0  0  0
 35 45  1  0  0  0
 35 68  1  0  0  0
 36 56  1  0  0  0
 36109  1  0  0  0
 37 39  1  0  0  0
 37 47  1  0  0  0
 37 66  1  0  0  0
 37110  1  0  0  0
 38 43  2  0  0  0
 38 46  1  0  0  0
 38 47  1  0  0  0
 39 64  1  0  0  0
 39 67  2  0  0  0
 40 52  1  0  0  0
 40 53  2  0  0  0
 40 58  1  0  0  0
 41111  1  0  0  0
 41112  1  0  0  0
 41113  1  0  0  0
 41 48  1  0  0  0
 42 43  1  0  0  0
 42 66  1  0  0  0
 42114  1  0  0  0
 42115  1  0  0  0
 43 44  1  0  0  0
 44116  1  0  0  0
 45 46  2  0  0  0
 45117  1  0  0  0
 46118  1  0  0  0
 47119  1  0  0  0
 47120  1  0  0  0
 48 56  1  0  0  0
 48 65  1  0  0  0
 48121  1  0  0  0
 49 50  1  0  0  0
 49 53  1  0  0  0
 49 64  1  0  0  0
 49122  1  0  0  0
 50 51  1  0  0  0
 50123  1  0  0  0
 50124  1  0  0  0
 51 52  1  0  0  0
 51125  1  0  0  0
 51126  1  0  0  0
 52127  1  0  0  0
 52128  1  0  0  0
 53 54  1  0  0  0
 54 55  2  0  0  0
 54129  1  0  0  0
 55 57  1  0  0  0
 55130  1  0  0  0
 56 69  2  0  0  0
 57 58  2  0  0  0
 57131  1  0  0  0
 58132  1  0  0  0
 59 60  1  0  0  0
 59 61  1  0  0  0
 59 62  1  0  0  0
 60133  1  0  0  0
 60134  1  0  0  0
 60135  1  0  0  0
 61136  1  0  0  0
 61137  1  0  0  0
 61138  1  0  0  0
 62139  1  0  0  0
 62140  1  0  0  0
 62141  1  0  0  0
 63 65  1  0  0  0
 63142  1  0  0  0
 63143  1  0  0  0
 63144  1  0  0  0
 64145  1  0  0  0
 65146  1  0  0  0
 68 82  1  0  0  0
 71 73  1  0  0  0
 71 74  2  0  0  0
 71147  1  0  0  0
 72 73  2  0  0  0
 72 85  1  0  0  0
 72148  1  0  0  0
 73 87  1  0  0  0
 74 85  1  0  0  0
 74 79  1  0  0  0
 75 77  1  0  0  0
 75 79  1  0  0  0
 75149  1  0  0  0
 75150  1  0  0  0
 76 78  1  0  0  0
 76 79  1  0  0  0
 76151  1  0  0  0
 76152  1  0  0  0
 77 86  1  0  0  0
 77153  1  0  0  0
 77154  1  0  0  0
 78 86  1  0  0  0
 78155  1  0  0  0
 78156  1  0  0  0
 79157  1  0  0  0
 80158  1  0  0  0
 80159  1  0  0  0
 80160  1  0  0  0
 80 84  1  0  0  0
 81 84  1  0  0  0
 81161  1  0  0  0
 81162  1  0  0  0
 81163  1  0  0  0
 82 83  1  0  0  0
 82164  1  0  0  0
 82165  1  0  0  0
 83 87  1  0  0  0
 83166  1  0  0  0
 83167  1  0  0  0
 84 85  1  0  0  0
 84168  1  0  0  0
M  ISO  4   1 100  68 101  82 101  86 100
M  END
> <chiral flag>
0

> <version>
0

> <s_m_source_file>
/data/baiqing/PycharmProjects/Reinvent-master-3.2/result/LINK_invent/BTK/process_docking_weight1_custom_sum_contain_oxygen_bond_distance_aromatic_linkinvent_7_9_3/rearranged_h_0137.sdf

> <i_m_source_file_index>
88

> <r_mmod_Potential_Energy-OPLS-2005>
241.805877685547

> <r_mmod_Stretch_Energy-OPLS-2005>
49.706729888916

> <r_mmod_Bend_Energy-OPLS-2005>
140.889038085938

> <r_mmod_Torsional_Energy-OPLS-2005>
388.147399902344

> <r_mmod_Improper_Torsional_Energy-OPLS-2005>
16.7232933044434

> <r_mmod_Van_der_Waal_Energy-OPLS-2005>
138.160415649414

> <r_mmod_Electrostatic_Energy-OPLS-2005>
-316.730926513672

> <r_mmod_Solvation_Energy-OPLS-2005>
-202.205490112305

> <b_mmod_Minimization_Converged-OPLS-2005>
0

> <r_mmod_RMS_Derivative-OPLS-2005>
6.33414316177368

$$$$
88
                    3D
 Structure written by MMmdl.
165174  0  0  1  0            999 V2000
  -30.6042  -14.7488   20.4899 C   0  0  0  0  0  0
  -30.4379  -12.4660   19.4599 C   0  0  0  0  0  0
  -29.5040  -12.5080   18.2288 C   0  0  0  0  0  0
  -28.0294  -12.3375   18.6456 C   0  0  0  0  0  0
  -27.6405  -13.2305   19.8554 C   0  0  2  0  0  0
  -28.6925  -13.1498   20.9839 C   0  0  0  0  0  0
  -25.2493  -13.8186   20.5732 C   0  0  0  0  0  0
  -24.1791  -13.0428   20.9242 C   0  0  0  0  0  0
  -24.6395  -11.6907   20.8785 C   0  0  0  0  0  0
  -23.9051  -10.4285   21.0427 C   0  0  0  0  0  0
  -24.3606   -9.4200   21.9197 C   0  0  0  0  0  0
  -23.6290   -8.2229   22.0750 C   0  0  0  0  0  0
  -22.4274   -8.0274   21.3532 C   0  0  0  0  0  0
  -21.9909   -9.0241   20.4633 C   0  0  0  0  0  0
  -22.7228  -10.2132   20.3061 C   0  0  0  0  0  0
  -21.6850   -6.0741   22.5278 C   0  0  0  0  0  0
  -21.3993   -6.5641   23.8210 C   0  0  0  0  0  0
  -21.3663   -5.6806   24.9177 C   0  0  0  0  0  0
  -21.6044   -4.3064   24.7238 C   0  0  0  0  0  0
  -21.8805   -3.8151   23.4356 C   0  0  0  0  0  0
  -21.9192   -4.6964   22.3412 C   0  0  0  0  0  0
  -22.7805  -13.5204   21.1896 C   0  0  0  0  0  0
  -22.1657   -4.2143   21.0989 F   0  0  0  0  0  0
  -21.5646   -3.4542   25.7746 F   0  0  0  0  0  0
  -29.9851  -13.5205   20.3935 N   0  0  0  0  0  0
  -26.2928  -12.9407   20.3353 N   0  0  0  0  0  0
  -25.9324  -11.6538   20.5803 N   0  0  0  0  0  0
  -22.0478  -12.8159   22.0457 N   0  0  0  0  0  0
  -25.4166  -15.1914   20.4109 N   0  0  0  0  0  0
  -31.8015  -14.8630   20.2159 O   0  0  0  0  0  0
  -21.6641   -6.8871   21.4231 O   0  0  0  0  0  0
  -22.3465  -14.5509   20.6759 O   0  0  0  0  0  0
  -24.6312  -31.8561   23.1983 C   0  0  0  0  0  0
  -25.9137  -32.4750   23.8335 C   0  0  1  0  0  0
  -27.2139  -27.2537   20.1340 C   0  0  0  0  0  0
  -25.5928  -33.8556   24.2248 N   0  0  0  0  0  0
  -23.4285  -30.4796   21.5416 C   0  0  2  0  0  0
  -24.8748  -28.9287   20.1077 C   0  0  0  0  0  0
  -22.7501  -29.4603   22.4903 C   0  0  0  0  0  0
  -18.0289  -28.1372   22.8483 C   0  0  0  0  0  0
  -24.1487  -36.7279   23.2642 C   0  0  0  0  0  0
  -25.9762  -30.7648   21.3802 C   0  0  0  0  0  0
  -26.0479  -29.3885   20.7210 C   0  0  0  0  0  0
  -27.2202  -28.5644   20.7234 C   0  0  0  0  0  0
  -26.0188  -26.8719   19.4805 C   0  0  0  0  0  0
  -24.8664  -27.6783   19.4758 C   0  0  0  0  0  0
  -23.6476  -29.8173   20.1568 C   0  0  0  0  0  0
  -25.4115  -36.3058   24.0320 C   0  0  1  0  0  0
  -20.5898  -28.3692   23.1254 C   0  0  2  0  0  0
  -20.6781  -26.9406   22.5398 C   0  0  0  0  0  0
  -19.5754  -26.6368   21.5205 C   0  0  0  0  0  0
  -18.1929  -26.7911   22.1612 C   0  0  0  0  0  0
  -19.1547  -28.8846   23.2868 C   0  0  0  0  0  0
  -18.9469  -30.1446   23.8890 C   0  0  0  0  0  0
  -17.6471  -30.6584   24.0562 C   0  0  0  0  0  0
  -25.9062  -34.9433   23.5088 C   0  0  0  0  0  0
  -16.5362  -29.9079   23.6335 C   0  0  0  0  0  0
  -16.7276  -28.6492   23.0365 C   0  0  0  0  0  0
  -26.4502  -31.6578   25.0734 C   0  0  0  0  0  0
  -25.3723  -31.3737   26.1458 C   0  0  0  0  0  0
  -27.0359  -30.2987   24.6236 C   0  0  0  0  0  0
  -27.6050  -32.4333   25.7507 C   0  0  0  0  0  0
  -27.5575  -37.1790   24.8465 C   0  0  0  0  0  0
  -21.4203  -29.3047   22.3649 N   0  0  0  0  0  0
  -26.4288  -37.3761   23.9409 N   0  0  0  0  0  0
  -24.6974  -31.0527   22.0958 N   0  0  0  0  0  0
  -23.4204  -28.8137   23.3001 O   0  0  0  0  0  0
  -28.2893  -26.3344   20.2192 O   0  0  0  0  0  0
  -26.5648  -34.8914   22.4661 O   0  0  0  0  0  0
  -23.5462  -32.1379   23.7275 O   0  0  0  0  0  0
  -30.6405  -21.4667   21.3536 C   0  0  0  0  0  0
  -28.6332  -22.2846   20.2888 C   0  0  0  0  0  0
  -30.9841  -22.8028   21.6951 C   0  0  0  0  0  0
  -30.1271  -23.8951   21.3445 C   0  0  0  0  0  0
  -28.9523  -23.6769   20.5743 C   0  0  0  0  0  0
  -29.4484  -21.1484   20.6796 C   0  0  0  0  0  0
  -30.4654  -25.2950   21.8500 C   0  0  0  0  0  0
  -31.4017  -25.2767   23.0600 C   0  0  0  0  0  0
  -32.2579  -23.0221   22.5399 C   0  0  1  0  0  0
  -33.4970  -22.2973   21.9744 C   0  0  0  0  0  0
  -27.9721  -24.8604   20.1217 C   0  0  0  0  0  0
  -29.9302  -18.5699   20.1275 C   0  0  0  0  0  0
  -30.1144  -17.3061   21.1291 C   0  0  0  0  0  0
  -29.0646  -19.7590   20.5163 N   0  0  0  0  0  0
  -29.8087  -15.8620   20.7149 N   0  0  0  0  0  0
  -32.5776  -24.4490   22.7602 N   0  3  0  0  0  0
  -31.4743  -12.6118   19.1505 H   0  0  0  0  0  0
  -30.4053  -11.4868   19.9430 H   0  0  0  0  0  0
  -29.7837  -11.7273   17.5190 H   0  0  0  0  0  0
  -29.6294  -13.4578   17.7046 H   0  0  0  0  0  0
  -27.8794  -11.2871   18.9010 H   0  0  0  0  0  0
  -27.3722  -12.5394   17.7982 H   0  0  0  0  0  0
  -27.6369  -14.2575   19.4860 H   0  0  0  0  0  0
  -28.7386  -12.1437   21.4059 H   0  0  0  0  0  0
  -28.4321  -13.8122   21.8101 H   0  0  0  0  0  0
  -25.2758   -9.5670   22.4765 H   0  0  0  0  0  0
  -24.0015   -7.4597   22.7445 H   0  0  0  0  0  0
  -21.0860   -8.8717   19.8921 H   0  0  0  0  0  0
  -22.3680  -10.9652   19.6146 H   0  0  0  0  0  0
  -21.1950   -7.6142   23.9697 H   0  0  0  0  0  0
  -21.1508   -6.0553   25.9082 H   0  0  0  0  0  0
  -22.0592   -2.7609   23.2869 H   0  0  0  0  0  0
  -22.4140  -11.9813   22.4800 H   0  0  0  0  0  0
  -21.1064  -13.1091   22.2663 H   0  0  0  0  0  0
  -24.6430  -15.8424   20.4957 H   0  0  0  0  0  0
  -26.2609  -15.6319   20.0712 H   0  0  0  0  0  0
  -26.7202  -32.5399   23.1079 H   0  0  0  0  0  0
  -25.0084  -33.9695   25.0398 H   0  0  0  0  0  0
  -22.7244  -31.3021   21.3958 H   0  0  0  0  0  0
  -23.3748  -35.9613   23.3296 H   0  0  0  0  0  0
  -24.3584  -36.8915   22.2059 H   0  0  0  0  0  0
  -23.7235  -37.6470   23.6688 H   0  0  0  0  0  0
  -26.1229  -31.5243   20.6111 H   0  0  0  0  0  0
  -26.8507  -30.8107   22.0174 H   0  0  0  0  0  0
  -28.1133  -28.9075   21.2258 H   0  0  0  0  0  0
  -25.9376  -25.9197   18.9791 H   0  0  0  0  0  0
  -23.9706  -27.3196   18.9861 H   0  0  0  0  0  0
  -23.7731  -30.5961   19.4037 H   0  0  0  0  0  0
  -22.7634  -29.2547   19.8518 H   0  0  0  0  0  0
  -25.1286  -36.1903   25.0810 H   0  0  0  0  0  0
  -20.9999  -28.3265   24.1373 H   0  0  0  0  0  0
  -20.5654  -26.2307   23.3610 H   0  0  0  0  0  0
  -21.6650  -26.7399   22.1209 H   0  0  0  0  0  0
  -19.6927  -25.6273   21.1246 H   0  0  0  0  0  0
  -19.6696  -27.3178   20.6733 H   0  0  0  0  0  0
  -17.4198  -26.6657   21.4020 H   0  0  0  0  0  0
  -18.0332  -26.0049   22.8998 H   0  0  0  0  0  0
  -19.7952  -30.7261   24.2253 H   0  0  0  0  0  0
  -17.5031  -31.6268   24.5152 H   0  0  0  0  0  0
  -15.5364  -30.2989   23.7656 H   0  0  0  0  0  0
  -15.8669  -28.0810   22.7093 H   0  0  0  0  0  0
  -24.5919  -30.7053   25.7805 H   0  0  0  0  0  0
  -24.8900  -32.2914   26.4844 H   0  0  0  0  0  0
  -25.8047  -30.8963   27.0261 H   0  0  0  0  0  0
  -26.2958  -29.6731   24.1239 H   0  0  0  0  0  0
  -27.4005  -29.7256   25.4770 H   0  0  0  0  0  0
  -27.8847  -30.4251   23.9514 H   0  0  0  0  0  0
  -27.2645  -33.3647   26.2052 H   0  0  0  0  0  0
  -28.3879  -32.6870   25.0347 H   0  0  0  0  0  0
  -28.0704  -31.8486   26.5455 H   0  0  0  0  0  0
  -28.2569  -38.0108   24.7514 H   0  0  0  0  0  0
  -28.1082  -36.2628   24.6267 H   0  0  0  0  0  0
  -27.2305  -37.1415   25.8874 H   0  0  0  0  0  0
  -20.9382  -29.8788   21.6874 H   0  0  0  0  0  0
  -26.0150  -38.2826   24.1426 H   0  0  0  0  0  0
  -31.2690  -20.6562   21.6915 H   0  0  0  0  0  0
  -27.7068  -22.0900   19.7679 H   0  0  0  0  0  0
  -29.5566  -25.8022   22.1704 H   0  0  0  0  0  0
  -30.8945  -25.8798   21.0358 H   0  0  0  0  0  0
  -30.8876  -24.8745   23.9358 H   0  0  0  0  0  0
  -31.7112  -26.2901   23.3143 H   0  0  0  0  0  0
  -32.0397  -22.5941   23.5208 H   0  0  0  0  0  0
  -33.7334  -22.6422   20.9682 H   0  0  0  0  0  0
  -33.3638  -21.2163   21.9331 H   0  0  0  0  0  0
  -34.3720  -22.4708   22.6024 H   0  0  0  0  0  0
  -27.0497  -24.6813   20.6776 H   0  0  0  0  0  0
  -27.7435  -24.6544   19.0758 H   0  0  0  0  0  0
  -29.5250  -18.1935   19.1884 H   0  0  0  0  0  0
  -30.9219  -18.9459   19.8674 H   0  0  0  0  0  0
  -29.5035  -17.4934   22.0126 H   0  0  0  0  0  0
  -31.1376  -17.3269   21.5068 H   0  0  0  0  0  0
  -28.0946  -19.6357   20.2347 H   0  0  0  0  0  0
  -28.8283  -15.6328   20.7751 H   0  0  0  0  0  0
  -33.2289  -24.5228   23.5251 H   0  0  0  0  0  0
  -33.0246  -24.8175   21.9384 H   0  0  0  0  0  0
  1 25  1  0  0  0
  1 30  2  0  0  0
  1 85  1  0  0  0
  2  3  1  0  0  0
  2 25  1  0  0  0
  2 87  1  0  0  0
  2 88  1  0  0  0
  3  4  1  0  0  0
  3 89  1  0  0  0
  3 90  1  0  0  0
  4  5  1  0  0  0
  4 91  1  0  0  0
  4 92  1  0  0  0
  5  6  1  0  0  0
  5 26  1  0  0  0
  5 93  1  0  0  0
  6 25  1  0  0  0
  6 94  1  0  0  0
  6 95  1  0  0  0
  7  8  2  0  0  0
  7 26  1  0  0  0
  7 29  1  0  0  0
  8  9  1  0  0  0
  8 22  1  0  0  0
  9 10  1  0  0  0
  9 27  2  0  0  0
 10 11  2  0  0  0
 10 15  1  0  0  0
 11 12  1  0  0  0
 11 96  1  0  0  0
 12 13  2  0  0  0
 12 97  1  0  0  0
 13 14  1  0  0  0
 13 31  1  0  0  0
 14 15  2  0  0  0
 14 98  1  0  0  0
 15 99  1  0  0  0
 16 17  2  0  0  0
 16 21  1  0  0  0
 16 31  1  0  0  0
 17 18  1  0  0  0
 17100  1  0  0  0
 18 19  2  0  0  0
 18101  1  0  0  0
 19 20  1  0  0  0
 19 24  1  0  0  0
 20 21  2  0  0  0
 20102  1  0  0  0
 21 23  1  0  0  0
 22 28  1  0  0  0
 22 32  2  0  0  0
 26 27  1  0  0  0
 28103  1  0  0  0
 28104  1  0  0  0
 29105  1  0  0  0
 29106  1  0  0  0
 33 34  1  0  0  0
 33 66  1  0  0  0
 33 70  2  0  0  0
 34 36  1  0  0  0
 34 59  1  0  0  0
 34107  1  0  0  0
 35 44  2  0  0  0
 35 45  1  0  0  0
 35 68  1  0  0  0
 36 56  1  0  0  0
 36108  1  0  0  0
 37 39  1  0  0  0
 37 47  1  0  0  0
 37 66  1  0  0  0
 37109  1  0  0  0
 38 43  2  0  0  0
 38 46  1  0  0  0
 38 47  1  0  0  0
 39 64  1  0  0  0
 39 67  2  0  0  0
 40 52  1  0  0  0
 40 53  2  0  0  0
 40 58  1  0  0  0
 41110  1  0  0  0
 41111  1  0  0  0
 41112  1  0  0  0
 41 48  1  0  0  0
 42 43  1  0  0  0
 42 66  1  0  0  0
 42113  1  0  0  0
 42114  1  0  0  0
 43 44  1  0  0  0
 44115  1  0  0  0
 45 46  2  0  0  0
 45116  1  0  0  0
 46117  1  0  0  0
 47118  1  0  0  0
 47119  1  0  0  0
 48 56  1  0  0  0
 48 65  1  0  0  0
 48120  1  0  0  0
 49 50  1  0  0  0
 49 53  1  0  0  0
 49 64  1  0  0  0
 49121  1  0  0  0
 50 51  1  0  0  0
 50122  1  0  0  0
 50123  1  0  0  0
 51 52  1  0  0  0
 51124  1  0  0  0
 51125  1  0  0  0
 52126  1  0  0  0
 52127  1  0  0  0
 53 54  1  0  0  0
 54 55  2  0  0  0
 54128  1  0  0  0
 55 57  1  0  0  0
 55129  1  0  0  0
 56 69  2  0  0  0
 57 58  2  0  0  0
 57130  1  0  0  0
 58131  1  0  0  0
 59 60  1  0  0  0
 59 61  1  0  0  0
 59 62  1  0  0  0
 60132  1  0  0  0
 60133  1  0  0  0
 60134  1  0  0  0
 61135  1  0  0  0
 61136  1  0  0  0
 61137  1  0  0  0
 62138  1  0  0  0
 62139  1  0  0  0
 62140  1  0  0  0
 63 65  1  0  0  0
 63141  1  0  0  0
 63142  1  0  0  0
 63143  1  0  0  0
 64144  1  0  0  0
 65145  1  0  0  0
 68 81  1  0  0  0
 71 73  2  0  0  0
 71 76  1  0  0  0
 71146  1  0  0  0
 72 75  1  0  0  0
 72 76  2  0  0  0
 72147  1  0  0  0
 73 74  1  0  0  0
 73 79  1  0  0  0
 74 75  2  0  0  0
 74 77  1  0  0  0
 75 81  1  0  0  0
 76 84  1  0  0  0
 77 78  1  0  0  0
 77148  1  0  0  0
 77149  1  0  0  0
 78 86  1  0  0  0
 78150  1  0  0  0
 78151  1  0  0  0
 79 80  1  0  0  0
 79 86  1  0  0  0
 79152  1  0  0  0
 80153  1  0  0  0
 80154  1  0  0  0
 80155  1  0  0  0
 81156  1  0  0  0
 81157  1  0  0  0
 82 83  1  0  0  0
 82 84  1  0  0  0
 82158  1  0  0  0
 82159  1  0  0  0
 83 85  1  0  0  0
 83160  1  0  0  0
 83161  1  0  0  0
 84162  1  0  0  0
 85163  1  0  0  0
 86164  1  0  0  0
 86165  1  0  0  0
M  CHG  1  86   1
M  ISO  4   1 100  68 101  81 101  85 100
M  END
> <chiral flag>
0

> <version>
0

> <s_m_source_file>
/data/baiqing/PycharmProjects/Reinvent-master-3.2/result/LINK_invent/BTK/process_docking_weight1_custom_sum_contain_oxygen_bond_distance_aromatic_linkinvent_7_9_3/rearranged_h_0137.sdf

> <i_m_source_file_index>
89

> <r_mmod_Potential_Energy-OPLS-2005>
-75.6450576782227

> <r_mmod_Stretch_Energy-OPLS-2005>
127.392471313477

> <r_mmod_Bend_Energy-OPLS-2005>
186.885101318359

> <r_mmod_Torsional_Energy-OPLS-2005>
244.456039428711

> <r_mmod_Improper_Torsional_Energy-OPLS-2005>
6.99644422531128

> <r_mmod_Van_der_Waal_Energy-OPLS-2005>
148.49528503418

> <r_mmod_Electrostatic_Energy-OPLS-2005>
-403.576477050781

> <r_mmod_Solvation_Energy-OPLS-2005>
-478.660400390625

> <b_mmod_Minimization_Converged-OPLS-2005>
0

> <r_mmod_RMS_Derivative-OPLS-2005>
2.62805128097534

$$$$
90
                    3D
 Structure written by MMmdl.
155164  0  0  1  0            999 V2000
  -30.2972  -15.5905   20.3338 C   0  0  0  0  0  0
  -30.4338  -13.0475   19.5331 C   0  0  0  0  0  0
  -29.5526  -12.6423   18.3166 C   0  0  0  0  0  0
  -28.1216  -12.2948   18.7591 C   0  0  0  0  0  0
  -27.5991  -13.2995   19.8112 C   0  0  2  0  0  0
  -28.6191  -13.6079   20.9314 C   0  0  0  0  0  0
  -25.2340  -13.8268   20.5775 C   0  0  0  0  0  0
  -24.1723  -13.0431   20.9286 C   0  0  0  0  0  0
  -24.6411  -11.6941   20.8765 C   0  0  0  0  0  0
  -23.9108  -10.4293   21.0398 C   0  0  0  0  0  0
  -24.3647   -9.4207   21.9178 C   0  0  0  0  0  0
  -23.6312   -8.2247   22.0748 C   0  0  0  0  0  0
  -22.4289   -8.0286   21.3541 C   0  0  0  0  0  0
  -21.9934   -9.0260   20.4641 C   0  0  0  0  0  0
  -22.7276  -10.2134   20.3049 C   0  0  0  0  0  0
  -21.6859   -6.0739   22.5279 C   0  0  0  0  0  0
  -21.4018   -6.5640   23.8214 C   0  0  0  0  0  0
  -21.3665   -5.6790   24.9173 C   0  0  0  0  0  0
  -21.6047   -4.3052   24.7220 C   0  0  0  0  0  0
  -21.8820   -3.8144   23.4344 C   0  0  0  0  0  0
  -21.9192   -4.6965   22.3400 C   0  0  0  0  0  0
  -22.7737  -13.5173   21.1924 C   0  0  0  0  0  0
  -22.1661   -4.2150   21.0977 F   0  0  0  0  0  0
  -21.5630   -3.4536   25.7734 F   0  0  0  0  0  0
  -29.7984  -14.2208   20.2785 N   0  0  0  0  0  0
  -26.2782  -12.9585   20.3210 N   0  0  0  0  0  0
  -25.9353  -11.6667   20.5694 N   0  0  0  0  0  0
  -22.0387  -12.8159   22.0473 N   0  0  0  0  0  0
  -25.3929  -15.2005   20.4194 N   0  0  0  0  0  0
  -31.5353  -15.5653   20.1949 O   0  0  0  0  0  0
  -21.6651   -6.8886   21.4242 O   0  0  0  0  0  0
  -22.3423  -14.5472   20.6756 O   0  0  0  0  0  0
  -24.6835  -31.8012   23.1524 C   0  0  0  0  0  0
  -25.9419  -32.4472   23.8070 C   0  0  1  0  0  0
  -27.2254  -26.7113   20.2140 C   0  0  0  0  0  0
  -25.6005  -33.8299   24.1960 N   0  0  0  0  0  0
  -23.5093  -30.4033   21.5066 C   0  0  2  0  0  0
  -24.9669  -28.7471   20.1191 C   0  0  0  0  0  0
  -22.7767  -29.4320   22.4718 C   0  0  0  0  0  0
  -18.0342  -28.1417   22.8454 C   0  0  0  0  0  0
  -24.1502  -36.7161   23.2650 C   0  0  0  0  0  0
  -26.0900  -30.5369   21.4157 C   0  0  0  0  0  0
  -26.1565  -29.1026   20.7659 C   0  0  0  0  0  0
  -27.2729  -28.1134   20.7794 C   0  0  0  0  0  0
  -26.0023  -26.5644   19.5111 C   0  0  0  0  0  0
  -24.9287  -27.5033   19.4672 C   0  0  0  0  0  0
  -23.7628  -29.7011   20.1420 C   0  0  0  0  0  0
  -25.4151  -36.2901   24.0281 C   0  0  1  0  0  0
  -20.5979  -28.3779   23.1146 C   0  0  2  0  0  0
  -20.6807  -26.9439   22.5404 C   0  0  0  0  0  0
  -19.5782  -26.6367   21.5217 C   0  0  0  0  0  0
  -18.1967  -26.7946   22.1620 C   0  0  0  0  0  0
  -19.1607  -28.8923   23.2781 C   0  0  0  0  0  0
  -18.9509  -30.1507   23.8825 C   0  0  0  0  0  0
  -17.6497  -30.6600   24.0549 C   0  0  0  0  0  0
  -25.9129  -34.9289   23.4955 C   0  0  0  0  0  0
  -16.5389  -29.9079   23.6347 C   0  0  0  0  0  0
  -16.7320  -28.6502   23.0363 C   0  0  0  0  0  0
  -26.4600  -31.6499   25.0687 C   0  0  0  0  0  0
  -25.3666  -31.3818   26.1302 C   0  0  0  0  0  0
  -27.0519  -30.2833   24.6573 C   0  0  0  0  0  0
  -27.6058  -32.4348   25.7498 C   0  0  0  0  0  0
  -27.5569  -37.1740   24.8464 C   0  0  0  0  0  0
  -21.4417  -29.3027   22.3465 N   0  0  0  0  0  0
  -26.4280  -37.3657   23.9398 N   0  0  0  0  0  0
  -24.7842  -30.9464   22.0775 N   0  0  0  0  0  0
  -23.4211  -28.7920   23.3061 O   0  0  0  0  0  0
  -28.1804  -25.4879   20.2767 O   0  0  0  0  0  0
  -26.5763  -34.8863   22.4568 O   0  0  0  0  0  0
  -23.5855  -32.1079   23.6486 O   0  0  0  0  0  0
  -27.9933  -20.8782   19.5040 C   0  0  0  0  0  0
  -28.3175  -19.3933   19.5300 C   0  0  0  0  0  0
  -29.5946  -21.2690   20.9854 C   0  0  0  0  0  0
  -28.5684  -22.0486   20.2160 C   0  0  0  0  0  0
  -29.3343  -18.6080   20.2714 C   0  0  0  0  0  0
  -29.9402  -19.7594   21.0170 C   0  0  0  0  0  0
  -29.1124  -17.9201   24.9211 C   0  0  0  0  0  0
  -28.2952  -18.0448   23.6607 C   0  0  0  0  0  0
  -29.8064  -18.0862   23.5876 C   0  0  0  0  0  0
  -27.8397  -23.7743   20.2023 C   0  0  0  0  0  0
  -30.5414  -19.3735   23.2576 C   0  0  0  0  0  0
  -29.4553  -16.8918   20.3216 N   0  0  0  0  0  0
  -30.9328  -19.3905   21.8883 O   0  0  0  0  0  0
  -31.4265  -13.3168   19.1708 H   0  0  0  0  0  0
  -30.5927  -12.1968   20.1984 H   0  0  0  0  0  0
  -29.9989  -11.8004   17.7860 H   0  0  0  0  0  0
  -29.5208  -13.4704   17.6065 H   0  0  0  0  0  0
  -28.1408  -11.2943   19.1931 H   0  0  0  0  0  0
  -27.4524  -12.2457   17.8988 H   0  0  0  0  0  0
  -27.4685  -14.2268   19.2518 H   0  0  0  0  0  0
  -28.8693  -12.7165   21.5091 H   0  0  0  0  0  0
  -28.1958  -14.3236   21.6381 H   0  0  0  0  0  0
  -25.2781   -9.5685   22.4768 H   0  0  0  0  0  0
  -24.0014   -7.4638   22.7475 H   0  0  0  0  0  0
  -21.0862   -8.8791   19.8950 H   0  0  0  0  0  0
  -22.3729  -10.9680   19.6168 H   0  0  0  0  0  0
  -21.2011   -7.6146   23.9719 H   0  0  0  0  0  0
  -21.1488   -6.0516   25.9080 H   0  0  0  0  0  0
  -22.0592   -2.7608   23.2841 H   0  0  0  0  0  0
  -22.4019  -11.9841   22.4895 H   0  0  0  0  0  0
  -21.0995  -13.1170   22.2651 H   0  0  0  0  0  0
  -24.6166  -15.8442   20.5273 H   0  0  0  0  0  0
  -26.2199  -15.6407   20.0410 H   0  0  0  0  0  0
  -26.7500  -32.4947   23.0784 H   0  0  0  0  0  0
  -25.0071  -33.9340   25.0057 H   0  0  0  0  0  0
  -22.8340  -31.2404   21.3176 H   0  0  0  0  0  0
  -23.3775  -35.9479   23.3274 H   0  0  0  0  0  0
  -24.3568  -36.8858   22.2071 H   0  0  0  0  0  0
  -23.7255  -37.6329   23.6749 H   0  0  0  0  0  0
  -26.2914  -31.2625   20.6264 H   0  0  0  0  0  0
  -26.9418  -30.6054   22.0801 H   0  0  0  0  0  0
  -28.1691  -28.3918   21.3156 H   0  0  0  0  0  0
  -25.8334  -25.6240   19.0074 H   0  0  0  0  0  0
  -24.0308  -27.2221   18.9336 H   0  0  0  0  0  0
  -23.9379  -30.4611   19.3798 H   0  0  0  0  0  0
  -22.8679  -29.1674   19.8182 H   0  0  0  0  0  0
  -25.1362  -36.1668   25.0772 H   0  0  0  0  0  0
  -21.0061  -28.3401   24.1272 H   0  0  0  0  0  0
  -20.5669  -26.2403   23.3666 H   0  0  0  0  0  0
  -21.6669  -26.7377   22.1224 H   0  0  0  0  0  0
  -19.6938  -25.6258   21.1296 H   0  0  0  0  0  0
  -19.6727  -27.3136   20.6716 H   0  0  0  0  0  0
  -17.4237  -26.6693   21.4023 H   0  0  0  0  0  0
  -18.0352  -26.0104   22.9030 H   0  0  0  0  0  0
  -19.7983  -30.7345   24.2162 H   0  0  0  0  0  0
  -17.5044  -31.6272   24.5164 H   0  0  0  0  0  0
  -15.5385  -30.2953   23.7709 H   0  0  0  0  0  0
  -15.8726  -28.0793   22.7115 H   0  0  0  0  0  0
  -24.5878  -30.7139   25.7602 H   0  0  0  0  0  0
  -24.8825  -32.3040   26.4523 H   0  0  0  0  0  0
  -25.7842  -30.9115   27.0210 H   0  0  0  0  0  0
  -26.3227  -29.6457   24.1561 H   0  0  0  0  0  0
  -27.3944  -29.7269   25.5308 H   0  0  0  0  0  0
  -27.9215  -30.3954   24.0095 H   0  0  0  0  0  0
  -27.2610  -33.3716   26.1885 H   0  0  0  0  0  0
  -28.3965  -32.6797   25.0394 H   0  0  0  0  0  0
  -28.0621  -31.8601   26.5566 H   0  0  0  0  0  0
  -28.2562  -38.0057   24.7498 H   0  0  0  0  0  0
  -28.1092  -36.2579   24.6310 H   0  0  0  0  0  0
  -27.2284  -37.1398   25.8866 H   0  0  0  0  0  0
  -20.9721  -29.8680   21.6530 H   0  0  0  0  0  0
  -26.0113  -38.2710   24.1392 H   0  0  0  0  0  0
  -27.1543  -21.1271   18.8691 H   0  0  0  0  0  0
  -27.6688  -18.7954   18.9064 H   0  0  0  0  0  0
  -30.1751  -21.8743   21.6665 H   0  0  0  0  0  0
  -29.1613  -16.9408   25.3939 H   0  0  0  0  0  0
  -29.1182  -18.7676   25.6050 H   0  0  0  0  0  0
  -27.7531  -18.9757   23.5043 H   0  0  0  0  0  0
  -27.8008  -17.1508   23.2843 H   0  0  0  0  0  0
  -30.3036  -17.1925   23.2146 H   0  0  0  0  0  0
  -27.0909  -23.6809   20.9888 H   0  0  0  0  0  0
  -27.2517  -23.7262   19.2860 H   0  0  0  0  0  0
  -31.4437  -19.4219   23.8676 H   0  0  0  0  0  0
  -29.9341  -20.2391   23.5282 H   0  0  0  0  0  0
  -28.5138  -16.5356   20.2615 H   0  0  0  0  0  0
  1 25  1  0  0  0
  1 30  2  0  0  0
  1 82  1  0  0  0
  2  3  1  0  0  0
  2 25  1  0  0  0
  2 84  1  0  0  0
  2 85  1  0  0  0
  3  4  1  0  0  0
  3 86  1  0  0  0
  3 87  1  0  0  0
  4  5  1  0  0  0
  4 88  1  0  0  0
  4 89  1  0  0  0
  5  6  1  0  0  0
  5 26  1  0  0  0
  5 90  1  0  0  0
  6 25  1  0  0  0
  6 91  1  0  0  0
  6 92  1  0  0  0
  7  8  2  0  0  0
  7 26  1  0  0  0
  7 29  1  0  0  0
  8  9  1  0  0  0
  8 22  1  0  0  0
  9 10  1  0  0  0
  9 27  2  0  0  0
 10 11  2  0  0  0
 10 15  1  0  0  0
 11 12  1  0  0  0
 11 93  1  0  0  0
 12 13  2  0  0  0
 12 94  1  0  0  0
 13 14  1  0  0  0
 13 31  1  0  0  0
 14 15  2  0  0  0
 14 95  1  0  0  0
 15 96  1  0  0  0
 16 17  2  0  0  0
 16 21  1  0  0  0
 16 31  1  0  0  0
 17 18  1  0  0  0
 17 97  1  0  0  0
 18 19  2  0  0  0
 18 98  1  0  0  0
 19 20  1  0  0  0
 19 24  1  0  0  0
 20 21  2  0  0  0
 20 99  1  0  0  0
 21 23  1  0  0  0
 22 28  1  0  0  0
 22 32  2  0  0  0
 26 27  1  0  0  0
 28100  1  0  0  0
 28101  1  0  0  0
 29102  1  0  0  0
 29103  1  0  0  0
 33 34  1  0  0  0
 33 66  1  0  0  0
 33 70  2  0  0  0
 34 36  1  0  0  0
 34 59  1  0  0  0
 34104  1  0  0  0
 35 44  2  0  0  0
 35 45  1  0  0  0
 35 68  1  0  0  0
 36 56  1  0  0  0
 36105  1  0  0  0
 37 39  1  0  0  0
 37 47  1  0  0  0
 37 66  1  0  0  0
 37106  1  0  0  0
 38 43  2  0  0  0
 38 46  1  0  0  0
 38 47  1  0  0  0
 39 64  1  0  0  0
 39 67  2  0  0  0
 40 52  1  0  0  0
 40 53  2  0  0  0
 40 58  1  0  0  0
 41107  1  0  0  0
 41108  1  0  0  0
 41109  1  0  0  0
 41 48  1  0  0  0
 42 43  1  0  0  0
 42 66  1  0  0  0
 42110  1  0  0  0
 42111  1  0  0  0
 43 44  1  0  0  0
 44112  1  0  0  0
 45 46  2  0  0  0
 45113  1  0  0  0
 46114  1  0  0  0
 47115  1  0  0  0
 47116  1  0  0  0
 48 56  1  0  0  0
 48 65  1  0  0  0
 48117  1  0  0  0
 49 50  1  0  0  0
 49 53  1  0  0  0
 49 64  1  0  0  0
 49118  1  0  0  0
 50 51  1  0  0  0
 50119  1  0  0  0
 50120  1  0  0  0
 51 52  1  0  0  0
 51121  1  0  0  0
 51122  1  0  0  0
 52123  1  0  0  0
 52124  1  0  0  0
 53 54  1  0  0  0
 54 55  2  0  0  0
 54125  1  0  0  0
 55 57  1  0  0  0
 55126  1  0  0  0
 56 69  2  0  0  0
 57 58  2  0  0  0
 57127  1  0  0  0
 58128  1  0  0  0
 59 60  1  0  0  0
 59 61  1  0  0  0
 59 62  1  0  0  0
 60129  1  0  0  0
 60130  1  0  0  0
 60131  1  0  0  0
 61132  1  0  0  0
 61133  1  0  0  0
 61134  1  0  0  0
 62135  1  0  0  0
 62136  1  0  0  0
 62137  1  0  0  0
 63 65  1  0  0  0
 63138  1  0  0  0
 63139  1  0  0  0
 63140  1  0  0  0
 64141  1  0  0  0
 65142  1  0  0  0
 68 80  1  0  0  0
 71 72  2  0  0  0
 71 74  1  0  0  0
 71143  1  0  0  0
 72 75  1  0  0  0
 72144  1  0  0  0
 73 74  2  0  0  0
 73 76  1  0  0  0
 73145  1  0  0  0
 74 80  1  0  0  0
 75 76  2  0  0  0
 75 82  1  0  0  0
 76 83  1  0  0  0
 77 78  1  0  0  0
 77 79  1  0  0  0
 77146  1  0  0  0
 77147  1  0  0  0
 78 79  1  0  0  0
 78148  1  0  0  0
 78149  1  0  0  0
 79 81  1  0  0  0
 79150  1  0  0  0
 80151  1  0  0  0
 80152  1  0  0  0
 81 83  1  0  0  0
 81153  1  0  0  0
 81154  1  0  0  0
 82155  1  0  0  0
M  ISO  4   1 100  68 101  80 101  82 100
M  END
> <chiral flag>
0

> <version>
0

> <s_m_source_file>
/data/baiqing/PycharmProjects/Reinvent-master-3.2/result/LINK_invent/BTK/process_docking_weight1_custom_sum_contain_oxygen_bond_distance_aromatic_linkinvent_7_9_3/rearranged_h_0137.sdf

> <i_m_source_file_index>
90

> <r_mmod_Potential_Energy-OPLS-2005>
2292.38891601562

> <r_mmod_Stretch_Energy-OPLS-2005>
909.804443359375

> <r_mmod_Bend_Energy-OPLS-2005>
678.126831054688

> <r_mmod_Torsional_Energy-OPLS-2005>
306.580017089844

> <r_mmod_Improper_Torsional_Energy-OPLS-2005>
8.29478168487549

> <r_mmod_Van_der_Waal_Energy-OPLS-2005>
121.984481811523

> <r_mmod_Electrostatic_Energy-OPLS-2005>
-371.759307861328

> <r_mmod_Solvation_Energy-OPLS-2005>
-223.299667358398

> <b_mmod_Minimization_Converged-OPLS-2005>
0

> <r_mmod_RMS_Derivative-OPLS-2005>
0.784806907176971

$$$$
91
                    3D
 Structure written by MMmdl.
173183  0  0  1  0            999 V2000
  -30.6756  -14.5438   20.5880 C   0  0  0  0  0  0
  -30.4379  -12.3684   19.4244 C   0  0  0  0  0  0
  -29.5054  -12.5152   18.2054 C   0  0  0  0  0  0
  -28.0298  -12.3543   18.6118 C   0  0  0  0  0  0
  -27.6565  -13.2060   19.8548 C   0  0  2  0  0  0
  -28.6950  -13.0239   20.9837 C   0  0  0  0  0  0
  -25.2609  -13.8171   20.5576 C   0  0  0  0  0  0
  -24.1885  -13.0449   20.9146 C   0  0  0  0  0  0
  -24.6424  -11.6919   20.8689 C   0  0  0  0  0  0
  -23.9099  -10.4304   21.0360 C   0  0  0  0  0  0
  -24.3659   -9.4224   21.9133 C   0  0  0  0  0  0
  -23.6324   -8.2268   22.0734 C   0  0  0  0  0  0
  -22.4287   -8.0306   21.3562 C   0  0  0  0  0  0
  -21.9932   -9.0279   20.4634 C   0  0  0  0  0  0
  -22.7281  -10.2145   20.3014 C   0  0  0  0  0  0
  -21.6876   -6.0732   22.5276 C   0  0  0  0  0  0
  -21.4017   -6.5631   23.8221 C   0  0  0  0  0  0
  -21.3676   -5.6775   24.9195 C   0  0  0  0  0  0
  -21.6039   -4.3035   24.7221 C   0  0  0  0  0  0
  -21.8838   -3.8146   23.4348 C   0  0  0  0  0  0
  -21.9224   -4.6957   22.3408 C   0  0  0  0  0  0
  -22.7920  -13.5243   21.1888 C   0  0  0  0  0  0
  -22.1675   -4.2142   21.0968 F   0  0  0  0  0  0
  -21.5661   -3.4492   25.7729 F   0  0  0  0  0  0
  -30.0180  -13.3600   20.4284 N   0  0  0  0  0  0
  -26.3014  -12.9319   20.3204 N   0  0  0  0  0  0
  -25.9335  -11.6490   20.5646 N   0  0  0  0  0  0
  -22.0585  -12.8193   22.0395 N   0  0  0  0  0  0
  -25.4352  -15.1883   20.4019 N   0  0  0  0  0  0
  -31.8227  -14.7254   20.1676 O   0  0  0  0  0  0
  -21.6677   -6.8881   21.4250 O   0  0  0  0  0  0
  -22.3569  -14.5544   20.6746 O   0  0  0  0  0  0
  -24.6153  -31.8635   23.2077 C   0  0  0  0  0  0
  -25.9043  -32.4822   23.8393 C   0  0  1  0  0  0
  -27.2469  -27.4432   20.1028 C   0  0  0  0  0  0
  -25.5851  -33.8624   24.2305 N   0  0  0  0  0  0
  -23.4066  -30.4898   21.5420 C   0  0  2  0  0  0
  -24.8599  -28.9610   20.1056 C   0  0  0  0  0  0
  -22.7434  -29.4646   22.4915 C   0  0  0  0  0  0
  -18.0266  -28.1369   22.8437 C   0  0  0  0  0  0
  -24.1466  -36.7352   23.2647 C   0  0  0  0  0  0
  -25.9337  -30.8406   21.3570 C   0  0  0  0  0  0
  -26.0160  -29.4737   20.7093 C   0  0  0  0  0  0
  -27.2086  -28.7158   20.7188 C   0  0  0  0  0  0
  -26.0676  -26.9416   19.5097 C   0  0  0  0  0  0
  -24.8794  -27.6949   19.5010 C   0  0  0  0  0  0
  -23.6232  -29.8288   20.1528 C   0  0  0  0  0  0
  -25.4093  -36.3149   24.0352 C   0  0  1  0  0  0
  -20.5846  -28.3701   23.1262 C   0  0  2  0  0  0
  -20.6748  -26.9431   22.5405 C   0  0  0  0  0  0
  -19.5757  -26.6386   21.5191 C   0  0  0  0  0  0
  -18.1922  -26.7910   22.1577 C   0  0  0  0  0  0
  -19.1502  -28.8852   23.2835 C   0  0  0  0  0  0
  -18.9458  -30.1423   23.8895 C   0  0  0  0  0  0
  -17.6462  -30.6577   24.0570 C   0  0  0  0  0  0
  -25.9023  -34.9513   23.5126 C   0  0  0  0  0  0
  -16.5349  -29.9100   23.6290 C   0  0  0  0  0  0
  -16.7250  -28.6508   23.0322 C   0  0  0  0  0  0
  -26.4462  -31.6605   25.0722 C   0  0  0  0  0  0
  -25.3735  -31.3716   26.1480 C   0  0  0  0  0  0
  -27.0295  -30.3061   24.6066 C   0  0  0  0  0  0
  -27.6042  -32.4315   25.7492 C   0  0  0  0  0  0
  -27.5582  -37.1842   24.8456 C   0  0  0  0  0  0
  -21.4134  -29.3066   22.3693 N   0  0  0  0  0  0
  -26.4280  -37.3836   23.9414 N   0  0  0  0  0  0
  -24.6702  -31.0782   22.0954 N   0  0  0  0  0  0
  -23.4201  -28.8195   23.2956 O   0  0  0  0  0  0
  -28.3674  -26.6480   20.2088 O   0  0  0  0  0  0
  -26.5598  -34.8966   22.4706 O   0  0  0  0  0  0
  -23.5353  -32.1320   23.7507 O   0  0  0  0  0  0
  -30.5774  -20.5468   20.4266 C   0  0  0  0  0  0
  -30.8666  -19.3335   21.1079 C   0  0  0  0  0  0
  -29.0753  -18.2277   19.9356 C   0  0  0  0  0  0
  -29.5013  -20.6374   19.5028 C   0  0  0  0  0  0
  -30.1291  -18.1475   20.8672 C   0  0  0  0  0  0
  -28.7558  -19.4409   19.2742 C   0  0  0  0  0  0
  -27.6484  -26.1800   15.7267 C   0  0  0  0  0  0
  -27.9975  -27.4711   16.4045 C   0  0  0  0  0  0
  -29.6590  -21.9613   17.2754 C   0  0  0  0  0  0
  -29.4219  -23.4110   16.8410 C   0  0  0  0  0  0
  -29.6243  -23.3592   19.2212 C   0  0  0  0  0  0
  -29.1730  -21.9507   18.7223 C   0  0  2  0  0  0
  -28.8431  -26.2344   16.6625 C   0  0  0  0  0  0
  -27.5914  -19.3905   18.2992 C   0  0  0  0  0  0
  -30.4270  -16.8517   21.6643 C   0  0  0  0  0  0
  -29.2701  -26.5760   19.1079 C   0  0  0  0  0  0
  -28.8301  -25.5368   18.0353 C   0  0  2  0  0  0
  -29.9517  -15.5447   21.1426 N   0  0  0  0  0  0
  -29.6572  -24.2709   18.0265 N   0  3  2  0  0  0
  -31.4754  -12.5089   19.1196 H   0  0  0  0  0  0
  -30.3819  -11.3619   19.8383 H   0  0  0  0  0  0
  -29.7650  -11.7800   17.4433 H   0  0  0  0  0  0
  -29.6601  -13.4964   17.7497 H   0  0  0  0  0  0
  -27.8666  -11.2968   18.8198 H   0  0  0  0  0  0
  -27.3816  -12.6043   17.7705 H   0  0  0  0  0  0
  -27.6840  -14.2469   19.5374 H   0  0  0  0  0  0
  -28.6928  -11.9933   21.3395 H   0  0  0  0  0  0
  -28.4275  -13.6329   21.8493 H   0  0  0  0  0  0
  -25.2814   -9.5696   22.4691 H   0  0  0  0  0  0
  -24.0084   -7.4638   22.7408 H   0  0  0  0  0  0
  -21.0897   -8.8773   19.8889 H   0  0  0  0  0  0
  -22.3749  -10.9690   19.6104 H   0  0  0  0  0  0
  -21.1952   -7.6125   23.9715 H   0  0  0  0  0  0
  -21.1491   -6.0497   25.9098 H   0  0  0  0  0  0
  -22.0594   -2.7604   23.2842 H   0  0  0  0  0  0
  -22.4240  -11.9850   22.4767 H   0  0  0  0  0  0
  -21.1174  -13.1133   22.2561 H   0  0  0  0  0  0
  -24.6674  -15.8455   20.5018 H   0  0  0  0  0  0
  -26.2914  -15.6262   20.0827 H   0  0  0  0  0  0
  -26.7180  -32.5562   23.1253 H   0  0  0  0  0  0
  -25.0075  -33.9756   25.0501 H   0  0  0  0  0  0
  -22.6965  -31.3070   21.3992 H   0  0  0  0  0  0
  -23.3720  -35.9689   23.3310 H   0  0  0  0  0  0
  -24.3557  -36.8928   22.2051 H   0  0  0  0  0  0
  -23.7210  -37.6573   23.6637 H   0  0  0  0  0  0
  -26.0209  -31.5991   20.5777 H   0  0  0  0  0  0
  -26.8304  -30.9137   21.9607 H   0  0  0  0  0  0
  -28.0872  -29.0938   21.2225 H   0  0  0  0  0  0
  -26.0395  -25.9584   19.0717 H   0  0  0  0  0  0
  -23.9926  -27.2804   19.0422 H   0  0  0  0  0  0
  -23.7489  -30.5998   19.3888 H   0  0  0  0  0  0
  -22.7476  -29.2513   19.8500 H   0  0  0  0  0  0
  -25.1273  -36.2054   25.0848 H   0  0  0  0  0  0
  -20.9890  -28.3272   24.1396 H   0  0  0  0  0  0
  -20.5591  -26.2324   23.3598 H   0  0  0  0  0  0
  -21.6639  -26.7449   22.1266 H   0  0  0  0  0  0
  -19.6915  -25.6299   21.1222 H   0  0  0  0  0  0
  -19.6700  -27.3194   20.6721 H   0  0  0  0  0  0
  -17.4193  -26.6616   21.3985 H   0  0  0  0  0  0
  -18.0339  -26.0077   22.8993 H   0  0  0  0  0  0
  -19.7966  -30.7188   24.2299 H   0  0  0  0  0  0
  -17.5065  -31.6265   24.5176 H   0  0  0  0  0  0
  -15.5354  -30.3047   23.7617 H   0  0  0  0  0  0
  -15.8631  -28.0862   22.7040 H   0  0  0  0  0  0
  -24.5955  -30.6980   25.7885 H   0  0  0  0  0  0
  -24.8870  -32.2857   26.4916 H   0  0  0  0  0  0
  -25.8112  -30.8969   27.0261 H   0  0  0  0  0  0
  -26.2832  -29.6843   24.1104 H   0  0  0  0  0  0
  -27.4078  -29.7310   25.4523 H   0  0  0  0  0  0
  -27.8653  -30.4435   23.9194 H   0  0  0  0  0  0
  -27.2678  -33.3628   26.2103 H   0  0  0  0  0  0
  -28.3865  -32.6838   25.0309 H   0  0  0  0  0  0
  -28.0703  -31.8382   26.5389 H   0  0  0  0  0  0
  -28.2634  -38.0118   24.7510 H   0  0  0  0  0  0
  -28.1031  -36.2649   24.6269 H   0  0  0  0  0  0
  -27.2270  -37.1478   25.8849 H   0  0  0  0  0  0
  -20.9274  -29.8895   21.7015 H   0  0  0  0  0  0
  -26.0168  -38.2905   24.1453 H   0  0  0  0  0  0
  -31.1981  -21.4054   20.6295 H   0  0  0  0  0  0
  -31.6689  -19.3231   21.8343 H   0  0  0  0  0  0
  -28.4855  -17.3410   19.7431 H   0  0  0  0  0  0
  -27.8357  -26.1297   14.6560 H   0  0  0  0  0  0
  -26.7361  -25.6891   16.0612 H   0  0  0  0  0  0
  -27.3342  -27.8180   17.1924 H   0  0  0  0  0  0
  -28.4298  -28.2579   15.7904 H   0  0  0  0  0  0
  -30.7189  -21.7070   17.2200 H   0  0  0  0  0  0
  -29.1160  -21.2702   16.6379 H   0  0  0  0  0  0
  -28.3854  -23.5164   16.5111 H   0  0  0  0  0  0
  -30.0611  -23.6989   16.0036 H   0  0  0  0  0  0
  -30.6449  -23.3307   19.6018 H   0  0  0  0  0  0
  -28.9896  -23.7391   20.0239 H   0  0  0  0  0  0
  -28.0848  -22.0323   18.7094 H   0  0  0  0  0  0
  -29.8290  -26.2936   16.2033 H   0  0  0  0  0  0
  -27.0323  -18.4646   18.4394 H   0  0  0  0  0  0
  -27.9390  -19.4117   17.2663 H   0  0  0  0  0  0
  -26.8858  -20.2042   18.4571 H   0  0  0  0  0  0
  -29.9081  -16.9701   22.6193 H   0  0  0  0  0  0
  -31.4872  -16.8004   21.9230 H   0  0  0  0  0  0
  -29.3738  -27.5802   18.6901 H   0  0  0  0  0  0
  -30.2644  -26.3407   19.4892 H   0  0  0  0  0  0
  -27.8091  -25.2294   18.2338 H   0  0  0  0  0  0
  -29.0019  -15.2984   21.3820 H   0  0  0  0  0  0
  -30.6221  -24.5572   17.9485 H   0  0  0  0  0  0
  1 25  1  0  0  0
  1 30  2  0  0  0
  1 88  1  0  0  0
  2  3  1  0  0  0
  2 25  1  0  0  0
  2 90  1  0  0  0
  2 91  1  0  0  0
  3  4  1  0  0  0
  3 92  1  0  0  0
  3 93  1  0  0  0
  4  5  1  0  0  0
  4 94  1  0  0  0
  4 95  1  0  0  0
  5  6  1  0  0  0
  5 26  1  0  0  0
  5 96  1  0  0  0
  6 25  1  0  0  0
  6 97  1  0  0  0
  6 98  1  0  0  0
  7  8  2  0  0  0
  7 26  1  0  0  0
  7 29  1  0  0  0
  8  9  1  0  0  0
  8 22  1  0  0  0
  9 10  1  0  0  0
  9 27  2  0  0  0
 10 11  2  0  0  0
 10 15  1  0  0  0
 11 12  1  0  0  0
 11 99  1  0  0  0
 12 13  2  0  0  0
 12100  1  0  0  0
 13 14  1  0  0  0
 13 31  1  0  0  0
 14 15  2  0  0  0
 14101  1  0  0  0
 15102  1  0  0  0
 16 17  2  0  0  0
 16 21  1  0  0  0
 16 31  1  0  0  0
 17 18  1  0  0  0
 17103  1  0  0  0
 18 19  2  0  0  0
 18104  1  0  0  0
 19 20  1  0  0  0
 19 24  1  0  0  0
 20 21  2  0  0  0
 20105  1  0  0  0
 21 23  1  0  0  0
 22 28  1  0  0  0
 22 32  2  0  0  0
 26 27  1  0  0  0
 28106  1  0  0  0
 28107  1  0  0  0
 29108  1  0  0  0
 29109  1  0  0  0
 33 34  1  0  0  0
 33 66  1  0  0  0
 33 70  2  0  0  0
 34 36  1  0  0  0
 34 59  1  0  0  0
 34110  1  0  0  0
 35 44  2  0  0  0
 35 45  1  0  0  0
 35 68  1  0  0  0
 36 56  1  0  0  0
 36111  1  0  0  0
 37 39  1  0  0  0
 37 47  1  0  0  0
 37 66  1  0  0  0
 37112  1  0  0  0
 38 43  2  0  0  0
 38 46  1  0  0  0
 38 47  1  0  0  0
 39 64  1  0  0  0
 39 67  2  0  0  0
 40 52  1  0  0  0
 40 53  2  0  0  0
 40 58  1  0  0  0
 41113  1  0  0  0
 41114  1  0  0  0
 41115  1  0  0  0
 41 48  1  0  0  0
 42 43  1  0  0  0
 42 66  1  0  0  0
 42116  1  0  0  0
 42117  1  0  0  0
 43 44  1  0  0  0
 44118  1  0  0  0
 45 46  2  0  0  0
 45119  1  0  0  0
 46120  1  0  0  0
 47121  1  0  0  0
 47122  1  0  0  0
 48 56  1  0  0  0
 48 65  1  0  0  0
 48123  1  0  0  0
 49 50  1  0  0  0
 49 53  1  0  0  0
 49 64  1  0  0  0
 49124  1  0  0  0
 50 51  1  0  0  0
 50125  1  0  0  0
 50126  1  0  0  0
 51 52  1  0  0  0
 51127  1  0  0  0
 51128  1  0  0  0
 52129  1  0  0  0
 52130  1  0  0  0
 53 54  1  0  0  0
 54 55  2  0  0  0
 54131  1  0  0  0
 55 57  1  0  0  0
 55132  1  0  0  0
 56 69  2  0  0  0
 57 58  2  0  0  0
 57133  1  0  0  0
 58134  1  0  0  0
 59 60  1  0  0  0
 59 61  1  0  0  0
 59 62  1  0  0  0
 60135  1  0  0  0
 60136  1  0  0  0
 60137  1  0  0  0
 61138  1  0  0  0
 61139  1  0  0  0
 61140  1  0  0  0
 62141  1  0  0  0
 62142  1  0  0  0
 62143  1  0  0  0
 63 65  1  0  0  0
 63144  1  0  0  0
 63145  1  0  0  0
 63146  1  0  0  0
 64147  1  0  0  0
 65148  1  0  0  0
 68 86  1  0  0  0
 71 72  2  0  0  0
 71 74  1  0  0  0
 71149  1  0  0  0
 72 75  1  0  0  0
 72150  1  0  0  0
 73 75  2  0  0  0
 73 76  1  0  0  0
 73151  1  0  0  0
 74 76  2  0  0  0
 74 82  1  0  0  0
 75 85  1  0  0  0
 76 84  1  0  0  0
 77 78  1  0  0  0
 77152  1  0  0  0
 77153  1  0  0  0
 77 83  1  0  0  0
 78 83  1  0  0  0
 78154  1  0  0  0
 78155  1  0  0  0
 79 80  1  0  0  0
 79 82  1  0  0  0
 79156  1  0  0  0
 79157  1  0  0  0
 80158  1  0  0  0
 80159  1  0  0  0
 80 89  1  0  0  0
 81 82  1  0  0  0
 81 89  1  0  0  0
 81160  1  0  0  0
 81161  1  0  0  0
 82162  1  0  0  0
 83 87  1  0  0  0
 83163  1  0  0  0
 84164  1  0  0  0
 84165  1  0  0  0
 84166  1  0  0  0
 85 88  1  0  0  0
 85167  1  0  0  0
 85168  1  0  0  0
 86169  1  0  0  0
 86170  1  0  0  0
 86 87  1  0  0  0
 87 89  1  0  0  0
 87171  1  0  0  0
 88172  1  0  0  0
 89173  1  0  0  0
M  CHG  1  89   1
M  ISO  4   1 100  68 101  86 101  88 100
M  END
> <chiral flag>
0

> <version>
0

> <s_m_source_file>
/data/baiqing/PycharmProjects/Reinvent-master-3.2/result/LINK_invent/BTK/process_docking_weight1_custom_sum_contain_oxygen_bond_distance_aromatic_linkinvent_7_9_3/rearranged_h_0137.sdf

> <i_m_source_file_index>
91

> <r_mmod_Potential_Energy-OPLS-2005>
3.05706143379211

> <r_mmod_Stretch_Energy-OPLS-2005>
51.832633972168

> <r_mmod_Bend_Energy-OPLS-2005>
153.311462402344

> <r_mmod_Torsional_Energy-OPLS-2005>
340.116516113281

> <r_mmod_Improper_Torsional_Energy-OPLS-2005>
3.41281127929688

> <r_mmod_Van_der_Waal_Energy-OPLS-2005>
138.549377441406

> <r_mmod_Electrostatic_Energy-OPLS-2005>
-283.220581054688

> <r_mmod_Solvation_Energy-OPLS-2005>
-423.836883544922

> <b_mmod_Minimization_Converged-OPLS-2005>
0

> <r_mmod_RMS_Derivative-OPLS-2005>
5.88266801834106

$$$$
92
                    3D
 Structure written by MMmdl.
155163  0  0  1  0            999 V2000
  -30.5147  -14.9996   20.3875 C   0  0  0  0  0  0
  -30.4486  -12.6116   19.5308 C   0  0  0  0  0  0
  -29.5414  -12.5507   18.2799 C   0  0  0  0  0  0
  -28.0733  -12.3352   18.6806 C   0  0  0  0  0  0
  -27.6370  -13.2597   19.8472 C   0  0  2  0  0  0
  -28.6735  -13.2975   20.9917 C   0  0  0  0  0  0
  -25.2470  -13.8250   20.5628 C   0  0  0  0  0  0
  -24.1784  -13.0443   20.9112 C   0  0  0  0  0  0
  -24.6418  -11.6926   20.8675 C   0  0  0  0  0  0
  -23.9085  -10.4285   21.0369 C   0  0  0  0  0  0
  -24.3638   -9.4225   21.9175 C   0  0  0  0  0  0
  -23.6300   -8.2270   22.0756 C   0  0  0  0  0  0
  -22.4289   -8.0270   21.3538 C   0  0  0  0  0  0
  -21.9906   -9.0243   20.4635 C   0  0  0  0  0  0
  -22.7244  -10.2129   20.3031 C   0  0  0  0  0  0
  -21.6872   -6.0684   22.5234 C   0  0  0  0  0  0
  -21.4049   -6.5606   23.8157 C   0  0  0  0  0  0
  -21.3688   -5.6761   24.9136 C   0  0  0  0  0  0
  -21.6062   -4.3028   24.7202 C   0  0  0  0  0  0
  -21.8833   -3.8089   23.4322 C   0  0  0  0  0  0
  -21.9216   -4.6899   22.3376 C   0  0  0  0  0  0
  -22.7801  -13.5208   21.1767 C   0  0  0  0  0  0
  -22.1654   -4.2088   21.0947 F   0  0  0  0  0  0
  -21.5666   -3.4512   25.7717 F   0  0  0  0  0  0
  -29.9484  -13.7201   20.4017 N   0  0  0  0  0  0
  -26.2932  -12.9509   20.3242 N   0  0  0  0  0  0
  -25.9363  -11.6619   20.5679 N   0  0  0  0  0  0
  -22.0443  -12.8243   22.0351 N   0  0  0  0  0  0
  -25.4128  -15.1981   20.4062 N   0  0  0  0  0  0
  -31.7016  -15.0699   20.0561 O   0  0  0  0  0  0
  -21.6669   -6.8839   21.4203 O   0  0  0  0  0  0
  -22.3480  -14.5472   20.6541 O   0  0  0  0  0  0
  -24.6432  -31.8387   23.1872 C   0  0  0  0  0  0
  -25.9186  -32.4669   23.8268 C   0  0  1  0  0  0
  -27.2202  -27.0944   20.1471 C   0  0  0  0  0  0
  -25.5963  -33.8490   24.2200 N   0  0  0  0  0  0
  -23.4504  -30.4515   21.5346 C   0  0  2  0  0  0
  -24.9016  -28.8725   20.1052 C   0  0  0  0  0  0
  -22.7570  -29.4485   22.4888 C   0  0  0  0  0  0
  -18.0309  -28.1342   22.8500 C   0  0  0  0  0  0
  -24.1524  -36.7231   23.2639 C   0  0  0  0  0  0
  -26.0090  -30.6958   21.3949 C   0  0  0  0  0  0
  -26.0777  -29.3044   20.7306 C   0  0  0  0  0  0
  -27.2301  -28.4282   20.7385 C   0  0  0  0  0  0
  -26.0161  -26.7668   19.4898 C   0  0  0  0  0  0
  -24.8865  -27.6183   19.4709 C   0  0  0  0  0  0
  -23.6786  -29.7772   20.1535 C   0  0  0  0  0  0
  -25.4151  -36.3018   24.0322 C   0  0  1  0  0  0
  -20.5922  -28.3682   23.1262 C   0  0  2  0  0  0
  -20.6809  -26.9389   22.5416 C   0  0  0  0  0  0
  -19.5778  -26.6346   21.5230 C   0  0  0  0  0  0
  -18.1952  -26.7888   22.1623 C   0  0  0  0  0  0
  -19.1556  -28.8829   23.2864 C   0  0  0  0  0  0
  -18.9470  -30.1443   23.8858 C   0  0  0  0  0  0
  -17.6458  -30.6557   24.0543 C   0  0  0  0  0  0
  -25.9087  -34.9386   23.5062 C   0  0  0  0  0  0
  -16.5355  -29.9038   23.6332 C   0  0  0  0  0  0
  -16.7287  -28.6452   23.0365 C   0  0  0  0  0  0
  -26.4511  -31.6532   25.0712 C   0  0  0  0  0  0
  -25.3726  -31.3660   26.1420 C   0  0  0  0  0  0
  -27.0370  -30.2940   24.6263 C   0  0  0  0  0  0
  -27.6071  -32.4276   25.7471 C   0  0  0  0  0  0
  -27.5598  -37.1764   24.8454 C   0  0  0  0  0  0
  -21.4254  -29.2994   22.3635 N   0  0  0  0  0  0
  -26.4307  -37.3738   23.9402 N   0  0  0  0  0  0
  -24.7209  -31.0163   22.0939 N   0  0  0  0  0  0
  -23.4201  -28.8042   23.3051 O   0  0  0  0  0  0
  -28.2836  -26.1163   20.2640 O   0  0  0  0  0  0
  -26.5659  -34.8887   22.4633 O   0  0  0  0  0  0
  -23.5533  -32.1295   23.7059 O   0  0  0  0  0  0
  -29.4635  -18.9453   20.6645 C   0  0  0  0  0  0
  -29.3837  -20.2691   19.9679 C   0  0  0  0  0  0
  -29.7350  -17.6227   20.0094 C   0  0  0  0  0  0
  -29.6197  -20.1419   18.5818 C   0  0  0  0  0  0
  -29.8511  -17.7703   18.6009 C   0  0  0  0  0  0
  -29.7957  -21.3645   17.6926 C   0  0  0  0  0  0
  -29.9694  -16.5799   17.6640 C   0  0  0  0  0  0
  -29.3009  -21.8149   20.6035 C   0  0  0  0  0  0
  -28.1917  -23.0896   20.3267 C   0  0  0  0  0  0
  -28.3874  -24.6598   19.6725 C   0  0  0  0  0  0
  -29.8046  -18.9582   17.9475 N   0  0  0  0  0  0
  -29.7438  -16.1905   20.6179 N   0  0  0  0  0  0
  -31.4866  -12.7603   19.2245 H   0  0  0  0  0  0
  -30.4284  -11.6601   20.0671 H   0  0  0  0  0  0
  -29.8688  -11.7612   17.6028 H   0  0  0  0  0  0
  -29.6369  -13.4896   17.7324 H   0  0  0  0  0  0
  -27.9621  -11.2903   18.9780 H   0  0  0  0  0  0
  -27.4264  -12.4866   17.8141 H   0  0  0  0  0  0
  -27.5977  -14.2653   19.4287 H   0  0  0  0  0  0
  -28.7635  -12.3186   21.4687 H   0  0  0  0  0  0
  -28.3672  -14.0032   21.7662 H   0  0  0  0  0  0
  -25.2774   -9.5716   22.4776 H   0  0  0  0  0  0
  -23.9964   -7.4690   22.7553 H   0  0  0  0  0  0
  -21.0805   -8.8764   19.8991 H   0  0  0  0  0  0
  -22.3660  -10.9661   19.6148 H   0  0  0  0  0  0
  -21.2022   -7.6104   23.9619 H   0  0  0  0  0  0
  -21.1526   -6.0508   25.9033 H   0  0  0  0  0  0
  -22.0586   -2.7542   23.2830 H   0  0  0  0  0  0
  -22.3978  -11.9984   22.4937 H   0  0  0  0  0  0
  -21.1050  -13.1343   22.2408 H   0  0  0  0  0  0
  -24.6586  -15.8626   20.5448 H   0  0  0  0  0  0
  -26.2667  -15.6401   20.0950 H   0  0  0  0  0  0
  -26.7244  -32.5234   23.0978 H   0  0  0  0  0  0
  -25.0185  -33.9641   25.0397 H   0  0  0  0  0  0
  -22.7551  -31.2784   21.3766 H   0  0  0  0  0  0
  -23.3828  -35.9516   23.3241 H   0  0  0  0  0  0
  -24.3635  -36.8908   22.2065 H   0  0  0  0  0  0
  -23.7237  -37.6393   23.6708 H   0  0  0  0  0  0
  -26.1689  -31.4526   20.6271 H   0  0  0  0  0  0
  -26.8772  -30.7412   22.0395 H   0  0  0  0  0  0
  -28.1214  -28.7498   21.2596 H   0  0  0  0  0  0
  -25.9116  -25.7959   19.0310 H   0  0  0  0  0  0
  -23.9832  -27.2783   18.9815 H   0  0  0  0  0  0
  -23.8146  -30.5540   19.3995 H   0  0  0  0  0  0
  -22.7949  -29.2167   19.8434 H   0  0  0  0  0  0
  -25.1349  -36.1843   25.0820 H   0  0  0  0  0  0
  -20.9996  -28.3255   24.1387 H   0  0  0  0  0  0
  -20.5748  -26.2271   23.3624 H   0  0  0  0  0  0
  -21.6667  -26.7426   22.1166 H   0  0  0  0  0  0
  -19.6946  -25.6257   21.1264 H   0  0  0  0  0  0
  -19.6718  -27.3168   20.6780 H   0  0  0  0  0  0
  -17.4244  -26.6678   21.4001 H   0  0  0  0  0  0
  -18.0314  -25.9999   22.8982 H   0  0  0  0  0  0
  -19.7939  -30.7290   24.2176 H   0  0  0  0  0  0
  -17.4999  -31.6238   24.5136 H   0  0  0  0  0  0
  -15.5350  -30.2911   23.7657 H   0  0  0  0  0  0
  -15.8701  -28.0746   22.7096 H   0  0  0  0  0  0
  -24.5978  -30.6919   25.7736 H   0  0  0  0  0  0
  -24.8829  -32.2796   26.4797 H   0  0  0  0  0  0
  -25.8063  -30.8887   27.0217 H   0  0  0  0  0  0
  -26.2952  -29.6660   24.1314 H   0  0  0  0  0  0
  -27.4046  -29.7226   25.4785 H   0  0  0  0  0  0
  -27.8844  -30.4191   23.9532 H   0  0  0  0  0  0
  -27.2719  -33.3622   26.1969 H   0  0  0  0  0  0
  -28.3913  -32.6726   25.0303 H   0  0  0  0  0  0
  -28.0694  -31.8430   26.5428 H   0  0  0  0  0  0
  -28.2551  -38.0127   24.7585 H   0  0  0  0  0  0
  -28.1166  -36.2649   24.6195 H   0  0  0  0  0  0
  -27.2307  -37.1293   25.8853 H   0  0  0  0  0  0
  -20.9471  -29.8685   21.6795 H   0  0  0  0  0  0
  -26.0166  -38.2792   24.1444 H   0  0  0  0  0  0
  -29.3498  -18.9506   21.7390 H   0  0  0  0  0  0
  -28.9567  -22.0510   17.7791 H   0  0  0  0  0  0
  -29.8920  -21.0971   16.6392 H   0  0  0  0  0  0
  -30.7059  -21.8977   17.9751 H   0  0  0  0  0  0
  -30.9638  -16.1401   17.7181 H   0  0  0  0  0  0
  -29.7882  -16.8479   16.6209 H   0  0  0  0  0  0
  -29.2336  -15.8219   17.9278 H   0  0  0  0  0  0
  -30.2940  -22.2428   20.4595 H   0  0  0  0  0  0
  -29.2864  -21.6440   21.6835 H   0  0  0  0  0  0
  -27.7257  -23.2743   21.2943 H   0  0  0  0  0  0
  -27.3754  -22.6242   19.7712 H   0  0  0  0  0  0
  -27.7670  -24.6684   18.7758 H   0  0  0  0  0  0
  -29.3859  -24.6459   19.2350 H   0  0  0  0  0  0
  -28.9066  -15.9843   21.1409 H   0  0  0  0  0  0
  1 25  1  0  0  0
  1 30  2  0  0  0
  1 82  1  0  0  0
  2  3  1  0  0  0
  2 25  1  0  0  0
  2 83  1  0  0  0
  2 84  1  0  0  0
  3  4  1  0  0  0
  3 85  1  0  0  0
  3 86  1  0  0  0
  4  5  1  0  0  0
  4 87  1  0  0  0
  4 88  1  0  0  0
  5  6  1  0  0  0
  5 26  1  0  0  0
  5 89  1  0  0  0
  6 25  1  0  0  0
  6 90  1  0  0  0
  6 91  1  0  0  0
  7  8  2  0  0  0
  7 26  1  0  0  0
  7 29  1  0  0  0
  8  9  1  0  0  0
  8 22  1  0  0  0
  9 10  1  0  0  0
  9 27  2  0  0  0
 10 11  2  0  0  0
 10 15  1  0  0  0
 11 12  1  0  0  0
 11 92  1  0  0  0
 12 13  2  0  0  0
 12 93  1  0  0  0
 13 14  1  0  0  0
 13 31  1  0  0  0
 14 15  2  0  0  0
 14 94  1  0  0  0
 15 95  1  0  0  0
 16 17  2  0  0  0
 16 21  1  0  0  0
 16 31  1  0  0  0
 17 18  1  0  0  0
 17 96  1  0  0  0
 18 19  2  0  0  0
 18 97  1  0  0  0
 19 20  1  0  0  0
 19 24  1  0  0  0
 20 21  2  0  0  0
 20 98  1  0  0  0
 21 23  1  0  0  0
 22 28  1  0  0  0
 22 32  2  0  0  0
 26 27  1  0  0  0
 28 99  1  0  0  0
 28100  1  0  0  0
 29101  1  0  0  0
 29102  1  0  0  0
 33 34  1  0  0  0
 33 66  1  0  0  0
 33 70  2  0  0  0
 34 36  1  0  0  0
 34 59  1  0  0  0
 34103  1  0  0  0
 35 44  2  0  0  0
 35 45  1  0  0  0
 35 68  1  0  0  0
 36 56  1  0  0  0
 36104  1  0  0  0
 37 39  1  0  0  0
 37 47  1  0  0  0
 37 66  1  0  0  0
 37105  1  0  0  0
 38 43  2  0  0  0
 38 46  1  0  0  0
 38 47  1  0  0  0
 39 64  1  0  0  0
 39 67  2  0  0  0
 40 52  1  0  0  0
 40 53  2  0  0  0
 40 58  1  0  0  0
 41106  1  0  0  0
 41107  1  0  0  0
 41108  1  0  0  0
 41 48  1  0  0  0
 42 43  1  0  0  0
 42 66  1  0  0  0
 42109  1  0  0  0
 42110  1  0  0  0
 43 44  1  0  0  0
 44111  1  0  0  0
 45 46  2  0  0  0
 45112  1  0  0  0
 46113  1  0  0  0
 47114  1  0  0  0
 47115  1  0  0  0
 48 56  1  0  0  0
 48 65  1  0  0  0
 48116  1  0  0  0
 49 50  1  0  0  0
 49 53  1  0  0  0
 49 64  1  0  0  0
 49117  1  0  0  0
 50 51  1  0  0  0
 50118  1  0  0  0
 50119  1  0  0  0
 51 52  1  0  0  0
 51120  1  0  0  0
 51121  1  0  0  0
 52122  1  0  0  0
 52123  1  0  0  0
 53 54  1  0  0  0
 54 55  2  0  0  0
 54124  1  0  0  0
 55 57  1  0  0  0
 55125  1  0  0  0
 56 69  2  0  0  0
 57 58  2  0  0  0
 57126  1  0  0  0
 58127  1  0  0  0
 59 60  1  0  0  0
 59 61  1  0  0  0
 59 62  1  0  0  0
 60128  1  0  0  0
 60129  1  0  0  0
 60130  1  0  0  0
 61131  1  0  0  0
 61132  1  0  0  0
 61133  1  0  0  0
 62134  1  0  0  0
 62135  1  0  0  0
 62136  1  0  0  0
 63 65  1  0  0  0
 63137  1  0  0  0
 63138  1  0  0  0
 63139  1  0  0  0
 64140  1  0  0  0
 65141  1  0  0  0
 68 80  1  0  0  0
 71 72  2  0  0  0
 71 73  1  0  0  0
 71142  1  0  0  0
 72 74  1  0  0  0
 72 78  1  0  0  0
 73 75  2  0  0  0
 73 82  1  0  0  0
 74 76  1  0  0  0
 74 81  2  0  0  0
 75 77  1  0  0  0
 75 81  1  0  0  0
 76143  1  0  0  0
 76144  1  0  0  0
 76145  1  0  0  0
 77146  1  0  0  0
 77147  1  0  0  0
 77148  1  0  0  0
 78 79  1  0  0  0
 78149  1  0  0  0
 78150  1  0  0  0
 79 80  1  0  0  0
 79151  1  0  0  0
 79152  1  0  0  0
 80153  1  0  0  0
 80154  1  0  0  0
 82155  1  0  0  0
M  ISO  4   1 100  68 101  80 101  82 100
M  END
> <chiral flag>
0

> <version>
0

> <s_m_source_file>
/data/baiqing/PycharmProjects/Reinvent-master-3.2/result/LINK_invent/BTK/process_docking_weight1_custom_sum_contain_oxygen_bond_distance_aromatic_linkinvent_7_9_3/rearranged_h_0137.sdf

> <i_m_source_file_index>
92

> <r_mmod_Potential_Energy-OPLS-2005>
487.140075683594

> <r_mmod_Stretch_Energy-OPLS-2005>
313.786224365234

> <r_mmod_Bend_Energy-OPLS-2005>
325.096496582031

> <r_mmod_Torsional_Energy-OPLS-2005>
257.342254638672

> <r_mmod_Improper_Torsional_Energy-OPLS-2005>
5.5501971244812

> <r_mmod_Van_der_Waal_Energy-OPLS-2005>
128.722015380859

> <r_mmod_Electrostatic_Energy-OPLS-2005>
-548.183654785156

> <r_mmod_Solvation_Energy-OPLS-2005>
-224.280059814453

> <b_mmod_Minimization_Converged-OPLS-2005>
0

> <r_mmod_RMS_Derivative-OPLS-2005>
4.92612981796265

$$$$
93
                    3D
 Structure written by MMmdl.
171181  0  0  1  0            999 V2000
  -30.7623  -14.4458   20.6248 C   0  0  0  0  0  0
  -30.4138  -12.3183   19.4183 C   0  0  0  0  0  0
  -29.4873  -12.5168   18.2035 C   0  0  0  0  0  0
  -28.0131  -12.3617   18.6208 C   0  0  0  0  0  0
  -27.6566  -13.2004   19.8759 C   0  0  2  0  0  0
  -28.7026  -13.0086   20.9981 C   0  0  0  0  0  0
  -25.2512  -13.7971   20.5656 C   0  0  0  0  0  0
  -24.1779  -13.0285   20.9168 C   0  0  0  0  0  0
  -24.6369  -11.6777   20.8727 C   0  0  0  0  0  0
  -23.9044  -10.4186   21.0434 C   0  0  0  0  0  0
  -24.3600   -9.4098   21.9212 C   0  0  0  0  0  0
  -23.6263   -8.2155   22.0749 C   0  0  0  0  0  0
  -22.4232   -8.0233   21.3556 C   0  0  0  0  0  0
  -21.9868   -9.0219   20.4668 C   0  0  0  0  0  0
  -22.7208  -10.2085   20.3098 C   0  0  0  0  0  0
  -21.6824   -6.0698   22.5287 C   0  0  0  0  0  0
  -21.4009   -6.5610   23.8220 C   0  0  0  0  0  0
  -21.3678   -5.6772   24.9188 C   0  0  0  0  0  0
  -21.6061   -4.3033   24.7247 C   0  0  0  0  0  0
  -21.8828   -3.8120   23.4363 C   0  0  0  0  0  0
  -21.9184   -4.6930   22.3421 C   0  0  0  0  0  0
  -22.7822  -13.5117   21.1893 C   0  0  0  0  0  0
  -22.1640   -4.2114   21.0996 F   0  0  0  0  0  0
  -21.5646   -3.4529   25.7767 F   0  0  0  0  0  0
  -30.0350  -13.3064   20.4450 N   0  0  0  0  0  0
  -26.2995  -12.9194   20.3385 N   0  0  0  0  0  0
  -25.9301  -11.6349   20.5739 N   0  0  0  0  0  0
  -22.0513  -12.8084   22.0464 N   0  0  0  0  0  0
  -25.4106  -15.1620   20.4006 N   0  0  0  0  0  0
  -31.8558  -14.6265   20.0882 O   0  0  0  0  0  0
  -21.6590   -6.8841   21.4246 O   0  0  0  0  0  0
  -22.3531  -14.5472   20.6794 O   0  0  0  0  0  0
  -24.6133  -31.8713   23.2099 C   0  0  0  0  0  0
  -25.9038  -32.4838   23.8402 C   0  0  1  0  0  0
  -27.2348  -27.4446   20.1007 C   0  0  0  0  0  0
  -25.5905  -33.8629   24.2344 N   0  0  0  0  0  0
  -23.3992  -30.4953   21.5516 C   0  0  2  0  0  0
  -24.8438  -28.9613   20.1147 C   0  0  0  0  0  0
  -22.7402  -29.4691   22.5005 C   0  0  0  0  0  0
  -18.0270  -28.1364   22.8510 C   0  0  0  0  0  0
  -24.1471  -36.7309   23.2635 C   0  0  0  0  0  0
  -25.9264  -30.8417   21.3579 C   0  0  0  0  0  0
  -26.0037  -29.4777   20.7043 C   0  0  0  0  0  0
  -27.2025  -28.7301   20.6857 C   0  0  0  0  0  0
  -26.0531  -26.9380   19.5091 C   0  0  0  0  0  0
  -24.8640  -27.6910   19.5129 C   0  0  0  0  0  0
  -23.6056  -29.8272   20.1654 C   0  0  0  0  0  0
  -25.4096  -36.3117   24.0347 C   0  0  1  0  0  0
  -20.5864  -28.3666   23.1322 C   0  0  2  0  0  0
  -20.6758  -26.9409   22.5413 C   0  0  0  0  0  0
  -19.5734  -26.6390   21.5209 C   0  0  0  0  0  0
  -18.1916  -26.7920   22.1621 C   0  0  0  0  0  0
  -19.1518  -28.8838   23.2914 C   0  0  0  0  0  0
  -18.9438  -30.1442   23.8920 C   0  0  0  0  0  0
  -17.6441  -30.6576   24.0572 C   0  0  0  0  0  0
  -25.9033  -34.9484   23.5144 C   0  0  0  0  0  0
  -16.5336  -29.9075   23.6320 C   0  0  0  0  0  0
  -16.7265  -28.6485   23.0368 C   0  0  0  0  0  0
  -26.4454  -31.6610   25.0723 C   0  0  0  0  0  0
  -25.3727  -31.3718   26.1485 C   0  0  0  0  0  0
  -27.0274  -30.3063   24.6059 C   0  0  0  0  0  0
  -27.6039  -32.4313   25.7484 C   0  0  0  0  0  0
  -27.5575  -37.1810   24.8463 C   0  0  0  0  0  0
  -21.4130  -29.3037   22.3735 N   0  0  0  0  0  0
  -26.4275  -37.3813   23.9424 N   0  0  0  0  0  0
  -24.6647  -31.0834   22.0983 N   0  0  0  0  0  0
  -23.4192  -28.8265   23.3059 O   0  0  0  0  0  0
  -28.4160  -26.7329   20.1197 O   0  0  0  0  0  0
  -26.5567  -34.8932   22.4685 O   0  0  0  0  0  0
  -23.5329  -32.1449   23.7509 O   0  0  0  0  0  0
  -28.6125  -22.0428   23.7785 C   0  0  0  0  0  0
  -28.4479  -20.6731   23.4973 C   0  0  0  0  0  0
  -29.0186  -22.9366   22.7686 C   0  0  0  0  0  0
  -29.1701  -21.0741   21.2115 C   0  0  0  0  0  0
  -28.7038  -20.1746   22.2028 C   0  0  0  0  0  0
  -29.3029  -22.4595   21.4653 C   0  0  0  0  0  0
  -25.1386  -19.4756   21.6128 C   0  0  0  0  0  0
  -24.8092  -18.8252   20.2842 C   0  0  0  0  0  0
  -27.8284  -17.6099   19.4875 C   0  0  0  0  0  0
  -29.0977  -16.7690   19.6978 C   0  0  0  0  0  0
  -29.5833  -17.7503   21.8876 C   0  0  0  0  0  0
  -28.3675  -18.7109   21.8663 C   0  0  2  0  0  0
  -26.0012  -18.3573   21.0814 C   0  0  0  0  0  0
  -27.4286  -18.6084   20.6160 C   0  0  2  0  0  0
  -29.2724  -16.4073   21.1832 C   0  0  2  0  0  0
  -29.6946  -24.6861   20.5216 C   0  0  0  0  0  0
  -28.3240  -25.3029   20.1720 C   0  0  0  0  0  0
  -30.2955  -15.3814   21.4717 N   0  0  0  0  0  0
  -29.6965  -23.2559   20.4057 O   0  0  0  0  0  0
  -31.4591  -12.4026   19.1118 H   0  0  0  0  0  0
  -30.3078  -11.3077   19.8154 H   0  0  0  0  0  0
  -29.7341  -11.7968   17.4213 H   0  0  0  0  0  0
  -29.6451  -13.5055   17.7708 H   0  0  0  0  0  0
  -27.8389  -11.3024   18.8171 H   0  0  0  0  0  0
  -27.3527  -12.6262   17.7945 H   0  0  0  0  0  0
  -27.6807  -14.2430   19.5706 H   0  0  0  0  0  0
  -28.6852  -11.9795   21.3612 H   0  0  0  0  0  0
  -28.4618  -13.6289   21.8618 H   0  0  0  0  0  0
  -25.2750   -9.5546   22.4772 H   0  0  0  0  0  0
  -23.9959   -7.4516   22.7447 H   0  0  0  0  0  0
  -21.0810   -8.8731   19.8967 H   0  0  0  0  0  0
  -22.3701  -10.9643   19.6213 H   0  0  0  0  0  0
  -21.1980   -7.6113   23.9733 H   0  0  0  0  0  0
  -21.1518   -6.0495   25.9095 H   0  0  0  0  0  0
  -22.0601   -2.7584   23.2869 H   0  0  0  0  0  0
  -22.4157  -11.9692   22.4723 H   0  0  0  0  0  0
  -21.1163  -13.1094   22.2824 H   0  0  0  0  0  0
  -24.6359  -15.8081   20.4941 H   0  0  0  0  0  0
  -26.2683  -15.6029   20.1007 H   0  0  0  0  0  0
  -26.7131  -32.5563   23.1192 H   0  0  0  0  0  0
  -25.0094  -33.9786   25.0519 H   0  0  0  0  0  0
  -22.6841  -31.3096   21.4168 H   0  0  0  0  0  0
  -23.3729  -35.9647   23.3297 H   0  0  0  0  0  0
  -24.3562  -36.8908   22.2047 H   0  0  0  0  0  0
  -23.7227  -37.6520   23.6642 H   0  0  0  0  0  0
  -26.0328  -31.6084   20.5886 H   0  0  0  0  0  0
  -26.8163  -30.8963   21.9755 H   0  0  0  0  0  0
  -28.0992  -29.1325   21.1364 H   0  0  0  0  0  0
  -26.0326  -25.9667   19.0386 H   0  0  0  0  0  0
  -23.9719  -27.2853   19.0549 H   0  0  0  0  0  0
  -23.7120  -30.6031   19.4054 H   0  0  0  0  0  0
  -22.7287  -29.2468   19.8714 H   0  0  0  0  0  0
  -25.1271  -36.1982   25.0845 H   0  0  0  0  0  0
  -20.9949  -28.3218   24.1444 H   0  0  0  0  0  0
  -20.5644  -26.2276   23.3605 H   0  0  0  0  0  0
  -21.6632  -26.7450   22.1222 H   0  0  0  0  0  0
  -19.6877  -25.6300   21.1233 H   0  0  0  0  0  0
  -19.6654  -27.3193   20.6738 H   0  0  0  0  0  0
  -17.4196  -26.6702   21.4012 H   0  0  0  0  0  0
  -18.0300  -26.0031   22.8982 H   0  0  0  0  0  0
  -19.7918  -30.7265   24.2282 H   0  0  0  0  0  0
  -17.4997  -31.6257   24.5169 H   0  0  0  0  0  0
  -15.5331  -30.2995   23.7618 H   0  0  0  0  0  0
  -15.8670  -28.0808   22.7079 H   0  0  0  0  0  0
  -24.5912  -30.7039   25.7832 H   0  0  0  0  0  0
  -24.8903  -32.2871   26.4915 H   0  0  0  0  0  0
  -25.8090  -30.8916   27.0253 H   0  0  0  0  0  0
  -26.2801  -29.6852   24.1104 H   0  0  0  0  0  0
  -27.4044  -29.7267   25.4491 H   0  0  0  0  0  0
  -27.8636  -30.4369   23.9194 H   0  0  0  0  0  0
  -27.2673  -33.3620   26.2051 H   0  0  0  0  0  0
  -28.3860  -32.6844   25.0321 H   0  0  0  0  0  0
  -28.0693  -31.8443   26.5410 H   0  0  0  0  0  0
  -28.2607  -38.0094   24.7527 H   0  0  0  0  0  0
  -28.1060  -36.2633   24.6272 H   0  0  0  0  0  0
  -27.2296  -37.1448   25.8865 H   0  0  0  0  0  0
  -20.9281  -29.8754   21.6963 H   0  0  0  0  0  0
  -26.0157  -38.2888   24.1435 H   0  0  0  0  0  0
  -28.3989  -22.4178   24.7696 H   0  0  0  0  0  0
  -28.0901  -20.0174   24.2793 H   0  0  0  0  0  0
  -29.1016  -23.9806   23.0301 H   0  0  0  0  0  0
  -29.3749  -20.7082   20.2154 H   0  0  0  0  0  0
  -24.4938  -19.2465   22.4592 H   0  0  0  0  0  0
  -25.5502  -20.4831   21.6028 H   0  0  0  0  0  0
  -24.9924  -19.4071   19.3805 H   0  0  0  0  0  0
  -23.9425  -18.1685   20.2475 H   0  0  0  0  0  0
  -26.9977  -16.9348   19.2946 H   0  0  0  0  0  0
  -27.9379  -18.1563   18.5499 H   0  0  0  0  0  0
  -29.9648  -17.3300   19.3479 H   0  0  0  0  0  0
  -29.0495  -15.8950   19.0506 H   0  0  0  0  0  0
  -29.8878  -17.5869   22.9227 H   0  0  0  0  0  0
  -30.4364  -18.2277   21.4039 H   0  0  0  0  0  0
  -27.7717  -18.3629   22.7111 H   0  0  0  0  0  0
  -25.8893  -17.4205   21.6233 H   0  0  0  0  0  0
  -27.3926  -19.5773   20.1218 H   0  0  0  0  0  0
  -28.3317  -16.0087   21.5684 H   0  0  0  0  0  0
  -30.0657  -25.0379   21.4818 H   0  0  0  0  0  0
  -30.4207  -25.0518   19.7957 H   0  0  0  0  0  0
  -27.5817  -24.9923   20.9088 H   0  0  0  0  0  0
  -28.0064  -24.9182   19.2016 H   0  0  0  0  0  0
  -31.0721  -15.8086   21.9563 H   0  0  0  0  0  0
  1 25  1  0  0  0
  1 30  2  0  0  0
  1 88  1  0  0  0
  2  3  1  0  0  0
  2 25  1  0  0  0
  2 90  1  0  0  0
  2 91  1  0  0  0
  3  4  1  0  0  0
  3 92  1  0  0  0
  3 93  1  0  0  0
  4  5  1  0  0  0
  4 94  1  0  0  0
  4 95  1  0  0  0
  5  6  1  0  0  0
  5 26  1  0  0  0
  5 96  1  0  0  0
  6 25  1  0  0  0
  6 97  1  0  0  0
  6 98  1  0  0  0
  7  8  2  0  0  0
  7 26  1  0  0  0
  7 29  1  0  0  0
  8  9  1  0  0  0
  8 22  1  0  0  0
  9 10  1  0  0  0
  9 27  2  0  0  0
 10 11  2  0  0  0
 10 15  1  0  0  0
 11 12  1  0  0  0
 11 99  1  0  0  0
 12 13  2  0  0  0
 12100  1  0  0  0
 13 14  1  0  0  0
 13 31  1  0  0  0
 14 15  2  0  0  0
 14101  1  0  0  0
 15102  1  0  0  0
 16 17  2  0  0  0
 16 21  1  0  0  0
 16 31  1  0  0  0
 17 18  1  0  0  0
 17103  1  0  0  0
 18 19  2  0  0  0
 18104  1  0  0  0
 19 20  1  0  0  0
 19 24  1  0  0  0
 20 21  2  0  0  0
 20105  1  0  0  0
 21 23  1  0  0  0
 22 28  1  0  0  0
 22 32  2  0  0  0
 26 27  1  0  0  0
 28106  1  0  0  0
 28107  1  0  0  0
 29108  1  0  0  0
 29109  1  0  0  0
 33 34  1  0  0  0
 33 66  1  0  0  0
 33 70  2  0  0  0
 34 36  1  0  0  0
 34 59  1  0  0  0
 34110  1  0  0  0
 35 44  2  0  0  0
 35 45  1  0  0  0
 35 68  1  0  0  0
 36 56  1  0  0  0
 36111  1  0  0  0
 37 39  1  0  0  0
 37 47  1  0  0  0
 37 66  1  0  0  0
 37112  1  0  0  0
 38 43  2  0  0  0
 38 46  1  0  0  0
 38 47  1  0  0  0
 39 64  1  0  0  0
 39 67  2  0  0  0
 40 52  1  0  0  0
 40 53  2  0  0  0
 40 58  1  0  0  0
 41113  1  0  0  0
 41114  1  0  0  0
 41115  1  0  0  0
 41 48  1  0  0  0
 42 43  1  0  0  0
 42 66  1  0  0  0
 42116  1  0  0  0
 42117  1  0  0  0
 43 44  1  0  0  0
 44118  1  0  0  0
 45 46  2  0  0  0
 45119  1  0  0  0
 46120  1  0  0  0
 47121  1  0  0  0
 47122  1  0  0  0
 48 56  1  0  0  0
 48 65  1  0  0  0
 48123  1  0  0  0
 49 50  1  0  0  0
 49 53  1  0  0  0
 49 64  1  0  0  0
 49124  1  0  0  0
 50 51  1  0  0  0
 50125  1  0  0  0
 50126  1  0  0  0
 51 52  1  0  0  0
 51127  1  0  0  0
 51128  1  0  0  0
 52129  1  0  0  0
 52130  1  0  0  0
 53 54  1  0  0  0
 54 55  2  0  0  0
 54131  1  0  0  0
 55 57  1  0  0  0
 55132  1  0  0  0
 56 69  2  0  0  0
 57 58  2  0  0  0
 57133  1  0  0  0
 58134  1  0  0  0
 59 60  1  0  0  0
 59 61  1  0  0  0
 59 62  1  0  0  0
 60135  1  0  0  0
 60136  1  0  0  0
 60137  1  0  0  0
 61138  1  0  0  0
 61139  1  0  0  0
 61140  1  0  0  0
 62141  1  0  0  0
 62142  1  0  0  0
 62143  1  0  0  0
 63 65  1  0  0  0
 63144  1  0  0  0
 63145  1  0  0  0
 63146  1  0  0  0
 64147  1  0  0  0
 65148  1  0  0  0
 68 87  1  0  0  0
 71 72  2  0  0  0
 71 73  1  0  0  0
 71149  1  0  0  0
 72 75  1  0  0  0
 72150  1  0  0  0
 73 76  2  0  0  0
 73151  1  0  0  0
 74 75  2  0  0  0
 74 76  1  0  0  0
 74152  1  0  0  0
 75 82  1  0  0  0
 76 89  1  0  0  0
 77 78  1  0  0  0
 77153  1  0  0  0
 77154  1  0  0  0
 77 83  1  0  0  0
 78 83  1  0  0  0
 78155  1  0  0  0
 78156  1  0  0  0
 79 80  1  0  0  0
 79157  1  0  0  0
 79158  1  0  0  0
 79 84  1  0  0  0
 80 85  1  0  0  0
 80159  1  0  0  0
 80160  1  0  0  0
 81 82  1  0  0  0
 81 85  1  0  0  0
 81161  1  0  0  0
 81162  1  0  0  0
 82 84  1  0  0  0
 82163  1  0  0  0
 83 84  1  0  0  0
 83164  1  0  0  0
 84165  1  0  0  0
 85 88  1  0  0  0
 85166  1  0  0  0
 86 87  1  0  0  0
 86 89  1  0  0  0
 86167  1  0  0  0
 86168  1  0  0  0
 87169  1  0  0  0
 87170  1  0  0  0
 88171  1  0  0  0
M  ISO  4   1 100  68 101  87 101  88 100
M  END
> <chiral flag>
0

> <version>
0

> <s_m_source_file>
/data/baiqing/PycharmProjects/Reinvent-master-3.2/result/LINK_invent/BTK/process_docking_weight1_custom_sum_contain_oxygen_bond_distance_aromatic_linkinvent_7_9_3/rearranged_h_0137.sdf

> <i_m_source_file_index>
93

> <r_mmod_Potential_Energy-OPLS-2005>
133.204895019531

> <r_mmod_Stretch_Energy-OPLS-2005>
40.5446395874023

> <r_mmod_Bend_Energy-OPLS-2005>
139.51676940918

> <r_mmod_Torsional_Energy-OPLS-2005>
347.559051513672

> <r_mmod_Improper_Torsional_Energy-OPLS-2005>
6.36882257461548

> <r_mmod_Van_der_Waal_Energy-OPLS-2005>
151.61686706543

> <r_mmod_Electrostatic_Energy-OPLS-2005>
-369.873260498047

> <r_mmod_Solvation_Energy-OPLS-2005>
-194.563339233398

> <b_mmod_Minimization_Converged-OPLS-2005>
0

> <r_mmod_RMS_Derivative-OPLS-2005>
2.77535915374756

$$$$
94
                    3D
 Structure written by MMmdl.
155163  0  0  1  0            999 V2000
  -30.7082  -14.4490   20.6061 C   0  0  0  0  0  0
  -30.4232  -12.3062   19.4151 C   0  0  0  0  0  0
  -29.4909  -12.5032   18.2028 C   0  0  0  0  0  0
  -28.0141  -12.3562   18.6192 C   0  0  0  0  0  0
  -27.6608  -13.2002   19.8733 C   0  0  2  0  0  0
  -28.6996  -12.9696   20.9934 C   0  0  0  0  0  0
  -25.2584  -13.8142   20.5672 C   0  0  0  0  0  0
  -24.1823  -13.0430   20.9149 C   0  0  0  0  0  0
  -24.6366  -11.6890   20.8717 C   0  0  0  0  0  0
  -23.9039  -10.4280   21.0396 C   0  0  0  0  0  0
  -24.3599   -9.4200   21.9177 C   0  0  0  0  0  0
  -23.6271   -8.2245   22.0763 C   0  0  0  0  0  0
  -22.4254   -8.0280   21.3556 C   0  0  0  0  0  0
  -21.9884   -9.0250   20.4659 C   0  0  0  0  0  0
  -22.7211  -10.2124   20.3052 C   0  0  0  0  0  0
  -21.6852   -6.0720   22.5277 C   0  0  0  0  0  0
  -21.4014   -6.5628   23.8210 C   0  0  0  0  0  0
  -21.3658   -5.6789   24.9175 C   0  0  0  0  0  0
  -21.6045   -4.3051   24.7230 C   0  0  0  0  0  0
  -21.8819   -3.8135   23.4356 C   0  0  0  0  0  0
  -21.9191   -4.6946   22.3406 C   0  0  0  0  0  0
  -22.7853  -13.5242   21.1824 C   0  0  0  0  0  0
  -22.1658   -4.2128   21.0984 F   0  0  0  0  0  0
  -21.5630   -3.4540   25.7748 F   0  0  0  0  0  0
  -30.0332  -13.2796   20.4466 N   0  0  0  0  0  0
  -26.3007  -12.9302   20.3348 N   0  0  0  0  0  0
  -25.9290  -11.6464   20.5749 N   0  0  0  0  0  0
  -22.0496  -12.8250   22.0386 N   0  0  0  0  0  0
  -25.4342  -15.1869   20.4137 N   0  0  0  0  0  0
  -31.8106  -14.6623   20.0920 O   0  0  0  0  0  0
  -21.6639   -6.8864   21.4241 O   0  0  0  0  0  0
  -22.3546  -14.5552   20.6671 O   0  0  0  0  0  0
  -24.6161  -31.8665   23.2082 C   0  0  0  0  0  0
  -25.9056  -32.4802   23.8384 C   0  0  1  0  0  0
  -27.2366  -27.4298   20.0890 C   0  0  0  0  0  0
  -25.5913  -33.8596   24.2344 N   0  0  0  0  0  0
  -23.4031  -30.4890   21.5491 C   0  0  2  0  0  0
  -24.8460  -28.9486   20.1172 C   0  0  0  0  0  0
  -22.7413  -29.4653   22.4993 C   0  0  0  0  0  0
  -18.0275  -28.1359   22.8495 C   0  0  0  0  0  0
  -24.1488  -36.7313   23.2643 C   0  0  0  0  0  0
  -25.9296  -30.8303   21.3585 C   0  0  0  0  0  0
  -26.0056  -29.4626   20.7087 C   0  0  0  0  0  0
  -27.2006  -28.7110   20.6886 C   0  0  0  0  0  0
  -26.0527  -26.9214   19.5078 C   0  0  0  0  0  0
  -24.8631  -27.6769   19.5183 C   0  0  0  0  0  0
  -23.6112  -29.8187   20.1640 C   0  0  0  0  0  0
  -25.4095  -36.3093   24.0357 C   0  0  1  0  0  0
  -20.5867  -28.3654   23.1321 C   0  0  2  0  0  0
  -20.6753  -26.9387   22.5427 C   0  0  0  0  0  0
  -19.5741  -26.6375   21.5213 C   0  0  0  0  0  0
  -18.1915  -26.7910   22.1616 C   0  0  0  0  0  0
  -19.1524  -28.8820   23.2907 C   0  0  0  0  0  0
  -18.9453  -30.1419   23.8929 C   0  0  0  0  0  0
  -17.6459  -30.6572   24.0556 C   0  0  0  0  0  0
  -25.9026  -34.9458   23.5149 C   0  0  0  0  0  0
  -16.5351  -29.9075   23.6311 C   0  0  0  0  0  0
  -16.7264  -28.6479   23.0356 C   0  0  0  0  0  0
  -26.4498  -31.6561   25.0695 C   0  0  0  0  0  0
  -25.3797  -31.3650   26.1474 C   0  0  0  0  0  0
  -27.0334  -30.3013   24.6026 C   0  0  0  0  0  0
  -27.6071  -32.4277   25.7461 C   0  0  0  0  0  0
  -27.5581  -37.1804   24.8468 C   0  0  0  0  0  0
  -21.4139  -29.3034   22.3735 N   0  0  0  0  0  0
  -26.4285  -37.3778   23.9423 N   0  0  0  0  0  0
  -24.6680  -31.0768   22.0975 N   0  0  0  0  0  0
  -23.4183  -28.8203   23.3043 O   0  0  0  0  0  0
  -28.4367  -26.7473   20.0929 O   0  0  0  0  0  0
  -26.5580  -34.8915   22.4704 O   0  0  0  0  0  0
  -23.5357  -32.1419   23.7482 O   0  0  0  0  0  0
  -29.9554  -22.8222   21.1557 C   0  0  0  0  0  0
  -27.9034  -21.8537   20.2919 C   0  0  0  0  0  0
  -30.5376  -21.5393   21.2020 C   0  0  0  0  0  0
  -28.4886  -20.5650   20.3386 C   0  0  0  0  0  0
  -28.6281  -22.9937   20.7110 C   0  0  0  0  0  0
  -29.8111  -20.3940   20.8120 C   0  0  0  0  0  0
  -27.9928  -24.3884   20.7530 C   0  0  0  0  0  0
  -29.7679  -17.8567   20.8096 C   0  0  0  0  0  0
  -30.5369  -16.7573   21.5842 C   0  0  0  0  0  0
  -28.5197  -25.3735   19.6810 C   0  0  0  0  0  0
  -30.4503  -19.1451   20.9234 N   0  0  0  0  0  0
  -30.0575  -15.4004   21.2978 N   0  0  0  0  0  0
  -31.4653  -12.4151   19.1085 H   0  0  0  0  0  0
  -30.3356  -11.2912   19.8067 H   0  0  0  0  0  0
  -29.7335  -11.7788   17.4244 H   0  0  0  0  0  0
  -29.6541  -13.4896   17.7669 H   0  0  0  0  0  0
  -27.8331  -11.3005   18.8245 H   0  0  0  0  0  0
  -27.3597  -12.6184   17.7876 H   0  0  0  0  0  0
  -27.7123  -14.2482   19.5781 H   0  0  0  0  0  0
  -28.6724  -11.9286   21.3195 H   0  0  0  0  0  0
  -28.4502  -13.5527   21.8806 H   0  0  0  0  0  0
  -25.2749   -9.5683   22.4743 H   0  0  0  0  0  0
  -23.9982   -7.4644   22.7488 H   0  0  0  0  0  0
  -21.0813   -8.8758   19.8976 H   0  0  0  0  0  0
  -22.3662  -10.9657   19.6158 H   0  0  0  0  0  0
  -21.2006   -7.6137   23.9703 H   0  0  0  0  0  0
  -21.1483   -6.0525   25.9078 H   0  0  0  0  0  0
  -22.0597   -2.7596   23.2866 H   0  0  0  0  0  0
  -22.4113  -11.9917   22.4782 H   0  0  0  0  0  0
  -21.1127  -13.1313   22.2605 H   0  0  0  0  0  0
  -24.6758  -15.8481   20.5427 H   0  0  0  0  0  0
  -26.2963  -15.6272   20.1182 H   0  0  0  0  0  0
  -26.7115  -32.5516   23.1140 H   0  0  0  0  0  0
  -25.0072  -33.9745   25.0494 H   0  0  0  0  0  0
  -22.6914  -31.3032   21.4074 H   0  0  0  0  0  0
  -23.3738  -35.9663   23.3304 H   0  0  0  0  0  0
  -24.3580  -36.8917   22.2055 H   0  0  0  0  0  0
  -23.7252  -37.6527   23.6647 H   0  0  0  0  0  0
  -26.0372  -31.5906   20.5841 H   0  0  0  0  0  0
  -26.8201  -30.8881   21.9713 H   0  0  0  0  0  0
  -28.1001  -29.1086   21.1390 H   0  0  0  0  0  0
  -26.0256  -25.9475   19.0416 H   0  0  0  0  0  0
  -23.9667  -27.2717   19.0690 H   0  0  0  0  0  0
  -23.7261  -30.5927   19.4043 H   0  0  0  0  0  0
  -22.7329  -29.2435   19.8666 H   0  0  0  0  0  0
  -25.1261  -36.1957   25.0851 H   0  0  0  0  0  0
  -20.9961  -28.3212   24.1437 H   0  0  0  0  0  0
  -20.5602  -26.2275   23.3620 H   0  0  0  0  0  0
  -21.6632  -26.7380   22.1264 H   0  0  0  0  0  0
  -19.6898  -25.6288   21.1229 H   0  0  0  0  0  0
  -19.6685  -27.3196   20.6752 H   0  0  0  0  0  0
  -17.4199  -26.6689   21.4001 H   0  0  0  0  0  0
  -18.0286  -26.0026   22.8979 H   0  0  0  0  0  0
  -19.7928  -30.7213   24.2334 H   0  0  0  0  0  0
  -17.5012  -31.6252   24.5153 H   0  0  0  0  0  0
  -15.5349  -30.2990   23.7593 H   0  0  0  0  0  0
  -15.8666  -28.0785   22.7085 H   0  0  0  0  0  0
  -24.5990  -30.6948   25.7857 H   0  0  0  0  0  0
  -24.8974  -32.2799   26.4919 H   0  0  0  0  0  0
  -25.8210  -30.8855   27.0223 H   0  0  0  0  0  0
  -26.2850  -29.6726   24.1185 H   0  0  0  0  0  0
  -27.4256  -29.7268   25.4426 H   0  0  0  0  0  0
  -27.8611  -30.4354   23.9062 H   0  0  0  0  0  0
  -27.2698  -33.3582   26.2036 H   0  0  0  0  0  0
  -28.3899  -32.6817   25.0304 H   0  0  0  0  0  0
  -28.0721  -31.8392   26.5380 H   0  0  0  0  0  0
  -28.2599  -38.0097   24.7499 H   0  0  0  0  0  0
  -28.1076  -36.2627   24.6304 H   0  0  0  0  0  0
  -27.2311  -37.1478   25.8876 H   0  0  0  0  0  0
  -20.9289  -29.8769   21.6973 H   0  0  0  0  0  0
  -26.0174  -38.2865   24.1393 H   0  0  0  0  0  0
  -30.5308  -23.6777   21.4826 H   0  0  0  0  0  0
  -26.8824  -21.9550   19.9499 H   0  0  0  0  0  0
  -31.5529  -21.4480   21.5603 H   0  0  0  0  0  0
  -27.9034  -19.7172   20.0138 H   0  0  0  0  0  0
  -28.1974  -24.8039   21.7402 H   0  0  0  0  0  0
  -26.9077  -24.3101   20.6871 H   0  0  0  0  0  0
  -29.7039  -17.5928   19.7525 H   0  0  0  0  0  0
  -28.7455  -17.9267   21.1846 H   0  0  0  0  0  0
  -31.6037  -16.8227   21.3673 H   0  0  0  0  0  0
  -30.4427  -16.9327   22.6569 H   0  0  0  0  0  0
  -28.0682  -25.1960   18.7048 H   0  0  0  0  0  0
  -29.5853  -25.1945   19.5381 H   0  0  0  0  0  0
  -31.3974  -19.1313   21.2942 H   0  0  0  0  0  0
  -29.1572  -15.1434   21.6754 H   0  0  0  0  0  0
  1 25  1  0  0  0
  1 30  2  0  0  0
  1 82  1  0  0  0
  2  3  1  0  0  0
  2 25  1  0  0  0
  2 83  1  0  0  0
  2 84  1  0  0  0
  3  4  1  0  0  0
  3 85  1  0  0  0
  3 86  1  0  0  0
  4  5  1  0  0  0
  4 87  1  0  0  0
  4 88  1  0  0  0
  5  6  1  0  0  0
  5 26  1  0  0  0
  5 89  1  0  0  0
  6 25  1  0  0  0
  6 90  1  0  0  0
  6 91  1  0  0  0
  7  8  2  0  0  0
  7 26  1  0  0  0
  7 29  1  0  0  0
  8  9  1  0  0  0
  8 22  1  0  0  0
  9 10  1  0  0  0
  9 27  2  0  0  0
 10 11  2  0  0  0
 10 15  1  0  0  0
 11 12  1  0  0  0
 11 92  1  0  0  0
 12 13  2  0  0  0
 12 93  1  0  0  0
 13 14  1  0  0  0
 13 31  1  0  0  0
 14 15  2  0  0  0
 14 94  1  0  0  0
 15 95  1  0  0  0
 16 17  2  0  0  0
 16 21  1  0  0  0
 16 31  1  0  0  0
 17 18  1  0  0  0
 17 96  1  0  0  0
 18 19  2  0  0  0
 18 97  1  0  0  0
 19 20  1  0  0  0
 19 24  1  0  0  0
 20 21  2  0  0  0
 20 98  1  0  0  0
 21 23  1  0  0  0
 22 28  1  0  0  0
 22 32  2  0  0  0
 26 27  1  0  0  0
 28 99  1  0  0  0
 28100  1  0  0  0
 29101  1  0  0  0
 29102  1  0  0  0
 33 34  1  0  0  0
 33 66  1  0  0  0
 33 70  2  0  0  0
 34 36  1  0  0  0
 34 59  1  0  0  0
 34103  1  0  0  0
 35 44  2  0  0  0
 35 45  1  0  0  0
 35 68  1  0  0  0
 36 56  1  0  0  0
 36104  1  0  0  0
 37 39  1  0  0  0
 37 47  1  0  0  0
 37 66  1  0  0  0
 37105  1  0  0  0
 38 43  2  0  0  0
 38 46  1  0  0  0
 38 47  1  0  0  0
 39 64  1  0  0  0
 39 67  2  0  0  0
 40 52  1  0  0  0
 40 53  2  0  0  0
 40 58  1  0  0  0
 41106  1  0  0  0
 41107  1  0  0  0
 41108  1  0  0  0
 41 48  1  0  0  0
 42 43  1  0  0  0
 42 66  1  0  0  0
 42109  1  0  0  0
 42110  1  0  0  0
 43 44  1  0  0  0
 44111  1  0  0  0
 45 46  2  0  0  0
 45112  1  0  0  0
 46113  1  0  0  0
 47114  1  0  0  0
 47115  1  0  0  0
 48 56  1  0  0  0
 48 65  1  0  0  0
 48116  1  0  0  0
 49 50  1  0  0  0
 49 53  1  0  0  0
 49 64  1  0  0  0
 49117  1  0  0  0
 50 51  1  0  0  0
 50118  1  0  0  0
 50119  1  0  0  0
 51 52  1  0  0  0
 51120  1  0  0  0
 51121  1  0  0  0
 52122  1  0  0  0
 52123  1  0  0  0
 53 54  1  0  0  0
 54 55  2  0  0  0
 54124  1  0  0  0
 55 57  1  0  0  0
 55125  1  0  0  0
 56 69  2  0  0  0
 57 58  2  0  0  0
 57126  1  0  0  0
 58127  1  0  0  0
 59 60  1  0  0  0
 59 61  1  0  0  0
 59 62  1  0  0  0
 60128  1  0  0  0
 60129  1  0  0  0
 60130  1  0  0  0
 61131  1  0  0  0
 61132  1  0  0  0
 61133  1  0  0  0
 62134  1  0  0  0
 62135  1  0  0  0
 62136  1  0  0  0
 63 65  1  0  0  0
 63137  1  0  0  0
 63138  1  0  0  0
 63139  1  0  0  0
 64140  1  0  0  0
 65141  1  0  0  0
 68 80  1  0  0  0
 71 73  2  0  0  0
 71 75  1  0  0  0
 71142  1  0  0  0
 72 74  1  0  0  0
 72 75  2  0  0  0
 72143  1  0  0  0
 73 76  1  0  0  0
 73144  1  0  0  0
 74 76  2  0  0  0
 74145  1  0  0  0
 75 77  1  0  0  0
 76 81  1  0  0  0
 77 80  1  0  0  0
 77146  1  0  0  0
 77147  1  0  0  0
 78 79  1  0  0  0
 78 81  1  0  0  0
 78148  1  0  0  0
 78149  1  0  0  0
 79 82  1  0  0  0
 79150  1  0  0  0
 79151  1  0  0  0
 80152  1  0  0  0
 80153  1  0  0  0
 81154  1  0  0  0
 82155  1  0  0  0
M  ISO  4   1 100  68 101  80 101  82 100
M  END
> <chiral flag>
0

> <version>
0

> <s_m_source_file>
/data/baiqing/PycharmProjects/Reinvent-master-3.2/result/LINK_invent/BTK/process_docking_weight1_custom_sum_contain_oxygen_bond_distance_aromatic_linkinvent_7_9_3/rearranged_h_0137.sdf

> <i_m_source_file_index>
94

> <r_mmod_Potential_Energy-OPLS-2005>
-149.417617797852

> <r_mmod_Stretch_Energy-OPLS-2005>
35.7775726318359

> <r_mmod_Bend_Energy-OPLS-2005>
114.079116821289

> <r_mmod_Torsional_Energy-OPLS-2005>
177.531585693359

> <r_mmod_Improper_Torsional_Energy-OPLS-2005>
2.65447735786438

> <r_mmod_Van_der_Waal_Energy-OPLS-2005>
151.411712646484

> <r_mmod_Electrostatic_Energy-OPLS-2005>
-419.903289794922

> <r_mmod_Solvation_Energy-OPLS-2005>
-222.086975097656

> <b_mmod_Minimization_Converged-OPLS-2005>
0

> <r_mmod_RMS_Derivative-OPLS-2005>
1.96044361591339

$$$$
95
                    3D
 Structure written by MMmdl.
169178  0  0  1  0            999 V2000
  -30.6805  -14.5332   20.5063 C   0  0  0  0  0  0
  -30.4200  -12.3250   19.4440 C   0  0  0  0  0  0
  -29.4988  -12.5051   18.2179 C   0  0  0  0  0  0
  -28.0219  -12.3545   18.6279 C   0  0  0  0  0  0
  -27.6579  -13.2120   19.8707 C   0  0  2  0  0  0
  -28.7011  -13.0426   21.0015 C   0  0  0  0  0  0
  -25.2561  -13.8169   20.5658 C   0  0  0  0  0  0
  -24.1818  -13.0449   20.9191 C   0  0  0  0  0  0
  -24.6392  -11.6914   20.8751 C   0  0  0  0  0  0
  -23.9054  -10.4293   21.0426 C   0  0  0  0  0  0
  -24.3602   -9.4202   21.9200 C   0  0  0  0  0  0
  -23.6279   -8.2228   22.0758 C   0  0  0  0  0  0
  -22.4255   -8.0276   21.3547 C   0  0  0  0  0  0
  -21.9898   -9.0258   20.4649 C   0  0  0  0  0  0
  -22.7236  -10.2142   20.3067 C   0  0  0  0  0  0
  -21.6846   -6.0730   22.5279 C   0  0  0  0  0  0
  -21.4016   -6.5631   23.8219 C   0  0  0  0  0  0
  -21.3663   -5.6786   24.9174 C   0  0  0  0  0  0
  -21.6045   -4.3049   24.7229 C   0  0  0  0  0  0
  -21.8822   -3.8139   23.4348 C   0  0  0  0  0  0
  -21.9183   -4.6953   22.3399 C   0  0  0  0  0  0
  -22.7838  -13.5250   21.1826 C   0  0  0  0  0  0
  -22.1649   -4.2136   21.0978 F   0  0  0  0  0  0
  -21.5626   -3.4537   25.7745 F   0  0  0  0  0  0
  -30.0284  -13.3374   20.4415 N   0  0  0  0  0  0
  -26.3008  -12.9351   20.3360 N   0  0  0  0  0  0
  -25.9324  -11.6514   20.5771 N   0  0  0  0  0  0
  -22.0447  -12.8266   22.0382 N   0  0  0  0  0  0
  -25.4257  -15.1878   20.3971 N   0  0  0  0  0  0
  -31.8314  -14.6796   20.0905 O   0  0  0  0  0  0
  -21.6616   -6.8882   21.4249 O   0  0  0  0  0  0
  -22.3533  -14.5556   20.6657 O   0  0  0  0  0  0
  -24.6183  -31.8661   23.2085 C   0  0  0  0  0  0
  -25.9059  -32.4816   23.8389 C   0  0  1  0  0  0
  -27.2282  -27.3984   20.1037 C   0  0  0  0  0  0
  -25.5908  -33.8613   24.2321 N   0  0  0  0  0  0
  -23.4070  -30.4901   21.5519 C   0  0  2  0  0  0
  -24.8510  -28.9507   20.1180 C   0  0  0  0  0  0
  -22.7421  -29.4653   22.4999 C   0  0  0  0  0  0
  -18.0271  -28.1377   22.8496 C   0  0  0  0  0  0
  -24.1489  -36.7306   23.2642 C   0  0  0  0  0  0
  -25.9405  -30.8212   21.3665 C   0  0  0  0  0  0
  -26.0156  -29.4538   20.7106 C   0  0  0  0  0  0
  -27.2087  -28.6889   20.6927 C   0  0  0  0  0  0
  -26.0458  -26.9241   19.4933 C   0  0  0  0  0  0
  -24.8620  -27.6859   19.5066 C   0  0  0  0  0  0
  -23.6150  -29.8225   20.1673 C   0  0  0  0  0  0
  -25.4109  -36.3109   24.0344 C   0  0  1  0  0  0
  -20.5865  -28.3658   23.1318 C   0  0  2  0  0  0
  -20.6760  -26.9394   22.5418 C   0  0  0  0  0  0
  -19.5737  -26.6380   21.5213 C   0  0  0  0  0  0
  -18.1915  -26.7924   22.1624 C   0  0  0  0  0  0
  -19.1522  -28.8834   23.2904 C   0  0  0  0  0  0
  -18.9449  -30.1444   23.8908 C   0  0  0  0  0  0
  -17.6450  -30.6585   24.0559 C   0  0  0  0  0  0
  -25.9040  -34.9473   23.5130 C   0  0  0  0  0  0
  -16.5341  -29.9083   23.6333 C   0  0  0  0  0  0
  -16.7258  -28.6500   23.0355 C   0  0  0  0  0  0
  -26.4470  -31.6615   25.0740 C   0  0  0  0  0  0
  -25.3725  -31.3731   26.1487 C   0  0  0  0  0  0
  -27.0315  -30.3056   24.6153 C   0  0  0  0  0  0
  -27.6046  -32.4343   25.7492 C   0  0  0  0  0  0
  -27.5580  -37.1812   24.8464 C   0  0  0  0  0  0
  -21.4145  -29.3025   22.3728 N   0  0  0  0  0  0
  -26.4294  -37.3797   23.9410 N   0  0  0  0  0  0
  -24.6744  -31.0738   22.1001 N   0  0  0  0  0  0
  -23.4182  -28.8195   23.3048 O   0  0  0  0  0  0
  -28.3891  -26.6407   20.0955 O   0  0  0  0  0  0
  -26.5601  -34.8924   22.4693 O   0  0  0  0  0  0
  -23.5367  -32.1425   23.7464 O   0  0  0  0  0  0
  -29.9100  -24.8232   18.4390 C   0  0  0  0  0  0
  -29.1543  -24.3280   19.5299 C   0  0  0  0  0  0
  -29.3914  -22.9575   19.5945 C   0  0  0  0  0  0
  -30.5508  -23.7886   17.8340 C   0  0  0  0  0  0
  -28.8397  -21.9859   20.5825 C   0  0  0  0  0  0
  -29.5805  -20.7117   21.1037 C   0  0  0  0  0  0
  -29.5948  -20.1790   17.7926 C   0  0  0  0  0  0
  -28.7837  -19.6047   18.9701 C   0  0  0  0  0  0
  -30.6630  -21.2867   18.0147 C   0  0  2  0  0  0
  -31.4741  -23.8579   16.6544 C   0  0  0  0  0  0
  -31.9761  -20.8546   18.6931 C   0  0  0  0  0  0
  -28.2860  -25.2255   20.4142 C   0  0  0  0  0  0
  -30.1764  -16.9749   20.2405 C   0  0  0  0  0  0
  -29.4334  -18.1761   20.9287 C   0  0  0  0  0  0
  -30.1923  -22.6049   18.4860 N   0  0  0  0  0  0
  -29.9190  -15.6174   20.7937 N   0  0  0  0  0  0
  -29.5988  -19.4943   20.2101 N   0  3  2  0  0  0
  -27.7463  -22.2317   21.0986 O   0  0  0  0  0  0
  -31.4680  -12.4077   19.1481 H   0  0  0  0  0  0
  -30.3073  -11.3234   19.8624 H   0  0  0  0  0  0
  -29.7479  -11.7791   17.4430 H   0  0  0  0  0  0
  -29.6572  -13.4912   17.7777 H   0  0  0  0  0  0
  -27.8480  -11.2994   18.8431 H   0  0  0  0  0  0
  -27.3688  -12.6028   17.7904 H   0  0  0  0  0  0
  -27.6886  -14.2515   19.5438 H   0  0  0  0  0  0
  -28.6822  -12.0239   21.3952 H   0  0  0  0  0  0
  -28.4685  -13.6931   21.8466 H   0  0  0  0  0  0
  -25.2747   -9.5667   22.4774 H   0  0  0  0  0  0
  -23.9987   -7.4618   22.7487 H   0  0  0  0  0  0
  -21.0819   -8.8790   19.8961 H   0  0  0  0  0  0
  -22.3708  -10.9677   19.6165 H   0  0  0  0  0  0
  -21.2021   -7.6136   23.9730 H   0  0  0  0  0  0
  -21.1482   -6.0501   25.9086 H   0  0  0  0  0  0
  -22.0600   -2.7595   23.2848 H   0  0  0  0  0  0
  -22.4028  -11.9948   22.4830 H   0  0  0  0  0  0
  -21.1083  -13.1355   22.2569 H   0  0  0  0  0  0
  -24.6457  -15.8334   20.4537 H   0  0  0  0  0  0
  -26.2584  -15.6093   20.0073 H   0  0  0  0  0  0
  -26.7131  -32.5508   23.1148 H   0  0  0  0  0  0
  -25.0072  -33.9768   25.0475 H   0  0  0  0  0  0
  -22.6981  -31.3092   21.4138 H   0  0  0  0  0  0
  -23.3756  -35.9634   23.3313 H   0  0  0  0  0  0
  -24.3588  -36.8908   22.2056 H   0  0  0  0  0  0
  -23.7231  -37.6510   23.6646 H   0  0  0  0  0  0
  -26.0624  -31.5908   20.6028 H   0  0  0  0  0  0
  -26.8241  -30.8674   21.9917 H   0  0  0  0  0  0
  -28.1104  -29.0776   21.1451 H   0  0  0  0  0  0
  -26.0282  -25.9667   18.9927 H   0  0  0  0  0  0
  -23.9670  -27.2948   19.0443 H   0  0  0  0  0  0
  -23.7239  -30.5979   19.4083 H   0  0  0  0  0  0
  -22.7363  -29.2466   19.8721 H   0  0  0  0  0  0
  -25.1286  -36.1981   25.0839 H   0  0  0  0  0  0
  -20.9951  -28.3217   24.1439 H   0  0  0  0  0  0
  -20.5665  -26.2260   23.3600 H   0  0  0  0  0  0
  -21.6633  -26.7440   22.1208 H   0  0  0  0  0  0
  -19.6900  -25.6291   21.1239 H   0  0  0  0  0  0
  -19.6685  -27.3192   20.6745 H   0  0  0  0  0  0
  -17.4189  -26.6672   21.4024 H   0  0  0  0  0  0
  -18.0315  -26.0061   22.9013 H   0  0  0  0  0  0
  -19.7927  -30.7256   24.2279 H   0  0  0  0  0  0
  -17.5010  -31.6271   24.5150 H   0  0  0  0  0  0
  -15.5344  -30.2984   23.7664 H   0  0  0  0  0  0
  -15.8656  -28.0825   22.7067 H   0  0  0  0  0  0
  -24.5865  -30.7126   25.7805 H   0  0  0  0  0  0
  -24.8957  -32.2895   26.4976 H   0  0  0  0  0  0
  -25.8061  -30.8848   27.0223 H   0  0  0  0  0  0
  -26.2879  -29.6810   24.1193 H   0  0  0  0  0  0
  -27.4056  -29.7311   25.4636 H   0  0  0  0  0  0
  -27.8723  -30.4373   23.9338 H   0  0  0  0  0  0
  -27.2667  -33.3628   26.2103 H   0  0  0  0  0  0
  -28.3823  -32.6933   25.0297 H   0  0  0  0  0  0
  -28.0753  -31.8459   26.5375 H   0  0  0  0  0  0
  -28.2609  -38.0101   24.7516 H   0  0  0  0  0  0
  -28.1068  -36.2636   24.6287 H   0  0  0  0  0  0
  -27.2303  -37.1458   25.8869 H   0  0  0  0  0  0
  -20.9311  -29.8740   21.6942 H   0  0  0  0  0  0
  -26.0188  -38.2881   24.1401 H   0  0  0  0  0  0
  -29.9719  -25.8561   18.1219 H   0  0  0  0  0  0
  -29.0852  -20.4421   22.0363 H   0  0  0  0  0  0
  -30.5937  -20.9832   21.3929 H   0  0  0  0  0  0
  -28.8826  -20.5304   17.0439 H   0  0  0  0  0  0
  -30.1038  -19.3423   17.3108 H   0  0  0  0  0  0
  -28.4436  -18.6148   18.6635 H   0  0  0  0  0  0
  -27.8449  -20.1385   19.1183 H   0  0  0  0  0  0
  -30.9737  -21.4372   16.9817 H   0  0  0  0  0  0
  -31.7457  -24.8901   16.4332 H   0  0  0  0  0  0
  -31.0083  -23.4451   15.7593 H   0  0  0  0  0  0
  -32.4028  -23.3191   16.8409 H   0  0  0  0  0  0
  -31.9155  -20.7482   19.7702 H   0  0  0  0  0  0
  -32.7504  -21.5997   18.5090 H   0  0  0  0  0  0
  -32.3424  -19.9144   18.2811 H   0  0  0  0  0  0
  -28.6202  -25.0952   21.4436 H   0  0  0  0  0  0
  -27.2671  -24.8431   20.3861 H   0  0  0  0  0  0
  -31.2491  -17.1757   20.2562 H   0  0  0  0  0  0
  -29.8985  -16.9297   19.1863 H   0  0  0  0  0  0
  -29.8350  -18.2708   21.9389 H   0  0  0  0  0  0
  -28.3703  -17.9588   21.0448 H   0  0  0  0  0  0
  -28.9959  -15.4278   21.1535 H   0  0  0  0  0  0
  -30.5527  -19.4713   19.8826 H   0  0  0  0  0  0
  1 25  1  0  0  0
  1 30  2  0  0  0
  1 86  1  0  0  0
  2  3  1  0  0  0
  2 25  1  0  0  0
  2 89  1  0  0  0
  2 90  1  0  0  0
  3  4  1  0  0  0
  3 91  1  0  0  0
  3 92  1  0  0  0
  4  5  1  0  0  0
  4 93  1  0  0  0
  4 94  1  0  0  0
  5  6  1  0  0  0
  5 26  1  0  0  0
  5 95  1  0  0  0
  6 25  1  0  0  0
  6 96  1  0  0  0
  6 97  1  0  0  0
  7  8  2  0  0  0
  7 26  1  0  0  0
  7 29  1  0  0  0
  8  9  1  0  0  0
  8 22  1  0  0  0
  9 10  1  0  0  0
  9 27  2  0  0  0
 10 11  2  0  0  0
 10 15  1  0  0  0
 11 12  1  0  0  0
 11 98  1  0  0  0
 12 13  2  0  0  0
 12 99  1  0  0  0
 13 14  1  0  0  0
 13 31  1  0  0  0
 14 15  2  0  0  0
 14100  1  0  0  0
 15101  1  0  0  0
 16 17  2  0  0  0
 16 21  1  0  0  0
 16 31  1  0  0  0
 17 18  1  0  0  0
 17102  1  0  0  0
 18 19  2  0  0  0
 18103  1  0  0  0
 19 20  1  0  0  0
 19 24  1  0  0  0
 20 21  2  0  0  0
 20104  1  0  0  0
 21 23  1  0  0  0
 22 28  1  0  0  0
 22 32  2  0  0  0
 26 27  1  0  0  0
 28105  1  0  0  0
 28106  1  0  0  0
 29107  1  0  0  0
 29108  1  0  0  0
 33 34  1  0  0  0
 33 66  1  0  0  0
 33 70  2  0  0  0
 34 36  1  0  0  0
 34 59  1  0  0  0
 34109  1  0  0  0
 35 44  2  0  0  0
 35 45  1  0  0  0
 35 68  1  0  0  0
 36 56  1  0  0  0
 36110  1  0  0  0
 37 39  1  0  0  0
 37 47  1  0  0  0
 37 66  1  0  0  0
 37111  1  0  0  0
 38 43  2  0  0  0
 38 46  1  0  0  0
 38 47  1  0  0  0
 39 64  1  0  0  0
 39 67  2  0  0  0
 40 52  1  0  0  0
 40 53  2  0  0  0
 40 58  1  0  0  0
 41112  1  0  0  0
 41113  1  0  0  0
 41114  1  0  0  0
 41 48  1  0  0  0
 42 43  1  0  0  0
 42 66  1  0  0  0
 42115  1  0  0  0
 42116  1  0  0  0
 43 44  1  0  0  0
 44117  1  0  0  0
 45 46  2  0  0  0
 45118  1  0  0  0
 46119  1  0  0  0
 47120  1  0  0  0
 47121  1  0  0  0
 48 56  1  0  0  0
 48 65  1  0  0  0
 48122  1  0  0  0
 49 50  1  0  0  0
 49 53  1  0  0  0
 49 64  1  0  0  0
 49123  1  0  0  0
 50 51  1  0  0  0
 50124  1  0  0  0
 50125  1  0  0  0
 51 52  1  0  0  0
 51126  1  0  0  0
 51127  1  0  0  0
 52128  1  0  0  0
 52129  1  0  0  0
 53 54  1  0  0  0
 54 55  2  0  0  0
 54130  1  0  0  0
 55 57  1  0  0  0
 55131  1  0  0  0
 56 69  2  0  0  0
 57 58  2  0  0  0
 57132  1  0  0  0
 58133  1  0  0  0
 59 60  1  0  0  0
 59 61  1  0  0  0
 59 62  1  0  0  0
 60134  1  0  0  0
 60135  1  0  0  0
 60136  1  0  0  0
 61137  1  0  0  0
 61138  1  0  0  0
 61139  1  0  0  0
 62140  1  0  0  0
 62141  1  0  0  0
 62142  1  0  0  0
 63 65  1  0  0  0
 63143  1  0  0  0
 63144  1  0  0  0
 63145  1  0  0  0
 64146  1  0  0  0
 65147  1  0  0  0
 68 82  1  0  0  0
 71 72  1  0  0  0
 71 74  2  0  0  0
 71148  1  0  0  0
 72 73  2  0  0  0
 72 82  1  0  0  0
 73 75  1  0  0  0
 73 85  1  0  0  0
 74 80  1  0  0  0
 74 85  1  0  0  0
 75 76  1  0  0  0
 75 88  2  0  0  0
 76 87  1  0  0  0
 76149  1  0  0  0
 76150  1  0  0  0
 77 78  1  0  0  0
 77 79  1  0  0  0
 77151  1  0  0  0
 77152  1  0  0  0
 78 87  1  0  0  0
 78153  1  0  0  0
 78154  1  0  0  0
 79 81  1  0  0  0
 79 85  1  0  0  0
 79155  1  0  0  0
 80156  1  0  0  0
 80157  1  0  0  0
 80158  1  0  0  0
 81159  1  0  0  0
 81160  1  0  0  0
 81161  1  0  0  0
 82162  1  0  0  0
 82163  1  0  0  0
 83 84  1  0  0  0
 83 86  1  0  0  0
 83164  1  0  0  0
 83165  1  0  0  0
 84166  1  0  0  0
 84167  1  0  0  0
 84 87  1  0  0  0
 86168  1  0  0  0
 87169  1  0  0  0
M  CHG  1  87   1
M  ISO  4   1 100  68 101  82 101  86 100
M  END
> <chiral flag>
0

> <version>
0

> <s_m_source_file>
/data/baiqing/PycharmProjects/Reinvent-master-3.2/result/LINK_invent/BTK/process_docking_weight1_custom_sum_contain_oxygen_bond_distance_aromatic_linkinvent_7_9_3/rearranged_h_0137.sdf

> <i_m_source_file_index>
95

> <r_mmod_Potential_Energy-OPLS-2005>
-97.9977951049805

> <r_mmod_Stretch_Energy-OPLS-2005>
56.8380470275879

> <r_mmod_Bend_Energy-OPLS-2005>
158.996322631836

> <r_mmod_Torsional_Energy-OPLS-2005>
314.324127197266

> <r_mmod_Improper_Torsional_Energy-OPLS-2005>
8.53833103179932

> <r_mmod_Van_der_Waal_Energy-OPLS-2005>
142.212356567383

> <r_mmod_Electrostatic_Energy-OPLS-2005>
-315.568298339844

> <r_mmod_Solvation_Energy-OPLS-2005>
-484.243682861328

> <b_mmod_Minimization_Converged-OPLS-2005>
0

> <r_mmod_RMS_Derivative-OPLS-2005>
2.15145778656006

$$$$
96
                    3D
 Structure written by MMmdl.
170180  0  0  1  0            999 V2000
  -30.7137  -14.5577   20.3582 C   0  0  0  0  0  0
  -30.4293  -12.2981   19.4572 C   0  0  0  0  0  0
  -29.5055  -12.3201   18.2236 C   0  0  0  0  0  0
  -28.0105  -12.3009   18.6152 C   0  0  0  0  0  0
  -27.6396  -13.2007   19.8283 C   0  0  2  0  0  0
  -28.6985  -13.1413   20.9507 C   0  0  0  0  0  0
  -25.2574  -13.8140   20.5727 C   0  0  0  0  0  0
  -24.1810  -13.0415   20.9224 C   0  0  0  0  0  0
  -24.6366  -11.6906   20.8772 C   0  0  0  0  0  0
  -23.9028  -10.4307   21.0411 C   0  0  0  0  0  0
  -24.3580   -9.4228   21.9187 C   0  0  0  0  0  0
  -23.6265   -8.2270   22.0739 C   0  0  0  0  0  0
  -22.4252   -8.0312   21.3537 C   0  0  0  0  0  0
  -21.9896   -9.0269   20.4621 C   0  0  0  0  0  0
  -22.7229  -10.2149   20.3021 C   0  0  0  0  0  0
  -21.6864   -6.0755   22.5272 C   0  0  0  0  0  0
  -21.4043   -6.5629   23.8210 C   0  0  0  0  0  0
  -21.3666   -5.6765   24.9160 C   0  0  0  0  0  0
  -21.6046   -4.3038   24.7185 C   0  0  0  0  0  0
  -21.8817   -3.8145   23.4299 C   0  0  0  0  0  0
  -21.9191   -4.6981   22.3378 C   0  0  0  0  0  0
  -22.7843  -13.5257   21.1868 C   0  0  0  0  0  0
  -22.1647   -4.2183   21.0945 F   0  0  0  0  0  0
  -21.5624   -3.4500   25.7690 F   0  0  0  0  0  0
  -30.0118  -13.3902   20.3434 N   0  0  0  0  0  0
  -26.2941  -12.9285   20.3232 N   0  0  0  0  0  0
  -25.9284  -11.6478   20.5801 N   0  0  0  0  0  0
  -22.0422  -12.8260   22.0397 N   0  0  0  0  0  0
  -25.4333  -15.1845   20.4237 N   0  0  0  0  0  0
  -31.9366  -14.5842   20.2363 O   0  0  0  0  0  0
  -21.6626   -6.8907   21.4245 O   0  0  0  0  0  0
  -22.3558  -14.5555   20.6710 O   0  0  0  0  0  0
  -24.6166  -31.8622   23.2064 C   0  0  0  0  0  0
  -25.9061  -32.4782   23.8385 C   0  0  1  0  0  0
  -27.2422  -27.4093   20.0952 C   0  0  0  0  0  0
  -25.5918  -33.8597   24.2279 N   0  0  0  0  0  0
  -23.4034  -30.4863   21.5432 C   0  0  2  0  0  0
  -24.8484  -28.9411   20.1182 C   0  0  0  0  0  0
  -22.7373  -29.4696   22.4966 C   0  0  0  0  0  0
  -18.0265  -28.1405   22.8483 C   0  0  0  0  0  0
  -24.1482  -36.7262   23.2635 C   0  0  0  0  0  0
  -25.9362  -30.8199   21.3651 C   0  0  0  0  0  0
  -26.0098  -29.4567   20.7013 C   0  0  0  0  0  0
  -27.2055  -28.6996   20.6787 C   0  0  0  0  0  0
  -26.0478  -26.9002   19.5298 C   0  0  0  0  0  0
  -24.8610  -27.6621   19.5334 C   0  0  0  0  0  0
  -23.6098  -29.8054   20.1638 C   0  0  0  0  0  0
  -25.4123  -36.3072   24.0317 C   0  0  1  0  0  0
  -20.5846  -28.3710   23.1275 C   0  0  2  0  0  0
  -20.6755  -26.9444   22.5397 C   0  0  0  0  0  0
  -19.5738  -26.6404   21.5192 C   0  0  0  0  0  0
  -18.1911  -26.7951   22.1608 C   0  0  0  0  0  0
  -19.1514  -28.8872   23.2871 C   0  0  0  0  0  0
  -18.9462  -30.1487   23.8866 C   0  0  0  0  0  0
  -17.6467  -30.6602   24.0597 C   0  0  0  0  0  0
  -25.9073  -34.9455   23.5098 C   0  0  0  0  0  0
  -16.5349  -29.9112   23.6377 C   0  0  0  0  0  0
  -16.7264  -28.6545   23.0362 C   0  0  0  0  0  0
  -26.4497  -31.6614   25.0747 C   0  0  0  0  0  0
  -25.3777  -31.3701   26.1491 C   0  0  0  0  0  0
  -27.0378  -30.3048   24.6239 C   0  0  0  0  0  0
  -27.6053  -32.4364   25.7501 C   0  0  0  0  0  0
  -27.5601  -37.1742   24.8450 C   0  0  0  0  0  0
  -21.4111  -29.3051   22.3656 N   0  0  0  0  0  0
  -26.4280  -37.3795   23.9452 N   0  0  0  0  0  0
  -24.6695  -31.0724   22.0952 N   0  0  0  0  0  0
  -23.4118  -28.8280   23.3067 O   0  0  0  0  0  0
  -28.4403  -26.7103   20.1284 O   0  0  0  0  0  0
  -26.5628  -34.8921   22.4654 O   0  0  0  0  0  0
  -23.5355  -32.1392   23.7455 O   0  0  0  0  0  0
  -29.7450  -23.9234   21.0484 C   0  0  0  0  0  0
  -29.8591  -22.6578   21.6719 C   0  0  0  0  0  0
  -27.7345  -23.1830   19.9264 C   0  0  0  0  0  0
  -27.8314  -21.9092   20.5423 C   0  0  0  0  0  0
  -28.6857  -24.1968   20.1578 C   0  0  0  0  0  0
  -28.9157  -21.6311   21.4232 C   0  0  0  0  0  0
  -30.0732  -17.1320   18.1948 C   0  0  0  0  0  0
  -27.0956  -19.7325   19.3122 C   0  0  0  0  0  0
  -26.1054  -20.7782   18.8813 C   0  0  0  0  0  0
  -31.0777  -17.6319   19.2094 C   0  0  0  0  0  0
  -29.3595  -15.9725   18.8968 C   0  0  0  0  0  0
  -26.7747  -20.8843   20.2358 C   0  0  0  0  0  0
  -30.6022  -17.0365   20.5499 C   0  0  1  0  0  0
  -29.0716  -20.2679   22.1324 C   0  0  0  0  0  0
  -28.6371  -25.5102   19.3590 C   0  0  0  0  0  0
  -29.5831  -17.9410   21.3071 C   0  0  0  0  0  0
  -30.0053  -15.7189   20.2051 N   0  0  0  0  0  0
  -30.0258  -19.3569   21.4526 N   0  3  0  0  0  0
  -31.4711  -12.3828   19.1398 H   0  0  0  0  0  0
  -30.3594  -11.3487   19.9894 H   0  0  0  0  0  0
  -29.7211  -11.4396   17.6172 H   0  0  0  0  0  0
  -29.7349  -13.1639   17.5759 H   0  0  0  0  0  0
  -27.7589  -11.2648   18.8420 H   0  0  0  0  0  0
  -27.4032  -12.5743   17.7507 H   0  0  0  0  0  0
  -27.6114  -14.2103   19.4419 H   0  0  0  0  0  0
  -28.6854  -12.1690   21.4430 H   0  0  0  0  0  0
  -28.4816  -13.8857   21.7161 H   0  0  0  0  0  0
  -25.2711   -9.5703   22.4788 H   0  0  0  0  0  0
  -23.9969   -7.4637   22.7426 H   0  0  0  0  0  0
  -21.0846   -8.8767   19.8904 H   0  0  0  0  0  0
  -22.3690  -10.9666   19.6097 H   0  0  0  0  0  0
  -21.2070   -7.6130   23.9729 H   0  0  0  0  0  0
  -21.1482   -6.0490   25.9068 H   0  0  0  0  0  0
  -22.0598   -2.7618   23.2762 H   0  0  0  0  0  0
  -22.4011  -11.9940   22.4877 H   0  0  0  0  0  0
  -21.1012  -13.1281   22.2492 H   0  0  0  0  0  0
  -24.6718  -15.8449   20.5376 H   0  0  0  0  0  0
  -26.3101  -15.6198   20.1704 H   0  0  0  0  0  0
  -26.7126  -32.5439   23.1140 H   0  0  0  0  0  0
  -25.0134  -33.9812   25.0456 H   0  0  0  0  0  0
  -22.6962  -31.3043   21.3907 H   0  0  0  0  0  0
  -23.3815  -35.9523   23.3217 H   0  0  0  0  0  0
  -24.3587  -36.8990   22.2074 H   0  0  0  0  0  0
  -23.7147  -37.6390   23.6735 H   0  0  0  0  0  0
  -26.0718  -31.5981   20.6130 H   0  0  0  0  0  0
  -26.8127  -30.8486   22.0015 H   0  0  0  0  0  0
  -28.1078  -29.1063   21.1144 H   0  0  0  0  0  0
  -25.9957  -25.9067   19.1119 H   0  0  0  0  0  0
  -23.9555  -27.2477   19.1109 H   0  0  0  0  0  0
  -23.7121  -30.5644   19.3873 H   0  0  0  0  0  0
  -22.7378  -29.2148   19.8765 H   0  0  0  0  0  0
  -25.1290  -36.1925   25.0810 H   0  0  0  0  0  0
  -20.9934  -28.3306   24.1400 H   0  0  0  0  0  0
  -20.5677  -26.2320   23.3593 H   0  0  0  0  0  0
  -21.6632  -26.7504   22.1191 H   0  0  0  0  0  0
  -19.6919  -25.6314   21.1232 H   0  0  0  0  0  0
  -19.6688  -27.3209   20.6716 H   0  0  0  0  0  0
  -17.4185  -26.6705   21.4006 H   0  0  0  0  0  0
  -18.0344  -26.0087   22.8996 H   0  0  0  0  0  0
  -19.7949  -30.7325   24.2170 H   0  0  0  0  0  0
  -17.5041  -31.6276   24.5234 H   0  0  0  0  0  0
  -15.5367  -30.3024   23.7733 H   0  0  0  0  0  0
  -15.8651  -28.0888   22.7065 H   0  0  0  0  0  0
  -24.5913  -30.7111   25.7787 H   0  0  0  0  0  0
  -24.9048  -32.2860   26.5051 H   0  0  0  0  0  0
  -25.8153  -30.8754   27.0174 H   0  0  0  0  0  0
  -26.2967  -29.6720   24.1347 H   0  0  0  0  0  0
  -27.4129  -29.7403   25.4789 H   0  0  0  0  0  0
  -27.8809  -30.4322   23.9443 H   0  0  0  0  0  0
  -27.2674  -33.3672   26.2080 H   0  0  0  0  0  0
  -28.3878  -32.6919   25.0333 H   0  0  0  0  0  0
  -28.0723  -31.8496   26.5423 H   0  0  0  0  0  0
  -28.2490  -38.0160   24.7724 H   0  0  0  0  0  0
  -28.1225  -36.2713   24.6026 H   0  0  0  0  0  0
  -27.2334  -37.1100   25.8839 H   0  0  0  0  0  0
  -20.9289  -29.8695   21.6799 H   0  0  0  0  0  0
  -26.0142  -38.2823   24.1626 H   0  0  0  0  0  0
  -30.4889  -24.6851   21.2347 H   0  0  0  0  0  0
  -30.6899  -22.4799   22.3437 H   0  0  0  0  0  0
  -26.9260  -23.3821   19.2373 H   0  0  0  0  0  0
  -30.5733  -16.8331   17.2715 H   0  0  0  0  0  0
  -29.3501  -17.9038   17.9317 H   0  0  0  0  0  0
  -28.0545  -19.7331   18.7985 H   0  0  0  0  0  0
  -26.6831  -18.7544   19.5443 H   0  0  0  0  0  0
  -25.0747  -20.4319   18.8326 H   0  0  0  0  0  0
  -26.4078  -21.4680   18.0964 H   0  0  0  0  0  0
  -31.1702  -18.7179   19.1876 H   0  0  0  0  0  0
  -32.0667  -17.2360   18.9640 H   0  0  0  0  0  0
  -29.3472  -15.1216   18.2223 H   0  0  0  0  0  0
  -28.3177  -16.2513   19.0689 H   0  0  0  0  0  0
  -26.1186  -20.7291   21.0913 H   0  0  0  0  0  0
  -31.4697  -16.9073   21.1982 H   0  0  0  0  0  0
  -28.1021  -19.7804   22.2406 H   0  0  0  0  0  0
  -29.4242  -20.4231   23.1530 H   0  0  0  0  0  0
  -27.9597  -25.4275   18.5107 H   0  0  0  0  0  0
  -29.6154  -25.6101   18.8874 H   0  0  0  0  0  0
  -29.3924  -17.5122   22.2926 H   0  0  0  0  0  0
  -28.6266  -17.9456   20.7869 H   0  0  0  0  0  0
  -30.9119  -19.3974   21.9337 H   0  0  0  0  0  0
  -30.1640  -19.7360   20.5318 H   0  0  0  0  0  0
  1 25  1  0  0  0
  1 30  2  0  0  0
  1 87  1  0  0  0
  2  3  1  0  0  0
  2 25  1  0  0  0
  2 89  1  0  0  0
  2 90  1  0  0  0
  3  4  1  0  0  0
  3 91  1  0  0  0
  3 92  1  0  0  0
  4  5  1  0  0  0
  4 93  1  0  0  0
  4 94  1  0  0  0
  5  6  1  0  0  0
  5 26  1  0  0  0
  5 95  1  0  0  0
  6 25  1  0  0  0
  6 96  1  0  0  0
  6 97  1  0  0  0
  7  8  2  0  0  0
  7 26  1  0  0  0
  7 29  1  0  0  0
  8  9  1  0  0  0
  8 22  1  0  0  0
  9 10  1  0  0  0
  9 27  2  0  0  0
 10 11  2  0  0  0
 10 15  1  0  0  0
 11 12  1  0  0  0
 11 98  1  0  0  0
 12 13  2  0  0  0
 12 99  1  0  0  0
 13 14  1  0  0  0
 13 31  1  0  0  0
 14 15  2  0  0  0
 14100  1  0  0  0
 15101  1  0  0  0
 16 17  2  0  0  0
 16 21  1  0  0  0
 16 31  1  0  0  0
 17 18  1  0  0  0
 17102  1  0  0  0
 18 19  2  0  0  0
 18103  1  0  0  0
 19 20  1  0  0  0
 19 24  1  0  0  0
 20 21  2  0  0  0
 20104  1  0  0  0
 21 23  1  0  0  0
 22 28  1  0  0  0
 22 32  2  0  0  0
 26 27  1  0  0  0
 28105  1  0  0  0
 28106  1  0  0  0
 29107  1  0  0  0
 29108  1  0  0  0
 33 34  1  0  0  0
 33 66  1  0  0  0
 33 70  2  0  0  0
 34 36  1  0  0  0
 34 59  1  0  0  0
 34109  1  0  0  0
 35 44  2  0  0  0
 35 45  1  0  0  0
 35 68  1  0  0  0
 36 56  1  0  0  0
 36110  1  0  0  0
 37 39  1  0  0  0
 37 47  1  0  0  0
 37 66  1  0  0  0
 37111  1  0  0  0
 38 43  2  0  0  0
 38 46  1  0  0  0
 38 47  1  0  0  0
 39 64  1  0  0  0
 39 67  2  0  0  0
 40 52  1  0  0  0
 40 53  2  0  0  0
 40 58  1  0  0  0
 41112  1  0  0  0
 41113  1  0  0  0
 41114  1  0  0  0
 41 48  1  0  0  0
 42 43  1  0  0  0
 42 66  1  0  0  0
 42115  1  0  0  0
 42116  1  0  0  0
 43 44  1  0  0  0
 44117  1  0  0  0
 45 46  2  0  0  0
 45118  1  0  0  0
 46119  1  0  0  0
 47120  1  0  0  0
 47121  1  0  0  0
 48 56  1  0  0  0
 48 65  1  0  0  0
 48122  1  0  0  0
 49 50  1  0  0  0
 49 53  1  0  0  0
 49 64  1  0  0  0
 49123  1  0  0  0
 50 51  1  0  0  0
 50124  1  0  0  0
 50125  1  0  0  0
 51 52  1  0  0  0
 51126  1  0  0  0
 51127  1  0  0  0
 52128  1  0  0  0
 52129  1  0  0  0
 53 54  1  0  0  0
 54 55  2  0  0  0
 54130  1  0  0  0
 55 57  1  0  0  0
 55131  1  0  0  0
 56 69  2  0  0  0
 57 58  2  0  0  0
 57132  1  0  0  0
 58133  1  0  0  0
 59 60  1  0  0  0
 59 61  1  0  0  0
 59 62  1  0  0  0
 60134  1  0  0  0
 60135  1  0  0  0
 60136  1  0  0  0
 61137  1  0  0  0
 61138  1  0  0  0
 61139  1  0  0  0
 62140  1  0  0  0
 62141  1  0  0  0
 62142  1  0  0  0
 63 65  1  0  0  0
 63143  1  0  0  0
 63144  1  0  0  0
 63145  1  0  0  0
 64146  1  0  0  0
 65147  1  0  0  0
 68 85  1  0  0  0
 71 72  2  0  0  0
 71 75  1  0  0  0
 71148  1  0  0  0
 72 76  1  0  0  0
 72149  1  0  0  0
 73 74  1  0  0  0
 73 75  2  0  0  0
 73150  1  0  0  0
 74 76  2  0  0  0
 74 82  1  0  0  0
 75 85  1  0  0  0
 76 84  1  0  0  0
 77 80  1  0  0  0
 77 81  1  0  0  0
 77151  1  0  0  0
 77152  1  0  0  0
 78 79  1  0  0  0
 78 82  1  0  0  0
 78153  1  0  0  0
 78154  1  0  0  0
 79 82  1  0  0  0
 79155  1  0  0  0
 79156  1  0  0  0
 80 83  1  0  0  0
 80157  1  0  0  0
 80158  1  0  0  0
 81 87  1  0  0  0
 81159  1  0  0  0
 81160  1  0  0  0
 82161  1  0  0  0
 83 86  1  0  0  0
 83 87  1  0  0  0
 83162  1  0  0  0
 84 88  1  0  0  0
 84163  1  0  0  0
 84164  1  0  0  0
 85165  1  0  0  0
 85166  1  0  0  0
 86 88  1  0  0  0
 86167  1  0  0  0
 86168  1  0  0  0
 88169  1  0  0  0
 88170  1  0  0  0
M  CHG  1  88   1
M  ISO  4   1 100  68 101  85 101  87 100
M  END
> <chiral flag>
0

> <version>
0

> <s_m_source_file>
/data/baiqing/PycharmProjects/Reinvent-master-3.2/result/LINK_invent/BTK/process_docking_weight1_custom_sum_contain_oxygen_bond_distance_aromatic_linkinvent_7_9_3/rearranged_h_0137.sdf

> <i_m_source_file_index>
96

> <r_mmod_Potential_Energy-OPLS-2005>
113.040107727051

> <r_mmod_Stretch_Energy-OPLS-2005>
46.0320854187012

> <r_mmod_Bend_Energy-OPLS-2005>
140.180160522461

> <r_mmod_Torsional_Energy-OPLS-2005>
403.583557128906

> <r_mmod_Improper_Torsional_Energy-OPLS-2005>
12.2700157165527

> <r_mmod_Van_der_Waal_Energy-OPLS-2005>
140.424499511719

> <r_mmod_Electrostatic_Energy-OPLS-2005>
-223.156982421875

> <r_mmod_Solvation_Energy-OPLS-2005>
-452.180755615234

> <b_mmod_Minimization_Converged-OPLS-2005>
0

> <r_mmod_RMS_Derivative-OPLS-2005>
4.8619556427002

$$$$
97
                    3D
 Structure written by MMmdl.
170180  0  0  1  0            999 V2000
  -30.5633  -15.0368   20.3909 C   0  0  0  0  0  0
  -30.4306  -12.6582   19.4855 C   0  0  0  0  0  0
  -29.5120  -12.5327   18.2506 C   0  0  0  0  0  0
  -28.0520  -12.2924   18.6796 C   0  0  0  0  0  0
  -27.6132  -13.2396   19.8249 C   0  0  2  0  0  0
  -28.6659  -13.3580   20.9494 C   0  0  0  0  0  0
  -25.2392  -13.8152   20.5748 C   0  0  0  0  0  0
  -24.1734  -13.0379   20.9285 C   0  0  0  0  0  0
  -24.6358  -11.6875   20.8800 C   0  0  0  0  0  0
  -23.9052  -10.4255   21.0426 C   0  0  0  0  0  0
  -24.3606   -9.4175   21.9200 C   0  0  0  0  0  0
  -23.6295   -8.2211   22.0754 C   0  0  0  0  0  0
  -22.4283   -8.0256   21.3535 C   0  0  0  0  0  0
  -21.9914   -9.0225   20.4635 C   0  0  0  0  0  0
  -22.7230  -10.2112   20.3055 C   0  0  0  0  0  0
  -21.6837   -6.0726   22.5285 C   0  0  0  0  0  0
  -21.3993   -6.5634   23.8221 C   0  0  0  0  0  0
  -21.3663   -5.6795   24.9193 C   0  0  0  0  0  0
  -21.6057   -4.3053   24.7231 C   0  0  0  0  0  0
  -21.8821   -3.8137   23.4358 C   0  0  0  0  0  0
  -21.9188   -4.6956   22.3409 C   0  0  0  0  0  0
  -22.7760  -13.5172   21.1911 C   0  0  0  0  0  0
  -22.1653   -4.2137   21.0988 F   0  0  0  0  0  0
  -21.5646   -3.4542   25.7744 F   0  0  0  0  0  0
  -29.9218  -13.7905   20.3184 N   0  0  0  0  0  0
  -26.2814  -12.9368   20.3269 N   0  0  0  0  0  0
  -25.9286  -11.6516   20.5782 N   0  0  0  0  0  0
  -22.0372  -12.8196   22.0460 N   0  0  0  0  0  0
  -25.3970  -15.1875   20.4127 N   0  0  0  0  0  0
  -31.7902  -15.0071   20.2417 O   0  0  0  0  0  0
  -21.6633   -6.8859   21.4246 O   0  0  0  0  0  0
  -22.3469  -14.5471   20.6716 O   0  0  0  0  0  0
  -24.6476  -31.8399   23.1834 C   0  0  0  0  0  0
  -25.9226  -32.4679   23.8245 C   0  0  1  0  0  0
  -27.2253  -27.0953   20.1609 C   0  0  0  0  0  0
  -25.5956  -33.8485   24.2165 N   0  0  0  0  0  0
  -23.4543  -30.4560   21.5310 C   0  0  2  0  0  0
  -24.9053  -28.8726   20.1121 C   0  0  0  0  0  0
  -22.7597  -29.4528   22.4868 C   0  0  0  0  0  0
  -18.0308  -28.1393   22.8477 C   0  0  0  0  0  0
  -24.1487  -36.7249   23.2644 C   0  0  0  0  0  0
  -26.0117  -30.7007   21.3877 C   0  0  0  0  0  0
  -26.0839  -29.3065   20.7323 C   0  0  0  0  0  0
  -27.2431  -28.4353   20.7373 C   0  0  0  0  0  0
  -26.0182  -26.7732   19.5001 C   0  0  0  0  0  0
  -24.8879  -27.6214   19.4783 C   0  0  0  0  0  0
  -23.6819  -29.7770   20.1538 C   0  0  0  0  0  0
  -25.4126  -36.3027   24.0312 C   0  0  1  0  0  0
  -20.5923  -28.3724   23.1237 C   0  0  2  0  0  0
  -20.6787  -26.9426   22.5408 C   0  0  0  0  0  0
  -19.5763  -26.6373   21.5217 C   0  0  0  0  0  0
  -18.1942  -26.7934   22.1617 C   0  0  0  0  0  0
  -19.1564  -28.8878   23.2845 C   0  0  0  0  0  0
  -18.9479  -30.1477   23.8865 C   0  0  0  0  0  0
  -17.6473  -30.6596   24.0549 C   0  0  0  0  0  0
  -25.9079  -34.9401   23.5049 C   0  0  0  0  0  0
  -16.5362  -29.9076   23.6347 C   0  0  0  0  0  0
  -16.7288  -28.6496   23.0370 C   0  0  0  0  0  0
  -26.4516  -31.6566   25.0711 C   0  0  0  0  0  0
  -25.3668  -31.3772   26.1386 C   0  0  0  0  0  0
  -27.0380  -30.2963   24.6307 C   0  0  0  0  0  0
  -27.6046  -32.4329   25.7502 C   0  0  0  0  0  0
  -27.5579  -37.1787   24.8464 C   0  0  0  0  0  0
  -21.4288  -29.3050   22.3621 N   0  0  0  0  0  0
  -26.4285  -37.3752   23.9405 N   0  0  0  0  0  0
  -24.7246  -31.0209   22.0894 N   0  0  0  0  0  0
  -23.4221  -28.8082   23.3044 O   0  0  0  0  0  0
  -28.2744  -26.0900   20.2305 O   0  0  0  0  0  0
  -26.5674  -34.8905   22.4631 O   0  0  0  0  0  0
  -23.5582  -32.1291   23.7037 O   0  0  0  0  0  0
  -33.7581  -20.7503   20.8715 C   0  0  0  0  0  0
  -34.5118  -20.3337   19.7613 C   0  0  0  0  0  0
  -32.3825  -21.0137   20.7281 C   0  0  0  0  0  0
  -33.8905  -20.1939   18.5069 C   0  0  0  0  0  0
  -31.7384  -20.8537   19.4767 C   0  0  0  0  0  0
  -32.5126  -20.4612   18.3515 C   0  0  0  0  0  0
  -28.3726  -18.1952   19.6422 C   0  0  0  0  0  0
  -29.8873  -22.6723   19.2419 C   0  0  0  0  0  0
  -28.5459  -16.6424   19.9201 C   0  0  0  0  0  0
  -30.4339  -17.7665   20.6579 C   0  0  0  0  0  0
  -28.4225  -21.6352   20.7657 C   0  0  0  0  0  0
  -30.2321  -21.1186   19.3658 C   0  0  2  0  0  0
  -28.9636  -23.1563   20.4025 C   0  0  2  0  0  0
  -29.2683  -18.9369   20.6381 C   0  0  1  0  0  0
  -31.9084  -20.3424   16.9604 C   0  0  0  0  0  0
  -27.9803  -24.5423   20.1478 C   0  0  0  0  0  0
  -29.8868  -16.3177   20.4601 N   0  0  0  0  0  0
  -29.4964  -20.5320   20.5170 N   0  3  2  0  0  0
  -31.4572  -12.8258   19.1574 H   0  0  0  0  0  0
  -30.4468  -11.7290   20.0571 H   0  0  0  0  0  0
  -29.8542  -11.7244   17.6026 H   0  0  0  0  0  0
  -29.5750  -13.4452   17.6565 H   0  0  0  0  0  0
  -27.9709  -11.2559   19.0092 H   0  0  0  0  0  0
  -27.3831  -12.3895   17.8228 H   0  0  0  0  0  0
  -27.5270  -14.2083   19.3472 H   0  0  0  0  0  0
  -28.7946  -12.4112   21.4762 H   0  0  0  0  0  0
  -28.3518  -14.0914   21.6927 H   0  0  0  0  0  0
  -25.2732   -9.5676   22.4811 H   0  0  0  0  0  0
  -23.9991   -7.4607   22.7483 H   0  0  0  0  0  0
  -21.0839   -8.8732   19.8957 H   0  0  0  0  0  0
  -22.3654  -10.9660   19.6180 H   0  0  0  0  0  0
  -21.1956   -7.6138   23.9725 H   0  0  0  0  0  0
  -21.1495   -6.0517   25.9099 H   0  0  0  0  0  0
  -22.0593   -2.7597   23.2859 H   0  0  0  0  0  0
  -22.3925  -11.9850   22.4897 H   0  0  0  0  0  0
  -21.0989  -13.1248   22.2594 H   0  0  0  0  0  0
  -24.6292  -15.8358   20.5497 H   0  0  0  0  0  0
  -26.2383  -15.6350   20.0755 H   0  0  0  0  0  0
  -26.7296  -32.5269   23.0978 H   0  0  0  0  0  0
  -25.0066  -33.9584   25.0289 H   0  0  0  0  0  0
  -22.7585  -31.2821   21.3716 H   0  0  0  0  0  0
  -23.3760  -35.9566   23.3275 H   0  0  0  0  0  0
  -24.3584  -36.8912   22.2067 H   0  0  0  0  0  0
  -23.7214  -37.6424   23.6697 H   0  0  0  0  0  0
  -26.1656  -31.4494   20.6101 H   0  0  0  0  0  0
  -26.8828  -30.7583   22.0288 H   0  0  0  0  0  0
  -28.1382  -28.7629   21.2462 H   0  0  0  0  0  0
  -25.9100  -25.8178   19.0084 H   0  0  0  0  0  0
  -23.9896  -27.2857   18.9773 H   0  0  0  0  0  0
  -23.8139  -30.5451   19.3906 H   0  0  0  0  0  0
  -22.7970  -29.2137   19.8518 H   0  0  0  0  0  0
  -25.1319  -36.1850   25.0805 H   0  0  0  0  0  0
  -20.9992  -28.3294   24.1368 H   0  0  0  0  0  0
  -20.5675  -26.2341   23.3631 H   0  0  0  0  0  0
  -21.6650  -26.7434   22.1205 H   0  0  0  0  0  0
  -19.6919  -25.6272   21.1276 H   0  0  0  0  0  0
  -19.6700  -27.3157   20.6725 H   0  0  0  0  0  0
  -17.4225  -26.6705   21.4005 H   0  0  0  0  0  0
  -18.0318  -26.0072   22.9004 H   0  0  0  0  0  0
  -19.7954  -30.7306   24.2215 H   0  0  0  0  0  0
  -17.5026  -31.6283   24.5131 H   0  0  0  0  0  0
  -15.5358  -30.2966   23.7688 H   0  0  0  0  0  0
  -15.8692  -28.0793   22.7111 H   0  0  0  0  0  0
  -24.5875  -30.7096   25.7700 H   0  0  0  0  0  0
  -24.8813  -32.2947   26.4716 H   0  0  0  0  0  0
  -25.7920  -30.9013   27.0229 H   0  0  0  0  0  0
  -26.3004  -29.6696   24.1289 H   0  0  0  0  0  0
  -27.3955  -29.7268   25.4894 H   0  0  0  0  0  0
  -27.8919  -30.4206   23.9651 H   0  0  0  0  0  0
  -27.2648  -33.3652   26.2028 H   0  0  0  0  0  0
  -28.3887  -32.6854   25.0351 H   0  0  0  0  0  0
  -28.0673  -31.8478   26.5463 H   0  0  0  0  0  0
  -28.2583  -38.0102   24.7534 H   0  0  0  0  0  0
  -28.1084  -36.2631   24.6252 H   0  0  0  0  0  0
  -27.2304  -37.1390   25.8870 H   0  0  0  0  0  0
  -20.9509  -29.8773   21.6803 H   0  0  0  0  0  0
  -26.0144  -38.2814   24.1408 H   0  0  0  0  0  0
  -34.2364  -20.8673   21.8344 H   0  0  0  0  0  0
  -35.5678  -20.1281   19.8701 H   0  0  0  0  0  0
  -31.8345  -21.3391   21.6012 H   0  0  0  0  0  0
  -34.4862  -19.8840   17.6593 H   0  0  0  0  0  0
  -27.3305  -18.5099   19.7127 H   0  0  0  0  0  0
  -28.7015  -18.4148   18.6257 H   0  0  0  0  0  0
  -29.3745  -22.8275   18.2923 H   0  0  0  0  0  0
  -30.7914  -23.2801   19.1868 H   0  0  0  0  0  0
  -28.3758  -16.1057   18.9888 H   0  0  0  0  0  0
  -27.8121  -16.3157   20.6541 H   0  0  0  0  0  0
  -31.0104  -17.8143   21.5811 H   0  0  0  0  0  0
  -31.1403  -17.9564   19.8495 H   0  0  0  0  0  0
  -27.5597  -21.4110   20.1373 H   0  0  0  0  0  0
  -28.0710  -21.5938   21.7970 H   0  0  0  0  0  0
  -29.8329  -20.6178   18.4845 H   0  0  0  0  0  0
  -29.6179  -23.4223   21.2332 H   0  0  0  0  0  0
  -28.7730  -18.8459   21.6059 H   0  0  0  0  0  0
  -32.6819  -20.2187   16.2013 H   0  0  0  0  0  0
  -31.3512  -21.2430   16.7017 H   0  0  0  0  0  0
  -31.2389  -19.4842   16.8954 H   0  0  0  0  0  0
  -27.1484  -24.4089   20.8406 H   0  0  0  0  0  0
  -27.5408  -24.3866   19.1637 H   0  0  0  0  0  0
  -30.1392  -20.6954   21.2767 H   0  0  0  0  0  0
  1 25  1  0  0  0
  1 30  2  0  0  0
  1 87  1  0  0  0
  2  3  1  0  0  0
  2 25  1  0  0  0
  2 89  1  0  0  0
  2 90  1  0  0  0
  3  4  1  0  0  0
  3 91  1  0  0  0
  3 92  1  0  0  0
  4  5  1  0  0  0
  4 93  1  0  0  0
  4 94  1  0  0  0
  5  6  1  0  0  0
  5 26  1  0  0  0
  5 95  1  0  0  0
  6 25  1  0  0  0
  6 96  1  0  0  0
  6 97  1  0  0  0
  7  8  2  0  0  0
  7 26  1  0  0  0
  7 29  1  0  0  0
  8  9  1  0  0  0
  8 22  1  0  0  0
  9 10  1  0  0  0
  9 27  2  0  0  0
 10 11  2  0  0  0
 10 15  1  0  0  0
 11 12  1  0  0  0
 11 98  1  0  0  0
 12 13  2  0  0  0
 12 99  1  0  0  0
 13 14  1  0  0  0
 13 31  1  0  0  0
 14 15  2  0  0  0
 14100  1  0  0  0
 15101  1  0  0  0
 16 17  2  0  0  0
 16 21  1  0  0  0
 16 31  1  0  0  0
 17 18  1  0  0  0
 17102  1  0  0  0
 18 19  2  0  0  0
 18103  1  0  0  0
 19 20  1  0  0  0
 19 24  1  0  0  0
 20 21  2  0  0  0
 20104  1  0  0  0
 21 23  1  0  0  0
 22 28  1  0  0  0
 22 32  2  0  0  0
 26 27  1  0  0  0
 28105  1  0  0  0
 28106  1  0  0  0
 29107  1  0  0  0
 29108  1  0  0  0
 33 34  1  0  0  0
 33 66  1  0  0  0
 33 70  2  0  0  0
 34 36  1  0  0  0
 34 59  1  0  0  0
 34109  1  0  0  0
 35 44  2  0  0  0
 35 45  1  0  0  0
 35 68  1  0  0  0
 36 56  1  0  0  0
 36110  1  0  0  0
 37 39  1  0  0  0
 37 47  1  0  0  0
 37 66  1  0  0  0
 37111  1  0  0  0
 38 43  2  0  0  0
 38 46  1  0  0  0
 38 47  1  0  0  0
 39 64  1  0  0  0
 39 67  2  0  0  0
 40 52  1  0  0  0
 40 53  2  0  0  0
 40 58  1  0  0  0
 41112  1  0  0  0
 41113  1  0  0  0
 41114  1  0  0  0
 41 48  1  0  0  0
 42 43  1  0  0  0
 42 66  1  0  0  0
 42115  1  0  0  0
 42116  1  0  0  0
 43 44  1  0  0  0
 44117  1  0  0  0
 45 46  2  0  0  0
 45118  1  0  0  0
 46119  1  0  0  0
 47120  1  0  0  0
 47121  1  0  0  0
 48 56  1  0  0  0
 48 65  1  0  0  0
 48122  1  0  0  0
 49 50  1  0  0  0
 49 53  1  0  0  0
 49 64  1  0  0  0
 49123  1  0  0  0
 50 51  1  0  0  0
 50124  1  0  0  0
 50125  1  0  0  0
 51 52  1  0  0  0
 51126  1  0  0  0
 51127  1  0  0  0
 52128  1  0  0  0
 52129  1  0  0  0
 53 54  1  0  0  0
 54 55  2  0  0  0
 54130  1  0  0  0
 55 57  1  0  0  0
 55131  1  0  0  0
 56 69  2  0  0  0
 57 58  2  0  0  0
 57132  1  0  0  0
 58133  1  0  0  0
 59 60  1  0  0  0
 59 61  1  0  0  0
 59 62  1  0  0  0
 60134  1  0  0  0
 60135  1  0  0  0
 60136  1  0  0  0
 61137  1  0  0  0
 61138  1  0  0  0
 61139  1  0  0  0
 62140  1  0  0  0
 62141  1  0  0  0
 62142  1  0  0  0
 63 65  1  0  0  0
 63143  1  0  0  0
 63144  1  0  0  0
 63145  1  0  0  0
 64146  1  0  0  0
 65147  1  0  0  0
 68 86  1  0  0  0
 71 72  2  0  0  0
 71 73  1  0  0  0
 71148  1  0  0  0
 72 74  1  0  0  0
 72149  1  0  0  0
 73 75  2  0  0  0
 73150  1  0  0  0
 74 76  2  0  0  0
 74151  1  0  0  0
 75 76  1  0  0  0
 75 82  1  0  0  0
 76 85  1  0  0  0
 77 79  1  0  0  0
 77152  1  0  0  0
 77153  1  0  0  0
 77 84  1  0  0  0
 78 82  1  0  0  0
 78 83  1  0  0  0
 78154  1  0  0  0
 78155  1  0  0  0
 79 87  1  0  0  0
 79156  1  0  0  0
 79157  1  0  0  0
 80 84  1  0  0  0
 80 87  1  0  0  0
 80158  1  0  0  0
 80159  1  0  0  0
 81 83  1  0  0  0
 81160  1  0  0  0
 81161  1  0  0  0
 81 88  1  0  0  0
 82 88  1  0  0  0
 82162  1  0  0  0
 83 86  1  0  0  0
 83163  1  0  0  0
 84 88  1  0  0  0
 84164  1  0  0  0
 85165  1  0  0  0
 85166  1  0  0  0
 85167  1  0  0  0
 86168  1  0  0  0
 86169  1  0  0  0
 88170  1  0  0  0
M  CHG  1  88   1
M  ISO  4   1 100  68 101  86 101  87 100
M  END
> <chiral flag>
0

> <version>
0

> <s_m_source_file>
/data/baiqing/PycharmProjects/Reinvent-master-3.2/result/LINK_invent/BTK/process_docking_weight1_custom_sum_contain_oxygen_bond_distance_aromatic_linkinvent_7_9_3/rearranged_h_0137.sdf

> <i_m_source_file_index>
97

> <r_mmod_Potential_Energy-OPLS-2005>
763.075256347656

> <r_mmod_Stretch_Energy-OPLS-2005>
287.552154541016

> <r_mmod_Bend_Energy-OPLS-2005>
372.148162841797

> <r_mmod_Torsional_Energy-OPLS-2005>
382.800262451172

> <r_mmod_Improper_Torsional_Energy-OPLS-2005>
4.29072666168213

> <r_mmod_Van_der_Waal_Energy-OPLS-2005>
116.890068054199

> <r_mmod_Electrostatic_Energy-OPLS-2005>
-204.401947021484

> <r_mmod_Solvation_Energy-OPLS-2005>
-444.646667480469

> <b_mmod_Minimization_Converged-OPLS-2005>
0

> <r_mmod_RMS_Derivative-OPLS-2005>
2.16100597381592

$$$$
98
                    3D
 Structure written by MMmdl.
167175  0  0  1  0            999 V2000
  -30.6712  -14.5974   20.5313 C   0  0  0  0  0  0
  -30.4395  -12.3876   19.4252 C   0  0  0  0  0  0
  -29.4892  -12.4716   18.2083 C   0  0  0  0  0  0
  -28.0262  -12.2347   18.6360 C   0  0  0  0  0  0
  -27.6341  -13.1254   19.8355 C   0  0  2  0  0  0
  -28.6979  -13.0344   20.9660 C   0  0  0  0  0  0
  -25.2521  -13.7856   20.5608 C   0  0  0  0  0  0
  -24.1771  -13.0252   20.9228 C   0  0  0  0  0  0
  -24.6287  -11.6718   20.8858 C   0  0  0  0  0  0
  -23.8971  -10.4170   21.0519 C   0  0  0  0  0  0
  -24.3556   -9.4066   21.9248 C   0  0  0  0  0  0
  -23.6225   -8.2115   22.0781 C   0  0  0  0  0  0
  -22.4205   -8.0206   21.3566 C   0  0  0  0  0  0
  -21.9856   -9.0184   20.4661 C   0  0  0  0  0  0
  -22.7190  -10.2049   20.3094 C   0  0  0  0  0  0
  -21.6782   -6.0699   22.5293 C   0  0  0  0  0  0
  -21.3970   -6.5618   23.8224 C   0  0  0  0  0  0
  -21.3647   -5.6768   24.9194 C   0  0  0  0  0  0
  -21.6037   -4.3041   24.7233 C   0  0  0  0  0  0
  -21.8811   -3.8122   23.4362 C   0  0  0  0  0  0
  -21.9170   -4.6946   22.3409 C   0  0  0  0  0  0
  -22.7812  -13.5151   21.1845 C   0  0  0  0  0  0
  -22.1656   -4.2142   21.0988 F   0  0  0  0  0  0
  -21.5647   -3.4518   25.7747 F   0  0  0  0  0  0
  -30.0045  -13.4039   20.4020 N   0  0  0  0  0  0
  -26.2890  -12.8879   20.3268 N   0  0  0  0  0  0
  -25.9165  -11.6166   20.5843 N   0  0  0  0  0  0
  -22.0433  -12.8206   22.0444 N   0  0  0  0  0  0
  -25.4073  -15.1530   20.3829 N   0  0  0  0  0  0
  -31.8566  -14.6922   20.2025 O   0  0  0  0  0  0
  -21.6544   -6.8828   21.4251 O   0  0  0  0  0  0
  -22.3562  -14.5443   20.6634 O   0  0  0  0  0  0
  -24.6326  -31.8713   23.2120 C   0  0  0  0  0  0
  -25.9155  -32.4872   23.8428 C   0  0  1  0  0  0
  -27.2469  -27.4579   20.1031 C   0  0  0  0  0  0
  -25.5956  -33.8652   24.2359 N   0  0  0  0  0  0
  -23.4364  -30.4940   21.5597 C   0  0  2  0  0  0
  -24.8595  -28.9565   20.1259 C   0  0  0  0  0  0
  -22.7741  -29.4830   22.5195 C   0  0  0  0  0  0
  -17.9898  -28.1341   22.8588 C   0  0  0  0  0  0
  -24.1503  -36.7325   23.2635 C   0  0  0  0  0  0
  -25.9453  -30.8534   21.3507 C   0  0  0  0  0  0
  -26.0200  -29.4848   20.7062 C   0  0  0  0  0  0
  -27.2161  -28.7408   20.6891 C   0  0  0  0  0  0
  -26.0693  -26.9365   19.5217 C   0  0  0  0  0  0
  -24.8788  -27.6879   19.5217 C   0  0  0  0  0  0
  -23.6249  -29.8180   20.1739 C   0  0  0  0  0  0
  -25.4123  -36.3121   24.0333 C   0  0  1  0  0  0
  -20.4757  -28.4661   22.7841 C   0  0  2  0  0  0
  -20.6862  -26.9673   22.5578 C   0  0  0  0  0  0
  -19.5685  -26.4603   21.6239 C   0  0  0  0  0  0
  -18.1520  -26.7733   22.1697 C   0  0  0  0  0  0
  -19.1098  -28.9048   23.2530 C   0  0  0  0  0  0
  -18.9310  -30.1486   23.8888 C   0  0  0  0  0  0
  -17.6337  -30.6512   24.0938 C   0  0  0  0  0  0
  -25.9050  -34.9492   23.5143 C   0  0  0  0  0  0
  -16.5163  -29.9046   23.6784 C   0  0  0  0  0  0
  -16.6931  -28.6440   23.0787 C   0  0  0  0  0  0
  -26.4533  -31.6588   25.0719 C   0  0  0  0  0  0
  -25.3789  -31.3661   26.1456 C   0  0  0  0  0  0
  -27.0342  -30.3032   24.6033 C   0  0  0  0  0  0
  -27.6110  -32.4265   25.7511 C   0  0  0  0  0  0
  -27.5583  -37.1814   24.8460 C   0  0  0  0  0  0
  -21.4543  -29.4488   22.3955 N   0  0  0  0  0  0
  -26.4306  -37.3790   23.9399 N   0  0  0  0  0  0
  -24.6918  -31.0817   22.1002 N   0  0  0  0  0  0
  -23.4193  -28.7620   23.2833 O   0  0  0  0  0  0
  -28.4614  -26.8129   20.0569 O   0  0  0  0  0  0
  -26.5586  -34.8928   22.4695 O   0  0  0  0  0  0
  -23.5481  -32.1432   23.7480 O   0  0  0  0  0  0
  -28.3385  -17.5136   20.5832 C   0  0  0  0  0  0
  -28.6235  -16.0367   20.4414 C   0  0  0  0  0  0
  -30.5678  -17.0298   21.2856 C   0  0  0  0  0  0
  -29.7306  -18.1019   20.5402 C   0  0  1  0  0  0
  -29.5205  -20.4399   19.6048 C   0  0  0  0  0  0
  -28.8592  -23.2600   23.2791 C   0  0  0  0  0  0
  -28.3356  -25.0000   21.6629 C   0  0  0  0  0  0
  -27.8081  -22.1642   23.0299 C   0  0  0  0  0  0
  -29.0378  -20.1221   22.1470 C   0  0  0  0  0  0
  -28.5133  -25.3972   20.1840 C   0  0  0  0  0  0
  -29.8358  -19.6242   20.8862 C   0  0  1  0  0  0
  -29.9689  -15.7164   20.9304 N   0  0  0  0  0  0
  -29.2127  -23.8739   21.9934 N   0  0  0  0  0  0
  -28.2415  -21.3477   21.8829 N   0  3  0  0  0  0
  -31.4699  -12.5435   19.0997 H   0  0  0  0  0  0
  -30.4184  -11.3928   19.8744 H   0  0  0  0  0  0
  -29.7843  -11.7462   17.4494 H   0  0  0  0  0  0
  -29.5752  -13.4512   17.7361 H   0  0  0  0  0  0
  -27.9083  -11.1845   18.9053 H   0  0  0  0  0  0
  -27.3510  -12.4146   17.7989 H   0  0  0  0  0  0
  -27.5855  -14.0923   19.3711 H   0  0  0  0  0  0
  -28.7402  -12.0106   21.3421 H   0  0  0  0  0  0
  -28.4408  -13.6418   21.8338 H   0  0  0  0  0  0
  -25.2730   -9.5475   22.4820 H   0  0  0  0  0  0
  -23.9915   -7.4444   22.7451 H   0  0  0  0  0  0
  -21.0808   -8.8687   19.8928 H   0  0  0  0  0  0
  -22.3707  -10.9593   19.6181 H   0  0  0  0  0  0
  -21.1944   -7.6118   23.9732 H   0  0  0  0  0  0
  -21.1497   -6.0505   25.9101 H   0  0  0  0  0  0
  -22.0614   -2.7597   23.2841 H   0  0  0  0  0  0
  -22.4061  -11.9878   22.4849 H   0  0  0  0  0  0
  -21.1046  -13.1250   22.2618 H   0  0  0  0  0  0
  -24.6175  -15.7820   20.4652 H   0  0  0  0  0  0
  -26.2377  -15.6010   20.0220 H   0  0  0  0  0  0
  -26.7241  -32.5578   23.1213 H   0  0  0  0  0  0
  -25.0103  -33.9819   25.0493 H   0  0  0  0  0  0
  -22.7365  -31.3206   21.4141 H   0  0  0  0  0  0
  -23.3749  -35.9666   23.3301 H   0  0  0  0  0  0
  -24.3601  -36.8932   22.2046 H   0  0  0  0  0  0
  -23.7286  -37.6547   23.6645 H   0  0  0  0  0  0
  -26.0445  -31.6209   20.5799 H   0  0  0  0  0  0
  -26.8414  -30.9095   21.9577 H   0  0  0  0  0  0
  -28.1187  -29.1710   21.1030 H   0  0  0  0  0  0
  -26.0550  -25.9774   19.0286 H   0  0  0  0  0  0
  -23.9956  -27.2969   19.0404 H   0  0  0  0  0  0
  -23.7243  -30.5781   19.3975 H   0  0  0  0  0  0
  -22.7517  -29.2217   19.9017 H   0  0  0  0  0  0
  -25.1300  -36.1984   25.0814 H   0  0  0  0  0  0
  -20.1598  -28.6803   21.7628 H   0  0  0  0  0  0
  -20.6452  -26.4447   23.5147 H   0  0  0  0  0  0
  -21.6669  -26.7638   22.1246 H   0  0  0  0  0  0
  -19.6925  -26.9066   20.6348 H   0  0  0  0  0  0
  -19.6786  -25.3862   21.4724 H   0  0  0  0  0  0
  -17.4302  -26.6945   21.3568 H   0  0  0  0  0  0
  -17.8745  -26.0103   22.8967 H   0  0  0  0  0  0
  -19.7889  -30.7474   24.1737 H   0  0  0  0  0  0
  -17.4954  -31.6184   24.5573 H   0  0  0  0  0  0
  -15.5200  -30.2975   23.8310 H   0  0  0  0  0  0
  -15.8232  -28.0785   22.7698 H   0  0  0  0  0  0
  -24.5957  -30.7032   25.7755 H   0  0  0  0  0  0
  -24.9003  -32.2809   26.4952 H   0  0  0  0  0  0
  -25.8143  -30.8774   27.0190 H   0  0  0  0  0  0
  -26.2843  -29.6774   24.1181 H   0  0  0  0  0  0
  -27.4244  -29.7277   25.4440 H   0  0  0  0  0  0
  -27.8621  -30.4360   23.9072 H   0  0  0  0  0  0
  -27.2737  -33.3546   26.2158 H   0  0  0  0  0  0
  -28.3920  -32.6861   25.0334 H   0  0  0  0  0  0
  -28.0792  -31.8336   26.5389 H   0  0  0  0  0  0
  -28.2599  -38.0111   24.7497 H   0  0  0  0  0  0
  -28.1088  -36.2641   24.6300 H   0  0  0  0  0  0
  -27.2295  -37.1467   25.8861 H   0  0  0  0  0  0
  -21.0735  -30.1562   21.7804 H   0  0  0  0  0  0
  -26.0197  -38.2864   24.1384 H   0  0  0  0  0  0
  -27.8349  -17.6632   21.5359 H   0  0  0  0  0  0
  -27.6695  -17.8813   19.8016 H   0  0  0  0  0  0
  -28.5806  -15.8288   19.3753 H   0  0  0  0  0  0
  -27.8642  -15.5087   21.0052 H   0  0  0  0  0  0
  -30.4877  -17.1554   22.3661 H   0  0  0  0  0  0
  -31.6235  -17.1097   21.0224 H   0  0  0  0  0  0
  -30.0658  -18.0043   19.5045 H   0  0  0  0  0  0
  -30.1868  -20.1678   18.7841 H   0  0  0  0  0  0
  -29.6538  -21.5135   19.7473 H   0  0  0  0  0  0
  -28.4992  -20.2633   19.2577 H   0  0  0  0  0  0
  -29.7461  -22.8215   23.7368 H   0  0  0  0  0  0
  -28.4789  -24.0109   23.9751 H   0  0  0  0  0  0
  -28.5817  -25.8505   22.3111 H   0  0  0  0  0  0
  -27.2875  -24.7721   21.8608 H   0  0  0  0  0  0
  -26.8565  -22.6298   22.7637 H   0  0  0  0  0  0
  -27.6090  -21.5566   23.9129 H   0  0  0  0  0  0
  -29.7363  -20.2873   22.9688 H   0  0  0  0  0  0
  -28.3363  -19.3868   22.5320 H   0  0  0  0  0  0
  -29.4906  -25.0849   19.8008 H   0  0  0  0  0  0
  -27.7904  -24.8841   19.5488 H   0  0  0  0  0  0
  -30.8871  -19.8250   21.0988 H   0  0  0  0  0  0
  -30.1619  -24.2413   22.0618 H   0  0  0  0  0  0
  -28.7971  -22.0169   21.3598 H   0  0  0  0  0  0
  -27.4286  -21.1147   21.3338 H   0  0  0  0  0  0
  1 25  1  0  0  0
  1 30  2  0  0  0
  1 82  1  0  0  0
  2  3  1  0  0  0
  2 25  1  0  0  0
  2 85  1  0  0  0
  2 86  1  0  0  0
  3  4  1  0  0  0
  3 87  1  0  0  0
  3 88  1  0  0  0
  4  5  1  0  0  0
  4 89  1  0  0  0
  4 90  1  0  0  0
  5  6  1  0  0  0
  5 26  1  0  0  0
  5 91  1  0  0  0
  6 25  1  0  0  0
  6 92  1  0  0  0
  6 93  1  0  0  0
  7  8  2  0  0  0
  7 26  1  0  0  0
  7 29  1  0  0  0
  8  9  1  0  0  0
  8 22  1  0  0  0
  9 10  1  0  0  0
  9 27  2  0  0  0
 10 11  2  0  0  0
 10 15  1  0  0  0
 11 12  1  0  0  0
 11 94  1  0  0  0
 12 13  2  0  0  0
 12 95  1  0  0  0
 13 14  1  0  0  0
 13 31  1  0  0  0
 14 15  2  0  0  0
 14 96  1  0  0  0
 15 97  1  0  0  0
 16 17  2  0  0  0
 16 21  1  0  0  0
 16 31  1  0  0  0
 17 18  1  0  0  0
 17 98  1  0  0  0
 18 19  2  0  0  0
 18 99  1  0  0  0
 19 20  1  0  0  0
 19 24  1  0  0  0
 20 21  2  0  0  0
 20100  1  0  0  0
 21 23  1  0  0  0
 22 28  1  0  0  0
 22 32  2  0  0  0
 26 27  1  0  0  0
 28101  1  0  0  0
 28102  1  0  0  0
 29103  1  0  0  0
 29104  1  0  0  0
 33 34  1  0  0  0
 33 66  1  0  0  0
 33 70  2  0  0  0
 34 36  1  0  0  0
 34 59  1  0  0  0
 34105  1  0  0  0
 35 44  2  0  0  0
 35 45  1  0  0  0
 35 68  1  0  0  0
 36 56  1  0  0  0
 36106  1  0  0  0
 37 39  1  0  0  0
 37 47  1  0  0  0
 37 66  1  0  0  0
 37107  1  0  0  0
 38 43  2  0  0  0
 38 46  1  0  0  0
 38 47  1  0  0  0
 39 64  1  0  0  0
 39 67  2  0  0  0
 40 52  1  0  0  0
 40 53  2  0  0  0
 40 58  1  0  0  0
 41108  1  0  0  0
 41109  1  0  0  0
 41110  1  0  0  0
 41 48  1  0  0  0
 42 43  1  0  0  0
 42 66  1  0  0  0
 42111  1  0  0  0
 42112  1  0  0  0
 43 44  1  0  0  0
 44113  1  0  0  0
 45 46  2  0  0  0
 45114  1  0  0  0
 46115  1  0  0  0
 47116  1  0  0  0
 47117  1  0  0  0
 48 56  1  0  0  0
 48 65  1  0  0  0
 48118  1  0  0  0
 49 50  1  0  0  0
 49 53  1  0  0  0
 49 64  1  0  0  0
 49119  1  0  0  0
 50 51  1  0  0  0
 50120  1  0  0  0
 50121  1  0  0  0
 51 52  1  0  0  0
 51122  1  0  0  0
 51123  1  0  0  0
 52124  1  0  0  0
 52125  1  0  0  0
 53 54  1  0  0  0
 54 55  2  0  0  0
 54126  1  0  0  0
 55 57  1  0  0  0
 55127  1  0  0  0
 56 69  2  0  0  0
 57 58  2  0  0  0
 57128  1  0  0  0
 58129  1  0  0  0
 59 60  1  0  0  0
 59 61  1  0  0  0
 59 62  1  0  0  0
 60130  1  0  0  0
 60131  1  0  0  0
 60132  1  0  0  0
 61133  1  0  0  0
 61134  1  0  0  0
 61135  1  0  0  0
 62136  1  0  0  0
 62137  1  0  0  0
 62138  1  0  0  0
 63 65  1  0  0  0
 63139  1  0  0  0
 63140  1  0  0  0
 63141  1  0  0  0
 64142  1  0  0  0
 65143  1  0  0  0
 68 80  1  0  0  0
 71 72  1  0  0  0
 71144  1  0  0  0
 71145  1  0  0  0
 71 74  1  0  0  0
 72 82  1  0  0  0
 72146  1  0  0  0
 72147  1  0  0  0
 73 74  1  0  0  0
 73 82  1  0  0  0
 73148  1  0  0  0
 73149  1  0  0  0
 74 81  1  0  0  0
 74150  1  0  0  0
 75151  1  0  0  0
 75152  1  0  0  0
 75153  1  0  0  0
 75 81  1  0  0  0
 76 78  1  0  0  0
 76 83  1  0  0  0
 76154  1  0  0  0
 76155  1  0  0  0
 77 80  1  0  0  0
 77 83  1  0  0  0
 77156  1  0  0  0
 77157  1  0  0  0
 78 84  1  0  0  0
 78158  1  0  0  0
 78159  1  0  0  0
 79 81  1  0  0  0
 79 84  1  0  0  0
 79160  1  0  0  0
 79161  1  0  0  0
 80162  1  0  0  0
 80163  1  0  0  0
 81164  1  0  0  0
 83165  1  0  0  0
 84166  1  0  0  0
 84167  1  0  0  0
M  CHG  1  84   1
M  ISO  4   1 100  68 101  80 101  82 100
M  END
> <chiral flag>
0

> <version>
0

> <s_m_source_file>
/data/baiqing/PycharmProjects/Reinvent-master-3.2/result/LINK_invent/BTK/process_docking_weight1_custom_sum_contain_oxygen_bond_distance_aromatic_linkinvent_7_9_3/rearranged_h_0137.sdf

> <i_m_source_file_index>
98

> <r_mmod_Potential_Energy-OPLS-2005>
269.899444580078

> <r_mmod_Stretch_Energy-OPLS-2005>
42.2999076843262

> <r_mmod_Bend_Energy-OPLS-2005>
268.772399902344

> <r_mmod_Torsional_Energy-OPLS-2005>
375.185180664062

> <r_mmod_Improper_Torsional_Energy-OPLS-2005>
6.6839165687561

> <r_mmod_Van_der_Waal_Energy-OPLS-2005>
172.452560424805

> <r_mmod_Electrostatic_Energy-OPLS-2005>
-209.670486450195

> <r_mmod_Solvation_Energy-OPLS-2005>
-436.389007568359

> <b_mmod_Minimization_Converged-OPLS-2005>
0

> <r_mmod_RMS_Derivative-OPLS-2005>
6.71024179458618

$$$$
