0
                    3D
 Structure written by MMmdl.
170178  0  0  1  0            999 V2000
  -30.5680  -14.8622   20.4576 C   0  0  0  0  0  0
  -30.4452  -12.5351   19.4987 C   0  0  0  0  0  0
  -29.5243  -12.5203   18.2561 C   0  0  0  0  0  0
  -28.0554  -12.3144   18.6707 C   0  0  0  0  0  0
  -27.6370  -13.2356   19.8471 C   0  0  2  0  0  0
  -28.6765  -13.2276   20.9878 C   0  0  0  0  0  0
  -25.2480  -13.8172   20.5675 C   0  0  0  0  0  0
  -24.1771  -13.0413   20.9179 C   0  0  0  0  0  0
  -24.6370  -11.6890   20.8714 C   0  0  0  0  0  0
  -23.9040  -10.4267   21.0383 C   0  0  0  0  0  0
  -24.3602   -9.4191   21.9169 C   0  0  0  0  0  0
  -23.6280   -8.2232   22.0748 C   0  0  0  0  0  0
  -22.4253   -8.0260   21.3551 C   0  0  0  0  0  0
  -21.9876   -9.0225   20.4663 C   0  0  0  0  0  0
  -22.7205  -10.2105   20.3051 C   0  0  0  0  0  0
  -21.6843   -6.0733   22.5307 C   0  0  0  0  0  0
  -21.4002   -6.5632   23.8241 C   0  0  0  0  0  0
  -21.3653   -5.6774   24.9193 C   0  0  0  0  0  0
  -21.6043   -4.3038   24.7232 C   0  0  0  0  0  0
  -21.8809   -3.8139   23.4348 C   0  0  0  0  0  0
  -21.9194   -4.6964   22.3415 C   0  0  0  0  0  0
  -22.7801  -13.5217   21.1831 C   0  0  0  0  0  0
  -22.1677   -4.2158   21.0985 F   0  0  0  0  0  0
  -21.5630   -3.4520   25.7743 F   0  0  0  0  0  0
  -29.9671  -13.6136   20.4031 N   0  0  0  0  0  0
  -26.2898  -12.9384   20.3247 N   0  0  0  0  0  0
  -25.9302  -11.6522   20.5722 N   0  0  0  0  0  0
  -22.0453  -12.8250   22.0431 N   0  0  0  0  0  0
  -25.4167  -15.1886   20.4083 N   0  0  0  0  0  0
  -31.7598  -14.9566   20.1536 O   0  0  0  0  0  0
  -21.6612   -6.8866   21.4268 O   0  0  0  0  0  0
  -22.3522  -14.5522   20.6670 O   0  0  0  0  0  0
  -24.6426  -31.8481   23.1959 C   0  0  0  0  0  0
  -25.9206  -32.4728   23.8330 C   0  0  1  0  0  0
  -27.2038  -27.1666   20.1366 C   0  0  0  0  0  0
  -25.5985  -33.8531   24.2254 N   0  0  0  0  0  0
  -23.4430  -30.4711   21.5408 C   0  0  2  0  0  0
  -24.8903  -28.9108   20.1126 C   0  0  0  0  0  0
  -22.7543  -29.4560   22.4874 C   0  0  0  0  0  0
  -18.0283  -28.1385   22.8485 C   0  0  0  0  0  0
  -24.1472  -36.7249   23.2635 C   0  0  0  0  0  0
  -25.9977  -30.7279   21.3956 C   0  0  0  0  0  0
  -26.0676  -29.3428   20.7387 C   0  0  0  0  0  0
  -27.2272  -28.4818   20.7458 C   0  0  0  0  0  0
  -26.0151  -26.8594   19.4365 C   0  0  0  0  0  0
  -24.8753  -27.6807   19.4468 C   0  0  0  0  0  0
  -23.6697  -29.8110   20.1575 C   0  0  0  0  0  0
  -25.4106  -36.3048   24.0327 C   0  0  1  0  0  0
  -20.5900  -28.3707   23.1231 C   0  0  2  0  0  0
  -20.6778  -26.9418   22.5389 C   0  0  0  0  0  0
  -19.5755  -26.6382   21.5189 C   0  0  0  0  0  0
  -18.1933  -26.7931   22.1615 C   0  0  0  0  0  0
  -19.1544  -28.8860   23.2854 C   0  0  0  0  0  0
  -18.9471  -30.1453   23.8903 C   0  0  0  0  0  0
  -17.6471  -30.6597   24.0549 C   0  0  0  0  0  0
  -25.9060  -34.9420   23.5079 C   0  0  0  0  0  0
  -16.5357  -29.9091   23.6329 C   0  0  0  0  0  0
  -16.7276  -28.6490   23.0386 C   0  0  0  0  0  0
  -26.4547  -31.6570   25.0741 C   0  0  0  0  0  0
  -25.3751  -31.3759   26.1448 C   0  0  0  0  0  0
  -27.0393  -30.2970   24.6287 C   0  0  0  0  0  0
  -27.6086  -32.4310   25.7544 C   0  0  0  0  0  0
  -27.5566  -37.1780   24.8472 C   0  0  0  0  0  0
  -21.4243  -29.3049   22.3621 N   0  0  0  0  0  0
  -26.4270  -37.3756   23.9419 N   0  0  0  0  0  0
  -24.7142  -31.0345   22.0997 N   0  0  0  0  0  0
  -23.4177  -28.8082   23.3008 O   0  0  0  0  0  0
  -28.2200  -26.1500   20.1994 O   0  0  0  0  0  0
  -26.5608  -34.8901   22.4639 O   0  0  0  0  0  0
  -23.5547  -32.1366   23.7173 O   0  0  0  0  0  0
  -28.7272  -22.5274   21.6476 C   0  0  0  0  0  0
  -28.9538  -21.0999   21.6796 C   0  0  0  0  0  0
  -28.5056  -23.2760   20.4534 C   0  0  0  0  0  0
  -29.0363  -20.3249   20.4795 C   0  0  0  0  0  0
  -28.6510  -22.4324   19.3005 C   0  0  0  0  0  0
  -27.0523  -22.5142   17.3330 C   0  0  0  0  0  0
  -29.5614  -22.7426   16.9452 C   0  0  0  0  0  0
  -26.5454  -19.7138   23.1102 C   0  0  0  0  0  0
  -27.8276  -20.0250   25.2649 C   0  0  0  0  0  0
  -29.0042  -20.4274   23.0467 C   0  0  0  0  0  0
  -27.7347  -24.7188   20.5052 C   0  0  0  0  0  0
  -28.9289  -18.6863   20.3990 C   0  0  0  0  0  0
  -30.1084  -17.5448   20.6329 C   0  0  0  0  0  0
  -28.3913  -23.0027   17.9065 C   0  0  0  0  0  0
  -27.6639  -20.4983   23.8145 C   0  0  0  0  0  0
  -28.9101  -21.0605   19.3267 N   0  0  0  0  0  0
  -29.7811  -16.0113   20.6539 N   0  0  0  0  0  0
  -31.4803  -12.6898   19.1905 H   0  0  0  0  0  0
  -30.4265  -11.5741   20.0143 H   0  0  0  0  0  0
  -29.8349  -11.7382   17.5622 H   0  0  0  0  0  0
  -29.6215  -13.4651   17.7191 H   0  0  0  0  0  0
  -27.9420  -11.2689   18.9623 H   0  0  0  0  0  0
  -27.4001  -12.4680   17.8137 H   0  0  0  0  0  0
  -27.6151  -14.2460   19.4361 H   0  0  0  0  0  0
  -28.7361  -12.2446   21.4571 H   0  0  0  0  0  0
  -28.3832  -13.9242   21.7755 H   0  0  0  0  0  0
  -25.2746   -9.5687   22.4732 H   0  0  0  0  0  0
  -23.9998   -7.4624   22.7474 H   0  0  0  0  0  0
  -21.0785   -8.8740   19.9007 H   0  0  0  0  0  0
  -22.3629  -10.9629   19.6152 H   0  0  0  0  0  0
  -21.1984   -7.6127   23.9758 H   0  0  0  0  0  0
  -21.1488   -6.0488   25.9105 H   0  0  0  0  0  0
  -22.0585   -2.7599   23.2842 H   0  0  0  0  0  0
  -22.4086  -11.9915   22.4824 H   0  0  0  0  0  0
  -21.1083  -13.1278   22.2644 H   0  0  0  0  0  0
  -24.6422  -15.8364   20.5022 H   0  0  0  0  0  0
  -26.2539  -15.6280   20.0510 H   0  0  0  0  0  0
  -26.7259  -32.5370   23.1048 H   0  0  0  0  0  0
  -25.0221  -33.9660   25.0463 H   0  0  0  0  0  0
  -22.7446  -31.2977   21.3904 H   0  0  0  0  0  0
  -23.3756  -35.9556   23.3299 H   0  0  0  0  0  0
  -24.3573  -36.8875   22.2052 H   0  0  0  0  0  0
  -23.7179  -37.6432   23.6657 H   0  0  0  0  0  0
  -26.1418  -31.4794   20.6190 H   0  0  0  0  0  0
  -26.8724  -30.7813   22.0322 H   0  0  0  0  0  0
  -28.1196  -28.7944   21.2699 H   0  0  0  0  0  0
  -25.9278  -25.9500   18.8623 H   0  0  0  0  0  0
  -23.9858  -27.3556   18.9249 H   0  0  0  0  0  0
  -23.8148  -30.5899   19.4075 H   0  0  0  0  0  0
  -22.7850  -29.2575   19.8378 H   0  0  0  0  0  0
  -25.1270  -36.1905   25.0816 H   0  0  0  0  0  0
  -20.9986  -28.3306   24.1348 H   0  0  0  0  0  0
  -20.5631  -26.2331   23.3610 H   0  0  0  0  0  0
  -21.6649  -26.7415   22.1205 H   0  0  0  0  0  0
  -19.6920  -25.6279   21.1241 H   0  0  0  0  0  0
  -19.6697  -27.3172   20.6704 H   0  0  0  0  0  0
  -17.4196  -26.6660   21.4020 H   0  0  0  0  0  0
  -18.0358  -26.0051   22.8998 H   0  0  0  0  0  0
  -19.7945  -30.7237   24.2306 H   0  0  0  0  0  0
  -17.5035  -31.6287   24.5124 H   0  0  0  0  0  0
  -15.5362  -30.3003   23.7650 H   0  0  0  0  0  0
  -15.8670  -28.0790   22.7160 H   0  0  0  0  0  0
  -24.5946  -30.7069   25.7807 H   0  0  0  0  0  0
  -24.8918  -32.2924   26.4826 H   0  0  0  0  0  0
  -25.8070  -30.8999   27.0256 H   0  0  0  0  0  0
  -26.2992  -29.6718   24.1270 H   0  0  0  0  0  0
  -27.3976  -29.7246   25.4852 H   0  0  0  0  0  0
  -27.8916  -30.4214   23.9609 H   0  0  0  0  0  0
  -27.2699  -33.3626   26.2092 H   0  0  0  0  0  0
  -28.3947  -32.6840   25.0413 H   0  0  0  0  0  0
  -28.0690  -31.8440   26.5499 H   0  0  0  0  0  0
  -28.2577  -38.0085   24.7524 H   0  0  0  0  0  0
  -28.1061  -36.2610   24.6288 H   0  0  0  0  0  0
  -27.2290  -37.1432   25.8878 H   0  0  0  0  0  0
  -20.9450  -29.8815   21.6851 H   0  0  0  0  0  0
  -26.0156  -38.2820   24.1465 H   0  0  0  0  0  0
  -28.6010  -23.0444   22.5868 H   0  0  0  0  0  0
  -26.2277  -22.7653   18.0003 H   0  0  0  0  0  0
  -27.0530  -21.4314   17.1986 H   0  0  0  0  0  0
  -26.8473  -22.9716   16.3655 H   0  0  0  0  0  0
  -30.4989  -23.1181   17.3539 H   0  0  0  0  0  0
  -29.3982  -23.2413   15.9903 H   0  0  0  0  0  0
  -29.6869  -21.6779   16.7484 H   0  0  0  0  0  0
  -25.6069  -19.7800   23.6625 H   0  0  0  0  0  0
  -26.8037  -18.6586   23.0163 H   0  0  0  0  0  0
  -26.3575  -20.1027   22.1094 H   0  0  0  0  0  0
  -26.9063  -20.1703   25.8309 H   0  0  0  0  0  0
  -28.6126  -20.5803   25.7783 H   0  0  0  0  0  0
  -28.0838  -18.9664   25.3127 H   0  0  0  0  0  0
  -29.7840  -20.9281   23.6212 H   0  0  0  0  0  0
  -29.3257  -19.3893   22.9583 H   0  0  0  0  0  0
  -27.3433  -24.7904   21.5200 H   0  0  0  0  0  0
  -26.8524  -24.4922   19.9161 H   0  0  0  0  0  0
  -28.5153  -18.4785   19.4112 H   0  0  0  0  0  0
  -28.1129  -18.4232   21.0686 H   0  0  0  0  0  0
  -30.5777  -17.7604   21.5925 H   0  0  0  0  0  0
  -30.8888  -17.7106   19.8900 H   0  0  0  0  0  0
  -28.3209  -24.0870   17.9951 H   0  0  0  0  0  0
  -27.3500  -21.5420   23.8663 H   0  0  0  0  0  0
  -28.8175  -15.7965   20.8621 H   0  0  0  0  0  0
  1 25  1  0  0  0
  1 30  2  0  0  0
  1 87  1  0  0  0
  2  3  1  0  0  0
  2 25  1  0  0  0
  2 88  1  0  0  0
  2 89  1  0  0  0
  3  4  1  0  0  0
  3 90  1  0  0  0
  3 91  1  0  0  0
  4  5  1  0  0  0
  4 92  1  0  0  0
  4 93  1  0  0  0
  5  6  1  0  0  0
  5 26  1  0  0  0
  5 94  1  0  0  0
  6 25  1  0  0  0
  6 95  1  0  0  0
  6 96  1  0  0  0
  7  8  2  0  0  0
  7 26  1  0  0  0
  7 29  1  0  0  0
  8  9  1  0  0  0
  8 22  1  0  0  0
  9 10  1  0  0  0
  9 27  2  0  0  0
 10 11  2  0  0  0
 10 15  1  0  0  0
 11 12  1  0  0  0
 11 97  1  0  0  0
 12 13  2  0  0  0
 12 98  1  0  0  0
 13 14  1  0  0  0
 13 31  1  0  0  0
 14 15  2  0  0  0
 14 99  1  0  0  0
 15100  1  0  0  0
 16 17  2  0  0  0
 16 21  1  0  0  0
 16 31  1  0  0  0
 17 18  1  0  0  0
 17101  1  0  0  0
 18 19  2  0  0  0
 18102  1  0  0  0
 19 20  1  0  0  0
 19 24  1  0  0  0
 20 21  2  0  0  0
 20103  1  0  0  0
 21 23  1  0  0  0
 22 28  1  0  0  0
 22 32  2  0  0  0
 26 27  1  0  0  0
 28104  1  0  0  0
 28105  1  0  0  0
 29106  1  0  0  0
 29107  1  0  0  0
 33 34  1  0  0  0
 33 66  1  0  0  0
 33 70  2  0  0  0
 34 36  1  0  0  0
 34 59  1  0  0  0
 34108  1  0  0  0
 35 44  2  0  0  0
 35 45  1  0  0  0
 35 68  1  0  0  0
 36 56  1  0  0  0
 36109  1  0  0  0
 37 39  1  0  0  0
 37 47  1  0  0  0
 37 66  1  0  0  0
 37110  1  0  0  0
 38 43  2  0  0  0
 38 46  1  0  0  0
 38 47  1  0  0  0
 39 64  1  0  0  0
 39 67  2  0  0  0
 40 52  1  0  0  0
 40 53  2  0  0  0
 40 58  1  0  0  0
 41111  1  0  0  0
 41112  1  0  0  0
 41113  1  0  0  0
 41 48  1  0  0  0
 42 43  1  0  0  0
 42 66  1  0  0  0
 42114  1  0  0  0
 42115  1  0  0  0
 43 44  1  0  0  0
 44116  1  0  0  0
 45 46  2  0  0  0
 45117  1  0  0  0
 46118  1  0  0  0
 47119  1  0  0  0
 47120  1  0  0  0
 48 56  1  0  0  0
 48 65  1  0  0  0
 48121  1  0  0  0
 49 50  1  0  0  0
 49 53  1  0  0  0
 49 64  1  0  0  0
 49122  1  0  0  0
 50 51  1  0  0  0
 50123  1  0  0  0
 50124  1  0  0  0
 51 52  1  0  0  0
 51125  1  0  0  0
 51126  1  0  0  0
 52127  1  0  0  0
 52128  1  0  0  0
 53 54  1  0  0  0
 54 55  2  0  0  0
 54129  1  0  0  0
 55 57  1  0  0  0
 55130  1  0  0  0
 56 69  2  0  0  0
 57 58  2  0  0  0
 57131  1  0  0  0
 58132  1  0  0  0
 59 60  1  0  0  0
 59 61  1  0  0  0
 59 62  1  0  0  0
 60133  1  0  0  0
 60134  1  0  0  0
 60135  1  0  0  0
 61136  1  0  0  0
 61137  1  0  0  0
 61138  1  0  0  0
 62139  1  0  0  0
 62140  1  0  0  0
 62141  1  0  0  0
 63 65  1  0  0  0
 63142  1  0  0  0
 63143  1  0  0  0
 63144  1  0  0  0
 64145  1  0  0  0
 65146  1  0  0  0
 68 81  1  0  0  0
 71 72  2  0  0  0
 71 73  1  0  0  0
 71147  1  0  0  0
 72 74  1  0  0  0
 72 80  1  0  0  0
 73 75  2  0  0  0
 73 81  1  0  0  0
 74 82  1  0  0  0
 74 86  2  0  0  0
 75 84  1  0  0  0
 75 86  1  0  0  0
 76148  1  0  0  0
 76149  1  0  0  0
 76150  1  0  0  0
 76 84  1  0  0  0
 77 84  1  0  0  0
 77151  1  0  0  0
 77152  1  0  0  0
 77153  1  0  0  0
 78154  1  0  0  0
 78155  1  0  0  0
 78156  1  0  0  0
 78 85  1  0  0  0
 79 85  1  0  0  0
 79157  1  0  0  0
 79158  1  0  0  0
 79159  1  0  0  0
 80 85  1  0  0  0
 80160  1  0  0  0
 80161  1  0  0  0
 81162  1  0  0  0
 81163  1  0  0  0
 82 83  1  0  0  0
 82164  1  0  0  0
 82165  1  0  0  0
 83 87  1  0  0  0
 83166  1  0  0  0
 83167  1  0  0  0
 84168  1  0  0  0
 85169  1  0  0  0
 87170  1  0  0  0
M  ISO  4   1 100  68 101  81 101  87 100
M  END
> <chiral flag>
0

> <version>
0

> <s_m_source_file>
/data/baiqing/PycharmProjects/Reinvent-master-3.2/result/LINK_invent/BTK/process_docking_weight1_custom_sum_contain_oxygen_bond_distance_aromatic_linkinvent_7_9_3/rearranged_h_0079.sdf

> <i_m_source_file_index>
1

> <r_mmod_Potential_Energy-OPLS-2005>
231.177017211914

> <r_mmod_Stretch_Energy-OPLS-2005>
193.522552490234

> <r_mmod_Bend_Energy-OPLS-2005>
240.889694213867

> <r_mmod_Torsional_Energy-OPLS-2005>
230.514099121094

> <r_mmod_Improper_Torsional_Energy-OPLS-2005>
11.018572807312

> <r_mmod_Van_der_Waal_Energy-OPLS-2005>
134.673461914062

> <r_mmod_Electrostatic_Energy-OPLS-2005>
-520.14892578125

> <r_mmod_Solvation_Energy-OPLS-2005>
-217.401412963867

> <b_mmod_Minimization_Converged-OPLS-2005>
0

> <r_mmod_RMS_Derivative-OPLS-2005>
2.89212465286255

$$$$
1
                    3D
 Structure written by MMmdl.
169177  0  0  1  0            999 V2000
  -30.6661  -14.7264   20.5406 C   0  0  0  0  0  0
  -30.4413  -12.4486   19.4997 C   0  0  0  0  0  0
  -29.5244  -12.4918   18.2523 C   0  0  0  0  0  0
  -28.0591  -12.2614   18.6672 C   0  0  0  0  0  0
  -27.6532  -13.1775   19.8503 C   0  0  2  0  0  0
  -28.6912  -13.1753   21.0020 C   0  0  0  0  0  0
  -25.2645  -13.7975   20.5767 C   0  0  0  0  0  0
  -24.1884  -13.0312   20.9189 C   0  0  0  0  0  0
  -24.6419  -11.6767   20.8720 C   0  0  0  0  0  0
  -23.9095  -10.4227   21.0403 C   0  0  0  0  0  0
  -24.3675   -9.4155   21.9191 C   0  0  0  0  0  0
  -23.6323   -8.2217   22.0753 C   0  0  0  0  0  0
  -22.4306   -8.0263   21.3540 C   0  0  0  0  0  0
  -21.9964   -9.0238   20.4642 C   0  0  0  0  0  0
  -22.7283  -10.2101   20.3043 C   0  0  0  0  0  0
  -21.6858   -6.0768   22.5301 C   0  0  0  0  0  0
  -21.3994   -6.5657   23.8235 C   0  0  0  0  0  0
  -21.3633   -5.6793   24.9180 C   0  0  0  0  0  0
  -21.6072   -4.3067   24.7221 C   0  0  0  0  0  0
  -21.8826   -3.8173   23.4333 C   0  0  0  0  0  0
  -21.9176   -4.6997   22.3399 C   0  0  0  0  0  0
  -22.7934  -13.5134   21.1883 C   0  0  0  0  0  0
  -22.1668   -4.2207   21.0982 F   0  0  0  0  0  0
  -21.5604   -3.4527   25.7708 F   0  0  0  0  0  0
  -30.0191  -13.5060   20.4577 N   0  0  0  0  0  0
  -26.3015  -12.9128   20.3273 N   0  0  0  0  0  0
  -25.9321  -11.6324   20.5739 N   0  0  0  0  0  0
  -22.0579  -12.8135   22.0417 N   0  0  0  0  0  0
  -25.4197  -15.1752   20.4439 N   0  0  0  0  0  0
  -31.7784  -14.8622   20.0159 O   0  0  0  0  0  0
  -21.6585   -6.8912   21.4287 O   0  0  0  0  0  0
  -22.3682  -14.5486   20.6716 O   0  0  0  0  0  0
  -24.6258  -31.8494   23.2017 C   0  0  0  0  0  0
  -25.9082  -32.4728   23.8362 C   0  0  1  0  0  0
  -27.2540  -27.2851   20.1409 C   0  0  0  0  0  0
  -25.5859  -33.8534   24.2250 N   0  0  0  0  0  0
  -23.4237  -30.4741   21.5414 C   0  0  2  0  0  0
  -24.8830  -28.9265   20.1021 C   0  0  0  0  0  0
  -22.7461  -29.4518   22.4892 C   0  0  0  0  0  0
  -18.0280  -28.1363   22.8405 C   0  0  0  0  0  0
  -24.1485  -36.7307   23.2640 C   0  0  0  0  0  0
  -25.9654  -30.7718   21.3775 C   0  0  0  0  0  0
  -26.0466  -29.3978   20.7225 C   0  0  0  0  0  0
  -27.2280  -28.5931   20.7261 C   0  0  0  0  0  0
  -26.0691  -26.8843   19.4698 C   0  0  0  0  0  0
  -24.9012  -27.6782   19.4603 C   0  0  0  0  0  0
  -23.6425  -29.8073   20.1570 C   0  0  0  0  0  0
  -25.4111  -36.3048   24.0315 C   0  0  1  0  0  0
  -20.5850  -28.3635   23.1243 C   0  0  2  0  0  0
  -20.6735  -26.9354   22.5345 C   0  0  0  0  0  0
  -19.5757  -26.6341   21.5106 C   0  0  0  0  0  0
  -18.1942  -26.7899   22.1549 C   0  0  0  0  0  0
  -19.1518  -28.8824   23.2819 C   0  0  0  0  0  0
  -18.9449  -30.1450   23.8838 C   0  0  0  0  0  0
  -17.6449  -30.6543   24.0540 C   0  0  0  0  0  0
  -25.9037  -34.9411   23.5102 C   0  0  0  0  0  0
  -16.5349  -29.9035   23.6332 C   0  0  0  0  0  0
  -16.7262  -28.6474   23.0286 C   0  0  0  0  0  0
  -26.4454  -31.6617   25.0791 C   0  0  0  0  0  0
  -25.3636  -31.3650   26.1466 C   0  0  0  0  0  0
  -27.0275  -30.3064   24.6253 C   0  0  0  0  0  0
  -27.6116  -32.4316   25.7454 C   0  0  0  0  0  0
  -27.5576  -37.1777   24.8461 C   0  0  0  0  0  0
  -21.4160  -29.2986   22.3643 N   0  0  0  0  0  0
  -26.4288  -37.3760   23.9384 N   0  0  0  0  0  0
  -24.6911  -31.0451   22.0994 N   0  0  0  0  0  0
  -23.4179  -28.8018   23.2959 O   0  0  0  0  0  0
  -28.3871  -26.4427   20.2724 O   0  0  0  0  0  0
  -26.5616  -34.8846   22.4675 O   0  0  0  0  0  0
  -23.5403  -32.1282   23.7333 O   0  0  0  0  0  0
  -29.4605  -19.7421   20.1749 C   0  0  0  0  0  0
  -29.5251  -20.9815   20.8934 C   0  0  0  0  0  0
  -29.9366  -18.6414   20.8688 C   0  0  0  0  0  0
  -30.1609  -20.6046   22.0584 C   0  0  0  0  0  0
  -30.4569  -21.4591   23.2498 C   0  0  0  0  0  0
  -28.2580  -17.0937   19.9437 C   0  0  0  0  0  0
  -33.1764  -19.5404   24.5536 C   0  0  0  0  0  0
  -33.4132  -19.6235   22.0399 C   0  0  0  0  0  0
  -28.8613  -22.3269   20.3544 C   0  0  0  0  0  0
  -29.1891  -23.8480   20.7843 C   0  0  0  0  0  0
  -31.2559  -18.5063   23.0773 C   0  0  0  0  0  0
  -28.3364  -24.9751   19.9812 C   0  0  0  0  0  0
  -29.7517  -17.1499   20.3458 C   0  0  2  0  0  0
  -32.7864  -18.8492   23.2203 C   0  0  0  0  0  0
  -30.5063  -19.2176   22.0214 N   0  0  0  0  0  0
  -30.0165  -15.8288   21.0726 N   0  0  0  0  0  0
  -31.4891  -12.5482   19.2070 H   0  0  0  0  0  0
  -30.3691  -11.4688   19.9765 H   0  0  0  0  0  0
  -29.8271  -11.7192   17.5412 H   0  0  0  0  0  0
  -29.6181  -13.4495   17.7403 H   0  0  0  0  0  0
  -27.9551  -11.2078   18.9451 H   0  0  0  0  0  0
  -27.3938  -12.4095   17.8135 H   0  0  0  0  0  0
  -27.6272  -14.1565   19.4003 H   0  0  0  0  0  0
  -28.7255  -12.2016   21.4895 H   0  0  0  0  0  0
  -28.3910  -13.8888   21.7693 H   0  0  0  0  0  0
  -25.2865   -9.5558   22.4721 H   0  0  0  0  0  0
  -23.9991   -7.4597   22.7480 H   0  0  0  0  0  0
  -21.0888   -8.8794   19.8965 H   0  0  0  0  0  0
  -22.3816  -10.9643   19.6109 H   0  0  0  0  0  0
  -21.2006   -7.6150   23.9761 H   0  0  0  0  0  0
  -21.1443   -6.0501   25.9084 H   0  0  0  0  0  0
  -22.0637   -2.7646   23.2800 H   0  0  0  0  0  0
  -22.4230  -11.9769   22.4741 H   0  0  0  0  0  0
  -21.1180  -13.1106   22.2586 H   0  0  0  0  0  0
  -24.6330  -15.7820   20.6435 H   0  0  0  0  0  0
  -26.2590  -15.6914   20.2223 H   0  0  0  0  0  0
  -26.7131  -32.5343   23.1097 H   0  0  0  0  0  0
  -24.9988  -33.9682   25.0369 H   0  0  0  0  0  0
  -22.7245  -31.3000   21.3982 H   0  0  0  0  0  0
  -23.3728  -35.9659   23.3311 H   0  0  0  0  0  0
  -24.3631  -36.8939   22.2064 H   0  0  0  0  0  0
  -23.7242  -37.6505   23.6683 H   0  0  0  0  0  0
  -26.0783  -31.5236   20.5984 H   0  0  0  0  0  0
  -26.8512  -30.8302   21.9999 H   0  0  0  0  0  0
  -28.1174  -28.9468   21.2217 H   0  0  0  0  0  0
  -26.0024  -25.9411   18.9481 H   0  0  0  0  0  0
  -24.0211  -27.3201   18.9435 H   0  0  0  0  0  0
  -23.7461  -30.5856   19.3988 H   0  0  0  0  0  0
  -22.7629  -29.2315   19.8632 H   0  0  0  0  0  0
  -25.1272  -36.1934   25.0804 H   0  0  0  0  0  0
  -20.9947  -28.3156   24.1359 H   0  0  0  0  0  0
  -20.5504  -26.2217   23.3502 H   0  0  0  0  0  0
  -21.6613  -26.7280   22.1222 H   0  0  0  0  0  0
  -19.6923  -25.6210   21.1212 H   0  0  0  0  0  0
  -19.6788  -27.3055   20.6565 H   0  0  0  0  0  0
  -17.4164  -26.6561   21.4009 H   0  0  0  0  0  0
  -18.0489  -26.0036   22.8974 H   0  0  0  0  0  0
  -19.7913  -30.7285   24.2167 H   0  0  0  0  0  0
  -17.4971  -31.6235   24.5137 H   0  0  0  0  0  0
  -15.5316  -30.2923   23.7684 H   0  0  0  0  0  0
  -15.8665  -28.0825   22.6984 H   0  0  0  0  0  0
  -24.5990  -30.6852   25.7675 H   0  0  0  0  0  0
  -24.8586  -32.2712   26.4817 H   0  0  0  0  0  0
  -25.7892  -30.8858   27.0303 H   0  0  0  0  0  0
  -26.2803  -29.6855   24.1323 H   0  0  0  0  0  0
  -27.3974  -29.7343   25.4772 H   0  0  0  0  0  0
  -27.8673  -30.4364   23.9442 H   0  0  0  0  0  0
  -27.2957  -33.3758   26.1910 H   0  0  0  0  0  0
  -28.3917  -32.6665   25.0183 H   0  0  0  0  0  0
  -28.0813  -31.8512   26.5409 H   0  0  0  0  0  0
  -28.2525  -38.0122   24.7504 H   0  0  0  0  0  0
  -28.1112  -36.2647   24.6282 H   0  0  0  0  0  0
  -27.2304  -37.1412   25.8861 H   0  0  0  0  0  0
  -20.9307  -29.8792   21.6928 H   0  0  0  0  0  0
  -26.0188  -38.2806   24.1473 H   0  0  0  0  0  0
  -28.9810  -19.6626   19.2066 H   0  0  0  0  0  0
  -29.6018  -22.0857   23.5133 H   0  0  0  0  0  0
  -31.3111  -22.1065   23.0585 H   0  0  0  0  0  0
  -30.6883  -20.8613   24.1296 H   0  0  0  0  0  0
  -27.6293  -17.3532   20.8020 H   0  0  0  0  0  0
  -27.9225  -16.1421   19.5673 H   0  0  0  0  0  0
  -28.0225  -17.7875   19.1390 H   0  0  0  0  0  0
  -34.1915  -19.2511   24.8500 H   0  0  0  0  0  0
  -32.5130  -19.2895   25.3859 H   0  0  0  0  0  0
  -33.1804  -20.6290   24.4571 H   0  0  0  0  0  0
  -34.5040  -19.6227   22.1086 H   0  0  0  0  0  0
  -33.0897  -20.6659   22.0434 H   0  0  0  0  0  0
  -33.1456  -19.2026   21.0680 H   0  0  0  0  0  0
  -27.7836  -22.1813   20.4672 H   0  0  0  0  0  0
  -29.0222  -22.2953   19.2765 H   0  0  0  0  0  0
  -30.2534  -24.0281   20.6228 H   0  0  0  0  0  0
  -29.0412  -23.9760   21.8569 H   0  0  0  0  0  0
  -30.7295  -18.6538   24.0231 H   0  0  0  0  0  0
  -31.1769  -17.4376   22.8794 H   0  0  0  0  0  0
  -27.3056  -24.6315   20.0032 H   0  0  0  0  0  0
  -28.6392  -24.8979   18.9343 H   0  0  0  0  0  0
  -30.3210  -17.0789   19.4151 H   0  0  0  0  0  0
  -33.3015  -17.8882   23.2572 H   0  0  0  0  0  0
  -29.2743  -15.5821   21.7115 H   0  0  0  0  0  0
  1 25  1  0  0  0
  1 30  2  0  0  0
  1 86  1  0  0  0
  2  3  1  0  0  0
  2 25  1  0  0  0
  2 87  1  0  0  0
  2 88  1  0  0  0
  3  4  1  0  0  0
  3 89  1  0  0  0
  3 90  1  0  0  0
  4  5  1  0  0  0
  4 91  1  0  0  0
  4 92  1  0  0  0
  5  6  1  0  0  0
  5 26  1  0  0  0
  5 93  1  0  0  0
  6 25  1  0  0  0
  6 94  1  0  0  0
  6 95  1  0  0  0
  7  8  2  0  0  0
  7 26  1  0  0  0
  7 29  1  0  0  0
  8  9  1  0  0  0
  8 22  1  0  0  0
  9 10  1  0  0  0
  9 27  2  0  0  0
 10 11  2  0  0  0
 10 15  1  0  0  0
 11 12  1  0  0  0
 11 96  1  0  0  0
 12 13  2  0  0  0
 12 97  1  0  0  0
 13 14  1  0  0  0
 13 31  1  0  0  0
 14 15  2  0  0  0
 14 98  1  0  0  0
 15 99  1  0  0  0
 16 17  2  0  0  0
 16 21  1  0  0  0
 16 31  1  0  0  0
 17 18  1  0  0  0
 17100  1  0  0  0
 18 19  2  0  0  0
 18101  1  0  0  0
 19 20  1  0  0  0
 19 24  1  0  0  0
 20 21  2  0  0  0
 20102  1  0  0  0
 21 23  1  0  0  0
 22 28  1  0  0  0
 22 32  2  0  0  0
 26 27  1  0  0  0
 28103  1  0  0  0
 28104  1  0  0  0
 29105  1  0  0  0
 29106  1  0  0  0
 33 34  1  0  0  0
 33 66  1  0  0  0
 33 70  2  0  0  0
 34 36  1  0  0  0
 34 59  1  0  0  0
 34107  1  0  0  0
 35 44  2  0  0  0
 35 45  1  0  0  0
 35 68  1  0  0  0
 36 56  1  0  0  0
 36108  1  0  0  0
 37 39  1  0  0  0
 37 47  1  0  0  0
 37 66  1  0  0  0
 37109  1  0  0  0
 38 43  2  0  0  0
 38 46  1  0  0  0
 38 47  1  0  0  0
 39 64  1  0  0  0
 39 67  2  0  0  0
 40 52  1  0  0  0
 40 53  2  0  0  0
 40 58  1  0  0  0
 41110  1  0  0  0
 41111  1  0  0  0
 41112  1  0  0  0
 41 48  1  0  0  0
 42 43  1  0  0  0
 42 66  1  0  0  0
 42113  1  0  0  0
 42114  1  0  0  0
 43 44  1  0  0  0
 44115  1  0  0  0
 45 46  2  0  0  0
 45116  1  0  0  0
 46117  1  0  0  0
 47118  1  0  0  0
 47119  1  0  0  0
 48 56  1  0  0  0
 48 65  1  0  0  0
 48120  1  0  0  0
 49 50  1  0  0  0
 49 53  1  0  0  0
 49 64  1  0  0  0
 49121  1  0  0  0
 50 51  1  0  0  0
 50122  1  0  0  0
 50123  1  0  0  0
 51 52  1  0  0  0
 51124  1  0  0  0
 51125  1  0  0  0
 52126  1  0  0  0
 52127  1  0  0  0
 53 54  1  0  0  0
 54 55  2  0  0  0
 54128  1  0  0  0
 55 57  1  0  0  0
 55129  1  0  0  0
 56 69  2  0  0  0
 57 58  2  0  0  0
 57130  1  0  0  0
 58131  1  0  0  0
 59 60  1  0  0  0
 59 61  1  0  0  0
 59 62  1  0  0  0
 60132  1  0  0  0
 60133  1  0  0  0
 60134  1  0  0  0
 61135  1  0  0  0
 61136  1  0  0  0
 61137  1  0  0  0
 62138  1  0  0  0
 62139  1  0  0  0
 62140  1  0  0  0
 63 65  1  0  0  0
 63141  1  0  0  0
 63142  1  0  0  0
 63143  1  0  0  0
 64144  1  0  0  0
 65145  1  0  0  0
 68 82  1  0  0  0
 71 72  1  0  0  0
 71 73  2  0  0  0
 71146  1  0  0  0
 72 74  2  0  0  0
 72 79  1  0  0  0
 73 83  1  0  0  0
 73 85  1  0  0  0
 74 75  1  0  0  0
 74 85  1  0  0  0
 75147  1  0  0  0
 75148  1  0  0  0
 75149  1  0  0  0
 76150  1  0  0  0
 76151  1  0  0  0
 76152  1  0  0  0
 76 83  1  0  0  0
 77153  1  0  0  0
 77154  1  0  0  0
 77155  1  0  0  0
 77 84  1  0  0  0
 78 84  1  0  0  0
 78156  1  0  0  0
 78157  1  0  0  0
 78158  1  0  0  0
 79 80  1  0  0  0
 79159  1  0  0  0
 79160  1  0  0  0
 80 82  1  0  0  0
 80161  1  0  0  0
 80162  1  0  0  0
 81 84  1  0  0  0
 81 85  1  0  0  0
 81163  1  0  0  0
 81164  1  0  0  0
 82165  1  0  0  0
 82166  1  0  0  0
 83 86  1  0  0  0
 83167  1  0  0  0
 84168  1  0  0  0
 86169  1  0  0  0
M  ISO  4   1 100  68 101  82 101  86 100
M  END
> <chiral flag>
0

> <version>
0

> <s_m_source_file>
/data/baiqing/PycharmProjects/Reinvent-master-3.2/result/LINK_invent/BTK/process_docking_weight1_custom_sum_contain_oxygen_bond_distance_aromatic_linkinvent_7_9_3/rearranged_h_0079.sdf

> <i_m_source_file_index>
2

> <r_mmod_Potential_Energy-OPLS-2005>
207.745590209961

> <r_mmod_Stretch_Energy-OPLS-2005>
124.903816223145

> <r_mmod_Bend_Energy-OPLS-2005>
256.953796386719

> <r_mmod_Torsional_Energy-OPLS-2005>
255.369400024414

> <r_mmod_Improper_Torsional_Energy-OPLS-2005>
6.54653596878052

> <r_mmod_Van_der_Waal_Energy-OPLS-2005>
118.10758972168

> <r_mmod_Electrostatic_Energy-OPLS-2005>
-424.258575439453

> <r_mmod_Solvation_Energy-OPLS-2005>
-207.094390869141

> <b_mmod_Minimization_Converged-OPLS-2005>
0

> <r_mmod_RMS_Derivative-OPLS-2005>
8.20495223999023

$$$$
2
                    3D
 Structure written by MMmdl.
169177  0  0  1  0            999 V2000
  -31.8172  -14.2129   21.2483 C   0  0  0  0  0  0
  -31.0941  -13.9804   18.7122 C   0  0  0  0  0  0
  -29.4293  -14.7019   17.2279 C   0  0  0  0  0  0
  -27.0217  -14.8656   17.9646 C   0  0  0  0  0  0
  -26.9631  -14.3022   20.5358 C   0  0  2  0  0  0
  -28.8522  -13.5776   21.6495 C   0  0  0  0  0  0
  -24.7713  -13.9859   20.5821 C   0  0  0  0  0  0
  -23.8964  -13.0465   20.9202 C   0  0  0  0  0  0
  -24.5629  -11.7771   20.9067 C   0  0  0  0  0  0
  -23.9321  -10.4473   21.0320 C   0  0  0  0  0  0
  -24.3871   -9.4420   21.9145 C   0  0  0  0  0  0
  -23.6541   -8.2417   22.0753 C   0  0  0  0  0  0
  -22.4530   -8.0337   21.3559 C   0  0  0  0  0  0
  -22.0205   -9.0229   20.4578 C   0  0  0  0  0  0
  -22.7539  -10.2081   20.2926 C   0  0  0  0  0  0
  -21.6988   -6.0780   22.5290 C   0  0  0  0  0  0
  -21.4115   -6.5666   23.8225 C   0  0  0  0  0  0
  -21.3690   -5.6805   24.9162 C   0  0  0  0  0  0
  -21.6045   -4.3071   24.7211 C   0  0  0  0  0  0
  -21.8801   -3.8154   23.4333 C   0  0  0  0  0  0
  -21.9231   -4.6985   22.3397 C   0  0  0  0  0  0
  -22.5013  -13.4187   21.1946 C   0  0  0  0  0  0
  -22.1679   -4.2154   21.0984 F   0  0  0  0  0  0
  -21.5614   -3.4554   25.7731 F   0  0  0  0  0  0
  -30.7802  -13.6208   20.7741 N   0  0  0  0  0  0
  -25.9262  -13.3658   20.6681 N   0  0  0  0  0  0
  -25.8842  -11.9837   20.7411 N   0  0  0  0  0  0
  -21.8646  -12.7019   22.0998 N   0  0  0  0  0  0
  -24.6817  -15.3567   20.2955 N   0  0  0  0  0  0
  -32.7631  -14.4154   20.5114 O   0  0  0  0  0  0
  -21.6857   -6.8940   21.4279 O   0  0  0  0  0  0
  -22.0257  -14.4363   20.6922 O   0  0  0  0  0  0
  -24.7383  -31.7245   23.1033 C   0  0  0  0  0  0
  -25.9692  -32.4081   23.7742 C   0  0  1  0  0  0
  -27.0675  -26.0605   20.1047 C   0  0  0  0  0  0
  -25.6009  -33.7943   24.1560 N   0  0  0  0  0  0
  -23.5759  -30.3193   21.4803 C   0  0  2  0  0  0
  -24.9873  -28.5414   20.0996 C   0  0  0  0  0  0
  -22.7928  -29.3983   22.4572 C   0  0  0  0  0  0
  -18.0389  -28.1430   22.8462 C   0  0  0  0  0  0
  -24.1507  -36.6993   23.2673 C   0  0  0  0  0  0
  -26.1755  -30.2253   21.4584 C   0  0  0  0  0  0
  -26.1927  -28.7322   20.7786 C   0  0  0  0  0  0
  -27.1992  -27.5330   20.7442 C   0  0  0  0  0  0
  -25.8443  -26.2459   19.3888 C   0  0  0  0  0  0
  -24.8875  -27.3315   19.3876 C   0  0  0  0  0  0
  -23.8388  -29.5887   20.1282 C   0  0  0  0  0  0
  -25.4185  -36.2674   24.0235 C   0  0  1  0  0  0
  -20.6024  -28.3817   23.1065 C   0  0  2  0  0  0
  -20.6813  -26.9430   22.5428 C   0  0  0  0  0  0
  -19.5779  -26.6344   21.5251 C   0  0  0  0  0  0
  -18.1976  -26.7963   22.1641 C   0  0  0  0  0  0
  -19.1655  -28.8963   23.2731 C   0  0  0  0  0  0
  -18.9551  -30.1549   23.8771 C   0  0  0  0  0  0
  -17.6528  -30.6601   24.0555 C   0  0  0  0  0  0
  -25.9200  -34.9086   23.4790 C   0  0  0  0  0  0
  -16.5423  -29.9069   23.6358 C   0  0  0  0  0  0
  -16.7373  -28.6495   23.0382 C   0  0  0  0  0  0
  -26.4690  -31.6403   25.0616 C   0  0  0  0  0  0
  -25.3564  -31.3891   26.1076 C   0  0  0  0  0  0
  -27.0709  -30.2682   24.6983 C   0  0  0  0  0  0
  -27.6033  -32.4409   25.7440 C   0  0  0  0  0  0
  -27.5544  -37.1648   24.8456 C   0  0  0  0  0  0
  -21.4532  -29.2956   22.3301 N   0  0  0  0  0  0
  -26.4248  -37.3510   23.9395 N   0  0  0  0  0  0
  -24.8659  -30.8051   22.0648 N   0  0  0  0  0  0
  -23.4137  -28.7679   23.3167 O   0  0  0  0  0  0
  -27.8288  -24.5107   20.0568 O   0  0  0  0  0  0
  -26.5944  -34.8790   22.4472 O   0  0  0  0  0  0
  -23.6301  -32.0663   23.5614 O   0  0  0  0  0  0
  -28.6196  -13.9134   19.1495 C   0  0  0  0  0  0
  -28.2946  -12.8179   18.3050 C   0  0  0  0  0  0
  -29.0531  -13.2165   19.3491 C   0  0  0  0  0  0
  -29.1982  -14.9967   19.7951 C   0  0  0  0  0  0
  -28.7658  -11.8450   17.2099 C   0  0  0  0  0  0
  -29.5192  -11.6515   19.8034 C   0  0  0  0  0  0
  -30.9582  -18.3321   20.7817 C   0  0  0  0  0  0
  -33.3140  -16.7930   22.2989 C   0  0  0  0  0  0
  -29.6451  -16.1082   20.9199 C   0  0  0  0  0  0
  -28.2536  -20.2289   19.6868 C   0  0  0  0  0  0
  -28.0393  -17.9655   19.1485 C   0  0  0  0  0  0
  -27.6254  -22.4724   19.6725 C   0  0  0  0  0  0
  -31.0476  -16.8149   20.9154 C   0  0  2  0  0  0
  -31.8290  -16.3666   22.2134 C   0  0  1  0  0  0
  -28.5717  -15.9011   19.2590 N   0  0  0  0  0  0
  -31.6683  -14.9120   22.3694 N   0  0  0  0  0  0
  -31.8755  -14.7116   18.5000 H   0  0  0  0  0  0
  -31.5242  -13.0616   18.3106 H   0  0  0  0  0  0
  -29.5089  -14.1662   16.2814 H   0  0  0  0  0  0
  -29.7219  -15.7084   16.9279 H   0  0  0  0  0  0
  -26.3783  -14.2087   17.3715 H   0  0  0  0  0  0
  -26.6062  -15.8573   17.7596 H   0  0  0  0  0  0
  -26.8051  -15.1988   21.1427 H   0  0  0  0  0  0
  -28.6121  -12.5678   21.9731 H   0  0  0  0  0  0
  -28.8857  -14.0237   22.6422 H   0  0  0  0  0  0
  -25.2873   -9.6060   22.4909 H   0  0  0  0  0  0
  -24.0227   -7.4874   22.7554 H   0  0  0  0  0  0
  -21.1174   -8.8725   19.8843 H   0  0  0  0  0  0
  -22.3896  -10.9579   19.6044 H   0  0  0  0  0  0
  -21.2165   -7.6183   23.9721 H   0  0  0  0  0  0
  -21.1533   -6.0545   25.9072 H   0  0  0  0  0  0
  -22.0533   -2.7616   23.2835 H   0  0  0  0  0  0
  -22.3030  -11.8955   22.5186 H   0  0  0  0  0  0
  -20.9255  -12.9532   22.3744 H   0  0  0  0  0  0
  -23.7766  -15.8077   20.2332 H   0  0  0  0  0  0
  -25.4490  -15.9412   19.9867 H   0  0  0  0  0  0
  -26.7783  -32.4405   23.0429 H   0  0  0  0  0  0
  -24.9893  -33.8894   24.9540 H   0  0  0  0  0  0
  -22.9400  -31.1796   21.2613 H   0  0  0  0  0  0
  -23.3801  -35.9273   23.3212 H   0  0  0  0  0  0
  -24.3561  -36.8823   22.2107 H   0  0  0  0  0  0
  -23.7241  -37.6101   23.6899 H   0  0  0  0  0  0
  -26.4705  -30.9261   20.6762 H   0  0  0  0  0  0
  -26.9947  -30.2639   22.1610 H   0  0  0  0  0  0
  -28.0934  -27.6843   21.3338 H   0  0  0  0  0  0
  -25.5383  -25.3813   18.8157 H   0  0  0  0  0  0
  -23.9874  -27.1697   18.8133 H   0  0  0  0  0  0
  -24.0680  -30.3371   19.3680 H   0  0  0  0  0  0
  -22.9179  -29.1108   19.7907 H   0  0  0  0  0  0
  -25.1433  -36.1335   25.0723 H   0  0  0  0  0  0
  -21.0135  -28.3499   24.1181 H   0  0  0  0  0  0
  -20.5635  -26.2468   23.3740 H   0  0  0  0  0  0
  -21.6669  -26.7287   22.1268 H   0  0  0  0  0  0
  -19.6902  -25.6221   21.1355 H   0  0  0  0  0  0
  -19.6719  -27.3091   20.6726 H   0  0  0  0  0  0
  -17.4252  -26.6774   21.4037 H   0  0  0  0  0  0
  -18.0306  -26.0130   22.9037 H   0  0  0  0  0  0
  -19.8025  -30.7424   24.2056 H   0  0  0  0  0  0
  -17.5067  -31.6270   24.5166 H   0  0  0  0  0  0
  -15.5404  -30.2907   23.7749 H   0  0  0  0  0  0
  -15.8803  -28.0761   22.7135 H   0  0  0  0  0  0
  -24.5795  -30.7251   25.7276 H   0  0  0  0  0  0
  -24.8708  -32.3162   26.4123 H   0  0  0  0  0  0
  -25.7513  -30.9217   27.0098 H   0  0  0  0  0  0
  -26.3483  -29.6048   24.2225 H   0  0  0  0  0  0
  -27.4126  -29.7464   25.5932 H   0  0  0  0  0  0
  -27.9485  -30.3673   24.0594 H   0  0  0  0  0  0
  -27.2542  -33.3883   26.1557 H   0  0  0  0  0  0
  -28.4046  -32.6678   25.0395 H   0  0  0  0  0  0
  -28.0469  -31.8839   26.5704 H   0  0  0  0  0  0
  -28.2477  -38.0019   24.7514 H   0  0  0  0  0  0
  -28.1124  -36.2525   24.6275 H   0  0  0  0  0  0
  -27.2245  -37.1250   25.8855 H   0  0  0  0  0  0
  -20.9931  -29.8525   21.6230 H   0  0  0  0  0  0
  -26.0010  -38.2520   24.1421 H   0  0  0  0  0  0
  -27.3516  -13.2136   18.9033 H   0  0  0  0  0  0
  -28.2985  -12.1115   16.2642 H   0  0  0  0  0  0
  -28.4809  -10.8168   17.4380 H   0  0  0  0  0  0
  -29.8424  -11.8711   17.0539 H   0  0  0  0  0  0
  -30.3176  -11.2669   19.1672 H   0  0  0  0  0  0
  -28.6795  -10.9514   19.7419 H   0  0  0  0  0  0
  -29.8964  -11.4546   20.8019 H   0  0  0  0  0  0
  -30.5209  -18.5760   19.8162 H   0  0  0  0  0  0
  -31.9447  -18.7937   20.8015 H   0  0  0  0  0  0
  -30.3489  -18.7773   21.5684 H   0  0  0  0  0  0
  -33.8793  -16.5327   21.4044 H   0  0  0  0  0  0
  -33.8057  -16.3145   23.1499 H   0  0  0  0  0  0
  -33.4189  -17.8666   22.4414 H   0  0  0  0  0  0
  -29.4735  -15.8027   21.9391 H   0  0  0  0  0  0
  -28.9255  -16.9141   21.1107 H   0  0  0  0  0  0
  -29.2754  -20.3808   19.3386 H   0  0  0  0  0  0
  -28.3654  -20.1185   20.7649 H   0  0  0  0  0  0
  -28.0486  -18.0761   18.0632 H   0  0  0  0  0  0
  -26.9767  -17.8824   19.3878 H   0  0  0  0  0  0
  -26.6343  -22.3690   20.1107 H   0  0  0  0  0  0
  -27.4220  -22.5745   18.6053 H   0  0  0  0  0  0
  -31.5724  -16.5198   20.0086 H   0  0  0  0  0  0
  -31.3387  -16.8032   23.0871 H   0  0  0  0  0  0
  -30.9028  -14.6246   22.9631 H   0  0  0  0  0  0
  1 25  1  0  0  0
  1 30  2  0  0  0
  1 86  1  0  0  0
  2  3  1  0  0  0
  2 25  1  0  0  0
  2 87  1  0  0  0
  2 88  1  0  0  0
  3  4  1  0  0  0
  3 89  1  0  0  0
  3 90  1  0  0  0
  4  5  1  0  0  0
  4 91  1  0  0  0
  4 92  1  0  0  0
  5  6  1  0  0  0
  5 26  1  0  0  0
  5 93  1  0  0  0
  6 25  1  0  0  0
  6 94  1  0  0  0
  6 95  1  0  0  0
  7  8  2  0  0  0
  7 26  1  0  0  0
  7 29  1  0  0  0
  8  9  1  0  0  0
  8 22  1  0  0  0
  9 10  1  0  0  0
  9 27  2  0  0  0
 10 11  2  0  0  0
 10 15  1  0  0  0
 11 12  1  0  0  0
 11 96  1  0  0  0
 12 13  2  0  0  0
 12 97  1  0  0  0
 13 14  1  0  0  0
 13 31  1  0  0  0
 14 15  2  0  0  0
 14 98  1  0  0  0
 15 99  1  0  0  0
 16 17  2  0  0  0
 16 21  1  0  0  0
 16 31  1  0  0  0
 17 18  1  0  0  0
 17100  1  0  0  0
 18 19  2  0  0  0
 18101  1  0  0  0
 19 20  1  0  0  0
 19 24  1  0  0  0
 20 21  2  0  0  0
 20102  1  0  0  0
 21 23  1  0  0  0
 22 28  1  0  0  0
 22 32  2  0  0  0
 26 27  1  0  0  0
 28103  1  0  0  0
 28104  1  0  0  0
 29105  1  0  0  0
 29106  1  0  0  0
 33 34  1  0  0  0
 33 66  1  0  0  0
 33 70  2  0  0  0
 34 36  1  0  0  0
 34 59  1  0  0  0
 34107  1  0  0  0
 35 44  2  0  0  0
 35 45  1  0  0  0
 35 68  1  0  0  0
 36 56  1  0  0  0
 36108  1  0  0  0
 37 39  1  0  0  0
 37 47  1  0  0  0
 37 66  1  0  0  0
 37109  1  0  0  0
 38 43  2  0  0  0
 38 46  1  0  0  0
 38 47  1  0  0  0
 39 64  1  0  0  0
 39 67  2  0  0  0
 40 52  1  0  0  0
 40 53  2  0  0  0
 40 58  1  0  0  0
 41110  1  0  0  0
 41111  1  0  0  0
 41112  1  0  0  0
 41 48  1  0  0  0
 42 43  1  0  0  0
 42 66  1  0  0  0
 42113  1  0  0  0
 42114  1  0  0  0
 43 44  1  0  0  0
 44115  1  0  0  0
 45 46  2  0  0  0
 45116  1  0  0  0
 46117  1  0  0  0
 47118  1  0  0  0
 47119  1  0  0  0
 48 56  1  0  0  0
 48 65  1  0  0  0
 48120  1  0  0  0
 49 50  1  0  0  0
 49 53  1  0  0  0
 49 64  1  0  0  0
 49121  1  0  0  0
 50 51  1  0  0  0
 50122  1  0  0  0
 50123  1  0  0  0
 51 52  1  0  0  0
 51124  1  0  0  0
 51125  1  0  0  0
 52126  1  0  0  0
 52127  1  0  0  0
 53 54  1  0  0  0
 54 55  2  0  0  0
 54128  1  0  0  0
 55 57  1  0  0  0
 55129  1  0  0  0
 56 69  2  0  0  0
 57 58  2  0  0  0
 57130  1  0  0  0
 58131  1  0  0  0
 59 60  1  0  0  0
 59 61  1  0  0  0
 59 62  1  0  0  0
 60132  1  0  0  0
 60133  1  0  0  0
 60134  1  0  0  0
 61135  1  0  0  0
 61136  1  0  0  0
 61137  1  0  0  0
 62138  1  0  0  0
 62139  1  0  0  0
 62140  1  0  0  0
 63 65  1  0  0  0
 63141  1  0  0  0
 63142  1  0  0  0
 63143  1  0  0  0
 64144  1  0  0  0
 65145  1  0  0  0
 68 82  1  0  0  0
 71 72  2  0  0  0
 71 85  1  0  0  0
 71146  1  0  0  0
 72 73  1  0  0  0
 72 75  1  0  0  0
 73 74  2  0  0  0
 73 76  1  0  0  0
 74 79  1  0  0  0
 74 85  1  0  0  0
 75147  1  0  0  0
 75148  1  0  0  0
 75149  1  0  0  0
 76150  1  0  0  0
 76151  1  0  0  0
 76152  1  0  0  0
 77153  1  0  0  0
 77154  1  0  0  0
 77155  1  0  0  0
 77 83  1  0  0  0
 78156  1  0  0  0
 78157  1  0  0  0
 78158  1  0  0  0
 78 84  1  0  0  0
 79 83  1  0  0  0
 79159  1  0  0  0
 79160  1  0  0  0
 80 81  1  0  0  0
 80 82  1  0  0  0
 80161  1  0  0  0
 80162  1  0  0  0
 81 85  1  0  0  0
 81163  1  0  0  0
 81164  1  0  0  0
 82165  1  0  0  0
 82166  1  0  0  0
 83 84  1  0  0  0
 83167  1  0  0  0
 84 86  1  0  0  0
 84168  1  0  0  0
 86169  1  0  0  0
M  ISO  4   1 100  68 101  82 101  86 100
M  END
> <chiral flag>
0

> <version>
0

> <s_m_source_file>
/data/baiqing/PycharmProjects/Reinvent-master-3.2/result/LINK_invent/BTK/process_docking_weight1_custom_sum_contain_oxygen_bond_distance_aromatic_linkinvent_7_9_3/rearranged_h_0079.sdf

> <i_m_source_file_index>
3

> <r_mmod_Potential_Energy-OPLS-2005>
19700.755859375

> <r_mmod_Stretch_Energy-OPLS-2005>
9908.0947265625

> <r_mmod_Bend_Energy-OPLS-2005>
2872.77954101562

> <r_mmod_Torsional_Energy-OPLS-2005>
451.744079589844

> <r_mmod_Improper_Torsional_Energy-OPLS-2005>
46.4389762878418

> <r_mmod_Van_der_Waal_Energy-OPLS-2005>
3342.00073242188

> <r_mmod_Electrostatic_Energy-OPLS-2005>
-386.933441162109

> <r_mmod_Solvation_Energy-OPLS-2005>
-206.437377929688

> <b_mmod_Minimization_Converged-OPLS-2005>
0

> <r_mmod_RMS_Derivative-OPLS-2005>
7.7598443031311

$$$$
3
                    3D
 Structure written by MMmdl.
158166  0  0  1  0            999 V2000
  -30.5138  -14.8257   20.5902 C   0  0  0  0  0  0
  -30.4126  -12.5062   19.5737 C   0  0  0  0  0  0
  -29.5383  -12.5321   18.3006 C   0  0  0  0  0  0
  -28.0560  -12.3030   18.6672 C   0  0  0  0  0  0
  -27.6140  -13.2205   19.8428 C   0  0  2  0  0  0
  -28.6126  -13.1944   21.0243 C   0  0  0  0  0  0
  -25.2084  -13.7831   20.5064 C   0  0  0  0  0  0
  -24.1559  -13.0171   20.9086 C   0  0  0  0  0  0
  -24.6291  -11.6731   20.8762 C   0  0  0  0  0  0
  -23.9006  -10.4169   21.0400 C   0  0  0  0  0  0
  -24.3606   -9.4133   21.9177 C   0  0  0  0  0  0
  -23.6291   -8.2190   22.0743 C   0  0  0  0  0  0
  -22.4272   -8.0237   21.3540 C   0  0  0  0  0  0
  -21.9852   -9.0171   20.4635 C   0  0  0  0  0  0
  -22.7169  -10.2052   20.3032 C   0  0  0  0  0  0
  -21.6819   -6.0720   22.5288 C   0  0  0  0  0  0
  -21.4024   -6.5622   23.8227 C   0  0  0  0  0  0
  -21.3682   -5.6774   24.9181 C   0  0  0  0  0  0
  -21.6051   -4.3034   24.7235 C   0  0  0  0  0  0
  -21.8815   -3.8141   23.4349 C   0  0  0  0  0  0
  -21.9194   -4.6959   22.3413 C   0  0  0  0  0  0
  -22.7639  -13.5013   21.1937 C   0  0  0  0  0  0
  -22.1657   -4.2146   21.0986 F   0  0  0  0  0  0
  -21.5619   -3.4517   25.7750 F   0  0  0  0  0  0
  -29.9169  -13.5788   20.4743 N   0  0  0  0  0  0
  -26.2654  -12.9201   20.2925 N   0  0  0  0  0  0
  -25.9213  -11.6380   20.5719 N   0  0  0  0  0  0
  -22.0423  -12.8003   22.0603 N   0  0  0  0  0  0
  -25.3116  -15.1354   20.2785 N   0  0  0  0  0  0
  -31.7140  -14.9255   20.3066 O   0  0  0  0  0  0
  -21.6641   -6.8844   21.4241 O   0  0  0  0  0  0
  -22.3270  -14.5304   20.6843 O   0  0  0  0  0  0
  -24.6258  -31.8571   23.1997 C   0  0  0  0  0  0
  -25.9083  -32.4702   23.8412 C   0  0  1  0  0  0
  -27.2273  -27.2561   20.2398 C   0  0  0  0  0  0
  -25.5910  -33.8522   24.2264 N   0  0  0  0  0  0
  -23.4219  -30.4737   21.5387 C   0  0  2  0  0  0
  -24.8886  -28.9299   20.0986 C   0  0  0  0  0  0
  -22.7453  -29.4644   22.4896 C   0  0  0  0  0  0
  -18.0161  -28.1292   22.8608 C   0  0  0  0  0  0
  -24.1448  -36.7255   23.2673 C   0  0  0  0  0  0
  -25.9656  -30.7729   21.3960 C   0  0  0  0  0  0
  -26.0470  -29.4007   20.7351 C   0  0  0  0  0  0
  -27.2155  -28.5772   20.7816 C   0  0  0  0  0  0
  -26.0576  -26.8491   19.5526 C   0  0  0  0  0  0
  -24.9080  -27.6677   19.4806 C   0  0  0  0  0  0
  -23.6513  -29.8105   20.1519 C   0  0  0  0  0  0
  -25.4109  -36.3051   24.0329 C   0  0  1  0  0  0
  -20.5828  -28.3769   23.1351 C   0  0  2  0  0  0
  -20.6793  -26.9483   22.5455 C   0  0  0  0  0  0
  -19.5559  -26.6239   21.5443 C   0  0  0  0  0  0
  -18.1862  -26.7794   22.1884 C   0  0  0  0  0  0
  -19.1475  -28.8839   23.2858 C   0  0  0  0  0  0
  -18.9302  -30.1512   23.8777 C   0  0  0  0  0  0
  -17.6353  -30.6544   24.0559 C   0  0  0  0  0  0
  -25.9065  -34.9392   23.5178 C   0  0  0  0  0  0
  -16.5206  -29.9011   23.6373 C   0  0  0  0  0  0
  -16.7234  -28.6398   23.0467 C   0  0  0  0  0  0
  -26.4454  -31.6556   25.0797 C   0  0  0  0  0  0
  -25.3674  -31.3691   26.1481 C   0  0  0  0  0  0
  -27.0346  -30.2966   24.6385 C   0  0  0  0  0  0
  -27.6066  -32.4350   25.7453 C   0  0  0  0  0  0
  -27.5563  -37.1758   24.8481 C   0  0  0  0  0  0
  -21.4128  -29.3183   22.3700 N   0  0  0  0  0  0
  -26.4289  -37.3758   23.9436 N   0  0  0  0  0  0
  -24.6813  -31.0629   22.0986 N   0  0  0  0  0  0
  -23.4105  -28.8236   23.3057 O   0  0  0  0  0  0
  -28.3329  -26.3795   20.3387 O   0  0  0  0  0  0
  -26.5680  -34.8822   22.4739 O   0  0  0  0  0  0
  -23.5351  -32.1388   23.7225 O   0  0  0  0  0  0
  -26.9286  -19.8665   20.8332 C   0  0  0  0  0  0
  -27.6559  -21.0593   20.7741 C   0  0  0  0  0  0
  -27.5771  -18.6598   21.1916 C   0  0  0  0  0  0
  -29.0117  -21.0686   21.1017 C   0  0  0  0  0  0
  -28.9931  -18.6122   21.3497 C   0  0  0  0  0  0
  -26.6909  -17.4464   21.4569 C   0  0  0  0  0  0
  -31.0980  -17.3735   22.3856 C   0  0  0  0  0  0
  -29.6755  -22.5041   21.3290 C   0  0  0  0  0  0
  -29.2417  -23.8703   20.5282 C   0  0  0  0  0  0
  -28.1912  -25.0218   20.9870 C   0  0  0  0  0  0
  -29.7341  -17.1989   21.6916 C   0  0  2  0  0  0
  -29.6634  -19.8462   21.3371 N   0  0  0  0  0  0
  -29.7023  -15.9707   20.7241 N   0  0  0  0  0  0
  -31.4753  -12.6041   19.3555 H   0  0  0  0  0  0
  -30.3355  -11.5198   20.0425 H   0  0  0  0  0  0
  -29.8693  -11.7845   17.5847 H   0  0  0  0  0  0
  -29.6546  -13.5095   17.8344 H   0  0  0  0  0  0
  -27.9372  -11.2517   18.9423 H   0  0  0  0  0  0
  -27.4069  -12.4423   17.8001 H   0  0  0  0  0  0
  -27.6071  -14.2334   19.4384 H   0  0  0  0  0  0
  -28.6341  -12.2032   21.4903 H   0  0  0  0  0  0
  -28.2849  -13.8673   21.8224 H   0  0  0  0  0  0
  -25.2760   -9.5619   22.4719 H   0  0  0  0  0  0
  -24.0059   -7.4560   22.7402 H   0  0  0  0  0  0
  -21.0792   -8.8628   19.8923 H   0  0  0  0  0  0
  -22.3604  -10.9602   19.6146 H   0  0  0  0  0  0
  -21.2016   -7.6124   23.9739 H   0  0  0  0  0  0
  -21.1495   -6.0489   25.9078 H   0  0  0  0  0  0
  -22.0585   -2.7611   23.2810 H   0  0  0  0  0  0
  -22.4218  -11.9608   22.4741 H   0  0  0  0  0  0
  -21.1077  -13.0949   22.3054 H   0  0  0  0  0  0
  -24.4908  -15.7257   20.3764 H   0  0  0  0  0  0
  -26.1054  -15.6140   19.8721 H   0  0  0  0  0  0
  -26.7293  -32.5334   23.1288 H   0  0  0  0  0  0
  -24.9801  -33.9639   25.0216 H   0  0  0  0  0  0
  -22.7046  -31.2842   21.3822 H   0  0  0  0  0  0
  -23.3710  -35.9585   23.3347 H   0  0  0  0  0  0
  -24.3606  -36.8860   22.2105 H   0  0  0  0  0  0
  -23.7063  -37.6411   23.6673 H   0  0  0  0  0  0
  -26.1301  -31.5501   20.6458 H   0  0  0  0  0  0
  -26.8154  -30.7969   22.0598 H   0  0  0  0  0  0
  -28.0903  -28.9306   21.3058 H   0  0  0  0  0  0
  -26.0259  -25.8665   19.1016 H   0  0  0  0  0  0
  -24.0311  -27.3089   18.9619 H   0  0  0  0  0  0
  -23.7624  -30.5991   19.4023 H   0  0  0  0  0  0
  -22.7845  -29.2136   19.8590 H   0  0  0  0  0  0
  -25.1235  -36.2016   25.0821 H   0  0  0  0  0  0
  -21.0031  -28.3357   24.1501 H   0  0  0  0  0  0
  -20.5863  -26.2401   23.3792 H   0  0  0  0  0  0
  -21.6712  -26.7668   22.1141 H   0  0  0  0  0  0
  -19.6429  -25.6017   21.1837 H   0  0  0  0  0  0
  -19.6155  -27.2760   20.6633 H   0  0  0  0  0  0
  -17.4161  -26.6198   21.4255 H   0  0  0  0  0  0
  -18.0286  -26.0036   22.9487 H   0  0  0  0  0  0
  -19.7807  -30.7390   24.1949 H   0  0  0  0  0  0
  -17.4773  -31.6349   24.4981 H   0  0  0  0  0  0
  -15.5207  -30.2826   23.7462 H   0  0  0  0  0  0
  -15.8683  -28.0661   22.7252 H   0  0  0  0  0  0
  -24.5883  -30.7064   25.7692 H   0  0  0  0  0  0
  -24.8786  -32.2800   26.4953 H   0  0  0  0  0  0
  -25.7913  -30.8770   27.0237 H   0  0  0  0  0  0
  -26.2978  -29.6711   24.1303 H   0  0  0  0  0  0
  -27.3847  -29.7273   25.5010 H   0  0  0  0  0  0
  -27.8938  -30.4211   23.9780 H   0  0  0  0  0  0
  -27.2786  -33.3686   26.2032 H   0  0  0  0  0  0
  -28.3726  -32.6910   25.0135 H   0  0  0  0  0  0
  -28.0896  -31.8523   26.5279 H   0  0  0  0  0  0
  -28.2560  -38.0067   24.7543 H   0  0  0  0  0  0
  -28.1043  -36.2596   24.6285 H   0  0  0  0  0  0
  -27.2317  -37.1345   25.8888 H   0  0  0  0  0  0
  -20.9227  -29.9602   21.7752 H   0  0  0  0  0  0
  -26.0193  -38.2825   24.1541 H   0  0  0  0  0  0
  -25.8625  -19.9192   20.6391 H   0  0  0  0  0  0
  -27.1527  -21.9823   20.5260 H   0  0  0  0  0  0
  -27.2261  -16.5147   21.2512 H   0  0  0  0  0  0
  -25.7817  -17.5004   20.8527 H   0  0  0  0  0  0
  -26.3629  -17.4146   22.4901 H   0  0  0  0  0  0
  -31.0491  -18.1212   23.1837 H   0  0  0  0  0  0
  -31.8628  -17.6722   21.6784 H   0  0  0  0  0  0
  -31.4283  -16.4347   22.8366 H   0  0  0  0  0  0
  -30.7327  -22.3417   21.0786 H   0  0  0  0  0  0
  -29.6928  -22.7269   22.4057 H   0  0  0  0  0  0
  -29.0672  -23.6123   19.4866 H   0  0  0  0  0  0
  -30.1630  -24.4597   20.5045 H   0  0  0  0  0  0
  -28.3225  -25.1728   22.0655 H   0  0  0  0  0  0
  -27.1573  -24.6684   20.9017 H   0  0  0  0  0  0
  -29.1169  -16.8587   22.5310 H   0  0  0  0  0  0
  -29.3343  -16.2385   19.8078 H   0  0  0  0  0  0
  1 25  1  0  0  0
  1 30  2  0  0  0
  1 83  1  0  0  0
  2  3  1  0  0  0
  2 25  1  0  0  0
  2 84  1  0  0  0
  2 85  1  0  0  0
  3  4  1  0  0  0
  3 86  1  0  0  0
  3 87  1  0  0  0
  4  5  1  0  0  0
  4 88  1  0  0  0
  4 89  1  0  0  0
  5  6  1  0  0  0
  5 26  1  0  0  0
  5 90  1  0  0  0
  6 25  1  0  0  0
  6 91  1  0  0  0
  6 92  1  0  0  0
  7  8  2  0  0  0
  7 26  1  0  0  0
  7 29  1  0  0  0
  8  9  1  0  0  0
  8 22  1  0  0  0
  9 10  1  0  0  0
  9 27  2  0  0  0
 10 11  2  0  0  0
 10 15  1  0  0  0
 11 12  1  0  0  0
 11 93  1  0  0  0
 12 13  2  0  0  0
 12 94  1  0  0  0
 13 14  1  0  0  0
 13 31  1  0  0  0
 14 15  2  0  0  0
 14 95  1  0  0  0
 15 96  1  0  0  0
 16 17  2  0  0  0
 16 21  1  0  0  0
 16 31  1  0  0  0
 17 18  1  0  0  0
 17 97  1  0  0  0
 18 19  2  0  0  0
 18 98  1  0  0  0
 19 20  1  0  0  0
 19 24  1  0  0  0
 20 21  2  0  0  0
 20 99  1  0  0  0
 21 23  1  0  0  0
 22 28  1  0  0  0
 22 32  2  0  0  0
 26 27  1  0  0  0
 28100  1  0  0  0
 28101  1  0  0  0
 29102  1  0  0  0
 29103  1  0  0  0
 33 34  1  0  0  0
 33 66  1  0  0  0
 33 70  2  0  0  0
 34 36  1  0  0  0
 34 59  1  0  0  0
 34104  1  0  0  0
 35 44  2  0  0  0
 35 45  1  0  0  0
 35 68  1  0  0  0
 36 56  1  0  0  0
 36105  1  0  0  0
 37 39  1  0  0  0
 37 47  1  0  0  0
 37 66  1  0  0  0
 37106  1  0  0  0
 38 43  2  0  0  0
 38 46  1  0  0  0
 38 47  1  0  0  0
 39 64  1  0  0  0
 39 67  2  0  0  0
 40 52  1  0  0  0
 40 53  2  0  0  0
 40 58  1  0  0  0
 41107  1  0  0  0
 41108  1  0  0  0
 41109  1  0  0  0
 41 48  1  0  0  0
 42 43  1  0  0  0
 42 66  1  0  0  0
 42110  1  0  0  0
 42111  1  0  0  0
 43 44  1  0  0  0
 44112  1  0  0  0
 45 46  2  0  0  0
 45113  1  0  0  0
 46114  1  0  0  0
 47115  1  0  0  0
 47116  1  0  0  0
 48 56  1  0  0  0
 48 65  1  0  0  0
 48117  1  0  0  0
 49 50  1  0  0  0
 49 53  1  0  0  0
 49 64  1  0  0  0
 49118  1  0  0  0
 50 51  1  0  0  0
 50119  1  0  0  0
 50120  1  0  0  0
 51 52  1  0  0  0
 51121  1  0  0  0
 51122  1  0  0  0
 52123  1  0  0  0
 52124  1  0  0  0
 53 54  1  0  0  0
 54 55  2  0  0  0
 54125  1  0  0  0
 55 57  1  0  0  0
 55126  1  0  0  0
 56 69  2  0  0  0
 57 58  2  0  0  0
 57127  1  0  0  0
 58128  1  0  0  0
 59 60  1  0  0  0
 59 61  1  0  0  0
 59 62  1  0  0  0
 60129  1  0  0  0
 60130  1  0  0  0
 60131  1  0  0  0
 61132  1  0  0  0
 61133  1  0  0  0
 61134  1  0  0  0
 62135  1  0  0  0
 62136  1  0  0  0
 62137  1  0  0  0
 63 65  1  0  0  0
 63138  1  0  0  0
 63139  1  0  0  0
 63140  1  0  0  0
 64141  1  0  0  0
 65142  1  0  0  0
 68 80  1  0  0  0
 71 72  2  0  0  0
 71 73  1  0  0  0
 71143  1  0  0  0
 72 74  1  0  0  0
 72144  1  0  0  0
 73 75  2  0  0  0
 73 76  1  0  0  0
 74 78  1  0  0  0
 74 82  2  0  0  0
 75 81  1  0  0  0
 75 82  1  0  0  0
 76145  1  0  0  0
 76146  1  0  0  0
 76147  1  0  0  0
 77148  1  0  0  0
 77149  1  0  0  0
 77150  1  0  0  0
 77 81  1  0  0  0
 78 79  1  0  0  0
 78151  1  0  0  0
 78152  1  0  0  0
 79 80  1  0  0  0
 79153  1  0  0  0
 79154  1  0  0  0
 80155  1  0  0  0
 80156  1  0  0  0
 81 83  1  0  0  0
 81157  1  0  0  0
 83158  1  0  0  0
M  ISO  4   1 100  68 101  80 101  83 100
M  END
> <chiral flag>
0

> <version>
0

> <s_m_source_file>
/data/baiqing/PycharmProjects/Reinvent-master-3.2/result/LINK_invent/BTK/process_docking_weight1_custom_sum_contain_oxygen_bond_distance_aromatic_linkinvent_7_9_3/rearranged_h_0079.sdf

> <i_m_source_file_index>
4

> <r_mmod_Potential_Energy-OPLS-2005>
116.216896057129

> <r_mmod_Stretch_Energy-OPLS-2005>
163.529495239258

> <r_mmod_Bend_Energy-OPLS-2005>
219.960342407227

> <r_mmod_Torsional_Energy-OPLS-2005>
308.097290039062

> <r_mmod_Improper_Torsional_Energy-OPLS-2005>
11.0416650772095

> <r_mmod_Van_der_Waal_Energy-OPLS-2005>
141.699951171875

> <r_mmod_Electrostatic_Energy-OPLS-2005>
-641.794372558594

> <r_mmod_Solvation_Energy-OPLS-2005>
-216.346527099609

> <b_mmod_Minimization_Converged-OPLS-2005>
0

> <r_mmod_RMS_Derivative-OPLS-2005>
17.3648414611816

$$$$
4
                    3D
 Structure written by MMmdl.
162170  0  0  1  0            999 V2000
  -30.6032  -14.7147   20.4481 C   0  0  0  0  0  0
  -30.4338  -12.4265   19.4783 C   0  0  0  0  0  0
  -29.5119  -12.5040   18.2398 C   0  0  0  0  0  0
  -28.0358  -12.3369   18.6498 C   0  0  0  0  0  0
  -27.6478  -13.2262   19.8612 C   0  0  2  0  0  0
  -28.6919  -13.1342   20.9979 C   0  0  0  0  0  0
  -25.2533  -13.8184   20.5698 C   0  0  0  0  0  0
  -24.1815  -13.0439   20.9202 C   0  0  0  0  0  0
  -24.6401  -11.6914   20.8752 C   0  0  0  0  0  0
  -23.9077  -10.4292   21.0412 C   0  0  0  0  0  0
  -24.3623   -9.4205   21.9189 C   0  0  0  0  0  0
  -23.6294   -8.2239   22.0758 C   0  0  0  0  0  0
  -22.4276   -8.0282   21.3547 C   0  0  0  0  0  0
  -21.9918   -9.0255   20.4650 C   0  0  0  0  0  0
  -22.7250  -10.2134   20.3061 C   0  0  0  0  0  0
  -21.6852   -6.0738   22.5278 C   0  0  0  0  0  0
  -21.4012   -6.5641   23.8212 C   0  0  0  0  0  0
  -21.3660   -5.6792   24.9174 C   0  0  0  0  0  0
  -21.6043   -4.3055   24.7222 C   0  0  0  0  0  0
  -21.8821   -3.8148   23.4344 C   0  0  0  0  0  0
  -21.9191   -4.6967   22.3400 C   0  0  0  0  0  0
  -22.7839  -13.5223   21.1857 C   0  0  0  0  0  0
  -22.1661   -4.2150   21.0979 F   0  0  0  0  0  0
  -21.5629   -3.4541   25.7738 F   0  0  0  0  0  0
  -30.0000  -13.4789   20.4266 N   0  0  0  0  0  0
  -26.2967  -12.9383   20.3327 N   0  0  0  0  0  0
  -25.9334  -11.6530   20.5779 N   0  0  0  0  0  0
  -22.0483  -12.8213   22.0410 N   0  0  0  0  0  0
  -25.4225  -15.1910   20.4108 N   0  0  0  0  0  0
  -31.7701  -14.8431   20.0679 O   0  0  0  0  0  0
  -21.6638   -6.8881   21.4241 O   0  0  0  0  0  0
  -22.3528  -14.5532   20.6709 O   0  0  0  0  0  0
  -24.6288  -31.8543   23.1959 C   0  0  0  0  0  0
  -25.9121  -32.4741   23.8302 C   0  0  1  0  0  0
  -27.2251  -27.2769   20.1207 C   0  0  0  0  0  0
  -25.5926  -33.8543   24.2231 N   0  0  0  0  0  0
  -23.4238  -30.4753   21.5384 C   0  0  2  0  0  0
  -24.8723  -28.9223   20.1018 C   0  0  0  0  0  0
  -22.7479  -29.4592   22.4896 C   0  0  0  0  0  0
  -18.0279  -28.1382   22.8465 C   0  0  0  0  0  0
  -24.1487  -36.7287   23.2638 C   0  0  0  0  0  0
  -25.9661  -30.7721   21.3711 C   0  0  0  0  0  0
  -26.0393  -29.3954   20.7131 C   0  0  0  0  0  0
  -27.2142  -28.5833   20.7129 C   0  0  0  0  0  0
  -26.0386  -26.8664   19.4734 C   0  0  0  0  0  0
  -24.8764  -27.6657   19.4728 C   0  0  0  0  0  0
  -23.6403  -29.8054   20.1542 C   0  0  0  0  0  0
  -25.4111  -36.3060   24.0320 C   0  0  1  0  0  0
  -20.5879  -28.3694   23.1265 C   0  0  2  0  0  0
  -20.6775  -26.9414   22.5405 C   0  0  0  0  0  0
  -19.5765  -26.6377   21.5196 C   0  0  0  0  0  0
  -18.1935  -26.7921   22.1602 C   0  0  0  0  0  0
  -19.1533  -28.8849   23.2856 C   0  0  0  0  0  0
  -18.9468  -30.1447   23.8883 C   0  0  0  0  0  0
  -17.6472  -30.6588   24.0561 C   0  0  0  0  0  0
  -25.9056  -34.9433   23.5083 C   0  0  0  0  0  0
  -16.5358  -29.9091   23.6331 C   0  0  0  0  0  0
  -16.7269  -28.6508   23.0344 C   0  0  0  0  0  0
  -26.4499  -31.6562   25.0688 C   0  0  0  0  0  0
  -25.3728  -31.3703   26.1416 C   0  0  0  0  0  0
  -27.0359  -30.2983   24.6157 C   0  0  0  0  0  0
  -27.6042  -32.4306   25.7475 C   0  0  0  0  0  0
  -27.5571  -37.1795   24.8462 C   0  0  0  0  0  0
  -21.4188  -29.3043   22.3654 N   0  0  0  0  0  0
  -26.4284  -37.3763   23.9406 N   0  0  0  0  0  0
  -24.6919  -31.0521   22.0920 N   0  0  0  0  0  0
  -23.4187  -28.8131   23.2987 O   0  0  0  0  0  0
  -28.3434  -26.4233   20.2350 O   0  0  0  0  0  0
  -26.5636  -34.8916   22.4653 O   0  0  0  0  0  0
  -23.5451  -32.1361   23.7273 O   0  0  0  0  0  0
  -28.0352  -23.8124   20.8461 C   0  0  0  0  0  0
  -27.1220  -23.9921   21.9390 C   0  0  0  0  0  0
  -28.4143  -22.4402   20.9770 C   0  0  0  0  0  0
  -26.3779  -25.2129   22.4044 C   0  0  0  0  0  0
  -27.7575  -20.6705   22.7293 C   0  0  0  0  0  0
  -28.3855  -24.9764   19.8259 C   0  0  0  0  0  0
  -29.4407  -21.4484   20.3190 C   0  0  0  0  0  0
  -29.6093  -18.5990   20.6880 C   0  0  0  0  0  0
  -29.8489  -17.1750   19.9369 C   0  0  0  0  0  0
  -29.1004  -19.9152   19.8502 C   0  0  2  0  0  0
  -26.9358  -22.8982   22.6439 N   0  0  0  0  0  0
  -27.7230  -21.9713   22.0871 N   0  0  0  0  0  0
  -29.7994  -15.8240   20.6516 N   0  0  0  0  0  0
  -29.5649  -19.7753   18.4525 N   0  3  0  0  0  0
  -31.4768  -12.5425   19.1790 H   0  0  0  0  0  0
  -30.3672  -11.4430   19.9468 H   0  0  0  0  0  0
  -29.7863  -11.7365   17.5150 H   0  0  0  0  0  0
  -29.6478  -13.4628   17.7370 H   0  0  0  0  0  0
  -27.8825  -11.2865   18.9003 H   0  0  0  0  0  0
  -27.3809  -12.5449   17.8029 H   0  0  0  0  0  0
  -27.6508  -14.2525   19.4938 H   0  0  0  0  0  0
  -28.7160  -12.1293   21.4218 H   0  0  0  0  0  0
  -28.4337  -13.8036   21.8198 H   0  0  0  0  0  0
  -25.2768   -9.5673   22.4770 H   0  0  0  0  0  0
  -23.9996   -7.4632   22.7483 H   0  0  0  0  0  0
  -21.0847   -8.8782   19.8956 H   0  0  0  0  0  0
  -22.3712  -10.9677   19.6172 H   0  0  0  0  0  0
  -21.2006   -7.6148   23.9715 H   0  0  0  0  0  0
  -21.1480   -6.0524   25.9076 H   0  0  0  0  0  0
  -22.0600   -2.7612   23.2845 H   0  0  0  0  0  0
  -22.4098  -11.9864   22.4782 H   0  0  0  0  0  0
  -21.1106  -13.1242   22.2629 H   0  0  0  0  0  0
  -24.6528  -15.8422   20.5211 H   0  0  0  0  0  0
  -26.2660  -15.6309   20.0672 H   0  0  0  0  0  0
  -26.7179  -32.5400   23.1037 H   0  0  0  0  0  0
  -25.0061  -33.9667   25.0371 H   0  0  0  0  0  0
  -22.7198  -31.2970   21.3903 H   0  0  0  0  0  0
  -23.3745  -35.9627   23.3298 H   0  0  0  0  0  0
  -24.3567  -36.8922   22.2053 H   0  0  0  0  0  0
  -23.7259  -37.6488   23.6678 H   0  0  0  0  0  0
  -26.0977  -31.5330   20.6001 H   0  0  0  0  0  0
  -26.8463  -30.8243   22.0009 H   0  0  0  0  0  0
  -28.1061  -28.9359   21.2119 H   0  0  0  0  0  0
  -25.9708  -25.8991   18.9996 H   0  0  0  0  0  0
  -23.9804  -27.2970   18.9924 H   0  0  0  0  0  0
  -23.7584  -30.5806   19.3961 H   0  0  0  0  0  0
  -22.7595  -29.2352   19.8532 H   0  0  0  0  0  0
  -25.1298  -36.1897   25.0815 H   0  0  0  0  0  0
  -20.9957  -28.3282   24.1391 H   0  0  0  0  0  0
  -20.5656  -26.2307   23.3607 H   0  0  0  0  0  0
  -21.6650  -26.7439   22.1217 H   0  0  0  0  0  0
  -19.6940  -25.6282   21.1242 H   0  0  0  0  0  0
  -19.6716  -27.3169   20.6713 H   0  0  0  0  0  0
  -17.4204  -26.6633   21.4009 H   0  0  0  0  0  0
  -18.0359  -26.0070   22.9011 H   0  0  0  0  0  0
  -19.7952  -30.7248   24.2256 H   0  0  0  0  0  0
  -17.5045  -31.6273   24.5158 H   0  0  0  0  0  0
  -15.5363  -30.3003   23.7676 H   0  0  0  0  0  0
  -15.8658  -28.0842   22.7069 H   0  0  0  0  0  0
  -24.5909  -30.7042   25.7752 H   0  0  0  0  0  0
  -24.8912  -32.2869   26.4833 H   0  0  0  0  0  0
  -25.8053  -30.8895   27.0200 H   0  0  0  0  0  0
  -26.2949  -29.6700   24.1199 H   0  0  0  0  0  0
  -27.4079  -29.7266   25.4670 H   0  0  0  0  0  0
  -27.8799  -30.4261   23.9374 H   0  0  0  0  0  0
  -27.2641  -33.3615   26.2024 H   0  0  0  0  0  0
  -28.3877  -32.6844   25.0323 H   0  0  0  0  0  0
  -28.0679  -31.8444   26.5419 H   0  0  0  0  0  0
  -28.2582  -38.0098   24.7512 H   0  0  0  0  0  0
  -28.1074  -36.2626   24.6290 H   0  0  0  0  0  0
  -27.2286  -37.1453   25.8864 H   0  0  0  0  0  0
  -20.9362  -29.8785   21.6884 H   0  0  0  0  0  0
  -26.0158  -38.2834   24.1412 H   0  0  0  0  0  0
  -27.0456  -26.0651   22.5203 H   0  0  0  0  0  0
  -25.9097  -25.0560   23.3767 H   0  0  0  0  0  0
  -25.5796  -25.4793   21.7140 H   0  0  0  0  0  0
  -28.7897  -20.3489   22.8657 H   0  0  0  0  0  0
  -27.2146  -19.9445   22.1243 H   0  0  0  0  0  0
  -27.2874  -20.7109   23.7131 H   0  0  0  0  0  0
  -27.8211  -24.8454   18.9042 H   0  0  0  0  0  0
  -29.4137  -24.8278   19.4975 H   0  0  0  0  0  0
  -30.2973  -21.3847   20.9905 H   0  0  0  0  0  0
  -29.8452  -21.9875   19.4620 H   0  0  0  0  0  0
  -30.5432  -18.8575   21.1884 H   0  0  0  0  0  0
  -28.9010  -18.4241   21.4962 H   0  0  0  0  0  0
  -30.7888  -17.2349   19.3855 H   0  0  0  0  0  0
  -29.0806  -17.0854   19.1685 H   0  0  0  0  0  0
  -28.0142  -19.8451   19.7737 H   0  0  0  0  0  0
  -28.8975  -15.5895   21.0397 H   0  0  0  0  0  0
  -30.5678  -19.8098   18.3913 H   0  0  0  0  0  0
  -29.1933  -20.5180   17.8859 H   0  0  0  0  0  0
  -29.2463  -18.9128   18.0495 H   0  0  0  0  0  0
  1 25  1  0  0  0
  1 30  2  0  0  0
  1 83  1  0  0  0
  2  3  1  0  0  0
  2 25  1  0  0  0
  2 85  1  0  0  0
  2 86  1  0  0  0
  3  4  1  0  0  0
  3 87  1  0  0  0
  3 88  1  0  0  0
  4  5  1  0  0  0
  4 89  1  0  0  0
  4 90  1  0  0  0
  5  6  1  0  0  0
  5 26  1  0  0  0
  5 91  1  0  0  0
  6 25  1  0  0  0
  6 92  1  0  0  0
  6 93  1  0  0  0
  7  8  2  0  0  0
  7 26  1  0  0  0
  7 29  1  0  0  0
  8  9  1  0  0  0
  8 22  1  0  0  0
  9 10  1  0  0  0
  9 27  2  0  0  0
 10 11  2  0  0  0
 10 15  1  0  0  0
 11 12  1  0  0  0
 11 94  1  0  0  0
 12 13  2  0  0  0
 12 95  1  0  0  0
 13 14  1  0  0  0
 13 31  1  0  0  0
 14 15  2  0  0  0
 14 96  1  0  0  0
 15 97  1  0  0  0
 16 17  2  0  0  0
 16 21  1  0  0  0
 16 31  1  0  0  0
 17 18  1  0  0  0
 17 98  1  0  0  0
 18 19  2  0  0  0
 18 99  1  0  0  0
 19 20  1  0  0  0
 19 24  1  0  0  0
 20 21  2  0  0  0
 20100  1  0  0  0
 21 23  1  0  0  0
 22 28  1  0  0  0
 22 32  2  0  0  0
 26 27  1  0  0  0
 28101  1  0  0  0
 28102  1  0  0  0
 29103  1  0  0  0
 29104  1  0  0  0
 33 34  1  0  0  0
 33 66  1  0  0  0
 33 70  2  0  0  0
 34 36  1  0  0  0
 34 59  1  0  0  0
 34105  1  0  0  0
 35 44  2  0  0  0
 35 45  1  0  0  0
 35 68  1  0  0  0
 36 56  1  0  0  0
 36106  1  0  0  0
 37 39  1  0  0  0
 37 47  1  0  0  0
 37 66  1  0  0  0
 37107  1  0  0  0
 38 43  2  0  0  0
 38 46  1  0  0  0
 38 47  1  0  0  0
 39 64  1  0  0  0
 39 67  2  0  0  0
 40 52  1  0  0  0
 40 53  2  0  0  0
 40 58  1  0  0  0
 41108  1  0  0  0
 41109  1  0  0  0
 41110  1  0  0  0
 41 48  1  0  0  0
 42 43  1  0  0  0
 42 66  1  0  0  0
 42111  1  0  0  0
 42112  1  0  0  0
 43 44  1  0  0  0
 44113  1  0  0  0
 45 46  2  0  0  0
 45114  1  0  0  0
 46115  1  0  0  0
 47116  1  0  0  0
 47117  1  0  0  0
 48 56  1  0  0  0
 48 65  1  0  0  0
 48118  1  0  0  0
 49 50  1  0  0  0
 49 53  1  0  0  0
 49 64  1  0  0  0
 49119  1  0  0  0
 50 51  1  0  0  0
 50120  1  0  0  0
 50121  1  0  0  0
 51 52  1  0  0  0
 51122  1  0  0  0
 51123  1  0  0  0
 52124  1  0  0  0
 52125  1  0  0  0
 53 54  1  0  0  0
 54 55  2  0  0  0
 54126  1  0  0  0
 55 57  1  0  0  0
 55127  1  0  0  0
 56 69  2  0  0  0
 57 58  2  0  0  0
 57128  1  0  0  0
 58129  1  0  0  0
 59 60  1  0  0  0
 59 61  1  0  0  0
 59 62  1  0  0  0
 60130  1  0  0  0
 60131  1  0  0  0
 60132  1  0  0  0
 61133  1  0  0  0
 61134  1  0  0  0
 61135  1  0  0  0
 62136  1  0  0  0
 62137  1  0  0  0
 62138  1  0  0  0
 63 65  1  0  0  0
 63139  1  0  0  0
 63140  1  0  0  0
 63141  1  0  0  0
 64142  1  0  0  0
 65143  1  0  0  0
 68 76  1  0  0  0
 71 72  1  0  0  0
 71 73  2  0  0  0
 71 76  1  0  0  0
 72 74  1  0  0  0
 72 81  2  0  0  0
 73 77  1  0  0  0
 73 82  1  0  0  0
 74144  1  0  0  0
 74145  1  0  0  0
 74146  1  0  0  0
 75 82  1  0  0  0
 75147  1  0  0  0
 75148  1  0  0  0
 75149  1  0  0  0
 76150  1  0  0  0
 76151  1  0  0  0
 77 80  1  0  0  0
 77152  1  0  0  0
 77153  1  0  0  0
 78 79  1  0  0  0
 78 80  1  0  0  0
 78154  1  0  0  0
 78155  1  0  0  0
 79 83  1  0  0  0
 79156  1  0  0  0
 79157  1  0  0  0
 80 84  1  0  0  0
 80158  1  0  0  0
 81 82  1  0  0  0
 83159  1  0  0  0
 84160  1  0  0  0
 84161  1  0  0  0
 84162  1  0  0  0
M  CHG  1  84   1
M  ISO  4   1 100  68 101  76 101  83 100
M  END
> <chiral flag>
0

> <version>
0

> <s_m_source_file>
/data/baiqing/PycharmProjects/Reinvent-master-3.2/result/LINK_invent/BTK/process_docking_weight1_custom_sum_contain_oxygen_bond_distance_aromatic_linkinvent_7_9_3/rearranged_h_0079.sdf

> <i_m_source_file_index>
5

> <r_mmod_Potential_Energy-OPLS-2005>
-76.4828796386719

> <r_mmod_Stretch_Energy-OPLS-2005>
133.351257324219

> <r_mmod_Bend_Energy-OPLS-2005>
194.182693481445

> <r_mmod_Torsional_Energy-OPLS-2005>
261.517974853516

> <r_mmod_Improper_Torsional_Energy-OPLS-2005>
8.10090732574463

> <r_mmod_Van_der_Waal_Energy-OPLS-2005>
113.689109802246

> <r_mmod_Electrostatic_Energy-OPLS-2005>
-305.878936767578

> <r_mmod_Solvation_Energy-OPLS-2005>
-555.607543945312

> <b_mmod_Minimization_Converged-OPLS-2005>
0

> <r_mmod_RMS_Derivative-OPLS-2005>
0.971856594085693

$$$$
5
                    3D
 Structure written by MMmdl.
163171  0  0  1  0            999 V2000
  -30.7002  -14.4655   20.5905 C   0  0  0  0  0  0
  -30.4249  -12.3136   19.4109 C   0  0  0  0  0  0
  -29.4903  -12.5035   18.1988 C   0  0  0  0  0  0
  -28.0125  -12.3629   18.6150 C   0  0  0  0  0  0
  -27.6604  -13.2035   19.8713 C   0  0  2  0  0  0
  -28.7022  -12.9784   20.9886 C   0  0  0  0  0  0
  -25.2588  -13.8152   20.5675 C   0  0  0  0  0  0
  -24.1838  -13.0438   20.9178 C   0  0  0  0  0  0
  -24.6386  -11.6901   20.8737 C   0  0  0  0  0  0
  -23.9054  -10.4291   21.0404 C   0  0  0  0  0  0
  -24.3607   -9.4208   21.9184 C   0  0  0  0  0  0
  -23.6287   -8.2242   22.0753 C   0  0  0  0  0  0
  -22.4269   -8.0278   21.3542 C   0  0  0  0  0  0
  -21.9904   -9.0250   20.4641 C   0  0  0  0  0  0
  -22.7229  -10.2134   20.3052 C   0  0  0  0  0  0
  -21.6851   -6.0732   22.5280 C   0  0  0  0  0  0
  -21.4010   -6.5637   23.8214 C   0  0  0  0  0  0
  -21.3660   -5.6790   24.9173 C   0  0  0  0  0  0
  -21.6043   -4.3053   24.7224 C   0  0  0  0  0  0
  -21.8822   -3.8146   23.4344 C   0  0  0  0  0  0
  -21.9193   -4.6961   22.3399 C   0  0  0  0  0  0
  -22.7864  -13.5243   21.1843 C   0  0  0  0  0  0
  -22.1664   -4.2148   21.0977 F   0  0  0  0  0  0
  -21.5629   -3.4538   25.7736 F   0  0  0  0  0  0
  -30.0300  -13.2924   20.4346 N   0  0  0  0  0  0
  -26.3014  -12.9316   20.3348 N   0  0  0  0  0  0
  -25.9310  -11.6482   20.5754 N   0  0  0  0  0  0
  -22.0498  -12.8231   22.0394 N   0  0  0  0  0  0
  -25.4328  -15.1867   20.4075 N   0  0  0  0  0  0
  -31.8254  -14.6647   20.1244 O   0  0  0  0  0  0
  -21.6637   -6.8872   21.4239 O   0  0  0  0  0  0
  -22.3559  -14.5551   20.6693 O   0  0  0  0  0  0
  -24.6163  -31.8668   23.2102 C   0  0  0  0  0  0
  -25.9064  -32.4815   23.8390 C   0  0  1  0  0  0
  -27.2326  -27.4334   20.0945 C   0  0  0  0  0  0
  -25.5927  -33.8612   24.2326 N   0  0  0  0  0  0
  -23.4043  -30.4895   21.5494 C   0  0  2  0  0  0
  -24.8518  -28.9519   20.1157 C   0  0  0  0  0  0
  -22.7421  -29.4647   22.4982 C   0  0  0  0  0  0
  -18.0279  -28.1355   22.8469 C   0  0  0  0  0  0
  -24.1500  -36.7294   23.2636 C   0  0  0  0  0  0
  -25.9327  -30.8308   21.3642 C   0  0  0  0  0  0
  -26.0118  -29.4636   20.7135 C   0  0  0  0  0  0
  -27.2097  -28.7099   20.7034 C   0  0  0  0  0  0
  -26.0613  -26.9329   19.4959 C   0  0  0  0  0  0
  -24.8704  -27.6846   19.5056 C   0  0  0  0  0  0
  -23.6137  -29.8196   20.1642 C   0  0  0  0  0  0
  -25.4120  -36.3096   24.0330 C   0  0  1  0  0  0
  -20.5869  -28.3655   23.1304 C   0  0  2  0  0  0
  -20.6785  -26.9387   22.5409 C   0  0  0  0  0  0
  -19.5772  -26.6372   21.5196 C   0  0  0  0  0  0
  -18.1939  -26.7904   22.1595 C   0  0  0  0  0  0
  -19.1525  -28.8820   23.2887 C   0  0  0  0  0  0
  -18.9459  -30.1427   23.8896 C   0  0  0  0  0  0
  -17.6462  -30.6564   24.0552 C   0  0  0  0  0  0
  -25.9043  -34.9465   23.5122 C   0  0  0  0  0  0
  -16.5353  -29.9061   23.6314 C   0  0  0  0  0  0
  -16.7270  -28.6483   23.0320 C   0  0  0  0  0  0
  -26.4484  -31.6598   25.0719 C   0  0  0  0  0  0
  -25.3751  -31.3715   26.1473 C   0  0  0  0  0  0
  -27.0332  -30.3053   24.6082 C   0  0  0  0  0  0
  -27.6046  -32.4327   25.7491 C   0  0  0  0  0  0
  -27.5585  -37.1807   24.8464 C   0  0  0  0  0  0
  -21.4151  -29.3022   22.3712 N   0  0  0  0  0  0
  -26.4304  -37.3775   23.9398 N   0  0  0  0  0  0
  -24.6688  -31.0767   22.0998 N   0  0  0  0  0  0
  -23.4190  -28.8199   23.3030 O   0  0  0  0  0  0
  -28.3732  -26.6630   20.0547 O   0  0  0  0  0  0
  -26.5586  -34.8916   22.4670 O   0  0  0  0  0  0
  -23.5356  -32.1425   23.7499 O   0  0  0  0  0  0
  -29.2274  -21.1267   20.5592 C   0  0  0  0  0  0
  -28.9802  -19.7845   20.7765 C   0  0  0  0  0  0
  -28.1324  -20.9597   22.4782 C   0  0  0  0  0  0
  -27.4641  -21.2545   23.7835 C   0  0  0  0  0  0
  -29.7859  -26.2547   21.9077 C   0  0  0  0  0  0
  -29.2916  -18.5426   19.9754 C   0  0  0  0  0  0
  -30.5948  -17.8143   20.3919 C   0  0  0  0  0  0
  -28.6298  -24.2738   20.7088 C   0  0  0  0  0  0
  -28.7644  -23.2903   21.9047 C   0  0  0  0  0  0
  -30.5114  -16.7893   21.5572 C   0  0  0  0  0  0
  -28.5357  -25.7653   21.1625 C   0  0  2  0  0  0
  -28.6871  -21.8316   21.6147 N   0  0  0  0  0  0
  -28.3016  -19.7359   21.9652 N   0  3  0  0  0  0
  -30.0096  -15.4520   21.1947 N   0  0  0  0  0  0
  -31.4667  -12.4255   19.1045 H   0  0  0  0  0  0
  -30.3388  -11.3011   19.8080 H   0  0  0  0  0  0
  -29.7286  -11.7746   17.4229 H   0  0  0  0  0  0
  -29.6553  -13.4866   17.7553 H   0  0  0  0  0  0
  -27.8248  -11.3072   18.8132 H   0  0  0  0  0  0
  -27.3599  -12.6360   17.7850 H   0  0  0  0  0  0
  -27.7062  -14.2515   19.5754 H   0  0  0  0  0  0
  -28.6824  -11.9393   21.3199 H   0  0  0  0  0  0
  -28.4611  -13.5678   21.8738 H   0  0  0  0  0  0
  -25.2755   -9.5686   22.4757 H   0  0  0  0  0  0
  -23.9999   -7.4632   22.7472 H   0  0  0  0  0  0
  -21.0840   -8.8764   19.8944 H   0  0  0  0  0  0
  -22.3689  -10.9669   19.6160 H   0  0  0  0  0  0
  -21.2002   -7.6150   23.9713 H   0  0  0  0  0  0
  -21.1478   -6.0522   25.9075 H   0  0  0  0  0  0
  -22.0600   -2.7609   23.2845 H   0  0  0  0  0  0
  -22.4109  -11.9891   22.4779 H   0  0  0  0  0  0
  -21.1114  -13.1258   22.2581 H   0  0  0  0  0  0
  -24.6647  -15.8416   20.5031 H   0  0  0  0  0  0
  -26.2804  -15.6183   20.0624 H   0  0  0  0  0  0
  -26.7135  -32.5533   23.1146 H   0  0  0  0  0  0
  -25.0151  -33.9770   25.0525 H   0  0  0  0  0  0
  -22.6937  -31.3065   21.4084 H   0  0  0  0  0  0
  -23.3758  -35.9633   23.3312 H   0  0  0  0  0  0
  -24.3604  -36.8892   22.2051 H   0  0  0  0  0  0
  -23.7262  -37.6502   23.6647 H   0  0  0  0  0  0
  -26.0468  -31.5976   20.5968 H   0  0  0  0  0  0
  -26.8203  -30.8846   21.9827 H   0  0  0  0  0  0
  -28.1086  -29.1014   21.1613 H   0  0  0  0  0  0
  -26.0736  -25.9608   19.0232 H   0  0  0  0  0  0
  -23.9800  -27.2837   19.0408 H   0  0  0  0  0  0
  -23.7218  -30.5942   19.4038 H   0  0  0  0  0  0
  -22.7381  -29.2390   19.8689 H   0  0  0  0  0  0
  -25.1300  -36.1947   25.0821 H   0  0  0  0  0  0
  -20.9963  -28.3231   24.1423 H   0  0  0  0  0  0
  -20.5695  -26.2256   23.3597 H   0  0  0  0  0  0
  -21.6656  -26.7438   22.1193 H   0  0  0  0  0  0
  -19.6944  -25.6289   21.1212 H   0  0  0  0  0  0
  -19.6718  -27.3196   20.6737 H   0  0  0  0  0  0
  -17.4211  -26.6644   21.3989 H   0  0  0  0  0  0
  -18.0336  -26.0047   22.8992 H   0  0  0  0  0  0
  -19.7942  -30.7229   24.2273 H   0  0  0  0  0  0
  -17.5017  -31.6241   24.5162 H   0  0  0  0  0  0
  -15.5350  -30.2956   23.7650 H   0  0  0  0  0  0
  -15.8673  -28.0820   22.7003 H   0  0  0  0  0  0
  -24.5919  -30.7054   25.7830 H   0  0  0  0  0  0
  -24.8944  -32.2879   26.4911 H   0  0  0  0  0  0
  -25.8112  -30.8907   27.0240 H   0  0  0  0  0  0
  -26.2885  -29.6803   24.1140 H   0  0  0  0  0  0
  -27.4134  -29.7287   25.4525 H   0  0  0  0  0  0
  -27.8698  -30.4387   23.9217 H   0  0  0  0  0  0
  -27.2645  -33.3612   26.2082 H   0  0  0  0  0  0
  -28.3852  -32.6912   25.0325 H   0  0  0  0  0  0
  -28.0712  -31.8448   26.5400 H   0  0  0  0  0  0
  -28.2597  -38.0108   24.7506 H   0  0  0  0  0  0
  -28.1083  -36.2638   24.6295 H   0  0  0  0  0  0
  -27.2301  -37.1451   25.8867 H   0  0  0  0  0  0
  -20.9318  -29.8723   21.6918 H   0  0  0  0  0  0
  -26.0191  -38.2847   24.1403 H   0  0  0  0  0  0
  -29.7456  -21.6175   19.7456 H   0  0  0  0  0  0
  -28.1814  -21.7464   24.4398 H   0  0  0  0  0  0
  -27.1322  -20.3194   24.2340 H   0  0  0  0  0  0
  -26.6046  -21.8994   23.6034 H   0  0  0  0  0  0
  -29.9512  -25.7041   22.8326 H   0  0  0  0  0  0
  -29.6855  -27.3060   22.1774 H   0  0  0  0  0  0
  -30.6787  -26.1547   21.2915 H   0  0  0  0  0  0
  -29.3817  -18.8465   18.9319 H   0  0  0  0  0  0
  -28.4446  -17.8567   20.0099 H   0  0  0  0  0  0
  -31.3495  -18.5667   20.6255 H   0  0  0  0  0  0
  -30.9854  -17.2936   19.5168 H   0  0  0  0  0  0
  -27.7323  -24.0227   20.1420 H   0  0  0  0  0  0
  -29.4694  -24.1463   20.0259 H   0  0  0  0  0  0
  -27.9845  -23.5357   22.6251 H   0  0  0  0  0  0
  -29.7140  -23.4483   22.4154 H   0  0  0  0  0  0
  -29.9036  -17.1892   22.3692 H   0  0  0  0  0  0
  -31.5100  -16.6639   21.9802 H   0  0  0  0  0  0
  -27.6862  -25.8530   21.8445 H   0  0  0  0  0  0
  -27.9632  -18.8879   22.4057 H   0  0  0  0  0  0
  -29.0829  -15.2070   21.5125 H   0  0  0  0  0  0
  1 25  1  0  0  0
  1 30  2  0  0  0
  1 84  1  0  0  0
  2  3  1  0  0  0
  2 25  1  0  0  0
  2 85  1  0  0  0
  2 86  1  0  0  0
  3  4  1  0  0  0
  3 87  1  0  0  0
  3 88  1  0  0  0
  4  5  1  0  0  0
  4 89  1  0  0  0
  4 90  1  0  0  0
  5  6  1  0  0  0
  5 26  1  0  0  0
  5 91  1  0  0  0
  6 25  1  0  0  0
  6 92  1  0  0  0
  6 93  1  0  0  0
  7  8  2  0  0  0
  7 26  1  0  0  0
  7 29  1  0  0  0
  8  9  1  0  0  0
  8 22  1  0  0  0
  9 10  1  0  0  0
  9 27  2  0  0  0
 10 11  2  0  0  0
 10 15  1  0  0  0
 11 12  1  0  0  0
 11 94  1  0  0  0
 12 13  2  0  0  0
 12 95  1  0  0  0
 13 14  1  0  0  0
 13 31  1  0  0  0
 14 15  2  0  0  0
 14 96  1  0  0  0
 15 97  1  0  0  0
 16 17  2  0  0  0
 16 21  1  0  0  0
 16 31  1  0  0  0
 17 18  1  0  0  0
 17 98  1  0  0  0
 18 19  2  0  0  0
 18 99  1  0  0  0
 19 20  1  0  0  0
 19 24  1  0  0  0
 20 21  2  0  0  0
 20100  1  0  0  0
 21 23  1  0  0  0
 22 28  1  0  0  0
 22 32  2  0  0  0
 26 27  1  0  0  0
 28101  1  0  0  0
 28102  1  0  0  0
 29103  1  0  0  0
 29104  1  0  0  0
 33 34  1  0  0  0
 33 66  1  0  0  0
 33 70  2  0  0  0
 34 36  1  0  0  0
 34 59  1  0  0  0
 34105  1  0  0  0
 35 44  2  0  0  0
 35 45  1  0  0  0
 35 68  1  0  0  0
 36 56  1  0  0  0
 36106  1  0  0  0
 37 39  1  0  0  0
 37 47  1  0  0  0
 37 66  1  0  0  0
 37107  1  0  0  0
 38 43  2  0  0  0
 38 46  1  0  0  0
 38 47  1  0  0  0
 39 64  1  0  0  0
 39 67  2  0  0  0
 40 52  1  0  0  0
 40 53  2  0  0  0
 40 58  1  0  0  0
 41108  1  0  0  0
 41109  1  0  0  0
 41110  1  0  0  0
 41 48  1  0  0  0
 42 43  1  0  0  0
 42 66  1  0  0  0
 42111  1  0  0  0
 42112  1  0  0  0
 43 44  1  0  0  0
 44113  1  0  0  0
 45 46  2  0  0  0
 45114  1  0  0  0
 46115  1  0  0  0
 47116  1  0  0  0
 47117  1  0  0  0
 48 56  1  0  0  0
 48 65  1  0  0  0
 48118  1  0  0  0
 49 50  1  0  0  0
 49 53  1  0  0  0
 49 64  1  0  0  0
 49119  1  0  0  0
 50 51  1  0  0  0
 50120  1  0  0  0
 50121  1  0  0  0
 51 52  1  0  0  0
 51122  1  0  0  0
 51123  1  0  0  0
 52124  1  0  0  0
 52125  1  0  0  0
 53 54  1  0  0  0
 54 55  2  0  0  0
 54126  1  0  0  0
 55 57  1  0  0  0
 55127  1  0  0  0
 56 69  2  0  0  0
 57 58  2  0  0  0
 57128  1  0  0  0
 58129  1  0  0  0
 59 60  1  0  0  0
 59 61  1  0  0  0
 59 62  1  0  0  0
 60130  1  0  0  0
 60131  1  0  0  0
 60132  1  0  0  0
 61133  1  0  0  0
 61134  1  0  0  0
 61135  1  0  0  0
 62136  1  0  0  0
 62137  1  0  0  0
 62138  1  0  0  0
 63 65  1  0  0  0
 63139  1  0  0  0
 63140  1  0  0  0
 63141  1  0  0  0
 64142  1  0  0  0
 65143  1  0  0  0
 68 81  1  0  0  0
 71 72  2  0  0  0
 71 82  1  0  0  0
 71144  1  0  0  0
 72 76  1  0  0  0
 72 83  1  0  0  0
 73 74  1  0  0  0
 73 82  1  0  0  0
 73 83  2  0  0  0
 74145  1  0  0  0
 74146  1  0  0  0
 74147  1  0  0  0
 75148  1  0  0  0
 75149  1  0  0  0
 75150  1  0  0  0
 75 81  1  0  0  0
 76 77  1  0  0  0
 76151  1  0  0  0
 76152  1  0  0  0
 77 80  1  0  0  0
 77153  1  0  0  0
 77154  1  0  0  0
 78 79  1  0  0  0
 78 81  1  0  0  0
 78155  1  0  0  0
 78156  1  0  0  0
 79 82  1  0  0  0
 79157  1  0  0  0
 79158  1  0  0  0
 80 84  1  0  0  0
 80159  1  0  0  0
 80160  1  0  0  0
 81161  1  0  0  0
 83162  1  0  0  0
 84163  1  0  0  0
M  CHG  1  83   1
M  ISO  4   1 100  68 101  81 101  84 100
M  END
> <chiral flag>
0

> <version>
0

> <s_m_source_file>
/data/baiqing/PycharmProjects/Reinvent-master-3.2/result/LINK_invent/BTK/process_docking_weight1_custom_sum_contain_oxygen_bond_distance_aromatic_linkinvent_7_9_3/rearranged_h_0079.sdf

> <i_m_source_file_index>
6

> <r_mmod_Potential_Energy-OPLS-2005>
-124.040000915527

> <r_mmod_Stretch_Energy-OPLS-2005>
37.1738548278809

> <r_mmod_Bend_Energy-OPLS-2005>
99.4931640625

> <r_mmod_Torsional_Energy-OPLS-2005>
250.129486083984

> <r_mmod_Improper_Torsional_Energy-OPLS-2005>
3.1354033946991

> <r_mmod_Van_der_Waal_Energy-OPLS-2005>
118.896827697754

> <r_mmod_Electrostatic_Energy-OPLS-2005>
-221.395263671875

> <r_mmod_Solvation_Energy-OPLS-2005>
-423.614166259766

> <b_mmod_Minimization_Converged-OPLS-2005>
0

> <r_mmod_RMS_Derivative-OPLS-2005>
1.37952268123627

$$$$
6
                    3D
 Structure written by MMmdl.
157165  0  0  1  0            999 V2000
  -30.6989  -14.4402   20.5519 C   0  0  0  0  0  0
  -30.4203  -12.2848   19.4115 C   0  0  0  0  0  0
  -29.4892  -12.4976   18.1991 C   0  0  0  0  0  0
  -28.0081  -12.3734   18.6107 C   0  0  0  0  0  0
  -27.6611  -13.2011   19.8778 C   0  0  2  0  0  0
  -28.7062  -12.9576   20.9895 C   0  0  0  0  0  0
  -25.2595  -13.8149   20.5698 C   0  0  0  0  0  0
  -24.1833  -13.0432   20.9165 C   0  0  0  0  0  0
  -24.6377  -11.6899   20.8728 C   0  0  0  0  0  0
  -23.9041  -10.4284   21.0400 C   0  0  0  0  0  0
  -24.3595   -9.4204   21.9179 C   0  0  0  0  0  0
  -23.6277   -8.2238   22.0746 C   0  0  0  0  0  0
  -22.4258   -8.0268   21.3541 C   0  0  0  0  0  0
  -21.9891   -9.0242   20.4647 C   0  0  0  0  0  0
  -22.7215  -10.2125   20.3053 C   0  0  0  0  0  0
  -21.6853   -6.0726   22.5276 C   0  0  0  0  0  0
  -21.4019   -6.5631   23.8209 C   0  0  0  0  0  0
  -21.3663   -5.6784   24.9171 C   0  0  0  0  0  0
  -21.6044   -4.3045   24.7223 C   0  0  0  0  0  0
  -21.8822   -3.8137   23.4343 C   0  0  0  0  0  0
  -21.9197   -4.6954   22.3401 C   0  0  0  0  0  0
  -22.7859  -13.5236   21.1829 C   0  0  0  0  0  0
  -22.1662   -4.2142   21.0977 F   0  0  0  0  0  0
  -21.5631   -3.4529   25.7737 F   0  0  0  0  0  0
  -30.0300  -13.2650   20.4332 N   0  0  0  0  0  0
  -26.3021  -12.9308   20.3394 N   0  0  0  0  0  0
  -25.9303  -11.6472   20.5766 N   0  0  0  0  0  0
  -22.0492  -12.8248   22.0399 N   0  0  0  0  0  0
  -25.4368  -15.1864   20.4154 N   0  0  0  0  0  0
  -31.8558  -14.6011   20.1630 O   0  0  0  0  0  0
  -21.6626   -6.8866   21.4236 O   0  0  0  0  0  0
  -22.3547  -14.5544   20.6675 O   0  0  0  0  0  0
  -24.6111  -31.8697   23.2118 C   0  0  0  0  0  0
  -25.9015  -32.4832   23.8406 C   0  0  1  0  0  0
  -27.2371  -27.4603   20.0962 C   0  0  0  0  0  0
  -25.5895  -33.8629   24.2347 N   0  0  0  0  0  0
  -23.3995  -30.4904   21.5510 C   0  0  2  0  0  0
  -24.8486  -28.9550   20.1189 C   0  0  0  0  0  0
  -22.7399  -29.4654   22.5005 C   0  0  0  0  0  0
  -18.0276  -28.1366   22.8491 C   0  0  0  0  0  0
  -24.1483  -36.7325   23.2635 C   0  0  0  0  0  0
  -25.9243  -30.8407   21.3622 C   0  0  0  0  0  0
  -26.0038  -29.4731   20.7187 C   0  0  0  0  0  0
  -27.2027  -28.7296   20.7112 C   0  0  0  0  0  0
  -26.0742  -26.9518   19.4852 C   0  0  0  0  0  0
  -24.8761  -27.6911   19.5011 C   0  0  0  0  0  0
  -23.6091  -29.8186   20.1666 C   0  0  0  0  0  0
  -25.4103  -36.3122   24.0341 C   0  0  1  0  0  0
  -20.5862  -28.3651   23.1329 C   0  0  2  0  0  0
  -20.6771  -26.9388   22.5418 C   0  0  0  0  0  0
  -19.5754  -26.6372   21.5214 C   0  0  0  0  0  0
  -18.1931  -26.7916   22.1622 C   0  0  0  0  0  0
  -19.1524  -28.8825   23.2916 C   0  0  0  0  0  0
  -18.9452  -30.1433   23.8921 C   0  0  0  0  0  0
  -17.6452  -30.6571   24.0568 C   0  0  0  0  0  0
  -25.9027  -34.9483   23.5140 C   0  0  0  0  0  0
  -16.5345  -29.9080   23.6317 C   0  0  0  0  0  0
  -16.7268  -28.6500   23.0329 C   0  0  0  0  0  0
  -26.4465  -31.6593   25.0715 C   0  0  0  0  0  0
  -25.3754  -31.3686   26.1479 C   0  0  0  0  0  0
  -27.0282  -30.3041   24.6056 C   0  0  0  0  0  0
  -27.6059  -32.4298   25.7473 C   0  0  0  0  0  0
  -27.5584  -37.1816   24.8468 C   0  0  0  0  0  0
  -21.4130  -29.3034   22.3748 N   0  0  0  0  0  0
  -26.4295  -37.3801   23.9411 N   0  0  0  0  0  0
  -24.6632  -31.0814   22.1007 N   0  0  0  0  0  0
  -23.4182  -28.8185   23.3030 O   0  0  0  0  0  0
  -28.3987  -26.7324   20.0555 O   0  0  0  0  0  0
  -26.5580  -34.8930   22.4695 O   0  0  0  0  0  0
  -23.5313  -32.1431   23.7530 O   0  0  0  0  0  0
  -28.2947  -20.9280   22.2944 C   0  0  0  0  0  0
  -26.3247  -21.8875   21.3025 C   0  0  0  0  0  0
  -27.6062  -22.0827   21.8623 C   0  0  0  0  0  0
  -27.6524  -19.6801   22.1412 C   0  0  0  0  0  0
  -28.2069  -23.4734   22.0564 C   0  0  0  0  0  0
  -28.3065  -18.3838   22.5966 C   0  0  0  0  0  0
  -27.9826  -24.4574   20.8890 C   0  0  0  0  0  0
  -28.8348  -17.5521   21.4156 C   0  0  0  0  0  0
  -29.4461  -16.1963   21.8169 C   0  0  0  0  0  0
  -28.5829  -25.8512   21.1633 C   0  0  0  0  0  0
  -25.7642  -20.6587   21.1721 N   0  0  0  0  0  0
  -26.4177  -19.5689   21.5904 N   0  0  0  0  0  0
  -29.9179  -15.5253   20.6088 N   0  0  0  0  0  0
  -31.4640  -12.3856   19.1094 H   0  0  0  0  0  0
  -30.3198  -11.2717   19.8032 H   0  0  0  0  0  0
  -29.7191  -11.7755   17.4146 H   0  0  0  0  0  0
  -29.6678  -13.4837   17.7674 H   0  0  0  0  0  0
  -27.8045  -11.3172   18.7910 H   0  0  0  0  0  0
  -27.3612  -12.6699   17.7841 H   0  0  0  0  0  0
  -27.7095  -14.2520   19.5936 H   0  0  0  0  0  0
  -28.6806  -11.9152   21.3086 H   0  0  0  0  0  0
  -28.4872  -13.5347   21.8837 H   0  0  0  0  0  0
  -25.2740   -9.5686   22.4752 H   0  0  0  0  0  0
  -24.0000   -7.4627   22.7458 H   0  0  0  0  0  0
  -21.0826   -8.8747   19.8951 H   0  0  0  0  0  0
  -22.3661  -10.9658   19.6163 H   0  0  0  0  0  0
  -21.2007   -7.6139   23.9710 H   0  0  0  0  0  0
  -21.1489   -6.0514   25.9076 H   0  0  0  0  0  0
  -22.0603   -2.7599   23.2840 H   0  0  0  0  0  0
  -22.4097  -11.9922   22.4817 H   0  0  0  0  0  0
  -21.1107  -13.1279   22.2580 H   0  0  0  0  0  0
  -24.6852  -15.8535   20.5485 H   0  0  0  0  0  0
  -26.3109  -15.6212   20.1486 H   0  0  0  0  0  0
  -26.7084  -32.5555   23.1177 H   0  0  0  0  0  0
  -25.0071  -33.9798   25.0510 H   0  0  0  0  0  0
  -22.6851  -31.3042   21.4095 H   0  0  0  0  0  0
  -23.3740  -35.9663   23.3310 H   0  0  0  0  0  0
  -24.3581  -36.8924   22.2049 H   0  0  0  0  0  0
  -23.7241  -37.6539   23.6631 H   0  0  0  0  0  0
  -26.0274  -31.5996   20.5848 H   0  0  0  0  0  0
  -26.8163  -30.9033   21.9740 H   0  0  0  0  0  0
  -28.0983  -29.1266   21.1688 H   0  0  0  0  0  0
  -26.0973  -25.9892   18.9939 H   0  0  0  0  0  0
  -23.9899  -27.2898   19.0286 H   0  0  0  0  0  0
  -23.7154  -30.5893   19.4021 H   0  0  0  0  0  0
  -22.7355  -29.2337   19.8728 H   0  0  0  0  0  0
  -25.1275  -36.1996   25.0834 H   0  0  0  0  0  0
  -20.9954  -28.3211   24.1450 H   0  0  0  0  0  0
  -20.5682  -26.2252   23.3598 H   0  0  0  0  0  0
  -21.6638  -26.7437   22.1202 H   0  0  0  0  0  0
  -19.6909  -25.6285   21.1243 H   0  0  0  0  0  0
  -19.6694  -27.3178   20.6737 H   0  0  0  0  0  0
  -17.4201  -26.6655   21.4022 H   0  0  0  0  0  0
  -18.0336  -26.0050   22.9014 H   0  0  0  0  0  0
  -19.7924  -30.7244   24.2306 H   0  0  0  0  0  0
  -17.5006  -31.6245   24.5180 H   0  0  0  0  0  0
  -15.5347  -30.2990   23.7632 H   0  0  0  0  0  0
  -15.8667  -28.0834   22.7023 H   0  0  0  0  0  0
  -24.5919  -30.7039   25.7827 H   0  0  0  0  0  0
  -24.8952  -32.2834   26.4958 H   0  0  0  0  0  0
  -25.8130  -30.8837   27.0215 H   0  0  0  0  0  0
  -26.2803  -29.6815   24.1132 H   0  0  0  0  0  0
  -27.4095  -29.7263   25.4485 H   0  0  0  0  0  0
  -27.8621  -30.4373   23.9159 H   0  0  0  0  0  0
  -27.2692  -33.3585   26.2089 H   0  0  0  0  0  0
  -28.3848  -32.6876   25.0286 H   0  0  0  0  0  0
  -28.0741  -31.8389   26.5353 H   0  0  0  0  0  0
  -28.2613  -38.0103   24.7510 H   0  0  0  0  0  0
  -28.1069  -36.2638   24.6292 H   0  0  0  0  0  0
  -27.2304  -37.1470   25.8872 H   0  0  0  0  0  0
  -20.9290  -29.8783   21.6994 H   0  0  0  0  0  0
  -26.0192  -38.2885   24.1401 H   0  0  0  0  0  0
  -29.2742  -20.9926   22.7472 H   0  0  0  0  0  0
  -25.7227  -22.7157   20.9627 H   0  0  0  0  0  0
  -29.2784  -23.3727   22.2355 H   0  0  0  0  0  0
  -27.7855  -23.8898   22.9727 H   0  0  0  0  0  0
  -27.5730  -17.8068   23.1608 H   0  0  0  0  0  0
  -29.1186  -18.6084   23.2894 H   0  0  0  0  0  0
  -26.9162  -24.5685   20.7036 H   0  0  0  0  0  0
  -28.4191  -24.0489   19.9762 H   0  0  0  0  0  0
  -29.5739  -18.1437   20.8731 H   0  0  0  0  0  0
  -28.0156  -17.3760   20.7166 H   0  0  0  0  0  0
  -28.7006  -15.6019   22.3413 H   0  0  0  0  0  0
  -30.2794  -16.3459   22.5066 H   0  0  0  0  0  0
  -29.6549  -25.7590   21.3390 H   0  0  0  0  0  0
  -28.1629  -26.2779   22.0771 H   0  0  0  0  0  0
  -30.2771  -16.2116   19.9620 H   0  0  0  0  0  0
  1 25  1  0  0  0
  1 30  2  0  0  0
  1 83  1  0  0  0
  2  3  1  0  0  0
  2 25  1  0  0  0
  2 84  1  0  0  0
  2 85  1  0  0  0
  3  4  1  0  0  0
  3 86  1  0  0  0
  3 87  1  0  0  0
  4  5  1  0  0  0
  4 88  1  0  0  0
  4 89  1  0  0  0
  5  6  1  0  0  0
  5 26  1  0  0  0
  5 90  1  0  0  0
  6 25  1  0  0  0
  6 91  1  0  0  0
  6 92  1  0  0  0
  7  8  2  0  0  0
  7 26  1  0  0  0
  7 29  1  0  0  0
  8  9  1  0  0  0
  8 22  1  0  0  0
  9 10  1  0  0  0
  9 27  2  0  0  0
 10 11  2  0  0  0
 10 15  1  0  0  0
 11 12  1  0  0  0
 11 93  1  0  0  0
 12 13  2  0  0  0
 12 94  1  0  0  0
 13 14  1  0  0  0
 13 31  1  0  0  0
 14 15  2  0  0  0
 14 95  1  0  0  0
 15 96  1  0  0  0
 16 17  2  0  0  0
 16 21  1  0  0  0
 16 31  1  0  0  0
 17 18  1  0  0  0
 17 97  1  0  0  0
 18 19  2  0  0  0
 18 98  1  0  0  0
 19 20  1  0  0  0
 19 24  1  0  0  0
 20 21  2  0  0  0
 20 99  1  0  0  0
 21 23  1  0  0  0
 22 28  1  0  0  0
 22 32  2  0  0  0
 26 27  1  0  0  0
 28100  1  0  0  0
 28101  1  0  0  0
 29102  1  0  0  0
 29103  1  0  0  0
 33 34  1  0  0  0
 33 66  1  0  0  0
 33 70  2  0  0  0
 34 36  1  0  0  0
 34 59  1  0  0  0
 34104  1  0  0  0
 35 44  2  0  0  0
 35 45  1  0  0  0
 35 68  1  0  0  0
 36 56  1  0  0  0
 36105  1  0  0  0
 37 39  1  0  0  0
 37 47  1  0  0  0
 37 66  1  0  0  0
 37106  1  0  0  0
 38 43  2  0  0  0
 38 46  1  0  0  0
 38 47  1  0  0  0
 39 64  1  0  0  0
 39 67  2  0  0  0
 40 52  1  0  0  0
 40 53  2  0  0  0
 40 58  1  0  0  0
 41107  1  0  0  0
 41108  1  0  0  0
 41109  1  0  0  0
 41 48  1  0  0  0
 42 43  1  0  0  0
 42 66  1  0  0  0
 42110  1  0  0  0
 42111  1  0  0  0
 43 44  1  0  0  0
 44112  1  0  0  0
 45 46  2  0  0  0
 45113  1  0  0  0
 46114  1  0  0  0
 47115  1  0  0  0
 47116  1  0  0  0
 48 56  1  0  0  0
 48 65  1  0  0  0
 48117  1  0  0  0
 49 50  1  0  0  0
 49 53  1  0  0  0
 49 64  1  0  0  0
 49118  1  0  0  0
 50 51  1  0  0  0
 50119  1  0  0  0
 50120  1  0  0  0
 51 52  1  0  0  0
 51121  1  0  0  0
 51122  1  0  0  0
 52123  1  0  0  0
 52124  1  0  0  0
 53 54  1  0  0  0
 54 55  2  0  0  0
 54125  1  0  0  0
 55 57  1  0  0  0
 55126  1  0  0  0
 56 69  2  0  0  0
 57 58  2  0  0  0
 57127  1  0  0  0
 58128  1  0  0  0
 59 60  1  0  0  0
 59 61  1  0  0  0
 59 62  1  0  0  0
 60129  1  0  0  0
 60130  1  0  0  0
 60131  1  0  0  0
 61132  1  0  0  0
 61133  1  0  0  0
 61134  1  0  0  0
 62135  1  0  0  0
 62136  1  0  0  0
 62137  1  0  0  0
 63 65  1  0  0  0
 63138  1  0  0  0
 63139  1  0  0  0
 63140  1  0  0  0
 64141  1  0  0  0
 65142  1  0  0  0
 68 80  1  0  0  0
 71 73  2  0  0  0
 71 74  1  0  0  0
 71143  1  0  0  0
 72 73  1  0  0  0
 72 81  2  0  0  0
 72144  1  0  0  0
 73 75  1  0  0  0
 74 76  1  0  0  0
 74 82  2  0  0  0
 75 77  1  0  0  0
 75145  1  0  0  0
 75146  1  0  0  0
 76 78  1  0  0  0
 76147  1  0  0  0
 76148  1  0  0  0
 77 80  1  0  0  0
 77149  1  0  0  0
 77150  1  0  0  0
 78 79  1  0  0  0
 78151  1  0  0  0
 78152  1  0  0  0
 79 83  1  0  0  0
 79153  1  0  0  0
 79154  1  0  0  0
 80155  1  0  0  0
 80156  1  0  0  0
 81 82  1  0  0  0
 83157  1  0  0  0
M  ISO  4   1 100  68 101  80 101  83 100
M  END
> <chiral flag>
0

> <version>
0

> <s_m_source_file>
/data/baiqing/PycharmProjects/Reinvent-master-3.2/result/LINK_invent/BTK/process_docking_weight1_custom_sum_contain_oxygen_bond_distance_aromatic_linkinvent_7_9_3/rearranged_h_0079.sdf

> <i_m_source_file_index>
7

> <r_mmod_Potential_Energy-OPLS-2005>
12.8761930465698

> <r_mmod_Stretch_Energy-OPLS-2005>
32.5105590820312

> <r_mmod_Bend_Energy-OPLS-2005>
100.634216308594

> <r_mmod_Torsional_Energy-OPLS-2005>
272.163940429688

> <r_mmod_Improper_Torsional_Energy-OPLS-2005>
20.7485466003418

> <r_mmod_Van_der_Waal_Energy-OPLS-2005>
144.831497192383

> <r_mmod_Electrostatic_Energy-OPLS-2005>
-342.718658447266

> <r_mmod_Solvation_Energy-OPLS-2005>
-226.799362182617

> <b_mmod_Minimization_Converged-OPLS-2005>
0

> <r_mmod_RMS_Derivative-OPLS-2005>
1.30608928203583

$$$$
7
                    3D
 Structure written by MMmdl.
161169  0  0  1  0            999 V2000
  -30.6899  -14.4710   20.5564 C   0  0  0  0  0  0
  -30.4302  -12.2992   19.4315 C   0  0  0  0  0  0
  -29.5024  -12.4928   18.2129 C   0  0  0  0  0  0
  -28.0201  -12.3634   18.6202 C   0  0  0  0  0  0
  -27.6649  -13.2015   19.8784 C   0  0  2  0  0  0
  -28.7054  -12.9825   21.0015 C   0  0  0  0  0  0
  -25.2605  -13.8156   20.5658 C   0  0  0  0  0  0
  -24.1849  -13.0449   20.9171 C   0  0  0  0  0  0
  -24.6387  -11.6912   20.8733 C   0  0  0  0  0  0
  -23.9044  -10.4302   21.0409 C   0  0  0  0  0  0
  -24.3602   -9.4219   21.9188 C   0  0  0  0  0  0
  -23.6281   -8.2250   22.0759 C   0  0  0  0  0  0
  -22.4263   -8.0285   21.3555 C   0  0  0  0  0  0
  -21.9896   -9.0259   20.4655 C   0  0  0  0  0  0
  -22.7216  -10.2144   20.3058 C   0  0  0  0  0  0
  -21.6853   -6.0732   22.5284 C   0  0  0  0  0  0
  -21.4012   -6.5641   23.8218 C   0  0  0  0  0  0
  -21.3658   -5.6798   24.9182 C   0  0  0  0  0  0
  -21.6040   -4.3057   24.7231 C   0  0  0  0  0  0
  -21.8825   -3.8144   23.4348 C   0  0  0  0  0  0
  -21.9197   -4.6960   22.3410 C   0  0  0  0  0  0
  -22.7879  -13.5264   21.1831 C   0  0  0  0  0  0
  -22.1665   -4.2147   21.0982 F   0  0  0  0  0  0
  -21.5633   -3.4539   25.7736 F   0  0  0  0  0  0
  -30.0388  -13.2827   20.4515 N   0  0  0  0  0  0
  -26.3034  -12.9311   20.3362 N   0  0  0  0  0  0
  -25.9309  -11.6479   20.5758 N   0  0  0  0  0  0
  -22.0496  -12.8283   22.0386 N   0  0  0  0  0  0
  -25.4333  -15.1868   20.4036 N   0  0  0  0  0  0
  -31.8168  -14.6690   20.0937 O   0  0  0  0  0  0
  -21.6640   -6.8876   21.4249 O   0  0  0  0  0  0
  -22.3579  -14.5566   20.6665 O   0  0  0  0  0  0
  -24.6139  -31.8671   23.2093 C   0  0  0  0  0  0
  -25.9033  -32.4821   23.8385 C   0  0  1  0  0  0
  -27.2354  -27.4404   20.0958 C   0  0  0  0  0  0
  -25.5889  -33.8619   24.2322 N   0  0  0  0  0  0
  -23.4005  -30.4906   21.5500 C   0  0  2  0  0  0
  -24.8467  -28.9553   20.1156 C   0  0  0  0  0  0
  -22.7392  -29.4661   22.4991 C   0  0  0  0  0  0
  -18.0263  -28.1381   22.8490 C   0  0  0  0  0  0
  -24.1484  -36.7319   23.2638 C   0  0  0  0  0  0
  -25.9279  -30.8373   21.3574 C   0  0  0  0  0  0
  -26.0067  -29.4717   20.7054 C   0  0  0  0  0  0
  -27.2063  -28.7241   20.6858 C   0  0  0  0  0  0
  -26.0565  -26.9338   19.5039 C   0  0  0  0  0  0
  -24.8664  -27.6858   19.5118 C   0  0  0  0  0  0
  -23.6072  -29.8202   20.1653 C   0  0  0  0  0  0
  -25.4104  -36.3112   24.0338 C   0  0  1  0  0  0
  -20.5852  -28.3665   23.1323 C   0  0  2  0  0  0
  -20.6755  -26.9402   22.5420 C   0  0  0  0  0  0
  -19.5742  -26.6389   21.5208 C   0  0  0  0  0  0
  -18.1916  -26.7929   22.1618 C   0  0  0  0  0  0
  -19.1512  -28.8836   23.2906 C   0  0  0  0  0  0
  -18.9449  -30.1442   23.8919 C   0  0  0  0  0  0
  -17.6455  -30.6589   24.0566 C   0  0  0  0  0  0
  -25.9025  -34.9478   23.5126 C   0  0  0  0  0  0
  -16.5342  -29.9096   23.6329 C   0  0  0  0  0  0
  -16.7254  -28.6512   23.0348 C   0  0  0  0  0  0
  -26.4467  -31.6599   25.0708 C   0  0  0  0  0  0
  -25.3742  -31.3715   26.1467 C   0  0  0  0  0  0
  -27.0292  -30.3046   24.6069 C   0  0  0  0  0  0
  -27.6043  -32.4317   25.7470 C   0  0  0  0  0  0
  -27.5581  -37.1809   24.8463 C   0  0  0  0  0  0
  -21.4122  -29.3035   22.3734 N   0  0  0  0  0  0
  -26.4291  -37.3798   23.9410 N   0  0  0  0  0  0
  -24.6660  -31.0785   22.0983 N   0  0  0  0  0  0
  -23.4171  -28.8203   23.3027 O   0  0  0  0  0  0
  -28.4076  -26.7143   20.1039 O   0  0  0  0  0  0
  -26.5591  -34.8931   22.4689 O   0  0  0  0  0  0
  -23.5339  -32.1413   23.7506 O   0  0  0  0  0  0
  -29.4045  -20.2293   20.1913 C   0  0  0  0  0  0
  -29.7200  -22.1696   20.9497 C   0  0  0  0  0  0
  -27.4018  -20.8279   22.9317 C   0  0  0  0  0  0
  -28.7596  -18.9322   19.7722 C   0  0  0  0  0  0
  -29.5632  -23.4603   21.7161 C   0  0  0  0  0  0
  -28.8538  -17.7348   20.7533 C   0  0  0  0  0  0
  -29.6312  -24.7733   20.8952 C   0  0  0  0  0  0
  -27.4211  -21.2204   21.4474 C   0  0  0  0  0  0
  -30.1697  -16.9156   20.7070 C   0  0  0  0  0  0
  -28.2856  -25.3084   20.3663 C   0  0  0  0  0  0
  -30.6603  -20.5503   19.8599 N   0  0  0  0  0  0
  -30.8654  -21.8191   20.3513 N   0  0  0  0  0  0
  -28.7706  -21.2040   20.8918 N   0  0  0  0  0  0
  -29.9376  -15.4917   21.0053 N   0  0  0  0  0  0
  -31.4735  -12.4060   19.1301 H   0  0  0  0  0  0
  -30.3381  -11.2881   19.8309 H   0  0  0  0  0  0
  -29.7399  -11.7564   17.4436 H   0  0  0  0  0  0
  -29.6799  -13.4722   17.7674 H   0  0  0  0  0  0
  -27.8233  -11.3074   18.8103 H   0  0  0  0  0  0
  -27.3758  -12.6456   17.7864 H   0  0  0  0  0  0
  -27.7093  -14.2497   19.5818 H   0  0  0  0  0  0
  -28.6805  -11.9487   21.3487 H   0  0  0  0  0  0
  -28.4708  -13.5895   21.8775 H   0  0  0  0  0  0
  -25.2751   -9.5697   22.4755 H   0  0  0  0  0  0
  -23.9987   -7.4641   22.7472 H   0  0  0  0  0  0
  -21.0830   -8.8778   19.8958 H   0  0  0  0  0  0
  -22.3672  -10.9682   19.6160 H   0  0  0  0  0  0
  -21.1998   -7.6147   23.9718 H   0  0  0  0  0  0
  -21.1471   -6.0527   25.9088 H   0  0  0  0  0  0
  -22.0594   -2.7605   23.2849 H   0  0  0  0  0  0
  -22.4086  -11.9958   22.4814 H   0  0  0  0  0  0
  -21.1103  -13.1317   22.2526 H   0  0  0  0  0  0
  -24.6688  -15.8433   20.5135 H   0  0  0  0  0  0
  -26.2775  -15.6191   20.0531 H   0  0  0  0  0  0
  -26.7102  -32.5536   23.1149 H   0  0  0  0  0  0
  -25.0048  -33.9778   25.0475 H   0  0  0  0  0  0
  -22.6896  -31.3075   21.4108 H   0  0  0  0  0  0
  -23.3740  -35.9659   23.3309 H   0  0  0  0  0  0
  -24.3582  -36.8922   22.2051 H   0  0  0  0  0  0
  -23.7241  -37.6530   23.6645 H   0  0  0  0  0  0
  -26.0317  -31.6021   20.5868 H   0  0  0  0  0  0
  -26.8194  -30.8957   21.9702 H   0  0  0  0  0  0
  -28.1047  -29.1211   21.1381 H   0  0  0  0  0  0
  -26.0491  -25.9622   19.0305 H   0  0  0  0  0  0
  -23.9743  -27.2831   19.0521 H   0  0  0  0  0  0
  -23.7120  -30.5933   19.4032 H   0  0  0  0  0  0
  -22.7323  -29.2366   19.8725 H   0  0  0  0  0  0
  -25.1281  -36.1975   25.0832 H   0  0  0  0  0  0
  -20.9942  -28.3224   24.1445 H   0  0  0  0  0  0
  -20.5652  -26.2267   23.3601 H   0  0  0  0  0  0
  -21.6627  -26.7445   22.1216 H   0  0  0  0  0  0
  -19.6903  -25.6302   21.1231 H   0  0  0  0  0  0
  -19.6691  -27.3204   20.6745 H   0  0  0  0  0  0
  -17.4184  -26.6670   21.4019 H   0  0  0  0  0  0
  -18.0325  -26.0067   22.9016 H   0  0  0  0  0  0
  -19.7926  -30.7246   24.2302 H   0  0  0  0  0  0
  -17.5015  -31.6275   24.5162 H   0  0  0  0  0  0
  -15.5346  -30.3014   23.7650 H   0  0  0  0  0  0
  -15.8646  -28.0848   22.7059 H   0  0  0  0  0  0
  -24.5905  -30.7067   25.7820 H   0  0  0  0  0  0
  -24.8950  -32.2880   26.4919 H   0  0  0  0  0  0
  -25.8106  -30.8887   27.0221 H   0  0  0  0  0  0
  -26.2828  -29.6806   24.1139 H   0  0  0  0  0  0
  -27.4092  -29.7279   25.4512 H   0  0  0  0  0  0
  -27.8647  -30.4372   23.9189 H   0  0  0  0  0  0
  -27.2656  -33.3607   26.2073 H   0  0  0  0  0  0
  -28.3840  -32.6894   25.0290 H   0  0  0  0  0  0
  -28.0720  -31.8423   26.5367 H   0  0  0  0  0  0
  -28.2604  -38.0103   24.7511 H   0  0  0  0  0  0
  -28.1072  -36.2635   24.6285 H   0  0  0  0  0  0
  -27.2303  -37.1452   25.8869 H   0  0  0  0  0  0
  -20.9272  -29.8767   21.6973 H   0  0  0  0  0  0
  -26.0180  -38.2876   24.1419 H   0  0  0  0  0  0
  -26.3809  -20.8246   23.3157 H   0  0  0  0  0  0
  -27.9765  -21.5235   23.5433 H   0  0  0  0  0  0
  -27.8155  -19.8320   23.0868 H   0  0  0  0  0  0
  -29.1776  -18.6400   18.8088 H   0  0  0  0  0  0
  -27.7113  -19.1288   19.5506 H   0  0  0  0  0  0
  -30.3786  -23.4776   22.4391 H   0  0  0  0  0  0
  -28.6612  -23.4438   22.3250 H   0  0  0  0  0  0
  -28.0368  -17.0674   20.4775 H   0  0  0  0  0  0
  -28.6352  -18.0568   21.7716 H   0  0  0  0  0  0
  -30.3680  -24.7032   20.0953 H   0  0  0  0  0  0
  -30.0143  -25.5354   21.5750 H   0  0  0  0  0  0
  -26.9941  -22.2153   21.3123 H   0  0  0  0  0  0
  -26.7783  -20.5481   20.8831 H   0  0  0  0  0  0
  -30.8984  -17.3291   21.4063 H   0  0  0  0  0  0
  -30.6159  -16.9982   19.7136 H   0  0  0  0  0  0
  -27.5098  -25.1438   21.1175 H   0  0  0  0  0  0
  -27.9911  -24.7672   19.4663 H   0  0  0  0  0  0
  -29.0394  -15.2394   21.3880 H   0  0  0  0  0  0
  1 25  1  0  0  0
  1 30  2  0  0  0
  1 84  1  0  0  0
  2  3  1  0  0  0
  2 25  1  0  0  0
  2 85  1  0  0  0
  2 86  1  0  0  0
  3  4  1  0  0  0
  3 87  1  0  0  0
  3 88  1  0  0  0
  4  5  1  0  0  0
  4 89  1  0  0  0
  4 90  1  0  0  0
  5  6  1  0  0  0
  5 26  1  0  0  0
  5 91  1  0  0  0
  6 25  1  0  0  0
  6 92  1  0  0  0
  6 93  1  0  0  0
  7  8  2  0  0  0
  7 26  1  0  0  0
  7 29  1  0  0  0
  8  9  1  0  0  0
  8 22  1  0  0  0
  9 10  1  0  0  0
  9 27  2  0  0  0
 10 11  2  0  0  0
 10 15  1  0  0  0
 11 12  1  0  0  0
 11 94  1  0  0  0
 12 13  2  0  0  0
 12 95  1  0  0  0
 13 14  1  0  0  0
 13 31  1  0  0  0
 14 15  2  0  0  0
 14 96  1  0  0  0
 15 97  1  0  0  0
 16 17  2  0  0  0
 16 21  1  0  0  0
 16 31  1  0  0  0
 17 18  1  0  0  0
 17 98  1  0  0  0
 18 19  2  0  0  0
 18 99  1  0  0  0
 19 20  1  0  0  0
 19 24  1  0  0  0
 20 21  2  0  0  0
 20100  1  0  0  0
 21 23  1  0  0  0
 22 28  1  0  0  0
 22 32  2  0  0  0
 26 27  1  0  0  0
 28101  1  0  0  0
 28102  1  0  0  0
 29103  1  0  0  0
 29104  1  0  0  0
 33 34  1  0  0  0
 33 66  1  0  0  0
 33 70  2  0  0  0
 34 36  1  0  0  0
 34 59  1  0  0  0
 34105  1  0  0  0
 35 44  2  0  0  0
 35 45  1  0  0  0
 35 68  1  0  0  0
 36 56  1  0  0  0
 36106  1  0  0  0
 37 39  1  0  0  0
 37 47  1  0  0  0
 37 66  1  0  0  0
 37107  1  0  0  0
 38 43  2  0  0  0
 38 46  1  0  0  0
 38 47  1  0  0  0
 39 64  1  0  0  0
 39 67  2  0  0  0
 40 52  1  0  0  0
 40 53  2  0  0  0
 40 58  1  0  0  0
 41108  1  0  0  0
 41109  1  0  0  0
 41110  1  0  0  0
 41 48  1  0  0  0
 42 43  1  0  0  0
 42 66  1  0  0  0
 42111  1  0  0  0
 42112  1  0  0  0
 43 44  1  0  0  0
 44113  1  0  0  0
 45 46  2  0  0  0
 45114  1  0  0  0
 46115  1  0  0  0
 47116  1  0  0  0
 47117  1  0  0  0
 48 56  1  0  0  0
 48 65  1  0  0  0
 48118  1  0  0  0
 49 50  1  0  0  0
 49 53  1  0  0  0
 49 64  1  0  0  0
 49119  1  0  0  0
 50 51  1  0  0  0
 50120  1  0  0  0
 50121  1  0  0  0
 51 52  1  0  0  0
 51122  1  0  0  0
 51123  1  0  0  0
 52124  1  0  0  0
 52125  1  0  0  0
 53 54  1  0  0  0
 54 55  2  0  0  0
 54126  1  0  0  0
 55 57  1  0  0  0
 55127  1  0  0  0
 56 69  2  0  0  0
 57 58  2  0  0  0
 57128  1  0  0  0
 58129  1  0  0  0
 59 60  1  0  0  0
 59 61  1  0  0  0
 59 62  1  0  0  0
 60130  1  0  0  0
 60131  1  0  0  0
 60132  1  0  0  0
 61133  1  0  0  0
 61134  1  0  0  0
 61135  1  0  0  0
 62136  1  0  0  0
 62137  1  0  0  0
 62138  1  0  0  0
 63 65  1  0  0  0
 63139  1  0  0  0
 63140  1  0  0  0
 63141  1  0  0  0
 64142  1  0  0  0
 65143  1  0  0  0
 68 80  1  0  0  0
 71 74  1  0  0  0
 71 81  2  0  0  0
 71 83  1  0  0  0
 72 75  1  0  0  0
 72 82  2  0  0  0
 72 83  1  0  0  0
 73 78  1  0  0  0
 73144  1  0  0  0
 73145  1  0  0  0
 73146  1  0  0  0
 74 76  1  0  0  0
 74147  1  0  0  0
 74148  1  0  0  0
 75 77  1  0  0  0
 75149  1  0  0  0
 75150  1  0  0  0
 76 79  1  0  0  0
 76151  1  0  0  0
 76152  1  0  0  0
 77 80  1  0  0  0
 77153  1  0  0  0
 77154  1  0  0  0
 78 83  1  0  0  0
 78155  1  0  0  0
 78156  1  0  0  0
 79 84  1  0  0  0
 79157  1  0  0  0
 79158  1  0  0  0
 80159  1  0  0  0
 80160  1  0  0  0
 81 82  1  0  0  0
 84161  1  0  0  0
M  ISO  4   1 100  68 101  80 101  84 100
M  END
> <chiral flag>
0

> <version>
0

> <s_m_source_file>
/data/baiqing/PycharmProjects/Reinvent-master-3.2/result/LINK_invent/BTK/process_docking_weight1_custom_sum_contain_oxygen_bond_distance_aromatic_linkinvent_7_9_3/rearranged_h_0079.sdf

> <i_m_source_file_index>
8

> <r_mmod_Potential_Energy-OPLS-2005>
-120.645210266113

> <r_mmod_Stretch_Energy-OPLS-2005>
35.3916244506836

> <r_mmod_Bend_Energy-OPLS-2005>
106.313362121582

> <r_mmod_Torsional_Energy-OPLS-2005>
235.886764526367

> <r_mmod_Improper_Torsional_Energy-OPLS-2005>
5.82917642593384

> <r_mmod_Van_der_Waal_Energy-OPLS-2005>
122.896522521973

> <r_mmod_Electrostatic_Energy-OPLS-2005>
-390.074645996094

> <r_mmod_Solvation_Energy-OPLS-2005>
-249.289916992188

> <b_mmod_Minimization_Converged-OPLS-2005>
0

> <r_mmod_RMS_Derivative-OPLS-2005>
1.67153215408325

$$$$
8
                    3D
 Structure written by MMmdl.
172180  0  0  1  0            999 V2000
  -30.7327  -14.5109   20.5019 C   0  0  0  0  0  0
  -30.4130  -12.3129   19.4506 C   0  0  0  0  0  0
  -29.5004  -12.4906   18.2190 C   0  0  0  0  0  0
  -28.0182  -12.3558   18.6190 C   0  0  0  0  0  0
  -27.6529  -13.2194   19.8591 C   0  0  2  0  0  0
  -28.6965  -13.0812   20.9948 C   0  0  0  0  0  0
  -25.2552  -13.8196   20.5675 C   0  0  0  0  0  0
  -24.1818  -13.0433   20.9207 C   0  0  0  0  0  0
  -24.6387  -11.6906   20.8725 C   0  0  0  0  0  0
  -23.9042  -10.4283   21.0362 C   0  0  0  0  0  0
  -24.3585   -9.4212   21.9159 C   0  0  0  0  0  0
  -23.6293   -8.2231   22.0707 C   0  0  0  0  0  0
  -22.4267   -8.0264   21.3513 C   0  0  0  0  0  0
  -21.9908   -9.0235   20.4618 C   0  0  0  0  0  0
  -22.7203  -10.2124   20.3016 C   0  0  0  0  0  0
  -21.6852   -6.0735   22.5276 C   0  0  0  0  0  0
  -21.4027   -6.5639   23.8222 C   0  0  0  0  0  0
  -21.3679   -5.6768   24.9176 C   0  0  0  0  0  0
  -21.6047   -4.3039   24.7229 C   0  0  0  0  0  0
  -21.8823   -3.8151   23.4347 C   0  0  0  0  0  0
  -21.9190   -4.6974   22.3413 C   0  0  0  0  0  0
  -22.7845  -13.5225   21.1885 C   0  0  0  0  0  0
  -22.1634   -4.2145   21.0980 F   0  0  0  0  0  0
  -21.5660   -3.4518   25.7744 F   0  0  0  0  0  0
  -30.0292  -13.3448   20.4290 N   0  0  0  0  0  0
  -26.2979  -12.9367   20.3322 N   0  0  0  0  0  0
  -25.9316  -11.6519   20.5750 N   0  0  0  0  0  0
  -22.0493  -12.8182   22.0427 N   0  0  0  0  0  0
  -25.4220  -15.1912   20.4021 N   0  0  0  0  0  0
  -31.9104  -14.5876   20.1462 O   0  0  0  0  0  0
  -21.6621   -6.8872   21.4220 O   0  0  0  0  0  0
  -22.3511  -14.5531   20.6756 O   0  0  0  0  0  0
  -24.6111  -31.8721   23.2110 C   0  0  0  0  0  0
  -25.8997  -32.4852   23.8392 C   0  0  1  0  0  0
  -27.2192  -27.4013   20.1087 C   0  0  0  0  0  0
  -25.5874  -33.8641   24.2313 N   0  0  0  0  0  0
  -23.4011  -30.4979   21.5531 C   0  0  2  0  0  0
  -24.8486  -28.9784   20.1029 C   0  0  0  0  0  0
  -22.7416  -29.4632   22.4930 C   0  0  0  0  0  0
  -18.0276  -28.1392   22.8544 C   0  0  0  0  0  0
  -24.1498  -36.7303   23.2651 C   0  0  0  0  0  0
  -25.9387  -30.8232   21.3800 C   0  0  0  0  0  0
  -26.0084  -29.4597   20.7218 C   0  0  0  0  0  0
  -27.1893  -28.6777   20.7303 C   0  0  0  0  0  0
  -26.0445  -26.9654   19.4473 C   0  0  0  0  0  0
  -24.8680  -27.7345   19.4563 C   0  0  0  0  0  0
  -23.6107  -29.8478   20.1613 C   0  0  0  0  0  0
  -25.4126  -36.3118   24.0349 C   0  0  1  0  0  0
  -20.5874  -28.3633   23.1391 C   0  0  2  0  0  0
  -20.6758  -26.9357   22.5479 C   0  0  0  0  0  0
  -19.5695  -26.6378   21.5311 C   0  0  0  0  0  0
  -18.1879  -26.7938   22.1708 C   0  0  0  0  0  0
  -19.1531  -28.8833   23.2975 C   0  0  0  0  0  0
  -18.9414  -30.1455   23.8946 C   0  0  0  0  0  0
  -17.6405  -30.6584   24.0583 C   0  0  0  0  0  0
  -25.9063  -34.9489   23.5127 C   0  0  0  0  0  0
  -16.5308  -29.9079   23.6336 C   0  0  0  0  0  0
  -16.7260  -28.6517   23.0336 C   0  0  0  0  0  0
  -26.4405  -31.6638   25.0726 C   0  0  0  0  0  0
  -25.3651  -31.3749   26.1461 C   0  0  0  0  0  0
  -27.0200  -30.3076   24.6121 C   0  0  0  0  0  0
  -27.6009  -32.4361   25.7426 C   0  0  0  0  0  0
  -27.5593  -37.1807   24.8471 C   0  0  0  0  0  0
  -21.4130  -29.3010   22.3774 N   0  0  0  0  0  0
  -26.4307  -37.3797   23.9412 N   0  0  0  0  0  0
  -24.6692  -31.0793   22.1044 N   0  0  0  0  0  0
  -23.4221  -28.8148   23.2927 O   0  0  0  0  0  0
  -28.3733  -26.6284   20.1841 O   0  0  0  0  0  0
  -26.5624  -34.8913   22.4697 O   0  0  0  0  0  0
  -23.5316  -32.1445   23.7537 O   0  0  0  0  0  0
  -32.0785  -21.3909   19.8740 C   0  0  0  0  0  0
  -32.9609  -20.3920   19.5680 C   0  0  0  0  0  0
  -31.0451  -19.4613   20.3395 C   0  0  0  0  0  0
  -28.7162  -18.5266   21.1176 C   0  0  0  0  0  0
  -35.2842  -19.7026   20.1539 C   0  0  0  0  0  0
  -34.8916  -21.8844   19.0088 C   0  0  0  0  0  0
  -34.5609  -19.7555   17.7417 C   0  0  0  0  0  0
  -29.4182  -22.8896   19.9782 C   0  0  0  0  0  0
  -29.1923  -24.2778   20.6554 C   0  0  0  0  0  0
  -29.8276  -21.6884   20.8972 C   0  0  0  0  0  0
  -30.4214  -16.9460   20.0630 C   0  0  0  0  0  0
  -28.3296  -25.2361   19.7888 C   0  0  0  0  0  0
  -30.2155  -18.2712   20.8887 C   0  0  1  0  0  0
  -34.4054  -20.4279   19.1172 C   0  0  0  0  0  0
  -30.9180  -20.8255   20.3534 N   0  0  0  0  0  0
  -32.2723  -19.2392   19.8324 N   0  3  0  0  0  0
  -30.0180  -15.6465   20.6807 N   0  0  0  0  0  0
  -31.4607  -12.3842   19.1504 H   0  0  0  0  0  0
  -30.2904  -11.3199   19.8822 H   0  0  0  0  0  0
  -29.7492  -11.7514   17.4549 H   0  0  0  0  0  0
  -29.6757  -13.4674   17.7659 H   0  0  0  0  0  0
  -27.8204  -11.3011   18.8214 H   0  0  0  0  0  0
  -27.3757  -12.6213   17.7779 H   0  0  0  0  0  0
  -27.6708  -14.2555   19.5207 H   0  0  0  0  0  0
  -28.6654  -12.0780   21.4246 H   0  0  0  0  0  0
  -28.4712  -13.7638   21.8153 H   0  0  0  0  0  0
  -25.2721   -9.5711   22.4736 H   0  0  0  0  0  0
  -24.0042   -7.4590   22.7372 H   0  0  0  0  0  0
  -21.0877   -8.8710   19.8889 H   0  0  0  0  0  0
  -22.3646  -10.9646   19.6127 H   0  0  0  0  0  0
  -21.1989   -7.6136   23.9743 H   0  0  0  0  0  0
  -21.1507   -6.0488   25.9079 H   0  0  0  0  0  0
  -22.0593   -2.7617   23.2837 H   0  0  0  0  0  0
  -22.4147  -11.9855   22.4802 H   0  0  0  0  0  0
  -21.1089  -13.1138   22.2600 H   0  0  0  0  0  0
  -24.6393  -15.8333   20.4773 H   0  0  0  0  0  0
  -26.2602  -15.6314   20.0464 H   0  0  0  0  0  0
  -26.7058  -32.5524   23.1148 H   0  0  0  0  0  0
  -24.9962  -33.9827   25.0412 H   0  0  0  0  0  0
  -22.6856  -31.3116   21.4234 H   0  0  0  0  0  0
  -23.3783  -35.9607   23.3313 H   0  0  0  0  0  0
  -24.3612  -36.8936   22.2072 H   0  0  0  0  0  0
  -23.7212  -37.6490   23.6662 H   0  0  0  0  0  0
  -26.0707  -31.5916   20.6156 H   0  0  0  0  0  0
  -26.8225  -30.8661   22.0021 H   0  0  0  0  0  0
  -28.0700  -29.0312   21.2460 H   0  0  0  0  0  0
  -26.0008  -26.0339   18.9040 H   0  0  0  0  0  0
  -23.9884  -27.3698   18.9439 H   0  0  0  0  0  0
  -23.7120  -30.6340   19.4119 H   0  0  0  0  0  0
  -22.7295  -29.2733   19.8644 H   0  0  0  0  0  0
  -25.1304  -36.2002   25.0842 H   0  0  0  0  0  0
  -20.9996  -28.3174   24.1499 H   0  0  0  0  0  0
  -20.5768  -26.2168   23.3635 H   0  0  0  0  0  0
  -21.6586  -26.7427   22.1158 H   0  0  0  0  0  0
  -19.6822  -25.6313   21.1269 H   0  0  0  0  0  0
  -19.6661  -27.3253   20.6900 H   0  0  0  0  0  0
  -17.4163  -26.6776   21.4096 H   0  0  0  0  0  0
  -18.0200  -26.0088   22.9099 H   0  0  0  0  0  0
  -19.7865  -30.7326   24.2295 H   0  0  0  0  0  0
  -17.4911  -31.6253   24.5176 H   0  0  0  0  0  0
  -15.5295  -30.2963   23.7619 H   0  0  0  0  0  0
  -15.8669  -28.0863   22.6960 H   0  0  0  0  0  0
  -24.5793  -30.7167   25.7751 H   0  0  0  0  0  0
  -24.8840  -32.2892   26.4931 H   0  0  0  0  0  0
  -25.7941  -30.8835   27.0200 H   0  0  0  0  0  0
  -26.2723  -29.6898   24.1132 H   0  0  0  0  0  0
  -27.3922  -29.7277   25.4574 H   0  0  0  0  0  0
  -27.8579  -30.4407   23.9276 H   0  0  0  0  0  0
  -27.2689  -33.3724   26.1912 H   0  0  0  0  0  0
  -28.3768  -32.6865   25.0180 H   0  0  0  0  0  0
  -28.0688  -31.8541   26.5371 H   0  0  0  0  0  0
  -28.2612  -38.0104   24.7512 H   0  0  0  0  0  0
  -28.1083  -36.2636   24.6286 H   0  0  0  0  0  0
  -27.2299  -37.1431   25.8870 H   0  0  0  0  0  0
  -20.9237  -29.8713   21.7021 H   0  0  0  0  0  0
  -26.0216  -38.2891   24.1375 H   0  0  0  0  0  0
  -32.2186  -22.4606   19.8332 H   0  0  0  0  0  0
  -28.5512  -19.1774   21.9762 H   0  0  0  0  0  0
  -28.1970  -17.5970   21.3444 H   0  0  0  0  0  0
  -28.2299  -18.9589   20.2431 H   0  0  0  0  0  0
  -35.1453  -20.1100   21.1568 H   0  0  0  0  0  0
  -36.3446  -19.8111   19.9156 H   0  0  0  0  0  0
  -35.0682  -18.6335   20.1971 H   0  0  0  0  0  0
  -34.8258  -22.4022   19.9687 H   0  0  0  0  0  0
  -34.3019  -22.4492   18.2860 H   0  0  0  0  0  0
  -35.9325  -21.9290   18.6809 H   0  0  0  0  0  0
  -34.2561  -18.7085   17.7550 H   0  0  0  0  0  0
  -35.6006  -19.7742   17.4116 H   0  0  0  0  0  0
  -33.9702  -20.2701   16.9836 H   0  0  0  0  0  0
  -30.1492  -23.0423   19.1848 H   0  0  0  0  0  0
  -28.5067  -22.6005   19.4554 H   0  0  0  0  0  0
  -30.1564  -24.7389   20.8612 H   0  0  0  0  0  0
  -28.7061  -24.1547   21.6245 H   0  0  0  0  0  0
  -28.9430  -21.0985   21.1095 H   0  0  0  0  0  0
  -30.1853  -22.0651   21.8561 H   0  0  0  0  0  0
  -31.4721  -16.8816   19.7901 H   0  0  0  0  0  0
  -29.8975  -17.0314   19.1089 H   0  0  0  0  0  0
  -27.3310  -24.8093   19.8421 H   0  0  0  0  0  0
  -28.6307  -25.1874   18.7420 H   0  0  0  0  0  0
  -30.6587  -18.1021   21.8710 H   0  0  0  0  0  0
  -32.6655  -18.3138   19.7025 H   0  0  0  0  0  0
  -29.0584  -15.5375   20.9747 H   0  0  0  0  0  0
  1 25  1  0  0  0
  1 30  2  0  0  0
  1 87  1  0  0  0
  2  3  1  0  0  0
  2 25  1  0  0  0
  2 88  1  0  0  0
  2 89  1  0  0  0
  3  4  1  0  0  0
  3 90  1  0  0  0
  3 91  1  0  0  0
  4  5  1  0  0  0
  4 92  1  0  0  0
  4 93  1  0  0  0
  5  6  1  0  0  0
  5 26  1  0  0  0
  5 94  1  0  0  0
  6 25  1  0  0  0
  6 95  1  0  0  0
  6 96  1  0  0  0
  7  8  2  0  0  0
  7 26  1  0  0  0
  7 29  1  0  0  0
  8  9  1  0  0  0
  8 22  1  0  0  0
  9 10  1  0  0  0
  9 27  2  0  0  0
 10 11  2  0  0  0
 10 15  1  0  0  0
 11 12  1  0  0  0
 11 97  1  0  0  0
 12 13  2  0  0  0
 12 98  1  0  0  0
 13 14  1  0  0  0
 13 31  1  0  0  0
 14 15  2  0  0  0
 14 99  1  0  0  0
 15100  1  0  0  0
 16 17  2  0  0  0
 16 21  1  0  0  0
 16 31  1  0  0  0
 17 18  1  0  0  0
 17101  1  0  0  0
 18 19  2  0  0  0
 18102  1  0  0  0
 19 20  1  0  0  0
 19 24  1  0  0  0
 20 21  2  0  0  0
 20103  1  0  0  0
 21 23  1  0  0  0
 22 28  1  0  0  0
 22 32  2  0  0  0
 26 27  1  0  0  0
 28104  1  0  0  0
 28105  1  0  0  0
 29106  1  0  0  0
 29107  1  0  0  0
 33 34  1  0  0  0
 33 66  1  0  0  0
 33 70  2  0  0  0
 34 36  1  0  0  0
 34 59  1  0  0  0
 34108  1  0  0  0
 35 44  2  0  0  0
 35 45  1  0  0  0
 35 68  1  0  0  0
 36 56  1  0  0  0
 36109  1  0  0  0
 37 39  1  0  0  0
 37 47  1  0  0  0
 37 66  1  0  0  0
 37110  1  0  0  0
 38 43  2  0  0  0
 38 46  1  0  0  0
 38 47  1  0  0  0
 39 64  1  0  0  0
 39 67  2  0  0  0
 40 52  1  0  0  0
 40 53  2  0  0  0
 40 58  1  0  0  0
 41111  1  0  0  0
 41112  1  0  0  0
 41113  1  0  0  0
 41 48  1  0  0  0
 42 43  1  0  0  0
 42 66  1  0  0  0
 42114  1  0  0  0
 42115  1  0  0  0
 43 44  1  0  0  0
 44116  1  0  0  0
 45 46  2  0  0  0
 45117  1  0  0  0
 46118  1  0  0  0
 47119  1  0  0  0
 47120  1  0  0  0
 48 56  1  0  0  0
 48 65  1  0  0  0
 48121  1  0  0  0
 49 50  1  0  0  0
 49 53  1  0  0  0
 49 64  1  0  0  0
 49122  1  0  0  0
 50 51  1  0  0  0
 50123  1  0  0  0
 50124  1  0  0  0
 51 52  1  0  0  0
 51125  1  0  0  0
 51126  1  0  0  0
 52127  1  0  0  0
 52128  1  0  0  0
 53 54  1  0  0  0
 54 55  2  0  0  0
 54129  1  0  0  0
 55 57  1  0  0  0
 55130  1  0  0  0
 56 69  2  0  0  0
 57 58  2  0  0  0
 57131  1  0  0  0
 58132  1  0  0  0
 59 60  1  0  0  0
 59 61  1  0  0  0
 59 62  1  0  0  0
 60133  1  0  0  0
 60134  1  0  0  0
 60135  1  0  0  0
 61136  1  0  0  0
 61137  1  0  0  0
 61138  1  0  0  0
 62139  1  0  0  0
 62140  1  0  0  0
 62141  1  0  0  0
 63 65  1  0  0  0
 63142  1  0  0  0
 63143  1  0  0  0
 63144  1  0  0  0
 64145  1  0  0  0
 65146  1  0  0  0
 68 82  1  0  0  0
 71 72  2  0  0  0
 71 85  1  0  0  0
 71147  1  0  0  0
 72 84  1  0  0  0
 72 86  1  0  0  0
 73 83  1  0  0  0
 73 85  1  0  0  0
 73 86  2  0  0  0
 74148  1  0  0  0
 74149  1  0  0  0
 74150  1  0  0  0
 74 83  1  0  0  0
 75151  1  0  0  0
 75152  1  0  0  0
 75153  1  0  0  0
 75 84  1  0  0  0
 76 84  1  0  0  0
 76154  1  0  0  0
 76155  1  0  0  0
 76156  1  0  0  0
 77 84  1  0  0  0
 77157  1  0  0  0
 77158  1  0  0  0
 77159  1  0  0  0
 78 79  1  0  0  0
 78 80  1  0  0  0
 78160  1  0  0  0
 78161  1  0  0  0
 79 82  1  0  0  0
 79162  1  0  0  0
 79163  1  0  0  0
 80 85  1  0  0  0
 80164  1  0  0  0
 80165  1  0  0  0
 81 83  1  0  0  0
 81 87  1  0  0  0
 81166  1  0  0  0
 81167  1  0  0  0
 82168  1  0  0  0
 82169  1  0  0  0
 83170  1  0  0  0
 86171  1  0  0  0
 87172  1  0  0  0
M  CHG  1  86   1
M  ISO  4   1 100  68 101  82 101  87 100
M  END
> <chiral flag>
0

> <version>
0

> <s_m_source_file>
/data/baiqing/PycharmProjects/Reinvent-master-3.2/result/LINK_invent/BTK/process_docking_weight1_custom_sum_contain_oxygen_bond_distance_aromatic_linkinvent_7_9_3/rearranged_h_0079.sdf

> <i_m_source_file_index>
9

> <r_mmod_Potential_Energy-OPLS-2005>
-41.3722267150879

> <r_mmod_Stretch_Energy-OPLS-2005>
53.5892105102539

> <r_mmod_Bend_Energy-OPLS-2005>
138.191101074219

> <r_mmod_Torsional_Energy-OPLS-2005>
260.9443359375

> <r_mmod_Improper_Torsional_Energy-OPLS-2005>
9.67499351501465

> <r_mmod_Van_der_Waal_Energy-OPLS-2005>
144.051132202148

> <r_mmod_Electrostatic_Energy-OPLS-2005>
-282.678192138672

> <r_mmod_Solvation_Energy-OPLS-2005>
-392.277709960938

> <b_mmod_Minimization_Converged-OPLS-2005>
0

> <r_mmod_RMS_Derivative-OPLS-2005>
5.24515581130981

$$$$
9
                    3D
 Structure written by MMmdl.
162170  0  0  1  0            999 V2000
  -30.6189  -14.7887   20.4214 C   0  0  0  0  0  0
  -30.4344  -12.4763   19.4784 C   0  0  0  0  0  0
  -29.5142  -12.5012   18.2400 C   0  0  0  0  0  0
  -28.0423  -12.3210   18.6573 C   0  0  0  0  0  0
  -27.6407  -13.2368   19.8457 C   0  0  2  0  0  0
  -28.6904  -13.2083   20.9775 C   0  0  0  0  0  0
  -25.2526  -13.8208   20.5762 C   0  0  0  0  0  0
  -24.1801  -13.0435   20.9245 C   0  0  0  0  0  0
  -24.6402  -11.6925   20.8767 C   0  0  0  0  0  0
  -23.9073  -10.4293   21.0413 C   0  0  0  0  0  0
  -24.3621   -9.4195   21.9181 C   0  0  0  0  0  0
  -23.6277   -8.2243   22.0766 C   0  0  0  0  0  0
  -22.4259   -8.0286   21.3565 C   0  0  0  0  0  0
  -21.9903   -9.0261   20.4670 C   0  0  0  0  0  0
  -22.7246  -10.2129   20.3065 C   0  0  0  0  0  0
  -21.6840   -6.0732   22.5283 C   0  0  0  0  0  0
  -21.4008   -6.5631   23.8217 C   0  0  0  0  0  0
  -21.3668   -5.6782   24.9177 C   0  0  0  0  0  0
  -21.6045   -4.3044   24.7221 C   0  0  0  0  0  0
  -21.8815   -3.8140   23.4343 C   0  0  0  0  0  0
  -21.9183   -4.6959   22.3403 C   0  0  0  0  0  0
  -22.7819  -13.5219   21.1878 C   0  0  0  0  0  0
  -22.1640   -4.2150   21.0977 F   0  0  0  0  0  0
  -21.5641   -3.4526   25.7733 F   0  0  0  0  0  0
  -29.9877  -13.5602   20.3846 N   0  0  0  0  0  0
  -26.2945  -12.9424   20.3297 N   0  0  0  0  0  0
  -25.9333  -11.6564   20.5761 N   0  0  0  0  0  0
  -22.0438  -12.8225   22.0435 N   0  0  0  0  0  0
  -25.4224  -15.1929   20.4285 N   0  0  0  0  0  0
  -31.8130  -14.8673   20.1263 O   0  0  0  0  0  0
  -21.6630   -6.8883   21.4247 O   0  0  0  0  0  0
  -22.3523  -14.5525   20.6707 O   0  0  0  0  0  0
  -24.6360  -31.8517   23.1966 C   0  0  0  0  0  0
  -25.9166  -32.4735   23.8322 C   0  0  1  0  0  0
  -27.2237  -27.2311   20.1222 C   0  0  0  0  0  0
  -25.5947  -33.8542   24.2244 N   0  0  0  0  0  0
  -23.4364  -30.4729   21.5406 C   0  0  2  0  0  0
  -24.8860  -28.9174   20.1083 C   0  0  0  0  0  0
  -22.7543  -29.4567   22.4903 C   0  0  0  0  0  0
  -18.0319  -28.1385   22.8465 C   0  0  0  0  0  0
  -24.1488  -36.7276   23.2639 C   0  0  0  0  0  0
  -25.9863  -30.7508   21.3851 C   0  0  0  0  0  0
  -26.0604  -29.3718   20.7238 C   0  0  0  0  0  0
  -27.2345  -28.5422   20.7202 C   0  0  0  0  0  0
  -26.0320  -26.8639   19.4595 C   0  0  0  0  0  0
  -24.8793  -27.6725   19.4617 C   0  0  0  0  0  0
  -23.6577  -29.8073   20.1572 C   0  0  0  0  0  0
  -25.4116  -36.3065   24.0321 C   0  0  1  0  0  0
  -20.5920  -28.3694   23.1262 C   0  0  2  0  0  0
  -20.6808  -26.9403   22.5422 C   0  0  0  0  0  0
  -19.5801  -26.6372   21.5203 C   0  0  0  0  0  0
  -18.1962  -26.7946   22.1558 C   0  0  0  0  0  0
  -19.1566  -28.8850   23.2871 C   0  0  0  0  0  0
  -18.9481  -30.1447   23.8895 C   0  0  0  0  0  0
  -17.6480  -30.6568   24.0574 C   0  0  0  0  0  0
  -25.9058  -34.9430   23.5087 C   0  0  0  0  0  0
  -16.5374  -29.9059   23.6331 C   0  0  0  0  0  0
  -16.7297  -28.6492   23.0331 C   0  0  0  0  0  0
  -26.4512  -31.6572   25.0733 C   0  0  0  0  0  0
  -25.3722  -31.3749   26.1450 C   0  0  0  0  0  0
  -27.0347  -30.2973   24.6256 C   0  0  0  0  0  0
  -27.6058  -32.4318   25.7508 C   0  0  0  0  0  0
  -27.5581  -37.1797   24.8462 C   0  0  0  0  0  0
  -21.4245  -29.3033   22.3656 N   0  0  0  0  0  0
  -26.4289  -37.3767   23.9406 N   0  0  0  0  0  0
  -24.7053  -31.0429   22.0972 N   0  0  0  0  0  0
  -23.4220  -28.8097   23.3008 O   0  0  0  0  0  0
  -28.2796  -26.2754   20.1479 O   0  0  0  0  0  0
  -26.5626  -34.8915   22.4656 O   0  0  0  0  0  0
  -23.5496  -32.1350   23.7236 O   0  0  0  0  0  0
  -28.0682  -22.5354   19.2190 C   0  0  0  0  0  0
  -29.8537  -22.7571   20.8791 C   0  0  0  0  0  0
  -28.0213  -20.9667   19.4633 C   0  0  0  0  0  0
  -29.8581  -21.1678   21.1252 C   0  0  0  0  0  0
  -28.4610  -23.3553   20.4767 C   0  0  1  0  0  0
  -29.2999  -20.1933   20.0006 C   0  0  1  0  0  0
  -27.9905  -18.0348   19.3509 C   0  0  0  0  0  0
  -28.4195  -18.4941   21.7666 C   0  0  0  0  0  0
  -27.9469  -24.9121   20.7257 C   0  0  0  0  0  0
  -30.2168  -17.4309   20.3084 C   0  0  0  0  0  0
  -29.0379  -18.5731   20.3578 C   0  0  0  0  0  0
  -29.8558  -15.9451   20.5601 N   0  0  0  0  0  0
  -31.4763  -12.5935   19.1757 H   0  0  0  0  0  0
  -30.3760  -11.5091   19.9800 H   0  0  0  0  0  0
  -29.8082  -11.7175   17.5404 H   0  0  0  0  0  0
  -29.6346  -13.4466   17.7080 H   0  0  0  0  0  0
  -27.9077  -11.2762   18.9368 H   0  0  0  0  0  0
  -27.3835  -12.4902   17.8047 H   0  0  0  0  0  0
  -27.6229  -14.2507   19.4458 H   0  0  0  0  0  0
  -28.7341  -12.2236   21.4424 H   0  0  0  0  0  0
  -28.4228  -13.9133   21.7675 H   0  0  0  0  0  0
  -25.2761   -9.5658   22.4752 H   0  0  0  0  0  0
  -23.9986   -7.4635   22.7478 H   0  0  0  0  0  0
  -21.0839   -8.8775   19.8980 H   0  0  0  0  0  0
  -22.3701  -10.9664   19.6175 H   0  0  0  0  0  0
  -21.1991   -7.6139   23.9715 H   0  0  0  0  0  0
  -21.1506   -6.0516   25.9087 H   0  0  0  0  0  0
  -22.0597   -2.7605   23.2840 H   0  0  0  0  0  0
  -22.4020  -11.9871   22.4834 H   0  0  0  0  0  0
  -21.1071  -13.1311   22.2643 H   0  0  0  0  0  0
  -24.6670  -15.8518   20.5838 H   0  0  0  0  0  0
  -26.2799  -15.6396   20.1351 H   0  0  0  0  0  0
  -26.7236  -32.5362   23.1057 H   0  0  0  0  0  0
  -25.0106  -33.9678   25.0399 H   0  0  0  0  0  0
  -22.7352  -31.2971   21.3929 H   0  0  0  0  0  0
  -23.3754  -35.9606   23.3292 H   0  0  0  0  0  0
  -24.3585  -36.8906   22.2061 H   0  0  0  0  0  0
  -23.7242  -37.6472   23.6664 H   0  0  0  0  0  0
  -26.1341  -31.5117   20.6170 H   0  0  0  0  0  0
  -26.8611  -30.7969   22.0220 H   0  0  0  0  0  0
  -28.1306  -28.8835   21.2207 H   0  0  0  0  0  0
  -25.9778  -25.9156   18.9420 H   0  0  0  0  0  0
  -23.9861  -27.3268   18.9593 H   0  0  0  0  0  0
  -23.7874  -30.5856   19.4044 H   0  0  0  0  0  0
  -22.7744  -29.2449   19.8496 H   0  0  0  0  0  0
  -25.1305  -36.1900   25.0813 H   0  0  0  0  0  0
  -21.0024  -28.3280   24.1378 H   0  0  0  0  0  0
  -20.5679  -26.2316   23.3641 H   0  0  0  0  0  0
  -21.6691  -26.7409   22.1253 H   0  0  0  0  0  0
  -19.6964  -25.6285   21.1237 H   0  0  0  0  0  0
  -19.6777  -27.3188   20.6740 H   0  0  0  0  0  0
  -17.4283  -26.6762   21.3895 H   0  0  0  0  0  0
  -18.0282  -26.0052   22.8903 H   0  0  0  0  0  0
  -19.7957  -30.7267   24.2263 H   0  0  0  0  0  0
  -17.5020  -31.6234   24.5203 H   0  0  0  0  0  0
  -15.5369  -30.2947   23.7659 H   0  0  0  0  0  0
  -15.8707  -28.0819   22.7005 H   0  0  0  0  0  0
  -24.5922  -30.7062   25.7801 H   0  0  0  0  0  0
  -24.8892  -32.2930   26.4809 H   0  0  0  0  0  0
  -25.8048  -30.8998   27.0265 H   0  0  0  0  0  0
  -26.2948  -29.6729   24.1249 H   0  0  0  0  0  0
  -27.3963  -29.7235   25.4795 H   0  0  0  0  0  0
  -27.8852  -30.4214   23.9551 H   0  0  0  0  0  0
  -27.2667  -33.3640   26.2034 H   0  0  0  0  0  0
  -28.3901  -32.6839   25.0358 H   0  0  0  0  0  0
  -28.0682  -31.8475   26.5470 H   0  0  0  0  0  0
  -28.2590  -38.0104   24.7515 H   0  0  0  0  0  0
  -28.1085  -36.2635   24.6268 H   0  0  0  0  0  0
  -27.2306  -37.1434   25.8868 H   0  0  0  0  0  0
  -20.9427  -29.8792   21.6888 H   0  0  0  0  0  0
  -26.0157  -38.2832   24.1416 H   0  0  0  0  0  0
  -27.0853  -22.8601   18.8771 H   0  0  0  0  0  0
  -28.7564  -22.7578   18.4019 H   0  0  0  0  0  0
  -30.5902  -23.0084   20.1144 H   0  0  0  0  0  0
  -30.2000  -23.2500   21.7884 H   0  0  0  0  0  0
  -27.7173  -20.5182   18.5179 H   0  0  0  0  0  0
  -27.2017  -20.7751   20.1542 H   0  0  0  0  0  0
  -29.2820  -21.0075   22.0353 H   0  0  0  0  0  0
  -30.8737  -20.8547   21.3713 H   0  0  0  0  0  0
  -27.8295  -22.8912   21.2355 H   0  0  0  0  0  0
  -30.0251  -20.2137   19.1845 H   0  0  0  0  0  0
  -27.0290  -18.5412   19.4310 H   0  0  0  0  0  0
  -27.7669  -16.9801   19.4965 H   0  0  0  0  0  0
  -28.3456  -18.1471   18.3255 H   0  0  0  0  0  0
  -27.5726  -19.1724   21.8737 H   0  0  0  0  0  0
  -29.1526  -18.7605   22.5296 H   0  0  0  0  0  0
  -28.0621  -17.4922   22.0061 H   0  0  0  0  0  0
  -28.0831  -25.0781   21.7950 H   0  0  0  0  0  0
  -26.8671  -24.7978   20.6428 H   0  0  0  0  0  0
  -31.0101  -17.7068   21.0027 H   0  0  0  0  0  0
  -30.6846  -17.4727   19.3229 H   0  0  0  0  0  0
  -28.8851  -15.7750   20.7728 H   0  0  0  0  0  0
  1 25  1  0  0  0
  1 30  2  0  0  0
  1 82  1  0  0  0
  2  3  1  0  0  0
  2 25  1  0  0  0
  2 83  1  0  0  0
  2 84  1  0  0  0
  3  4  1  0  0  0
  3 85  1  0  0  0
  3 86  1  0  0  0
  4  5  1  0  0  0
  4 87  1  0  0  0
  4 88  1  0  0  0
  5  6  1  0  0  0
  5 26  1  0  0  0
  5 89  1  0  0  0
  6 25  1  0  0  0
  6 90  1  0  0  0
  6 91  1  0  0  0
  7  8  2  0  0  0
  7 26  1  0  0  0
  7 29  1  0  0  0
  8  9  1  0  0  0
  8 22  1  0  0  0
  9 10  1  0  0  0
  9 27  2  0  0  0
 10 11  2  0  0  0
 10 15  1  0  0  0
 11 12  1  0  0  0
 11 92  1  0  0  0
 12 13  2  0  0  0
 12 93  1  0  0  0
 13 14  1  0  0  0
 13 31  1  0  0  0
 14 15  2  0  0  0
 14 94  1  0  0  0
 15 95  1  0  0  0
 16 17  2  0  0  0
 16 21  1  0  0  0
 16 31  1  0  0  0
 17 18  1  0  0  0
 17 96  1  0  0  0
 18 19  2  0  0  0
 18 97  1  0  0  0
 19 20  1  0  0  0
 19 24  1  0  0  0
 20 21  2  0  0  0
 20 98  1  0  0  0
 21 23  1  0  0  0
 22 28  1  0  0  0
 22 32  2  0  0  0
 26 27  1  0  0  0
 28 99  1  0  0  0
 28100  1  0  0  0
 29101  1  0  0  0
 29102  1  0  0  0
 33 34  1  0  0  0
 33 66  1  0  0  0
 33 70  2  0  0  0
 34 36  1  0  0  0
 34 59  1  0  0  0
 34103  1  0  0  0
 35 44  2  0  0  0
 35 45  1  0  0  0
 35 68  1  0  0  0
 36 56  1  0  0  0
 36104  1  0  0  0
 37 39  1  0  0  0
 37 47  1  0  0  0
 37 66  1  0  0  0
 37105  1  0  0  0
 38 43  2  0  0  0
 38 46  1  0  0  0
 38 47  1  0  0  0
 39 64  1  0  0  0
 39 67  2  0  0  0
 40 52  1  0  0  0
 40 53  2  0  0  0
 40 58  1  0  0  0
 41106  1  0  0  0
 41107  1  0  0  0
 41108  1  0  0  0
 41 48  1  0  0  0
 42 43  1  0  0  0
 42 66  1  0  0  0
 42109  1  0  0  0
 42110  1  0  0  0
 43 44  1  0  0  0
 44111  1  0  0  0
 45 46  2  0  0  0
 45112  1  0  0  0
 46113  1  0  0  0
 47114  1  0  0  0
 47115  1  0  0  0
 48 56  1  0  0  0
 48 65  1  0  0  0
 48116  1  0  0  0
 49 50  1  0  0  0
 49 53  1  0  0  0
 49 64  1  0  0  0
 49117  1  0  0  0
 50 51  1  0  0  0
 50118  1  0  0  0
 50119  1  0  0  0
 51 52  1  0  0  0
 51120  1  0  0  0
 51121  1  0  0  0
 52122  1  0  0  0
 52123  1  0  0  0
 53 54  1  0  0  0
 54 55  2  0  0  0
 54124  1  0  0  0
 55 57  1  0  0  0
 55125  1  0  0  0
 56 69  2  0  0  0
 57 58  2  0  0  0
 57126  1  0  0  0
 58127  1  0  0  0
 59 60  1  0  0  0
 59 61  1  0  0  0
 59 62  1  0  0  0
 60128  1  0  0  0
 60129  1  0  0  0
 60130  1  0  0  0
 61131  1  0  0  0
 61132  1  0  0  0
 61133  1  0  0  0
 62134  1  0  0  0
 62135  1  0  0  0
 62136  1  0  0  0
 63 65  1  0  0  0
 63137  1  0  0  0
 63138  1  0  0  0
 63139  1  0  0  0
 64140  1  0  0  0
 65141  1  0  0  0
 68 79  1  0  0  0
 71 73  1  0  0  0
 71 75  1  0  0  0
 71142  1  0  0  0
 71143  1  0  0  0
 72 74  1  0  0  0
 72 75  1  0  0  0
 72144  1  0  0  0
 72145  1  0  0  0
 73146  1  0  0  0
 73147  1  0  0  0
 73 76  1  0  0  0
 74 76  1  0  0  0
 74148  1  0  0  0
 74149  1  0  0  0
 75 79  1  0  0  0
 75150  1  0  0  0
 76 81  1  0  0  0
 76151  1  0  0  0
 77152  1  0  0  0
 77153  1  0  0  0
 77154  1  0  0  0
 77 81  1  0  0  0
 78 81  1  0  0  0
 78155  1  0  0  0
 78156  1  0  0  0
 78157  1  0  0  0
 79158  1  0  0  0
 79159  1  0  0  0
 80 81  1  0  0  0
 80 82  1  0  0  0
 80160  1  0  0  0
 80161  1  0  0  0
 82162  1  0  0  0
M  ISO  4   1 100  68 101  79 101  82 100
M  END
> <chiral flag>
0

> <version>
0

> <s_m_source_file>
/data/baiqing/PycharmProjects/Reinvent-master-3.2/result/LINK_invent/BTK/process_docking_weight1_custom_sum_contain_oxygen_bond_distance_aromatic_linkinvent_7_9_3/rearranged_h_0079.sdf

> <i_m_source_file_index>
10

> <r_mmod_Potential_Energy-OPLS-2005>
352.630249023438

> <r_mmod_Stretch_Energy-OPLS-2005>
164.588592529297

> <r_mmod_Bend_Energy-OPLS-2005>
267.743072509766

> <r_mmod_Torsional_Energy-OPLS-2005>
279.422607421875

> <r_mmod_Improper_Torsional_Energy-OPLS-2005>
5.00672197341919

> <r_mmod_Van_der_Waal_Energy-OPLS-2005>
127.747604370117

> <r_mmod_Electrostatic_Energy-OPLS-2005>
-409.03662109375

> <r_mmod_Solvation_Energy-OPLS-2005>
-193.029525756836

> <b_mmod_Minimization_Converged-OPLS-2005>
0

> <r_mmod_RMS_Derivative-OPLS-2005>
2.70293879508972

$$$$
10
                    3D
 Structure written by MMmdl.
158166  0  0  1  0            999 V2000
  -30.5691  -14.9965   20.3952 C   0  0  0  0  0  0
  -30.4449  -12.6209   19.4939 C   0  0  0  0  0  0
  -29.5226  -12.5303   18.2569 C   0  0  0  0  0  0
  -28.0677  -12.2919   18.6981 C   0  0  0  0  0  0
  -27.6314  -13.2572   19.8302 C   0  0  2  0  0  0
  -28.6782  -13.3470   20.9622 C   0  0  0  0  0  0
  -25.2506  -13.8268   20.5741 C   0  0  0  0  0  0
  -24.1838  -13.0459   20.9222 C   0  0  0  0  0  0
  -24.6483  -11.6957   20.8799 C   0  0  0  0  0  0
  -23.9197  -10.4286   21.0458 C   0  0  0  0  0  0
  -24.3708   -9.4177   21.9242 C   0  0  0  0  0  0
  -23.6320   -8.2255   22.0796 C   0  0  0  0  0  0
  -22.4315   -8.0321   21.3565 C   0  0  0  0  0  0
  -21.9981   -9.0338   20.4699 C   0  0  0  0  0  0
  -22.7356  -10.2168   20.3103 C   0  0  0  0  0  0
  -21.6846   -6.0762   22.5301 C   0  0  0  0  0  0
  -21.4011   -6.5667   23.8232 C   0  0  0  0  0  0
  -21.3647   -5.6821   24.9193 C   0  0  0  0  0  0
  -21.6035   -4.3075   24.7239 C   0  0  0  0  0  0
  -21.8812   -3.8167   23.4354 C   0  0  0  0  0  0
  -21.9188   -4.6992   22.3403 C   0  0  0  0  0  0
  -22.7847  -13.5205   21.1867 C   0  0  0  0  0  0
  -22.1664   -4.2177   21.0978 F   0  0  0  0  0  0
  -21.5622   -3.4557   25.7739 F   0  0  0  0  0  0
  -29.9520  -13.7426   20.3478 N   0  0  0  0  0  0
  -26.2959  -12.9520   20.3279 N   0  0  0  0  0  0
  -25.9414  -11.6639   20.5794 N   0  0  0  0  0  0
  -22.0505  -12.8207   22.0429 N   0  0  0  0  0  0
  -25.4141  -15.1979   20.4116 N   0  0  0  0  0  0
  -31.7820  -15.0236   20.1641 O   0  0  0  0  0  0
  -21.6635   -6.8919   21.4282 O   0  0  0  0  0  0
  -22.3521  -14.5507   20.6696 O   0  0  0  0  0  0
  -24.6457  -31.8393   23.1818 C   0  0  0  0  0  0
  -25.9204  -32.4691   23.8206 C   0  0  1  0  0  0
  -27.2253  -27.0937   20.1716 C   0  0  0  0  0  0
  -25.5866  -33.8481   24.2120 N   0  0  0  0  0  0
  -23.4574  -30.4519   21.5306 C   0  0  2  0  0  0
  -24.9054  -28.8590   20.1240 C   0  0  0  0  0  0
  -22.7618  -29.4524   22.4903 C   0  0  0  0  0  0
  -18.0322  -28.1392   22.8487 C   0  0  0  0  0  0
  -24.1495  -36.7319   23.2652 C   0  0  0  0  0  0
  -26.0137  -30.6975   21.3899 C   0  0  0  0  0  0
  -26.0882  -29.3028   20.7354 C   0  0  0  0  0  0
  -27.2542  -28.4400   20.7291 C   0  0  0  0  0  0
  -26.0144  -26.7472   19.5382 C   0  0  0  0  0  0
  -24.8814  -27.5948   19.5084 C   0  0  0  0  0  0
  -23.6868  -29.7706   20.1565 C   0  0  0  0  0  0
  -25.4129  -36.3043   24.0292 C   0  0  1  0  0  0
  -20.5918  -28.3723   23.1219 C   0  0  2  0  0  0
  -20.6847  -26.9415   22.5421 C   0  0  0  0  0  0
  -19.5812  -26.6364   21.5241 C   0  0  0  0  0  0
  -18.1979  -26.7943   22.1626 C   0  0  0  0  0  0
  -19.1564  -28.8870   23.2842 C   0  0  0  0  0  0
  -18.9490  -30.1486   23.8846 C   0  0  0  0  0  0
  -17.6463  -30.6581   24.0543 C   0  0  0  0  0  0
  -25.9054  -34.9405   23.5048 C   0  0  0  0  0  0
  -16.5368  -29.9063   23.6323 C   0  0  0  0  0  0
  -16.7290  -28.6495   23.0338 C   0  0  0  0  0  0
  -26.4478  -31.6598   25.0715 C   0  0  0  0  0  0
  -25.3563  -31.3741   26.1344 C   0  0  0  0  0  0
  -27.0432  -30.3017   24.6365 C   0  0  0  0  0  0
  -27.6031  -32.4414   25.7425 C   0  0  0  0  0  0
  -27.5615  -37.1798   24.8445 C   0  0  0  0  0  0
  -21.4300  -29.3046   22.3611 N   0  0  0  0  0  0
  -26.4326  -37.3748   23.9379 N   0  0  0  0  0  0
  -24.7271  -31.0171   22.0890 N   0  0  0  0  0  0
  -23.4213  -28.8086   23.3092 O   0  0  0  0  0  0
  -28.2896  -26.1115   20.1452 O   0  0  0  0  0  0
  -26.5742  -34.8913   22.4684 O   0  0  0  0  0  0
  -23.5556  -32.1339   23.6967 O   0  0  0  0  0  0
  -31.5735  -21.8134   21.1397 C   0  0  0  0  0  0
  -29.5719  -22.0719   20.5125 C   0  0  0  0  0  0
  -32.9553  -22.1568   21.6055 C   0  0  0  0  0  0
  -27.0577  -22.3023   20.5003 C   0  0  0  0  0  0
  -28.3525  -23.2044   18.5406 C   0  0  0  0  0  0
  -29.2968  -19.1713   20.3114 C   0  0  0  0  0  0
  -30.2581  -17.7589   20.5202 C   0  0  0  0  0  0
  -28.1679  -24.6547   20.7168 C   0  0  0  0  0  0
  -28.3392  -23.0591   20.0759 C   0  0  0  0  0  0
  -30.6666  -22.7697   20.8281 N   0  0  0  0  0  0
  -31.1623  -20.5589   21.0103 N   0  0  0  0  0  0
  -29.8722  -20.6409   20.5613 N   0  0  0  0  0  0
  -29.8264  -16.2176   20.4955 N   0  0  0  0  0  0
  -31.4769  -12.7666   19.1740 H   0  0  0  0  0  0
  -30.4369  -11.6827   20.0522 H   0  0  0  0  0  0
  -29.8488  -11.7289   17.5920 H   0  0  0  0  0  0
  -29.5861  -13.4539   17.6797 H   0  0  0  0  0  0
  -28.0082  -11.2641   19.0622 H   0  0  0  0  0  0
  -27.3882  -12.3580   17.8475 H   0  0  0  0  0  0
  -27.5800  -14.2413   19.3635 H   0  0  0  0  0  0
  -28.7756  -12.4039   21.5033 H   0  0  0  0  0  0
  -28.3776  -14.0947   21.6956 H   0  0  0  0  0  0
  -25.2864   -9.5599   22.4817 H   0  0  0  0  0  0
  -24.0013   -7.4635   22.7529 H   0  0  0  0  0  0
  -21.0898   -8.8913   19.9015 H   0  0  0  0  0  0
  -22.3899  -10.9741   19.6209 H   0  0  0  0  0  0
  -21.2018   -7.6183   23.9741 H   0  0  0  0  0  0
  -21.1469   -6.0554   25.9099 H   0  0  0  0  0  0
  -22.0589   -2.7636   23.2863 H   0  0  0  0  0  0
  -22.4093  -11.9827   22.4769 H   0  0  0  0  0  0
  -21.1172  -13.1321   22.2708 H   0  0  0  0  0  0
  -24.6405  -15.8463   20.5081 H   0  0  0  0  0  0
  -26.2556  -15.6456   20.0723 H   0  0  0  0  0  0
  -26.7274  -32.5302   23.0931 H   0  0  0  0  0  0
  -24.9800  -33.9506   25.0116 H   0  0  0  0  0  0
  -22.7621  -31.2752   21.3687 H   0  0  0  0  0  0
  -23.3750  -35.9680   23.3298 H   0  0  0  0  0  0
  -24.3544  -36.9021   22.2077 H   0  0  0  0  0  0
  -23.7278  -37.6498   23.6737 H   0  0  0  0  0  0
  -26.1773  -31.4520   20.6198 H   0  0  0  0  0  0
  -26.8742  -30.7434   22.0462 H   0  0  0  0  0  0
  -28.1679  -28.7811   21.1970 H   0  0  0  0  0  0
  -25.9335  -25.7755   19.0748 H   0  0  0  0  0  0
  -23.9775  -27.2409   19.0332 H   0  0  0  0  0  0
  -23.8265  -30.5384   19.3939 H   0  0  0  0  0  0
  -22.7989  -29.2119   19.8537 H   0  0  0  0  0  0
  -25.1325  -36.1913   25.0787 H   0  0  0  0  0  0
  -21.0000  -28.3367   24.1336 H   0  0  0  0  0  0
  -20.5848  -26.2314   23.3637 H   0  0  0  0  0  0
  -21.6694  -26.7530   22.1120 H   0  0  0  0  0  0
  -19.6962  -25.6261   21.1284 H   0  0  0  0  0  0
  -19.6736  -27.3177   20.6750 H   0  0  0  0  0  0
  -17.4265  -26.6697   21.3993 H   0  0  0  0  0  0
  -18.0315  -26.0073   22.8993 H   0  0  0  0  0  0
  -19.7969  -30.7318   24.2214 H   0  0  0  0  0  0
  -17.5017  -31.6260   24.5202 H   0  0  0  0  0  0
  -15.5367  -30.2924   23.7705 H   0  0  0  0  0  0
  -15.8720  -28.0814   22.7032 H   0  0  0  0  0  0
  -24.5751  -30.7161   25.7498 H   0  0  0  0  0  0
  -24.8715  -32.2881   26.4764 H   0  0  0  0  0  0
  -25.7700  -30.8815   27.0151 H   0  0  0  0  0  0
  -26.3117  -29.6616   24.1453 H   0  0  0  0  0  0
  -27.4095  -29.7473   25.5005 H   0  0  0  0  0  0
  -27.8948  -30.4241   23.9687 H   0  0  0  0  0  0
  -27.2684  -33.3768   26.1891 H   0  0  0  0  0  0
  -28.3776  -32.6912   25.0160 H   0  0  0  0  0  0
  -28.0765  -31.8656   26.5363 H   0  0  0  0  0  0
  -28.2624  -38.0126   24.7565 H   0  0  0  0  0  0
  -28.1148  -36.2664   24.6240 H   0  0  0  0  0  0
  -27.2305  -37.1404   25.8841 H   0  0  0  0  0  0
  -20.9562  -29.8723   21.6729 H   0  0  0  0  0  0
  -26.0240  -38.2843   24.1367 H   0  0  0  0  0  0
  -33.4729  -22.7618   20.8593 H   0  0  0  0  0  0
  -33.5517  -21.2628   21.7857 H   0  0  0  0  0  0
  -32.9159  -22.7292   22.5335 H   0  0  0  0  0  0
  -26.9903  -21.3108   20.0486 H   0  0  0  0  0  0
  -26.1430  -22.8374   20.2375 H   0  0  0  0  0  0
  -27.0500  -22.1527   21.5821 H   0  0  0  0  0  0
  -28.2912  -22.2348   18.0504 H   0  0  0  0  0  0
  -29.2680  -23.6900   18.1971 H   0  0  0  0  0  0
  -27.5095  -23.7978   18.1789 H   0  0  0  0  0  0
  -28.4067  -19.0771   20.9328 H   0  0  0  0  0  0
  -28.9242  -19.1596   19.2848 H   0  0  0  0  0  0
  -30.7309  -17.8726   21.4951 H   0  0  0  0  0  0
  -31.0861  -17.8454   19.8125 H   0  0  0  0  0  0
  -28.8571  -24.6796   21.5591 H   0  0  0  0  0  0
  -27.2045  -24.6658   21.2301 H   0  0  0  0  0  0
  -28.8337  -16.0678   20.6057 H   0  0  0  0  0  0
  1 25  1  0  0  0
  1 30  2  0  0  0
  1 83  1  0  0  0
  2  3  1  0  0  0
  2 25  1  0  0  0
  2 84  1  0  0  0
  2 85  1  0  0  0
  3  4  1  0  0  0
  3 86  1  0  0  0
  3 87  1  0  0  0
  4  5  1  0  0  0
  4 88  1  0  0  0
  4 89  1  0  0  0
  5  6  1  0  0  0
  5 26  1  0  0  0
  5 90  1  0  0  0
  6 25  1  0  0  0
  6 91  1  0  0  0
  6 92  1  0  0  0
  7  8  2  0  0  0
  7 26  1  0  0  0
  7 29  1  0  0  0
  8  9  1  0  0  0
  8 22  1  0  0  0
  9 10  1  0  0  0
  9 27  2  0  0  0
 10 11  2  0  0  0
 10 15  1  0  0  0
 11 12  1  0  0  0
 11 93  1  0  0  0
 12 13  2  0  0  0
 12 94  1  0  0  0
 13 14  1  0  0  0
 13 31  1  0  0  0
 14 15  2  0  0  0
 14 95  1  0  0  0
 15 96  1  0  0  0
 16 17  2  0  0  0
 16 21  1  0  0  0
 16 31  1  0  0  0
 17 18  1  0  0  0
 17 97  1  0  0  0
 18 19  2  0  0  0
 18 98  1  0  0  0
 19 20  1  0  0  0
 19 24  1  0  0  0
 20 21  2  0  0  0
 20 99  1  0  0  0
 21 23  1  0  0  0
 22 28  1  0  0  0
 22 32  2  0  0  0
 26 27  1  0  0  0
 28100  1  0  0  0
 28101  1  0  0  0
 29102  1  0  0  0
 29103  1  0  0  0
 33 34  1  0  0  0
 33 66  1  0  0  0
 33 70  2  0  0  0
 34 36  1  0  0  0
 34 59  1  0  0  0
 34104  1  0  0  0
 35 44  2  0  0  0
 35 45  1  0  0  0
 35 68  1  0  0  0
 36 56  1  0  0  0
 36105  1  0  0  0
 37 39  1  0  0  0
 37 47  1  0  0  0
 37 66  1  0  0  0
 37106  1  0  0  0
 38 43  2  0  0  0
 38 46  1  0  0  0
 38 47  1  0  0  0
 39 64  1  0  0  0
 39 67  2  0  0  0
 40 52  1  0  0  0
 40 53  2  0  0  0
 40 58  1  0  0  0
 41107  1  0  0  0
 41108  1  0  0  0
 41109  1  0  0  0
 41 48  1  0  0  0
 42 43  1  0  0  0
 42 66  1  0  0  0
 42110  1  0  0  0
 42111  1  0  0  0
 43 44  1  0  0  0
 44112  1  0  0  0
 45 46  2  0  0  0
 45113  1  0  0  0
 46114  1  0  0  0
 47115  1  0  0  0
 47116  1  0  0  0
 48 56  1  0  0  0
 48 65  1  0  0  0
 48117  1  0  0  0
 49 50  1  0  0  0
 49 53  1  0  0  0
 49 64  1  0  0  0
 49118  1  0  0  0
 50 51  1  0  0  0
 50119  1  0  0  0
 50120  1  0  0  0
 51 52  1  0  0  0
 51121  1  0  0  0
 51122  1  0  0  0
 52123  1  0  0  0
 52124  1  0  0  0
 53 54  1  0  0  0
 54 55  2  0  0  0
 54125  1  0  0  0
 55 57  1  0  0  0
 55126  1  0  0  0
 56 69  2  0  0  0
 57 58  2  0  0  0
 57127  1  0  0  0
 58128  1  0  0  0
 59 60  1  0  0  0
 59 61  1  0  0  0
 59 62  1  0  0  0
 60129  1  0  0  0
 60130  1  0  0  0
 60131  1  0  0  0
 61132  1  0  0  0
 61133  1  0  0  0
 61134  1  0  0  0
 62135  1  0  0  0
 62136  1  0  0  0
 62137  1  0  0  0
 63 65  1  0  0  0
 63138  1  0  0  0
 63139  1  0  0  0
 63140  1  0  0  0
 64141  1  0  0  0
 65142  1  0  0  0
 68 78  1  0  0  0
 71 73  1  0  0  0
 71 80  1  0  0  0
 71 81  2  0  0  0
 72 79  1  0  0  0
 72 80  2  0  0  0
 72 82  1  0  0  0
 73143  1  0  0  0
 73144  1  0  0  0
 73145  1  0  0  0
 74146  1  0  0  0
 74147  1  0  0  0
 74148  1  0  0  0
 74 79  1  0  0  0
 75 79  1  0  0  0
 75149  1  0  0  0
 75150  1  0  0  0
 75151  1  0  0  0
 76 77  1  0  0  0
 76 82  1  0  0  0
 76152  1  0  0  0
 76153  1  0  0  0
 77 83  1  0  0  0
 77154  1  0  0  0
 77155  1  0  0  0
 78 79  1  0  0  0
 78156  1  0  0  0
 78157  1  0  0  0
 81 82  1  0  0  0
 83158  1  0  0  0
M  ISO  4   1 100  68 101  78 101  83 100
M  END
> <chiral flag>
0

> <version>
0

> <s_m_source_file>
/data/baiqing/PycharmProjects/Reinvent-master-3.2/result/LINK_invent/BTK/process_docking_weight1_custom_sum_contain_oxygen_bond_distance_aromatic_linkinvent_7_9_3/rearranged_h_0079.sdf

> <i_m_source_file_index>
11

> <r_mmod_Potential_Energy-OPLS-2005>
643.985168457031

> <r_mmod_Stretch_Energy-OPLS-2005>
330.188507080078

> <r_mmod_Bend_Energy-OPLS-2005>
350.698883056641

> <r_mmod_Torsional_Energy-OPLS-2005>
252.81462097168

> <r_mmod_Improper_Torsional_Energy-OPLS-2005>
4.62814521789551

> <r_mmod_Van_der_Waal_Energy-OPLS-2005>
103.598861694336

> <r_mmod_Electrostatic_Energy-OPLS-2005>
-392.789001464844

> <r_mmod_Solvation_Energy-OPLS-2005>
-233.090316772461

> <b_mmod_Minimization_Converged-OPLS-2005>
0

> <r_mmod_RMS_Derivative-OPLS-2005>
5.7342004776001

$$$$
11
                    3D
 Structure written by MMmdl.
166174  0  0  1  0            999 V2000
  -30.6887  -14.5064   20.5866 C   0  0  0  0  0  0
  -30.4246  -12.3362   19.4276 C   0  0  0  0  0  0
  -29.4989  -12.5176   18.2086 C   0  0  0  0  0  0
  -28.0185  -12.3658   18.6171 C   0  0  0  0  0  0
  -27.6565  -13.2125   19.8668 C   0  0  2  0  0  0
  -28.6952  -13.0117   20.9905 C   0  0  0  0  0  0
  -25.2547  -13.8171   20.5659 C   0  0  0  0  0  0
  -24.1809  -13.0453   20.9192 C   0  0  0  0  0  0
  -24.6362  -11.6924   20.8748 C   0  0  0  0  0  0
  -23.9028  -10.4320   21.0426 C   0  0  0  0  0  0
  -24.3598   -9.4239   21.9194 C   0  0  0  0  0  0
  -23.6322   -8.2237   22.0736 C   0  0  0  0  0  0
  -22.4301   -8.0272   21.3529 C   0  0  0  0  0  0
  -21.9928   -9.0232   20.4620 C   0  0  0  0  0  0
  -22.7215  -10.2136   20.3060 C   0  0  0  0  0  0
  -21.6841   -6.0758   22.5296 C   0  0  0  0  0  0
  -21.3998   -6.5656   23.8237 C   0  0  0  0  0  0
  -21.3663   -5.6797   24.9195 C   0  0  0  0  0  0
  -21.6067   -4.3058   24.7217 C   0  0  0  0  0  0
  -21.8822   -3.8156   23.4334 C   0  0  0  0  0  0
  -21.9188   -4.6982   22.3397 C   0  0  0  0  0  0
  -22.7832  -13.5244   21.1883 C   0  0  0  0  0  0
  -22.1656   -4.2178   21.0974 F   0  0  0  0  0  0
  -21.5647   -3.4543   25.7727 F   0  0  0  0  0  0
  -30.0222  -13.3271   20.4386 N   0  0  0  0  0  0
  -26.2970  -12.9354   20.3294 N   0  0  0  0  0  0
  -25.9293  -11.6500   20.5741 N   0  0  0  0  0  0
  -22.0447  -12.8232   22.0417 N   0  0  0  0  0  0
  -25.4268  -15.1891   20.4063 N   0  0  0  0  0  0
  -31.8335  -14.6781   20.1614 O   0  0  0  0  0  0
  -21.6634   -6.8891   21.4255 O   0  0  0  0  0  0
  -22.3516  -14.5555   20.6736 O   0  0  0  0  0  0
  -24.6181  -31.8653   23.2061 C   0  0  0  0  0  0
  -25.9058  -32.4801   23.8376 C   0  0  1  0  0  0
  -27.2251  -27.3910   20.1214 C   0  0  0  0  0  0
  -25.5917  -33.8597   24.2314 N   0  0  0  0  0  0
  -23.4082  -30.4894   21.5452 C   0  0  2  0  0  0
  -24.8540  -28.9446   20.1183 C   0  0  0  0  0  0
  -22.7419  -29.4664   22.4945 C   0  0  0  0  0  0
  -18.0282  -28.1387   22.8495 C   0  0  0  0  0  0
  -24.1486  -36.7300   23.2647 C   0  0  0  0  0  0
  -25.9402  -30.8185   21.3643 C   0  0  0  0  0  0
  -26.0156  -29.4465   20.7204 C   0  0  0  0  0  0
  -27.2058  -28.6777   20.7171 C   0  0  0  0  0  0
  -26.0495  -26.9143   19.5059 C   0  0  0  0  0  0
  -24.8676  -27.6786   19.5072 C   0  0  0  0  0  0
  -23.6197  -29.8182   20.1614 C   0  0  0  0  0  0
  -25.4107  -36.3093   24.0341 C   0  0  1  0  0  0
  -20.5876  -28.3674   23.1308 C   0  0  2  0  0  0
  -20.6773  -26.9402   22.5416 C   0  0  0  0  0  0
  -19.5743  -26.6388   21.5222 C   0  0  0  0  0  0
  -18.1920  -26.7940   22.1626 C   0  0  0  0  0  0
  -19.1527  -28.8841   23.2910 C   0  0  0  0  0  0
  -18.9457  -30.1451   23.8913 C   0  0  0  0  0  0
  -17.6455  -30.6592   24.0564 C   0  0  0  0  0  0
  -25.9037  -34.9462   23.5123 C   0  0  0  0  0  0
  -16.5347  -29.9095   23.6329 C   0  0  0  0  0  0
  -16.7269  -28.6518   23.0346 C   0  0  0  0  0  0
  -26.4473  -31.6586   25.0714 C   0  0  0  0  0  0
  -25.3737  -31.3698   26.1461 C   0  0  0  0  0  0
  -27.0316  -30.3034   24.6103 C   0  0  0  0  0  0
  -27.6044  -32.4302   25.7483 C   0  0  0  0  0  0
  -27.5575  -37.1799   24.8464 C   0  0  0  0  0  0
  -21.4141  -29.3043   22.3696 N   0  0  0  0  0  0
  -26.4284  -37.3781   23.9417 N   0  0  0  0  0  0
  -24.6742  -31.0743   22.0967 N   0  0  0  0  0  0
  -23.4179  -28.8202   23.2999 O   0  0  0  0  0  0
  -28.3837  -26.6379   20.0787 O   0  0  0  0  0  0
  -26.5582  -34.8924   22.4673 O   0  0  0  0  0  0
  -23.5360  -32.1407   23.7439 O   0  0  0  0  0  0
  -28.6198  -21.6383   20.6975 C   0  0  0  0  0  0
  -28.8147  -22.9076   20.0973 C   0  0  0  0  0  0
  -29.4210  -20.5558   20.2570 C   0  0  0  0  0  0
  -30.4787  -21.9991   18.8078 C   0  0  0  0  0  0
  -32.8778  -22.7078   18.3622 C   0  0  0  0  0  0
  -27.8143  -18.5902   20.0961 C   0  0  0  0  0  0
  -30.3806  -17.5242   18.9777 C   0  0  0  0  0  0
  -27.8581  -24.1059   20.2752 C   0  0  0  0  0  0
  -31.5548  -22.2176   17.7585 C   0  0  0  0  0  0
  -30.4578  -16.8797   21.4880 C   0  0  0  0  0  0
  -28.4455  -25.4269   20.8794 C   0  0  0  0  0  0
  -29.1468  -19.0828   20.6837 C   0  0  1  0  0  0
  -30.3132  -18.0426   20.4349 C   0  0  2  0  0  0
  -29.7693  -23.0644   19.1628 N   0  0  0  0  0  0
  -30.3418  -20.7715   19.2958 N   0  0  0  0  0  0
  -29.9735  -15.5254   21.1189 N   0  0  0  0  0  0
  -31.4695  -12.4472   19.1308 H   0  0  0  0  0  0
  -30.3336  -11.3274   19.8337 H   0  0  0  0  0  0
  -29.7531  -11.7932   17.4341 H   0  0  0  0  0  0
  -29.6570  -13.5026   17.7694 H   0  0  0  0  0  0
  -27.8405  -11.3113   18.8197 H   0  0  0  0  0  0
  -27.3668  -12.6295   17.7825 H   0  0  0  0  0  0
  -27.6993  -14.2593   19.5594 H   0  0  0  0  0  0
  -28.6809  -11.9794   21.3447 H   0  0  0  0  0  0
  -28.4491  -13.6204   21.8618 H   0  0  0  0  0  0
  -25.2735   -9.5742   22.4771 H   0  0  0  0  0  0
  -24.0064   -7.4621   22.7436 H   0  0  0  0  0  0
  -21.0870   -8.8722   19.8912 H   0  0  0  0  0  0
  -22.3660  -10.9669   19.6167 H   0  0  0  0  0  0
  -21.1967   -7.6160   23.9760 H   0  0  0  0  0  0
  -21.1496   -6.0506   25.9109 H   0  0  0  0  0  0
  -22.0591   -2.7619   23.2795 H   0  0  0  0  0  0
  -22.4032  -11.9888   22.4819 H   0  0  0  0  0  0
  -21.1049  -13.1248   22.2578 H   0  0  0  0  0  0
  -24.6664  -15.8462   20.5441 H   0  0  0  0  0  0
  -26.2727  -15.6276   20.0633 H   0  0  0  0  0  0
  -26.7123  -32.5511   23.1135 H   0  0  0  0  0  0
  -25.0104  -33.9750   25.0485 H   0  0  0  0  0  0
  -22.7000  -31.3083   21.4008 H   0  0  0  0  0  0
  -23.3753  -35.9627   23.3297 H   0  0  0  0  0  0
  -24.3587  -36.8920   22.2062 H   0  0  0  0  0  0
  -23.7228  -37.6503   23.6657 H   0  0  0  0  0  0
  -26.0546  -31.5786   20.5898 H   0  0  0  0  0  0
  -26.8298  -30.8763   21.9808 H   0  0  0  0  0  0
  -28.1052  -29.0612   21.1784 H   0  0  0  0  0  0
  -26.0403  -25.9576   19.0070 H   0  0  0  0  0  0
  -23.9772  -27.2887   19.0328 H   0  0  0  0  0  0
  -23.7322  -30.5904   19.3989 H   0  0  0  0  0  0
  -22.7443  -29.2381   19.8649 H   0  0  0  0  0  0
  -25.1285  -36.1950   25.0835 H   0  0  0  0  0  0
  -20.9990  -28.3247   24.1421 H   0  0  0  0  0  0
  -20.5692  -26.2275   23.3606 H   0  0  0  0  0  0
  -21.6640  -26.7450   22.1188 H   0  0  0  0  0  0
  -19.6894  -25.6301   21.1249 H   0  0  0  0  0  0
  -19.6703  -27.3207   20.6762 H   0  0  0  0  0  0
  -17.4200  -26.6709   21.4015 H   0  0  0  0  0  0
  -18.0304  -26.0087   22.9024 H   0  0  0  0  0  0
  -19.7931  -30.7266   24.2295 H   0  0  0  0  0  0
  -17.5012  -31.6278   24.5155 H   0  0  0  0  0  0
  -15.5343  -30.2995   23.7657 H   0  0  0  0  0  0
  -15.8678  -28.0853   22.7027 H   0  0  0  0  0  0
  -24.5905  -30.7047   25.7804 H   0  0  0  0  0  0
  -24.8935  -32.2855   26.4924 H   0  0  0  0  0  0
  -25.8098  -30.8862   27.0210 H   0  0  0  0  0  0
  -26.2865  -29.6780   24.1171 H   0  0  0  0  0  0
  -27.4103  -29.7289   25.4569 H   0  0  0  0  0  0
  -27.8690  -30.4363   23.9247 H   0  0  0  0  0  0
  -27.2659  -33.3592   26.2085 H   0  0  0  0  0  0
  -28.3851  -32.6868   25.0310 H   0  0  0  0  0  0
  -28.0707  -31.8403   26.5385 H   0  0  0  0  0  0
  -28.2583  -38.0103   24.7521 H   0  0  0  0  0  0
  -28.1072  -36.2637   24.6270 H   0  0  0  0  0  0
  -27.2294  -37.1423   25.8864 H   0  0  0  0  0  0
  -20.9287  -29.8766   21.6930 H   0  0  0  0  0  0
  -26.0173  -38.2856   24.1427 H   0  0  0  0  0  0
  -27.8200  -21.4697   21.4087 H   0  0  0  0  0  0
  -33.6268  -22.8591   17.5855 H   0  0  0  0  0  0
  -33.2736  -21.9846   19.0751 H   0  0  0  0  0  0
  -32.7362  -23.6547   18.8854 H   0  0  0  0  0  0
  -26.9859  -19.2201   20.4176 H   0  0  0  0  0  0
  -27.5967  -17.5702   20.4124 H   0  0  0  0  0  0
  -27.8329  -18.6116   19.0076 H   0  0  0  0  0  0
  -31.3218  -17.0084   18.7922 H   0  0  0  0  0  0
  -30.3218  -18.3382   18.2563 H   0  0  0  0  0  0
  -29.5714  -16.8291   18.7545 H   0  0  0  0  0  0
  -27.0143  -23.7842   20.8863 H   0  0  0  0  0  0
  -27.4407  -24.3091   19.2912 H   0  0  0  0  0  0
  -31.1954  -22.9395   17.0245 H   0  0  0  0  0  0
  -31.7183  -21.2895   17.2102 H   0  0  0  0  0  0
  -29.9772  -17.1619   22.4257 H   0  0  0  0  0  0
  -31.5146  -16.7827   21.7477 H   0  0  0  0  0  0
  -29.5012  -25.2630   21.0946 H   0  0  0  0  0  0
  -27.9894  -25.6098   21.8546 H   0  0  0  0  0  0
  -29.0143  -19.1410   21.7652 H   0  0  0  0  0  0
  -31.2182  -18.6300   20.5944 H   0  0  0  0  0  0
  -29.0307  -15.2961   21.3907 H   0  0  0  0  0  0
  1 25  1  0  0  0
  1 30  2  0  0  0
  1 86  1  0  0  0
  2  3  1  0  0  0
  2 25  1  0  0  0
  2 87  1  0  0  0
  2 88  1  0  0  0
  3  4  1  0  0  0
  3 89  1  0  0  0
  3 90  1  0  0  0
  4  5  1  0  0  0
  4 91  1  0  0  0
  4 92  1  0  0  0
  5  6  1  0  0  0
  5 26  1  0  0  0
  5 93  1  0  0  0
  6 25  1  0  0  0
  6 94  1  0  0  0
  6 95  1  0  0  0
  7  8  2  0  0  0
  7 26  1  0  0  0
  7 29  1  0  0  0
  8  9  1  0  0  0
  8 22  1  0  0  0
  9 10  1  0  0  0
  9 27  2  0  0  0
 10 11  2  0  0  0
 10 15  1  0  0  0
 11 12  1  0  0  0
 11 96  1  0  0  0
 12 13  2  0  0  0
 12 97  1  0  0  0
 13 14  1  0  0  0
 13 31  1  0  0  0
 14 15  2  0  0  0
 14 98  1  0  0  0
 15 99  1  0  0  0
 16 17  2  0  0  0
 16 21  1  0  0  0
 16 31  1  0  0  0
 17 18  1  0  0  0
 17100  1  0  0  0
 18 19  2  0  0  0
 18101  1  0  0  0
 19 20  1  0  0  0
 19 24  1  0  0  0
 20 21  2  0  0  0
 20102  1  0  0  0
 21 23  1  0  0  0
 22 28  1  0  0  0
 22 32  2  0  0  0
 26 27  1  0  0  0
 28103  1  0  0  0
 28104  1  0  0  0
 29105  1  0  0  0
 29106  1  0  0  0
 33 34  1  0  0  0
 33 66  1  0  0  0
 33 70  2  0  0  0
 34 36  1  0  0  0
 34 59  1  0  0  0
 34107  1  0  0  0
 35 44  2  0  0  0
 35 45  1  0  0  0
 35 68  1  0  0  0
 36 56  1  0  0  0
 36108  1  0  0  0
 37 39  1  0  0  0
 37 47  1  0  0  0
 37 66  1  0  0  0
 37109  1  0  0  0
 38 43  2  0  0  0
 38 46  1  0  0  0
 38 47  1  0  0  0
 39 64  1  0  0  0
 39 67  2  0  0  0
 40 52  1  0  0  0
 40 53  2  0  0  0
 40 58  1  0  0  0
 41110  1  0  0  0
 41111  1  0  0  0
 41112  1  0  0  0
 41 48  1  0  0  0
 42 43  1  0  0  0
 42 66  1  0  0  0
 42113  1  0  0  0
 42114  1  0  0  0
 43 44  1  0  0  0
 44115  1  0  0  0
 45 46  2  0  0  0
 45116  1  0  0  0
 46117  1  0  0  0
 47118  1  0  0  0
 47119  1  0  0  0
 48 56  1  0  0  0
 48 65  1  0  0  0
 48120  1  0  0  0
 49 50  1  0  0  0
 49 53  1  0  0  0
 49 64  1  0  0  0
 49121  1  0  0  0
 50 51  1  0  0  0
 50122  1  0  0  0
 50123  1  0  0  0
 51 52  1  0  0  0
 51124  1  0  0  0
 51125  1  0  0  0
 52126  1  0  0  0
 52127  1  0  0  0
 53 54  1  0  0  0
 54 55  2  0  0  0
 54128  1  0  0  0
 55 57  1  0  0  0
 55129  1  0  0  0
 56 69  2  0  0  0
 57 58  2  0  0  0
 57130  1  0  0  0
 58131  1  0  0  0
 59 60  1  0  0  0
 59 61  1  0  0  0
 59 62  1  0  0  0
 60132  1  0  0  0
 60133  1  0  0  0
 60134  1  0  0  0
 61135  1  0  0  0
 61136  1  0  0  0
 61137  1  0  0  0
 62138  1  0  0  0
 62139  1  0  0  0
 62140  1  0  0  0
 63 65  1  0  0  0
 63141  1  0  0  0
 63142  1  0  0  0
 63143  1  0  0  0
 64144  1  0  0  0
 65145  1  0  0  0
 68 81  1  0  0  0
 71 72  2  0  0  0
 71 73  1  0  0  0
 71146  1  0  0  0
 72 78  1  0  0  0
 72 84  1  0  0  0
 73 82  1  0  0  0
 73 85  2  0  0  0
 74 79  1  0  0  0
 74 84  2  0  0  0
 74 85  1  0  0  0
 75 79  1  0  0  0
 75147  1  0  0  0
 75148  1  0  0  0
 75149  1  0  0  0
 76150  1  0  0  0
 76151  1  0  0  0
 76152  1  0  0  0
 76 82  1  0  0  0
 77153  1  0  0  0
 77154  1  0  0  0
 77155  1  0  0  0
 77 83  1  0  0  0
 78 81  1  0  0  0
 78156  1  0  0  0
 78157  1  0  0  0
 79158  1  0  0  0
 79159  1  0  0  0
 80 83  1  0  0  0
 80 86  1  0  0  0
 80160  1  0  0  0
 80161  1  0  0  0
 81162  1  0  0  0
 81163  1  0  0  0
 82 83  1  0  0  0
 82164  1  0  0  0
 83165  1  0  0  0
 86166  1  0  0  0
M  ISO  4   1 100  68 101  81 101  86 100
M  END
> <chiral flag>
0

> <version>
0

> <s_m_source_file>
/data/baiqing/PycharmProjects/Reinvent-master-3.2/result/LINK_invent/BTK/process_docking_weight1_custom_sum_contain_oxygen_bond_distance_aromatic_linkinvent_7_9_3/rearranged_h_0079.sdf

> <i_m_source_file_index>
12

> <r_mmod_Potential_Energy-OPLS-2005>
-434.820953369141

> <r_mmod_Stretch_Energy-OPLS-2005>
49.7558746337891

> <r_mmod_Bend_Energy-OPLS-2005>
122.73722076416

> <r_mmod_Torsional_Energy-OPLS-2005>
240.340438842773

> <r_mmod_Improper_Torsional_Energy-OPLS-2005>
4.60108995437622

> <r_mmod_Van_der_Waal_Energy-OPLS-2005>
149.52311706543

> <r_mmod_Electrostatic_Energy-OPLS-2005>
-792.333679199219

> <r_mmod_Solvation_Energy-OPLS-2005>
-227.744171142578

> <b_mmod_Minimization_Converged-OPLS-2005>
0

> <r_mmod_RMS_Derivative-OPLS-2005>
2.78717589378357

$$$$
12
                    3D
 Structure written by MMmdl.
168176  0  0  1  0            999 V2000
  -30.7501  -14.3807   20.6436 C   0  0  0  0  0  0
  -30.4105  -12.2816   19.3984 C   0  0  0  0  0  0
  -29.4843  -12.5194   18.1919 C   0  0  0  0  0  0
  -28.0064  -12.3797   18.6079 C   0  0  0  0  0  0
  -27.6633  -13.2038   19.8784 C   0  0  2  0  0  0
  -28.7012  -12.9493   20.9925 C   0  0  0  0  0  0
  -25.2585  -13.8182   20.5678 C   0  0  0  0  0  0
  -24.1816  -13.0463   20.9179 C   0  0  0  0  0  0
  -24.6369  -11.6931   20.8744 C   0  0  0  0  0  0
  -23.9044  -10.4316   21.0414 C   0  0  0  0  0  0
  -24.3606   -9.4224   21.9187 C   0  0  0  0  0  0
  -23.6292   -8.2247   22.0751 C   0  0  0  0  0  0
  -22.4279   -8.0275   21.3532 C   0  0  0  0  0  0
  -21.9904   -9.0259   20.4648 C   0  0  0  0  0  0
  -22.7221  -10.2149   20.3060 C   0  0  0  0  0  0
  -21.6851   -6.0740   22.5281 C   0  0  0  0  0  0
  -21.4016   -6.5640   23.8217 C   0  0  0  0  0  0
  -21.3657   -5.6785   24.9172 C   0  0  0  0  0  0
  -21.6037   -4.3048   24.7218 C   0  0  0  0  0  0
  -21.8817   -3.8146   23.4337 C   0  0  0  0  0  0
  -21.9191   -4.6969   22.3394 C   0  0  0  0  0  0
  -22.7836  -13.5258   21.1845 C   0  0  0  0  0  0
  -22.1654   -4.2154   21.0973 F   0  0  0  0  0  0
  -21.5635   -3.4532   25.7734 F   0  0  0  0  0  0
  -30.0368  -13.2442   20.4447 N   0  0  0  0  0  0
  -26.3018  -12.9340   20.3378 N   0  0  0  0  0  0
  -25.9288  -11.6508   20.5755 N   0  0  0  0  0  0
  -22.0474  -12.8262   22.0419 N   0  0  0  0  0  0
  -25.4338  -15.1896   20.4087 N   0  0  0  0  0  0
  -31.8375  -14.5879   20.1009 O   0  0  0  0  0  0
  -21.6630   -6.8876   21.4237 O   0  0  0  0  0  0
  -22.3510  -14.5553   20.6684 O   0  0  0  0  0  0
  -24.6157  -31.8695   23.2152 C   0  0  0  0  0  0
  -25.9051  -32.4831   23.8419 C   0  0  1  0  0  0
  -27.2282  -27.4562   20.0631 C   0  0  0  0  0  0
  -25.5923  -33.8626   24.2358 N   0  0  0  0  0  0
  -23.4015  -30.4936   21.5614 C   0  0  2  0  0  0
  -24.8379  -28.9634   20.1214 C   0  0  0  0  0  0
  -22.7414  -29.4649   22.5064 C   0  0  0  0  0  0
  -18.0277  -28.1376   22.8516 C   0  0  0  0  0  0
  -24.1497  -36.7302   23.2640 C   0  0  0  0  0  0
  -25.9296  -30.8298   21.3728 C   0  0  0  0  0  0
  -25.9980  -29.4667   20.7204 C   0  0  0  0  0  0
  -27.1919  -28.7125   20.7059 C   0  0  0  0  0  0
  -26.0414  -26.9594   19.4717 C   0  0  0  0  0  0
  -24.8488  -27.7016   19.5062 C   0  0  0  0  0  0
  -23.6020  -29.8302   20.1750 C   0  0  0  0  0  0
  -25.4117  -36.3118   24.0361 C   0  0  1  0  0  0
  -20.5875  -28.3653   23.1346 C   0  0  2  0  0  0
  -20.6785  -26.9402   22.5418 C   0  0  0  0  0  0
  -19.5745  -26.6386   21.5234 C   0  0  0  0  0  0
  -18.1925  -26.7934   22.1638 C   0  0  0  0  0  0
  -19.1522  -28.8835   23.2930 C   0  0  0  0  0  0
  -18.9434  -30.1453   23.8930 C   0  0  0  0  0  0
  -17.6426  -30.6585   24.0567 C   0  0  0  0  0  0
  -25.9039  -34.9487   23.5147 C   0  0  0  0  0  0
  -16.5327  -29.9066   23.6350 C   0  0  0  0  0  0
  -16.7263  -28.6487   23.0372 C   0  0  0  0  0  0
  -26.4494  -31.6609   25.0734 C   0  0  0  0  0  0
  -25.3760  -31.3647   26.1465 C   0  0  0  0  0  0
  -27.0305  -30.3067   24.6072 C   0  0  0  0  0  0
  -27.6106  -32.4307   25.7459 C   0  0  0  0  0  0
  -27.5601  -37.1814   24.8479 C   0  0  0  0  0  0
  -21.4148  -29.3009   22.3761 N   0  0  0  0  0  0
  -26.4313  -37.3798   23.9418 N   0  0  0  0  0  0
  -24.6672  -31.0779   22.1068 N   0  0  0  0  0  0
  -23.4181  -28.8201   23.3119 O   0  0  0  0  0  0
  -28.4217  -26.7656   20.0315 O   0  0  0  0  0  0
  -26.5573  -34.8949   22.4699 O   0  0  0  0  0  0
  -23.5357  -32.1446   23.7555 O   0  0  0  0  0  0
  -28.6951  -19.9042   19.0035 C   0  0  0  0  0  0
  -30.0022  -21.6297   19.1621 C   0  0  0  0  0  0
  -29.8932  -19.5175   19.5632 C   0  0  0  0  0  0
  -31.7780  -17.9281   19.4557 C   0  0  0  0  0  0
  -30.7701  -18.9515   22.4072 C   0  0  0  0  0  0
  -28.6465  -17.7776   21.8518 C   0  0  0  0  0  0
  -28.0752  -23.5820   17.9712 C   0  0  0  0  0  0
  -28.1837  -24.4227   19.2605 C   0  0  0  0  0  0
  -27.7188  -22.0934   18.1747 C   0  0  0  0  0  0
  -30.8171  -16.4958   21.9839 C   0  0  0  0  0  0
  -28.6374  -25.8613   18.9478 C   0  0  0  0  0  0
  -30.3482  -18.1372   19.9952 C   0  0  1  0  0  0
  -30.1580  -17.8358   21.5303 C   0  0  0  0  0  0
  -30.7182  -20.6395   19.6767 N   0  0  0  0  0  0
  -28.7728  -21.2724   18.7604 N   0  0  0  0  0  0
  -30.1870  -15.2802   21.4613 N   0  0  0  0  0  0
  -31.4563  -12.3708   19.0990 H   0  0  0  0  0  0
  -30.2969  -11.2627   19.7724 H   0  0  0  0  0  0
  -29.7185  -11.8161   17.3920 H   0  0  0  0  0  0
  -29.6621  -13.5156   17.7833 H   0  0  0  0  0  0
  -27.8109  -11.3228   18.7924 H   0  0  0  0  0  0
  -27.3538  -12.6687   17.7823 H   0  0  0  0  0  0
  -27.7226  -14.2576   19.6042 H   0  0  0  0  0  0
  -28.6676  -11.9060   21.3102 H   0  0  0  0  0  0
  -28.4615  -13.5264   21.8855 H   0  0  0  0  0  0
  -25.2766   -9.5697   22.4739 H   0  0  0  0  0  0
  -24.0008   -7.4638   22.7477 H   0  0  0  0  0  0
  -21.0827   -8.8768   19.8963 H   0  0  0  0  0  0
  -22.3680  -10.9672   19.6147 H   0  0  0  0  0  0
  -21.2010   -7.6151   23.9719 H   0  0  0  0  0  0
  -21.1479   -6.0517   25.9074 H   0  0  0  0  0  0
  -22.0605   -2.7612   23.2835 H   0  0  0  0  0  0
  -22.4057  -11.9915   22.4816 H   0  0  0  0  0  0
  -21.1090  -13.1297   22.2614 H   0  0  0  0  0  0
  -24.6794  -15.8562   20.5267 H   0  0  0  0  0  0
  -26.2955  -15.6228   20.1019 H   0  0  0  0  0  0
  -26.7116  -32.5550   23.1173 H   0  0  0  0  0  0
  -25.0181  -33.9779   25.0576 H   0  0  0  0  0  0
  -22.6917  -31.3127   21.4327 H   0  0  0  0  0  0
  -23.3773  -35.9623   23.3302 H   0  0  0  0  0  0
  -24.3594  -36.8876   22.2050 H   0  0  0  0  0  0
  -23.7224  -37.6515   23.6615 H   0  0  0  0  0  0
  -26.0508  -31.5940   20.6046 H   0  0  0  0  0  0
  -26.8160  -30.8728   21.9930 H   0  0  0  0  0  0
  -28.0916  -29.0997   21.1650 H   0  0  0  0  0  0
  -26.0056  -26.0043   18.9727 H   0  0  0  0  0  0
  -23.9550  -27.3008   19.0485 H   0  0  0  0  0  0
  -23.7098  -30.6059   19.4158 H   0  0  0  0  0  0
  -22.7266  -29.2460   19.8862 H   0  0  0  0  0  0
  -25.1294  -36.2007   25.0858 H   0  0  0  0  0  0
  -20.9983  -28.3208   24.1459 H   0  0  0  0  0  0
  -20.5758  -26.2251   23.3593 H   0  0  0  0  0  0
  -21.6652  -26.7497   22.1171 H   0  0  0  0  0  0
  -19.6910  -25.6305   21.1237 H   0  0  0  0  0  0
  -19.6691  -27.3231   20.6793 H   0  0  0  0  0  0
  -17.4229  -26.6737   21.3996 H   0  0  0  0  0  0
  -18.0287  -26.0052   22.9001 H   0  0  0  0  0  0
  -19.7897  -30.7271   24.2325 H   0  0  0  0  0  0
  -17.4965  -31.6289   24.5119 H   0  0  0  0  0  0
  -15.5324  -30.2946   23.7659 H   0  0  0  0  0  0
  -15.8680  -28.0784   22.7078 H   0  0  0  0  0  0
  -24.5994  -30.6942   25.7745 H   0  0  0  0  0  0
  -24.8886  -32.2761   26.4943 H   0  0  0  0  0  0
  -25.8132  -30.8788   27.0195 H   0  0  0  0  0  0
  -26.2808  -29.6823   24.1195 H   0  0  0  0  0  0
  -27.4143  -29.7309   25.4493 H   0  0  0  0  0  0
  -27.8629  -30.4374   23.9155 H   0  0  0  0  0  0
  -27.2789  -33.3614   26.2073 H   0  0  0  0  0  0
  -28.3893  -32.6839   25.0247 H   0  0  0  0  0  0
  -28.0814  -31.8396   26.5321 H   0  0  0  0  0  0
  -28.2648  -38.0089   24.7563 H   0  0  0  0  0  0
  -28.1071  -36.2633   24.6279 H   0  0  0  0  0  0
  -27.2324  -37.1463   25.8882 H   0  0  0  0  0  0
  -20.9339  -29.8652   21.6901 H   0  0  0  0  0  0
  -26.0212  -38.2897   24.1364 H   0  0  0  0  0  0
  -27.8118  -19.3275   18.7599 H   0  0  0  0  0  0
  -30.3895  -22.6342   19.0824 H   0  0  0  0  0  0
  -31.8146  -18.1660   18.3918 H   0  0  0  0  0  0
  -32.1285  -16.9087   19.5563 H   0  0  0  0  0  0
  -32.5002  -18.5688   19.9599 H   0  0  0  0  0  0
  -30.6844  -18.7169   23.4698 H   0  0  0  0  0  0
  -30.2748  -19.9123   22.2623 H   0  0  0  0  0  0
  -31.8278  -19.0953   22.1867 H   0  0  0  0  0  0
  -28.4731  -17.5054   22.8933 H   0  0  0  0  0  0
  -28.1233  -17.0520   21.2278 H   0  0  0  0  0  0
  -28.1680  -18.7456   21.6963 H   0  0  0  0  0  0
  -28.9980  -23.6669   17.3972 H   0  0  0  0  0  0
  -27.3031  -24.0307   17.3422 H   0  0  0  0  0  0
  -28.8828  -23.9884   19.9733 H   0  0  0  0  0  0
  -27.2239  -24.4118   19.7739 H   0  0  0  0  0  0
  -27.4537  -21.6523   17.2114 H   0  0  0  0  0  0
  -26.8332  -22.0107   18.8039 H   0  0  0  0  0  0
  -30.7412  -16.4106   23.0691 H   0  0  0  0  0  0
  -31.8896  -16.5042   21.7849 H   0  0  0  0  0  0
  -29.7068  -25.8554   18.7339 H   0  0  0  0  0  0
  -28.1715  -26.2322   18.0337 H   0  0  0  0  0  0
  -29.7393  -17.4071   19.4579 H   0  0  0  0  0  0
  -29.2819  -15.0379   21.8365 H   0  0  0  0  0  0
  1 25  1  0  0  0
  1 30  2  0  0  0
  1 86  1  0  0  0
  2  3  1  0  0  0
  2 25  1  0  0  0
  2 87  1  0  0  0
  2 88  1  0  0  0
  3  4  1  0  0  0
  3 89  1  0  0  0
  3 90  1  0  0  0
  4  5  1  0  0  0
  4 91  1  0  0  0
  4 92  1  0  0  0
  5  6  1  0  0  0
  5 26  1  0  0  0
  5 93  1  0  0  0
  6 25  1  0  0  0
  6 94  1  0  0  0
  6 95  1  0  0  0
  7  8  2  0  0  0
  7 26  1  0  0  0
  7 29  1  0  0  0
  8  9  1  0  0  0
  8 22  1  0  0  0
  9 10  1  0  0  0
  9 27  2  0  0  0
 10 11  2  0  0  0
 10 15  1  0  0  0
 11 12  1  0  0  0
 11 96  1  0  0  0
 12 13  2  0  0  0
 12 97  1  0  0  0
 13 14  1  0  0  0
 13 31  1  0  0  0
 14 15  2  0  0  0
 14 98  1  0  0  0
 15 99  1  0  0  0
 16 17  2  0  0  0
 16 21  1  0  0  0
 16 31  1  0  0  0
 17 18  1  0  0  0
 17100  1  0  0  0
 18 19  2  0  0  0
 18101  1  0  0  0
 19 20  1  0  0  0
 19 24  1  0  0  0
 20 21  2  0  0  0
 20102  1  0  0  0
 21 23  1  0  0  0
 22 28  1  0  0  0
 22 32  2  0  0  0
 26 27  1  0  0  0
 28103  1  0  0  0
 28104  1  0  0  0
 29105  1  0  0  0
 29106  1  0  0  0
 33 34  1  0  0  0
 33 66  1  0  0  0
 33 70  2  0  0  0
 34 36  1  0  0  0
 34 59  1  0  0  0
 34107  1  0  0  0
 35 44  2  0  0  0
 35 45  1  0  0  0
 35 68  1  0  0  0
 36 56  1  0  0  0
 36108  1  0  0  0
 37 39  1  0  0  0
 37 47  1  0  0  0
 37 66  1  0  0  0
 37109  1  0  0  0
 38 43  2  0  0  0
 38 46  1  0  0  0
 38 47  1  0  0  0
 39 64  1  0  0  0
 39 67  2  0  0  0
 40 52  1  0  0  0
 40 53  2  0  0  0
 40 58  1  0  0  0
 41110  1  0  0  0
 41111  1  0  0  0
 41112  1  0  0  0
 41 48  1  0  0  0
 42 43  1  0  0  0
 42 66  1  0  0  0
 42113  1  0  0  0
 42114  1  0  0  0
 43 44  1  0  0  0
 44115  1  0  0  0
 45 46  2  0  0  0
 45116  1  0  0  0
 46117  1  0  0  0
 47118  1  0  0  0
 47119  1  0  0  0
 48 56  1  0  0  0
 48 65  1  0  0  0
 48120  1  0  0  0
 49 50  1  0  0  0
 49 53  1  0  0  0
 49 64  1  0  0  0
 49121  1  0  0  0
 50 51  1  0  0  0
 50122  1  0  0  0
 50123  1  0  0  0
 51 52  1  0  0  0
 51124  1  0  0  0
 51125  1  0  0  0
 52126  1  0  0  0
 52127  1  0  0  0
 53 54  1  0  0  0
 54 55  2  0  0  0
 54128  1  0  0  0
 55 57  1  0  0  0
 55129  1  0  0  0
 56 69  2  0  0  0
 57 58  2  0  0  0
 57130  1  0  0  0
 58131  1  0  0  0
 59 60  1  0  0  0
 59 61  1  0  0  0
 59 62  1  0  0  0
 60132  1  0  0  0
 60133  1  0  0  0
 60134  1  0  0  0
 61135  1  0  0  0
 61136  1  0  0  0
 61137  1  0  0  0
 62138  1  0  0  0
 62139  1  0  0  0
 62140  1  0  0  0
 63 65  1  0  0  0
 63141  1  0  0  0
 63142  1  0  0  0
 63143  1  0  0  0
 64144  1  0  0  0
 65145  1  0  0  0
 68 81  1  0  0  0
 71 73  2  0  0  0
 71 85  1  0  0  0
 71146  1  0  0  0
 72 84  2  0  0  0
 72 85  1  0  0  0
 72147  1  0  0  0
 73 82  1  0  0  0
 73 84  1  0  0  0
 74148  1  0  0  0
 74149  1  0  0  0
 74150  1  0  0  0
 74 82  1  0  0  0
 75151  1  0  0  0
 75152  1  0  0  0
 75153  1  0  0  0
 75 83  1  0  0  0
 76 83  1  0  0  0
 76154  1  0  0  0
 76155  1  0  0  0
 76156  1  0  0  0
 77 78  1  0  0  0
 77 79  1  0  0  0
 77157  1  0  0  0
 77158  1  0  0  0
 78 81  1  0  0  0
 78159  1  0  0  0
 78160  1  0  0  0
 79 85  1  0  0  0
 79161  1  0  0  0
 79162  1  0  0  0
 80 83  1  0  0  0
 80 86  1  0  0  0
 80163  1  0  0  0
 80164  1  0  0  0
 81165  1  0  0  0
 81166  1  0  0  0
 82 83  1  0  0  0
 82167  1  0  0  0
 86168  1  0  0  0
M  ISO  4   1 100  68 101  81 101  86 100
M  END
> <chiral flag>
0

> <version>
0

> <s_m_source_file>
/data/baiqing/PycharmProjects/Reinvent-master-3.2/result/LINK_invent/BTK/process_docking_weight1_custom_sum_contain_oxygen_bond_distance_aromatic_linkinvent_7_9_3/rearranged_h_0079.sdf

> <i_m_source_file_index>
13

> <r_mmod_Potential_Energy-OPLS-2005>
-90.5282135009766

> <r_mmod_Stretch_Energy-OPLS-2005>
35.6655731201172

> <r_mmod_Bend_Energy-OPLS-2005>
117.788223266602

> <r_mmod_Torsional_Energy-OPLS-2005>
217.866806030273

> <r_mmod_Improper_Torsional_Energy-OPLS-2005>
1.73808109760284

> <r_mmod_Van_der_Waal_Energy-OPLS-2005>
142.771514892578

> <r_mmod_Electrostatic_Energy-OPLS-2005>
-401.312408447266

> <r_mmod_Solvation_Energy-OPLS-2005>
-214.173522949219

> <b_mmod_Minimization_Converged-OPLS-2005>
0

> <r_mmod_RMS_Derivative-OPLS-2005>
2.6094696521759

$$$$
13
                    3D
 Structure written by MMmdl.
150158  0  0  1  0            999 V2000
  -30.5465  -14.9372   20.4265 C   0  0  0  0  0  0
  -30.4388  -12.5861   19.4850 C   0  0  0  0  0  0
  -29.5143  -12.5265   18.2474 C   0  0  0  0  0  0
  -28.0489  -12.3130   18.6720 C   0  0  0  0  0  0
  -27.6270  -13.2480   19.8356 C   0  0  2  0  0  0
  -28.6718  -13.2731   20.9696 C   0  0  0  0  0  0
  -25.2447  -13.8211   20.5720 C   0  0  0  0  0  0
  -24.1776  -13.0437   20.9249 C   0  0  0  0  0  0
  -24.6400  -11.6921   20.8774 C   0  0  0  0  0  0
  -23.9095  -10.4297   21.0430 C   0  0  0  0  0  0
  -24.3639   -9.4204   21.9207 C   0  0  0  0  0  0
  -23.6306   -8.2237   22.0765 C   0  0  0  0  0  0
  -22.4282   -8.0290   21.3554 C   0  0  0  0  0  0
  -21.9934   -9.0265   20.4651 C   0  0  0  0  0  0
  -22.7271  -10.2141   20.3069 C   0  0  0  0  0  0
  -21.6852   -6.0756   22.5291 C   0  0  0  0  0  0
  -21.4014   -6.5657   23.8227 C   0  0  0  0  0  0
  -21.3656   -5.6802   24.9188 C   0  0  0  0  0  0
  -21.6037   -4.3068   24.7232 C   0  0  0  0  0  0
  -21.8810   -3.8164   23.4353 C   0  0  0  0  0  0
  -21.9188   -4.6981   22.3413 C   0  0  0  0  0  0
  -22.7791  -13.5203   21.1911 C   0  0  0  0  0  0
  -22.1657   -4.2171   21.0991 F   0  0  0  0  0  0
  -21.5622   -3.4548   25.7743 F   0  0  0  0  0  0
  -29.9459  -13.6828   20.3647 N   0  0  0  0  0  0
  -26.2872  -12.9447   20.3242 N   0  0  0  0  0  0
  -25.9329  -11.6581   20.5749 N   0  0  0  0  0  0
  -22.0444  -12.8176   22.0448 N   0  0  0  0  0  0
  -25.4076  -15.1948   20.4147 N   0  0  0  0  0  0
  -31.7570  -15.0003   20.1906 O   0  0  0  0  0  0
  -21.6635   -6.8898   21.4251 O   0  0  0  0  0  0
  -22.3475  -14.5512   20.6765 O   0  0  0  0  0  0
  -24.6429  -31.8455   23.1878 C   0  0  0  0  0  0
  -25.9197  -32.4706   23.8292 C   0  0  1  0  0  0
  -27.2174  -27.1339   20.1480 C   0  0  0  0  0  0
  -25.5943  -33.8518   24.2214 N   0  0  0  0  0  0
  -23.4470  -30.4631   21.5350 C   0  0  2  0  0  0
  -24.8971  -28.8917   20.1135 C   0  0  0  0  0  0
  -22.7551  -29.4536   22.4856 C   0  0  0  0  0  0
  -18.0303  -28.1365   22.8458 C   0  0  0  0  0  0
  -24.1504  -36.7280   23.2634 C   0  0  0  0  0  0
  -26.0038  -30.7173   21.3893 C   0  0  0  0  0  0
  -26.0757  -29.3268   20.7328 C   0  0  0  0  0  0
  -27.2368  -28.4651   20.7321 C   0  0  0  0  0  0
  -26.0152  -26.8094   19.4803 C   0  0  0  0  0  0
  -24.8814  -27.6476   19.4695 C   0  0  0  0  0  0
  -23.6733  -29.7919   20.1556 C   0  0  0  0  0  0
  -25.4135  -36.3040   24.0302 C   0  0  1  0  0  0
  -20.5913  -28.3705   23.1219 C   0  0  2  0  0  0
  -20.6799  -26.9411   22.5383 C   0  0  0  0  0  0
  -19.5783  -26.6358   21.5181 C   0  0  0  0  0  0
  -18.1960  -26.7910   22.1590 C   0  0  0  0  0  0
  -19.1556  -28.8847   23.2840 C   0  0  0  0  0  0
  -18.9469  -30.1438   23.8870 C   0  0  0  0  0  0
  -17.6468  -30.6564   24.0533 C   0  0  0  0  0  0
  -25.9062  -34.9405   23.5058 C   0  0  0  0  0  0
  -16.5359  -29.9043   23.6330 C   0  0  0  0  0  0
  -16.7288  -28.6463   23.0354 C   0  0  0  0  0  0
  -26.4516  -31.6563   25.0728 C   0  0  0  0  0  0
  -25.3690  -31.3719   26.1408 C   0  0  0  0  0  0
  -27.0394  -30.2964   24.6320 C   0  0  0  0  0  0
  -27.6038  -32.4352   25.7513 C   0  0  0  0  0  0
  -27.5596  -37.1801   24.8459 C   0  0  0  0  0  0
  -21.4248  -29.3034   22.3592 N   0  0  0  0  0  0
  -26.4309  -37.3744   23.9391 N   0  0  0  0  0  0
  -24.7177  -31.0295   22.0926 N   0  0  0  0  0  0
  -23.4191  -28.8065   23.2992 O   0  0  0  0  0  0
  -28.2726  -26.1488   20.1860 O   0  0  0  0  0  0
  -26.5646  -34.8881   22.4636 O   0  0  0  0  0  0
  -23.5543  -32.1343   23.7072 O   0  0  0  0  0  0
  -27.3566  -21.7318   21.4011 C   0  0  0  0  0  0
  -28.5383  -21.7396   20.6349 C   0  0  0  0  0  0
  -29.3661  -20.5111   20.9036 C   0  0  0  0  0  0
  -28.9778  -23.2740   20.2096 C   0  0  0  0  0  0
  -29.1791  -18.9874   20.2894 C   0  0  0  0  0  0
  -30.1383  -17.6527   20.7135 C   0  0  0  0  0  0
  -27.9672  -24.6253   20.3545 C   0  0  0  0  0  0
  -27.2677  -21.0243   22.5468 N   0  0  0  0  0  0
  -29.4341  -20.2165   22.2228 N   0  0  0  0  0  0
  -28.3580  -20.3974   22.9965 N   0  0  0  0  0  0
  -29.7680  -16.1200   20.5520 N   0  0  0  0  0  0
  -31.4704  -12.7494   19.1680 H   0  0  0  0  0  0
  -30.4363  -11.6348   20.0203 H   0  0  0  0  0  0
  -29.8294  -11.7255   17.5775 H   0  0  0  0  0  0
  -29.5989  -13.4543   17.6787 H   0  0  0  0  0  0
  -27.9489  -11.2730   18.9840 H   0  0  0  0  0  0
  -27.3809  -12.4394   17.8185 H   0  0  0  0  0  0
  -27.5895  -14.2501   19.4074 H   0  0  0  0  0  0
  -28.7569  -12.2962   21.4476 H   0  0  0  0  0  0
  -28.3742  -13.9761   21.7497 H   0  0  0  0  0  0
  -25.2779   -9.5672   22.4790 H   0  0  0  0  0  0
  -24.0012   -7.4624   22.7482 H   0  0  0  0  0  0
  -21.0865   -8.8793   19.8951 H   0  0  0  0  0  0
  -22.3742  -10.9686   19.6177 H   0  0  0  0  0  0
  -21.2007   -7.6166   23.9742 H   0  0  0  0  0  0
  -21.1481   -6.0536   25.9093 H   0  0  0  0  0  0
  -22.0585   -2.7626   23.2852 H   0  0  0  0  0  0
  -22.4060  -11.9827   22.4811 H   0  0  0  0  0  0
  -21.1055  -13.1186   22.2670 H   0  0  0  0  0  0
  -24.6315  -15.8385   20.5271 H   0  0  0  0  0  0
  -26.2422  -15.6414   20.0581 H   0  0  0  0  0  0
  -26.7250  -32.5320   23.1007 H   0  0  0  0  0  0
  -25.0080  -33.9658   25.0356 H   0  0  0  0  0  0
  -22.7503  -31.2895   21.3779 H   0  0  0  0  0  0
  -23.3745  -35.9633   23.3281 H   0  0  0  0  0  0
  -24.3584  -36.8958   22.2055 H   0  0  0  0  0  0
  -23.7286  -37.6476   23.6695 H   0  0  0  0  0  0
  -26.1593  -31.4707   20.6148 H   0  0  0  0  0  0
  -26.8737  -30.7709   22.0311 H   0  0  0  0  0  0
  -28.1354  -28.7969   21.2324 H   0  0  0  0  0  0
  -25.9177  -25.8752   18.9504 H   0  0  0  0  0  0
  -23.9857  -27.3173   18.9622 H   0  0  0  0  0  0
  -23.8035  -30.5652   19.3975 H   0  0  0  0  0  0
  -22.7897  -29.2293   19.8475 H   0  0  0  0  0  0
  -25.1322  -36.1878   25.0797 H   0  0  0  0  0  0
  -21.0015  -28.3285   24.1338 H   0  0  0  0  0  0
  -20.5698  -26.2310   23.3593 H   0  0  0  0  0  0
  -21.6668  -26.7424   22.1185 H   0  0  0  0  0  0
  -19.6951  -25.6249   21.1258 H   0  0  0  0  0  0
  -19.6730  -27.3111   20.6662 H   0  0  0  0  0  0
  -17.4240  -26.6629   21.3984 H   0  0  0  0  0  0
  -18.0366  -26.0050   22.8986 H   0  0  0  0  0  0
  -19.7941  -30.7254   24.2248 H   0  0  0  0  0  0
  -17.5014  -31.6253   24.5111 H   0  0  0  0  0  0
  -15.5355  -30.2928   23.7673 H   0  0  0  0  0  0
  -15.8695  -28.0763   22.7106 H   0  0  0  0  0  0
  -24.5885  -30.7063   25.7686 H   0  0  0  0  0  0
  -24.8834  -32.2881   26.4791 H   0  0  0  0  0  0
  -25.7963  -30.8911   27.0218 H   0  0  0  0  0  0
  -26.3018  -29.6660   24.1340 H   0  0  0  0  0  0
  -27.4004  -29.7291   25.4907 H   0  0  0  0  0  0
  -27.8931  -30.4183   23.9648 H   0  0  0  0  0  0
  -27.2636  -33.3702   26.1985 H   0  0  0  0  0  0
  -28.3889  -32.6857   25.0363 H   0  0  0  0  0  0
  -28.0657  -31.8562   26.5515 H   0  0  0  0  0  0
  -28.2566  -38.0136   24.7514 H   0  0  0  0  0  0
  -28.1144  -36.2658   24.6284 H   0  0  0  0  0  0
  -27.2309  -37.1458   25.8860 H   0  0  0  0  0  0
  -20.9432  -29.8792   21.6829 H   0  0  0  0  0  0
  -26.0173  -38.2821   24.1356 H   0  0  0  0  0  0
  -26.5880  -22.4794   21.2753 H   0  0  0  0  0  0
  -29.3267  -23.2296   19.1777 H   0  0  0  0  0  0
  -29.8692  -23.4841   20.8001 H   0  0  0  0  0  0
  -29.2154  -19.0914   19.2048 H   0  0  0  0  0  0
  -28.1445  -18.7166   20.5047 H   0  0  0  0  0  0
  -30.3149  -17.7381   21.7859 H   0  0  0  0  0  0
  -31.1233  -17.8007   20.2699 H   0  0  0  0  0  0
  -27.5560  -24.5785   21.3630 H   0  0  0  0  0  0
  -27.1325  -24.3807   19.7038 H   0  0  0  0  0  0
  -28.7820  -15.9251   20.6485 H   0  0  0  0  0  0
  1 25  1  0  0  0
  1 30  2  0  0  0
  1 81  1  0  0  0
  2  3  1  0  0  0
  2 25  1  0  0  0
  2 82  1  0  0  0
  2 83  1  0  0  0
  3  4  1  0  0  0
  3 84  1  0  0  0
  3 85  1  0  0  0
  4  5  1  0  0  0
  4 86  1  0  0  0
  4 87  1  0  0  0
  5  6  1  0  0  0
  5 26  1  0  0  0
  5 88  1  0  0  0
  6 25  1  0  0  0
  6 89  1  0  0  0
  6 90  1  0  0  0
  7  8  2  0  0  0
  7 26  1  0  0  0
  7 29  1  0  0  0
  8  9  1  0  0  0
  8 22  1  0  0  0
  9 10  1  0  0  0
  9 27  2  0  0  0
 10 11  2  0  0  0
 10 15  1  0  0  0
 11 12  1  0  0  0
 11 91  1  0  0  0
 12 13  2  0  0  0
 12 92  1  0  0  0
 13 14  1  0  0  0
 13 31  1  0  0  0
 14 15  2  0  0  0
 14 93  1  0  0  0
 15 94  1  0  0  0
 16 17  2  0  0  0
 16 21  1  0  0  0
 16 31  1  0  0  0
 17 18  1  0  0  0
 17 95  1  0  0  0
 18 19  2  0  0  0
 18 96  1  0  0  0
 19 20  1  0  0  0
 19 24  1  0  0  0
 20 21  2  0  0  0
 20 97  1  0  0  0
 21 23  1  0  0  0
 22 28  1  0  0  0
 22 32  2  0  0  0
 26 27  1  0  0  0
 28 98  1  0  0  0
 28 99  1  0  0  0
 29100  1  0  0  0
 29101  1  0  0  0
 33 34  1  0  0  0
 33 66  1  0  0  0
 33 70  2  0  0  0
 34 36  1  0  0  0
 34 59  1  0  0  0
 34102  1  0  0  0
 35 44  2  0  0  0
 35 45  1  0  0  0
 35 68  1  0  0  0
 36 56  1  0  0  0
 36103  1  0  0  0
 37 39  1  0  0  0
 37 47  1  0  0  0
 37 66  1  0  0  0
 37104  1  0  0  0
 38 43  2  0  0  0
 38 46  1  0  0  0
 38 47  1  0  0  0
 39 64  1  0  0  0
 39 67  2  0  0  0
 40 52  1  0  0  0
 40 53  2  0  0  0
 40 58  1  0  0  0
 41105  1  0  0  0
 41106  1  0  0  0
 41107  1  0  0  0
 41 48  1  0  0  0
 42 43  1  0  0  0
 42 66  1  0  0  0
 42108  1  0  0  0
 42109  1  0  0  0
 43 44  1  0  0  0
 44110  1  0  0  0
 45 46  2  0  0  0
 45111  1  0  0  0
 46112  1  0  0  0
 47113  1  0  0  0
 47114  1  0  0  0
 48 56  1  0  0  0
 48 65  1  0  0  0
 48115  1  0  0  0
 49 50  1  0  0  0
 49 53  1  0  0  0
 49 64  1  0  0  0
 49116  1  0  0  0
 50 51  1  0  0  0
 50117  1  0  0  0
 50118  1  0  0  0
 51 52  1  0  0  0
 51119  1  0  0  0
 51120  1  0  0  0
 52121  1  0  0  0
 52122  1  0  0  0
 53 54  1  0  0  0
 54 55  2  0  0  0
 54123  1  0  0  0
 55 57  1  0  0  0
 55124  1  0  0  0
 56 69  2  0  0  0
 57 58  2  0  0  0
 57125  1  0  0  0
 58126  1  0  0  0
 59 60  1  0  0  0
 59 61  1  0  0  0
 59 62  1  0  0  0
 60127  1  0  0  0
 60128  1  0  0  0
 60129  1  0  0  0
 61130  1  0  0  0
 61131  1  0  0  0
 61132  1  0  0  0
 62133  1  0  0  0
 62134  1  0  0  0
 62135  1  0  0  0
 63 65  1  0  0  0
 63136  1  0  0  0
 63137  1  0  0  0
 63138  1  0  0  0
 64139  1  0  0  0
 65140  1  0  0  0
 68 77  1  0  0  0
 71 72  2  0  0  0
 71 78  1  0  0  0
 71141  1  0  0  0
 72 73  1  0  0  0
 72 74  1  0  0  0
 73 75  1  0  0  0
 73 79  2  0  0  0
 74 77  1  0  0  0
 74142  1  0  0  0
 74143  1  0  0  0
 75 76  1  0  0  0
 75144  1  0  0  0
 75145  1  0  0  0
 76 81  1  0  0  0
 76146  1  0  0  0
 76147  1  0  0  0
 77148  1  0  0  0
 77149  1  0  0  0
 78 80  2  0  0  0
 79 80  1  0  0  0
 81150  1  0  0  0
M  ISO  4   1 100  68 101  77 101  81 100
M  END
> <chiral flag>
0

> <version>
0

> <s_m_source_file>
/data/baiqing/PycharmProjects/Reinvent-master-3.2/result/LINK_invent/BTK/process_docking_weight1_custom_sum_contain_oxygen_bond_distance_aromatic_linkinvent_7_9_3/rearranged_h_0079.sdf

> <i_m_source_file_index>
14

> <r_mmod_Potential_Energy-OPLS-2005>
675.951232910156

> <r_mmod_Stretch_Energy-OPLS-2005>
274.128082275391

> <r_mmod_Bend_Energy-OPLS-2005>
291.981719970703

> <r_mmod_Torsional_Energy-OPLS-2005>
376.019561767578

> <r_mmod_Improper_Torsional_Energy-OPLS-2005>
28.1547317504883

> <r_mmod_Van_der_Waal_Energy-OPLS-2005>
144.17903137207

> <r_mmod_Electrostatic_Energy-OPLS-2005>
-395.608612060547

> <r_mmod_Solvation_Energy-OPLS-2005>
-231.742950439453

> <b_mmod_Minimization_Converged-OPLS-2005>
0

> <r_mmod_RMS_Derivative-OPLS-2005>
1.8185967206955

$$$$
14
                    3D
 Structure written by MMmdl.
163171  0  0  1  0            999 V2000
  -30.5400  -14.9758   20.4092 C   0  0  0  0  0  0
  -30.4375  -12.6039   19.5065 C   0  0  0  0  0  0
  -29.5226  -12.5343   18.2621 C   0  0  0  0  0  0
  -28.0561  -12.3168   18.6773 C   0  0  0  0  0  0
  -27.6291  -13.2519   19.8387 C   0  0  2  0  0  0
  -28.6701  -13.2977   20.9772 C   0  0  0  0  0  0
  -25.2464  -13.8224   20.5712 C   0  0  0  0  0  0
  -24.1785  -13.0444   20.9235 C   0  0  0  0  0  0
  -24.6403  -11.6925   20.8757 C   0  0  0  0  0  0
  -23.9084  -10.4294   21.0403 C   0  0  0  0  0  0
  -24.3629   -9.4206   21.9183 C   0  0  0  0  0  0
  -23.6302   -8.2242   22.0747 C   0  0  0  0  0  0
  -22.4281   -8.0282   21.3541 C   0  0  0  0  0  0
  -21.9919   -9.0251   20.4643 C   0  0  0  0  0  0
  -22.7249  -10.2129   20.3055 C   0  0  0  0  0  0
  -21.6861   -6.0729   22.5271 C   0  0  0  0  0  0
  -21.4018   -6.5630   23.8203 C   0  0  0  0  0  0
  -21.3667   -5.6786   24.9168 C   0  0  0  0  0  0
  -21.6043   -4.3050   24.7223 C   0  0  0  0  0  0
  -21.8822   -3.8141   23.4349 C   0  0  0  0  0  0
  -21.9196   -4.6955   22.3397 C   0  0  0  0  0  0
  -22.7803  -13.5208   21.1879 C   0  0  0  0  0  0
  -22.1662   -4.2135   21.0976 F   0  0  0  0  0  0
  -21.5638   -3.4537   25.7742 F   0  0  0  0  0  0
  -29.9425  -13.7131   20.3761 N   0  0  0  0  0  0
  -26.2890  -12.9459   20.3259 N   0  0  0  0  0  0
  -25.9337  -11.6585   20.5754 N   0  0  0  0  0  0
  -22.0453  -12.8201   22.0440 N   0  0  0  0  0  0
  -25.4123  -15.1954   20.4112 N   0  0  0  0  0  0
  -31.7420  -15.0254   20.1302 O   0  0  0  0  0  0
  -21.6648   -6.8874   21.4232 O   0  0  0  0  0  0
  -22.3482  -14.5501   20.6707 O   0  0  0  0  0  0
  -24.6466  -31.8404   23.1870 C   0  0  0  0  0  0
  -25.9227  -32.4673   23.8265 C   0  0  1  0  0  0
  -27.2099  -27.0913   20.1484 C   0  0  0  0  0  0
  -25.5970  -33.8487   24.2175 N   0  0  0  0  0  0
  -23.4522  -30.4596   21.5324 C   0  0  2  0  0  0
  -24.9016  -28.8851   20.1067 C   0  0  0  0  0  0
  -22.7582  -29.4526   22.4840 C   0  0  0  0  0  0
  -18.0304  -28.1395   22.8459 C   0  0  0  0  0  0
  -24.1496  -36.7255   23.2640 C   0  0  0  0  0  0
  -26.0113  -30.6964   21.3969 C   0  0  0  0  0  0
  -26.0787  -29.3042   20.7385 C   0  0  0  0  0  0
  -27.2282  -28.4200   20.7513 C   0  0  0  0  0  0
  -26.0176  -26.8084   19.4406 C   0  0  0  0  0  0
  -24.8866  -27.6518   19.4428 C   0  0  0  0  0  0
  -23.6806  -29.7916   20.1511 C   0  0  0  0  0  0
  -25.4128  -36.3020   24.0304 C   0  0  1  0  0  0
  -20.5919  -28.3729   23.1213 C   0  0  2  0  0  0
  -20.6787  -26.9427   22.5396 C   0  0  0  0  0  0
  -19.5765  -26.6376   21.5201 C   0  0  0  0  0  0
  -18.1947  -26.7930   22.1611 C   0  0  0  0  0  0
  -19.1561  -28.8877   23.2830 C   0  0  0  0  0  0
  -18.9482  -30.1473   23.8857 C   0  0  0  0  0  0
  -17.6479  -30.6589   24.0557 C   0  0  0  0  0  0
  -25.9082  -34.9395   23.5048 C   0  0  0  0  0  0
  -16.5369  -29.9083   23.6337 C   0  0  0  0  0  0
  -16.7290  -28.6503   23.0352 C   0  0  0  0  0  0
  -26.4539  -31.6553   25.0721 C   0  0  0  0  0  0
  -25.3710  -31.3758   26.1408 C   0  0  0  0  0  0
  -27.0408  -30.2934   24.6348 C   0  0  0  0  0  0
  -27.6055  -32.4323   25.7515 C   0  0  0  0  0  0
  -27.5576  -37.1784   24.8459 C   0  0  0  0  0  0
  -21.4268  -29.3052   22.3589 N   0  0  0  0  0  0
  -26.4290  -37.3734   23.9398 N   0  0  0  0  0  0
  -24.7232  -31.0212   22.0935 N   0  0  0  0  0  0
  -23.4203  -28.8070   23.3004 O   0  0  0  0  0  0
  -28.2353  -26.0632   20.2650 O   0  0  0  0  0  0
  -26.5671  -34.8898   22.4630 O   0  0  0  0  0  0
  -23.5573  -32.1316   23.7052 O   0  0  0  0  0  0
  -30.0218  -20.5987   20.8847 C   0  0  0  0  0  0
  -29.7721  -22.0737   20.5291 C   0  0  0  0  0  0
  -31.2030  -20.4265   21.6742 C   0  0  0  0  0  0
  -30.9643  -22.8684   20.5315 C   0  0  0  0  0  0
  -31.4721  -19.7747   24.1300 C   0  0  0  0  0  0
  -32.4319  -24.8112   19.6164 C   0  0  0  0  0  0
  -29.2782  -19.1385   20.6275 C   0  0  0  0  0  0
  -28.3955  -22.9795   20.4288 C   0  0  0  0  0  0
  -31.4176  -19.2832   22.6754 C   0  0  0  0  0  0
  -31.0316  -24.3057   20.0153 C   0  0  0  0  0  0
  -30.1573  -17.7040   20.2534 C   0  0  0  0  0  0
  -28.0402  -24.5598   19.8254 C   0  0  0  0  0  0
  -32.2172  -21.3094   21.7113 N   0  0  0  0  0  0
  -32.1318  -22.4572   21.0673 N   0  0  0  0  0  0
  -29.7801  -16.1815   20.5361 N   0  0  0  0  0  0
  -31.4704  -12.7594   19.1913 H   0  0  0  0  0  0
  -30.4325  -11.6556   20.0469 H   0  0  0  0  0  0
  -29.8463  -11.7327   17.5968 H   0  0  0  0  0  0
  -29.6093  -13.4616   17.6930 H   0  0  0  0  0  0
  -27.9537  -11.2766   18.9872 H   0  0  0  0  0  0
  -27.3943  -12.4461   17.8192 H   0  0  0  0  0  0
  -27.5871  -14.2510   19.4038 H   0  0  0  0  0  0
  -28.7639  -12.3287   21.4698 H   0  0  0  0  0  0
  -28.3647  -14.0087   21.7464 H   0  0  0  0  0  0
  -25.2769   -9.5686   22.4770 H   0  0  0  0  0  0
  -24.0005   -7.4635   22.7472 H   0  0  0  0  0  0
  -21.0850   -8.8768   19.8953 H   0  0  0  0  0  0
  -22.3698  -10.9666   19.6174 H   0  0  0  0  0  0
  -21.1994   -7.6134   23.9706 H   0  0  0  0  0  0
  -21.1498   -6.0515   25.9072 H   0  0  0  0  0  0
  -22.0595   -2.7601   23.2857 H   0  0  0  0  0  0
  -22.4078  -11.9868   22.4829 H   0  0  0  0  0  0
  -21.1062  -13.1215   22.2622 H   0  0  0  0  0  0
  -24.6423  -15.8470   20.5209 H   0  0  0  0  0  0
  -26.2504  -15.6329   20.0506 H   0  0  0  0  0  0
  -26.7285  -32.5255   23.0983 H   0  0  0  0  0  0
  -25.0082  -33.9596   25.0298 H   0  0  0  0  0  0
  -22.7573  -31.2873   21.3769 H   0  0  0  0  0  0
  -23.3759  -35.9586   23.3280 H   0  0  0  0  0  0
  -24.3585  -36.8916   22.2061 H   0  0  0  0  0  0
  -23.7258  -37.6445   23.6698 H   0  0  0  0  0  0
  -26.1732  -31.4467   20.6220 H   0  0  0  0  0  0
  -26.8800  -30.7468   22.0417 H   0  0  0  0  0  0
  -28.1160  -28.7273   21.2852 H   0  0  0  0  0  0
  -25.9062  -25.8930   18.8821 H   0  0  0  0  0  0
  -23.9948  -27.3342   18.9199 H   0  0  0  0  0  0
  -23.8216  -30.5676   19.3976 H   0  0  0  0  0  0
  -22.7944  -29.2366   19.8372 H   0  0  0  0  0  0
  -25.1322  -36.1842   25.0795 H   0  0  0  0  0  0
  -21.0003  -28.3322   24.1336 H   0  0  0  0  0  0
  -20.5660  -26.2347   23.3622 H   0  0  0  0  0  0
  -21.6654  -26.7416   22.1209 H   0  0  0  0  0  0
  -19.6931  -25.6279   21.1258 H   0  0  0  0  0  0
  -19.6707  -27.3159   20.6711 H   0  0  0  0  0  0
  -17.4213  -26.6660   21.4021 H   0  0  0  0  0  0
  -18.0358  -26.0083   22.9016 H   0  0  0  0  0  0
  -19.7962  -30.7297   24.2204 H   0  0  0  0  0  0
  -17.5037  -31.6264   24.5172 H   0  0  0  0  0  0
  -15.5370  -30.2975   23.7684 H   0  0  0  0  0  0
  -15.8688  -28.0816   22.7081 H   0  0  0  0  0  0
  -24.5905  -30.7092   25.7732 H   0  0  0  0  0  0
  -24.8892  -32.2944   26.4759 H   0  0  0  0  0  0
  -25.7989  -30.8985   27.0233 H   0  0  0  0  0  0
  -26.3040  -29.6644   24.1347 H   0  0  0  0  0  0
  -27.3977  -29.7252   25.4949 H   0  0  0  0  0  0
  -27.8966  -30.4139   23.9704 H   0  0  0  0  0  0
  -27.2644  -33.3645   26.2029 H   0  0  0  0  0  0
  -28.3914  -32.6850   25.0384 H   0  0  0  0  0  0
  -28.0676  -31.8494   26.5495 H   0  0  0  0  0  0
  -28.2573  -38.0099   24.7508 H   0  0  0  0  0  0
  -28.1093  -36.2627   24.6281 H   0  0  0  0  0  0
  -27.2293  -37.1421   25.8862 H   0  0  0  0  0  0
  -20.9484  -29.8781   21.6780 H   0  0  0  0  0  0
  -26.0152  -38.2795   24.1410 H   0  0  0  0  0  0
  -31.5639  -18.9357   24.8201 H   0  0  0  0  0  0
  -30.5668  -20.3224   24.3905 H   0  0  0  0  0  0
  -32.3226  -20.4350   24.2976 H   0  0  0  0  0  0
  -32.3712  -25.8098   19.1841 H   0  0  0  0  0  0
  -32.8925  -24.1566   18.8759 H   0  0  0  0  0  0
  -33.0974  -24.8698   20.4781 H   0  0  0  0  0  0
  -28.5380  -19.2916   19.8427 H   0  0  0  0  0  0
  -28.6851  -18.9448   21.5222 H   0  0  0  0  0  0
  -27.9985  -22.9672   21.4439 H   0  0  0  0  0  0
  -27.7253  -22.3187   19.8788 H   0  0  0  0  0  0
  -32.3396  -18.7554   22.4298 H   0  0  0  0  0  0
  -30.6222  -18.5439   22.6557 H   0  0  0  0  0  0
  -30.5899  -24.9739   20.7545 H   0  0  0  0  0  0
  -30.4443  -24.3609   19.1033 H   0  0  0  0  0  0
  -31.1723  -17.7957   20.6299 H   0  0  0  0  0  0
  -30.3212  -17.7465   19.1761 H   0  0  0  0  0  0
  -26.9604  -24.4556   19.8513 H   0  0  0  0  0  0
  -28.2706  -24.5464   18.7598 H   0  0  0  0  0  0
  -28.8056  -16.0213   20.7439 H   0  0  0  0  0  0
  1 25  1  0  0  0
  1 30  2  0  0  0
  1 85  1  0  0  0
  2  3  1  0  0  0
  2 25  1  0  0  0
  2 86  1  0  0  0
  2 87  1  0  0  0
  3  4  1  0  0  0
  3 88  1  0  0  0
  3 89  1  0  0  0
  4  5  1  0  0  0
  4 90  1  0  0  0
  4 91  1  0  0  0
  5  6  1  0  0  0
  5 26  1  0  0  0
  5 92  1  0  0  0
  6 25  1  0  0  0
  6 93  1  0  0  0
  6 94  1  0  0  0
  7  8  2  0  0  0
  7 26  1  0  0  0
  7 29  1  0  0  0
  8  9  1  0  0  0
  8 22  1  0  0  0
  9 10  1  0  0  0
  9 27  2  0  0  0
 10 11  2  0  0  0
 10 15  1  0  0  0
 11 12  1  0  0  0
 11 95  1  0  0  0
 12 13  2  0  0  0
 12 96  1  0  0  0
 13 14  1  0  0  0
 13 31  1  0  0  0
 14 15  2  0  0  0
 14 97  1  0  0  0
 15 98  1  0  0  0
 16 17  2  0  0  0
 16 21  1  0  0  0
 16 31  1  0  0  0
 17 18  1  0  0  0
 17 99  1  0  0  0
 18 19  2  0  0  0
 18100  1  0  0  0
 19 20  1  0  0  0
 19 24  1  0  0  0
 20 21  2  0  0  0
 20101  1  0  0  0
 21 23  1  0  0  0
 22 28  1  0  0  0
 22 32  2  0  0  0
 26 27  1  0  0  0
 28102  1  0  0  0
 28103  1  0  0  0
 29104  1  0  0  0
 29105  1  0  0  0
 33 34  1  0  0  0
 33 66  1  0  0  0
 33 70  2  0  0  0
 34 36  1  0  0  0
 34 59  1  0  0  0
 34106  1  0  0  0
 35 44  2  0  0  0
 35 45  1  0  0  0
 35 68  1  0  0  0
 36 56  1  0  0  0
 36107  1  0  0  0
 37 39  1  0  0  0
 37 47  1  0  0  0
 37 66  1  0  0  0
 37108  1  0  0  0
 38 43  2  0  0  0
 38 46  1  0  0  0
 38 47  1  0  0  0
 39 64  1  0  0  0
 39 67  2  0  0  0
 40 52  1  0  0  0
 40 53  2  0  0  0
 40 58  1  0  0  0
 41109  1  0  0  0
 41110  1  0  0  0
 41111  1  0  0  0
 41 48  1  0  0  0
 42 43  1  0  0  0
 42 66  1  0  0  0
 42112  1  0  0  0
 42113  1  0  0  0
 43 44  1  0  0  0
 44114  1  0  0  0
 45 46  2  0  0  0
 45115  1  0  0  0
 46116  1  0  0  0
 47117  1  0  0  0
 47118  1  0  0  0
 48 56  1  0  0  0
 48 65  1  0  0  0
 48119  1  0  0  0
 49 50  1  0  0  0
 49 53  1  0  0  0
 49 64  1  0  0  0
 49120  1  0  0  0
 50 51  1  0  0  0
 50121  1  0  0  0
 50122  1  0  0  0
 51 52  1  0  0  0
 51123  1  0  0  0
 51124  1  0  0  0
 52125  1  0  0  0
 52126  1  0  0  0
 53 54  1  0  0  0
 54 55  2  0  0  0
 54127  1  0  0  0
 55 57  1  0  0  0
 55128  1  0  0  0
 56 69  2  0  0  0
 57 58  2  0  0  0
 57129  1  0  0  0
 58130  1  0  0  0
 59 60  1  0  0  0
 59 61  1  0  0  0
 59 62  1  0  0  0
 60131  1  0  0  0
 60132  1  0  0  0
 60133  1  0  0  0
 61134  1  0  0  0
 61135  1  0  0  0
 61136  1  0  0  0
 62137  1  0  0  0
 62138  1  0  0  0
 62139  1  0  0  0
 63 65  1  0  0  0
 63140  1  0  0  0
 63141  1  0  0  0
 63142  1  0  0  0
 64143  1  0  0  0
 65144  1  0  0  0
 68 82  1  0  0  0
 71 72  1  0  0  0
 71 73  2  0  0  0
 71 77  1  0  0  0
 72 74  2  0  0  0
 72 78  1  0  0  0
 73 79  1  0  0  0
 73 83  1  0  0  0
 74 80  1  0  0  0
 74 84  1  0  0  0
 75 79  1  0  0  0
 75145  1  0  0  0
 75146  1  0  0  0
 75147  1  0  0  0
 76 80  1  0  0  0
 76148  1  0  0  0
 76149  1  0  0  0
 76150  1  0  0  0
 77 81  1  0  0  0
 77151  1  0  0  0
 77152  1  0  0  0
 78 82  1  0  0  0
 78153  1  0  0  0
 78154  1  0  0  0
 79155  1  0  0  0
 79156  1  0  0  0
 80157  1  0  0  0
 80158  1  0  0  0
 81 85  1  0  0  0
 81159  1  0  0  0
 81160  1  0  0  0
 82161  1  0  0  0
 82162  1  0  0  0
 83 84  2  0  0  0
 85163  1  0  0  0
M  ISO  4   1 100  68 101  82 101  85 100
M  END
> <chiral flag>
0

> <version>
0

> <s_m_source_file>
/data/baiqing/PycharmProjects/Reinvent-master-3.2/result/LINK_invent/BTK/process_docking_weight1_custom_sum_contain_oxygen_bond_distance_aromatic_linkinvent_7_9_3/rearranged_h_0079.sdf

> <i_m_source_file_index>
15

> <r_mmod_Potential_Energy-OPLS-2005>
783.298095703125

> <r_mmod_Stretch_Energy-OPLS-2005>
341.962738037109

> <r_mmod_Bend_Energy-OPLS-2005>
379.118438720703

> <r_mmod_Torsional_Energy-OPLS-2005>
273.414611816406

> <r_mmod_Improper_Torsional_Energy-OPLS-2005>
7.12867975234985

> <r_mmod_Van_der_Waal_Energy-OPLS-2005>
162.396255493164

> <r_mmod_Electrostatic_Energy-OPLS-2005>
-367.458587646484

> <r_mmod_Solvation_Energy-OPLS-2005>
-239.827774047852

> <b_mmod_Minimization_Converged-OPLS-2005>
0

> <r_mmod_RMS_Derivative-OPLS-2005>
1.34106492996216

$$$$
15
                    3D
 Structure written by MMmdl.
170178  0  0  1  0            999 V2000
  -30.6869  -14.4802   20.5701 C   0  0  0  0  0  0
  -30.4287  -12.3146   19.4150 C   0  0  0  0  0  0
  -29.4983  -12.5120   18.2006 C   0  0  0  0  0  0
  -28.0180  -12.3702   18.6103 C   0  0  0  0  0  0
  -27.6623  -13.2042   19.8715 C   0  0  2  0  0  0
  -28.7037  -12.9810   20.9893 C   0  0  0  0  0  0
  -25.2604  -13.8166   20.5660 C   0  0  0  0  0  0
  -24.1850  -13.0444   20.9170 C   0  0  0  0  0  0
  -24.6386  -11.6910   20.8706 C   0  0  0  0  0  0
  -23.9046  -10.4303   21.0388 C   0  0  0  0  0  0
  -24.3617   -9.4227   21.9164 C   0  0  0  0  0  0
  -23.6303   -8.2259   22.0739 C   0  0  0  0  0  0
  -22.4277   -8.0287   21.3548 C   0  0  0  0  0  0
  -21.9907   -9.0247   20.4646 C   0  0  0  0  0  0
  -22.7224  -10.2134   20.3046 C   0  0  0  0  0  0
  -21.6853   -6.0737   22.5283 C   0  0  0  0  0  0
  -21.4012   -6.5639   23.8214 C   0  0  0  0  0  0
  -21.3660   -5.6789   24.9176 C   0  0  0  0  0  0
  -21.6048   -4.3055   24.7220 C   0  0  0  0  0  0
  -21.8826   -3.8146   23.4338 C   0  0  0  0  0  0
  -21.9195   -4.6964   22.3398 C   0  0  0  0  0  0
  -22.7883  -13.5251   21.1834 C   0  0  0  0  0  0
  -22.1670   -4.2148   21.0979 F   0  0  0  0  0  0
  -21.5624   -3.4544   25.7731 F   0  0  0  0  0  0
  -30.0330  -13.2955   20.4376 N   0  0  0  0  0  0
  -26.3031  -12.9317   20.3340 N   0  0  0  0  0  0
  -25.9316  -11.6483   20.5738 N   0  0  0  0  0  0
  -22.0518  -12.8247   22.0400 N   0  0  0  0  0  0
  -25.4335  -15.1879   20.4079 N   0  0  0  0  0  0
  -31.8269  -14.6696   20.1396 O   0  0  0  0  0  0
  -21.6648   -6.8878   21.4248 O   0  0  0  0  0  0
  -22.3576  -14.5550   20.6676 O   0  0  0  0  0  0
  -24.6148  -31.8668   23.2092 C   0  0  0  0  0  0
  -25.9040  -32.4824   23.8387 C   0  0  1  0  0  0
  -27.2412  -27.4251   20.1072 C   0  0  0  0  0  0
  -25.5889  -33.8621   24.2322 N   0  0  0  0  0  0
  -23.4041  -30.4885   21.5493 C   0  0  2  0  0  0
  -24.8527  -28.9536   20.1128 C   0  0  0  0  0  0
  -22.7413  -29.4649   22.4988 C   0  0  0  0  0  0
  -18.0277  -28.1378   22.8500 C   0  0  0  0  0  0
  -24.1486  -36.7310   23.2641 C   0  0  0  0  0  0
  -25.9340  -30.8300   21.3654 C   0  0  0  0  0  0
  -26.0111  -29.4651   20.7104 C   0  0  0  0  0  0
  -27.2055  -28.7096   20.7005 C   0  0  0  0  0  0
  -26.0660  -26.9344   19.4933 C   0  0  0  0  0  0
  -24.8765  -27.6888   19.4996 C   0  0  0  0  0  0
  -23.6130  -29.8186   20.1637 C   0  0  0  0  0  0
  -25.4111  -36.3117   24.0342 C   0  0  1  0  0  0
  -20.5866  -28.3659   23.1325 C   0  0  2  0  0  0
  -20.6765  -26.9391   22.5431 C   0  0  0  0  0  0
  -19.5744  -26.6386   21.5224 C   0  0  0  0  0  0
  -18.1919  -26.7932   22.1625 C   0  0  0  0  0  0
  -19.1523  -28.8835   23.2909 C   0  0  0  0  0  0
  -18.9449  -30.1447   23.8917 C   0  0  0  0  0  0
  -17.6451  -30.6582   24.0571 C   0  0  0  0  0  0
  -25.9033  -34.9480   23.5129 C   0  0  0  0  0  0
  -16.5341  -29.9084   23.6330 C   0  0  0  0  0  0
  -16.7263  -28.6503   23.0347 C   0  0  0  0  0  0
  -26.4470  -31.6604   25.0717 C   0  0  0  0  0  0
  -25.3743  -31.3713   26.1470 C   0  0  0  0  0  0
  -27.0296  -30.3041   24.6104 C   0  0  0  0  0  0
  -27.6046  -32.4324   25.7468 C   0  0  0  0  0  0
  -27.5590  -37.1810   24.8465 C   0  0  0  0  0  0
  -21.4140  -29.3025   22.3729 N   0  0  0  0  0  0
  -26.4303  -37.3799   23.9405 N   0  0  0  0  0  0
  -24.6692  -31.0765   22.0992 N   0  0  0  0  0  0
  -23.4185  -28.8197   23.3035 O   0  0  0  0  0  0
  -28.4214  -26.7037   20.1493 O   0  0  0  0  0  0
  -26.5602  -34.8931   22.4696 O   0  0  0  0  0  0
  -23.5337  -32.1414   23.7482 O   0  0  0  0  0  0
  -29.1371  -21.5225   19.3346 C   0  0  0  0  0  0
  -30.0946  -22.0861   20.1941 C   0  0  0  0  0  0
  -28.9934  -20.1170   19.2475 C   0  0  0  0  0  0
  -30.8237  -21.1963   21.0212 C   0  0  0  0  0  0
  -29.8297  -19.2993   20.0589 C   0  0  0  0  0  0
  -27.5253  -20.4420   17.1265 C   0  0  0  0  0  0
  -33.2512  -21.7536   21.5815 C   0  0  0  0  0  0
  -30.8542  -17.4290   18.7049 C   0  0  0  0  0  0
  -27.9993  -19.5066   18.2528 C   0  0  0  0  0  0
  -30.4127  -23.5899   20.0836 C   0  0  0  0  0  0
  -31.8016  -21.6876   22.0795 C   0  0  0  0  0  0
  -29.5089  -24.5960   20.8418 C   0  0  0  0  0  0
  -30.2585  -16.9314   21.1463 C   0  0  0  0  0  0
  -28.3743  -25.2679   20.0214 C   0  0  0  0  0  0
  -29.9013  -17.7600   19.8703 C   0  0  1  0  0  0
  -30.7194  -19.8493   20.9192 N   0  0  0  0  0  0
  -29.9367  -15.4877   21.0556 N   0  0  0  0  0  0
  -31.4716  -12.4262   19.1116 H   0  0  0  0  0  0
  -30.3357  -11.3005   19.8075 H   0  0  0  0  0  0
  -29.7401  -11.7871   17.4227 H   0  0  0  0  0  0
  -29.6682  -13.4975   17.7627 H   0  0  0  0  0  0
  -27.8279  -11.3137   18.8009 H   0  0  0  0  0  0
  -27.3702  -12.6519   17.7794 H   0  0  0  0  0  0
  -27.7058  -14.2525   19.5786 H   0  0  0  0  0  0
  -28.6843  -11.9406   21.3180 H   0  0  0  0  0  0
  -28.4631  -13.5713   21.8743 H   0  0  0  0  0  0
  -25.2769   -9.5714   22.4733 H   0  0  0  0  0  0
  -24.0020   -7.4652   22.7457 H   0  0  0  0  0  0
  -21.0834   -8.8756   19.8962 H   0  0  0  0  0  0
  -22.3658  -10.9668   19.6163 H   0  0  0  0  0  0
  -21.1998   -7.6143   23.9713 H   0  0  0  0  0  0
  -21.1482   -6.0520   25.9076 H   0  0  0  0  0  0
  -22.0600   -2.7607   23.2839 H   0  0  0  0  0  0
  -22.4123  -11.9917   22.4826 H   0  0  0  0  0  0
  -21.1125  -13.1275   22.2559 H   0  0  0  0  0  0
  -24.6684  -15.8445   20.5156 H   0  0  0  0  0  0
  -26.2853  -15.6273   20.0824 H   0  0  0  0  0  0
  -26.7112  -32.5541   23.1149 H   0  0  0  0  0  0
  -25.0051  -33.9774   25.0476 H   0  0  0  0  0  0
  -22.6934  -31.3057   21.4078 H   0  0  0  0  0  0
  -23.3755  -35.9640   23.3320 H   0  0  0  0  0  0
  -24.3574  -36.8907   22.2052 H   0  0  0  0  0  0
  -23.7230  -37.6517   23.6639 H   0  0  0  0  0  0
  -26.0517  -31.5975   20.5997 H   0  0  0  0  0  0
  -26.8204  -30.8799   21.9872 H   0  0  0  0  0  0
  -28.0992  -29.0997   21.1664 H   0  0  0  0  0  0
  -26.0536  -25.9715   19.0039 H   0  0  0  0  0  0
  -23.9878  -27.2913   19.0290 H   0  0  0  0  0  0
  -23.7181  -30.5924   19.4023 H   0  0  0  0  0  0
  -22.7392  -29.2350   19.8697 H   0  0  0  0  0  0
  -25.1289  -36.1988   25.0838 H   0  0  0  0  0  0
  -20.9959  -28.3225   24.1445 H   0  0  0  0  0  0
  -20.5670  -26.2261   23.3614 H   0  0  0  0  0  0
  -21.6633  -26.7440   22.1212 H   0  0  0  0  0  0
  -19.6897  -25.6303   21.1232 H   0  0  0  0  0  0
  -19.6689  -27.3219   20.6769 H   0  0  0  0  0  0
  -17.4196  -26.6701   21.4015 H   0  0  0  0  0  0
  -18.0298  -26.0064   22.9003 H   0  0  0  0  0  0
  -19.7921  -30.7259   24.2291 H   0  0  0  0  0  0
  -17.5000  -31.6260   24.5167 H   0  0  0  0  0  0
  -15.5338  -30.2987   23.7646 H   0  0  0  0  0  0
  -15.8663  -28.0826   22.7046 H   0  0  0  0  0  0
  -24.5910  -30.7062   25.7811 H   0  0  0  0  0  0
  -24.8942  -32.2871   26.4927 H   0  0  0  0  0  0
  -25.8102  -30.8874   27.0220 H   0  0  0  0  0  0
  -26.2835  -29.6805   24.1163 H   0  0  0  0  0  0
  -27.4060  -29.7276   25.4565 H   0  0  0  0  0  0
  -27.8677  -30.4348   23.9254 H   0  0  0  0  0  0
  -27.2659  -33.3600   26.2092 H   0  0  0  0  0  0
  -28.3822  -32.6929   25.0274 H   0  0  0  0  0  0
  -28.0760  -31.8431   26.5343 H   0  0  0  0  0  0
  -28.2622  -38.0095   24.7505 H   0  0  0  0  0  0
  -28.1070  -36.2625   24.6297 H   0  0  0  0  0  0
  -27.2304  -37.1472   25.8869 H   0  0  0  0  0  0
  -20.9295  -29.8733   21.6942 H   0  0  0  0  0  0
  -26.0200  -38.2884   24.1394 H   0  0  0  0  0  0
  -28.5656  -22.1851   18.7039 H   0  0  0  0  0  0
  -26.9193  -19.8970   16.4028 H   0  0  0  0  0  0
  -28.3671  -20.8678   16.5800 H   0  0  0  0  0  0
  -26.9149  -21.2626   17.5029 H   0  0  0  0  0  0
  -33.9129  -22.1175   22.3681 H   0  0  0  0  0  0
  -33.3508  -22.4218   20.7262 H   0  0  0  0  0  0
  -33.6053  -20.7677   21.2823 H   0  0  0  0  0  0
  -30.6140  -18.0047   17.8114 H   0  0  0  0  0  0
  -30.8071  -16.3783   18.4278 H   0  0  0  0  0  0
  -31.8869  -17.6600   18.9670 H   0  0  0  0  0  0
  -27.1359  -19.1321   18.8027 H   0  0  0  0  0  0
  -28.4488  -18.6404   17.7724 H   0  0  0  0  0  0
  -30.4515  -23.8576   19.0268 H   0  0  0  0  0  0
  -31.4380  -23.7443   20.4177 H   0  0  0  0  0  0
  -31.7486  -21.0208   22.9410 H   0  0  0  0  0  0
  -31.4841  -22.6599   22.4547 H   0  0  0  0  0  0
  -30.1659  -25.4034   21.1698 H   0  0  0  0  0  0
  -29.1264  -24.1647   21.7679 H   0  0  0  0  0  0
  -29.6919  -17.3274   21.9899 H   0  0  0  0  0  0
  -31.3100  -17.0691   21.4027 H   0  0  0  0  0  0
  -27.4294  -24.8621   20.3838 H   0  0  0  0  0  0
  -28.4491  -25.0123   18.9635 H   0  0  0  0  0  0
  -28.8987  -17.4331   19.5960 H   0  0  0  0  0  0
  -29.0152  -15.2203   21.3670 H   0  0  0  0  0  0
  1 25  1  0  0  0
  1 30  2  0  0  0
  1 87  1  0  0  0
  2  3  1  0  0  0
  2 25  1  0  0  0
  2 88  1  0  0  0
  2 89  1  0  0  0
  3  4  1  0  0  0
  3 90  1  0  0  0
  3 91  1  0  0  0
  4  5  1  0  0  0
  4 92  1  0  0  0
  4 93  1  0  0  0
  5  6  1  0  0  0
  5 26  1  0  0  0
  5 94  1  0  0  0
  6 25  1  0  0  0
  6 95  1  0  0  0
  6 96  1  0  0  0
  7  8  2  0  0  0
  7 26  1  0  0  0
  7 29  1  0  0  0
  8  9  1  0  0  0
  8 22  1  0  0  0
  9 10  1  0  0  0
  9 27  2  0  0  0
 10 11  2  0  0  0
 10 15  1  0  0  0
 11 12  1  0  0  0
 11 97  1  0  0  0
 12 13  2  0  0  0
 12 98  1  0  0  0
 13 14  1  0  0  0
 13 31  1  0  0  0
 14 15  2  0  0  0
 14 99  1  0  0  0
 15100  1  0  0  0
 16 17  2  0  0  0
 16 21  1  0  0  0
 16 31  1  0  0  0
 17 18  1  0  0  0
 17101  1  0  0  0
 18 19  2  0  0  0
 18102  1  0  0  0
 19 20  1  0  0  0
 19 24  1  0  0  0
 20 21  2  0  0  0
 20103  1  0  0  0
 21 23  1  0  0  0
 22 28  1  0  0  0
 22 32  2  0  0  0
 26 27  1  0  0  0
 28104  1  0  0  0
 28105  1  0  0  0
 29106  1  0  0  0
 29107  1  0  0  0
 33 34  1  0  0  0
 33 66  1  0  0  0
 33 70  2  0  0  0
 34 36  1  0  0  0
 34 59  1  0  0  0
 34108  1  0  0  0
 35 44  2  0  0  0
 35 45  1  0  0  0
 35 68  1  0  0  0
 36 56  1  0  0  0
 36109  1  0  0  0
 37 39  1  0  0  0
 37 47  1  0  0  0
 37 66  1  0  0  0
 37110  1  0  0  0
 38 43  2  0  0  0
 38 46  1  0  0  0
 38 47  1  0  0  0
 39 64  1  0  0  0
 39 67  2  0  0  0
 40 52  1  0  0  0
 40 53  2  0  0  0
 40 58  1  0  0  0
 41111  1  0  0  0
 41112  1  0  0  0
 41113  1  0  0  0
 41 48  1  0  0  0
 42 43  1  0  0  0
 42 66  1  0  0  0
 42114  1  0  0  0
 42115  1  0  0  0
 43 44  1  0  0  0
 44116  1  0  0  0
 45 46  2  0  0  0
 45117  1  0  0  0
 46118  1  0  0  0
 47119  1  0  0  0
 47120  1  0  0  0
 48 56  1  0  0  0
 48 65  1  0  0  0
 48121  1  0  0  0
 49 50  1  0  0  0
 49 53  1  0  0  0
 49 64  1  0  0  0
 49122  1  0  0  0
 50 51  1  0  0  0
 50123  1  0  0  0
 50124  1  0  0  0
 51 52  1  0  0  0
 51125  1  0  0  0
 51126  1  0  0  0
 52127  1  0  0  0
 52128  1  0  0  0
 53 54  1  0  0  0
 54 55  2  0  0  0
 54129  1  0  0  0
 55 57  1  0  0  0
 55130  1  0  0  0
 56 69  2  0  0  0
 57 58  2  0  0  0
 57131  1  0  0  0
 58132  1  0  0  0
 59 60  1  0  0  0
 59 61  1  0  0  0
 59 62  1  0  0  0
 60133  1  0  0  0
 60134  1  0  0  0
 60135  1  0  0  0
 61136  1  0  0  0
 61137  1  0  0  0
 61138  1  0  0  0
 62139  1  0  0  0
 62140  1  0  0  0
 62141  1  0  0  0
 63 65  1  0  0  0
 63142  1  0  0  0
 63143  1  0  0  0
 63144  1  0  0  0
 64145  1  0  0  0
 65146  1  0  0  0
 68 84  1  0  0  0
 71 72  2  0  0  0
 71 73  1  0  0  0
 71147  1  0  0  0
 72 74  1  0  0  0
 72 80  1  0  0  0
 73 75  2  0  0  0
 73 79  1  0  0  0
 74 81  1  0  0  0
 74 86  2  0  0  0
 75 85  1  0  0  0
 75 86  1  0  0  0
 76 79  1  0  0  0
 76148  1  0  0  0
 76149  1  0  0  0
 76150  1  0  0  0
 77 81  1  0  0  0
 77151  1  0  0  0
 77152  1  0  0  0
 77153  1  0  0  0
 78154  1  0  0  0
 78155  1  0  0  0
 78156  1  0  0  0
 78 85  1  0  0  0
 79157  1  0  0  0
 79158  1  0  0  0
 80 82  1  0  0  0
 80159  1  0  0  0
 80160  1  0  0  0
 81161  1  0  0  0
 81162  1  0  0  0
 82 84  1  0  0  0
 82163  1  0  0  0
 82164  1  0  0  0
 83 85  1  0  0  0
 83 87  1  0  0  0
 83165  1  0  0  0
 83166  1  0  0  0
 84167  1  0  0  0
 84168  1  0  0  0
 85169  1  0  0  0
 87170  1  0  0  0
M  ISO  4   1 100  68 101  84 101  87 100
M  END
> <chiral flag>
0

> <version>
0

> <s_m_source_file>
/data/baiqing/PycharmProjects/Reinvent-master-3.2/result/LINK_invent/BTK/process_docking_weight1_custom_sum_contain_oxygen_bond_distance_aromatic_linkinvent_7_9_3/rearranged_h_0079.sdf

> <i_m_source_file_index>
16

> <r_mmod_Potential_Energy-OPLS-2005>
-206.768203735352

> <r_mmod_Stretch_Energy-OPLS-2005>
43.7387161254883

> <r_mmod_Bend_Energy-OPLS-2005>
111.741851806641

> <r_mmod_Torsional_Energy-OPLS-2005>
216.818267822266

> <r_mmod_Improper_Torsional_Energy-OPLS-2005>
4.88741779327393

> <r_mmod_Van_der_Waal_Energy-OPLS-2005>
155.513885498047

> <r_mmod_Electrostatic_Energy-OPLS-2005>
-537.941467285156

> <r_mmod_Solvation_Energy-OPLS-2005>
-216.192535400391

> <b_mmod_Minimization_Converged-OPLS-2005>
0

> <r_mmod_RMS_Derivative-OPLS-2005>
2.22722053527832

$$$$
16
                    3D
 Structure written by MMmdl.
178186  0  0  1  0            999 V2000
  -30.7319  -14.3923   20.6186 C   0  0  0  0  0  0
  -30.4035  -12.2762   19.3997 C   0  0  0  0  0  0
  -29.4776  -12.5283   18.1931 C   0  0  0  0  0  0
  -28.0004  -12.3933   18.6081 C   0  0  0  0  0  0
  -27.6625  -13.2059   19.8869 C   0  0  2  0  0  0
  -28.7024  -12.9392   20.9975 C   0  0  0  0  0  0
  -25.2577  -13.8144   20.5713 C   0  0  0  0  0  0
  -24.1828  -13.0408   20.9162 C   0  0  0  0  0  0
  -24.6391  -11.6891   20.8724 C   0  0  0  0  0  0
  -23.9063  -10.4282   21.0409 C   0  0  0  0  0  0
  -24.3608   -9.4195   21.9187 C   0  0  0  0  0  0
  -23.6267   -8.2237   22.0762 C   0  0  0  0  0  0
  -22.4259   -8.0270   21.3538 C   0  0  0  0  0  0
  -21.9904   -9.0263   20.4653 C   0  0  0  0  0  0
  -22.7235  -10.2132   20.3063 C   0  0  0  0  0  0
  -21.6855   -6.0715   22.5273 C   0  0  0  0  0  0
  -21.4037   -6.5630   23.8202 C   0  0  0  0  0  0
  -21.3661   -5.6794   24.9163 C   0  0  0  0  0  0
  -21.6017   -4.3051   24.7238 C   0  0  0  0  0  0
  -21.8818   -3.8134   23.4366 C   0  0  0  0  0  0
  -21.9200   -4.6934   22.3405 C   0  0  0  0  0  0
  -22.7853  -13.5189   21.1806 C   0  0  0  0  0  0
  -22.1663   -4.2105   21.0987 F   0  0  0  0  0  0
  -21.5627   -3.4565   25.7772 F   0  0  0  0  0  0
  -30.0409  -13.2360   20.4515 N   0  0  0  0  0  0
  -26.3034  -12.9322   20.3449 N   0  0  0  0  0  0
  -25.9307  -11.6481   20.5771 N   0  0  0  0  0  0
  -22.0525  -12.8203   22.0381 N   0  0  0  0  0  0
  -25.4278  -15.1848   20.4136 N   0  0  0  0  0  0
  -31.7991  -14.6393   20.0453 O   0  0  0  0  0  0
  -21.6609   -6.8869   21.4247 O   0  0  0  0  0  0
  -22.3518  -14.5491   20.6669 O   0  0  0  0  0  0
  -24.6138  -31.8685   23.2113 C   0  0  0  0  0  0
  -25.9037  -32.4829   23.8391 C   0  0  1  0  0  0
  -27.2414  -27.4505   20.0541 C   0  0  0  0  0  0
  -25.5908  -33.8630   24.2325 N   0  0  0  0  0  0
  -23.3994  -30.4921   21.5533 C   0  0  2  0  0  0
  -24.8402  -28.9531   20.1227 C   0  0  0  0  0  0
  -22.7400  -29.4670   22.5019 C   0  0  0  0  0  0
  -18.0262  -28.1384   22.8493 C   0  0  0  0  0  0
  -24.1487  -36.7309   23.2638 C   0  0  0  0  0  0
  -25.9289  -30.8307   21.3658 C   0  0  0  0  0  0
  -26.0016  -29.4658   20.7119 C   0  0  0  0  0  0
  -27.1982  -28.7155   20.6856 C   0  0  0  0  0  0
  -26.0447  -26.9296   19.5110 C   0  0  0  0  0  0
  -24.8536  -27.6788   19.5319 C   0  0  0  0  0  0
  -23.6054  -29.8219   20.1696 C   0  0  0  0  0  0
  -25.4112  -36.3118   24.0335 C   0  0  1  0  0  0
  -20.5858  -28.3669   23.1328 C   0  0  2  0  0  0
  -20.6766  -26.9409   22.5428 C   0  0  0  0  0  0
  -19.5744  -26.6391   21.5223 C   0  0  0  0  0  0
  -18.1914  -26.7933   22.1626 C   0  0  0  0  0  0
  -19.1514  -28.8840   23.2908 C   0  0  0  0  0  0
  -18.9444  -30.1447   23.8914 C   0  0  0  0  0  0
  -17.6451  -30.6592   24.0567 C   0  0  0  0  0  0
  -25.9041  -34.9480   23.5124 C   0  0  0  0  0  0
  -16.5341  -29.9099   23.6326 C   0  0  0  0  0  0
  -16.7251  -28.6517   23.0341 C   0  0  0  0  0  0
  -26.4459  -31.6620   25.0726 C   0  0  0  0  0  0
  -25.3721  -31.3727   26.1473 C   0  0  0  0  0  0
  -27.0292  -30.3060   24.6121 C   0  0  0  0  0  0
  -27.6038  -32.4339   25.7486 C   0  0  0  0  0  0
  -27.5585  -37.1814   24.8462 C   0  0  0  0  0  0
  -21.4129  -29.3037   22.3746 N   0  0  0  0  0  0
  -26.4297  -37.3802   23.9410 N   0  0  0  0  0  0
  -24.6653  -31.0788   22.1016 N   0  0  0  0  0  0
  -23.4170  -28.8210   23.3062 O   0  0  0  0  0  0
  -28.4582  -26.7952   20.0131 O   0  0  0  0  0  0
  -26.5601  -34.8931   22.4688 O   0  0  0  0  0  0
  -23.5336  -32.1449   23.7515 O   0  0  0  0  0  0
  -28.0126  -19.9434   19.6266 C   0  0  0  0  0  0
  -27.6546  -21.1231   18.9268 C   0  0  0  0  0  0
  -29.3122  -20.0618   20.0352 C   0  0  0  0  0  0
  -28.7398  -21.9534   18.9225 C   0  0  0  0  0  0
  -33.5594  -23.5148   18.6707 C   0  0  0  0  0  0
  -34.2728  -21.4326   17.4280 C   0  0  0  0  0  0
  -30.3754  -26.0330   18.9691 C   0  0  0  0  0  0
  -28.3435  -26.2867   17.5530 C   0  0  0  0  0  0
  -30.1488  -19.1086   20.8476 C   0  0  0  0  0  0
  -28.8742  -23.3346   18.3549 C   0  0  0  0  0  0
  -29.7326  -17.6326   20.7041 C   0  0  0  0  0  0
  -28.4566  -24.4320   19.3578 C   0  0  0  0  0  0
  -31.9978  -21.4938   18.5192 C   0  0  0  0  0  0
  -31.1322  -21.8183   19.7525 C   0  0  0  0  0  0
  -30.5688  -16.6827   21.5832 C   0  0  0  0  0  0
  -33.4559  -21.9800   18.6107 C   0  0  0  0  0  0
  -28.8419  -25.8812   18.9626 C   0  0  0  0  0  0
  -29.7771  -21.2970   19.5860 N   0  0  0  0  0  0
  -30.1347  -15.2989   21.4029 N   0  0  0  0  0  0
  -31.4479  -12.3609   19.1004 H   0  0  0  0  0  0
  -30.2870  -11.2537   19.7663 H   0  0  0  0  0  0
  -29.7033  -11.8343   17.3836 H   0  0  0  0  0  0
  -29.6494  -13.5299   17.7907 H   0  0  0  0  0  0
  -27.7998  -11.3353   18.7795 H   0  0  0  0  0  0
  -27.3464  -12.6914   17.7880 H   0  0  0  0  0  0
  -27.7165  -14.2592   19.6176 H   0  0  0  0  0  0
  -28.6590  -11.8943   21.3058 H   0  0  0  0  0  0
  -28.4581  -13.5086   21.8956 H   0  0  0  0  0  0
  -25.2769   -9.5651   22.4742 H   0  0  0  0  0  0
  -23.9952   -7.4633   22.7496 H   0  0  0  0  0  0
  -21.0829   -8.8805   19.8959 H   0  0  0  0  0  0
  -22.3713  -10.9675   19.6166 H   0  0  0  0  0  0
  -21.2049   -7.6144   23.9696 H   0  0  0  0  0  0
  -21.1471   -6.0532   25.9054 H   0  0  0  0  0  0
  -22.0597   -2.7597   23.2886 H   0  0  0  0  0  0
  -22.4193  -11.9845   22.4679 H   0  0  0  0  0  0
  -21.1169  -13.1222   22.2690 H   0  0  0  0  0  0
  -24.6619  -15.8412   20.5174 H   0  0  0  0  0  0
  -26.2853  -15.6234   20.1043 H   0  0  0  0  0  0
  -26.7109  -32.5532   23.1154 H   0  0  0  0  0  0
  -25.0066  -33.9789   25.0471 H   0  0  0  0  0  0
  -22.6879  -31.3085   21.4143 H   0  0  0  0  0  0
  -23.3763  -35.9634   23.3306 H   0  0  0  0  0  0
  -24.3572  -36.8918   22.2055 H   0  0  0  0  0  0
  -23.7225  -37.6506   23.6643 H   0  0  0  0  0  0
  -26.0471  -31.5962   20.5978 H   0  0  0  0  0  0
  -26.8158  -30.8784   21.9870 H   0  0  0  0  0  0
  -28.1001  -29.1172   21.1277 H   0  0  0  0  0  0
  -26.0083  -25.9477   19.0675 H   0  0  0  0  0  0
  -23.9532  -27.2652   19.0985 H   0  0  0  0  0  0
  -23.7195  -30.5944   19.4090 H   0  0  0  0  0  0
  -22.7278  -29.2442   19.8727 H   0  0  0  0  0  0
  -25.1297  -36.1987   25.0827 H   0  0  0  0  0  0
  -20.9934  -28.3242   24.1457 H   0  0  0  0  0  0
  -20.5698  -26.2274   23.3615 H   0  0  0  0  0  0
  -21.6634  -26.7478   22.1207 H   0  0  0  0  0  0
  -19.6916  -25.6305   21.1241 H   0  0  0  0  0  0
  -19.6691  -27.3215   20.6763 H   0  0  0  0  0  0
  -17.4199  -26.6684   21.4014 H   0  0  0  0  0  0
  -18.0306  -26.0069   22.9015 H   0  0  0  0  0  0
  -19.7914  -30.7252   24.2308 H   0  0  0  0  0  0
  -17.5001  -31.6271   24.5170 H   0  0  0  0  0  0
  -15.5343  -30.3010   23.7630 H   0  0  0  0  0  0
  -15.8652  -28.0844   22.7046 H   0  0  0  0  0  0
  -24.5885  -30.7092   25.7795 H   0  0  0  0  0  0
  -24.8926  -32.2890   26.4930 H   0  0  0  0  0  0
  -25.8068  -30.8877   27.0224 H   0  0  0  0  0  0
  -26.2848  -29.6838   24.1149 H   0  0  0  0  0  0
  -27.4018  -29.7285   25.4590 H   0  0  0  0  0  0
  -27.8695  -30.4368   23.9301 H   0  0  0  0  0  0
  -27.2659  -33.3633   26.2083 H   0  0  0  0  0  0
  -28.3835  -32.6922   25.0306 H   0  0  0  0  0  0
  -28.0723  -31.8458   26.5389 H   0  0  0  0  0  0
  -28.2610  -38.0105   24.7524 H   0  0  0  0  0  0
  -28.1075  -36.2642   24.6278 H   0  0  0  0  0  0
  -27.2296  -37.1456   25.8860 H   0  0  0  0  0  0
  -20.9302  -29.8738   21.6945 H   0  0  0  0  0  0
  -26.0191  -38.2883   24.1415 H   0  0  0  0  0  0
  -27.3686  -19.0965   19.8218 H   0  0  0  0  0  0
  -26.6954  -21.3485   18.4833 H   0  0  0  0  0  0
  -34.5999  -23.8376   18.7252 H   0  0  0  0  0  0
  -33.0598  -23.9212   19.5486 H   0  0  0  0  0  0
  -33.1139  -23.9807   17.7904 H   0  0  0  0  0  0
  -35.3230  -21.7220   17.5002 H   0  0  0  0  0  0
  -33.8910  -21.8045   16.4755 H   0  0  0  0  0  0
  -34.2382  -20.3438   17.3907 H   0  0  0  0  0  0
  -30.8562  -25.4469   18.1856 H   0  0  0  0  0  0
  -30.8059  -25.7227   19.9207 H   0  0  0  0  0  0
  -30.6651  -27.0700   18.8014 H   0  0  0  0  0  0
  -28.9035  -25.7690   16.7736 H   0  0  0  0  0  0
  -28.4654  -27.3568   17.3792 H   0  0  0  0  0  0
  -27.2998  -26.0370   17.3720 H   0  0  0  0  0  0
  -30.0771  -19.3962   21.8955 H   0  0  0  0  0  0
  -31.2007  -19.1938   20.5807 H   0  0  0  0  0  0
  -28.2683  -23.4125   17.4528 H   0  0  0  0  0  0
  -29.8937  -23.4934   18.0143 H   0  0  0  0  0  0
  -29.8183  -17.3375   19.6574 H   0  0  0  0  0  0
  -28.6812  -17.5188   20.9699 H   0  0  0  0  0  0
  -28.9257  -24.2119   20.3178 H   0  0  0  0  0  0
  -27.3869  -24.3464   19.5378 H   0  0  0  0  0  0
  -31.5329  -21.9015   17.6204 H   0  0  0  0  0  0
  -31.9917  -20.4127   18.3829 H   0  0  0  0  0  0
  -31.0786  -22.8907   19.9238 H   0  0  0  0  0  0
  -31.5806  -21.4041   20.6537 H   0  0  0  0  0  0
  -30.4495  -16.9422   22.6354 H   0  0  0  0  0  0
  -31.6334  -16.7968   21.3630 H   0  0  0  0  0  0
  -33.8894  -21.5747   19.5280 H   0  0  0  0  0  0
  -29.2726  -15.0199   21.8473 H   0  0  0  0  0  0
  1 25  1  0  0  0
  1 30  2  0  0  0
  1 89  1  0  0  0
  2  3  1  0  0  0
  2 25  1  0  0  0
  2 90  1  0  0  0
  2 91  1  0  0  0
  3  4  1  0  0  0
  3 92  1  0  0  0
  3 93  1  0  0  0
  4  5  1  0  0  0
  4 94  1  0  0  0
  4 95  1  0  0  0
  5  6  1  0  0  0
  5 26  1  0  0  0
  5 96  1  0  0  0
  6 25  1  0  0  0
  6 97  1  0  0  0
  6 98  1  0  0  0
  7  8  2  0  0  0
  7 26  1  0  0  0
  7 29  1  0  0  0
  8  9  1  0  0  0
  8 22  1  0  0  0
  9 10  1  0  0  0
  9 27  2  0  0  0
 10 11  2  0  0  0
 10 15  1  0  0  0
 11 12  1  0  0  0
 11 99  1  0  0  0
 12 13  2  0  0  0
 12100  1  0  0  0
 13 14  1  0  0  0
 13 31  1  0  0  0
 14 15  2  0  0  0
 14101  1  0  0  0
 15102  1  0  0  0
 16 17  2  0  0  0
 16 21  1  0  0  0
 16 31  1  0  0  0
 17 18  1  0  0  0
 17103  1  0  0  0
 18 19  2  0  0  0
 18104  1  0  0  0
 19 20  1  0  0  0
 19 24  1  0  0  0
 20 21  2  0  0  0
 20105  1  0  0  0
 21 23  1  0  0  0
 22 28  1  0  0  0
 22 32  2  0  0  0
 26 27  1  0  0  0
 28106  1  0  0  0
 28107  1  0  0  0
 29108  1  0  0  0
 29109  1  0  0  0
 33 34  1  0  0  0
 33 66  1  0  0  0
 33 70  2  0  0  0
 34 36  1  0  0  0
 34 59  1  0  0  0
 34110  1  0  0  0
 35 44  2  0  0  0
 35 45  1  0  0  0
 35 68  1  0  0  0
 36 56  1  0  0  0
 36111  1  0  0  0
 37 39  1  0  0  0
 37 47  1  0  0  0
 37 66  1  0  0  0
 37112  1  0  0  0
 38 43  2  0  0  0
 38 46  1  0  0  0
 38 47  1  0  0  0
 39 64  1  0  0  0
 39 67  2  0  0  0
 40 52  1  0  0  0
 40 53  2  0  0  0
 40 58  1  0  0  0
 41113  1  0  0  0
 41114  1  0  0  0
 41115  1  0  0  0
 41 48  1  0  0  0
 42 43  1  0  0  0
 42 66  1  0  0  0
 42116  1  0  0  0
 42117  1  0  0  0
 43 44  1  0  0  0
 44118  1  0  0  0
 45 46  2  0  0  0
 45119  1  0  0  0
 46120  1  0  0  0
 47121  1  0  0  0
 47122  1  0  0  0
 48 56  1  0  0  0
 48 65  1  0  0  0
 48123  1  0  0  0
 49 50  1  0  0  0
 49 53  1  0  0  0
 49 64  1  0  0  0
 49124  1  0  0  0
 50 51  1  0  0  0
 50125  1  0  0  0
 50126  1  0  0  0
 51 52  1  0  0  0
 51127  1  0  0  0
 51128  1  0  0  0
 52129  1  0  0  0
 52130  1  0  0  0
 53 54  1  0  0  0
 54 55  2  0  0  0
 54131  1  0  0  0
 55 57  1  0  0  0
 55132  1  0  0  0
 56 69  2  0  0  0
 57 58  2  0  0  0
 57133  1  0  0  0
 58134  1  0  0  0
 59 60  1  0  0  0
 59 61  1  0  0  0
 59 62  1  0  0  0
 60135  1  0  0  0
 60136  1  0  0  0
 60137  1  0  0  0
 61138  1  0  0  0
 61139  1  0  0  0
 61140  1  0  0  0
 62141  1  0  0  0
 62142  1  0  0  0
 62143  1  0  0  0
 63 65  1  0  0  0
 63144  1  0  0  0
 63145  1  0  0  0
 63146  1  0  0  0
 64147  1  0  0  0
 65148  1  0  0  0
 68 87  1  0  0  0
 71 72  1  0  0  0
 71 73  2  0  0  0
 71149  1  0  0  0
 72 74  2  0  0  0
 72150  1  0  0  0
 73 79  1  0  0  0
 73 88  1  0  0  0
 74 80  1  0  0  0
 74 88  1  0  0  0
 75151  1  0  0  0
 75152  1  0  0  0
 75153  1  0  0  0
 75 86  1  0  0  0
 76 86  1  0  0  0
 76154  1  0  0  0
 76155  1  0  0  0
 76156  1  0  0  0
 77157  1  0  0  0
 77158  1  0  0  0
 77159  1  0  0  0
 77 87  1  0  0  0
 78 87  1  0  0  0
 78160  1  0  0  0
 78161  1  0  0  0
 78162  1  0  0  0
 79 81  1  0  0  0
 79163  1  0  0  0
 79164  1  0  0  0
 80 82  1  0  0  0
 80165  1  0  0  0
 80166  1  0  0  0
 81 85  1  0  0  0
 81167  1  0  0  0
 81168  1  0  0  0
 82 87  1  0  0  0
 82169  1  0  0  0
 82170  1  0  0  0
 83 84  1  0  0  0
 83 86  1  0  0  0
 83171  1  0  0  0
 83172  1  0  0  0
 84 88  1  0  0  0
 84173  1  0  0  0
 84174  1  0  0  0
 85 89  1  0  0  0
 85175  1  0  0  0
 85176  1  0  0  0
 86177  1  0  0  0
 89178  1  0  0  0
M  ISO  4   1 100  68 101  87 101  89 100
M  END
> <chiral flag>
0

> <version>
0

> <s_m_source_file>
/data/baiqing/PycharmProjects/Reinvent-master-3.2/result/LINK_invent/BTK/process_docking_weight1_custom_sum_contain_oxygen_bond_distance_aromatic_linkinvent_7_9_3/rearranged_h_0079.sdf

> <i_m_source_file_index>
17

> <r_mmod_Potential_Energy-OPLS-2005>
-93.5580673217773

> <r_mmod_Stretch_Energy-OPLS-2005>
34.9541053771973

> <r_mmod_Bend_Energy-OPLS-2005>
115.687728881836

> <r_mmod_Torsional_Energy-OPLS-2005>
215.217468261719

> <r_mmod_Improper_Torsional_Energy-OPLS-2005>
2.3453996181488

> <r_mmod_Van_der_Waal_Energy-OPLS-2005>
131.071594238281

> <r_mmod_Electrostatic_Energy-OPLS-2005>
-403.219055175781

> <r_mmod_Solvation_Energy-OPLS-2005>
-198.534332275391

> <b_mmod_Minimization_Converged-OPLS-2005>
0

> <r_mmod_RMS_Derivative-OPLS-2005>
3.6657702922821

$$$$
17
                    3D
 Structure written by MMmdl.
164172  0  0  1  0            999 V2000
  -30.8411  -14.7002   21.5458 C   0  0  0  0  0  0
  -30.7289  -15.5294   19.0134 C   0  0  0  0  0  0
  -29.4420  -16.2445   17.4600 C   0  0  0  0  0  0
  -27.2633  -16.0166   17.9951 C   0  0  0  0  0  0
  -27.2532  -15.2304   20.3243 C   0  0  2  0  0  0
  -28.7134  -14.3459   20.8711 C   0  0  0  0  0  0
  -25.3041  -14.6970   20.6821 C   0  0  0  0  0  0
  -24.2194  -13.0121   20.9227 C   0  0  0  0  0  0
  -24.7364  -11.7254   20.7035 C   0  0  0  0  0  0
  -23.9306  -10.4629   20.9272 C   0  0  0  0  0  0
  -24.3554   -9.4870   21.8674 C   0  0  0  0  0  0
  -23.6271   -8.2880   22.0741 C   0  0  0  0  0  0
  -22.4386   -8.0438   21.3462 C   0  0  0  0  0  0
  -22.0242   -8.9925   20.3981 C   0  0  0  0  0  0
  -22.7777  -10.1554   20.1637 C   0  0  0  0  0  0
  -21.7055   -6.0760   22.5257 C   0  0  0  0  0  0
  -21.4256   -6.5690   23.8166 C   0  0  0  0  0  0
  -21.3722   -5.6838   24.9119 C   0  0  0  0  0  0
  -21.6028   -4.3086   24.7205 C   0  0  0  0  0  0
  -21.8792   -3.8142   23.4336 C   0  0  0  0  0  0
  -21.9290   -4.6957   22.3390 C   0  0  0  0  0  0
  -22.5061  -12.7896   21.3698 C   0  0  0  0  0  0
  -22.1709   -4.2117   21.0966 F   0  0  0  0  0  0
  -21.5555   -3.4560   25.7725 F   0  0  0  0  0  0
  -30.1296  -14.7929   20.4679 N   0  0  0  0  0  0
  -26.0382  -14.5953   20.6550 N   0  0  0  0  0  0
  -24.7853  -13.1336   20.7973 N   0  0  0  0  0  0
  -22.1764  -12.3071   22.5485 N   0  0  0  0  0  0
  -25.1874  -16.2128   20.6374 N   0  0  0  0  0  0
  -32.0361  -14.6341   21.2306 O   0  0  0  0  0  0
  -21.6796   -6.8951   21.4264 O   0  0  0  0  0  0
  -21.5610  -13.2479   20.7238 O   0  0  0  0  0  0
  -24.8682  -31.5222   22.9843 C   0  0  0  0  0  0
  -26.0190  -32.3216   23.7118 C   0  0  1  0  0  0
  -27.1292  -24.7549   20.0757 C   0  0  0  0  0  0
  -25.5909  -33.7168   24.0753 N   0  0  0  0  0  0
  -23.7423  -30.0432   21.3951 C   0  0  2  0  0  0
  -25.1365  -27.9522   20.1047 C   0  0  0  0  0  0
  -22.8408  -29.2889   22.4219 C   0  0  0  0  0  0
  -18.0420  -28.1515   22.8356 C   0  0  0  0  0  0
  -24.1458  -36.6624   23.2720 C   0  0  0  0  0  0
  -26.3256  -29.5772   21.5146 C   0  0  0  0  0  0
  -26.3378  -27.9427   20.8200 C   0  0  0  0  0  0
  -27.2285  -26.4566   20.7333 C   0  0  0  0  0  0
  -25.9407  -25.4470   19.3772 C   0  0  0  0  0  0
  -25.0815  -26.7200   19.3632 C   0  0  0  0  0  0
  -24.0437  -29.1504   20.1095 C   0  0  0  0  0  0
  -25.4170  -36.2170   24.0164 C   0  0  1  0  0  0
  -20.6118  -28.3850   23.0843 C   0  0  2  0  0  0
  -20.6737  -26.9336   22.5478 C   0  0  0  0  0  0
  -19.5775  -26.6266   21.5235 C   0  0  0  0  0  0
  -18.1955  -26.8005   22.1577 C   0  0  0  0  0  0
  -19.1737  -28.9055   23.2533 C   0  0  0  0  0  0
  -18.9638  -30.1607   23.8636 C   0  0  0  0  0  0
  -17.6619  -30.6651   24.0511 C   0  0  0  0  0  0
  -25.9264  -34.8617   23.4504 C   0  0  0  0  0  0
  -16.5485  -29.9114   23.6402 C   0  0  0  0  0  0
  -16.7397  -28.6559   23.0375 C   0  0  0  0  0  0
  -26.4921  -31.6182   25.0449 C   0  0  0  0  0  0
  -25.3607  -31.3887   26.0771 C   0  0  0  0  0  0
  -27.1199  -30.2507   24.7374 C   0  0  0  0  0  0
  -27.5975  -32.4553   25.7329 C   0  0  0  0  0  0
  -27.5476  -37.1420   24.8465 C   0  0  0  0  0  0
  -21.4943  -29.2666   22.2926 N   0  0  0  0  0  0
  -26.4123  -37.3164   23.9459 N   0  0  0  0  0  0
  -25.0413  -30.4629   22.0204 N   0  0  0  0  0  0
  -23.3987  -28.6973   23.3458 O   0  0  0  0  0  0
  -27.8255  -22.7168   19.9607 O   0  0  0  0  0  0
  -26.6264  -34.8622   22.4377 O   0  0  0  0  0  0
  -23.7394  -31.9184   23.3627 O   0  0  0  0  0  0
  -24.4920  -14.0018   18.6935 C   0  0  0  0  0  0
  -23.9513  -14.7608   22.3955 C   0  0  0  0  0  0
  -23.2007  -14.9473   20.1967 C   0  0  0  0  0  0
  -26.3516  -12.9884   19.1794 C   0  0  0  0  0  0
  -25.8614  -13.6589   22.7423 C   0  0  0  0  0  0
  -22.0495  -15.8467   19.7533 C   0  0  0  0  0  0
  -26.5417  -14.7142   25.0838 C   0  0  0  0  0  0
  -28.8663  -14.3351   18.4064 C   0  0  0  0  0  0
  -27.6795  -13.9218   18.6270 C   0  0  0  0  0  0
  -28.7050  -15.1713   23.4530 C   0  0  0  0  0  0
  -27.9602  -19.9266   19.5711 C   0  0  0  0  0  0
  -27.0469  -14.4953   23.6366 C   0  0  1  0  0  0
  -28.6232  -16.7943   19.5120 C   0  0  1  0  0  0
  -26.8871  -12.6354   21.2308 N   0  0  0  0  0  0
  -30.1835  -14.7537   22.8445 N   0  0  0  0  0  0
  -31.2405  -16.4173   19.3822 H   0  0  0  0  0  0
  -31.5462  -14.9373   18.5969 H   0  0  0  0  0  0
  -29.7252  -15.8890   16.4680 H   0  0  0  0  0  0
  -29.6299  -17.3074   17.3077 H   0  0  0  0  0  0
  -26.6532  -15.5692   17.2206 H   0  0  0  0  0  0
  -26.7877  -16.9999   17.9473 H   0  0  0  0  0  0
  -27.3568  -15.9866   21.1285 H   0  0  0  0  0  0
  -28.9251  -13.3293   20.5592 H   0  0  0  0  0  0
  -28.5864  -13.7958   21.7555 H   0  0  0  0  0  0
  -25.2649   -9.6552   22.4230 H   0  0  0  0  0  0
  -23.9950   -7.5607   22.7822 H   0  0  0  0  0  0
  -21.1377   -8.8045   19.8092 H   0  0  0  0  0  0
  -22.4539  -10.8402   19.3947 H   0  0  0  0  0  0
  -21.2399   -7.6222   23.9655 H   0  0  0  0  0  0
  -21.1570   -6.0592   25.9004 H   0  0  0  0  0  0
  -22.0522   -2.7598   23.2846 H   0  0  0  0  0  0
  -22.8883  -12.0011   23.1900 H   0  0  0  0  0  0
  -21.2129  -12.2633   22.8489 H   0  0  0  0  0  0
  -24.3107  -16.5692   20.9825 H   0  0  0  0  0  0
  -25.9366  -16.8827   20.5884 H   0  0  0  0  0  0
  -26.8614  -32.3710   23.0196 H   0  0  0  0  0  0
  -24.9524  -33.7828   24.8538 H   0  0  0  0  0  0
  -23.1896  -30.9285   21.0611 H   0  0  0  0  0  0
  -23.3785  -35.8874   23.3078 H   0  0  0  0  0  0
  -24.3470  -36.8716   22.2201 H   0  0  0  0  0  0
  -23.7138  -37.5603   23.7154 H   0  0  0  0  0  0
  -26.7838  -30.1923   20.7405 H   0  0  0  0  0  0
  -27.0792  -29.5472   22.2888 H   0  0  0  0  0  0
  -28.1131  -26.5499   21.3482 H   0  0  0  0  0  0
  -25.4942  -24.7187   18.7110 H   0  0  0  0  0  0
  -24.2383  -26.6549   18.6905 H   0  0  0  0  0  0
  -24.3489  -29.8243   19.3104 H   0  0  0  0  0  0
  -23.0971  -28.7334   19.7620 H   0  0  0  0  0  0
  -25.1449  -36.0640   25.0631 H   0  0  0  0  0  0
  -21.0138  -28.3628   24.1004 H   0  0  0  0  0  0
  -20.5366  -26.2525   23.3896 H   0  0  0  0  0  0
  -21.6575  -26.6942   22.1440 H   0  0  0  0  0  0
  -19.6860  -25.6112   21.1405 H   0  0  0  0  0  0
  -19.6826  -27.2958   20.6683 H   0  0  0  0  0  0
  -17.4238  -26.6782   21.3964 H   0  0  0  0  0  0
  -18.0265  -26.0224   22.9036 H   0  0  0  0  0  0
  -19.8121  -30.7469   24.1892 H   0  0  0  0  0  0
  -17.5181  -31.6304   24.5169 H   0  0  0  0  0  0
  -15.5483  -30.2952   23.7879 H   0  0  0  0  0  0
  -15.8791  -28.0815   22.7209 H   0  0  0  0  0  0
  -24.5806  -30.7289   25.6950 H   0  0  0  0  0  0
  -24.8830  -32.3252   26.3665 H   0  0  0  0  0  0
  -25.7428  -30.9290   26.9900 H   0  0  0  0  0  0
  -26.3927  -29.5380   24.3494 H   0  0  0  0  0  0
  -27.5234  -29.7909   25.6416 H   0  0  0  0  0  0
  -27.9606  -30.3445   24.0497 H   0  0  0  0  0  0
  -27.2218  -33.4103   26.1029 H   0  0  0  0  0  0
  -28.4186  -32.6747   25.0482 H   0  0  0  0  0  0
  -28.0216  -31.9350   26.5932 H   0  0  0  0  0  0
  -28.2266  -37.9911   24.7577 H   0  0  0  0  0  0
  -28.1166  -36.2402   24.6164 H   0  0  0  0  0  0
  -27.2213  -37.0861   25.8865 H   0  0  0  0  0  0
  -21.0681  -29.7939   21.5434 H   0  0  0  0  0  0
  -25.9755  -38.2099   24.1576 H   0  0  0  0  0  0
  -24.2835  -14.2355   17.6584 H   0  0  0  0  0  0
  -23.5218  -15.4141   23.1411 H   0  0  0  0  0  0
  -21.4146  -15.3088   19.0505 H   0  0  0  0  0  0
  -22.4522  -16.7088   19.2297 H   0  0  0  0  0  0
  -21.4371  -16.1827   20.5877 H   0  0  0  0  0  0
  -25.5056  -15.0621   25.0862 H   0  0  0  0  0  0
  -27.1188  -15.4896   25.5941 H   0  0  0  0  0  0
  -26.5750  -13.8093   25.6870 H   0  0  0  0  0  0
  -29.6287  -13.5167   18.7585 H   0  0  0  0  0  0
  -29.7717  -14.0271   17.8195 H   0  0  0  0  0  0
  -28.9372  -14.1962   17.2035 H   0  0  0  0  0  0
  -27.0709  -13.7423   17.6697 H   0  0  0  0  0  0
  -27.8294  -12.8167   19.0354 H   0  0  0  0  0  0
  -28.5780  -16.1822   23.0600 H   0  0  0  0  0  0
  -29.0121  -15.3832   24.4740 H   0  0  0  0  0  0
  -26.9659  -19.7868   19.9915 H   0  0  0  0  0  0
  -27.8097  -20.0047   18.4948 H   0  0  0  0  0  0
  -26.6268  -15.4254   23.2458 H   0  0  0  0  0  0
  -29.1589  -16.8519   20.4612 H   0  0  0  0  0  0
  -30.8618  -14.6010   23.5787 H   0  0  0  0  0  0
  1 25  1  0  0  0
  1 30  2  0  0  0
  1 85  1  0  0  0
  2  3  1  0  0  0
  2 25  1  0  0  0
  2 86  1  0  0  0
  2 87  1  0  0  0
  3  4  1  0  0  0
  3 88  1  0  0  0
  3 89  1  0  0  0
  4  5  1  0  0  0
  4 90  1  0  0  0
  4 91  1  0  0  0
  5  6  1  0  0  0
  5 26  1  0  0  0
  5 92  1  0  0  0
  6 25  1  0  0  0
  6 93  1  0  0  0
  6 94  1  0  0  0
  7  8  2  0  0  0
  7 26  1  0  0  0
  7 29  1  0  0  0
  8  9  1  0  0  0
  8 22  1  0  0  0
  9 10  1  0  0  0
  9 27  2  0  0  0
 10 11  2  0  0  0
 10 15  1  0  0  0
 11 12  1  0  0  0
 11 95  1  0  0  0
 12 13  2  0  0  0
 12 96  1  0  0  0
 13 14  1  0  0  0
 13 31  1  0  0  0
 14 15  2  0  0  0
 14 97  1  0  0  0
 15 98  1  0  0  0
 16 17  2  0  0  0
 16 21  1  0  0  0
 16 31  1  0  0  0
 17 18  1  0  0  0
 17 99  1  0  0  0
 18 19  2  0  0  0
 18100  1  0  0  0
 19 20  1  0  0  0
 19 24  1  0  0  0
 20 21  2  0  0  0
 20101  1  0  0  0
 21 23  1  0  0  0
 22 28  1  0  0  0
 22 32  2  0  0  0
 26 27  1  0  0  0
 28102  1  0  0  0
 28103  1  0  0  0
 29104  1  0  0  0
 29105  1  0  0  0
 33 34  1  0  0  0
 33 66  1  0  0  0
 33 70  2  0  0  0
 34 36  1  0  0  0
 34 59  1  0  0  0
 34106  1  0  0  0
 35 44  2  0  0  0
 35 45  1  0  0  0
 35 68  1  0  0  0
 36 56  1  0  0  0
 36107  1  0  0  0
 37 39  1  0  0  0
 37 47  1  0  0  0
 37 66  1  0  0  0
 37108  1  0  0  0
 38 43  2  0  0  0
 38 46  1  0  0  0
 38 47  1  0  0  0
 39 64  1  0  0  0
 39 67  2  0  0  0
 40 52  1  0  0  0
 40 53  2  0  0  0
 40 58  1  0  0  0
 41109  1  0  0  0
 41110  1  0  0  0
 41111  1  0  0  0
 41 48  1  0  0  0
 42 43  1  0  0  0
 42 66  1  0  0  0
 42112  1  0  0  0
 42113  1  0  0  0
 43 44  1  0  0  0
 44114  1  0  0  0
 45 46  2  0  0  0
 45115  1  0  0  0
 46116  1  0  0  0
 47117  1  0  0  0
 47118  1  0  0  0
 48 56  1  0  0  0
 48 65  1  0  0  0
 48119  1  0  0  0
 49 50  1  0  0  0
 49 53  1  0  0  0
 49 64  1  0  0  0
 49120  1  0  0  0
 50 51  1  0  0  0
 50121  1  0  0  0
 50122  1  0  0  0
 51 52  1  0  0  0
 51123  1  0  0  0
 51124  1  0  0  0
 52125  1  0  0  0
 52126  1  0  0  0
 53 54  1  0  0  0
 54 55  2  0  0  0
 54127  1  0  0  0
 55 57  1  0  0  0
 55128  1  0  0  0
 56 69  2  0  0  0
 57 58  2  0  0  0
 57129  1  0  0  0
 58130  1  0  0  0
 59 60  1  0  0  0
 59 61  1  0  0  0
 59 62  1  0  0  0
 60131  1  0  0  0
 60132  1  0  0  0
 60133  1  0  0  0
 61134  1  0  0  0
 61135  1  0  0  0
 61136  1  0  0  0
 62137  1  0  0  0
 62138  1  0  0  0
 62139  1  0  0  0
 63 65  1  0  0  0
 63140  1  0  0  0
 63141  1  0  0  0
 63142  1  0  0  0
 64143  1  0  0  0
 65144  1  0  0  0
 68 81  1  0  0  0
 71 73  2  0  0  0
 71 74  1  0  0  0
 71145  1  0  0  0
 72 73  1  0  0  0
 72 75  2  0  0  0
 72146  1  0  0  0
 73 76  1  0  0  0
 74 79  1  0  0  0
 74 84  2  0  0  0
 75 82  1  0  0  0
 75 84  1  0  0  0
 76147  1  0  0  0
 76148  1  0  0  0
 76149  1  0  0  0
 77150  1  0  0  0
 77151  1  0  0  0
 77152  1  0  0  0
 77 82  1  0  0  0
 78153  1  0  0  0
 78154  1  0  0  0
 78155  1  0  0  0
 78 83  1  0  0  0
 79 83  1  0  0  0
 79156  1  0  0  0
 79157  1  0  0  0
 80 82  1  0  0  0
 80 85  1  0  0  0
 80158  1  0  0  0
 80159  1  0  0  0
 81 83  1  0  0  0
 81160  1  0  0  0
 81161  1  0  0  0
 82162  1  0  0  0
 83163  1  0  0  0
 85164  1  0  0  0
M  ISO  4   1 100  68 101  81 101  85 100
M  END
> <chiral flag>
0

> <version>
0

> <s_m_source_file>
/data/baiqing/PycharmProjects/Reinvent-master-3.2/result/LINK_invent/BTK/process_docking_weight1_custom_sum_contain_oxygen_bond_distance_aromatic_linkinvent_7_9_3/rearranged_h_0079.sdf

> <i_m_source_file_index>
18

> <r_mmod_Potential_Energy-OPLS-2005>
47157.5546875

> <r_mmod_Stretch_Energy-OPLS-2005>
25307.283203125

> <r_mmod_Bend_Energy-OPLS-2005>
4325.92529296875

> <r_mmod_Torsional_Energy-OPLS-2005>
500.151947021484

> <r_mmod_Improper_Torsional_Energy-OPLS-2005>
55.469310760498

> <r_mmod_Van_der_Waal_Energy-OPLS-2005>
7305.0595703125

> <r_mmod_Electrostatic_Energy-OPLS-2005>
-434.119110107422

> <r_mmod_Solvation_Energy-OPLS-2005>
-231.998764038086

> <b_mmod_Minimization_Converged-OPLS-2005>
0

> <r_mmod_RMS_Derivative-OPLS-2005>
16.4927043914795

$$$$
18
                    3D
 Structure written by MMmdl.
173182  0  0  1  0            999 V2000
  -30.8607  -14.2599   20.7717 C   0  0  0  0  0  0
  -30.4047  -12.2935   19.3660 C   0  0  0  0  0  0
  -29.4645  -12.5401   18.1779 C   0  0  0  0  0  0
  -27.9994  -12.3781   18.6114 C   0  0  0  0  0  0
  -27.6654  -13.2073   19.8772 C   0  0  2  0  0  0
  -28.7076  -12.9757   20.9952 C   0  0  0  0  0  0
  -25.2600  -13.8171   20.5689 C   0  0  0  0  0  0
  -24.1848  -13.0449   20.9167 C   0  0  0  0  0  0
  -24.6395  -11.6911   20.8728 C   0  0  0  0  0  0
  -23.9057  -10.4298   21.0400 C   0  0  0  0  0  0
  -24.3609   -9.4215   21.9176 C   0  0  0  0  0  0
  -23.6287   -8.2248   22.0753 C   0  0  0  0  0  0
  -22.4271   -8.0278   21.3542 C   0  0  0  0  0  0
  -21.9904   -9.0256   20.4644 C   0  0  0  0  0  0
  -22.7228  -10.2134   20.3051 C   0  0  0  0  0  0
  -21.6852   -6.0734   22.5274 C   0  0  0  0  0  0
  -21.4015   -6.5640   23.8207 C   0  0  0  0  0  0
  -21.3659   -5.6790   24.9171 C   0  0  0  0  0  0
  -21.6047   -4.3056   24.7223 C   0  0  0  0  0  0
  -21.8819   -3.8145   23.4344 C   0  0  0  0  0  0
  -21.9195   -4.6960   22.3401 C   0  0  0  0  0  0
  -22.7868  -13.5244   21.1829 C   0  0  0  0  0  0
  -22.1661   -4.2146   21.0977 F   0  0  0  0  0  0
  -21.5631   -3.4538   25.7739 F   0  0  0  0  0  0
  -30.0578  -13.2172   20.4540 N   0  0  0  0  0  0
  -26.3048  -12.9351   20.3401 N   0  0  0  0  0  0
  -25.9324  -11.6505   20.5778 N   0  0  0  0  0  0
  -22.0514  -12.8237   22.0390 N   0  0  0  0  0  0
  -25.4350  -15.1887   20.4105 N   0  0  0  0  0  0
  -31.7636  -14.6773   20.0394 O   0  0  0  0  0  0
  -21.6636   -6.8873   21.4237 O   0  0  0  0  0  0
  -22.3548  -14.5554   20.6681 O   0  0  0  0  0  0
  -24.6097  -31.8710   23.2128 C   0  0  0  0  0  0
  -25.9011  -32.4819   23.8408 C   0  0  1  0  0  0
  -27.2375  -27.4750   20.0695 C   0  0  0  0  0  0
  -25.5874  -33.8610   24.2347 N   0  0  0  0  0  0
  -23.3941  -30.4966   21.5534 C   0  0  2  0  0  0
  -24.8371  -28.9666   20.1178 C   0  0  0  0  0  0
  -22.7367  -29.4682   22.5017 C   0  0  0  0  0  0
  -18.0244  -28.1366   22.8489 C   0  0  0  0  0  0
  -24.1489  -36.7329   23.2645 C   0  0  0  0  0  0
  -25.9201  -30.8459   21.3616 C   0  0  0  0  0  0
  -25.9955  -29.4833   20.7100 C   0  0  0  0  0  0
  -27.1947  -28.7415   20.6882 C   0  0  0  0  0  0
  -26.0498  -26.9543   19.4989 C   0  0  0  0  0  0
  -24.8571  -27.6978   19.5169 C   0  0  0  0  0  0
  -23.5982  -29.8297   20.1673 C   0  0  0  0  0  0
  -25.4095  -36.3104   24.0354 C   0  0  1  0  0  0
  -20.5834  -28.3647   23.1314 C   0  0  2  0  0  0
  -20.6739  -26.9390   22.5407 C   0  0  0  0  0  0
  -19.5730  -26.6388   21.5186 C   0  0  0  0  0  0
  -18.1905  -26.7915   22.1611 C   0  0  0  0  0  0
  -19.1495  -28.8824   23.2904 C   0  0  0  0  0  0
  -18.9439  -30.1429   23.8922 C   0  0  0  0  0  0
  -17.6445  -30.6580   24.0561 C   0  0  0  0  0  0
  -25.9032  -34.9466   23.5155 C   0  0  0  0  0  0
  -16.5334  -29.9087   23.6328 C   0  0  0  0  0  0
  -16.7239  -28.6496   23.0353 C   0  0  0  0  0  0
  -26.4455  -31.6558   25.0709 C   0  0  0  0  0  0
  -25.3730  -31.3591   26.1456 C   0  0  0  0  0  0
  -27.0302  -30.3016   24.6050 C   0  0  0  0  0  0
  -27.6074  -32.4234   25.7446 C   0  0  0  0  0  0
  -27.5576  -37.1797   24.8463 C   0  0  0  0  0  0
  -21.4099  -29.3030   22.3748 N   0  0  0  0  0  0
  -26.4281  -37.3789   23.9423 N   0  0  0  0  0  0
  -24.6588  -31.0857   22.1001 N   0  0  0  0  0  0
  -23.4156  -28.8219   23.3036 O   0  0  0  0  0  0
  -28.4458  -26.8151   20.0373 O   0  0  0  0  0  0
  -26.5602  -34.8910   22.4717 O   0  0  0  0  0  0
  -23.5303  -32.1451   23.7561 O   0  0  0  0  0  0
  -30.3492  -20.3746   20.5759 C   0  0  0  0  0  0
  -30.4281  -21.3253   19.5443 C   0  0  0  0  0  0
  -30.8983  -17.4832   22.8878 C   0  0  0  0  0  0
  -33.2603  -17.2161   23.2986 C   0  0  0  0  0  0
  -29.8862  -20.7782   21.8462 C   0  0  0  0  0  0
  -32.0157  -16.6363   22.9938 C   0  0  0  0  0  0
  -31.0635  -18.8693   23.0874 C   0  0  0  0  0  0
  -30.0332  -22.6456   19.8077 C   0  0  0  0  0  0
  -29.4719  -22.1212   22.0064 C   0  0  0  0  0  0
  -32.3605  -19.3537   23.3950 C   0  0  0  0  0  0
  -28.9258  -22.6660   23.3144 C   0  0  0  0  0  0
  -33.3670  -21.4872   22.4426 C   0  0  0  0  0  0
  -29.8359  -19.7727   22.9936 C   0  0  0  0  0  0
  -31.9178  -15.1231   22.8426 C   0  0  0  0  0  0
  -30.1282  -23.7024   18.7134 C   0  0  0  0  0  0
  -32.6719  -20.8253   23.6410 C   0  0  0  0  0  0
  -29.9798  -25.1600   19.1967 C   0  0  0  0  0  0
  -28.5123  -25.5760   19.3464 C   0  0  0  0  0  0
  -33.4316  -18.5381   23.4919 N   0  0  0  0  0  0
  -29.5416  -23.0224   21.0076 N   0  0  0  0  0  0
  -30.7899  -14.6099   22.0623 N   0  0  0  0  0  0
  -31.4439  -12.3983   19.0485 H   0  0  0  0  0  0
  -30.3078  -11.2664   19.7215 H   0  0  0  0  0  0
  -29.6927  -11.8473   17.3667 H   0  0  0  0  0  0
  -29.6244  -13.5440   17.7811 H   0  0  0  0  0  0
  -27.8212  -11.3190   18.8024 H   0  0  0  0  0  0
  -27.3327  -12.6572   17.7948 H   0  0  0  0  0  0
  -27.7176  -14.2585   19.5918 H   0  0  0  0  0  0
  -28.6506  -11.9515   21.3673 H   0  0  0  0  0  0
  -28.4690  -13.6211   21.8416 H   0  0  0  0  0  0
  -25.2755   -9.5692   22.4748 H   0  0  0  0  0  0
  -23.9998   -7.4642   22.7474 H   0  0  0  0  0  0
  -21.0831   -8.8766   19.8952 H   0  0  0  0  0  0
  -22.3680  -10.9670   19.6155 H   0  0  0  0  0  0
  -21.2003   -7.6145   23.9707 H   0  0  0  0  0  0
  -21.1484   -6.0522   25.9071 H   0  0  0  0  0  0
  -22.0601   -2.7606   23.2844 H   0  0  0  0  0  0
  -22.4131  -11.9890   22.4768 H   0  0  0  0  0  0
  -21.1133  -13.1265   22.2610 H   0  0  0  0  0  0
  -24.6774  -15.8531   20.5229 H   0  0  0  0  0  0
  -26.3014  -15.6224   20.1162 H   0  0  0  0  0  0
  -26.7074  -32.5557   23.1175 H   0  0  0  0  0  0
  -24.9956  -33.9757   25.0441 H   0  0  0  0  0  0
  -22.6827  -31.3131   21.4165 H   0  0  0  0  0  0
  -23.3730  -35.9683   23.3300 H   0  0  0  0  0  0
  -24.3605  -36.8952   22.2062 H   0  0  0  0  0  0
  -23.7260  -37.6541   23.6665 H   0  0  0  0  0  0
  -26.0295  -31.6119   20.5924 H   0  0  0  0  0  0
  -26.8088  -30.8965   21.9786 H   0  0  0  0  0  0
  -28.0930  -29.1467   21.1324 H   0  0  0  0  0  0
  -26.0182  -25.9819   19.0302 H   0  0  0  0  0  0
  -23.9635  -27.2905   19.0655 H   0  0  0  0  0  0
  -23.7009  -30.6039   19.4055 H   0  0  0  0  0  0
  -22.7230  -29.2464   19.8753 H   0  0  0  0  0  0
  -25.1257  -36.1978   25.0848 H   0  0  0  0  0  0
  -20.9913  -28.3199   24.1440 H   0  0  0  0  0  0
  -20.5606  -26.2257   23.3591 H   0  0  0  0  0  0
  -21.6617  -26.7428   22.1226 H   0  0  0  0  0  0
  -19.6897  -25.6302   21.1211 H   0  0  0  0  0  0
  -19.6669  -27.3199   20.6713 H   0  0  0  0  0  0
  -17.4170  -26.6634   21.4023 H   0  0  0  0  0  0
  -18.0335  -26.0046   22.9001 H   0  0  0  0  0  0
  -19.7921  -30.7214   24.2326 H   0  0  0  0  0  0
  -17.5014  -31.6271   24.5138 H   0  0  0  0  0  0
  -15.5343  -30.2998   23.7654 H   0  0  0  0  0  0
  -15.8629  -28.0826   22.7077 H   0  0  0  0  0  0
  -24.5967  -30.6871   25.7769 H   0  0  0  0  0  0
  -24.8832  -32.2690   26.4925 H   0  0  0  0  0  0
  -25.8101  -30.8756   27.0202 H   0  0  0  0  0  0
  -26.2819  -29.6722   24.1224 H   0  0  0  0  0  0
  -27.4214  -29.7300   25.4477 H   0  0  0  0  0  0
  -27.8584  -30.4360   23.9095 H   0  0  0  0  0  0
  -27.2773  -33.3558   26.2034 H   0  0  0  0  0  0
  -28.3871  -32.6720   25.0232 H   0  0  0  0  0  0
  -28.0747  -31.8315   26.5329 H   0  0  0  0  0  0
  -28.2575  -38.0112   24.7540 H   0  0  0  0  0  0
  -28.1089  -36.2640   24.6248 H   0  0  0  0  0  0
  -27.2314  -37.1408   25.8874 H   0  0  0  0  0  0
  -20.9253  -29.8780   21.7005 H   0  0  0  0  0  0
  -26.0174  -38.2876   24.1405 H   0  0  0  0  0  0
  -30.6592  -19.3550   20.3951 H   0  0  0  0  0  0
  -30.7922  -21.0431   18.5656 H   0  0  0  0  0  0
  -29.9229  -17.0735   22.6678 H   0  0  0  0  0  0
  -34.1443  -16.6046   23.4041 H   0  0  0  0  0  0
  -28.1006  -22.0527   23.6751 H   0  0  0  0  0  0
  -28.5489  -23.6831   23.1947 H   0  0  0  0  0  0
  -29.7033  -22.6899   24.0779 H   0  0  0  0  0  0
  -33.5859  -22.5338   22.6506 H   0  0  0  0  0  0
  -32.7404  -21.4491   21.5526 H   0  0  0  0  0  0
  -34.3083  -20.9892   22.2088 H   0  0  0  0  0  0
  -28.9406  -19.1639   22.8582 H   0  0  0  0  0  0
  -29.7094  -20.2626   23.9581 H   0  0  0  0  0  0
  -31.8445  -14.6976   23.8441 H   0  0  0  0  0  0
  -32.8579  -14.7418   22.4376 H   0  0  0  0  0  0
  -29.3997  -23.4787   17.9332 H   0  0  0  0  0  0
  -31.1085  -23.5912   18.2481 H   0  0  0  0  0  0
  -33.3172  -20.9066   24.5167 H   0  0  0  0  0  0
  -31.7708  -21.3770   23.8980 H   0  0  0  0  0  0
  -30.4383  -25.8246   18.4646 H   0  0  0  0  0  0
  -30.5325  -25.3140   20.1245 H   0  0  0  0  0  0
  -27.9422  -24.8302   19.9014 H   0  0  0  0  0  0
  -28.0803  -25.6613   18.3480 H   0  0  0  0  0  0
  -30.0380  -14.1863   22.5863 H   0  0  0  0  0  0
  1 25  1  0  0  0
  1 30  2  0  0  0
  1 91  1  0  0  0
  2  3  1  0  0  0
  2 25  1  0  0  0
  2 92  1  0  0  0
  2 93  1  0  0  0
  3  4  1  0  0  0
  3 94  1  0  0  0
  3 95  1  0  0  0
  4  5  1  0  0  0
  4 96  1  0  0  0
  4 97  1  0  0  0
  5  6  1  0  0  0
  5 26  1  0  0  0
  5 98  1  0  0  0
  6 25  1  0  0  0
  6 99  1  0  0  0
  6100  1  0  0  0
  7  8  2  0  0  0
  7 26  1  0  0  0
  7 29  1  0  0  0
  8  9  1  0  0  0
  8 22  1  0  0  0
  9 10  1  0  0  0
  9 27  2  0  0  0
 10 11  2  0  0  0
 10 15  1  0  0  0
 11 12  1  0  0  0
 11101  1  0  0  0
 12 13  2  0  0  0
 12102  1  0  0  0
 13 14  1  0  0  0
 13 31  1  0  0  0
 14 15  2  0  0  0
 14103  1  0  0  0
 15104  1  0  0  0
 16 17  2  0  0  0
 16 21  1  0  0  0
 16 31  1  0  0  0
 17 18  1  0  0  0
 17105  1  0  0  0
 18 19  2  0  0  0
 18106  1  0  0  0
 19 20  1  0  0  0
 19 24  1  0  0  0
 20 21  2  0  0  0
 20107  1  0  0  0
 21 23  1  0  0  0
 22 28  1  0  0  0
 22 32  2  0  0  0
 26 27  1  0  0  0
 28108  1  0  0  0
 28109  1  0  0  0
 29110  1  0  0  0
 29111  1  0  0  0
 33 34  1  0  0  0
 33 66  1  0  0  0
 33 70  2  0  0  0
 34 36  1  0  0  0
 34 59  1  0  0  0
 34112  1  0  0  0
 35 44  2  0  0  0
 35 45  1  0  0  0
 35 68  1  0  0  0
 36 56  1  0  0  0
 36113  1  0  0  0
 37 39  1  0  0  0
 37 47  1  0  0  0
 37 66  1  0  0  0
 37114  1  0  0  0
 38 43  2  0  0  0
 38 46  1  0  0  0
 38 47  1  0  0  0
 39 64  1  0  0  0
 39 67  2  0  0  0
 40 52  1  0  0  0
 40 53  2  0  0  0
 40 58  1  0  0  0
 41115  1  0  0  0
 41116  1  0  0  0
 41117  1  0  0  0
 41 48  1  0  0  0
 42 43  1  0  0  0
 42 66  1  0  0  0
 42118  1  0  0  0
 42119  1  0  0  0
 43 44  1  0  0  0
 44120  1  0  0  0
 45 46  2  0  0  0
 45121  1  0  0  0
 46122  1  0  0  0
 47123  1  0  0  0
 47124  1  0  0  0
 48 56  1  0  0  0
 48 65  1  0  0  0
 48125  1  0  0  0
 49 50  1  0  0  0
 49 53  1  0  0  0
 49 64  1  0  0  0
 49126  1  0  0  0
 50 51  1  0  0  0
 50127  1  0  0  0
 50128  1  0  0  0
 51 52  1  0  0  0
 51129  1  0  0  0
 51130  1  0  0  0
 52131  1  0  0  0
 52132  1  0  0  0
 53 54  1  0  0  0
 54 55  2  0  0  0
 54133  1  0  0  0
 55 57  1  0  0  0
 55134  1  0  0  0
 56 69  2  0  0  0
 57 58  2  0  0  0
 57135  1  0  0  0
 58136  1  0  0  0
 59 60  1  0  0  0
 59 61  1  0  0  0
 59 62  1  0  0  0
 60137  1  0  0  0
 60138  1  0  0  0
 60139  1  0  0  0
 61140  1  0  0  0
 61141  1  0  0  0
 61142  1  0  0  0
 62143  1  0  0  0
 62144  1  0  0  0
 62145  1  0  0  0
 63 65  1  0  0  0
 63146  1  0  0  0
 63147  1  0  0  0
 63148  1  0  0  0
 64149  1  0  0  0
 65150  1  0  0  0
 68 88  1  0  0  0
 71 72  2  0  0  0
 71 75  1  0  0  0
 71151  1  0  0  0
 72 78  1  0  0  0
 72152  1  0  0  0
 73 76  2  0  0  0
 73 77  1  0  0  0
 73153  1  0  0  0
 74 76  1  0  0  0
 74 89  2  0  0  0
 74154  1  0  0  0
 75 79  2  0  0  0
 75 83  1  0  0  0
 76 84  1  0  0  0
 77 80  2  0  0  0
 77 83  1  0  0  0
 78 85  1  0  0  0
 78 90  2  0  0  0
 79 81  1  0  0  0
 79 90  1  0  0  0
 80 86  1  0  0  0
 80 89  1  0  0  0
 81155  1  0  0  0
 81156  1  0  0  0
 81157  1  0  0  0
 82 86  1  0  0  0
 82158  1  0  0  0
 82159  1  0  0  0
 82160  1  0  0  0
 83161  1  0  0  0
 83162  1  0  0  0
 84 91  1  0  0  0
 84163  1  0  0  0
 84164  1  0  0  0
 85 87  1  0  0  0
 85165  1  0  0  0
 85166  1  0  0  0
 86167  1  0  0  0
 86168  1  0  0  0
 87 88  1  0  0  0
 87169  1  0  0  0
 87170  1  0  0  0
 88171  1  0  0  0
 88172  1  0  0  0
 91173  1  0  0  0
M  ISO  4   1 100  68 101  88 101  91 100
M  END
> <chiral flag>
0

> <version>
0

> <s_m_source_file>
/data/baiqing/PycharmProjects/Reinvent-master-3.2/result/LINK_invent/BTK/process_docking_weight1_custom_sum_contain_oxygen_bond_distance_aromatic_linkinvent_7_9_3/rearranged_h_0079.sdf

> <i_m_source_file_index>
19

> <r_mmod_Potential_Energy-OPLS-2005>
-375.668914794922

> <r_mmod_Stretch_Energy-OPLS-2005>
32.9576416015625

> <r_mmod_Bend_Energy-OPLS-2005>
95.9239654541016

> <r_mmod_Torsional_Energy-OPLS-2005>
199.37971496582

> <r_mmod_Improper_Torsional_Energy-OPLS-2005>
7.55956077575684

> <r_mmod_Van_der_Waal_Energy-OPLS-2005>
182.114776611328

> <r_mmod_Electrostatic_Energy-OPLS-2005>
-663.67333984375

> <r_mmod_Solvation_Energy-OPLS-2005>
-240.471908569336

> <b_mmod_Minimization_Converged-OPLS-2005>
0

> <r_mmod_RMS_Derivative-OPLS-2005>
1.82808673381805

$$$$
19
                    3D
 Structure written by MMmdl.
163171  0  0  1  0            999 V2000
  -30.7334  -14.4560   20.4948 C   0  0  0  0  0  0
  -30.4036  -12.2756   19.4398 C   0  0  0  0  0  0
  -29.4922  -12.4703   18.2123 C   0  0  0  0  0  0
  -28.0110  -12.3552   18.6220 C   0  0  0  0  0  0
  -27.6534  -13.2140   19.8664 C   0  0  2  0  0  0
  -28.6977  -13.0506   20.9943 C   0  0  0  0  0  0
  -25.2552  -13.8183   20.5685 C   0  0  0  0  0  0
  -24.1815  -13.0449   20.9186 C   0  0  0  0  0  0
  -24.6380  -11.6917   20.8749 C   0  0  0  0  0  0
  -23.9049  -10.4296   21.0413 C   0  0  0  0  0  0
  -24.3603   -9.4211   21.9187 C   0  0  0  0  0  0
  -23.6286   -8.2239   22.0750 C   0  0  0  0  0  0
  -22.4269   -8.0273   21.3539 C   0  0  0  0  0  0
  -21.9904   -9.0251   20.4645 C   0  0  0  0  0  0
  -22.7224  -10.2134   20.3059 C   0  0  0  0  0  0
  -21.6852   -6.0735   22.5278 C   0  0  0  0  0  0
  -21.4016   -6.5637   23.8214 C   0  0  0  0  0  0
  -21.3659   -5.6791   24.9174 C   0  0  0  0  0  0
  -21.6040   -4.3055   24.7227 C   0  0  0  0  0  0
  -21.8820   -3.8144   23.4350 C   0  0  0  0  0  0
  -21.9195   -4.6961   22.3406 C   0  0  0  0  0  0
  -22.7840  -13.5245   21.1845 C   0  0  0  0  0  0
  -22.1660   -4.2148   21.0984 F   0  0  0  0  0  0
  -21.5627   -3.4540   25.7742 F   0  0  0  0  0  0
  -30.0266  -13.3008   20.4230 N   0  0  0  0  0  0
  -26.2987  -12.9362   20.3359 N   0  0  0  0  0  0
  -25.9309  -11.6517   20.5787 N   0  0  0  0  0  0
  -22.0476  -12.8242   22.0402 N   0  0  0  0  0  0
  -25.4253  -15.1905   20.4088 N   0  0  0  0  0  0
  -31.9254  -14.5222   20.1897 O   0  0  0  0  0  0
  -21.6632   -6.8872   21.4238 O   0  0  0  0  0  0
  -22.3532  -14.5556   20.6699 O   0  0  0  0  0  0
  -24.6125  -31.8706   23.2104 C   0  0  0  0  0  0
  -25.9036  -32.4830   23.8394 C   0  0  1  0  0  0
  -27.2274  -27.4498   20.1060 C   0  0  0  0  0  0
  -25.5905  -33.8627   24.2336 N   0  0  0  0  0  0
  -23.3988  -30.4931   21.5512 C   0  0  2  0  0  0
  -24.8446  -28.9578   20.1182 C   0  0  0  0  0  0
  -22.7399  -29.4674   22.5009 C   0  0  0  0  0  0
  -18.0275  -28.1375   22.8499 C   0  0  0  0  0  0
  -24.1488  -36.7317   23.2635 C   0  0  0  0  0  0
  -25.9245  -30.8408   21.3609 C   0  0  0  0  0  0
  -26.0021  -29.4734   20.7158 C   0  0  0  0  0  0
  -27.1990  -28.7254   20.7081 C   0  0  0  0  0  0
  -26.0617  -26.9474   19.4941 C   0  0  0  0  0  0
  -24.8677  -27.6927   19.5044 C   0  0  0  0  0  0
  -23.6061  -29.8229   20.1664 C   0  0  0  0  0  0
  -25.4107  -36.3116   24.0339 C   0  0  1  0  0  0
  -20.5863  -28.3656   23.1330 C   0  0  2  0  0  0
  -20.6764  -26.9398   22.5421 C   0  0  0  0  0  0
  -19.5742  -26.6391   21.5214 C   0  0  0  0  0  0
  -18.1921  -26.7927   22.1625 C   0  0  0  0  0  0
  -19.1522  -28.8834   23.2911 C   0  0  0  0  0  0
  -18.9449  -30.1446   23.8911 C   0  0  0  0  0  0
  -17.6450  -30.6581   24.0566 C   0  0  0  0  0  0
  -25.9032  -34.9479   23.5130 C   0  0  0  0  0  0
  -16.5342  -29.9084   23.6325 C   0  0  0  0  0  0
  -16.7265  -28.6503   23.0344 C   0  0  0  0  0  0
  -26.4467  -31.6595   25.0713 C   0  0  0  0  0  0
  -25.3745  -31.3693   26.1471 C   0  0  0  0  0  0
  -27.0283  -30.3040   24.6055 C   0  0  0  0  0  0
  -27.6055  -32.4299   25.7470 C   0  0  0  0  0  0
  -27.5581  -37.1811   24.8464 C   0  0  0  0  0  0
  -21.4132  -29.3028   22.3742 N   0  0  0  0  0  0
  -26.4295  -37.3800   23.9409 N   0  0  0  0  0  0
  -24.6633  -31.0828   22.0994 N   0  0  0  0  0  0
  -23.4186  -28.8229   23.3047 O   0  0  0  0  0  0
  -28.3939  -26.7275   20.0671 O   0  0  0  0  0  0
  -26.5588  -34.8926   22.4687 O   0  0  0  0  0  0
  -23.5325  -32.1447   23.7520 O   0  0  0  0  0  0
  -30.4099  -19.3752   20.2183 C   0  0  0  0  0  0
  -29.7876  -18.1253   20.4450 C   0  0  0  0  0  0
  -27.8219  -19.2207   20.9654 C   0  0  0  0  0  0
  -28.4346  -20.4757   20.6736 C   0  0  0  0  0  0
  -26.3602  -19.1007   21.3509 C   0  0  0  0  0  0
  -29.2094  -16.5744   17.7817 C   0  0  0  0  0  0
  -27.6516  -21.7834   20.5176 C   0  0  0  0  0  0
  -30.5707  -16.7875   18.4638 C   0  0  0  0  0  0
  -28.3192  -23.0474   21.1166 C   0  0  0  0  0  0
  -27.7926  -24.3507   20.4738 C   0  0  0  0  0  0
  -28.4818  -25.6342   20.9865 C   0  0  0  0  0  0
  -30.5223  -16.8568   20.0175 C   0  0  2  0  0  0
  -29.7367  -20.5420   20.3095 N   0  0  0  0  0  0
  -28.4934  -18.0433   20.8453 N   0  0  0  0  0  0
  -30.0131  -15.5882   20.5758 N   0  0  0  0  0  0
  -31.4526  -12.3344   19.1433 H   0  0  0  0  0  0
  -30.2687  -11.2806   19.8667 H   0  0  0  0  0  0
  -29.7252  -11.7254   17.4504 H   0  0  0  0  0  0
  -29.6816  -13.4421   17.7548 H   0  0  0  0  0  0
  -27.8139  -11.3035   18.8324 H   0  0  0  0  0  0
  -27.3669  -12.6206   17.7831 H   0  0  0  0  0  0
  -27.6778  -14.2531   19.5437 H   0  0  0  0  0  0
  -28.6618  -12.0430   21.4108 H   0  0  0  0  0  0
  -28.4865  -13.7315   21.8206 H   0  0  0  0  0  0
  -25.2743   -9.5694   22.4767 H   0  0  0  0  0  0
  -24.0001   -7.4631   22.7469 H   0  0  0  0  0  0
  -21.0834   -8.8762   19.8955 H   0  0  0  0  0  0
  -22.3671  -10.9670   19.6172 H   0  0  0  0  0  0
  -21.2008   -7.6145   23.9718 H   0  0  0  0  0  0
  -21.1479   -6.0520   25.9079 H   0  0  0  0  0  0
  -22.0600   -2.7607   23.2850 H   0  0  0  0  0  0
  -22.4083  -11.9911   22.4806 H   0  0  0  0  0  0
  -21.1094  -13.1277   22.2598 H   0  0  0  0  0  0
  -24.6575  -15.8431   20.5173 H   0  0  0  0  0  0
  -26.2840  -15.6370   20.1119 H   0  0  0  0  0  0
  -26.7118  -32.5551   23.1173 H   0  0  0  0  0  0
  -25.0075  -33.9790   25.0492 H   0  0  0  0  0  0
  -22.6856  -31.3082   21.4122 H   0  0  0  0  0  0
  -23.3744  -35.9659   23.3310 H   0  0  0  0  0  0
  -24.3581  -36.8915   22.2046 H   0  0  0  0  0  0
  -23.7247  -37.6531   23.6634 H   0  0  0  0  0  0
  -26.0310  -31.6039   20.5886 H   0  0  0  0  0  0
  -26.8156  -30.8991   21.9743 H   0  0  0  0  0  0
  -28.0970  -29.1220   21.1614 H   0  0  0  0  0  0
  -26.0751  -25.9867   18.9999 H   0  0  0  0  0  0
  -23.9810  -27.2925   19.0324 H   0  0  0  0  0  0
  -23.7138  -30.5950   19.4037 H   0  0  0  0  0  0
  -22.7304  -29.2412   19.8734 H   0  0  0  0  0  0
  -25.1284  -36.1983   25.0834 H   0  0  0  0  0  0
  -20.9951  -28.3219   24.1452 H   0  0  0  0  0  0
  -20.5670  -26.2262   23.3602 H   0  0  0  0  0  0
  -21.6638  -26.7450   22.1212 H   0  0  0  0  0  0
  -19.6897  -25.6308   21.1230 H   0  0  0  0  0  0
  -19.6679  -27.3212   20.6752 H   0  0  0  0  0  0
  -17.4195  -26.6690   21.4022 H   0  0  0  0  0  0
  -18.0309  -26.0060   22.9008 H   0  0  0  0  0  0
  -19.7921  -30.7264   24.2278 H   0  0  0  0  0  0
  -17.5002  -31.6260   24.5171 H   0  0  0  0  0  0
  -15.5342  -30.2987   23.7639 H   0  0  0  0  0  0
  -15.8666  -28.0828   22.7040 H   0  0  0  0  0  0
  -24.5935  -30.7014   25.7817 H   0  0  0  0  0  0
  -24.8916  -32.2841   26.4914 H   0  0  0  0  0  0
  -25.8120  -30.8881   27.0228 H   0  0  0  0  0  0
  -26.2808  -29.6819   24.1119 H   0  0  0  0  0  0
  -27.4073  -29.7252   25.4487 H   0  0  0  0  0  0
  -27.8634  -30.4361   23.9173 H   0  0  0  0  0  0
  -27.2687  -33.3590   26.2076 H   0  0  0  0  0  0
  -28.3846  -32.6867   25.0283 H   0  0  0  0  0  0
  -28.0740  -31.8405   26.5361 H   0  0  0  0  0  0
  -28.2609  -38.0098   24.7507 H   0  0  0  0  0  0
  -28.1066  -36.2630   24.6296 H   0  0  0  0  0  0
  -27.2299  -37.1473   25.8867 H   0  0  0  0  0  0
  -20.9290  -29.8741   21.6960 H   0  0  0  0  0  0
  -26.0186  -38.2883   24.1404 H   0  0  0  0  0  0
  -31.4307  -19.4328   19.8686 H   0  0  0  0  0  0
  -26.1378  -19.7405   22.2049 H   0  0  0  0  0  0
  -26.1004  -18.0786   21.6265 H   0  0  0  0  0  0
  -25.7226  -19.3975   20.5185 H   0  0  0  0  0  0
  -29.3215  -16.5641   16.6973 H   0  0  0  0  0  0
  -28.5054  -17.3684   18.0308 H   0  0  0  0  0  0
  -28.7596  -15.6268   18.0696 H   0  0  0  0  0  0
  -26.6486  -21.6886   20.9317 H   0  0  0  0  0  0
  -27.5095  -21.9215   19.4452 H   0  0  0  0  0  0
  -31.0190  -17.7020   18.0739 H   0  0  0  0  0  0
  -31.2442  -15.9934   18.1422 H   0  0  0  0  0  0
  -29.3941  -23.0171   20.9382 H   0  0  0  0  0  0
  -28.1927  -23.0626   22.1994 H   0  0  0  0  0  0
  -26.7158  -24.4236   20.6282 H   0  0  0  0  0  0
  -27.9463  -24.2873   19.3959 H   0  0  0  0  0  0
  -29.5457  -25.4396   21.1253 H   0  0  0  0  0  0
  -28.0963  -25.9156   21.9685 H   0  0  0  0  0  0
  -31.5440  -16.9934   20.3804 H   0  0  0  0  0  0
  -29.0307  -15.5438   20.7971 H   0  0  0  0  0  0
  1 25  1  0  0  0
  1 30  2  0  0  0
  1 85  1  0  0  0
  2  3  1  0  0  0
  2 25  1  0  0  0
  2 86  1  0  0  0
  2 87  1  0  0  0
  3  4  1  0  0  0
  3 88  1  0  0  0
  3 89  1  0  0  0
  4  5  1  0  0  0
  4 90  1  0  0  0
  4 91  1  0  0  0
  5  6  1  0  0  0
  5 26  1  0  0  0
  5 92  1  0  0  0
  6 25  1  0  0  0
  6 93  1  0  0  0
  6 94  1  0  0  0
  7  8  2  0  0  0
  7 26  1  0  0  0
  7 29  1  0  0  0
  8  9  1  0  0  0
  8 22  1  0  0  0
  9 10  1  0  0  0
  9 27  2  0  0  0
 10 11  2  0  0  0
 10 15  1  0  0  0
 11 12  1  0  0  0
 11 95  1  0  0  0
 12 13  2  0  0  0
 12 96  1  0  0  0
 13 14  1  0  0  0
 13 31  1  0  0  0
 14 15  2  0  0  0
 14 97  1  0  0  0
 15 98  1  0  0  0
 16 17  2  0  0  0
 16 21  1  0  0  0
 16 31  1  0  0  0
 17 18  1  0  0  0
 17 99  1  0  0  0
 18 19  2  0  0  0
 18100  1  0  0  0
 19 20  1  0  0  0
 19 24  1  0  0  0
 20 21  2  0  0  0
 20101  1  0  0  0
 21 23  1  0  0  0
 22 28  1  0  0  0
 22 32  2  0  0  0
 26 27  1  0  0  0
 28102  1  0  0  0
 28103  1  0  0  0
 29104  1  0  0  0
 29105  1  0  0  0
 33 34  1  0  0  0
 33 66  1  0  0  0
 33 70  2  0  0  0
 34 36  1  0  0  0
 34 59  1  0  0  0
 34106  1  0  0  0
 35 44  2  0  0  0
 35 45  1  0  0  0
 35 68  1  0  0  0
 36 56  1  0  0  0
 36107  1  0  0  0
 37 39  1  0  0  0
 37 47  1  0  0  0
 37 66  1  0  0  0
 37108  1  0  0  0
 38 43  2  0  0  0
 38 46  1  0  0  0
 38 47  1  0  0  0
 39 64  1  0  0  0
 39 67  2  0  0  0
 40 52  1  0  0  0
 40 53  2  0  0  0
 40 58  1  0  0  0
 41109  1  0  0  0
 41110  1  0  0  0
 41111  1  0  0  0
 41 48  1  0  0  0
 42 43  1  0  0  0
 42 66  1  0  0  0
 42112  1  0  0  0
 42113  1  0  0  0
 43 44  1  0  0  0
 44114  1  0  0  0
 45 46  2  0  0  0
 45115  1  0  0  0
 46116  1  0  0  0
 47117  1  0  0  0
 47118  1  0  0  0
 48 56  1  0  0  0
 48 65  1  0  0  0
 48119  1  0  0  0
 49 50  1  0  0  0
 49 53  1  0  0  0
 49 64  1  0  0  0
 49120  1  0  0  0
 50 51  1  0  0  0
 50121  1  0  0  0
 50122  1  0  0  0
 51 52  1  0  0  0
 51123  1  0  0  0
 51124  1  0  0  0
 52125  1  0  0  0
 52126  1  0  0  0
 53 54  1  0  0  0
 54 55  2  0  0  0
 54127  1  0  0  0
 55 57  1  0  0  0
 55128  1  0  0  0
 56 69  2  0  0  0
 57 58  2  0  0  0
 57129  1  0  0  0
 58130  1  0  0  0
 59 60  1  0  0  0
 59 61  1  0  0  0
 59 62  1  0  0  0
 60131  1  0  0  0
 60132  1  0  0  0
 60133  1  0  0  0
 61134  1  0  0  0
 61135  1  0  0  0
 61136  1  0  0  0
 62137  1  0  0  0
 62138  1  0  0  0
 62139  1  0  0  0
 63 65  1  0  0  0
 63140  1  0  0  0
 63141  1  0  0  0
 63142  1  0  0  0
 64143  1  0  0  0
 65144  1  0  0  0
 68 81  1  0  0  0
 71 72  2  0  0  0
 71 83  1  0  0  0
 71145  1  0  0  0
 72 82  1  0  0  0
 72 84  1  0  0  0
 73 74  1  0  0  0
 73 75  1  0  0  0
 73 84  2  0  0  0
 74 77  1  0  0  0
 74 83  2  0  0  0
 75146  1  0  0  0
 75147  1  0  0  0
 75148  1  0  0  0
 76 78  1  0  0  0
 76149  1  0  0  0
 76150  1  0  0  0
 76151  1  0  0  0
 77 79  1  0  0  0
 77152  1  0  0  0
 77153  1  0  0  0
 78154  1  0  0  0
 78155  1  0  0  0
 78 82  1  0  0  0
 79 80  1  0  0  0
 79156  1  0  0  0
 79157  1  0  0  0
 80 81  1  0  0  0
 80158  1  0  0  0
 80159  1  0  0  0
 81160  1  0  0  0
 81161  1  0  0  0
 82 85  1  0  0  0
 82162  1  0  0  0
 85163  1  0  0  0
M  ISO  4   1 100  68 101  81 101  85 100
M  END
> <chiral flag>
0

> <version>
0

> <s_m_source_file>
/data/baiqing/PycharmProjects/Reinvent-master-3.2/result/LINK_invent/BTK/process_docking_weight1_custom_sum_contain_oxygen_bond_distance_aromatic_linkinvent_7_9_3/rearranged_h_0079.sdf

> <i_m_source_file_index>
20

> <r_mmod_Potential_Energy-OPLS-2005>
-33.5665245056152

> <r_mmod_Stretch_Energy-OPLS-2005>
36.8548469543457

> <r_mmod_Bend_Energy-OPLS-2005>
97.4525833129883

> <r_mmod_Torsional_Energy-OPLS-2005>
237.915374755859

> <r_mmod_Improper_Torsional_Energy-OPLS-2005>
11.4528331756592

> <r_mmod_Van_der_Waal_Energy-OPLS-2005>
153.425964355469

> <r_mmod_Electrostatic_Energy-OPLS-2005>
-387.373077392578

> <r_mmod_Solvation_Energy-OPLS-2005>
-202.798889160156

> <b_mmod_Minimization_Converged-OPLS-2005>
0

> <r_mmod_RMS_Derivative-OPLS-2005>
0.959040105342865

$$$$
20
                    3D
 Structure written by MMmdl.
172180  0  0  1  0            999 V2000
  -30.7370  -14.4304   20.6406 C   0  0  0  0  0  0
  -30.4218  -12.3109   19.4101 C   0  0  0  0  0  0
  -29.4914  -12.5175   18.1992 C   0  0  0  0  0  0
  -28.0145  -12.3678   18.6159 C   0  0  0  0  0  0
  -27.6625  -13.2053   19.8741 C   0  0  2  0  0  0
  -28.7029  -12.9761   20.9930 C   0  0  0  0  0  0
  -25.2594  -13.8174   20.5684 C   0  0  0  0  0  0
  -24.1840  -13.0457   20.9187 C   0  0  0  0  0  0
  -24.6393  -11.6920   20.8744 C   0  0  0  0  0  0
  -23.9064  -10.4306   21.0424 C   0  0  0  0  0  0
  -24.3623   -9.4224   21.9195 C   0  0  0  0  0  0
  -23.6307   -8.2253   22.0755 C   0  0  0  0  0  0
  -22.4283   -8.0289   21.3543 C   0  0  0  0  0  0
  -21.9925   -9.0266   20.4653 C   0  0  0  0  0  0
  -22.7244  -10.2152   20.3066 C   0  0  0  0  0  0
  -21.6851   -6.0751   22.5284 C   0  0  0  0  0  0
  -21.4011   -6.5648   23.8219 C   0  0  0  0  0  0
  -21.3654   -5.6791   24.9184 C   0  0  0  0  0  0
  -21.6047   -4.3057   24.7219 C   0  0  0  0  0  0
  -21.8819   -3.8153   23.4335 C   0  0  0  0  0  0
  -21.9190   -4.6979   22.3399 C   0  0  0  0  0  0
  -22.7858  -13.5264   21.1844 C   0  0  0  0  0  0
  -22.1656   -4.2177   21.0972 F   0  0  0  0  0  0
  -21.5639   -3.4528   25.7722 F   0  0  0  0  0  0
  -30.0366  -13.2815   20.4451 N   0  0  0  0  0  0
  -26.3024  -12.9337   20.3354 N   0  0  0  0  0  0
  -25.9316  -11.6501   20.5761 N   0  0  0  0  0  0
  -22.0486  -12.8259   22.0402 N   0  0  0  0  0  0
  -25.4343  -15.1898   20.4125 N   0  0  0  0  0  0
  -31.8229  -14.6561   20.1009 O   0  0  0  0  0  0
  -21.6636   -6.8889   21.4246 O   0  0  0  0  0  0
  -22.3549  -14.5552   20.6670 O   0  0  0  0  0  0
  -24.6144  -31.8674   23.2096 C   0  0  0  0  0  0
  -25.9042  -32.4822   23.8389 C   0  0  1  0  0  0
  -27.2365  -27.4277   20.0869 C   0  0  0  0  0  0
  -25.5893  -33.8617   24.2318 N   0  0  0  0  0  0
  -23.4016  -30.4916   21.5505 C   0  0  2  0  0  0
  -24.8459  -28.9548   20.1160 C   0  0  0  0  0  0
  -22.7405  -29.4660   22.4988 C   0  0  0  0  0  0
  -18.0266  -28.1379   22.8495 C   0  0  0  0  0  0
  -24.1483  -36.7315   23.2640 C   0  0  0  0  0  0
  -25.9311  -30.8290   21.3645 C   0  0  0  0  0  0
  -26.0054  -29.4622   20.7126 C   0  0  0  0  0  0
  -27.1984  -28.7032   20.6990 C   0  0  0  0  0  0
  -26.0516  -26.9359   19.4882 C   0  0  0  0  0  0
  -24.8634  -27.6898   19.5045 C   0  0  0  0  0  0
  -23.6097  -29.8235   20.1648 C   0  0  0  0  0  0
  -25.4106  -36.3112   24.0338 C   0  0  1  0  0  0
  -20.5859  -28.3663   23.1318 C   0  0  2  0  0  0
  -20.6754  -26.9402   22.5416 C   0  0  0  0  0  0
  -19.5732  -26.6384   21.5212 C   0  0  0  0  0  0
  -18.1913  -26.7925   22.1628 C   0  0  0  0  0  0
  -19.1518  -28.8836   23.2905 C   0  0  0  0  0  0
  -18.9451  -30.1440   23.8909 C   0  0  0  0  0  0
  -17.6455  -30.6589   24.0565 C   0  0  0  0  0  0
  -25.9034  -34.9479   23.5131 C   0  0  0  0  0  0
  -16.5344  -29.9095   23.6326 C   0  0  0  0  0  0
  -16.7258  -28.6510   23.0348 C   0  0  0  0  0  0
  -26.4466  -31.6602   25.0718 C   0  0  0  0  0  0
  -25.3741  -31.3712   26.1479 C   0  0  0  0  0  0
  -27.0291  -30.3044   24.6090 C   0  0  0  0  0  0
  -27.6040  -32.4323   25.7477 C   0  0  0  0  0  0
  -27.5582  -37.1810   24.8467 C   0  0  0  0  0  0
  -21.4133  -29.3035   22.3729 N   0  0  0  0  0  0
  -26.4293  -37.3797   23.9414 N   0  0  0  0  0  0
  -24.6674  -31.0777   22.1000 N   0  0  0  0  0  0
  -23.4181  -28.8205   23.3031 O   0  0  0  0  0  0
  -28.4294  -26.7252   20.1130 O   0  0  0  0  0  0
  -26.5602  -34.8933   22.4696 O   0  0  0  0  0  0
  -23.5335  -32.1430   23.7484 O   0  0  0  0  0  0
  -30.2142  -20.9641   20.1288 C   0  0  0  0  0  0
  -29.5910  -22.1377   19.6689 C   0  0  0  0  0  0
  -29.5160  -19.7476   19.9868 C   0  0  0  0  0  0
  -27.7624  -20.9071   19.0632 C   0  0  0  0  0  0
  -26.3818  -20.8779   18.4440 C   0  0  0  0  0  0
  -31.5900  -18.3291   19.7029 C   0  0  0  0  0  0
  -28.7501  -25.5703   18.0235 C   0  0  0  0  0  0
  -30.6565  -18.9098   22.7442 C   0  0  0  0  0  0
  -28.5564  -17.6979   22.1630 C   0  0  0  0  0  0
  -30.3511  -23.4588   19.5795 C   0  0  0  0  0  0
  -29.7201  -24.7049   20.2570 C   0  0  0  0  0  0
  -30.7833  -16.5199   22.0386 C   0  0  0  0  0  0
  -30.1589  -18.3733   20.2855 C   0  0  1  0  0  0
  -28.5377  -25.4089   19.5395 C   0  0  1  0  0  0
  -30.0424  -17.8733   21.7768 C   0  0  0  0  0  0
  -28.3598  -22.0917   19.1311 N   0  0  0  0  0  0
  -28.2769  -19.7444   19.4539 N   0  0  0  0  0  0
  -30.1566  -15.3253   21.4565 N   0  0  0  0  0  0
  -31.4666  -12.4112   19.1080 H   0  0  0  0  0  0
  -30.3240  -11.2964   19.7975 H   0  0  0  0  0  0
  -29.7373  -11.8027   17.4136 H   0  0  0  0  0  0
  -29.6549  -13.5090   17.7744 H   0  0  0  0  0  0
  -27.8346  -11.3099   18.8159 H   0  0  0  0  0  0
  -27.3570  -12.6375   17.7881 H   0  0  0  0  0  0
  -27.7119  -14.2553   19.5825 H   0  0  0  0  0  0
  -28.6824  -11.9371   21.3254 H   0  0  0  0  0  0
  -28.4500  -13.5613   21.8780 H   0  0  0  0  0  0
  -25.2796   -9.5693   22.4744 H   0  0  0  0  0  0
  -24.0032   -7.4643   22.7465 H   0  0  0  0  0  0
  -21.0860   -8.8783   19.8952 H   0  0  0  0  0  0
  -22.3723  -10.9685   19.6152 H   0  0  0  0  0  0
  -21.1993   -7.6152   23.9739 H   0  0  0  0  0  0
  -21.1477   -6.0511   25.9089 H   0  0  0  0  0  0
  -22.0598   -2.7618   23.2816 H   0  0  0  0  0  0
  -22.4081  -11.9927   22.4815 H   0  0  0  0  0  0
  -21.1098  -13.1296   22.2572 H   0  0  0  0  0  0
  -24.6766  -15.8509   20.5398 H   0  0  0  0  0  0
  -26.2946  -15.6285   20.1093 H   0  0  0  0  0  0
  -26.7108  -32.5528   23.1147 H   0  0  0  0  0  0
  -25.0041  -33.9779   25.0460 H   0  0  0  0  0  0
  -22.6910  -31.3086   21.4107 H   0  0  0  0  0  0
  -23.3745  -35.9650   23.3311 H   0  0  0  0  0  0
  -24.3575  -36.8918   22.2053 H   0  0  0  0  0  0
  -23.7234  -37.6522   23.6646 H   0  0  0  0  0  0
  -26.0456  -31.5925   20.5937 H   0  0  0  0  0  0
  -26.8189  -30.8811   21.9831 H   0  0  0  0  0  0
  -28.0944  -29.0928   21.1623 H   0  0  0  0  0  0
  -26.0183  -25.9747   18.9979 H   0  0  0  0  0  0
  -23.9698  -27.2930   19.0419 H   0  0  0  0  0  0
  -23.7214  -30.5968   19.4036 H   0  0  0  0  0  0
  -22.7332  -29.2440   19.8687 H   0  0  0  0  0  0
  -25.1281  -36.1979   25.0830 H   0  0  0  0  0  0
  -20.9955  -28.3228   24.1439 H   0  0  0  0  0  0
  -20.5654  -26.2277   23.3605 H   0  0  0  0  0  0
  -21.6627  -26.7442   22.1216 H   0  0  0  0  0  0
  -19.6899  -25.6300   21.1232 H   0  0  0  0  0  0
  -19.6676  -27.3198   20.6744 H   0  0  0  0  0  0
  -17.4192  -26.6676   21.4024 H   0  0  0  0  0  0
  -18.0314  -26.0056   22.9012 H   0  0  0  0  0  0
  -19.7930  -30.7241   24.2293 H   0  0  0  0  0  0
  -17.5019  -31.6273   24.5164 H   0  0  0  0  0  0
  -15.5346  -30.3007   23.7633 H   0  0  0  0  0  0
  -15.8659  -28.0831   22.7058 H   0  0  0  0  0  0
  -24.5893  -30.7080   25.7822 H   0  0  0  0  0  0
  -24.8963  -32.2875   26.4955 H   0  0  0  0  0  0
  -25.8106  -30.8859   27.0221 H   0  0  0  0  0  0
  -26.2826  -29.6813   24.1151 H   0  0  0  0  0  0
  -27.4067  -29.7268   25.4536 H   0  0  0  0  0  0
  -27.8659  -30.4356   23.9228 H   0  0  0  0  0  0
  -27.2652  -33.3605   26.2089 H   0  0  0  0  0  0
  -28.3830  -32.6917   25.0298 H   0  0  0  0  0  0
  -28.0737  -31.8437   26.5367 H   0  0  0  0  0  0
  -28.2608  -38.0099   24.7514 H   0  0  0  0  0  0
  -28.1066  -36.2632   24.6288 H   0  0  0  0  0  0
  -27.2306  -37.1462   25.8871 H   0  0  0  0  0  0
  -20.9292  -29.8782   21.6970 H   0  0  0  0  0  0
  -26.0184  -38.2878   24.1408 H   0  0  0  0  0  0
  -31.2226  -20.9874   20.5193 H   0  0  0  0  0  0
  -26.2620  -21.6816   17.7177 H   0  0  0  0  0  0
  -25.6204  -20.9981   19.2136 H   0  0  0  0  0  0
  -26.2046  -19.9364   17.9244 H   0  0  0  0  0  0
  -31.5905  -18.6845   18.6723 H   0  0  0  0  0  0
  -31.9970  -17.3198   19.6809 H   0  0  0  0  0  0
  -32.2837  -18.9529   20.2649 H   0  0  0  0  0  0
  -28.7305  -24.6058   17.5161 H   0  0  0  0  0  0
  -29.7049  -26.0481   17.8038 H   0  0  0  0  0  0
  -27.9697  -26.1781   17.5684 H   0  0  0  0  0  0
  -30.5915  -18.5786   23.7811 H   0  0  0  0  0  0
  -30.1450  -19.8711   22.6934 H   0  0  0  0  0  0
  -31.7104  -19.0856   22.5303 H   0  0  0  0  0  0
  -28.4522  -17.2782   23.1639 H   0  0  0  0  0  0
  -28.0338  -17.0348   21.4721 H   0  0  0  0  0  0
  -28.0246  -18.6493   22.1602 H   0  0  0  0  0  0
  -30.5835  -23.6595   18.5347 H   0  0  0  0  0  0
  -31.3226  -23.2962   20.0474 H   0  0  0  0  0  0
  -30.5217  -25.4395   20.3416 H   0  0  0  0  0  0
  -29.4402  -24.4617   21.2814 H   0  0  0  0  0  0
  -30.7986  -16.3335   23.1140 H   0  0  0  0  0  0
  -31.8374  -16.5893   21.7711 H   0  0  0  0  0  0
  -29.6024  -17.6516   19.6856 H   0  0  0  0  0  0
  -27.6457  -24.8145   19.7348 H   0  0  0  0  0  0
  -29.2537  -15.0649   21.8229 H   0  0  0  0  0  0
  1 25  1  0  0  0
  1 30  2  0  0  0
  1 88  1  0  0  0
  2  3  1  0  0  0
  2 25  1  0  0  0
  2 89  1  0  0  0
  2 90  1  0  0  0
  3  4  1  0  0  0
  3 91  1  0  0  0
  3 92  1  0  0  0
  4  5  1  0  0  0
  4 93  1  0  0  0
  4 94  1  0  0  0
  5  6  1  0  0  0
  5 26  1  0  0  0
  5 95  1  0  0  0
  6 25  1  0  0  0
  6 96  1  0  0  0
  6 97  1  0  0  0
  7  8  2  0  0  0
  7 26  1  0  0  0
  7 29  1  0  0  0
  8  9  1  0  0  0
  8 22  1  0  0  0
  9 10  1  0  0  0
  9 27  2  0  0  0
 10 11  2  0  0  0
 10 15  1  0  0  0
 11 12  1  0  0  0
 11 98  1  0  0  0
 12 13  2  0  0  0
 12 99  1  0  0  0
 13 14  1  0  0  0
 13 31  1  0  0  0
 14 15  2  0  0  0
 14100  1  0  0  0
 15101  1  0  0  0
 16 17  2  0  0  0
 16 21  1  0  0  0
 16 31  1  0  0  0
 17 18  1  0  0  0
 17102  1  0  0  0
 18 19  2  0  0  0
 18103  1  0  0  0
 19 20  1  0  0  0
 19 24  1  0  0  0
 20 21  2  0  0  0
 20104  1  0  0  0
 21 23  1  0  0  0
 22 28  1  0  0  0
 22 32  2  0  0  0
 26 27  1  0  0  0
 28105  1  0  0  0
 28106  1  0  0  0
 29107  1  0  0  0
 29108  1  0  0  0
 33 34  1  0  0  0
 33 66  1  0  0  0
 33 70  2  0  0  0
 34 36  1  0  0  0
 34 59  1  0  0  0
 34109  1  0  0  0
 35 44  2  0  0  0
 35 45  1  0  0  0
 35 68  1  0  0  0
 36 56  1  0  0  0
 36110  1  0  0  0
 37 39  1  0  0  0
 37 47  1  0  0  0
 37 66  1  0  0  0
 37111  1  0  0  0
 38 43  2  0  0  0
 38 46  1  0  0  0
 38 47  1  0  0  0
 39 64  1  0  0  0
 39 67  2  0  0  0
 40 52  1  0  0  0
 40 53  2  0  0  0
 40 58  1  0  0  0
 41112  1  0  0  0
 41113  1  0  0  0
 41114  1  0  0  0
 41 48  1  0  0  0
 42 43  1  0  0  0
 42 66  1  0  0  0
 42115  1  0  0  0
 42116  1  0  0  0
 43 44  1  0  0  0
 44117  1  0  0  0
 45 46  2  0  0  0
 45118  1  0  0  0
 46119  1  0  0  0
 47120  1  0  0  0
 47121  1  0  0  0
 48 56  1  0  0  0
 48 65  1  0  0  0
 48122  1  0  0  0
 49 50  1  0  0  0
 49 53  1  0  0  0
 49 64  1  0  0  0
 49123  1  0  0  0
 50 51  1  0  0  0
 50124  1  0  0  0
 50125  1  0  0  0
 51 52  1  0  0  0
 51126  1  0  0  0
 51127  1  0  0  0
 52128  1  0  0  0
 52129  1  0  0  0
 53 54  1  0  0  0
 54 55  2  0  0  0
 54130  1  0  0  0
 55 57  1  0  0  0
 55131  1  0  0  0
 56 69  2  0  0  0
 57 58  2  0  0  0
 57132  1  0  0  0
 58133  1  0  0  0
 59 60  1  0  0  0
 59 61  1  0  0  0
 59 62  1  0  0  0
 60134  1  0  0  0
 60135  1  0  0  0
 60136  1  0  0  0
 61137  1  0  0  0
 61138  1  0  0  0
 61139  1  0  0  0
 62140  1  0  0  0
 62141  1  0  0  0
 62142  1  0  0  0
 63 65  1  0  0  0
 63143  1  0  0  0
 63144  1  0  0  0
 63145  1  0  0  0
 64146  1  0  0  0
 65147  1  0  0  0
 68 84  1  0  0  0
 71 72  2  0  0  0
 71 73  1  0  0  0
 71148  1  0  0  0
 72 80  1  0  0  0
 72 86  1  0  0  0
 73 83  1  0  0  0
 73 87  2  0  0  0
 74 75  1  0  0  0
 74 86  2  0  0  0
 74 87  1  0  0  0
 75149  1  0  0  0
 75150  1  0  0  0
 75151  1  0  0  0
 76152  1  0  0  0
 76153  1  0  0  0
 76154  1  0  0  0
 76 83  1  0  0  0
 77155  1  0  0  0
 77156  1  0  0  0
 77157  1  0  0  0
 77 84  1  0  0  0
 78158  1  0  0  0
 78159  1  0  0  0
 78160  1  0  0  0
 78 85  1  0  0  0
 79 85  1  0  0  0
 79161  1  0  0  0
 79162  1  0  0  0
 79163  1  0  0  0
 80 81  1  0  0  0
 80164  1  0  0  0
 80165  1  0  0  0
 81 84  1  0  0  0
 81166  1  0  0  0
 81167  1  0  0  0
 82 85  1  0  0  0
 82 88  1  0  0  0
 82168  1  0  0  0
 82169  1  0  0  0
 83 85  1  0  0  0
 83170  1  0  0  0
 84171  1  0  0  0
 88172  1  0  0  0
M  ISO  4   1 100  68 101  84 101  88 100
M  END
> <chiral flag>
0

> <version>
0

> <s_m_source_file>
/data/baiqing/PycharmProjects/Reinvent-master-3.2/result/LINK_invent/BTK/process_docking_weight1_custom_sum_contain_oxygen_bond_distance_aromatic_linkinvent_7_9_3/rearranged_h_0079.sdf

> <i_m_source_file_index>
21

> <r_mmod_Potential_Energy-OPLS-2005>
-525.593566894531

> <r_mmod_Stretch_Energy-OPLS-2005>
41.0586013793945

> <r_mmod_Bend_Energy-OPLS-2005>
124.690704345703

> <r_mmod_Torsional_Energy-OPLS-2005>
206.056625366211

> <r_mmod_Improper_Torsional_Energy-OPLS-2005>
3.02441763877869

> <r_mmod_Van_der_Waal_Energy-OPLS-2005>
162.121017456055

> <r_mmod_Electrostatic_Energy-OPLS-2005>
-861.712219238281

> <r_mmod_Solvation_Energy-OPLS-2005>
-211.619445800781

> <b_mmod_Minimization_Converged-OPLS-2005>
0

> <r_mmod_RMS_Derivative-OPLS-2005>
1.85035932064056

$$$$
21
                    3D
 Structure written by MMmdl.
163171  0  0  1  0            999 V2000
  -30.6451  -14.5539   20.5235 C   0  0  0  0  0  0
  -30.4311  -12.3408   19.4418 C   0  0  0  0  0  0
  -29.5028  -12.4981   18.2173 C   0  0  0  0  0  0
  -28.0219  -12.3566   18.6247 C   0  0  0  0  0  0
  -27.6575  -13.2088   19.8702 C   0  0  2  0  0  0
  -28.6992  -13.0201   20.9962 C   0  0  0  0  0  0
  -25.2583  -13.8158   20.5691 C   0  0  0  0  0  0
  -24.1838  -13.0443   20.9196 C   0  0  0  0  0  0
  -24.6387  -11.6910   20.8742 C   0  0  0  0  0  0
  -23.9045  -10.4298   21.0406 C   0  0  0  0  0  0
  -24.3602   -9.4212   21.9184 C   0  0  0  0  0  0
  -23.6290   -8.2244   22.0751 C   0  0  0  0  0  0
  -22.4273   -8.0277   21.3542 C   0  0  0  0  0  0
  -21.9898   -9.0243   20.4643 C   0  0  0  0  0  0
  -22.7220  -10.2130   20.3055 C   0  0  0  0  0  0
  -21.6849   -6.0734   22.5279 C   0  0  0  0  0  0
  -21.4013   -6.5634   23.8215 C   0  0  0  0  0  0
  -21.3658   -5.6786   24.9173 C   0  0  0  0  0  0
  -21.6045   -4.3050   24.7222 C   0  0  0  0  0  0
  -21.8823   -3.8145   23.4342 C   0  0  0  0  0  0
  -21.9196   -4.6963   22.3399 C   0  0  0  0  0  0
  -22.7865  -13.5254   21.1842 C   0  0  0  0  0  0
  -22.1669   -4.2153   21.0979 F   0  0  0  0  0  0
  -21.5621   -3.4526   25.7730 F   0  0  0  0  0  0
  -30.0226  -13.3435   20.4407 N   0  0  0  0  0  0
  -26.3006  -12.9322   20.3339 N   0  0  0  0  0  0
  -25.9310  -11.6489   20.5767 N   0  0  0  0  0  0
  -22.0486  -12.8267   22.0393 N   0  0  0  0  0  0
  -25.4308  -15.1869   20.4087 N   0  0  0  0  0  0
  -31.7951  -14.7362   20.1124 O   0  0  0  0  0  0
  -21.6641   -6.8872   21.4245 O   0  0  0  0  0  0
  -22.3565  -14.5557   20.6666 O   0  0  0  0  0  0
  -24.6197  -31.8632   23.2038 C   0  0  0  0  0  0
  -25.9058  -32.4802   23.8369 C   0  0  1  0  0  0
  -27.2328  -27.3796   20.1216 C   0  0  0  0  0  0
  -25.5894  -33.8607   24.2290 N   0  0  0  0  0  0
  -23.4110  -30.4834   21.5459 C   0  0  2  0  0  0
  -24.8567  -28.9305   20.1255 C   0  0  0  0  0  0
  -22.7428  -29.4641   22.4973 C   0  0  0  0  0  0
  -18.0265  -28.1382   22.8484 C   0  0  0  0  0  0
  -24.1473  -36.7319   23.2642 C   0  0  0  0  0  0
  -25.9432  -30.8119   21.3627 C   0  0  0  0  0  0
  -26.0196  -29.4370   20.7215 C   0  0  0  0  0  0
  -27.2122  -28.6698   20.7139 C   0  0  0  0  0  0
  -26.0536  -26.8941   19.5228 C   0  0  0  0  0  0
  -24.8691  -27.6584   19.5244 C   0  0  0  0  0  0
  -23.6239  -29.8081   20.1647 C   0  0  0  0  0  0
  -25.4100  -36.3106   24.0329 C   0  0  1  0  0  0
  -20.5859  -28.3674   23.1301 C   0  0  2  0  0  0
  -20.6761  -26.9405   22.5418 C   0  0  0  0  0  0
  -19.5747  -26.6379   21.5207 C   0  0  0  0  0  0
  -18.1921  -26.7925   22.1610 C   0  0  0  0  0  0
  -19.1520  -28.8845   23.2883 C   0  0  0  0  0  0
  -18.9456  -30.1454   23.8894 C   0  0  0  0  0  0
  -17.6462  -30.6588   24.0570 C   0  0  0  0  0  0
  -25.9036  -34.9474   23.5112 C   0  0  0  0  0  0
  -16.5346  -29.9093   23.6341 C   0  0  0  0  0  0
  -16.7255  -28.6509   23.0355 C   0  0  0  0  0  0
  -26.4471  -31.6601   25.0724 C   0  0  0  0  0  0
  -25.3736  -31.3757   26.1482 C   0  0  0  0  0  0
  -27.0316  -30.3044   24.6134 C   0  0  0  0  0  0
  -27.6024  -32.4344   25.7500 C   0  0  0  0  0  0
  -27.5568  -37.1817   24.8460 C   0  0  0  0  0  0
  -21.4145  -29.3037   22.3708 N   0  0  0  0  0  0
  -26.4278  -37.3802   23.9412 N   0  0  0  0  0  0
  -24.6767  -31.0690   22.0964 N   0  0  0  0  0  0
  -23.4170  -28.8182   23.3036 O   0  0  0  0  0  0
  -28.3925  -26.6257   20.0503 O   0  0  0  0  0  0
  -26.5603  -34.8934   22.4676 O   0  0  0  0  0  0
  -23.5369  -32.1396   23.7410 O   0  0  0  0  0  0
  -26.4234  -21.1314   23.1785 C   0  0  0  0  0  0
  -26.9930  -19.9773   22.5918 C   0  0  0  0  0  0
  -27.0615  -22.2323   22.7103 C   0  0  0  0  0  0
  -28.0153  -20.3953   21.7573 C   0  0  0  0  0  0
  -26.4970  -18.5890   22.9339 C   0  0  0  0  0  0
  -26.8396  -23.6416   23.1520 C   0  0  0  0  0  0
  -29.0267  -19.5316   20.9736 C   0  0  0  0  0  0
  -28.9970  -17.9739   21.2402 C   0  0  0  0  0  0
  -28.1782  -24.0465   20.3273 C   0  0  0  0  0  0
  -28.8591  -22.7757   21.0000 C   0  0  0  0  0  0
  -30.1030  -17.0452   20.6338 C   0  0  0  0  0  0
  -28.5228  -25.4684   20.9175 C   0  0  0  0  0  0
  -27.9917  -21.8255   21.7533 N   0  0  0  0  0  0
  -29.8523  -15.5968   20.8765 N   0  0  0  0  0  0
  -31.4749  -12.4542   19.1436 H   0  0  0  0  0  0
  -30.3495  -11.3371   19.8612 H   0  0  0  0  0  0
  -29.7526  -11.7559   17.4572 H   0  0  0  0  0  0
  -29.6633  -13.4741   17.7570 H   0  0  0  0  0  0
  -27.8377  -11.3018   18.8307 H   0  0  0  0  0  0
  -27.3727  -12.6174   17.7878 H   0  0  0  0  0  0
  -27.6906  -14.2518   19.5549 H   0  0  0  0  0  0
  -28.6897  -11.9899   21.3543 H   0  0  0  0  0  0
  -28.4576  -13.6337   21.8649 H   0  0  0  0  0  0
  -25.2741   -9.5700   22.4759 H   0  0  0  0  0  0
  -24.0001   -7.4638   22.7466 H   0  0  0  0  0  0
  -21.0825   -8.8749   19.8949 H   0  0  0  0  0  0
  -22.3663  -10.9662   19.6161 H   0  0  0  0  0  0
  -21.2006   -7.6142   23.9720 H   0  0  0  0  0  0
  -21.1478   -6.0512   25.9078 H   0  0  0  0  0  0
  -22.0604   -2.7611   23.2835 H   0  0  0  0  0  0
  -22.4084  -11.9931   22.4804 H   0  0  0  0  0  0
  -21.1093  -13.1297   22.2546 H   0  0  0  0  0  0
  -24.6597  -15.8376   20.5087 H   0  0  0  0  0  0
  -26.2686  -15.6199   20.0424 H   0  0  0  0  0  0
  -26.7131  -32.5488   23.1130 H   0  0  0  0  0  0
  -25.0063  -33.9768   25.0446 H   0  0  0  0  0  0
  -22.7030  -31.3012   21.3993 H   0  0  0  0  0  0
  -23.3724  -35.9665   23.3311 H   0  0  0  0  0  0
  -24.3574  -36.8936   22.2060 H   0  0  0  0  0  0
  -23.7241  -37.6527   23.6662 H   0  0  0  0  0  0
  -26.0550  -31.5661   20.5825 H   0  0  0  0  0  0
  -26.8338  -30.8765   21.9768 H   0  0  0  0  0  0
  -28.1123  -29.0611   21.1669 H   0  0  0  0  0  0
  -26.0534  -25.9238   19.0453 H   0  0  0  0  0  0
  -23.9753  -27.2612   19.0623 H   0  0  0  0  0  0
  -23.7465  -30.5805   19.4047 H   0  0  0  0  0  0
  -22.7440  -29.2360   19.8615 H   0  0  0  0  0  0
  -25.1283  -36.1967   25.0825 H   0  0  0  0  0  0
  -20.9950  -28.3251   24.1417 H   0  0  0  0  0  0
  -20.5671  -26.2286   23.3616 H   0  0  0  0  0  0
  -21.6638  -26.7448   22.1212 H   0  0  0  0  0  0
  -19.6922  -25.6289   21.1237 H   0  0  0  0  0  0
  -19.6696  -27.3195   20.6744 H   0  0  0  0  0  0
  -17.4200  -26.6671   21.3999 H   0  0  0  0  0  0
  -18.0311  -26.0068   22.9009 H   0  0  0  0  0  0
  -19.7943  -30.7267   24.2244 H   0  0  0  0  0  0
  -17.5030  -31.6266   24.5181 H   0  0  0  0  0  0
  -15.5357  -30.3010   23.7669 H   0  0  0  0  0  0
  -15.8643  -28.0840   22.7068 H   0  0  0  0  0  0
  -24.5864  -30.7144   25.7846 H   0  0  0  0  0  0
  -24.8978  -32.2945   26.4924 H   0  0  0  0  0  0
  -25.8080  -30.8932   27.0246 H   0  0  0  0  0  0
  -26.2879  -29.6807   24.1165 H   0  0  0  0  0  0
  -27.4051  -29.7288   25.4610 H   0  0  0  0  0  0
  -27.8722  -30.4353   23.9320 H   0  0  0  0  0  0
  -27.2595  -33.3621   26.2095 H   0  0  0  0  0  0
  -28.3830  -32.6950   25.0342 H   0  0  0  0  0  0
  -28.0702  -31.8476   26.5415 H   0  0  0  0  0  0
  -28.2599  -38.0101   24.7505 H   0  0  0  0  0  0
  -28.1039  -36.2638   24.6269 H   0  0  0  0  0  0
  -27.2297  -37.1462   25.8866 H   0  0  0  0  0  0
  -20.9302  -29.8760   21.6930 H   0  0  0  0  0  0
  -26.0152  -38.2874   24.1420 H   0  0  0  0  0  0
  -25.6275  -21.1525   23.9112 H   0  0  0  0  0  0
  -25.5994  -18.6515   23.5500 H   0  0  0  0  0  0
  -27.2311  -18.0278   23.5113 H   0  0  0  0  0  0
  -26.2264  -18.0267   22.0416 H   0  0  0  0  0  0
  -26.2513  -23.6681   24.0699 H   0  0  0  0  0  0
  -26.2873  -24.2152   22.4082 H   0  0  0  0  0  0
  -27.7847  -24.1344   23.3770 H   0  0  0  0  0  0
  -30.0314  -19.8935   21.1920 H   0  0  0  0  0  0
  -28.8809  -19.6996   19.9066 H   0  0  0  0  0  0
  -28.0370  -17.5944   20.8934 H   0  0  0  0  0  0
  -29.0396  -17.8180   22.3168 H   0  0  0  0  0  0
  -27.0989  -23.9135   20.2592 H   0  0  0  0  0  0
  -28.5133  -24.0609   19.2901 H   0  0  0  0  0  0
  -29.6577  -23.0949   21.6699 H   0  0  0  0  0  0
  -29.3576  -22.2075   20.2138 H   0  0  0  0  0  0
  -31.0776  -17.3183   21.0408 H   0  0  0  0  0  0
  -30.1616  -17.2020   19.5552 H   0  0  0  0  0  0
  -29.5715  -25.4576   21.2144 H   0  0  0  0  0  0
  -27.9729  -25.6672   21.8342 H   0  0  0  0  0  0
  -28.9298  -15.3444   21.1982 H   0  0  0  0  0  0
  1 25  1  0  0  0
  1 30  2  0  0  0
  1 84  1  0  0  0
  2  3  1  0  0  0
  2 25  1  0  0  0
  2 85  1  0  0  0
  2 86  1  0  0  0
  3  4  1  0  0  0
  3 87  1  0  0  0
  3 88  1  0  0  0
  4  5  1  0  0  0
  4 89  1  0  0  0
  4 90  1  0  0  0
  5  6  1  0  0  0
  5 26  1  0  0  0
  5 91  1  0  0  0
  6 25  1  0  0  0
  6 92  1  0  0  0
  6 93  1  0  0  0
  7  8  2  0  0  0
  7 26  1  0  0  0
  7 29  1  0  0  0
  8  9  1  0  0  0
  8 22  1  0  0  0
  9 10  1  0  0  0
  9 27  2  0  0  0
 10 11  2  0  0  0
 10 15  1  0  0  0
 11 12  1  0  0  0
 11 94  1  0  0  0
 12 13  2  0  0  0
 12 95  1  0  0  0
 13 14  1  0  0  0
 13 31  1  0  0  0
 14 15  2  0  0  0
 14 96  1  0  0  0
 15 97  1  0  0  0
 16 17  2  0  0  0
 16 21  1  0  0  0
 16 31  1  0  0  0
 17 18  1  0  0  0
 17 98  1  0  0  0
 18 19  2  0  0  0
 18 99  1  0  0  0
 19 20  1  0  0  0
 19 24  1  0  0  0
 20 21  2  0  0  0
 20100  1  0  0  0
 21 23  1  0  0  0
 22 28  1  0  0  0
 22 32  2  0  0  0
 26 27  1  0  0  0
 28101  1  0  0  0
 28102  1  0  0  0
 29103  1  0  0  0
 29104  1  0  0  0
 33 34  1  0  0  0
 33 66  1  0  0  0
 33 70  2  0  0  0
 34 36  1  0  0  0
 34 59  1  0  0  0
 34105  1  0  0  0
 35 44  2  0  0  0
 35 45  1  0  0  0
 35 68  1  0  0  0
 36 56  1  0  0  0
 36106  1  0  0  0
 37 39  1  0  0  0
 37 47  1  0  0  0
 37 66  1  0  0  0
 37107  1  0  0  0
 38 43  2  0  0  0
 38 46  1  0  0  0
 38 47  1  0  0  0
 39 64  1  0  0  0
 39 67  2  0  0  0
 40 52  1  0  0  0
 40 53  2  0  0  0
 40 58  1  0  0  0
 41108  1  0  0  0
 41109  1  0  0  0
 41110  1  0  0  0
 41 48  1  0  0  0
 42 43  1  0  0  0
 42 66  1  0  0  0
 42111  1  0  0  0
 42112  1  0  0  0
 43 44  1  0  0  0
 44113  1  0  0  0
 45 46  2  0  0  0
 45114  1  0  0  0
 46115  1  0  0  0
 47116  1  0  0  0
 47117  1  0  0  0
 48 56  1  0  0  0
 48 65  1  0  0  0
 48118  1  0  0  0
 49 50  1  0  0  0
 49 53  1  0  0  0
 49 64  1  0  0  0
 49119  1  0  0  0
 50 51  1  0  0  0
 50120  1  0  0  0
 50121  1  0  0  0
 51 52  1  0  0  0
 51122  1  0  0  0
 51123  1  0  0  0
 52124  1  0  0  0
 52125  1  0  0  0
 53 54  1  0  0  0
 54 55  2  0  0  0
 54126  1  0  0  0
 55 57  1  0  0  0
 55127  1  0  0  0
 56 69  2  0  0  0
 57 58  2  0  0  0
 57128  1  0  0  0
 58129  1  0  0  0
 59 60  1  0  0  0
 59 61  1  0  0  0
 59 62  1  0  0  0
 60130  1  0  0  0
 60131  1  0  0  0
 60132  1  0  0  0
 61133  1  0  0  0
 61134  1  0  0  0
 61135  1  0  0  0
 62136  1  0  0  0
 62137  1  0  0  0
 62138  1  0  0  0
 63 65  1  0  0  0
 63139  1  0  0  0
 63140  1  0  0  0
 63141  1  0  0  0
 64142  1  0  0  0
 65143  1  0  0  0
 68 82  1  0  0  0
 71 72  1  0  0  0
 71 73  2  0  0  0
 71144  1  0  0  0
 72 74  2  0  0  0
 72 75  1  0  0  0
 73 76  1  0  0  0
 73 83  1  0  0  0
 74 77  1  0  0  0
 74 83  1  0  0  0
 75145  1  0  0  0
 75146  1  0  0  0
 75147  1  0  0  0
 76148  1  0  0  0
 76149  1  0  0  0
 76150  1  0  0  0
 77 78  1  0  0  0
 77151  1  0  0  0
 77152  1  0  0  0
 78 81  1  0  0  0
 78153  1  0  0  0
 78154  1  0  0  0
 79 80  1  0  0  0
 79 82  1  0  0  0
 79155  1  0  0  0
 79156  1  0  0  0
 80 83  1  0  0  0
 80157  1  0  0  0
 80158  1  0  0  0
 81 84  1  0  0  0
 81159  1  0  0  0
 81160  1  0  0  0
 82161  1  0  0  0
 82162  1  0  0  0
 84163  1  0  0  0
M  ISO  4   1 100  68 101  82 101  84 100
M  END
> <chiral flag>
0

> <version>
0

> <s_m_source_file>
/data/baiqing/PycharmProjects/Reinvent-master-3.2/result/LINK_invent/BTK/process_docking_weight1_custom_sum_contain_oxygen_bond_distance_aromatic_linkinvent_7_9_3/rearranged_h_0079.sdf

> <i_m_source_file_index>
22

> <r_mmod_Potential_Energy-OPLS-2005>
-31.8595504760742

> <r_mmod_Stretch_Energy-OPLS-2005>
61.6746597290039

> <r_mmod_Bend_Energy-OPLS-2005>
127.724044799805

> <r_mmod_Torsional_Energy-OPLS-2005>
250.670776367188

> <r_mmod_Improper_Torsional_Energy-OPLS-2005>
6.04890155792236

> <r_mmod_Van_der_Waal_Energy-OPLS-2005>
120.725204467773

> <r_mmod_Electrostatic_Energy-OPLS-2005>
-411.404998779297

> <r_mmod_Solvation_Energy-OPLS-2005>
-210.786819458008

> <b_mmod_Minimization_Converged-OPLS-2005>
0

> <r_mmod_RMS_Derivative-OPLS-2005>
1.88665378093719

$$$$
22
                    3D
 Structure written by MMmdl.
173181  0  0  1  0            999 V2000
  -30.7165  -14.5161   20.5274 C   0  0  0  0  0  0
  -30.4210  -12.3133   19.4532 C   0  0  0  0  0  0
  -29.5035  -12.4817   18.2266 C   0  0  0  0  0  0
  -28.0205  -12.3503   18.6306 C   0  0  0  0  0  0
  -27.6589  -13.2057   19.8759 C   0  0  2  0  0  0
  -28.7065  -13.0376   21.0001 C   0  0  0  0  0  0
  -25.2572  -13.8130   20.5691 C   0  0  0  0  0  0
  -24.1821  -13.0401   20.9191 C   0  0  0  0  0  0
  -24.6396  -11.6871   20.8771 C   0  0  0  0  0  0
  -23.9058  -10.4265   21.0453 C   0  0  0  0  0  0
  -24.3606   -9.4166   21.9213 C   0  0  0  0  0  0
  -23.6273   -8.2207   22.0765 C   0  0  0  0  0  0
  -22.4253   -8.0266   21.3562 C   0  0  0  0  0  0
  -21.9912   -9.0231   20.4660 C   0  0  0  0  0  0
  -22.7244  -10.2106   20.3090 C   0  0  0  0  0  0
  -21.6840   -6.0714   22.5275 C   0  0  0  0  0  0
  -21.4013   -6.5626   23.8206 C   0  0  0  0  0  0
  -21.3669   -5.6791   24.9180 C   0  0  0  0  0  0
  -21.6063   -4.3053   24.7254 C   0  0  0  0  0  0
  -21.8817   -3.8139   23.4378 C   0  0  0  0  0  0
  -21.9177   -4.6940   22.3419 C   0  0  0  0  0  0
  -22.7850  -13.5194   21.1858 C   0  0  0  0  0  0
  -22.1647   -4.2113   21.1005 F   0  0  0  0  0  0
  -21.5649   -3.4546   25.7778 F   0  0  0  0  0  0
  -30.0321  -13.3368   20.4396 N   0  0  0  0  0  0
  -26.3022  -12.9304   20.3412 N   0  0  0  0  0  0
  -25.9328  -11.6464   20.5840 N   0  0  0  0  0  0
  -22.0528  -12.8150   22.0425 N   0  0  0  0  0  0
  -25.4288  -15.1838   20.4090 N   0  0  0  0  0  0
  -31.8833  -14.5834   20.1397 O   0  0  0  0  0  0
  -21.6636   -6.8853   21.4237 O   0  0  0  0  0  0
  -22.3503  -14.5477   20.6693 O   0  0  0  0  0  0
  -24.6150  -31.8686   23.2115 C   0  0  0  0  0  0
  -25.9040  -32.4832   23.8414 C   0  0  1  0  0  0
  -27.2264  -27.4186   20.1083 C   0  0  0  0  0  0
  -25.5914  -33.8639   24.2350 N   0  0  0  0  0  0
  -23.4048  -30.4926   21.5514 C   0  0  2  0  0  0
  -24.8554  -28.9614   20.1110 C   0  0  0  0  0  0
  -22.7419  -29.4655   22.4976 C   0  0  0  0  0  0
  -18.0286  -28.1376   22.8482 C   0  0  0  0  0  0
  -24.1491  -36.7317   23.2630 C   0  0  0  0  0  0
  -25.9356  -30.8253   21.3728 C   0  0  0  0  0  0
  -26.0132  -29.4565   20.7267 C   0  0  0  0  0  0
  -27.2026  -28.6891   20.7324 C   0  0  0  0  0  0
  -26.0710  -26.9688   19.4380 C   0  0  0  0  0  0
  -24.8795  -27.7149   19.4638 C   0  0  0  0  0  0
  -23.6165  -29.8271   20.1652 C   0  0  0  0  0  0
  -25.4109  -36.3126   24.0338 C   0  0  1  0  0  0
  -20.5870  -28.3674   23.1323 C   0  0  2  0  0  0
  -20.6779  -26.9410   22.5421 C   0  0  0  0  0  0
  -19.5759  -26.6380   21.5216 C   0  0  0  0  0  0
  -18.1936  -26.7926   22.1610 C   0  0  0  0  0  0
  -19.1529  -28.8839   23.2901 C   0  0  0  0  0  0
  -18.9447  -30.1443   23.8919 C   0  0  0  0  0  0
  -17.6448  -30.6584   24.0560 C   0  0  0  0  0  0
  -25.9038  -34.9488   23.5140 C   0  0  0  0  0  0
  -16.5351  -29.9078   23.6326 C   0  0  0  0  0  0
  -16.7271  -28.6494   23.0347 C   0  0  0  0  0  0
  -26.4469  -31.6604   25.0736 C   0  0  0  0  0  0
  -25.3728  -31.3708   26.1475 C   0  0  0  0  0  0
  -27.0291  -30.3043   24.6106 C   0  0  0  0  0  0
  -27.6053  -32.4323   25.7485 C   0  0  0  0  0  0
  -27.5595  -37.1803   24.8461 C   0  0  0  0  0  0
  -21.4148  -29.3043   22.3728 N   0  0  0  0  0  0
  -26.4302  -37.3805   23.9417 N   0  0  0  0  0  0
  -24.6703  -31.0758   22.1041 N   0  0  0  0  0  0
  -23.4193  -28.8188   23.3006 O   0  0  0  0  0  0
  -28.3550  -26.6237   20.1032 O   0  0  0  0  0  0
  -26.5584  -34.8935   22.4692 O   0  0  0  0  0  0
  -23.5340  -32.1461   23.7489 O   0  0  0  0  0  0
  -25.9938  -24.6268   21.3446 C   0  0  0  0  0  0
  -27.3084  -24.4910   20.9641 C   0  0  0  0  0  0
  -26.1599  -22.7183   20.2469 C   0  0  0  0  0  0
  -25.7238  -21.5148   19.4642 C   0  0  0  0  0  0
  -27.7234  -18.0306   20.8660 C   0  0  0  0  0  0
  -29.1766  -16.5276   18.6814 C   0  0  0  0  0  0
  -31.3742  -17.4596   19.4676 C   0  0  0  0  0  0
  -28.9504  -19.7717   18.3831 C   0  0  0  0  0  0
  -28.4055  -25.5364   21.0674 C   0  0  0  0  0  0
  -30.0416  -15.8583   20.9778 C   0  0  0  0  0  0
  -28.6341  -20.9305   20.6738 C   0  0  0  0  0  0
  -28.6130  -22.3960   20.0864 C   0  0  0  0  0  0
  -29.2156  -18.3393   20.5579 C   0  0  1  0  0  0
  -29.9466  -17.0583   19.9219 C   0  0  0  0  0  0
  -29.3561  -19.7855   19.8753 C   0  0  1  0  0  0
  -27.4071  -23.1904   20.4665 N   0  0  0  0  0  0
  -25.3181  -23.5493   20.8567 N   0  3  0  0  0  0
  -30.6294  -20.1733   19.9225 F   0  0  0  0  0  0
  -31.4673  -12.3843   19.1551 H   0  0  0  0  0  0
  -30.3065  -11.3160   19.8818 H   0  0  0  0  0  0
  -29.7534  -11.7389   17.4675 H   0  0  0  0  0  0
  -29.6820  -13.4509   17.7618 H   0  0  0  0  0  0
  -27.8300  -11.2961   18.8386 H   0  0  0  0  0  0
  -27.3759  -12.6095   17.7901 H   0  0  0  0  0  0
  -27.6895  -14.2445   19.5612 H   0  0  0  0  0  0
  -28.6961  -12.0136   21.3756 H   0  0  0  0  0  0
  -28.4674  -13.6551   21.8637 H   0  0  0  0  0  0
  -25.2763   -9.5587   22.4770 H   0  0  0  0  0  0
  -23.9981   -7.4581   22.7447 H   0  0  0  0  0  0
  -21.0868   -8.8722   19.8931 H   0  0  0  0  0  0
  -22.3717  -10.9633   19.6183 H   0  0  0  0  0  0
  -21.1980   -7.6130   23.9696 H   0  0  0  0  0  0
  -21.1527   -6.0543   25.9078 H   0  0  0  0  0  0
  -22.0585   -2.7601   23.2913 H   0  0  0  0  0  0
  -22.4169  -11.9781   22.4730 H   0  0  0  0  0  0
  -21.1149  -13.1147   22.2677 H   0  0  0  0  0  0
  -24.6701  -15.8456   20.5275 H   0  0  0  0  0  0
  -26.2930  -15.6155   20.1122 H   0  0  0  0  0  0
  -26.7107  -32.5543   23.1173 H   0  0  0  0  0  0
  -25.0123  -33.9803   25.0535 H   0  0  0  0  0  0
  -22.6934  -31.3095   21.4118 H   0  0  0  0  0  0
  -23.3772  -35.9628   23.3289 H   0  0  0  0  0  0
  -24.3596  -36.8934   22.2046 H   0  0  0  0  0  0
  -23.7226  -37.6513   23.6645 H   0  0  0  0  0  0
  -26.0526  -31.5864   20.5993 H   0  0  0  0  0  0
  -26.8211  -30.8799   21.9931 H   0  0  0  0  0  0
  -28.0936  -29.0621   21.2204 H   0  0  0  0  0  0
  -26.0868  -26.0258   18.9103 H   0  0  0  0  0  0
  -23.9971  -27.3381   18.9670 H   0  0  0  0  0  0
  -23.7245  -30.6035   19.4083 H   0  0  0  0  0  0
  -22.7398  -29.2493   19.8678 H   0  0  0  0  0  0
  -25.1279  -36.1993   25.0833 H   0  0  0  0  0  0
  -20.9959  -28.3250   24.1440 H   0  0  0  0  0  0
  -20.5711  -26.2278   23.3605 H   0  0  0  0  0  0
  -21.6649  -26.7478   22.1185 H   0  0  0  0  0  0
  -19.6936  -25.6293   21.1238 H   0  0  0  0  0  0
  -19.6704  -27.3193   20.6749 H   0  0  0  0  0  0
  -17.4210  -26.6695   21.4005 H   0  0  0  0  0  0
  -18.0329  -26.0053   22.8989 H   0  0  0  0  0  0
  -19.7926  -30.7251   24.2298 H   0  0  0  0  0  0
  -17.5007  -31.6261   24.5162 H   0  0  0  0  0  0
  -15.5355  -30.2981   23.7636 H   0  0  0  0  0  0
  -15.8671  -28.0818   22.7056 H   0  0  0  0  0  0
  -24.5910  -30.7039   25.7821 H   0  0  0  0  0  0
  -24.8885  -32.2843   26.4928 H   0  0  0  0  0  0
  -25.8060  -30.8885   27.0238 H   0  0  0  0  0  0
  -26.2831  -29.6807   24.1151 H   0  0  0  0  0  0
  -27.4063  -29.7276   25.4567 H   0  0  0  0  0  0
  -27.8677  -30.4375   23.9263 H   0  0  0  0  0  0
  -27.2698  -33.3633   26.2066 H   0  0  0  0  0  0
  -28.3842  -32.6866   25.0286 H   0  0  0  0  0  0
  -28.0733  -31.8435   26.5378 H   0  0  0  0  0  0
  -28.2592  -38.0122   24.7552 H   0  0  0  0  0  0
  -28.1114  -36.2659   24.6234 H   0  0  0  0  0  0
  -27.2317  -37.1387   25.8861 H   0  0  0  0  0  0
  -20.9327  -29.8772   21.6946 H   0  0  0  0  0  0
  -26.0202  -38.2889   24.1415 H   0  0  0  0  0  0
  -25.4807  -25.4519   21.8180 H   0  0  0  0  0  0
  -26.5093  -21.2305   18.7661 H   0  0  0  0  0  0
  -24.8328  -21.7753   18.8953 H   0  0  0  0  0  0
  -25.5024  -20.6975   20.1514 H   0  0  0  0  0  0
  -27.5388  -17.0142   21.1935 H   0  0  0  0  0  0
  -27.0854  -18.1937   19.9971 H   0  0  0  0  0  0
  -27.3455  -18.6559   21.6719 H   0  0  0  0  0  0
  -29.6283  -15.6219   18.2870 H   0  0  0  0  0  0
  -29.1618  -17.2043   17.8357 H   0  0  0  0  0  0
  -28.1414  -16.2945   18.9114 H   0  0  0  0  0  0
  -31.8840  -16.6632   18.9310 H   0  0  0  0  0  0
  -31.9998  -17.7466   20.3131 H   0  0  0  0  0  0
  -31.3800  -18.2855   18.7602 H   0  0  0  0  0  0
  -27.9603  -19.3447   18.2292 H   0  0  0  0  0  0
  -29.6597  -19.2050   17.7891 H   0  0  0  0  0  0
  -28.9639  -20.7468   17.9073 H   0  0  0  0  0  0
  -29.3798  -25.0602   20.9731 H   0  0  0  0  0  0
  -28.3831  -25.9588   22.0732 H   0  0  0  0  0  0
  -29.0629  -15.6328   21.3786 H   0  0  0  0  0  0
  -30.6081  -16.2047   21.8421 H   0  0  0  0  0  0
  -27.6192  -20.6175   20.8716 H   0  0  0  0  0  0
  -29.0777  -20.9793   21.6690 H   0  0  0  0  0  0
  -28.6529  -22.4361   19.0029 H   0  0  0  0  0  0
  -29.5043  -22.9212   20.4264 H   0  0  0  0  0  0
  -29.6869  -18.4619   21.5349 H   0  0  0  0  0  0
  -24.3135  -23.4239   20.9034 H   0  0  0  0  0  0
  1 25  1  0  0  0
  1 30  2  0  0  0
  1 80  1  0  0  0
  2  3  1  0  0  0
  2 25  1  0  0  0
  2 89  1  0  0  0
  2 90  1  0  0  0
  3  4  1  0  0  0
  3 91  1  0  0  0
  3 92  1  0  0  0
  4  5  1  0  0  0
  4 93  1  0  0  0
  4 94  1  0  0  0
  5  6  1  0  0  0
  5 26  1  0  0  0
  5 95  1  0  0  0
  6 25  1  0  0  0
  6 96  1  0  0  0
  6 97  1  0  0  0
  7  8  2  0  0  0
  7 26  1  0  0  0
  7 29  1  0  0  0
  8  9  1  0  0  0
  8 22  1  0  0  0
  9 10  1  0  0  0
  9 27  2  0  0  0
 10 11  2  0  0  0
 10 15  1  0  0  0
 11 12  1  0  0  0
 11 98  1  0  0  0
 12 13  2  0  0  0
 12 99  1  0  0  0
 13 14  1  0  0  0
 13 31  1  0  0  0
 14 15  2  0  0  0
 14100  1  0  0  0
 15101  1  0  0  0
 16 17  2  0  0  0
 16 21  1  0  0  0
 16 31  1  0  0  0
 17 18  1  0  0  0
 17102  1  0  0  0
 18 19  2  0  0  0
 18103  1  0  0  0
 19 20  1  0  0  0
 19 24  1  0  0  0
 20 21  2  0  0  0
 20104  1  0  0  0
 21 23  1  0  0  0
 22 28  1  0  0  0
 22 32  2  0  0  0
 26 27  1  0  0  0
 28105  1  0  0  0
 28106  1  0  0  0
 29107  1  0  0  0
 29108  1  0  0  0
 33 34  1  0  0  0
 33 66  1  0  0  0
 33 70  2  0  0  0
 34 36  1  0  0  0
 34 59  1  0  0  0
 34109  1  0  0  0
 35 44  2  0  0  0
 35 45  1  0  0  0
 35 68  1  0  0  0
 36 56  1  0  0  0
 36110  1  0  0  0
 37 39  1  0  0  0
 37 47  1  0  0  0
 37 66  1  0  0  0
 37111  1  0  0  0
 38 43  2  0  0  0
 38 46  1  0  0  0
 38 47  1  0  0  0
 39 64  1  0  0  0
 39 67  2  0  0  0
 40 52  1  0  0  0
 40 53  2  0  0  0
 40 58  1  0  0  0
 41112  1  0  0  0
 41113  1  0  0  0
 41114  1  0  0  0
 41 48  1  0  0  0
 42 43  1  0  0  0
 42 66  1  0  0  0
 42115  1  0  0  0
 42116  1  0  0  0
 43 44  1  0  0  0
 44117  1  0  0  0
 45 46  2  0  0  0
 45118  1  0  0  0
 46119  1  0  0  0
 47120  1  0  0  0
 47121  1  0  0  0
 48 56  1  0  0  0
 48 65  1  0  0  0
 48122  1  0  0  0
 49 50  1  0  0  0
 49 53  1  0  0  0
 49 64  1  0  0  0
 49123  1  0  0  0
 50 51  1  0  0  0
 50124  1  0  0  0
 50125  1  0  0  0
 51 52  1  0  0  0
 51126  1  0  0  0
 51127  1  0  0  0
 52128  1  0  0  0
 52129  1  0  0  0
 53 54  1  0  0  0
 54 55  2  0  0  0
 54130  1  0  0  0
 55 57  1  0  0  0
 55131  1  0  0  0
 56 69  2  0  0  0
 57 58  2  0  0  0
 57132  1  0  0  0
 58133  1  0  0  0
 59 60  1  0  0  0
 59 61  1  0  0  0
 59 62  1  0  0  0
 60134  1  0  0  0
 60135  1  0  0  0
 60136  1  0  0  0
 61137  1  0  0  0
 61138  1  0  0  0
 61139  1  0  0  0
 62140  1  0  0  0
 62141  1  0  0  0
 62142  1  0  0  0
 63 65  1  0  0  0
 63143  1  0  0  0
 63144  1  0  0  0
 63145  1  0  0  0
 64146  1  0  0  0
 65147  1  0  0  0
 68 79  1  0  0  0
 71 72  2  0  0  0
 71 87  1  0  0  0
 71148  1  0  0  0
 72 79  1  0  0  0
 72 86  1  0  0  0
 73 74  1  0  0  0
 73 86  1  0  0  0
 73 87  2  0  0  0
 74149  1  0  0  0
 74150  1  0  0  0
 74151  1  0  0  0
 75152  1  0  0  0
 75153  1  0  0  0
 75154  1  0  0  0
 75 83  1  0  0  0
 76155  1  0  0  0
 76156  1  0  0  0
 76157  1  0  0  0
 76 84  1  0  0  0
 77 84  1  0  0  0
 77158  1  0  0  0
 77159  1  0  0  0
 77160  1  0  0  0
 78161  1  0  0  0
 78162  1  0  0  0
 78163  1  0  0  0
 78 85  1  0  0  0
 79164  1  0  0  0
 79165  1  0  0  0
 80 84  1  0  0  0
 80166  1  0  0  0
 80167  1  0  0  0
 81 82  1  0  0  0
 81 85  1  0  0  0
 81168  1  0  0  0
 81169  1  0  0  0
 82 86  1  0  0  0
 82170  1  0  0  0
 82171  1  0  0  0
 83 84  1  0  0  0
 83 85  1  0  0  0
 83172  1  0  0  0
 85 88  1  0  0  0
 87173  1  0  0  0
M  CHG  1  87   1
M  ISO  4   1 100  68 101  79 101  80 100
M  END
> <chiral flag>
0

> <version>
0

> <s_m_source_file>
/data/baiqing/PycharmProjects/Reinvent-master-3.2/result/LINK_invent/BTK/process_docking_weight1_custom_sum_contain_oxygen_bond_distance_aromatic_linkinvent_7_9_3/rearranged_h_0079.sdf

> <i_m_source_file_index>
23

> <r_mmod_Potential_Energy-OPLS-2005>
46.4366989135742

> <r_mmod_Stretch_Energy-OPLS-2005>
67.4038772583008

> <r_mmod_Bend_Energy-OPLS-2005>
136.945648193359

> <r_mmod_Torsional_Energy-OPLS-2005>
253.410263061523

> <r_mmod_Improper_Torsional_Energy-OPLS-2005>
3.30000567436218

> <r_mmod_Van_der_Waal_Energy-OPLS-2005>
153.362747192383

> <r_mmod_Electrostatic_Energy-OPLS-2005>
-199.3037109375

> <r_mmod_Solvation_Energy-OPLS-2005>
-390.495239257812

> <b_mmod_Minimization_Converged-OPLS-2005>
0

> <r_mmod_RMS_Derivative-OPLS-2005>
3.22853136062622

$$$$
23
                    3D
 Structure written by MMmdl.
160168  0  0  1  0            999 V2000
  -30.6911  -14.4271   20.6490 C   0  0  0  0  0  0
  -30.4274  -12.3090   19.4048 C   0  0  0  0  0  0
  -29.4880  -12.5161   18.2000 C   0  0  0  0  0  0
  -28.0114  -12.3659   18.6182 C   0  0  0  0  0  0
  -27.6620  -13.1955   19.8834 C   0  0  2  0  0  0
  -28.6980  -12.9297   20.9953 C   0  0  0  0  0  0
  -25.2578  -13.8112   20.5661 C   0  0  0  0  0  0
  -24.1822  -13.0410   20.9178 C   0  0  0  0  0  0
  -24.6366  -11.6869   20.8731 C   0  0  0  0  0  0
  -23.9033  -10.4268   21.0395 C   0  0  0  0  0  0
  -24.3600   -9.4196   21.9182 C   0  0  0  0  0  0
  -23.6285   -8.2223   22.0740 C   0  0  0  0  0  0
  -22.4265   -8.0260   21.3536 C   0  0  0  0  0  0
  -21.9902   -9.0224   20.4633 C   0  0  0  0  0  0
  -22.7205  -10.2121   20.3042 C   0  0  0  0  0  0
  -21.6844   -6.0725   22.5282 C   0  0  0  0  0  0
  -21.3998   -6.5625   23.8221 C   0  0  0  0  0  0
  -21.3667   -5.6775   24.9179 C   0  0  0  0  0  0
  -21.6056   -4.3040   24.7219 C   0  0  0  0  0  0
  -21.8814   -3.8139   23.4335 C   0  0  0  0  0  0
  -21.9190   -4.6957   22.3401 C   0  0  0  0  0  0
  -22.7859  -13.5223   21.1866 C   0  0  0  0  0  0
  -22.1655   -4.2155   21.0975 F   0  0  0  0  0  0
  -21.5655   -3.4517   25.7729 F   0  0  0  0  0  0
  -30.0290  -13.2572   20.4555 N   0  0  0  0  0  0
  -26.3011  -12.9278   20.3382 N   0  0  0  0  0  0
  -25.9294  -11.6442   20.5761 N   0  0  0  0  0  0
  -22.0509  -12.8201   22.0432 N   0  0  0  0  0  0
  -25.4310  -15.1817   20.4005 N   0  0  0  0  0  0
  -31.7834  -14.6801   20.1310 O   0  0  0  0  0  0
  -21.6633   -6.8859   21.4237 O   0  0  0  0  0  0
  -22.3551  -14.5538   20.6739 O   0  0  0  0  0  0
  -24.6126  -31.8703   23.2146 C   0  0  0  0  0  0
  -25.9029  -32.4823   23.8427 C   0  0  1  0  0  0
  -27.2345  -27.4665   20.0892 C   0  0  0  0  0  0
  -25.5923  -33.8626   24.2364 N   0  0  0  0  0  0
  -23.3981  -30.4941   21.5525 C   0  0  2  0  0  0
  -24.8432  -28.9585   20.1215 C   0  0  0  0  0  0
  -22.7396  -29.4672   22.5008 C   0  0  0  0  0  0
  -18.0290  -28.1373   22.8500 C   0  0  0  0  0  0
  -24.1490  -36.7313   23.2638 C   0  0  0  0  0  0
  -25.9242  -30.8427   21.3638 C   0  0  0  0  0  0
  -26.0021  -29.4775   20.7143 C   0  0  0  0  0  0
  -27.2020  -28.7371   20.7006 C   0  0  0  0  0  0
  -26.0661  -26.9498   19.4953 C   0  0  0  0  0  0
  -24.8668  -27.6907   19.5130 C   0  0  0  0  0  0
  -23.6055  -29.8222   20.1693 C   0  0  0  0  0  0
  -25.4112  -36.3119   24.0342 C   0  0  1  0  0  0
  -20.5869  -28.3659   23.1352 C   0  0  2  0  0  0
  -20.6785  -26.9393   22.5445 C   0  0  0  0  0  0
  -19.5781  -26.6382   21.5221 C   0  0  0  0  0  0
  -18.1946  -26.7928   22.1618 C   0  0  0  0  0  0
  -19.1539  -28.8827   23.2934 C   0  0  0  0  0  0
  -18.9450  -30.1438   23.8934 C   0  0  0  0  0  0
  -17.6448  -30.6573   24.0572 C   0  0  0  0  0  0
  -25.9030  -34.9476   23.5149 C   0  0  0  0  0  0
  -16.5351  -29.9079   23.6325 C   0  0  0  0  0  0
  -16.7280  -28.6490   23.0340 C   0  0  0  0  0  0
  -26.4497  -31.6597   25.0729 C   0  0  0  0  0  0
  -25.3803  -31.3666   26.1503 C   0  0  0  0  0  0
  -27.0339  -30.3061   24.6075 C   0  0  0  0  0  0
  -27.6085  -32.4323   25.7483 C   0  0  0  0  0  0
  -27.5578  -37.1811   24.8471 C   0  0  0  0  0  0
  -21.4123  -29.3054   22.3769 N   0  0  0  0  0  0
  -26.4294  -37.3800   23.9407 N   0  0  0  0  0  0
  -24.6624  -31.0837   22.1022 N   0  0  0  0  0  0
  -23.4192  -28.8184   23.3002 O   0  0  0  0  0  0
  -28.3993  -26.7445   20.0478 O   0  0  0  0  0  0
  -26.5555  -34.8928   22.4689 O   0  0  0  0  0  0
  -23.5327  -32.1432   23.7564 O   0  0  0  0  0  0
  -29.1554  -21.0357   21.2820 C   0  0  0  0  0  0
  -28.5593  -19.8520   20.9207 C   0  0  0  0  0  0
  -26.9769  -21.4223   21.1325 C   0  0  0  0  0  0
  -25.6350  -22.0876   21.1200 C   0  0  0  0  0  0
  -29.1551  -18.4966   20.6502 C   0  0  0  0  0  0
  -29.4428  -17.7216   21.9550 C   0  0  0  0  0  0
  -28.2330  -24.3922   20.6805 C   0  0  0  0  0  0
  -28.3580  -23.3797   21.8341 C   0  0  0  0  0  0
  -30.5352  -16.6298   21.8471 C   0  0  0  0  0  0
  -28.5602  -25.8279   21.1262 C   0  0  0  0  0  0
  -28.1669  -21.9781   21.4173 N   0  0  0  0  0  0
  -27.2166  -20.1337   20.8449 N   0  3  0  0  0  0
  -30.0329  -15.3258   21.4033 N   0  0  0  0  0  0
  -31.4675  -12.4351   19.1024 H   0  0  0  0  0  0
  -30.3494  -11.2850   19.7748 H   0  0  0  0  0  0
  -29.7264  -11.8012   17.4105 H   0  0  0  0  0  0
  -29.6521  -13.5091   17.7764 H   0  0  0  0  0  0
  -27.8271  -11.3085   18.8115 H   0  0  0  0  0  0
  -27.3538  -12.6431   17.7926 H   0  0  0  0  0  0
  -27.7215  -14.2493   19.6107 H   0  0  0  0  0  0
  -28.6750  -11.8767   21.2791 H   0  0  0  0  0  0
  -28.4475  -13.4716   21.9081 H   0  0  0  0  0  0
  -25.2743   -9.5685   22.4769 H   0  0  0  0  0  0
  -24.0017   -7.4594   22.7430 H   0  0  0  0  0  0
  -21.0849   -8.8694   19.8921 H   0  0  0  0  0  0
  -22.3628  -10.9655   19.6154 H   0  0  0  0  0  0
  -21.1965   -7.6131   23.9718 H   0  0  0  0  0  0
  -21.1519   -6.0507   25.9086 H   0  0  0  0  0  0
  -22.0604   -2.7600   23.2821 H   0  0  0  0  0  0
  -22.4112  -11.9855   22.4825 H   0  0  0  0  0  0
  -21.1121  -13.1211   22.2623 H   0  0  0  0  0  0
  -24.6571  -15.8307   20.4839 H   0  0  0  0  0  0
  -26.2713  -15.6128   20.0405 H   0  0  0  0  0  0
  -26.7082  -32.5554   23.1175 H   0  0  0  0  0  0
  -25.0180  -33.9825   25.0585 H   0  0  0  0  0  0
  -22.6831  -31.3089   21.4119 H   0  0  0  0  0  0
  -23.3746  -35.9652   23.3327 H   0  0  0  0  0  0
  -24.3577  -36.8897   22.2044 H   0  0  0  0  0  0
  -23.7241  -37.6530   23.6623 H   0  0  0  0  0  0
  -26.0332  -31.6045   20.5907 H   0  0  0  0  0  0
  -26.8155  -30.9005   21.9774 H   0  0  0  0  0  0
  -28.1004  -29.1336   21.1520 H   0  0  0  0  0  0
  -26.0800  -25.9800   19.0202 H   0  0  0  0  0  0
  -23.9720  -27.2827   19.0611 H   0  0  0  0  0  0
  -23.7121  -30.5948   19.4074 H   0  0  0  0  0  0
  -22.7315  -29.2408   19.8725 H   0  0  0  0  0  0
  -25.1277  -36.1992   25.0826 H   0  0  0  0  0  0
  -20.9958  -28.3214   24.1478 H   0  0  0  0  0  0
  -20.5697  -26.2248   23.3628 H   0  0  0  0  0  0
  -21.6661  -26.7440   22.1240 H   0  0  0  0  0  0
  -19.6962  -25.6291   21.1253 H   0  0  0  0  0  0
  -19.6742  -27.3202   20.6770 H   0  0  0  0  0  0
  -17.4237  -26.6700   21.3997 H   0  0  0  0  0  0
  -18.0346  -26.0055   22.8989 H   0  0  0  0  0  0
  -19.7923  -30.7254   24.2317 H   0  0  0  0  0  0
  -17.5002  -31.6259   24.5160 H   0  0  0  0  0  0
  -15.5359  -30.2975   23.7637 H   0  0  0  0  0  0
  -15.8692  -28.0812   22.7029 H   0  0  0  0  0  0
  -24.5984  -30.6994   25.7856 H   0  0  0  0  0  0
  -24.8988  -32.2803   26.4999 H   0  0  0  0  0  0
  -25.8213  -30.8818   27.0222 H   0  0  0  0  0  0
  -26.2863  -29.6787   24.1208 H   0  0  0  0  0  0
  -27.4220  -29.7324   25.4496 H   0  0  0  0  0  0
  -27.8647  -30.4399   23.9145 H   0  0  0  0  0  0
  -27.2708  -33.3613   26.2088 H   0  0  0  0  0  0
  -28.3886  -32.6899   25.0304 H   0  0  0  0  0  0
  -28.0770  -31.8435   26.5379 H   0  0  0  0  0  0
  -28.2610  -38.0095   24.7503 H   0  0  0  0  0  0
  -28.1057  -36.2621   24.6314 H   0  0  0  0  0  0
  -27.2288  -37.1489   25.8876 H   0  0  0  0  0  0
  -20.9246  -29.8838   21.7061 H   0  0  0  0  0  0
  -26.0190  -38.2880   24.1407 H   0  0  0  0  0  0
  -30.1968  -21.2699   21.4579 H   0  0  0  0  0  0
  -25.5479  -22.7428   21.9867 H   0  0  0  0  0  0
  -24.8544  -21.3292   21.1537 H   0  0  0  0  0  0
  -25.5432  -22.6631   20.1989 H   0  0  0  0  0  0
  -30.0824  -18.6507   20.0982 H   0  0  0  0  0  0
  -28.5008  -17.9239   19.9927 H   0  0  0  0  0  0
  -28.5158  -17.3343   22.3808 H   0  0  0  0  0  0
  -29.8127  -18.4421   22.6857 H   0  0  0  0  0  0
  -27.2220  -24.3620   20.2784 H   0  0  0  0  0  0
  -28.9001  -24.1064   19.8672 H   0  0  0  0  0  0
  -27.6446  -23.6061   22.6264 H   0  0  0  0  0  0
  -29.3507  -23.4540   22.2806 H   0  0  0  0  0  0
  -30.9628  -16.4754   22.8386 H   0  0  0  0  0  0
  -31.3571  -16.9805   21.2215 H   0  0  0  0  0  0
  -29.5972  -25.8840   21.4601 H   0  0  0  0  0  0
  -27.9477  -26.1094   21.9857 H   0  0  0  0  0  0
  -26.4928  -19.4655   20.6034 H   0  0  0  0  0  0
  -29.1415  -15.0266   21.7739 H   0  0  0  0  0  0
  1 25  1  0  0  0
  1 30  2  0  0  0
  1 83  1  0  0  0
  2  3  1  0  0  0
  2 25  1  0  0  0
  2 84  1  0  0  0
  2 85  1  0  0  0
  3  4  1  0  0  0
  3 86  1  0  0  0
  3 87  1  0  0  0
  4  5  1  0  0  0
  4 88  1  0  0  0
  4 89  1  0  0  0
  5  6  1  0  0  0
  5 26  1  0  0  0
  5 90  1  0  0  0
  6 25  1  0  0  0
  6 91  1  0  0  0
  6 92  1  0  0  0
  7  8  2  0  0  0
  7 26  1  0  0  0
  7 29  1  0  0  0
  8  9  1  0  0  0
  8 22  1  0  0  0
  9 10  1  0  0  0
  9 27  2  0  0  0
 10 11  2  0  0  0
 10 15  1  0  0  0
 11 12  1  0  0  0
 11 93  1  0  0  0
 12 13  2  0  0  0
 12 94  1  0  0  0
 13 14  1  0  0  0
 13 31  1  0  0  0
 14 15  2  0  0  0
 14 95  1  0  0  0
 15 96  1  0  0  0
 16 17  2  0  0  0
 16 21  1  0  0  0
 16 31  1  0  0  0
 17 18  1  0  0  0
 17 97  1  0  0  0
 18 19  2  0  0  0
 18 98  1  0  0  0
 19 20  1  0  0  0
 19 24  1  0  0  0
 20 21  2  0  0  0
 20 99  1  0  0  0
 21 23  1  0  0  0
 22 28  1  0  0  0
 22 32  2  0  0  0
 26 27  1  0  0  0
 28100  1  0  0  0
 28101  1  0  0  0
 29102  1  0  0  0
 29103  1  0  0  0
 33 34  1  0  0  0
 33 66  1  0  0  0
 33 70  2  0  0  0
 34 36  1  0  0  0
 34 59  1  0  0  0
 34104  1  0  0  0
 35 44  2  0  0  0
 35 45  1  0  0  0
 35 68  1  0  0  0
 36 56  1  0  0  0
 36105  1  0  0  0
 37 39  1  0  0  0
 37 47  1  0  0  0
 37 66  1  0  0  0
 37106  1  0  0  0
 38 43  2  0  0  0
 38 46  1  0  0  0
 38 47  1  0  0  0
 39 64  1  0  0  0
 39 67  2  0  0  0
 40 52  1  0  0  0
 40 53  2  0  0  0
 40 58  1  0  0  0
 41107  1  0  0  0
 41108  1  0  0  0
 41109  1  0  0  0
 41 48  1  0  0  0
 42 43  1  0  0  0
 42 66  1  0  0  0
 42110  1  0  0  0
 42111  1  0  0  0
 43 44  1  0  0  0
 44112  1  0  0  0
 45 46  2  0  0  0
 45113  1  0  0  0
 46114  1  0  0  0
 47115  1  0  0  0
 47116  1  0  0  0
 48 56  1  0  0  0
 48 65  1  0  0  0
 48117  1  0  0  0
 49 50  1  0  0  0
 49 53  1  0  0  0
 49 64  1  0  0  0
 49118  1  0  0  0
 50 51  1  0  0  0
 50119  1  0  0  0
 50120  1  0  0  0
 51 52  1  0  0  0
 51121  1  0  0  0
 51122  1  0  0  0
 52123  1  0  0  0
 52124  1  0  0  0
 53 54  1  0  0  0
 54 55  2  0  0  0
 54125  1  0  0  0
 55 57  1  0  0  0
 55126  1  0  0  0
 56 69  2  0  0  0
 57 58  2  0  0  0
 57127  1  0  0  0
 58128  1  0  0  0
 59 60  1  0  0  0
 59 61  1  0  0  0
 59 62  1  0  0  0
 60129  1  0  0  0
 60130  1  0  0  0
 60131  1  0  0  0
 61132  1  0  0  0
 61133  1  0  0  0
 61134  1  0  0  0
 62135  1  0  0  0
 62136  1  0  0  0
 62137  1  0  0  0
 63 65  1  0  0  0
 63138  1  0  0  0
 63139  1  0  0  0
 63140  1  0  0  0
 64141  1  0  0  0
 65142  1  0  0  0
 68 80  1  0  0  0
 71 72  2  0  0  0
 71 81  1  0  0  0
 71143  1  0  0  0
 72 75  1  0  0  0
 72 82  1  0  0  0
 73 74  1  0  0  0
 73 81  1  0  0  0
 73 82  2  0  0  0
 74144  1  0  0  0
 74145  1  0  0  0
 74146  1  0  0  0
 75 76  1  0  0  0
 75147  1  0  0  0
 75148  1  0  0  0
 76 79  1  0  0  0
 76149  1  0  0  0
 76150  1  0  0  0
 77 78  1  0  0  0
 77 80  1  0  0  0
 77151  1  0  0  0
 77152  1  0  0  0
 78 81  1  0  0  0
 78153  1  0  0  0
 78154  1  0  0  0
 79 83  1  0  0  0
 79155  1  0  0  0
 79156  1  0  0  0
 80157  1  0  0  0
 80158  1  0  0  0
 82159  1  0  0  0
 83160  1  0  0  0
M  CHG  1  82   1
M  ISO  4   1 100  68 101  80 101  83 100
M  END
> <chiral flag>
0

> <version>
0

> <s_m_source_file>
/data/baiqing/PycharmProjects/Reinvent-master-3.2/result/LINK_invent/BTK/process_docking_weight1_custom_sum_contain_oxygen_bond_distance_aromatic_linkinvent_7_9_3/rearranged_h_0079.sdf

> <i_m_source_file_index>
24

> <r_mmod_Potential_Energy-OPLS-2005>
-141.397384643555

> <r_mmod_Stretch_Energy-OPLS-2005>
30.9275360107422

> <r_mmod_Bend_Energy-OPLS-2005>
89.0141143798828

> <r_mmod_Torsional_Energy-OPLS-2005>
243.433929443359

> <r_mmod_Improper_Torsional_Energy-OPLS-2005>
2.35469174385071

> <r_mmod_Van_der_Waal_Energy-OPLS-2005>
122.582366943359

> <r_mmod_Electrostatic_Energy-OPLS-2005>
-214.415405273438

> <r_mmod_Solvation_Energy-OPLS-2005>
-423.855407714844

> <b_mmod_Minimization_Converged-OPLS-2005>
0

> <r_mmod_RMS_Derivative-OPLS-2005>
3.22732973098755

$$$$
24
                    3D
 Structure written by MMmdl.
166174  0  0  1  0            999 V2000
  -30.4984  -15.0205   20.3999 C   0  0  0  0  0  0
  -30.4376  -12.6277   19.5306 C   0  0  0  0  0  0
  -29.5296  -12.5439   18.2790 C   0  0  0  0  0  0
  -28.0626  -12.3199   18.6862 C   0  0  0  0  0  0
  -27.6272  -13.2548   19.8440 C   0  0  2  0  0  0
  -28.6610  -13.3047   20.9911 C   0  0  0  0  0  0
  -25.2436  -13.8224   20.5719 C   0  0  0  0  0  0
  -24.1763  -13.0436   20.9226 C   0  0  0  0  0  0
  -24.6389  -11.6925   20.8747 C   0  0  0  0  0  0
  -23.9081  -10.4291   21.0404 C   0  0  0  0  0  0
  -24.3628   -9.4206   21.9183 C   0  0  0  0  0  0
  -23.6302   -8.2241   22.0754 C   0  0  0  0  0  0
  -22.4285   -8.0279   21.3545 C   0  0  0  0  0  0
  -21.9921   -9.0250   20.4644 C   0  0  0  0  0  0
  -22.7252  -10.2128   20.3053 C   0  0  0  0  0  0
  -21.6853   -6.0739   22.5282 C   0  0  0  0  0  0
  -21.4014   -6.5646   23.8214 C   0  0  0  0  0  0
  -21.3656   -5.6798   24.9177 C   0  0  0  0  0  0
  -21.6045   -4.3060   24.7230 C   0  0  0  0  0  0
  -21.8817   -3.8149   23.4351 C   0  0  0  0  0  0
  -21.9195   -4.6966   22.3405 C   0  0  0  0  0  0
  -22.7785  -13.5198   21.1881 C   0  0  0  0  0  0
  -22.1664   -4.2150   21.0983 F   0  0  0  0  0  0
  -21.5625   -3.4544   25.7742 F   0  0  0  0  0  0
  -29.9368  -13.7353   20.4059 N   0  0  0  0  0  0
  -26.2861  -12.9464   20.3248 N   0  0  0  0  0  0
  -25.9321  -11.6584   20.5733 N   0  0  0  0  0  0
  -22.0446  -12.8180   22.0436 N   0  0  0  0  0  0
  -25.4120  -15.1949   20.4156 N   0  0  0  0  0  0
  -31.6785  -15.0912   20.0357 O   0  0  0  0  0  0
  -21.6648   -6.8877   21.4243 O   0  0  0  0  0  0
  -22.3463  -14.5502   20.6728 O   0  0  0  0  0  0
  -24.6455  -31.8360   23.1799 C   0  0  0  0  0  0
  -25.9204  -32.4664   23.8212 C   0  0  1  0  0  0
  -27.2250  -27.0856   20.1653 C   0  0  0  0  0  0
  -25.5940  -33.8473   24.2144 N   0  0  0  0  0  0
  -23.4538  -30.4503   21.5236 C   0  0  2  0  0  0
  -24.9062  -28.8620   20.1034 C   0  0  0  0  0  0
  -22.7590  -29.4495   22.4811 C   0  0  0  0  0  0
  -18.0312  -28.1398   22.8472 C   0  0  0  0  0  0
  -24.1487  -36.7241   23.2655 C   0  0  0  0  0  0
  -26.0097  -30.6950   21.3814 C   0  0  0  0  0  0
  -26.0794  -29.3000   20.7271 C   0  0  0  0  0  0
  -27.2336  -28.4255   20.7412 C   0  0  0  0  0  0
  -26.0269  -26.7516   19.4992 C   0  0  0  0  0  0
  -24.8946  -27.6044   19.4726 C   0  0  0  0  0  0
  -23.6834  -29.7695   20.1445 C   0  0  0  0  0  0
  -25.4123  -36.3021   24.0321 C   0  0  1  0  0  0
  -20.5930  -28.3714   23.1228 C   0  0  2  0  0  0
  -20.6789  -26.9409   22.5404 C   0  0  0  0  0  0
  -19.5772  -26.6377   21.5208 C   0  0  0  0  0  0
  -18.1953  -26.7936   22.1618 C   0  0  0  0  0  0
  -19.1571  -28.8872   23.2841 C   0  0  0  0  0  0
  -18.9490  -30.1469   23.8862 C   0  0  0  0  0  0
  -17.6487  -30.6587   24.0558 C   0  0  0  0  0  0
  -25.9074  -34.9399   23.5048 C   0  0  0  0  0  0
  -16.5376  -29.9081   23.6340 C   0  0  0  0  0  0
  -16.7298  -28.6509   23.0348 C   0  0  0  0  0  0
  -26.4520  -31.6553   25.0673 C   0  0  0  0  0  0
  -25.3704  -31.3746   26.1368 C   0  0  0  0  0  0
  -27.0396  -30.2958   24.6260 C   0  0  0  0  0  0
  -27.6050  -32.4316   25.7455 C   0  0  0  0  0  0
  -27.5567  -37.1769   24.8477 C   0  0  0  0  0  0
  -21.4271  -29.3034   22.3589 N   0  0  0  0  0  0
  -26.4278  -37.3741   23.9423 N   0  0  0  0  0  0
  -24.7233  -31.0175   22.0841 N   0  0  0  0  0  0
  -23.4213  -28.8063   23.3004 O   0  0  0  0  0  0
  -28.2979  -26.1168   20.2918 O   0  0  0  0  0  0
  -26.5680  -34.8909   22.4639 O   0  0  0  0  0  0
  -23.5560  -32.1252   23.6986 O   0  0  0  0  0  0
  -28.5339  -20.2666   20.1168 C   0  0  0  0  0  0
  -30.2216  -21.2867   20.9893 C   0  0  0  0  0  0
  -28.9624  -21.6387   20.5451 C   0  0  0  0  0  0
  -29.4608  -19.1859   20.3075 C   0  0  0  0  0  0
  -28.4474  -17.3445   18.8120 C   0  0  0  0  0  0
  -31.8108  -19.1605   22.8297 C   0  0  0  0  0  0
  -33.0011  -20.0931   20.7761 C   0  0  0  0  0  0
  -28.5901  -23.5973   22.1820 C   0  0  0  0  0  0
  -26.7023  -22.8817   20.7444 C   0  0  0  0  0  0
  -28.3958  -24.6003   19.8479 C   0  0  0  0  0  0
  -29.5946  -17.5894   19.8038 C   0  0  2  0  0  0
  -31.7865  -19.3099   21.3023 C   0  0  0  0  0  0
  -28.2146  -23.1585   20.7540 C   0  0  0  0  0  0
  -30.5227  -19.9042   20.8675 N   0  0  0  0  0  0
  -29.7132  -16.2082   20.6028 N   0  0  0  0  0  0
  -31.4723  -12.7857   19.2238 H   0  0  0  0  0  0
  -30.4366  -11.6803   20.0718 H   0  0  0  0  0  0
  -29.8628  -11.7405   17.6203 H   0  0  0  0  0  0
  -29.6141  -13.4674   17.7030 H   0  0  0  0  0  0
  -27.9612  -11.2790   18.9956 H   0  0  0  0  0  0
  -27.4052  -12.4469   17.8256 H   0  0  0  0  0  0
  -27.5841  -14.2530   19.4077 H   0  0  0  0  0  0
  -28.7550  -12.3329   21.4780 H   0  0  0  0  0  0
  -28.3403  -14.0056   21.7633 H   0  0  0  0  0  0
  -25.2768   -9.5689   22.4762 H   0  0  0  0  0  0
  -24.0014   -7.4633   22.7469 H   0  0  0  0  0  0
  -21.0855   -8.8763   19.8946 H   0  0  0  0  0  0
  -22.3704  -10.9668   19.6161 H   0  0  0  0  0  0
  -21.2007   -7.6154   23.9716 H   0  0  0  0  0  0
  -21.1477   -6.0532   25.9080 H   0  0  0  0  0  0
  -22.0598   -2.7614   23.2853 H   0  0  0  0  0  0
  -22.4086  -11.9855   22.4828 H   0  0  0  0  0  0
  -21.1045  -13.1169   22.2622 H   0  0  0  0  0  0
  -24.6437  -15.8474   20.5271 H   0  0  0  0  0  0
  -26.2557  -15.6318   20.0703 H   0  0  0  0  0  0
  -26.7263  -32.5254   23.0928 H   0  0  0  0  0  0
  -25.0075  -33.9574   25.0285 H   0  0  0  0  0  0
  -22.7604  -31.2768   21.3602 H   0  0  0  0  0  0
  -23.3765  -35.9558   23.3305 H   0  0  0  0  0  0
  -24.3572  -36.8880   22.2071 H   0  0  0  0  0  0
  -23.7218  -37.6426   23.6691 H   0  0  0  0  0  0
  -26.1663  -31.4440   20.6038 H   0  0  0  0  0  0
  -26.8804  -30.7524   22.0225 H   0  0  0  0  0  0
  -28.1242  -28.7522   21.2597 H   0  0  0  0  0  0
  -25.9361  -25.7833   19.0288 H   0  0  0  0  0  0
  -23.9986  -27.2617   18.9737 H   0  0  0  0  0  0
  -23.8225  -30.5392   19.3849 H   0  0  0  0  0  0
  -22.7975  -29.2121   19.8357 H   0  0  0  0  0  0
  -25.1306  -36.1839   25.0810 H   0  0  0  0  0  0
  -21.0021  -28.3297   24.1350 H   0  0  0  0  0  0
  -20.5669  -26.2320   23.3620 H   0  0  0  0  0  0
  -21.6653  -26.7404   22.1207 H   0  0  0  0  0  0
  -19.6928  -25.6283   21.1248 H   0  0  0  0  0  0
  -19.6721  -27.3183   20.6737 H   0  0  0  0  0  0
  -17.4221  -26.6682   21.4018 H   0  0  0  0  0  0
  -18.0334  -26.0092   22.9025 H   0  0  0  0  0  0
  -19.7968  -30.7287   24.2209 H   0  0  0  0  0  0
  -17.5057  -31.6267   24.5163 H   0  0  0  0  0  0
  -15.5375  -30.2979   23.7687 H   0  0  0  0  0  0
  -15.8703  -28.0823   22.7064 H   0  0  0  0  0  0
  -24.5932  -30.7031   25.7704 H   0  0  0  0  0  0
  -24.8840  -32.2920   26.4692 H   0  0  0  0  0  0
  -25.8006  -30.9011   27.0206 H   0  0  0  0  0  0
  -26.3014  -29.6678   24.1263 H   0  0  0  0  0  0
  -27.4034  -29.7251   25.4819 H   0  0  0  0  0  0
  -27.8905  -30.4230   23.9569 H   0  0  0  0  0  0
  -27.2664  -33.3670   26.1920 H   0  0  0  0  0  0
  -28.3917  -32.6781   25.0309 H   0  0  0  0  0  0
  -28.0660  -31.8507   26.5456 H   0  0  0  0  0  0
  -28.2571  -38.0075   24.7512 H   0  0  0  0  0  0
  -28.1068  -36.2597   24.6311 H   0  0  0  0  0  0
  -27.2284  -37.1424   25.8881 H   0  0  0  0  0  0
  -20.9491  -29.8759   21.6771 H   0  0  0  0  0  0
  -26.0149  -38.2807   24.1441 H   0  0  0  0  0  0
  -27.5632  -20.0801   19.6775 H   0  0  0  0  0  0
  -30.9623  -21.9302   21.4443 H   0  0  0  0  0  0
  -28.4415  -18.0957   18.0216 H   0  0  0  0  0  0
  -27.4797  -17.3878   19.3124 H   0  0  0  0  0  0
  -28.5282  -16.3716   18.3266 H   0  0  0  0  0  0
  -32.7385  -18.6974   23.1673 H   0  0  0  0  0  0
  -30.9872  -18.5304   23.1669 H   0  0  0  0  0  0
  -31.7200  -20.1244   23.3300 H   0  0  0  0  0  0
  -33.9275  -19.5632   20.9964 H   0  0  0  0  0  0
  -33.0791  -21.0835   21.2239 H   0  0  0  0  0  0
  -32.9494  -20.2172   19.6941 H   0  0  0  0  0  0
  -28.3549  -22.8267   22.9172 H   0  0  0  0  0  0
  -28.0541  -24.4996   22.4781 H   0  0  0  0  0  0
  -29.6542  -23.8195   22.2609 H   0  0  0  0  0  0
  -26.4268  -22.1168   21.4718 H   0  0  0  0  0  0
  -26.3739  -22.5356   19.7644 H   0  0  0  0  0  0
  -26.1313  -23.7789   20.9858 H   0  0  0  0  0  0
  -29.4326  -24.5500   19.5154 H   0  0  0  0  0  0
  -27.8328  -24.4922   18.9209 H   0  0  0  0  0  0
  -30.4943  -17.5734   19.1864 H   0  0  0  0  0  0
  -31.8585  -18.3077   20.8813 H   0  0  0  0  0  0
  -28.8567  -15.9982   21.0935 H   0  0  0  0  0  0
  1 25  1  0  0  0
  1 30  2  0  0  0
  1 85  1  0  0  0
  2  3  1  0  0  0
  2 25  1  0  0  0
  2 86  1  0  0  0
  2 87  1  0  0  0
  3  4  1  0  0  0
  3 88  1  0  0  0
  3 89  1  0  0  0
  4  5  1  0  0  0
  4 90  1  0  0  0
  4 91  1  0  0  0
  5  6  1  0  0  0
  5 26  1  0  0  0
  5 92  1  0  0  0
  6 25  1  0  0  0
  6 93  1  0  0  0
  6 94  1  0  0  0
  7  8  2  0  0  0
  7 26  1  0  0  0
  7 29  1  0  0  0
  8  9  1  0  0  0
  8 22  1  0  0  0
  9 10  1  0  0  0
  9 27  2  0  0  0
 10 11  2  0  0  0
 10 15  1  0  0  0
 11 12  1  0  0  0
 11 95  1  0  0  0
 12 13  2  0  0  0
 12 96  1  0  0  0
 13 14  1  0  0  0
 13 31  1  0  0  0
 14 15  2  0  0  0
 14 97  1  0  0  0
 15 98  1  0  0  0
 16 17  2  0  0  0
 16 21  1  0  0  0
 16 31  1  0  0  0
 17 18  1  0  0  0
 17 99  1  0  0  0
 18 19  2  0  0  0
 18100  1  0  0  0
 19 20  1  0  0  0
 19 24  1  0  0  0
 20 21  2  0  0  0
 20101  1  0  0  0
 21 23  1  0  0  0
 22 28  1  0  0  0
 22 32  2  0  0  0
 26 27  1  0  0  0
 28102  1  0  0  0
 28103  1  0  0  0
 29104  1  0  0  0
 29105  1  0  0  0
 33 34  1  0  0  0
 33 66  1  0  0  0
 33 70  2  0  0  0
 34 36  1  0  0  0
 34 59  1  0  0  0
 34106  1  0  0  0
 35 44  2  0  0  0
 35 45  1  0  0  0
 35 68  1  0  0  0
 36 56  1  0  0  0
 36107  1  0  0  0
 37 39  1  0  0  0
 37 47  1  0  0  0
 37 66  1  0  0  0
 37108  1  0  0  0
 38 43  2  0  0  0
 38 46  1  0  0  0
 38 47  1  0  0  0
 39 64  1  0  0  0
 39 67  2  0  0  0
 40 52  1  0  0  0
 40 53  2  0  0  0
 40 58  1  0  0  0
 41109  1  0  0  0
 41110  1  0  0  0
 41111  1  0  0  0
 41 48  1  0  0  0
 42 43  1  0  0  0
 42 66  1  0  0  0
 42112  1  0  0  0
 42113  1  0  0  0
 43 44  1  0  0  0
 44114  1  0  0  0
 45 46  2  0  0  0
 45115  1  0  0  0
 46116  1  0  0  0
 47117  1  0  0  0
 47118  1  0  0  0
 48 56  1  0  0  0
 48 65  1  0  0  0
 48119  1  0  0  0
 49 50  1  0  0  0
 49 53  1  0  0  0
 49 64  1  0  0  0
 49120  1  0  0  0
 50 51  1  0  0  0
 50121  1  0  0  0
 50122  1  0  0  0
 51 52  1  0  0  0
 51123  1  0  0  0
 51124  1  0  0  0
 52125  1  0  0  0
 52126  1  0  0  0
 53 54  1  0  0  0
 54 55  2  0  0  0
 54127  1  0  0  0
 55 57  1  0  0  0
 55128  1  0  0  0
 56 69  2  0  0  0
 57 58  2  0  0  0
 57129  1  0  0  0
 58130  1  0  0  0
 59 60  1  0  0  0
 59 61  1  0  0  0
 59 62  1  0  0  0
 60131  1  0  0  0
 60132  1  0  0  0
 60133  1  0  0  0
 61134  1  0  0  0
 61135  1  0  0  0
 61136  1  0  0  0
 62137  1  0  0  0
 62138  1  0  0  0
 62139  1  0  0  0
 63 65  1  0  0  0
 63140  1  0  0  0
 63141  1  0  0  0
 63142  1  0  0  0
 64143  1  0  0  0
 65144  1  0  0  0
 68 80  1  0  0  0
 71 73  1  0  0  0
 71 74  2  0  0  0
 71145  1  0  0  0
 72 73  2  0  0  0
 72 84  1  0  0  0
 72146  1  0  0  0
 73 83  1  0  0  0
 74 81  1  0  0  0
 74 84  1  0  0  0
 75147  1  0  0  0
 75148  1  0  0  0
 75149  1  0  0  0
 75 81  1  0  0  0
 76150  1  0  0  0
 76151  1  0  0  0
 76152  1  0  0  0
 76 82  1  0  0  0
 77 82  1  0  0  0
 77153  1  0  0  0
 77154  1  0  0  0
 77155  1  0  0  0
 78156  1  0  0  0
 78157  1  0  0  0
 78158  1  0  0  0
 78 83  1  0  0  0
 79 83  1  0  0  0
 79159  1  0  0  0
 79160  1  0  0  0
 79161  1  0  0  0
 80 83  1  0  0  0
 80162  1  0  0  0
 80163  1  0  0  0
 81 85  1  0  0  0
 81164  1  0  0  0
 82 84  1  0  0  0
 82165  1  0  0  0
 85166  1  0  0  0
M  ISO  4   1 100  68 101  80 101  85 100
M  END
> <chiral flag>
0

> <version>
0

> <s_m_source_file>
/data/baiqing/PycharmProjects/Reinvent-master-3.2/result/LINK_invent/BTK/process_docking_weight1_custom_sum_contain_oxygen_bond_distance_aromatic_linkinvent_7_9_3/rearranged_h_0079.sdf

> <i_m_source_file_index>
25

> <r_mmod_Potential_Energy-OPLS-2005>
639.440246582031

> <r_mmod_Stretch_Energy-OPLS-2005>
324.197143554688

> <r_mmod_Bend_Energy-OPLS-2005>
349.901336669922

> <r_mmod_Torsional_Energy-OPLS-2005>
262.459564208984

> <r_mmod_Improper_Torsional_Energy-OPLS-2005>
8.88305473327637

> <r_mmod_Van_der_Waal_Energy-OPLS-2005>
98.9193344116211

> <r_mmod_Electrostatic_Energy-OPLS-2005>
-448.747009277344

> <r_mmod_Solvation_Energy-OPLS-2005>
-197.748718261719

> <b_mmod_Minimization_Converged-OPLS-2005>
0

> <r_mmod_RMS_Derivative-OPLS-2005>
1.76079487800598

$$$$
25
                    3D
 Structure written by MMmdl.
168176  0  0  1  0            999 V2000
  -30.5946  -14.7210   20.4747 C   0  0  0  0  0  0
  -30.4360  -12.4322   19.4672 C   0  0  0  0  0  0
  -29.4981  -12.5016   18.2372 C   0  0  0  0  0  0
  -28.0237  -12.3345   18.6582 C   0  0  0  0  0  0
  -27.6412  -13.2350   19.8622 C   0  0  2  0  0  0
  -28.6942  -13.1209   20.9886 C   0  0  0  0  0  0
  -25.2425  -13.8178   20.5751 C   0  0  0  0  0  0
  -24.1728  -13.0349   20.9216 C   0  0  0  0  0  0
  -24.6367  -11.6855   20.8767 C   0  0  0  0  0  0
  -23.9042  -10.4223   21.0416 C   0  0  0  0  0  0
  -24.3606   -9.4132   21.9178 C   0  0  0  0  0  0
  -23.6280   -8.2162   22.0754 C   0  0  0  0  0  0
  -22.4254   -8.0224   21.3548 C   0  0  0  0  0  0
  -21.9893   -9.0170   20.4623 C   0  0  0  0  0  0
  -22.7223  -10.2052   20.3043 C   0  0  0  0  0  0
  -21.6812   -6.0691   22.5268 C   0  0  0  0  0  0
  -21.3996   -6.5617   23.8192 C   0  0  0  0  0  0
  -21.3672   -5.6798   24.9174 C   0  0  0  0  0  0
  -21.6059   -4.3060   24.7229 C   0  0  0  0  0  0
  -21.8819   -3.8123   23.4361 C   0  0  0  0  0  0
  -21.9169   -4.6927   22.3413 C   0  0  0  0  0  0
  -22.7738  -13.5079   21.1893 C   0  0  0  0  0  0
  -22.1651   -4.2104   21.0990 F   0  0  0  0  0  0
  -21.5632   -3.4557   25.7753 F   0  0  0  0  0  0
  -30.0039  -13.4767   20.4238 N   0  0  0  0  0  0
  -26.2909  -12.9422   20.3378 N   0  0  0  0  0  0
  -25.9320  -11.6541   20.5833 N   0  0  0  0  0  0
  -22.0455  -12.8027   22.0513 N   0  0  0  0  0  0
  -25.3951  -15.1931   20.4250 N   0  0  0  0  0  0
  -31.7744  -14.8418   20.1310 O   0  0  0  0  0  0
  -21.6620   -6.8827   21.4236 O   0  0  0  0  0  0
  -22.3344  -14.5321   20.6738 O   0  0  0  0  0  0
  -24.6330  -31.8517   23.1905 C   0  0  0  0  0  0
  -25.9134  -32.4727   23.8273 C   0  0  1  0  0  0
  -27.2259  -27.2413   20.1442 C   0  0  0  0  0  0
  -25.5913  -33.8524   24.2199 N   0  0  0  0  0  0
  -23.4336  -30.4709   21.5317 C   0  0  2  0  0  0
  -24.8814  -28.9084   20.1104 C   0  0  0  0  0  0
  -22.7497  -29.4614   22.4867 C   0  0  0  0  0  0
  -18.0285  -28.1440   22.8459 C   0  0  0  0  0  0
  -24.1490  -36.7253   23.2647 C   0  0  0  0  0  0
  -25.9773  -30.7595   21.3716 C   0  0  0  0  0  0
  -26.0520  -29.3760   20.7233 C   0  0  0  0  0  0
  -27.2288  -28.5584   20.7208 C   0  0  0  0  0  0
  -26.0296  -26.8324   19.5250 C   0  0  0  0  0  0
  -24.8815  -27.6494   19.4868 C   0  0  0  0  0  0
  -23.6511  -29.7960   20.1518 C   0  0  0  0  0  0
  -25.4134  -36.3054   24.0317 C   0  0  1  0  0  0
  -20.5889  -28.3768   23.1230 C   0  0  2  0  0  0
  -20.6765  -26.9483   22.5395 C   0  0  0  0  0  0
  -19.5739  -26.6412   21.5211 C   0  0  0  0  0  0
  -18.1916  -26.7969   22.1620 C   0  0  0  0  0  0
  -19.1539  -28.8921   23.2831 C   0  0  0  0  0  0
  -18.9456  -30.1510   23.8867 C   0  0  0  0  0  0
  -17.6455  -30.6617   24.0574 C   0  0  0  0  0  0
  -25.9072  -34.9428   23.5076 C   0  0  0  0  0  0
  -16.5351  -29.9126   23.6326 C   0  0  0  0  0  0
  -16.7269  -28.6556   23.0325 C   0  0  0  0  0  0
  -26.4481  -31.6573   25.0683 C   0  0  0  0  0  0
  -25.3675  -31.3718   26.1377 C   0  0  0  0  0  0
  -27.0326  -30.2985   24.6179 C   0  0  0  0  0  0
  -27.6010  -32.4362   25.7456 C   0  0  0  0  0  0
  -27.5592  -37.1791   24.8465 C   0  0  0  0  0  0
  -21.4199  -29.3099   22.3603 N   0  0  0  0  0  0
  -26.4296  -37.3774   23.9416 N   0  0  0  0  0  0
  -24.7001  -31.0471   22.0878 N   0  0  0  0  0  0
  -23.4168  -28.8162   23.2989 O   0  0  0  0  0  0
  -28.3405  -26.3688   20.1091 O   0  0  0  0  0  0
  -26.5669  -34.8916   22.4660 O   0  0  0  0  0  0
  -23.5475  -32.1352   23.7193 O   0  0  0  0  0  0
  -31.2266  -20.3872   21.2149 C   0  0  0  0  0  0
  -30.9024  -22.6339   20.6727 C   0  0  0  0  0  0
  -29.5248  -22.4159   20.3719 C   0  0  0  0  0  0
  -29.9096  -20.0584   20.8182 C   0  0  0  0  0  0
  -33.5575  -24.7575   18.8175 C   0  0  0  0  0  0
  -26.1711  -22.7341   19.6352 C   0  0  0  0  0  0
  -27.2904  -23.7545   17.5361 C   0  0  0  0  0  0
  -31.6454  -23.9307   20.3534 C   0  0  0  0  0  0
  -29.7269  -16.0518   20.7311 C   0  0  0  0  0  0
  -32.3072  -23.8777   18.9576 C   0  0  0  0  0  0
  -30.3670  -17.5419   20.7467 C   0  0  0  0  0  0
  -28.2560  -24.9454   20.6120 C   0  0  0  0  0  0
  -28.6378  -23.6039   19.7406 C   0  0  2  0  0  0
  -27.4825  -23.0093   18.8685 C   0  0  0  0  0  0
  -31.7132  -21.6477   21.1394 N   0  0  0  0  0  0
  -29.0522  -21.0989   20.4661 N   0  0  0  0  0  0
  -29.4379  -18.7154   20.7657 O   0  0  0  0  0  0
  -31.4776  -12.5426   19.1627 H   0  0  0  0  0  0
  -30.3741  -11.4484   19.9348 H   0  0  0  0  0  0
  -29.7568  -11.7250   17.5169 H   0  0  0  0  0  0
  -29.6255  -13.4557   17.7220 H   0  0  0  0  0  0
  -27.8754  -11.2913   18.9360 H   0  0  0  0  0  0
  -27.3591  -12.5250   17.8153 H   0  0  0  0  0  0
  -27.6368  -14.2582   19.4915 H   0  0  0  0  0  0
  -28.7194  -12.1014   21.3737 H   0  0  0  0  0  0
  -28.4436  -13.7479   21.8432 H   0  0  0  0  0  0
  -25.2747   -9.5585   22.4748 H   0  0  0  0  0  0
  -23.9962   -7.4551   22.7494 H   0  0  0  0  0  0
  -21.0808   -8.8663   19.8931 H   0  0  0  0  0  0
  -22.3665  -10.9578   19.6143 H   0  0  0  0  0  0
  -21.2004   -7.6125   23.9673 H   0  0  0  0  0  0
  -21.1510   -6.0546   25.9066 H   0  0  0  0  0  0
  -22.0600   -2.7579   23.2877 H   0  0  0  0  0  0
  -22.4189  -11.9748   22.4932 H   0  0  0  0  0  0
  -21.1050  -13.0932   22.2759 H   0  0  0  0  0  0
  -24.6086  -15.8253   20.5464 H   0  0  0  0  0  0
  -26.2390  -15.6621   20.1244 H   0  0  0  0  0  0
  -26.7212  -32.5391   23.1025 H   0  0  0  0  0  0
  -25.0020  -33.9628   25.0319 H   0  0  0  0  0  0
  -22.7363  -31.2967   21.3790 H   0  0  0  0  0  0
  -23.3782  -35.9551   23.3292 H   0  0  0  0  0  0
  -24.3572  -36.8909   22.2065 H   0  0  0  0  0  0
  -23.7207  -37.6428   23.6689 H   0  0  0  0  0  0
  -26.1125  -31.5152   20.5971 H   0  0  0  0  0  0
  -26.8561  -30.8177   22.0022 H   0  0  0  0  0  0
  -28.1303  -28.9185   21.1980 H   0  0  0  0  0  0
  -25.9746  -25.8602   19.0656 H   0  0  0  0  0  0
  -23.9984  -27.2942   18.9749 H   0  0  0  0  0  0
  -23.7650  -30.5649   19.3858 H   0  0  0  0  0  0
  -22.7713  -29.2191   19.8566 H   0  0  0  0  0  0
  -25.1330  -36.1879   25.0810 H   0  0  0  0  0  0
  -20.9978  -28.3385   24.1353 H   0  0  0  0  0  0
  -20.5675  -26.2404   23.3619 H   0  0  0  0  0  0
  -21.6632  -26.7489   22.1201 H   0  0  0  0  0  0
  -19.6899  -25.6309   21.1278 H   0  0  0  0  0  0
  -19.6655  -27.3185   20.6704 H   0  0  0  0  0  0
  -17.4176  -26.6702   21.4031 H   0  0  0  0  0  0
  -18.0308  -26.0125   22.9039 H   0  0  0  0  0  0
  -19.7938  -30.7333   24.2212 H   0  0  0  0  0  0
  -17.5016  -31.6283   24.5202 H   0  0  0  0  0  0
  -15.5356  -30.3035   23.7647 H   0  0  0  0  0  0
  -15.8668  -28.0887   22.7029 H   0  0  0  0  0  0
  -24.5834  -30.7100   25.7673 H   0  0  0  0  0  0
  -24.8863  -32.2880   26.4812 H   0  0  0  0  0  0
  -25.7950  -30.8860   27.0155 H   0  0  0  0  0  0
  -26.2898  -29.6742   24.1194 H   0  0  0  0  0  0
  -27.3987  -29.7239   25.4701 H   0  0  0  0  0  0
  -27.8782  -30.4253   23.9415 H   0  0  0  0  0  0
  -27.2568  -33.3673   26.1976 H   0  0  0  0  0  0
  -28.3805  -32.6947   25.0275 H   0  0  0  0  0  0
  -28.0678  -31.8546   26.5409 H   0  0  0  0  0  0
  -28.2596  -38.0109   24.7579 H   0  0  0  0  0  0
  -28.1109  -36.2649   24.6233 H   0  0  0  0  0  0
  -27.2293  -37.1361   25.8859 H   0  0  0  0  0  0
  -20.9392  -29.8863   21.6837 H   0  0  0  0  0  0
  -26.0168  -38.2835   24.1454 H   0  0  0  0  0  0
  -31.9121  -19.6431   21.5902 H   0  0  0  0  0  0
  -33.9241  -24.7421   17.7898 H   0  0  0  0  0  0
  -34.3683  -24.3945   19.4513 H   0  0  0  0  0  0
  -33.3544  -25.7951   19.0826 H   0  0  0  0  0  0
  -25.5211  -22.0614   19.0737 H   0  0  0  0  0  0
  -25.5988  -23.6342   19.8538 H   0  0  0  0  0  0
  -26.3766  -22.2353   20.5819 H   0  0  0  0  0  0
  -26.4604  -23.3481   16.9531 H   0  0  0  0  0  0
  -28.1850  -23.6452   16.9209 H   0  0  0  0  0  0
  -27.1322  -24.8206   17.6647 H   0  0  0  0  0  0
  -32.3982  -24.0938   21.1262 H   0  0  0  0  0  0
  -30.9901  -24.7966   20.4127 H   0  0  0  0  0  0
  -28.9985  -16.0574   19.9229 H   0  0  0  0  0  0
  -29.1484  -15.9156   21.6414 H   0  0  0  0  0  0
  -32.6082  -22.8524   18.7336 H   0  0  0  0  0  0
  -31.5736  -24.1477   18.1964 H   0  0  0  0  0  0
  -31.0050  -17.6515   19.8698 H   0  0  0  0  0  0
  -31.0326  -17.6096   21.6085 H   0  0  0  0  0  0
  -28.9827  -24.9646   21.4252 H   0  0  0  0  0  0
  -27.3157  -24.7901   21.1408 H   0  0  0  0  0  0
  -29.3331  -23.9845   18.9953 H   0  0  0  0  0  0
  -27.8058  -22.0286   18.5220 H   0  0  0  0  0  0
  1 25  1  0  0  0
  1 30  2  0  0  0
  1 79  1  0  0  0
  2  3  1  0  0  0
  2 25  1  0  0  0
  2 88  1  0  0  0
  2 89  1  0  0  0
  3  4  1  0  0  0
  3 90  1  0  0  0
  3 91  1  0  0  0
  4  5  1  0  0  0
  4 92  1  0  0  0
  4 93  1  0  0  0
  5  6  1  0  0  0
  5 26  1  0  0  0
  5 94  1  0  0  0
  6 25  1  0  0  0
  6 95  1  0  0  0
  6 96  1  0  0  0
  7  8  2  0  0  0
  7 26  1  0  0  0
  7 29  1  0  0  0
  8  9  1  0  0  0
  8 22  1  0  0  0
  9 10  1  0  0  0
  9 27  2  0  0  0
 10 11  2  0  0  0
 10 15  1  0  0  0
 11 12  1  0  0  0
 11 97  1  0  0  0
 12 13  2  0  0  0
 12 98  1  0  0  0
 13 14  1  0  0  0
 13 31  1  0  0  0
 14 15  2  0  0  0
 14 99  1  0  0  0
 15100  1  0  0  0
 16 17  2  0  0  0
 16 21  1  0  0  0
 16 31  1  0  0  0
 17 18  1  0  0  0
 17101  1  0  0  0
 18 19  2  0  0  0
 18102  1  0  0  0
 19 20  1  0  0  0
 19 24  1  0  0  0
 20 21  2  0  0  0
 20103  1  0  0  0
 21 23  1  0  0  0
 22 28  1  0  0  0
 22 32  2  0  0  0
 26 27  1  0  0  0
 28104  1  0  0  0
 28105  1  0  0  0
 29106  1  0  0  0
 29107  1  0  0  0
 33 34  1  0  0  0
 33 66  1  0  0  0
 33 70  2  0  0  0
 34 36  1  0  0  0
 34 59  1  0  0  0
 34108  1  0  0  0
 35 44  2  0  0  0
 35 45  1  0  0  0
 35 68  1  0  0  0
 36 56  1  0  0  0
 36109  1  0  0  0
 37 39  1  0  0  0
 37 47  1  0  0  0
 37 66  1  0  0  0
 37110  1  0  0  0
 38 43  2  0  0  0
 38 46  1  0  0  0
 38 47  1  0  0  0
 39 64  1  0  0  0
 39 67  2  0  0  0
 40 52  1  0  0  0
 40 53  2  0  0  0
 40 58  1  0  0  0
 41111  1  0  0  0
 41112  1  0  0  0
 41113  1  0  0  0
 41 48  1  0  0  0
 42 43  1  0  0  0
 42 66  1  0  0  0
 42114  1  0  0  0
 42115  1  0  0  0
 43 44  1  0  0  0
 44116  1  0  0  0
 45 46  2  0  0  0
 45117  1  0  0  0
 46118  1  0  0  0
 47119  1  0  0  0
 47120  1  0  0  0
 48 56  1  0  0  0
 48 65  1  0  0  0
 48121  1  0  0  0
 49 50  1  0  0  0
 49 53  1  0  0  0
 49 64  1  0  0  0
 49122  1  0  0  0
 50 51  1  0  0  0
 50123  1  0  0  0
 50124  1  0  0  0
 51 52  1  0  0  0
 51125  1  0  0  0
 51126  1  0  0  0
 52127  1  0  0  0
 52128  1  0  0  0
 53 54  1  0  0  0
 54 55  2  0  0  0
 54129  1  0  0  0
 55 57  1  0  0  0
 55130  1  0  0  0
 56 69  2  0  0  0
 57 58  2  0  0  0
 57131  1  0  0  0
 58132  1  0  0  0
 59 60  1  0  0  0
 59 61  1  0  0  0
 59 62  1  0  0  0
 60133  1  0  0  0
 60134  1  0  0  0
 60135  1  0  0  0
 61136  1  0  0  0
 61137  1  0  0  0
 61138  1  0  0  0
 62139  1  0  0  0
 62140  1  0  0  0
 62141  1  0  0  0
 63 65  1  0  0  0
 63142  1  0  0  0
 63143  1  0  0  0
 63144  1  0  0  0
 64145  1  0  0  0
 65146  1  0  0  0
 68 82  1  0  0  0
 71 74  2  0  0  0
 71 85  1  0  0  0
 71147  1  0  0  0
 72 73  1  0  0  0
 72 78  1  0  0  0
 72 85  2  0  0  0
 73 83  1  0  0  0
 73 86  2  0  0  0
 74 86  1  0  0  0
 74 87  1  0  0  0
 75 80  1  0  0  0
 75148  1  0  0  0
 75149  1  0  0  0
 75150  1  0  0  0
 76151  1  0  0  0
 76152  1  0  0  0
 76153  1  0  0  0
 76 84  1  0  0  0
 77 84  1  0  0  0
 77154  1  0  0  0
 77155  1  0  0  0
 77156  1  0  0  0
 78 80  1  0  0  0
 78157  1  0  0  0
 78158  1  0  0  0
 79 81  1  0  0  0
 79159  1  0  0  0
 79160  1  0  0  0
 80161  1  0  0  0
 80162  1  0  0  0
 81 87  1  0  0  0
 81163  1  0  0  0
 81164  1  0  0  0
 82165  1  0  0  0
 82166  1  0  0  0
 82 83  1  0  0  0
 83 84  1  0  0  0
 83167  1  0  0  0
 84168  1  0  0  0
M  ISO  4   1 100  68 101  79 100  82 101
M  END
> <chiral flag>
0

> <version>
0

> <s_m_source_file>
/data/baiqing/PycharmProjects/Reinvent-master-3.2/result/LINK_invent/BTK/process_docking_weight1_custom_sum_contain_oxygen_bond_distance_aromatic_linkinvent_7_9_3/rearranged_h_0079.sdf

> <i_m_source_file_index>
26

> <r_mmod_Potential_Energy-OPLS-2005>
357.151031494141

> <r_mmod_Stretch_Energy-OPLS-2005>
142.920059204102

> <r_mmod_Bend_Energy-OPLS-2005>
197.329986572266

> <r_mmod_Torsional_Energy-OPLS-2005>
223.055541992188

> <r_mmod_Improper_Torsional_Energy-OPLS-2005>
6.09489345550537

> <r_mmod_Van_der_Waal_Energy-OPLS-2005>
137.369125366211

> <r_mmod_Electrostatic_Energy-OPLS-2005>
-230.098907470703

> <r_mmod_Solvation_Energy-OPLS-2005>
-198.865524291992

> <b_mmod_Minimization_Converged-OPLS-2005>
0

> <r_mmod_RMS_Derivative-OPLS-2005>
5.33988523483276

$$$$
26
                    3D
 Structure written by MMmdl.
166174  0  0  1  0            999 V2000
  -30.6183  -14.6034   20.5119 C   0  0  0  0  0  0
  -30.4451  -12.3780   19.4425 C   0  0  0  0  0  0
  -29.4961  -12.4952   18.2262 C   0  0  0  0  0  0
  -28.0180  -12.3487   18.6431 C   0  0  0  0  0  0
  -27.6552  -13.2024   19.8867 C   0  0  2  0  0  0
  -28.7062  -13.0300   21.0064 C   0  0  0  0  0  0
  -25.2546  -13.8139   20.5718 C   0  0  0  0  0  0
  -24.1784  -13.0407   20.9204 C   0  0  0  0  0  0
  -24.6343  -11.6887   20.8788 C   0  0  0  0  0  0
  -23.9019  -10.4275   21.0431 C   0  0  0  0  0  0
  -24.3577   -9.4174   21.9166 C   0  0  0  0  0  0
  -23.6248   -8.2215   22.0736 C   0  0  0  0  0  0
  -22.4234   -8.0259   21.3548 C   0  0  0  0  0  0
  -21.9877   -9.0226   20.4653 C   0  0  0  0  0  0
  -22.7212  -10.2103   20.3069 C   0  0  0  0  0  0
  -21.6827   -6.0708   22.5254 C   0  0  0  0  0  0
  -21.4004   -6.5615   23.8183 C   0  0  0  0  0  0
  -21.3663   -5.6776   24.9151 C   0  0  0  0  0  0
  -21.6058   -4.3037   24.7205 C   0  0  0  0  0  0
  -21.8815   -3.8122   23.4328 C   0  0  0  0  0  0
  -21.9183   -4.6936   22.3379 C   0  0  0  0  0  0
  -22.7808  -13.5217   21.1835 C   0  0  0  0  0  0
  -22.1645   -4.2114   21.0959 F   0  0  0  0  0  0
  -21.5645   -3.4529   25.7726 F   0  0  0  0  0  0
  -30.0205  -13.3764   20.4398 N   0  0  0  0  0  0
  -26.2983  -12.9290   20.3485 N   0  0  0  0  0  0
  -25.9288  -11.6460   20.5884 N   0  0  0  0  0  0
  -22.0452  -12.8224   22.0420 N   0  0  0  0  0  0
  -25.4276  -15.1833   20.4093 N   0  0  0  0  0  0
  -31.7734  -14.7956   20.1220 O   0  0  0  0  0  0
  -21.6618   -6.8846   21.4220 O   0  0  0  0  0  0
  -22.3506  -14.5499   20.6664 O   0  0  0  0  0  0
  -24.6193  -31.8611   23.2051 C   0  0  0  0  0  0
  -25.9070  -32.4778   23.8370 C   0  0  1  0  0  0
  -27.2337  -27.3876   20.1221 C   0  0  0  0  0  0
  -25.5904  -33.8581   24.2300 N   0  0  0  0  0  0
  -23.4114  -30.4869   21.5397 C   0  0  2  0  0  0
  -24.8620  -28.9412   20.1149 C   0  0  0  0  0  0
  -22.7430  -29.4650   22.4893 C   0  0  0  0  0  0
  -18.0291  -28.1383   22.8482 C   0  0  0  0  0  0
  -24.1479  -36.7311   23.2636 C   0  0  0  0  0  0
  -25.9433  -30.8150   21.3648 C   0  0  0  0  0  0
  -26.0224  -29.4436   20.7192 C   0  0  0  0  0  0
  -27.2135  -28.6740   20.7222 C   0  0  0  0  0  0
  -26.0621  -26.9118   19.5024 C   0  0  0  0  0  0
  -24.8784  -27.6749   19.5028 C   0  0  0  0  0  0
  -23.6259  -29.8132   20.1576 C   0  0  0  0  0  0
  -25.4093  -36.3087   24.0336 C   0  0  1  0  0  0
  -20.5876  -28.3692   23.1259 C   0  0  2  0  0  0
  -20.6765  -26.9411   22.5394 C   0  0  0  0  0  0
  -19.5748  -26.6384   21.5191 C   0  0  0  0  0  0
  -18.1932  -26.7928   22.1614 C   0  0  0  0  0  0
  -19.1539  -28.8853   23.2875 C   0  0  0  0  0  0
  -18.9468  -30.1447   23.8904 C   0  0  0  0  0  0
  -17.6468  -30.6578   24.0576 C   0  0  0  0  0  0
  -25.9025  -34.9454   23.5115 C   0  0  0  0  0  0
  -16.5357  -29.9082   23.6328 C   0  0  0  0  0  0
  -16.7279  -28.6502   23.0343 C   0  0  0  0  0  0
  -26.4499  -31.6584   25.0723 C   0  0  0  0  0  0
  -25.3784  -31.3710   26.1492 C   0  0  0  0  0  0
  -27.0323  -30.3010   24.6132 C   0  0  0  0  0  0
  -27.6047  -32.4322   25.7505 C   0  0  0  0  0  0
  -27.5568  -37.1809   24.8461 C   0  0  0  0  0  0
  -21.4145  -29.3062   22.3651 N   0  0  0  0  0  0
  -26.4277  -37.3775   23.9411 N   0  0  0  0  0  0
  -24.6759  -31.0707   22.0939 N   0  0  0  0  0  0
  -23.4180  -28.8185   23.2947 O   0  0  0  0  0  0
  -28.3640  -26.5893   20.1066 O   0  0  0  0  0  0
  -26.5581  -34.8921   22.4669 O   0  0  0  0  0  0
  -23.5370  -32.1364   23.7431 O   0  0  0  0  0  0
  -28.4425  -21.5667   20.2608 C   0  0  0  0  0  0
  -28.9680  -22.8131   20.7182 C   0  0  0  0  0  0
  -29.2735  -20.4084   20.1476 C   0  0  0  0  0  0
  -30.3290  -22.7365   21.1385 C   0  0  0  0  0  0
  -31.1006  -23.8705   21.7756 C   0  0  0  0  0  0
  -28.7138  -19.7781   17.8180 C   0  0  0  0  0  0
  -30.7483  -17.7136   18.4106 C   0  0  0  0  0  0
  -28.4514  -16.7808   18.6661 C   0  0  0  0  0  0
  -28.0180  -24.0668   20.6927 C   0  0  0  0  0  0
  -29.8915  -17.1232   20.7152 C   0  0  0  0  0  0
  -28.4172  -25.5409   21.1112 C   0  0  0  0  0  0
  -28.8196  -19.2159   19.2618 C   0  0  1  0  0  0
  -29.4885  -17.7420   19.3080 C   0  0  0  0  0  0
  -30.5740  -20.4708   20.5061 N   0  0  0  0  0  0
  -31.0650  -21.5965   21.0338 N   0  0  0  0  0  0
  -29.7855  -15.6271   20.8496 N   0  0  0  0  0  0
  -31.4737  -12.5375   19.1171 H   0  0  0  0  0  0
  -30.4244  -11.3763   19.8731 H   0  0  0  0  0  0
  -29.7474  -11.7384   17.4824 H   0  0  0  0  0  0
  -29.6353  -13.4604   17.7389 H   0  0  0  0  0  0
  -27.8351  -11.2929   18.8505 H   0  0  0  0  0  0
  -27.3634  -12.6078   17.8116 H   0  0  0  0  0  0
  -27.6783  -14.2423   19.5702 H   0  0  0  0  0  0
  -28.7143  -12.0002   21.3629 H   0  0  0  0  0  0
  -28.4606  -13.6387   21.8789 H   0  0  0  0  0  0
  -25.2715   -9.5605   22.4754 H   0  0  0  0  0  0
  -23.9935   -7.4598   22.7445 H   0  0  0  0  0  0
  -21.0810   -8.8759   19.8946 H   0  0  0  0  0  0
  -22.3673  -10.9645   19.6188 H   0  0  0  0  0  0
  -21.1990   -7.6127   23.9666 H   0  0  0  0  0  0
  -21.1505   -6.0516   25.9052 H   0  0  0  0  0  0
  -22.0601   -2.7593   23.2829 H   0  0  0  0  0  0
  -22.4119  -11.9940   22.4856 H   0  0  0  0  0  0
  -21.1077  -13.1243   22.2661 H   0  0  0  0  0  0
  -24.6653  -15.8448   20.5152 H   0  0  0  0  0  0
  -26.2744  -15.6058   20.0538 H   0  0  0  0  0  0
  -26.7142  -32.5497   23.1130 H   0  0  0  0  0  0
  -25.0121  -33.9720   25.0497 H   0  0  0  0  0  0
  -22.7038  -31.3054   21.3911 H   0  0  0  0  0  0
  -23.3722  -35.9665   23.3300 H   0  0  0  0  0  0
  -24.3578  -36.8922   22.2051 H   0  0  0  0  0  0
  -23.7263  -37.6530   23.6653 H   0  0  0  0  0  0
  -26.0588  -31.5755   20.5917 H   0  0  0  0  0  0
  -26.8284  -30.8717   21.9872 H   0  0  0  0  0  0
  -28.1072  -29.0527   21.1987 H   0  0  0  0  0  0
  -26.0654  -25.9437   19.0219 H   0  0  0  0  0  0
  -23.9881  -27.2811   19.0319 H   0  0  0  0  0  0
  -23.7399  -30.5805   19.3914 H   0  0  0  0  0  0
  -22.7515  -29.2313   19.8602 H   0  0  0  0  0  0
  -25.1268  -36.1935   25.0830 H   0  0  0  0  0  0
  -20.9996  -28.3289   24.1365 H   0  0  0  0  0  0
  -20.5631  -26.2311   23.3602 H   0  0  0  0  0  0
  -21.6640  -26.7417   22.1213 H   0  0  0  0  0  0
  -19.6902  -25.6293   21.1222 H   0  0  0  0  0  0
  -19.6685  -27.3192   20.6721 H   0  0  0  0  0  0
  -17.4187  -26.6665   21.4027 H   0  0  0  0  0  0
  -18.0362  -26.0064   22.9014 H   0  0  0  0  0  0
  -19.7945  -30.7261   24.2270 H   0  0  0  0  0  0
  -17.5027  -31.6260   24.5180 H   0  0  0  0  0  0
  -15.5358  -30.2991   23.7647 H   0  0  0  0  0  0
  -15.8679  -28.0831   22.7035 H   0  0  0  0  0  0
  -24.5948  -30.7037   25.7880 H   0  0  0  0  0  0
  -24.9005  -32.2877   26.4956 H   0  0  0  0  0  0
  -25.8184  -30.8904   27.0240 H   0  0  0  0  0  0
  -26.2868  -29.6764   24.1184 H   0  0  0  0  0  0
  -27.4056  -29.7254   25.4615 H   0  0  0  0  0  0
  -27.8733  -30.4287   23.9306 H   0  0  0  0  0  0
  -27.2625  -33.3601   26.2096 H   0  0  0  0  0  0
  -28.3877  -32.6902   25.0365 H   0  0  0  0  0  0
  -28.0696  -31.8444   26.5429 H   0  0  0  0  0  0
  -28.2579  -38.0106   24.7481 H   0  0  0  0  0  0
  -28.1057  -36.2632   24.6297 H   0  0  0  0  0  0
  -27.2289  -37.1486   25.8864 H   0  0  0  0  0  0
  -20.9289  -29.8817   21.6910 H   0  0  0  0  0  0
  -26.0150  -38.2844   24.1422 H   0  0  0  0  0  0
  -27.4230  -21.5245   19.9053 H   0  0  0  0  0  0
  -30.6017  -24.2010   22.6866 H   0  0  0  0  0  0
  -31.2267  -24.6967   21.0768 H   0  0  0  0  0  0
  -32.1017  -23.5543   22.0679 H   0  0  0  0  0  0
  -28.0135  -20.6122   17.7669 H   0  0  0  0  0  0
  -28.3758  -19.0604   17.0787 H   0  0  0  0  0  0
  -29.6787  -20.1565   17.4863 H   0  0  0  0  0  0
  -31.2542  -16.7488   18.4414 H   0  0  0  0  0  0
  -31.4740  -18.4631   18.7284 H   0  0  0  0  0  0
  -30.5176  -17.9016   17.3603 H   0  0  0  0  0  0
  -28.8792  -15.8027   18.4605 H   0  0  0  0  0  0
  -28.0610  -17.1159   17.7085 H   0  0  0  0  0  0
  -27.5949  -16.6461   19.3224 H   0  0  0  0  0  0
  -27.1856  -23.7908   21.3429 H   0  0  0  0  0  0
  -27.5691  -24.1139   19.7003 H   0  0  0  0  0  0
  -29.2160  -17.5355   21.4655 H   0  0  0  0  0  0
  -30.8872  -17.4535   21.0177 H   0  0  0  0  0  0
  -29.3894  -25.6206   21.5712 H   0  0  0  0  0  0
  -27.7581  -25.8324   21.9316 H   0  0  0  0  0  0
  -27.7978  -19.0567   19.6079 H   0  0  0  0  0  0
  -28.8937  -15.3101   21.1984 H   0  0  0  0  0  0
  1 25  1  0  0  0
  1 30  2  0  0  0
  1 86  1  0  0  0
  2  3  1  0  0  0
  2 25  1  0  0  0
  2 87  1  0  0  0
  2 88  1  0  0  0
  3  4  1  0  0  0
  3 89  1  0  0  0
  3 90  1  0  0  0
  4  5  1  0  0  0
  4 91  1  0  0  0
  4 92  1  0  0  0
  5  6  1  0  0  0
  5 26  1  0  0  0
  5 93  1  0  0  0
  6 25  1  0  0  0
  6 94  1  0  0  0
  6 95  1  0  0  0
  7  8  2  0  0  0
  7 26  1  0  0  0
  7 29  1  0  0  0
  8  9  1  0  0  0
  8 22  1  0  0  0
  9 10  1  0  0  0
  9 27  2  0  0  0
 10 11  2  0  0  0
 10 15  1  0  0  0
 11 12  1  0  0  0
 11 96  1  0  0  0
 12 13  2  0  0  0
 12 97  1  0  0  0
 13 14  1  0  0  0
 13 31  1  0  0  0
 14 15  2  0  0  0
 14 98  1  0  0  0
 15 99  1  0  0  0
 16 17  2  0  0  0
 16 21  1  0  0  0
 16 31  1  0  0  0
 17 18  1  0  0  0
 17100  1  0  0  0
 18 19  2  0  0  0
 18101  1  0  0  0
 19 20  1  0  0  0
 19 24  1  0  0  0
 20 21  2  0  0  0
 20102  1  0  0  0
 21 23  1  0  0  0
 22 28  1  0  0  0
 22 32  2  0  0  0
 26 27  1  0  0  0
 28103  1  0  0  0
 28104  1  0  0  0
 29105  1  0  0  0
 29106  1  0  0  0
 33 34  1  0  0  0
 33 66  1  0  0  0
 33 70  2  0  0  0
 34 36  1  0  0  0
 34 59  1  0  0  0
 34107  1  0  0  0
 35 44  2  0  0  0
 35 45  1  0  0  0
 35 68  1  0  0  0
 36 56  1  0  0  0
 36108  1  0  0  0
 37 39  1  0  0  0
 37 47  1  0  0  0
 37 66  1  0  0  0
 37109  1  0  0  0
 38 43  2  0  0  0
 38 46  1  0  0  0
 38 47  1  0  0  0
 39 64  1  0  0  0
 39 67  2  0  0  0
 40 52  1  0  0  0
 40 53  2  0  0  0
 40 58  1  0  0  0
 41110  1  0  0  0
 41111  1  0  0  0
 41112  1  0  0  0
 41 48  1  0  0  0
 42 43  1  0  0  0
 42 66  1  0  0  0
 42113  1  0  0  0
 42114  1  0  0  0
 43 44  1  0  0  0
 44115  1  0  0  0
 45 46  2  0  0  0
 45116  1  0  0  0
 46117  1  0  0  0
 47118  1  0  0  0
 47119  1  0  0  0
 48 56  1  0  0  0
 48 65  1  0  0  0
 48120  1  0  0  0
 49 50  1  0  0  0
 49 53  1  0  0  0
 49 64  1  0  0  0
 49121  1  0  0  0
 50 51  1  0  0  0
 50122  1  0  0  0
 50123  1  0  0  0
 51 52  1  0  0  0
 51124  1  0  0  0
 51125  1  0  0  0
 52126  1  0  0  0
 52127  1  0  0  0
 53 54  1  0  0  0
 54 55  2  0  0  0
 54128  1  0  0  0
 55 57  1  0  0  0
 55129  1  0  0  0
 56 69  2  0  0  0
 57 58  2  0  0  0
 57130  1  0  0  0
 58131  1  0  0  0
 59 60  1  0  0  0
 59 61  1  0  0  0
 59 62  1  0  0  0
 60132  1  0  0  0
 60133  1  0  0  0
 60134  1  0  0  0
 61135  1  0  0  0
 61136  1  0  0  0
 61137  1  0  0  0
 62138  1  0  0  0
 62139  1  0  0  0
 62140  1  0  0  0
 63 65  1  0  0  0
 63141  1  0  0  0
 63142  1  0  0  0
 63143  1  0  0  0
 64144  1  0  0  0
 65145  1  0  0  0
 68 81  1  0  0  0
 71 72  2  0  0  0
 71 73  1  0  0  0
 71146  1  0  0  0
 72 74  1  0  0  0
 72 79  1  0  0  0
 73 82  1  0  0  0
 73 84  2  0  0  0
 74 75  1  0  0  0
 74 85  2  0  0  0
 75147  1  0  0  0
 75148  1  0  0  0
 75149  1  0  0  0
 76150  1  0  0  0
 76151  1  0  0  0
 76152  1  0  0  0
 76 82  1  0  0  0
 77153  1  0  0  0
 77154  1  0  0  0
 77155  1  0  0  0
 77 83  1  0  0  0
 78 83  1  0  0  0
 78156  1  0  0  0
 78157  1  0  0  0
 78158  1  0  0  0
 79 81  1  0  0  0
 79159  1  0  0  0
 79160  1  0  0  0
 80 83  1  0  0  0
 80 86  1  0  0  0
 80161  1  0  0  0
 80162  1  0  0  0
 81163  1  0  0  0
 81164  1  0  0  0
 82 83  1  0  0  0
 82165  1  0  0  0
 84 85  1  0  0  0
 86166  1  0  0  0
M  ISO  4   1 100  68 101  81 101  86 100
M  END
> <chiral flag>
0

> <version>
0

> <s_m_source_file>
/data/baiqing/PycharmProjects/Reinvent-master-3.2/result/LINK_invent/BTK/process_docking_weight1_custom_sum_contain_oxygen_bond_distance_aromatic_linkinvent_7_9_3/rearranged_h_0079.sdf

> <i_m_source_file_index>
27

> <r_mmod_Potential_Energy-OPLS-2005>
96.1461791992188

> <r_mmod_Stretch_Energy-OPLS-2005>
72.8824005126953

> <r_mmod_Bend_Energy-OPLS-2005>
181.029739379883

> <r_mmod_Torsional_Energy-OPLS-2005>
270.422760009766

> <r_mmod_Improper_Torsional_Energy-OPLS-2005>
7.57455539703369

> <r_mmod_Van_der_Waal_Energy-OPLS-2005>
158.583602905273

> <r_mmod_Electrostatic_Energy-OPLS-2005>
-394.598846435547

> <r_mmod_Solvation_Energy-OPLS-2005>
-230.968811035156

> <b_mmod_Minimization_Converged-OPLS-2005>
0

> <r_mmod_RMS_Derivative-OPLS-2005>
3.41764616966248

$$$$
27
                    3D
 Structure written by MMmdl.
175183  0  0  1  0            999 V2000
  -30.6296  -14.7721   20.5139 C   0  0  0  0  0  0
  -30.4492  -12.4955   19.4810 C   0  0  0  0  0  0
  -29.5260  -12.5034   18.2466 C   0  0  0  0  0  0
  -28.0462  -12.3417   18.6498 C   0  0  0  0  0  0
  -27.6366  -13.2289   19.8597 C   0  0  2  0  0  0
  -28.6894  -13.1729   20.9854 C   0  0  0  0  0  0
  -25.2412  -13.7894   20.6069 C   0  0  0  0  0  0
  -24.1712  -13.0176   20.9347 C   0  0  0  0  0  0
  -24.6317  -11.6689   20.8682 C   0  0  0  0  0  0
  -23.8991  -10.4132   21.0330 C   0  0  0  0  0  0
  -24.3584   -9.4130   21.9152 C   0  0  0  0  0  0
  -23.6257   -8.2196   22.0706 C   0  0  0  0  0  0
  -22.4244   -8.0216   21.3523 C   0  0  0  0  0  0
  -21.9854   -9.0140   20.4584 C   0  0  0  0  0  0
  -22.7151  -10.2036   20.2978 C   0  0  0  0  0  0
  -21.6817   -6.0681   22.5285 C   0  0  0  0  0  0
  -21.3992   -6.5610   23.8189 C   0  0  0  0  0  0
  -21.3686   -5.6766   24.9148 C   0  0  0  0  0  0
  -21.6073   -4.2987   24.7216 C   0  0  0  0  0  0
  -21.8856   -3.8106   23.4316 C   0  0  0  0  0  0
  -21.9188   -4.6914   22.3381 C   0  0  0  0  0  0
  -22.7731  -13.5002   21.1906 C   0  0  0  0  0  0
  -22.1623   -4.2099   21.0953 F   0  0  0  0  0  0
  -21.5662   -3.4527   25.7729 F   0  0  0  0  0  0
  -29.9783  -13.5593   20.3934 N   0  0  0  0  0  0
  -26.2874  -12.9228   20.3341 N   0  0  0  0  0  0
  -25.9247  -11.6368   20.5705 N   0  0  0  0  0  0
  -22.0319  -12.8110   22.0484 N   0  0  0  0  0  0
  -25.3987  -15.1589   20.5028 N   0  0  0  0  0  0
  -31.8280  -14.8506   20.2397 O   0  0  0  0  0  0
  -21.6586   -6.8811   21.4228 O   0  0  0  0  0  0
  -22.3456  -14.5213   20.6547 O   0  0  0  0  0  0
  -24.6429  -31.8494   23.1902 C   0  0  0  0  0  0
  -25.9200  -32.4711   23.8293 C   0  0  1  0  0  0
  -27.2068  -27.1857   20.0892 C   0  0  0  0  0  0
  -25.5976  -33.8525   24.2205 N   0  0  0  0  0  0
  -23.4373  -30.4756   21.5405 C   0  0  2  0  0  0
  -24.8755  -28.9125   20.1071 C   0  0  0  0  0  0
  -22.7545  -29.4576   22.4873 C   0  0  0  0  0  0
  -18.0308  -28.1386   22.8474 C   0  0  0  0  0  0
  -24.1492  -36.7259   23.2633 C   0  0  0  0  0  0
  -25.9945  -30.7319   21.3840 C   0  0  0  0  0  0
  -26.0588  -29.3525   20.7118 C   0  0  0  0  0  0
  -27.2282  -28.5063   20.6857 C   0  0  0  0  0  0
  -25.9835  -26.8267   19.4830 C   0  0  0  0  0  0
  -24.8460  -27.6586   19.4838 C   0  0  0  0  0  0
  -23.6543  -29.8148   20.1553 C   0  0  0  0  0  0
  -25.4116  -36.3037   24.0309 C   0  0  1  0  0  0
  -20.5917  -28.3719   23.1225 C   0  0  2  0  0  0
  -20.6792  -26.9425   22.5394 C   0  0  0  0  0  0
  -19.5765  -26.6380   21.5201 C   0  0  0  0  0  0
  -18.1940  -26.7932   22.1598 C   0  0  0  0  0  0
  -19.1560  -28.8868   23.2840 C   0  0  0  0  0  0
  -18.9481  -30.1455   23.8872 C   0  0  0  0  0  0
  -17.6486  -30.6574   24.0555 C   0  0  0  0  0  0
  -25.9107  -34.9424   23.5093 C   0  0  0  0  0  0
  -16.5368  -29.9078   23.6340 C   0  0  0  0  0  0
  -16.7280  -28.6506   23.0335 C   0  0  0  0  0  0
  -26.4519  -31.6571   25.0743 C   0  0  0  0  0  0
  -25.3708  -31.3770   26.1451 C   0  0  0  0  0  0
  -27.0347  -30.2948   24.6333 C   0  0  0  0  0  0
  -27.6080  -32.4322   25.7498 C   0  0  0  0  0  0
  -27.5589  -37.1783   24.8442 C   0  0  0  0  0  0
  -21.4245  -29.3079   22.3622 N   0  0  0  0  0  0
  -26.4273  -37.3760   23.9402 N   0  0  0  0  0  0
  -24.7107  -31.0397   22.0921 N   0  0  0  0  0  0
  -23.4231  -28.8147   23.3025 O   0  0  0  0  0  0
  -28.2857  -26.2386   20.0839 O   0  0  0  0  0  0
  -26.5681  -34.8905   22.4656 O   0  0  0  0  0  0
  -23.5576  -32.1347   23.7188 O   0  0  0  0  0  0
  -28.5601  -18.4932   19.0377 C   0  0  0  0  0  0
  -27.4686  -19.1109   18.3883 C   0  0  0  0  0  0
  -29.1096  -19.3237   19.9439 C   0  0  0  0  0  0
  -27.4496  -20.4338   18.8356 C   0  0  0  0  0  0
  -26.5016  -21.5722   18.5138 C   0  0  0  0  0  0
  -26.4988  -16.8191   18.0136 C   0  0  0  0  0  0
  -27.3301  -18.1001   16.0776 C   0  0  0  0  0  0
  -25.1615  -18.7819   17.2747 C   0  0  0  0  0  0
  -30.1064  -24.0724   21.0143 C   0  0  0  0  0  0
  -29.9285  -23.3509   18.6088 C   0  0  0  0  0  0
  -30.2386  -18.7840   20.8475 C   0  0  0  0  0  0
  -28.7978  -21.9624   20.5380 C   0  0  0  0  0  0
  -30.3688  -17.2396   21.3928 C   0  0  0  0  0  0
  -28.0282  -24.7365   19.8430 C   0  0  0  0  0  0
  -26.6060  -18.2488   17.4360 C   0  0  0  0  0  0
  -29.1489  -23.5035   19.9488 C   0  0  0  0  0  0
  -28.5143  -20.6432   19.7597 N   0  0  0  0  0  0
  -29.8904  -15.9177   20.7843 N   0  0  0  0  0  0
  -31.4775  -12.6714   19.1661 H   0  0  0  0  0  0
  -30.4490  -11.5213   19.9788 H   0  0  0  0  0  0
  -29.8235  -11.7069   17.5668 H   0  0  0  0  0  0
  -29.6580  -13.4402   17.7037 H   0  0  0  0  0  0
  -27.8875  -11.2913   18.8831 H   0  0  0  0  0  0
  -27.4017  -12.5583   17.7947 H   0  0  0  0  0  0
  -27.6226  -14.2527   19.4942 H   0  0  0  0  0  0
  -28.7534  -12.1736   21.4257 H   0  0  0  0  0  0
  -28.4168  -13.8435   21.8015 H   0  0  0  0  0  0
  -25.2794   -9.5636   22.4634 H   0  0  0  0  0  0
  -24.0004   -7.4609   22.7435 H   0  0  0  0  0  0
  -21.0783   -8.8560   19.8934 H   0  0  0  0  0  0
  -22.3569  -10.9508   19.6025 H   0  0  0  0  0  0
  -21.1959   -7.6121   23.9673 H   0  0  0  0  0  0
  -21.1481   -6.0473   25.9024 H   0  0  0  0  0  0
  -22.0637   -2.7559   23.2802 H   0  0  0  0  0  0
  -22.3872  -11.9898   22.5110 H   0  0  0  0  0  0
  -21.0854  -13.1035   22.2406 H   0  0  0  0  0  0
  -24.5781  -15.7536   20.5342 H   0  0  0  0  0  0
  -26.1726  -15.5679   20.0010 H   0  0  0  0  0  0
  -26.7277  -32.5293   23.1034 H   0  0  0  0  0  0
  -25.0080  -33.9608   25.0330 H   0  0  0  0  0  0
  -22.7443  -31.3076   21.3957 H   0  0  0  0  0  0
  -23.3779  -35.9577   23.3264 H   0  0  0  0  0  0
  -24.3584  -36.8922   22.2057 H   0  0  0  0  0  0
  -23.7231  -37.6442   23.6687 H   0  0  0  0  0  0
  -26.1629  -31.4960   20.6231 H   0  0  0  0  0  0
  -26.8602  -30.7618   22.0330 H   0  0  0  0  0  0
  -28.1366  -28.8468   21.1624 H   0  0  0  0  0  0
  -25.8603  -25.8673   19.0063 H   0  0  0  0  0  0
  -23.9357  -27.3172   19.0068 H   0  0  0  0  0  0
  -23.7893  -30.5938   19.4053 H   0  0  0  0  0  0
  -22.7659  -29.2640   19.8453 H   0  0  0  0  0  0
  -25.1320  -36.1868   25.0815 H   0  0  0  0  0  0
  -21.0007  -28.3305   24.1342 H   0  0  0  0  0  0
  -20.5640  -26.2357   23.3627 H   0  0  0  0  0  0
  -21.6660  -26.7413   22.1214 H   0  0  0  0  0  0
  -19.6931  -25.6280   21.1253 H   0  0  0  0  0  0
  -19.6702  -27.3178   20.6720 H   0  0  0  0  0  0
  -17.4221  -26.6679   21.3992 H   0  0  0  0  0  0
  -18.0332  -26.0056   22.8979 H   0  0  0  0  0  0
  -19.7962  -30.7284   24.2241 H   0  0  0  0  0  0
  -17.5026  -31.6248   24.5174 H   0  0  0  0  0  0
  -15.5370  -30.2982   23.7634 H   0  0  0  0  0  0
  -15.8678  -28.0796   22.7081 H   0  0  0  0  0  0
  -24.5886  -30.7106   25.7773 H   0  0  0  0  0  0
  -24.8890  -32.2953   26.4833 H   0  0  0  0  0  0
  -25.7988  -30.8972   27.0259 H   0  0  0  0  0  0
  -26.2933  -29.6695   24.1325 H   0  0  0  0  0  0
  -27.3910  -29.7241   25.4924 H   0  0  0  0  0  0
  -27.8893  -30.4150   23.9657 H   0  0  0  0  0  0
  -27.2700  -33.3647   26.2027 H   0  0  0  0  0  0
  -28.3899  -32.6831   25.0316 H   0  0  0  0  0  0
  -28.0736  -31.8473   26.5444 H   0  0  0  0  0  0
  -28.2588  -38.0116   24.7547 H   0  0  0  0  0  0
  -28.1126  -36.2648   24.6199 H   0  0  0  0  0  0
  -27.2321  -37.1341   25.8856 H   0  0  0  0  0  0
  -20.9452  -29.8815   21.6796 H   0  0  0  0  0  0
  -26.0159  -38.2826   24.1453 H   0  0  0  0  0  0
  -28.8919  -17.4657   18.9207 H   0  0  0  0  0  0
  -25.4441  -21.3351   18.6983 H   0  0  0  0  0  0
  -26.5933  -21.9212   17.4751 H   0  0  0  0  0  0
  -26.7158  -22.4203   19.1554 H   0  0  0  0  0  0
  -27.4330  -16.2512   17.9762 H   0  0  0  0  0  0
  -25.7558  -16.1915   17.5141 H   0  0  0  0  0  0
  -26.2295  -16.9183   19.0588 H   0  0  0  0  0  0
  -28.3574  -17.7462   16.2182 H   0  0  0  0  0  0
  -27.3834  -19.0412   15.5353 H   0  0  0  0  0  0
  -26.8452  -17.3684   15.4310 H   0  0  0  0  0  0
  -24.6853  -18.9592   18.2434 H   0  0  0  0  0  0
  -24.5261  -18.0606   16.7546 H   0  0  0  0  0  0
  -25.1164  -19.7104   16.7074 H   0  0  0  0  0  0
  -31.0212  -23.4868   21.1243 H   0  0  0  0  0  0
  -29.6040  -24.0881   21.9807 H   0  0  0  0  0  0
  -30.4104  -25.0957   20.7878 H   0  0  0  0  0  0
  -30.2172  -22.3148   18.4180 H   0  0  0  0  0  0
  -30.8608  -23.9197   18.5831 H   0  0  0  0  0  0
  -29.3506  -23.6633   17.7365 H   0  0  0  0  0  0
  -30.3051  -19.4295   21.7229 H   0  0  0  0  0  0
  -31.1607  -18.9919   20.3051 H   0  0  0  0  0  0
  -28.0428  -22.0481   21.3226 H   0  0  0  0  0  0
  -29.6894  -21.6719   21.0999 H   0  0  0  0  0  0
  -29.8494  -17.2441   22.3544 H   0  0  0  0  0  0
  -31.4138  -17.1074   21.6827 H   0  0  0  0  0  0
  -27.2135  -24.4764   20.5169 H   0  0  0  0  0  0
  -27.6133  -24.6675   18.8372 H   0  0  0  0  0  0
  -28.8946  -15.7597   20.8664 H   0  0  0  0  0  0
  1 25  1  0  0  0
  1 30  2  0  0  0
  1 88  1  0  0  0
  2  3  1  0  0  0
  2 25  1  0  0  0
  2 89  1  0  0  0
  2 90  1  0  0  0
  3  4  1  0  0  0
  3 91  1  0  0  0
  3 92  1  0  0  0
  4  5  1  0  0  0
  4 93  1  0  0  0
  4 94  1  0  0  0
  5  6  1  0  0  0
  5 26  1  0  0  0
  5 95  1  0  0  0
  6 25  1  0  0  0
  6 96  1  0  0  0
  6 97  1  0  0  0
  7  8  2  0  0  0
  7 26  1  0  0  0
  7 29  1  0  0  0
  8  9  1  0  0  0
  8 22  1  0  0  0
  9 10  1  0  0  0
  9 27  2  0  0  0
 10 11  2  0  0  0
 10 15  1  0  0  0
 11 12  1  0  0  0
 11 98  1  0  0  0
 12 13  2  0  0  0
 12 99  1  0  0  0
 13 14  1  0  0  0
 13 31  1  0  0  0
 14 15  2  0  0  0
 14100  1  0  0  0
 15101  1  0  0  0
 16 17  2  0  0  0
 16 21  1  0  0  0
 16 31  1  0  0  0
 17 18  1  0  0  0
 17102  1  0  0  0
 18 19  2  0  0  0
 18103  1  0  0  0
 19 20  1  0  0  0
 19 24  1  0  0  0
 20 21  2  0  0  0
 20104  1  0  0  0
 21 23  1  0  0  0
 22 28  1  0  0  0
 22 32  2  0  0  0
 26 27  1  0  0  0
 28105  1  0  0  0
 28106  1  0  0  0
 29107  1  0  0  0
 29108  1  0  0  0
 33 34  1  0  0  0
 33 66  1  0  0  0
 33 70  2  0  0  0
 34 36  1  0  0  0
 34 59  1  0  0  0
 34109  1  0  0  0
 35 44  2  0  0  0
 35 45  1  0  0  0
 35 68  1  0  0  0
 36 56  1  0  0  0
 36110  1  0  0  0
 37 39  1  0  0  0
 37 47  1  0  0  0
 37 66  1  0  0  0
 37111  1  0  0  0
 38 43  2  0  0  0
 38 46  1  0  0  0
 38 47  1  0  0  0
 39 64  1  0  0  0
 39 67  2  0  0  0
 40 52  1  0  0  0
 40 53  2  0  0  0
 40 58  1  0  0  0
 41112  1  0  0  0
 41113  1  0  0  0
 41114  1  0  0  0
 41 48  1  0  0  0
 42 43  1  0  0  0
 42 66  1  0  0  0
 42115  1  0  0  0
 42116  1  0  0  0
 43 44  1  0  0  0
 44117  1  0  0  0
 45 46  2  0  0  0
 45118  1  0  0  0
 46119  1  0  0  0
 47120  1  0  0  0
 47121  1  0  0  0
 48 56  1  0  0  0
 48 65  1  0  0  0
 48122  1  0  0  0
 49 50  1  0  0  0
 49 53  1  0  0  0
 49 64  1  0  0  0
 49123  1  0  0  0
 50 51  1  0  0  0
 50124  1  0  0  0
 50125  1  0  0  0
 51 52  1  0  0  0
 51126  1  0  0  0
 51127  1  0  0  0
 52128  1  0  0  0
 52129  1  0  0  0
 53 54  1  0  0  0
 54 55  2  0  0  0
 54130  1  0  0  0
 55 57  1  0  0  0
 55131  1  0  0  0
 56 69  2  0  0  0
 57 58  2  0  0  0
 57132  1  0  0  0
 58133  1  0  0  0
 59 60  1  0  0  0
 59 61  1  0  0  0
 59 62  1  0  0  0
 60134  1  0  0  0
 60135  1  0  0  0
 60136  1  0  0  0
 61137  1  0  0  0
 61138  1  0  0  0
 61139  1  0  0  0
 62140  1  0  0  0
 62141  1  0  0  0
 62142  1  0  0  0
 63 65  1  0  0  0
 63143  1  0  0  0
 63144  1  0  0  0
 63145  1  0  0  0
 64146  1  0  0  0
 65147  1  0  0  0
 68 84  1  0  0  0
 71 72  1  0  0  0
 71 73  2  0  0  0
 71148  1  0  0  0
 72 74  2  0  0  0
 72 85  1  0  0  0
 73 81  1  0  0  0
 73 87  1  0  0  0
 74 75  1  0  0  0
 74 87  1  0  0  0
 75149  1  0  0  0
 75150  1  0  0  0
 75151  1  0  0  0
 76152  1  0  0  0
 76153  1  0  0  0
 76154  1  0  0  0
 76 85  1  0  0  0
 77 85  1  0  0  0
 77155  1  0  0  0
 77156  1  0  0  0
 77157  1  0  0  0
 78 85  1  0  0  0
 78158  1  0  0  0
 78159  1  0  0  0
 78160  1  0  0  0
 79161  1  0  0  0
 79162  1  0  0  0
 79163  1  0  0  0
 79 86  1  0  0  0
 80 86  1  0  0  0
 80164  1  0  0  0
 80165  1  0  0  0
 80166  1  0  0  0
 81 83  1  0  0  0
 81167  1  0  0  0
 81168  1  0  0  0
 82 86  1  0  0  0
 82 87  1  0  0  0
 82169  1  0  0  0
 82170  1  0  0  0
 83 88  1  0  0  0
 83171  1  0  0  0
 83172  1  0  0  0
 84 86  1  0  0  0
 84173  1  0  0  0
 84174  1  0  0  0
 88175  1  0  0  0
M  ISO  4   1 100  68 101  84 101  88 100
M  END
> <chiral flag>
0

> <version>
0

> <s_m_source_file>
/data/baiqing/PycharmProjects/Reinvent-master-3.2/result/LINK_invent/BTK/process_docking_weight1_custom_sum_contain_oxygen_bond_distance_aromatic_linkinvent_7_9_3/rearranged_h_0079.sdf

> <i_m_source_file_index>
28

> <r_mmod_Potential_Energy-OPLS-2005>
388.889617919922

> <r_mmod_Stretch_Energy-OPLS-2005>
202.637954711914

> <r_mmod_Bend_Energy-OPLS-2005>
317.943206787109

> <r_mmod_Torsional_Energy-OPLS-2005>
258.115081787109

> <r_mmod_Improper_Torsional_Energy-OPLS-2005>
7.22010231018066

> <r_mmod_Van_der_Waal_Energy-OPLS-2005>
123.578071594238

> <r_mmod_Electrostatic_Energy-OPLS-2005>
-443.375701904297

> <r_mmod_Solvation_Energy-OPLS-2005>
-195.276748657227

> <b_mmod_Minimization_Converged-OPLS-2005>
0

> <r_mmod_RMS_Derivative-OPLS-2005>
12.1186790466309

$$$$
28
                    3D
 Structure written by MMmdl.
164172  0  0  1  0            999 V2000
  -31.0964  -13.2633   20.9301 C   0  0  0  0  0  0
  -30.5537  -12.6254   18.8369 C   0  0  0  0  0  0
  -29.4308  -12.5245   17.8687 C   0  0  0  0  0  0
  -28.1590  -13.2720   18.2569 C   0  0  0  0  0  0
  -27.9699  -13.9758   19.7015 C   0  0  2  0  0  0
  -29.0835  -13.9226   20.6113 C   0  0  0  0  0  0
  -25.9310  -14.2408   21.0001 C   0  0  0  0  0  0
  -24.1909  -13.6030   20.8527 C   0  0  0  0  0  0
  -24.0593  -12.3203   20.5601 C   0  0  0  0  0  0
  -23.7068  -10.8075   20.9855 C   0  0  0  0  0  0
  -24.2092   -9.8063   21.9184 C   0  0  0  0  0  0
  -23.6235   -8.5015   22.0786 C   0  0  0  0  0  0
  -22.4672   -8.1354   21.3475 C   0  0  0  0  0  0
  -21.9992   -9.0667   20.4097 C   0  0  0  0  0  0
  -22.6111  -10.3270   20.2313 C   0  0  0  0  0  0
  -21.7515   -6.1134   22.5226 C   0  0  0  0  0  0
  -21.4476   -6.5938   23.8155 C   0  0  0  0  0  0
  -21.3785   -5.7008   24.9066 C   0  0  0  0  0  0
  -21.6011   -4.3239   24.7113 C   0  0  0  0  0  0
  -21.8763   -3.8369   23.4224 C   0  0  0  0  0  0
  -21.9408   -4.7255   22.3334 C   0  0  0  0  0  0
  -22.6255  -13.9421   21.1815 C   0  0  0  0  0  0
  -22.1773   -4.2365   21.0920 F   0  0  0  0  0  0
  -21.5492   -3.4681   25.7604 F   0  0  0  0  0  0
  -30.2192  -13.3261   20.0548 N   0  0  0  0  0  0
  -26.8433  -13.8882   20.7865 N   0  0  0  0  0  0
  -24.9764  -13.5315   20.7970 N   0  0  0  0  0  0
  -21.9697  -13.1300   22.0342 N   0  0  0  0  0  0
  -26.8301  -15.3519   21.4369 N   0  0  0  0  0  0
  -32.0395  -14.0736   20.8803 O   0  0  0  0  0  0
  -21.7776   -6.9332   21.4151 O   0  0  0  0  0  0
  -22.0600  -14.8539   20.6056 O   0  0  0  0  0  0
  -24.7236  -31.7442   23.1274 C   0  0  0  0  0  0
  -25.9674  -32.4125   23.7874 C   0  0  1  0  0  0
  -26.5495  -26.0221   20.2491 C   0  0  0  0  0  0
  -25.6095  -33.8011   24.1674 N   0  0  0  0  0  0
  -23.5310  -30.3786   21.5000 C   0  0  2  0  0  0
  -24.8633  -28.6360   20.0686 C   0  0  0  0  0  0
  -22.7791  -29.4109   22.4557 C   0  0  0  0  0  0
  -18.0338  -28.1428   22.8445 C   0  0  0  0  0  0
  -24.1509  -36.7003   23.2661 C   0  0  0  0  0  0
  -26.1104  -30.2150   21.4906 C   0  0  0  0  0  0
  -26.0322  -28.7367   20.8182 C   0  0  0  0  0  0
  -26.8810  -27.4490   20.8782 C   0  0  0  0  0  0
  -25.5390  -26.3354   19.3301 C   0  0  0  0  0  0
  -24.7117  -27.4912   19.2810 C   0  0  0  0  0  0
  -23.7712  -29.7186   20.1130 C   0  0  0  0  0  0
  -25.4180  -36.2699   24.0234 C   0  0  1  0  0  0
  -20.5976  -28.3781   23.1081 C   0  0  2  0  0  0
  -20.6781  -26.9413   22.5402 C   0  0  0  0  0  0
  -19.5761  -26.6347   21.5218 C   0  0  0  0  0  0
  -18.1947  -26.7953   22.1617 C   0  0  0  0  0  0
  -19.1610  -28.8936   23.2748 C   0  0  0  0  0  0
  -18.9519  -30.1519   23.8798 C   0  0  0  0  0  0
  -17.6507  -30.6602   24.0546 C   0  0  0  0  0  0
  -25.9204  -34.9106   23.4818 C   0  0  0  0  0  0
  -16.5393  -29.9082   23.6361 C   0  0  0  0  0  0
  -16.7320  -28.6512   23.0366 C   0  0  0  0  0  0
  -26.4689  -31.6437   25.0734 C   0  0  0  0  0  0
  -25.3622  -31.3923   26.1258 C   0  0  0  0  0  0
  -27.0710  -30.2716   24.7102 C   0  0  0  0  0  0
  -27.6049  -32.4452   25.7532 C   0  0  0  0  0  0
  -27.5552  -37.1663   24.8463 C   0  0  0  0  0  0
  -21.4424  -29.2976   22.3343 N   0  0  0  0  0  0
  -26.4252  -37.3524   23.9405 N   0  0  0  0  0  0
  -24.8280  -30.8352   22.0840 N   0  0  0  0  0  0
  -23.4127  -28.7690   23.2973 O   0  0  0  0  0  0
  -26.9033  -24.3775   20.3383 O   0  0  0  0  0  0
  -26.5896  -34.8777   22.4474 O   0  0  0  0  0  0
  -23.6221  -32.0890   23.5970 O   0  0  0  0  0  0
  -24.5999  -15.4486   22.2969 C   0  0  0  0  0  0
  -25.5219  -14.2331   18.7754 C   0  0  0  0  0  0
  -24.8386  -15.9946   20.1650 C   0  0  0  0  0  0
  -25.3384  -13.5184   23.0485 C   0  0  0  0  0  0
  -26.2212  -12.0983   19.6859 C   0  0  0  0  0  0
  -25.2976  -13.2198   24.5276 C   0  0  0  0  0  0
  -26.4087   -9.5902   19.3560 C   0  0  0  0  0  0
  -25.0597  -18.1343   19.9019 C   0  0  0  0  0  0
  -25.9665  -20.2090   20.3013 C   0  0  0  0  0  0
  -28.6570  -10.6260   20.1929 C   0  0  0  0  0  0
  -29.4434  -11.2542   21.5224 C   0  0  0  0  0  0
  -26.0767  -22.5024   20.0967 C   0  0  0  0  0  0
  -27.2120  -10.9002   19.3540 C   0  0  2  0  0  0
  -26.1349  -11.9873   21.8565 N   0  0  0  0  0  0
  -30.8035  -12.0592   21.5542 N   0  0  0  0  0  0
  -31.3431  -13.2015   18.3496 H   0  0  0  0  0  0
  -31.0101  -11.6445   18.9970 H   0  0  0  0  0  0
  -29.2624  -11.4816   17.6152 H   0  0  0  0  0  0
  -29.7820  -12.9242   16.9143 H   0  0  0  0  0  0
  -27.3051  -12.9037   17.6961 H   0  0  0  0  0  0
  -28.2832  -14.1587   17.6317 H   0  0  0  0  0  0
  -27.9543  -15.0162   19.3603 H   0  0  0  0  0  0
  -28.8552  -13.6680   21.6530 H   0  0  0  0  0  0
  -29.3708  -14.9724   20.7486 H   0  0  0  0  0  0
  -25.0477  -10.0204   22.5596 H   0  0  0  0  0  0
  -24.0505   -7.8115   22.7927 H   0  0  0  0  0  0
  -21.1419   -8.8101   19.8032 H   0  0  0  0  0  0
  -22.1730  -10.9818   19.4901 H   0  0  0  0  0  0
  -21.2671   -7.6472   23.9721 H   0  0  0  0  0  0
  -21.1571   -6.0739   25.8959 H   0  0  0  0  0  0
  -22.0339   -2.7810   23.2657 H   0  0  0  0  0  0
  -22.4516  -12.3702   22.4913 H   0  0  0  0  0  0
  -20.9964  -13.2951   22.2456 H   0  0  0  0  0  0
  -26.0679  -15.8191   21.9309 H   0  0  0  0  0  0
  -27.0695  -15.9095   20.6318 H   0  0  0  0  0  0
  -26.7744  -32.4351   23.0537 H   0  0  0  0  0  0
  -25.0080  -33.8975   24.9722 H   0  0  0  0  0  0
  -22.8859  -31.2437   21.3303 H   0  0  0  0  0  0
  -23.3807  -35.9293   23.3215 H   0  0  0  0  0  0
  -24.3561  -36.8811   22.2098 H   0  0  0  0  0  0
  -23.7243  -37.6117   23.6858 H   0  0  0  0  0  0
  -26.4395  -30.8960   20.7048 H   0  0  0  0  0  0
  -26.9346  -30.2116   22.1875 H   0  0  0  0  0  0
  -27.7226  -27.4772   21.5563 H   0  0  0  0  0  0
  -25.2171  -25.5185   18.6999 H   0  0  0  0  0  0
  -23.8570  -27.4460   18.6192 H   0  0  0  0  0  0
  -24.0482  -30.4913   19.3943 H   0  0  0  0  0  0
  -22.8352  -29.2986   19.7409 H   0  0  0  0  0  0
  -25.1418  -36.1379   25.0721 H   0  0  0  0  0  0
  -21.0073  -28.3443   24.1206 H   0  0  0  0  0  0
  -20.5624  -26.2413   23.3690 H   0  0  0  0  0  0
  -21.6637  -26.7310   22.1234 H   0  0  0  0  0  0
  -19.6890  -25.6235   21.1307 H   0  0  0  0  0  0
  -19.6711  -27.3112   20.6715 H   0  0  0  0  0  0
  -17.4216  -26.6721   21.4016 H   0  0  0  0  0  0
  -18.0304  -26.0121   22.9034 H   0  0  0  0  0  0
  -19.7993  -30.7364   24.2118 H   0  0  0  0  0  0
  -17.5051  -31.6269   24.5171 H   0  0  0  0  0  0
  -15.5387  -30.2944   23.7735 H   0  0  0  0  0  0
  -15.8727  -28.0791   22.7122 H   0  0  0  0  0  0
  -24.5859  -30.7212   25.7554 H   0  0  0  0  0  0
  -24.8753  -32.3194   26.4293 H   0  0  0  0  0  0
  -25.7674  -30.9337   27.0287 H   0  0  0  0  0  0
  -26.3426  -29.6044   24.2479 H   0  0  0  0  0  0
  -27.4226  -29.7531   25.6034 H   0  0  0  0  0  0
  -27.9412  -30.3692   24.0610 H   0  0  0  0  0  0
  -27.2534  -33.3904   26.1680 H   0  0  0  0  0  0
  -28.4040  -32.6773   25.0480 H   0  0  0  0  0  0
  -28.0520  -31.8898   26.5786 H   0  0  0  0  0  0
  -28.2486  -38.0030   24.7525 H   0  0  0  0  0  0
  -28.1130  -36.2544   24.6279 H   0  0  0  0  0  0
  -27.2263  -37.1266   25.8861 H   0  0  0  0  0  0
  -20.9752  -29.8657   21.6411 H   0  0  0  0  0  0
  -26.0023  -38.2542   24.1430 H   0  0  0  0  0  0
  -24.2945  -16.2000   23.0128 H   0  0  0  0  0  0
  -25.7461  -14.4662   17.7441 H   0  0  0  0  0  0
  -24.2846  -12.9630   24.8368 H   0  0  0  0  0  0
  -25.6308  -14.0865   25.0975 H   0  0  0  0  0  0
  -25.9535  -12.3822   24.7615 H   0  0  0  0  0  0
  -25.4830   -9.6805   18.7870 H   0  0  0  0  0  0
  -26.1618   -9.2813   20.3671 H   0  0  0  0  0  0
  -26.9831   -8.7799   18.9070 H   0  0  0  0  0  0
  -24.0214  -18.3783   20.1306 H   0  0  0  0  0  0
  -25.0843  -18.1388   18.8128 H   0  0  0  0  0  0
  -26.9947  -19.9790   20.0204 H   0  0  0  0  0  0
  -25.9807  -20.1553   21.3902 H   0  0  0  0  0  0
  -28.4221   -9.6576   20.6301 H   0  0  0  0  0  0
  -29.3985  -10.2849   19.4759 H   0  0  0  0  0  0
  -29.7470  -10.3681   22.0798 H   0  0  0  0  0  0
  -28.7224  -11.6856   22.2134 H   0  0  0  0  0  0
  -25.1041  -22.7438   20.5267 H   0  0  0  0  0  0
  -25.9082  -22.5789   19.0225 H   0  0  0  0  0  0
  -27.4119  -10.9270   18.2921 H   0  0  0  0  0  0
  -31.5034  -11.7224   22.2013 H   0  0  0  0  0  0
  1 25  1  0  0  0
  1 30  2  0  0  0
  1 85  1  0  0  0
  2  3  1  0  0  0
  2 25  1  0  0  0
  2 86  1  0  0  0
  2 87  1  0  0  0
  3  4  1  0  0  0
  3 88  1  0  0  0
  3 89  1  0  0  0
  4  5  1  0  0  0
  4 90  1  0  0  0
  4 91  1  0  0  0
  5  6  1  0  0  0
  5 26  1  0  0  0
  5 92  1  0  0  0
  6 25  1  0  0  0
  6 93  1  0  0  0
  6 94  1  0  0  0
  7  8  2  0  0  0
  7 26  1  0  0  0
  7 29  1  0  0  0
  8  9  1  0  0  0
  8 22  1  0  0  0
  9 10  1  0  0  0
  9 27  2  0  0  0
 10 11  2  0  0  0
 10 15  1  0  0  0
 11 12  1  0  0  0
 11 95  1  0  0  0
 12 13  2  0  0  0
 12 96  1  0  0  0
 13 14  1  0  0  0
 13 31  1  0  0  0
 14 15  2  0  0  0
 14 97  1  0  0  0
 15 98  1  0  0  0
 16 17  2  0  0  0
 16 21  1  0  0  0
 16 31  1  0  0  0
 17 18  1  0  0  0
 17 99  1  0  0  0
 18 19  2  0  0  0
 18100  1  0  0  0
 19 20  1  0  0  0
 19 24  1  0  0  0
 20 21  2  0  0  0
 20101  1  0  0  0
 21 23  1  0  0  0
 22 28  1  0  0  0
 22 32  2  0  0  0
 26 27  1  0  0  0
 28102  1  0  0  0
 28103  1  0  0  0
 29104  1  0  0  0
 29105  1  0  0  0
 33 34  1  0  0  0
 33 66  1  0  0  0
 33 70  2  0  0  0
 34 36  1  0  0  0
 34 59  1  0  0  0
 34106  1  0  0  0
 35 44  2  0  0  0
 35 45  1  0  0  0
 35 68  1  0  0  0
 36 56  1  0  0  0
 36107  1  0  0  0
 37 39  1  0  0  0
 37 47  1  0  0  0
 37 66  1  0  0  0
 37108  1  0  0  0
 38 43  2  0  0  0
 38 46  1  0  0  0
 38 47  1  0  0  0
 39 64  1  0  0  0
 39 67  2  0  0  0
 40 52  1  0  0  0
 40 53  2  0  0  0
 40 58  1  0  0  0
 41109  1  0  0  0
 41110  1  0  0  0
 41111  1  0  0  0
 41 48  1  0  0  0
 42 43  1  0  0  0
 42 66  1  0  0  0
 42112  1  0  0  0
 42113  1  0  0  0
 43 44  1  0  0  0
 44114  1  0  0  0
 45 46  2  0  0  0
 45115  1  0  0  0
 46116  1  0  0  0
 47117  1  0  0  0
 47118  1  0  0  0
 48 56  1  0  0  0
 48 65  1  0  0  0
 48119  1  0  0  0
 49 50  1  0  0  0
 49 53  1  0  0  0
 49 64  1  0  0  0
 49120  1  0  0  0
 50 51  1  0  0  0
 50121  1  0  0  0
 50122  1  0  0  0
 51 52  1  0  0  0
 51123  1  0  0  0
 51124  1  0  0  0
 52125  1  0  0  0
 52126  1  0  0  0
 53 54  1  0  0  0
 54 55  2  0  0  0
 54127  1  0  0  0
 55 57  1  0  0  0
 55128  1  0  0  0
 56 69  2  0  0  0
 57 58  2  0  0  0
 57129  1  0  0  0
 58130  1  0  0  0
 59 60  1  0  0  0
 59 61  1  0  0  0
 59 62  1  0  0  0
 60131  1  0  0  0
 60132  1  0  0  0
 60133  1  0  0  0
 61134  1  0  0  0
 61135  1  0  0  0
 61136  1  0  0  0
 62137  1  0  0  0
 62138  1  0  0  0
 62139  1  0  0  0
 63 65  1  0  0  0
 63140  1  0  0  0
 63141  1  0  0  0
 63142  1  0  0  0
 64143  1  0  0  0
 65144  1  0  0  0
 68 82  1  0  0  0
 71 73  2  0  0  0
 71 74  1  0  0  0
 71145  1  0  0  0
 72 73  1  0  0  0
 72 75  2  0  0  0
 72146  1  0  0  0
 73 78  1  0  0  0
 74 76  1  0  0  0
 74 84  2  0  0  0
 75 83  1  0  0  0
 75 84  1  0  0  0
 76147  1  0  0  0
 76148  1  0  0  0
 76149  1  0  0  0
 77150  1  0  0  0
 77151  1  0  0  0
 77152  1  0  0  0
 77 83  1  0  0  0
 78 79  1  0  0  0
 78153  1  0  0  0
 78154  1  0  0  0
 79 82  1  0  0  0
 79155  1  0  0  0
 79156  1  0  0  0
 80 81  1  0  0  0
 80 83  1  0  0  0
 80157  1  0  0  0
 80158  1  0  0  0
 81 85  1  0  0  0
 81159  1  0  0  0
 81160  1  0  0  0
 82161  1  0  0  0
 82162  1  0  0  0
 83163  1  0  0  0
 85164  1  0  0  0
M  ISO  4   1 100  68 101  82 101  85 100
M  END
> <chiral flag>
0

> <version>
0

> <s_m_source_file>
/data/baiqing/PycharmProjects/Reinvent-master-3.2/result/LINK_invent/BTK/process_docking_weight1_custom_sum_contain_oxygen_bond_distance_aromatic_linkinvent_7_9_3/rearranged_h_0079.sdf

> <i_m_source_file_index>
29

> <r_mmod_Potential_Energy-OPLS-2005>
24065.990234375

> <r_mmod_Stretch_Energy-OPLS-2005>
13467.6650390625

> <r_mmod_Bend_Energy-OPLS-2005>
2937.97802734375

> <r_mmod_Torsional_Energy-OPLS-2005>
602.872497558594

> <r_mmod_Improper_Torsional_Energy-OPLS-2005>
75.7381362915039

> <r_mmod_Van_der_Waal_Energy-OPLS-2005>
4403.1083984375

> <r_mmod_Electrostatic_Energy-OPLS-2005>
-501.764801025391

> <r_mmod_Solvation_Energy-OPLS-2005>
-215.625335693359

> <b_mmod_Minimization_Converged-OPLS-2005>
0

> <r_mmod_RMS_Derivative-OPLS-2005>
2.79206418991089

$$$$
29
                    3D
 Structure written by MMmdl.
166174  0  0  1  0            999 V2000
  -30.6478  -14.6388   20.4746 C   0  0  0  0  0  0
  -30.4267  -12.3888   19.4548 C   0  0  0  0  0  0
  -29.5015  -12.4983   18.2237 C   0  0  0  0  0  0
  -28.0255  -12.3404   18.6374 C   0  0  0  0  0  0
  -27.6469  -13.2225   19.8572 C   0  0  2  0  0  0
  -28.6932  -13.1087   20.9883 C   0  0  0  0  0  0
  -25.2522  -13.8178   20.5702 C   0  0  0  0  0  0
  -24.1806  -13.0431   20.9207 C   0  0  0  0  0  0
  -24.6391  -11.6909   20.8749 C   0  0  0  0  0  0
  -23.9067  -10.4288   21.0413 C   0  0  0  0  0  0
  -24.3615   -9.4200   21.9186 C   0  0  0  0  0  0
  -23.6285   -8.2239   22.0756 C   0  0  0  0  0  0
  -22.4269   -8.0279   21.3546 C   0  0  0  0  0  0
  -21.9907   -9.0254   20.4648 C   0  0  0  0  0  0
  -22.7240  -10.2132   20.3059 C   0  0  0  0  0  0
  -21.6852   -6.0727   22.5275 C   0  0  0  0  0  0
  -21.4015   -6.5634   23.8210 C   0  0  0  0  0  0
  -21.3659   -5.6789   24.9171 C   0  0  0  0  0  0
  -21.6044   -4.3052   24.7225 C   0  0  0  0  0  0
  -21.8820   -3.8140   23.4346 C   0  0  0  0  0  0
  -21.9195   -4.6955   22.3402 C   0  0  0  0  0  0
  -22.7826  -13.5215   21.1864 C   0  0  0  0  0  0
  -22.1665   -4.2140   21.0977 F   0  0  0  0  0  0
  -21.5631   -3.4536   25.7736 F   0  0  0  0  0  0
  -30.0053  -13.4310   20.4113 N   0  0  0  0  0  0
  -26.2958  -12.9381   20.3311 N   0  0  0  0  0  0
  -25.9319  -11.6530   20.5765 N   0  0  0  0  0  0
  -22.0477  -12.8201   22.0422 N   0  0  0  0  0  0
  -25.4176  -15.1896   20.4120 N   0  0  0  0  0  0
  -31.8363  -14.7362   20.1655 O   0  0  0  0  0  0
  -21.6640   -6.8871   21.4238 O   0  0  0  0  0  0
  -22.3505  -14.5519   20.6707 O   0  0  0  0  0  0
  -24.6245  -31.8602   23.2038 C   0  0  0  0  0  0
  -25.9103  -32.4779   23.8354 C   0  0  1  0  0  0
  -27.2272  -27.3354   20.1110 C   0  0  0  0  0  0
  -25.5925  -33.8579   24.2281 N   0  0  0  0  0  0
  -23.4164  -30.4847   21.5459 C   0  0  2  0  0  0
  -24.8625  -28.9403   20.1137 C   0  0  0  0  0  0
  -22.7460  -29.4634   22.4947 C   0  0  0  0  0  0
  -18.0282  -28.1387   22.8490 C   0  0  0  0  0  0
  -24.1491  -36.7297   23.2639 C   0  0  0  0  0  0
  -25.9559  -30.7973   21.3706 C   0  0  0  0  0  0
  -26.0313  -29.4258   20.7129 C   0  0  0  0  0  0
  -27.2172  -28.6359   20.6997 C   0  0  0  0  0  0
  -26.0324  -26.8944   19.4973 C   0  0  0  0  0  0
  -24.8643  -27.6794   19.4980 C   0  0  0  0  0  0
  -23.6296  -29.8182   20.1619 C   0  0  0  0  0  0
  -25.4115  -36.3084   24.0332 C   0  0  1  0  0  0
  -20.5879  -28.3688   23.1293 C   0  0  2  0  0  0
  -20.6774  -26.9413   22.5415 C   0  0  0  0  0  0
  -19.5753  -26.6386   21.5215 C   0  0  0  0  0  0
  -18.1930  -26.7931   22.1623 C   0  0  0  0  0  0
  -19.1533  -28.8853   23.2889 C   0  0  0  0  0  0
  -18.9458  -30.1457   23.8903 C   0  0  0  0  0  0
  -17.6458  -30.6587   24.0564 C   0  0  0  0  0  0
  -25.9053  -34.9451   23.5106 C   0  0  0  0  0  0
  -16.5349  -29.9087   23.6329 C   0  0  0  0  0  0
  -16.7268  -28.6505   23.0347 C   0  0  0  0  0  0
  -26.4495  -31.6581   25.0714 C   0  0  0  0  0  0
  -25.3734  -31.3708   26.1443 C   0  0  0  0  0  0
  -27.0336  -30.3006   24.6158 C   0  0  0  0  0  0
  -27.6057  -32.4312   25.7484 C   0  0  0  0  0  0
  -27.5582  -37.1803   24.8463 C   0  0  0  0  0  0
  -21.4175  -29.3042   22.3686 N   0  0  0  0  0  0
  -26.4293  -37.3779   23.9411 N   0  0  0  0  0  0
  -24.6844  -31.0636   22.0972 N   0  0  0  0  0  0
  -23.4191  -28.8176   23.3023 O   0  0  0  0  0  0
  -28.3618  -26.5145   20.1413 O   0  0  0  0  0  0
  -26.5617  -34.8919   22.4672 O   0  0  0  0  0  0
  -23.5417  -32.1387   23.7386 O   0  0  0  0  0  0
  -29.7825  -21.7623   21.4796 C   0  0  0  0  0  0
  -28.5863  -20.5811   19.3953 C   0  0  0  0  0  0
  -29.2565  -22.5819   20.4306 C   0  0  0  0  0  0
  -29.1018  -19.7618   20.4508 C   0  0  0  0  0  0
  -31.0463  -17.5504   19.3046 C   0  0  0  0  0  0
  -30.4446  -24.4292   19.1751 C   0  0  0  0  0  0
  -30.1539  -24.6809   21.6304 C   0  0  0  0  0  0
  -27.9383  -17.7186   19.4116 C   0  0  0  0  0  0
  -28.0986  -17.9219   21.8694 C   0  0  0  0  0  0
  -28.1789  -25.0450   20.1195 C   0  0  0  0  0  0
  -30.1644  -17.2360   20.5349 C   0  0  1  0  0  0
  -29.4769  -24.1546   20.3440 C   0  0  0  0  0  0
  -28.8702  -18.1873   20.5568 C   0  0  0  0  0  0
  -28.6638  -21.9502   19.3787 N   0  0  0  0  0  0
  -29.7141  -20.3937   21.4913 N   0  0  0  0  0  0
  -29.8644  -15.7495   20.6643 N   0  0  0  0  0  0
  -31.4695  -12.4978   19.1523 H   0  0  0  0  0  0
  -30.3495  -11.4014   19.9122 H   0  0  0  0  0  0
  -29.7648  -11.7410   17.4835 H   0  0  0  0  0  0
  -29.6453  -13.4647   17.7382 H   0  0  0  0  0  0
  -27.8625  -11.2893   18.8780 H   0  0  0  0  0  0
  -27.3706  -12.5636   17.7940 H   0  0  0  0  0  0
  -27.6560  -14.2512   19.4991 H   0  0  0  0  0  0
  -28.7038  -12.1005   21.4051 H   0  0  0  0  0  0
  -28.4476  -13.7759   21.8162 H   0  0  0  0  0  0
  -25.2764   -9.5666   22.4755 H   0  0  0  0  0  0
  -23.9991   -7.4627   22.7473 H   0  0  0  0  0  0
  -21.0841   -8.8776   19.8948 H   0  0  0  0  0  0
  -22.3706  -10.9670   19.6163 H   0  0  0  0  0  0
  -21.2011   -7.6144   23.9702 H   0  0  0  0  0  0
  -21.1482   -6.0526   25.9072 H   0  0  0  0  0  0
  -22.0602   -2.7603   23.2850 H   0  0  0  0  0  0
  -22.4112  -11.9862   22.4796 H   0  0  0  0  0  0
  -21.1097  -13.1211   22.2649 H   0  0  0  0  0  0
  -24.6415  -15.8337   20.5180 H   0  0  0  0  0  0
  -26.2522  -15.6329   20.0554 H   0  0  0  0  0  0
  -26.7168  -32.5463   23.1104 H   0  0  0  0  0  0
  -25.0065  -33.9718   25.0419 H   0  0  0  0  0  0
  -22.7099  -31.3051   21.4039 H   0  0  0  0  0  0
  -23.3756  -35.9627   23.3293 H   0  0  0  0  0  0
  -24.3580  -36.8926   22.2056 H   0  0  0  0  0  0
  -23.7243  -37.6496   23.6665 H   0  0  0  0  0  0
  -26.0847  -31.5618   20.6030 H   0  0  0  0  0  0
  -26.8370  -30.8456   21.9987 H   0  0  0  0  0  0
  -28.1161  -29.0072   21.1721 H   0  0  0  0  0  0
  -25.9730  -25.9330   19.0104 H   0  0  0  0  0  0
  -23.9678  -27.3015   19.0258 H   0  0  0  0  0  0
  -23.7473  -30.5927   19.4036 H   0  0  0  0  0  0
  -22.7500  -29.2458   19.8621 H   0  0  0  0  0  0
  -25.1296  -36.1936   25.0824 H   0  0  0  0  0  0
  -20.9972  -28.3266   24.1414 H   0  0  0  0  0  0
  -20.5678  -26.2296   23.3612 H   0  0  0  0  0  0
  -21.6644  -26.7451   22.1209 H   0  0  0  0  0  0
  -19.6916  -25.6298   21.1242 H   0  0  0  0  0  0
  -19.6695  -27.3197   20.6748 H   0  0  0  0  0  0
  -17.4203  -26.6683   21.4021 H   0  0  0  0  0  0
  -18.0329  -26.0067   22.9013 H   0  0  0  0  0  0
  -19.7933  -30.7271   24.2277 H   0  0  0  0  0  0
  -17.5011  -31.6267   24.5165 H   0  0  0  0  0  0
  -15.5349  -30.2989   23.7649 H   0  0  0  0  0  0
  -15.8667  -28.0822   22.7060 H   0  0  0  0  0  0
  -24.5923  -30.7040   25.7776 H   0  0  0  0  0  0
  -24.8908  -32.2865   26.4865 H   0  0  0  0  0  0
  -25.8069  -30.8894   27.0217 H   0  0  0  0  0  0
  -26.2901  -29.6753   24.1202 H   0  0  0  0  0  0
  -27.4055  -29.7271   25.4660 H   0  0  0  0  0  0
  -27.8762  -30.4294   23.9361 H   0  0  0  0  0  0
  -27.2671  -33.3615   26.2057 H   0  0  0  0  0  0
  -28.3868  -32.6863   25.0309 H   0  0  0  0  0  0
  -28.0718  -31.8433   26.5401 H   0  0  0  0  0  0
  -28.2600  -38.0099   24.7511 H   0  0  0  0  0  0
  -28.1078  -36.2632   24.6288 H   0  0  0  0  0  0
  -27.2298  -37.1451   25.8864 H   0  0  0  0  0  0
  -20.9349  -29.8758   21.6892 H   0  0  0  0  0  0
  -26.0176  -38.2856   24.1408 H   0  0  0  0  0  0
  -30.2961  -22.1895   22.3270 H   0  0  0  0  0  0
  -28.0708  -20.1536   18.5488 H   0  0  0  0  0  0
  -31.1850  -18.6232   19.1737 H   0  0  0  0  0  0
  -30.6111  -17.1603   18.3847 H   0  0  0  0  0  0
  -32.0464  -17.1291   19.4015 H   0  0  0  0  0  0
  -31.3839  -23.8899   19.3019 H   0  0  0  0  0  0
  -30.6825  -25.4901   19.0924 H   0  0  0  0  0  0
  -30.0145  -24.1185   18.2223 H   0  0  0  0  0  0
  -31.1265  -24.2166   21.7984 H   0  0  0  0  0  0
  -29.5349  -24.5021   22.5101 H   0  0  0  0  0  0
  -30.3342  -25.7549   21.5784 H   0  0  0  0  0  0
  -26.9833  -18.2452   19.4294 H   0  0  0  0  0  0
  -27.7076  -16.6579   19.4723 H   0  0  0  0  0  0
  -28.3860  -17.8824   18.4317 H   0  0  0  0  0  0
  -27.1884  -18.5206   21.9200 H   0  0  0  0  0  0
  -28.7011  -18.1765   22.7416 H   0  0  0  0  0  0
  -27.8016  -16.8790   21.9770 H   0  0  0  0  0  0
  -27.4420  -24.7835   20.8804 H   0  0  0  0  0  0
  -27.7508  -24.7522   19.1608 H   0  0  0  0  0  0
  -30.7576  -17.4967   21.4130 H   0  0  0  0  0  0
  -28.9068  -15.5357   20.8942 H   0  0  0  0  0  0
  1 25  1  0  0  0
  1 30  2  0  0  0
  1 86  1  0  0  0
  2  3  1  0  0  0
  2 25  1  0  0  0
  2 87  1  0  0  0
  2 88  1  0  0  0
  3  4  1  0  0  0
  3 89  1  0  0  0
  3 90  1  0  0  0
  4  5  1  0  0  0
  4 91  1  0  0  0
  4 92  1  0  0  0
  5  6  1  0  0  0
  5 26  1  0  0  0
  5 93  1  0  0  0
  6 25  1  0  0  0
  6 94  1  0  0  0
  6 95  1  0  0  0
  7  8  2  0  0  0
  7 26  1  0  0  0
  7 29  1  0  0  0
  8  9  1  0  0  0
  8 22  1  0  0  0
  9 10  1  0  0  0
  9 27  2  0  0  0
 10 11  2  0  0  0
 10 15  1  0  0  0
 11 12  1  0  0  0
 11 96  1  0  0  0
 12 13  2  0  0  0
 12 97  1  0  0  0
 13 14  1  0  0  0
 13 31  1  0  0  0
 14 15  2  0  0  0
 14 98  1  0  0  0
 15 99  1  0  0  0
 16 17  2  0  0  0
 16 21  1  0  0  0
 16 31  1  0  0  0
 17 18  1  0  0  0
 17100  1  0  0  0
 18 19  2  0  0  0
 18101  1  0  0  0
 19 20  1  0  0  0
 19 24  1  0  0  0
 20 21  2  0  0  0
 20102  1  0  0  0
 21 23  1  0  0  0
 22 28  1  0  0  0
 22 32  2  0  0  0
 26 27  1  0  0  0
 28103  1  0  0  0
 28104  1  0  0  0
 29105  1  0  0  0
 29106  1  0  0  0
 33 34  1  0  0  0
 33 66  1  0  0  0
 33 70  2  0  0  0
 34 36  1  0  0  0
 34 59  1  0  0  0
 34107  1  0  0  0
 35 44  2  0  0  0
 35 45  1  0  0  0
 35 68  1  0  0  0
 36 56  1  0  0  0
 36108  1  0  0  0
 37 39  1  0  0  0
 37 47  1  0  0  0
 37 66  1  0  0  0
 37109  1  0  0  0
 38 43  2  0  0  0
 38 46  1  0  0  0
 38 47  1  0  0  0
 39 64  1  0  0  0
 39 67  2  0  0  0
 40 52  1  0  0  0
 40 53  2  0  0  0
 40 58  1  0  0  0
 41110  1  0  0  0
 41111  1  0  0  0
 41112  1  0  0  0
 41 48  1  0  0  0
 42 43  1  0  0  0
 42 66  1  0  0  0
 42113  1  0  0  0
 42114  1  0  0  0
 43 44  1  0  0  0
 44115  1  0  0  0
 45 46  2  0  0  0
 45116  1  0  0  0
 46117  1  0  0  0
 47118  1  0  0  0
 47119  1  0  0  0
 48 56  1  0  0  0
 48 65  1  0  0  0
 48120  1  0  0  0
 49 50  1  0  0  0
 49 53  1  0  0  0
 49 64  1  0  0  0
 49121  1  0  0  0
 50 51  1  0  0  0
 50122  1  0  0  0
 50123  1  0  0  0
 51 52  1  0  0  0
 51124  1  0  0  0
 51125  1  0  0  0
 52126  1  0  0  0
 52127  1  0  0  0
 53 54  1  0  0  0
 54 55  2  0  0  0
 54128  1  0  0  0
 55 57  1  0  0  0
 55129  1  0  0  0
 56 69  2  0  0  0
 57 58  2  0  0  0
 57130  1  0  0  0
 58131  1  0  0  0
 59 60  1  0  0  0
 59 61  1  0  0  0
 59 62  1  0  0  0
 60132  1  0  0  0
 60133  1  0  0  0
 60134  1  0  0  0
 61135  1  0  0  0
 61136  1  0  0  0
 61137  1  0  0  0
 62138  1  0  0  0
 62139  1  0  0  0
 62140  1  0  0  0
 63 65  1  0  0  0
 63141  1  0  0  0
 63142  1  0  0  0
 63143  1  0  0  0
 64144  1  0  0  0
 65145  1  0  0  0
 68 80  1  0  0  0
 71 73  2  0  0  0
 71 85  1  0  0  0
 71146  1  0  0  0
 72 74  1  0  0  0
 72 84  2  0  0  0
 72147  1  0  0  0
 73 82  1  0  0  0
 73 84  1  0  0  0
 74 83  1  0  0  0
 74 85  2  0  0  0
 75148  1  0  0  0
 75149  1  0  0  0
 75150  1  0  0  0
 75 81  1  0  0  0
 76151  1  0  0  0
 76152  1  0  0  0
 76153  1  0  0  0
 76 82  1  0  0  0
 77 82  1  0  0  0
 77154  1  0  0  0
 77155  1  0  0  0
 77156  1  0  0  0
 78157  1  0  0  0
 78158  1  0  0  0
 78159  1  0  0  0
 78 83  1  0  0  0
 79 83  1  0  0  0
 79160  1  0  0  0
 79161  1  0  0  0
 79162  1  0  0  0
 80 82  1  0  0  0
 80163  1  0  0  0
 80164  1  0  0  0
 81 83  1  0  0  0
 81 86  1  0  0  0
 81165  1  0  0  0
 86166  1  0  0  0
M  ISO  4   1 100  68 101  80 101  86 100
M  END
> <chiral flag>
0

> <version>
0

> <s_m_source_file>
/data/baiqing/PycharmProjects/Reinvent-master-3.2/result/LINK_invent/BTK/process_docking_weight1_custom_sum_contain_oxygen_bond_distance_aromatic_linkinvent_7_9_3/rearranged_h_0079.sdf

> <i_m_source_file_index>
30

> <r_mmod_Potential_Energy-OPLS-2005>
114.444190979004

> <r_mmod_Stretch_Energy-OPLS-2005>
93.8408508300781

> <r_mmod_Bend_Energy-OPLS-2005>
140.958938598633

> <r_mmod_Torsional_Energy-OPLS-2005>
199.402221679688

> <r_mmod_Improper_Torsional_Energy-OPLS-2005>
6.15751886367798

> <r_mmod_Van_der_Waal_Energy-OPLS-2005>
156.190612792969

> <r_mmod_Electrostatic_Energy-OPLS-2005>
-322.844635009766

> <r_mmod_Solvation_Energy-OPLS-2005>
-205.210113525391

> <b_mmod_Minimization_Converged-OPLS-2005>
0

> <r_mmod_RMS_Derivative-OPLS-2005>
0.826359987258911

$$$$
30
                    3D
 Structure written by MMmdl.
169177  0  0  1  0            999 V2000
  -30.6703  -14.6302   20.5371 C   0  0  0  0  0  0
  -30.4215  -12.4004   19.4511 C   0  0  0  0  0  0
  -29.4977  -12.5151   18.2211 C   0  0  0  0  0  0
  -28.0221  -12.3497   18.6352 C   0  0  0  0  0  0
  -27.6446  -13.2267   19.8589 C   0  0  2  0  0  0
  -28.6900  -13.1030   20.9880 C   0  0  0  0  0  0
  -25.2506  -13.8200   20.5688 C   0  0  0  0  0  0
  -24.1795  -13.0442   20.9189 C   0  0  0  0  0  0
  -24.6389  -11.6916   20.8737 C   0  0  0  0  0  0
  -23.9077  -10.4281   21.0391 C   0  0  0  0  0  0
  -24.3620   -9.4200   21.9175 C   0  0  0  0  0  0
  -23.6283   -8.2247   22.0764 C   0  0  0  0  0  0
  -22.4272   -8.0282   21.3548 C   0  0  0  0  0  0
  -21.9902   -9.0258   20.4655 C   0  0  0  0  0  0
  -22.7240  -10.2130   20.3056 C   0  0  0  0  0  0
  -21.6860   -6.0745   22.5276 C   0  0  0  0  0  0
  -21.4013   -6.5639   23.8212 C   0  0  0  0  0  0
  -21.3656   -5.6788   24.9169 C   0  0  0  0  0  0
  -21.6054   -4.3056   24.7213 C   0  0  0  0  0  0
  -21.8820   -3.8150   23.4332 C   0  0  0  0  0  0
  -21.9186   -4.6970   22.3388 C   0  0  0  0  0  0
  -22.7806  -13.5210   21.1829 C   0  0  0  0  0  0
  -22.1655   -4.2152   21.0968 F   0  0  0  0  0  0
  -21.5619   -3.4541   25.7725 F   0  0  0  0  0  0
  -29.9993  -13.4395   20.4136 N   0  0  0  0  0  0
  -26.2938  -12.9395   20.3311 N   0  0  0  0  0  0
  -25.9316  -11.6542   20.5754 N   0  0  0  0  0  0
  -22.0462  -12.8209   22.0405 N   0  0  0  0  0  0
  -25.4180  -15.1932   20.4089 N   0  0  0  0  0  0
  -31.8349  -14.7215   20.1443 O   0  0  0  0  0  0
  -21.6640   -6.8886   21.4243 O   0  0  0  0  0  0
  -22.3489  -14.5508   20.6661 O   0  0  0  0  0  0
  -24.6275  -31.8616   23.2063 C   0  0  0  0  0  0
  -25.9111  -32.4811   23.8385 C   0  0  1  0  0  0
  -27.2129  -27.3181   20.0959 C   0  0  0  0  0  0
  -25.5946  -33.8613   24.2319 N   0  0  0  0  0  0
  -23.4213  -30.4879   21.5490 C   0  0  2  0  0  0
  -24.8636  -28.9541   20.1073 C   0  0  0  0  0  0
  -22.7489  -29.4617   22.4934 C   0  0  0  0  0  0
  -18.0287  -28.1364   22.8496 C   0  0  0  0  0  0
  -24.1491  -36.7305   23.2636 C   0  0  0  0  0  0
  -25.9660  -30.7884   21.3815 C   0  0  0  0  0  0
  -26.0369  -29.4218   20.7136 C   0  0  0  0  0  0
  -27.2169  -28.6147   20.7004 C   0  0  0  0  0  0
  -26.0154  -26.9212   19.4519 C   0  0  0  0  0  0
  -24.8561  -27.7087   19.4687 C   0  0  0  0  0  0
  -23.6324  -29.8318   20.1624 C   0  0  0  0  0  0
  -25.4112  -36.3103   24.0324 C   0  0  1  0  0  0
  -20.5886  -28.3673   23.1283 C   0  0  2  0  0  0
  -20.6775  -26.9396   22.5407 C   0  0  0  0  0  0
  -19.5745  -26.6358   21.5221 C   0  0  0  0  0  0
  -18.1919  -26.7917   22.1618 C   0  0  0  0  0  0
  -19.1534  -28.8834   23.2893 C   0  0  0  0  0  0
  -18.9453  -30.1433   23.8910 C   0  0  0  0  0  0
  -17.6456  -30.6576   24.0544 C   0  0  0  0  0  0
  -25.9042  -34.9473   23.5113 C   0  0  0  0  0  0
  -16.5344  -29.9062   23.6339 C   0  0  0  0  0  0
  -16.7269  -28.6465   23.0378 C   0  0  0  0  0  0
  -26.4494  -31.6638   25.0770 C   0  0  0  0  0  0
  -25.3733  -31.3770   26.1510 C   0  0  0  0  0  0
  -27.0334  -30.3059   24.6241 C   0  0  0  0  0  0
  -27.6034  -32.4403   25.7532 C   0  0  0  0  0  0
  -27.5585  -37.1804   24.8455 C   0  0  0  0  0  0
  -21.4193  -29.3049   22.3698 N   0  0  0  0  0  0
  -26.4306  -37.3780   23.9401 N   0  0  0  0  0  0
  -24.6904  -31.0602   22.1029 N   0  0  0  0  0  0
  -23.4225  -28.8117   23.2974 O   0  0  0  0  0  0
  -28.3097  -26.4343   20.1585 O   0  0  0  0  0  0
  -26.5571  -34.8923   22.4657 O   0  0  0  0  0  0
  -23.5435  -32.1422   23.7376 O   0  0  0  0  0  0
  -29.2989  -19.9748   19.4317 C   0  0  0  0  0  0
  -28.9623  -21.0093   20.3649 C   0  0  0  0  0  0
  -29.4217  -19.4703   22.0804 C   0  0  0  0  0  0
  -29.7492  -18.4197   21.1474 C   0  0  0  0  0  0
  -30.6485  -20.7278   17.4251 C   0  0  0  0  0  0
  -28.3277  -19.5664   25.8527 C   0  0  0  0  0  0
  -31.9599  -17.2764   21.5048 C   0  0  0  0  0  0
  -29.3007  -20.1907   17.9246 C   0  0  0  0  0  0
  -28.2925  -22.3835   20.0000 C   0  0  0  0  0  0
  -29.5465  -19.3710   23.6003 C   0  0  0  0  0  0
  -28.2021  -19.5956   24.3246 C   0  0  0  0  0  0
  -28.9665  -23.7935   20.2993 C   0  0  0  0  0  0
  -28.0180  -25.0031   19.8971 C   0  0  0  0  0  0
  -30.4351  -17.0547   21.5546 C   0  0  2  0  0  0
  -29.0323  -20.7190   21.6832 N   0  0  0  0  0  0
  -29.6895  -18.7161   19.8198 N   0  0  0  0  0  0
  -29.9698  -15.7251   20.9847 N   0  0  0  0  0  0
  -31.4642  -12.5081   19.1481 H   0  0  0  0  0  0
  -30.3407  -11.4099   19.9030 H   0  0  0  0  0  0
  -29.7642  -11.7655   17.4738 H   0  0  0  0  0  0
  -29.6394  -13.4869   17.7458 H   0  0  0  0  0  0
  -27.8605  -11.2981   18.8696 H   0  0  0  0  0  0
  -27.3664  -12.5766   17.7928 H   0  0  0  0  0  0
  -27.6568  -14.2587   19.5092 H   0  0  0  0  0  0
  -28.7037  -12.0861   21.3847 H   0  0  0  0  0  0
  -28.4355  -13.7493   21.8302 H   0  0  0  0  0  0
  -25.2773   -9.5668   22.4747 H   0  0  0  0  0  0
  -23.9993   -7.4644   22.7486 H   0  0  0  0  0  0
  -21.0843   -8.8784   19.8953 H   0  0  0  0  0  0
  -22.3714  -10.9670   19.6165 H   0  0  0  0  0  0
  -21.2026   -7.6149   23.9708 H   0  0  0  0  0  0
  -21.1472   -6.0521   25.9067 H   0  0  0  0  0  0
  -22.0603   -2.7610   23.2831 H   0  0  0  0  0  0
  -22.4076  -11.9886   22.4822 H   0  0  0  0  0  0
  -21.1084  -13.1251   22.2607 H   0  0  0  0  0  0
  -24.6506  -15.8461   20.5229 H   0  0  0  0  0  0
  -26.2620  -15.6350   20.0659 H   0  0  0  0  0  0
  -26.7179  -32.5475   23.1124 H   0  0  0  0  0  0
  -25.0214  -33.9803   25.0547 H   0  0  0  0  0  0
  -22.7171  -31.3110   21.4105 H   0  0  0  0  0  0
  -23.3776  -35.9619   23.3296 H   0  0  0  0  0  0
  -24.3598  -36.8927   22.2054 H   0  0  0  0  0  0
  -23.7214  -37.6488   23.6671 H   0  0  0  0  0  0
  -26.1086  -31.5580   20.6220 H   0  0  0  0  0  0
  -26.8436  -30.8292   22.0152 H   0  0  0  0  0  0
  -28.1155  -28.9670   21.1871 H   0  0  0  0  0  0
  -25.9310  -25.9788   18.9296 H   0  0  0  0  0  0
  -23.9584  -27.3506   18.9830 H   0  0  0  0  0  0
  -23.7455  -30.6123   19.4087 H   0  0  0  0  0  0
  -22.7533  -29.2585   19.8622 H   0  0  0  0  0  0
  -25.1292  -36.1968   25.0815 H   0  0  0  0  0  0
  -20.9990  -28.3235   24.1396 H   0  0  0  0  0  0
  -20.5679  -26.2287   23.3604 H   0  0  0  0  0  0
  -21.6644  -26.7417   22.1196 H   0  0  0  0  0  0
  -19.6904  -25.6264   21.1267 H   0  0  0  0  0  0
  -19.6693  -27.3143   20.6733 H   0  0  0  0  0  0
  -17.4204  -26.6701   21.3995 H   0  0  0  0  0  0
  -18.0291  -26.0036   22.8986 H   0  0  0  0  0  0
  -19.7924  -30.7242   24.2313 H   0  0  0  0  0  0
  -17.4996  -31.6271   24.5115 H   0  0  0  0  0  0
  -15.5340  -30.2946   23.7658 H   0  0  0  0  0  0
  -15.8675  -28.0757   22.7131 H   0  0  0  0  0  0
  -24.5889  -30.7140   25.7850 H   0  0  0  0  0  0
  -24.8963  -32.2939   26.4985 H   0  0  0  0  0  0
  -25.8080  -30.8917   27.0262 H   0  0  0  0  0  0
  -26.2905  -29.6818   24.1270 H   0  0  0  0  0  0
  -27.4019  -29.7320   25.4756 H   0  0  0  0  0  0
  -27.8796  -30.4352   23.9490 H   0  0  0  0  0  0
  -27.2629  -33.3711   26.2087 H   0  0  0  0  0  0
  -28.3848  -32.6971   25.0368 H   0  0  0  0  0  0
  -28.0716  -31.8574   26.5472 H   0  0  0  0  0  0
  -28.2582  -38.0121   24.7522 H   0  0  0  0  0  0
  -28.1109  -36.2649   24.6269 H   0  0  0  0  0  0
  -27.2326  -37.1422   25.8866 H   0  0  0  0  0  0
  -20.9364  -29.8834   21.6964 H   0  0  0  0  0  0
  -26.0199  -38.2865   24.1395 H   0  0  0  0  0  0
  -30.6245  -20.9005   16.3492 H   0  0  0  0  0  0
  -31.4505  -20.0199   17.6329 H   0  0  0  0  0  0
  -30.8994  -21.6742   17.9062 H   0  0  0  0  0  0
  -27.3681  -19.7808   26.3256 H   0  0  0  0  0  0
  -29.0442  -20.3088   26.2077 H   0  0  0  0  0  0
  -28.6564  -18.5862   26.2009 H   0  0  0  0  0  0
  -32.2386  -18.1613   22.0779 H   0  0  0  0  0  0
  -32.2963  -17.4397   20.4805 H   0  0  0  0  0  0
  -32.5165  -16.4398   21.9269 H   0  0  0  0  0  0
  -28.4906  -20.8456   17.6096 H   0  0  0  0  0  0
  -29.0980  -19.2377   17.4343 H   0  0  0  0  0  0
  -27.3398  -22.3707   20.5308 H   0  0  0  0  0  0
  -28.0016  -22.3805   18.9545 H   0  0  0  0  0  0
  -30.2533  -20.1434   23.9097 H   0  0  0  0  0  0
  -29.9897  -18.4381   23.9363 H   0  0  0  0  0  0
  -27.7845  -20.5632   24.0408 H   0  0  0  0  0  0
  -27.4782  -18.8453   24.0022 H   0  0  0  0  0  0
  -29.9100  -23.8683   19.7575 H   0  0  0  0  0  0
  -29.2111  -23.8531   21.3594 H   0  0  0  0  0  0
  -27.0707  -24.7695   20.3839 H   0  0  0  0  0  0
  -27.8463  -24.9072   18.8241 H   0  0  0  0  0  0
  -30.1963  -16.8914   22.6009 H   0  0  0  0  0  0
  -28.9882  -15.5456   21.1300 H   0  0  0  0  0  0
  1 25  1  0  0  0
  1 30  2  0  0  0
  1 87  1  0  0  0
  2  3  1  0  0  0
  2 25  1  0  0  0
  2 88  1  0  0  0
  2 89  1  0  0  0
  3  4  1  0  0  0
  3 90  1  0  0  0
  3 91  1  0  0  0
  4  5  1  0  0  0
  4 92  1  0  0  0
  4 93  1  0  0  0
  5  6  1  0  0  0
  5 26  1  0  0  0
  5 94  1  0  0  0
  6 25  1  0  0  0
  6 95  1  0  0  0
  6 96  1  0  0  0
  7  8  2  0  0  0
  7 26  1  0  0  0
  7 29  1  0  0  0
  8  9  1  0  0  0
  8 22  1  0  0  0
  9 10  1  0  0  0
  9 27  2  0  0  0
 10 11  2  0  0  0
 10 15  1  0  0  0
 11 12  1  0  0  0
 11 97  1  0  0  0
 12 13  2  0  0  0
 12 98  1  0  0  0
 13 14  1  0  0  0
 13 31  1  0  0  0
 14 15  2  0  0  0
 14 99  1  0  0  0
 15100  1  0  0  0
 16 17  2  0  0  0
 16 21  1  0  0  0
 16 31  1  0  0  0
 17 18  1  0  0  0
 17101  1  0  0  0
 18 19  2  0  0  0
 18102  1  0  0  0
 19 20  1  0  0  0
 19 24  1  0  0  0
 20 21  2  0  0  0
 20103  1  0  0  0
 21 23  1  0  0  0
 22 28  1  0  0  0
 22 32  2  0  0  0
 26 27  1  0  0  0
 28104  1  0  0  0
 28105  1  0  0  0
 29106  1  0  0  0
 29107  1  0  0  0
 33 34  1  0  0  0
 33 66  1  0  0  0
 33 70  2  0  0  0
 34 36  1  0  0  0
 34 59  1  0  0  0
 34108  1  0  0  0
 35 44  2  0  0  0
 35 45  1  0  0  0
 35 68  1  0  0  0
 36 56  1  0  0  0
 36109  1  0  0  0
 37 39  1  0  0  0
 37 47  1  0  0  0
 37 66  1  0  0  0
 37110  1  0  0  0
 38 43  2  0  0  0
 38 46  1  0  0  0
 38 47  1  0  0  0
 39 64  1  0  0  0
 39 67  2  0  0  0
 40 52  1  0  0  0
 40 53  2  0  0  0
 40 58  1  0  0  0
 41111  1  0  0  0
 41112  1  0  0  0
 41113  1  0  0  0
 41 48  1  0  0  0
 42 43  1  0  0  0
 42 66  1  0  0  0
 42114  1  0  0  0
 42115  1  0  0  0
 43 44  1  0  0  0
 44116  1  0  0  0
 45 46  2  0  0  0
 45117  1  0  0  0
 46118  1  0  0  0
 47119  1  0  0  0
 47120  1  0  0  0
 48 56  1  0  0  0
 48 65  1  0  0  0
 48121  1  0  0  0
 49 50  1  0  0  0
 49 53  1  0  0  0
 49 64  1  0  0  0
 49122  1  0  0  0
 50 51  1  0  0  0
 50123  1  0  0  0
 50124  1  0  0  0
 51 52  1  0  0  0
 51125  1  0  0  0
 51126  1  0  0  0
 52127  1  0  0  0
 52128  1  0  0  0
 53 54  1  0  0  0
 54 55  2  0  0  0
 54129  1  0  0  0
 55 57  1  0  0  0
 55130  1  0  0  0
 56 69  2  0  0  0
 57 58  2  0  0  0
 57131  1  0  0  0
 58132  1  0  0  0
 59 60  1  0  0  0
 59 61  1  0  0  0
 59 62  1  0  0  0
 60133  1  0  0  0
 60134  1  0  0  0
 60135  1  0  0  0
 61136  1  0  0  0
 61137  1  0  0  0
 61138  1  0  0  0
 62139  1  0  0  0
 62140  1  0  0  0
 62141  1  0  0  0
 63 65  1  0  0  0
 63142  1  0  0  0
 63143  1  0  0  0
 63144  1  0  0  0
 64145  1  0  0  0
 65146  1  0  0  0
 68 83  1  0  0  0
 71 72  2  0  0  0
 71 78  1  0  0  0
 71 86  1  0  0  0
 72 79  1  0  0  0
 72 85  1  0  0  0
 73 74  1  0  0  0
 73 80  1  0  0  0
 73 85  2  0  0  0
 74 84  1  0  0  0
 74 86  2  0  0  0
 75 78  1  0  0  0
 75147  1  0  0  0
 75148  1  0  0  0
 75149  1  0  0  0
 76 81  1  0  0  0
 76150  1  0  0  0
 76151  1  0  0  0
 76152  1  0  0  0
 77153  1  0  0  0
 77154  1  0  0  0
 77155  1  0  0  0
 77 84  1  0  0  0
 78156  1  0  0  0
 78157  1  0  0  0
 79 82  1  0  0  0
 79158  1  0  0  0
 79159  1  0  0  0
 80 81  1  0  0  0
 80160  1  0  0  0
 80161  1  0  0  0
 81162  1  0  0  0
 81163  1  0  0  0
 82 83  1  0  0  0
 82164  1  0  0  0
 82165  1  0  0  0
 83166  1  0  0  0
 83167  1  0  0  0
 84 87  1  0  0  0
 84168  1  0  0  0
 87169  1  0  0  0
M  ISO  4   1 100  68 101  83 101  87 100
M  END
> <chiral flag>
0

> <version>
0

> <s_m_source_file>
/data/baiqing/PycharmProjects/Reinvent-master-3.2/result/LINK_invent/BTK/process_docking_weight1_custom_sum_contain_oxygen_bond_distance_aromatic_linkinvent_7_9_3/rearranged_h_0079.sdf

> <i_m_source_file_index>
31

> <r_mmod_Potential_Energy-OPLS-2005>
63.2888679504395

> <r_mmod_Stretch_Energy-OPLS-2005>
88.6787109375

> <r_mmod_Bend_Energy-OPLS-2005>
169.526794433594

> <r_mmod_Torsional_Energy-OPLS-2005>
177.07958984375

> <r_mmod_Improper_Torsional_Energy-OPLS-2005>
5.61895751953125

> <r_mmod_Van_der_Waal_Energy-OPLS-2005>
158.182052612305

> <r_mmod_Electrostatic_Energy-OPLS-2005>
-370.061584472656

> <r_mmod_Solvation_Energy-OPLS-2005>
-216.419448852539

> <b_mmod_Minimization_Converged-OPLS-2005>
0

> <r_mmod_RMS_Derivative-OPLS-2005>
2.82065796852112

$$$$
31
                    3D
 Structure written by MMmdl.
163171  0  0  1  0            999 V2000
  -30.6247  -14.7431   20.4363 C   0  0  0  0  0  0
  -30.4122  -12.4467   19.4845 C   0  0  0  0  0  0
  -29.5050  -12.4870   18.2369 C   0  0  0  0  0  0
  -28.0276  -12.3307   18.6450 C   0  0  0  0  0  0
  -27.6297  -13.2420   19.8381 C   0  0  2  0  0  0
  -28.6681  -13.2190   20.9770 C   0  0  0  0  0  0
  -25.2468  -13.8233   20.5673 C   0  0  0  0  0  0
  -24.1773  -13.0440   20.9202 C   0  0  0  0  0  0
  -24.6378  -11.6930   20.8727 C   0  0  0  0  0  0
  -23.9075  -10.4300   21.0402 C   0  0  0  0  0  0
  -24.3638   -9.4211   21.9163 C   0  0  0  0  0  0
  -23.6306   -8.2250   22.0745 C   0  0  0  0  0  0
  -22.4277   -8.0298   21.3554 C   0  0  0  0  0  0
  -21.9911   -9.0267   20.4659 C   0  0  0  0  0  0
  -22.7248  -10.2135   20.3062 C   0  0  0  0  0  0
  -21.6855   -6.0741   22.5278 C   0  0  0  0  0  0
  -21.4023   -6.5650   23.8213 C   0  0  0  0  0  0
  -21.3658   -5.6805   24.9175 C   0  0  0  0  0  0
  -21.6045   -4.3066   24.7227 C   0  0  0  0  0  0
  -21.8814   -3.8154   23.4349 C   0  0  0  0  0  0
  -21.9197   -4.6967   22.3406 C   0  0  0  0  0  0
  -22.7810  -13.5219   21.1891 C   0  0  0  0  0  0
  -22.1656   -4.2156   21.0980 F   0  0  0  0  0  0
  -21.5627   -3.4549   25.7733 F   0  0  0  0  0  0
  -29.9606  -13.5417   20.3726 N   0  0  0  0  0  0
  -26.2871  -12.9441   20.3229 N   0  0  0  0  0  0
  -25.9300  -11.6568   20.5723 N   0  0  0  0  0  0
  -22.0508  -12.8165   22.0458 N   0  0  0  0  0  0
  -25.4147  -15.1941   20.4048 N   0  0  0  0  0  0
  -31.8350  -14.7693   20.2134 O   0  0  0  0  0  0
  -21.6653   -6.8878   21.4237 O   0  0  0  0  0  0
  -22.3481  -14.5534   20.6782 O   0  0  0  0  0  0
  -24.6316  -31.8542   23.1978 C   0  0  0  0  0  0
  -25.9147  -32.4735   23.8317 C   0  0  1  0  0  0
  -27.1852  -27.2303   20.1131 C   0  0  0  0  0  0
  -25.5951  -33.8543   24.2238 N   0  0  0  0  0  0
  -23.4245  -30.4794   21.5460 C   0  0  2  0  0  0
  -24.8638  -28.9290   20.1019 C   0  0  0  0  0  0
  -22.7483  -29.4591   22.4929 C   0  0  0  0  0  0
  -18.0292  -28.1392   22.8454 C   0  0  0  0  0  0
  -24.1502  -36.7274   23.2639 C   0  0  0  0  0  0
  -25.9736  -30.7556   21.3809 C   0  0  0  0  0  0
  -26.0369  -29.3771   20.7214 C   0  0  0  0  0  0
  -27.1985  -28.5369   20.7215 C   0  0  0  0  0  0
  -26.0045  -26.8757   19.4310 C   0  0  0  0  0  0
  -24.8552  -27.6899   19.4453 C   0  0  0  0  0  0
  -23.6380  -29.8192   20.1592 C   0  0  0  0  0  0
  -25.4127  -36.3041   24.0312 C   0  0  1  0  0  0
  -20.5887  -28.3692   23.1262 C   0  0  2  0  0  0
  -20.6784  -26.9432   22.5309 C   0  0  0  0  0  0
  -19.5763  -26.6495   21.5095 C   0  0  0  0  0  0
  -18.1923  -26.7980   22.1506 C   0  0  0  0  0  0
  -19.1540  -28.8847   23.2867 C   0  0  0  0  0  0
  -18.9455  -30.1437   23.8915 C   0  0  0  0  0  0
  -17.6446  -30.6560   24.0581 C   0  0  0  0  0  0
  -25.9071  -34.9420   23.5073 C   0  0  0  0  0  0
  -16.5342  -29.9054   23.6335 C   0  0  0  0  0  0
  -16.7276  -28.6495   23.0322 C   0  0  0  0  0  0
  -26.4499  -31.6567   25.0715 C   0  0  0  0  0  0
  -25.3722  -31.3755   26.1447 C   0  0  0  0  0  0
  -27.0315  -30.2972   24.6206 C   0  0  0  0  0  0
  -27.6050  -32.4307   25.7497 C   0  0  0  0  0  0
  -27.5578  -37.1809   24.8467 C   0  0  0  0  0  0
  -21.4194  -29.3049   22.3671 N   0  0  0  0  0  0
  -26.4291  -37.3746   23.9401 N   0  0  0  0  0  0
  -24.6964  -31.0481   22.0978 N   0  0  0  0  0  0
  -23.4188  -28.8124   23.3014 O   0  0  0  0  0  0
  -28.2697  -26.3243   20.2002 O   0  0  0  0  0  0
  -26.5627  -34.8889   22.4642 O   0  0  0  0  0  0
  -23.5477  -32.1363   23.7284 O   0  0  0  0  0  0
  -27.3281  -18.7750   22.3186 C   0  0  0  0  0  0
  -28.0606  -19.3981   21.3400 C   0  0  0  0  0  0
  -26.7703  -20.9100   22.4299 C   0  0  0  0  0  0
  -25.9258  -21.9687   23.1013 C   0  0  0  0  0  0
  -26.1693  -23.7709   20.6219 C   0  0  0  0  0  0
  -28.2995  -24.0374   22.1254 C   0  0  0  0  0  0
  -29.0149  -18.4923   20.4754 C   0  0  0  0  0  0
  -28.1047  -22.0451   20.4865 C   0  0  0  0  0  0
  -29.1616  -16.9213   20.9621 C   0  0  0  0  0  0
  -28.2447  -24.8577   19.7910 C   0  0  0  0  0  0
  -27.7096  -23.6425   20.7547 C   0  0  0  0  0  0
  -27.6806  -20.8139   21.3949 N   0  0  0  0  0  0
  -26.5794  -19.6990   22.9356 N   0  3  0  0  0  0
  -29.9432  -15.9130   20.1371 N   0  0  0  0  0  0
  -30.3320  -11.4850   19.9934 H   0  0  0  0  0  0
  -31.4593  -12.5453   19.1927 H   0  0  0  0  0  0
  -29.7877  -11.6992   17.5386 H   0  0  0  0  0  0
  -29.6456  -13.4319   17.7120 H   0  0  0  0  0  0
  -27.8732  -11.2855   18.9117 H   0  0  0  0  0  0
  -27.3790  -12.5269   17.7903 H   0  0  0  0  0  0
  -27.6124  -14.2556   19.4385 H   0  0  0  0  0  0
  -28.6969  -12.2486   21.4738 H   0  0  0  0  0  0
  -28.4119  -13.9613   21.7353 H   0  0  0  0  0  0
  -25.2771   -9.5684   22.4742 H   0  0  0  0  0  0
  -24.0030   -7.4631   22.7438 H   0  0  0  0  0  0
  -21.0853   -8.8775   19.8958 H   0  0  0  0  0  0
  -22.3691  -10.9674   19.6195 H   0  0  0  0  0  0
  -21.2020   -7.6157   23.9713 H   0  0  0  0  0  0
  -21.1482   -6.0542   25.9082 H   0  0  0  0  0  0
  -22.0589   -2.7618   23.2848 H   0  0  0  0  0  0
  -22.4171  -11.9823   22.4794 H   0  0  0  0  0  0
  -21.1151  -13.1162   22.2767 H   0  0  0  0  0  0
  -24.6351  -15.8400   20.4850 H   0  0  0  0  0  0
  -26.2468  -15.6160   20.0121 H   0  0  0  0  0  0
  -26.7188  -32.5359   23.1036 H   0  0  0  0  0  0
  -25.0072  -33.9689   25.0363 H   0  0  0  0  0  0
  -22.7209  -31.3045   21.4061 H   0  0  0  0  0  0
  -23.3733  -35.9640   23.3307 H   0  0  0  0  0  0
  -24.3585  -36.8894   22.2051 H   0  0  0  0  0  0
  -23.7288  -37.6500   23.6649 H   0  0  0  0  0  0
  -26.1138  -31.5137   20.6077 H   0  0  0  0  0  0
  -26.8533  -30.8071   22.0110 H   0  0  0  0  0  0
  -28.0968  -28.8692   21.2238 H   0  0  0  0  0  0
  -25.9403  -25.9521   18.8796 H   0  0  0  0  0  0
  -23.9618  -27.3562   18.9382 H   0  0  0  0  0  0
  -23.7633  -30.6006   19.4082 H   0  0  0  0  0  0
  -22.7520  -29.2591   19.8523 H   0  0  0  0  0  0
  -25.1312  -36.1881   25.0797 H   0  0  0  0  0  0
  -20.9963  -28.3181   24.1375 H   0  0  0  0  0  0
  -20.5735  -26.2234   23.3437 H   0  0  0  0  0  0
  -21.6630  -26.7537   22.1024 H   0  0  0  0  0  0
  -19.6947  -25.6476   21.0973 H   0  0  0  0  0  0
  -19.6702  -27.3424   20.6718 H   0  0  0  0  0  0
  -17.4222  -26.6872   21.3849 H   0  0  0  0  0  0
  -18.0268  -26.0044   22.8803 H   0  0  0  0  0  0
  -19.7918  -30.7260   24.2294 H   0  0  0  0  0  0
  -17.4978  -31.6220   24.5214 H   0  0  0  0  0  0
  -15.5327  -30.2930   23.7669 H   0  0  0  0  0  0
  -15.8693  -28.0803   22.6980 H   0  0  0  0  0  0
  -24.5894  -30.7086   25.7813 H   0  0  0  0  0  0
  -24.8905  -32.2933   26.4833 H   0  0  0  0  0  0
  -25.8054  -30.8986   27.0250 H   0  0  0  0  0  0
  -26.2878  -29.6750   24.1205 H   0  0  0  0  0  0
  -27.3951  -29.7222   25.4735 H   0  0  0  0  0  0
  -27.8780  -30.4225   23.9449 H   0  0  0  0  0  0
  -27.2640  -33.3607   26.2073 H   0  0  0  0  0  0
  -28.3868  -32.6888   25.0333 H   0  0  0  0  0  0
  -28.0688  -31.8424   26.5433 H   0  0  0  0  0  0
  -28.2605  -38.0096   24.7461 H   0  0  0  0  0  0
  -28.1066  -36.2623   24.6338 H   0  0  0  0  0  0
  -27.2294  -37.1506   25.8874 H   0  0  0  0  0  0
  -20.9375  -29.8696   21.6820 H   0  0  0  0  0  0
  -26.0160  -38.2826   24.1378 H   0  0  0  0  0  0
  -27.2680  -17.7423   22.6311 H   0  0  0  0  0  0
  -25.9415  -21.7731   24.1739 H   0  0  0  0  0  0
  -24.8960  -21.8712   22.7513 H   0  0  0  0  0  0
  -26.2451  -22.9861   22.9741 H   0  0  0  0  0  0
  -25.6251  -22.8546   20.8213 H   0  0  0  0  0  0
  -25.8804  -23.9684   19.5915 H   0  0  0  0  0  0
  -25.7654  -24.5758   21.2385 H   0  0  0  0  0  0
  -29.3602  -24.2734   22.0296 H   0  0  0  0  0  0
  -27.8065  -24.9244   22.5261 H   0  0  0  0  0  0
  -28.2691  -23.2471   22.8696 H   0  0  0  0  0  0
  -29.9963  -18.9668   20.4542 H   0  0  0  0  0  0
  -28.6444  -18.5097   19.4515 H   0  0  0  0  0  0
  -29.1905  -21.9813   20.4242 H   0  0  0  0  0  0
  -27.7495  -21.7832   19.4863 H   0  0  0  0  0  0
  -28.1659  -16.4857   21.0398 H   0  0  0  0  0  0
  -29.5765  -16.9056   21.9725 H   0  0  0  0  0  0
  -29.2962  -24.6367   19.6097 H   0  0  0  0  0  0
  -27.8120  -24.7692   18.7934 H   0  0  0  0  0  0
  -25.9402  -19.4912   23.6925 H   0  0  0  0  0  0
  -30.5325  -16.4231   19.4940 H   0  0  0  0  0  0
  1 25  1  0  0  0
  1 30  2  0  0  0
  1 84  1  0  0  0
  2  3  1  0  0  0
  2 25  1  0  0  0
  2 85  1  0  0  0
  2 86  1  0  0  0
  3  4  1  0  0  0
  3 87  1  0  0  0
  3 88  1  0  0  0
  4  5  1  0  0  0
  4 89  1  0  0  0
  4 90  1  0  0  0
  5  6  1  0  0  0
  5 26  1  0  0  0
  5 91  1  0  0  0
  6 25  1  0  0  0
  6 92  1  0  0  0
  6 93  1  0  0  0
  7  8  2  0  0  0
  7 26  1  0  0  0
  7 29  1  0  0  0
  8  9  1  0  0  0
  8 22  1  0  0  0
  9 10  1  0  0  0
  9 27  2  0  0  0
 10 11  2  0  0  0
 10 15  1  0  0  0
 11 12  1  0  0  0
 11 94  1  0  0  0
 12 13  2  0  0  0
 12 95  1  0  0  0
 13 14  1  0  0  0
 13 31  1  0  0  0
 14 15  2  0  0  0
 14 96  1  0  0  0
 15 97  1  0  0  0
 16 17  2  0  0  0
 16 21  1  0  0  0
 16 31  1  0  0  0
 17 18  1  0  0  0
 17 98  1  0  0  0
 18 19  2  0  0  0
 18 99  1  0  0  0
 19 20  1  0  0  0
 19 24  1  0  0  0
 20 21  2  0  0  0
 20100  1  0  0  0
 21 23  1  0  0  0
 22 28  1  0  0  0
 22 32  2  0  0  0
 26 27  1  0  0  0
 28101  1  0  0  0
 28102  1  0  0  0
 29103  1  0  0  0
 29104  1  0  0  0
 33 34  1  0  0  0
 33 66  1  0  0  0
 33 70  2  0  0  0
 34 36  1  0  0  0
 34 59  1  0  0  0
 34105  1  0  0  0
 35 44  2  0  0  0
 35 45  1  0  0  0
 35 68  1  0  0  0
 36 56  1  0  0  0
 36106  1  0  0  0
 37 39  1  0  0  0
 37 47  1  0  0  0
 37 66  1  0  0  0
 37107  1  0  0  0
 38 43  2  0  0  0
 38 46  1  0  0  0
 38 47  1  0  0  0
 39 64  1  0  0  0
 39 67  2  0  0  0
 40 52  1  0  0  0
 40 53  2  0  0  0
 40 58  1  0  0  0
 41108  1  0  0  0
 41109  1  0  0  0
 41110  1  0  0  0
 41 48  1  0  0  0
 42 43  1  0  0  0
 42 66  1  0  0  0
 42111  1  0  0  0
 42112  1  0  0  0
 43 44  1  0  0  0
 44113  1  0  0  0
 45 46  2  0  0  0
 45114  1  0  0  0
 46115  1  0  0  0
 47116  1  0  0  0
 47117  1  0  0  0
 48 56  1  0  0  0
 48 65  1  0  0  0
 48118  1  0  0  0
 49 50  1  0  0  0
 49 53  1  0  0  0
 49 64  1  0  0  0
 49119  1  0  0  0
 50 51  1  0  0  0
 50120  1  0  0  0
 50121  1  0  0  0
 51 52  1  0  0  0
 51122  1  0  0  0
 51123  1  0  0  0
 52124  1  0  0  0
 52125  1  0  0  0
 53 54  1  0  0  0
 54 55  2  0  0  0
 54126  1  0  0  0
 55 57  1  0  0  0
 55127  1  0  0  0
 56 69  2  0  0  0
 57 58  2  0  0  0
 57128  1  0  0  0
 58129  1  0  0  0
 59 60  1  0  0  0
 59 61  1  0  0  0
 59 62  1  0  0  0
 60130  1  0  0  0
 60131  1  0  0  0
 60132  1  0  0  0
 61133  1  0  0  0
 61134  1  0  0  0
 61135  1  0  0  0
 62136  1  0  0  0
 62137  1  0  0  0
 62138  1  0  0  0
 63 65  1  0  0  0
 63139  1  0  0  0
 63140  1  0  0  0
 63141  1  0  0  0
 64142  1  0  0  0
 65143  1  0  0  0
 68 80  1  0  0  0
 71 72  2  0  0  0
 71 83  1  0  0  0
 71144  1  0  0  0
 72 77  1  0  0  0
 72 82  1  0  0  0
 73 74  1  0  0  0
 73 82  1  0  0  0
 73 83  2  0  0  0
 74145  1  0  0  0
 74146  1  0  0  0
 74147  1  0  0  0
 75148  1  0  0  0
 75149  1  0  0  0
 75150  1  0  0  0
 75 81  1  0  0  0
 76 81  1  0  0  0
 76151  1  0  0  0
 76152  1  0  0  0
 76153  1  0  0  0
 77 79  1  0  0  0
 77154  1  0  0  0
 77155  1  0  0  0
 78 81  1  0  0  0
 78 82  1  0  0  0
 78156  1  0  0  0
 78157  1  0  0  0
 79 84  1  0  0  0
 79158  1  0  0  0
 79159  1  0  0  0
 80 81  1  0  0  0
 80160  1  0  0  0
 80161  1  0  0  0
 83162  1  0  0  0
 84163  1  0  0  0
M  CHG  1  83   1
M  ISO  4   1 100  68 101  80 101  84 100
M  END
> <chiral flag>
0

> <version>
0

> <s_m_source_file>
/data/baiqing/PycharmProjects/Reinvent-master-3.2/result/LINK_invent/BTK/process_docking_weight1_custom_sum_contain_oxygen_bond_distance_aromatic_linkinvent_7_9_3/rearranged_h_0079.sdf

> <i_m_source_file_index>
32

> <r_mmod_Potential_Energy-OPLS-2005>
354.729827880859

> <r_mmod_Stretch_Energy-OPLS-2005>
181.355682373047

> <r_mmod_Bend_Energy-OPLS-2005>
297.089233398438

> <r_mmod_Torsional_Energy-OPLS-2005>
278.425109863281

> <r_mmod_Improper_Torsional_Energy-OPLS-2005>
25.5896186828613

> <r_mmod_Van_der_Waal_Energy-OPLS-2005>
133.670928955078

> <r_mmod_Electrostatic_Energy-OPLS-2005>
-234.604431152344

> <r_mmod_Solvation_Energy-OPLS-2005>
-427.873474121094

> <b_mmod_Minimization_Converged-OPLS-2005>
0

> <r_mmod_RMS_Derivative-OPLS-2005>
3.60856246948242

$$$$
32
                    3D
 Structure written by MMmdl.
162170  0  0  1  0            999 V2000
  -30.7012  -14.5099   20.6074 C   0  0  0  0  0  0
  -30.4301  -12.3476   19.4139 C   0  0  0  0  0  0
  -29.4962  -12.5092   18.1971 C   0  0  0  0  0  0
  -28.0194  -12.3631   18.6146 C   0  0  0  0  0  0
  -27.6565  -13.2130   19.8623 C   0  0  2  0  0  0
  -28.7004  -13.0201   20.9831 C   0  0  0  0  0  0
  -25.2606  -13.8175   20.5677 C   0  0  0  0  0  0
  -24.1864  -13.0444   20.9185 C   0  0  0  0  0  0
  -24.6432  -11.6918   20.8713 C   0  0  0  0  0  0
  -23.9083  -10.4316   21.0408 C   0  0  0  0  0  0
  -24.3629   -9.4227   21.9178 C   0  0  0  0  0  0
  -23.6303   -8.2258   22.0756 C   0  0  0  0  0  0
  -22.4290   -8.0303   21.3556 C   0  0  0  0  0  0
  -21.9913   -9.0278   20.4655 C   0  0  0  0  0  0
  -22.7250  -10.2159   20.3069 C   0  0  0  0  0  0
  -21.6871   -6.0741   22.5280 C   0  0  0  0  0  0
  -21.4024   -6.5622   23.8206 C   0  0  0  0  0  0
  -21.3671   -5.6778   24.9159 C   0  0  0  0  0  0
  -21.6059   -4.3044   24.7202 C   0  0  0  0  0  0
  -21.8811   -3.8144   23.4336 C   0  0  0  0  0  0
  -21.9198   -4.6961   22.3383 C   0  0  0  0  0  0
  -22.7891  -13.5243   21.1814 C   0  0  0  0  0  0
  -22.1670   -4.2148   21.0965 F   0  0  0  0  0  0
  -21.5629   -3.4526   25.7724 F   0  0  0  0  0  0
  -30.0241  -13.3412   20.4249 N   0  0  0  0  0  0
  -26.3017  -12.9346   20.3310 N   0  0  0  0  0  0
  -25.9356  -11.6499   20.5722 N   0  0  0  0  0  0
  -22.0515  -12.8284   22.0378 N   0  0  0  0  0  0
  -25.4317  -15.1904   20.4097 N   0  0  0  0  0  0
  -31.8337  -14.6933   20.1541 O   0  0  0  0  0  0
  -21.6663   -6.8901   21.4261 O   0  0  0  0  0  0
  -22.3566  -14.5517   20.6610 O   0  0  0  0  0  0
  -24.6207  -31.8643   23.2068 C   0  0  0  0  0  0
  -25.9074  -32.4807   23.8397 C   0  0  1  0  0  0
  -27.2113  -27.3583   20.1486 C   0  0  0  0  0  0
  -25.5916  -33.8614   24.2320 N   0  0  0  0  0  0
  -23.4150  -30.4893   21.5451 C   0  0  2  0  0  0
  -24.8668  -28.9615   20.0999 C   0  0  0  0  0  0
  -22.7452  -29.4656   22.4909 C   0  0  0  0  0  0
  -18.0278  -28.1398   22.8485 C   0  0  0  0  0  0
  -24.1474  -36.7310   23.2657 C   0  0  0  0  0  0
  -25.9537  -30.8041   21.3866 C   0  0  0  0  0  0
  -26.0273  -29.4399   20.7268 C   0  0  0  0  0  0
  -27.2059  -28.6449   20.7511 C   0  0  0  0  0  0
  -26.0601  -26.9508   19.4446 C   0  0  0  0  0  0
  -24.8829  -27.7181   19.4484 C   0  0  0  0  0  0
  -23.6305  -29.8325   20.1564 C   0  0  0  0  0  0
  -25.4103  -36.3103   24.0335 C   0  0  1  0  0  0
  -20.5885  -28.3708   23.1272 C   0  0  2  0  0  0
  -20.6779  -26.9428   22.5405 C   0  0  0  0  0  0
  -19.5753  -26.6392   21.5210 C   0  0  0  0  0  0
  -18.1931  -26.7934   22.1613 C   0  0  0  0  0  0
  -19.1542  -28.8860   23.2873 C   0  0  0  0  0  0
  -18.9470  -30.1469   23.8890 C   0  0  0  0  0  0
  -17.6486  -30.6602   24.0577 C   0  0  0  0  0  0
  -25.9037  -34.9472   23.5119 C   0  0  0  0  0  0
  -16.5365  -29.9111   23.6355 C   0  0  0  0  0  0
  -16.7273  -28.6522   23.0360 C   0  0  0  0  0  0
  -26.4419  -31.6625   25.0788 C   0  0  0  0  0  0
  -25.3622  -31.3797   26.1481 C   0  0  0  0  0  0
  -27.0323  -30.3050   24.6326 C   0  0  0  0  0  0
  -27.5927  -32.4360   25.7617 C   0  0  0  0  0  0
  -27.5565  -37.1813   24.8449 C   0  0  0  0  0  0
  -21.4162  -29.3055   22.3655 N   0  0  0  0  0  0
  -26.4273  -37.3794   23.9399 N   0  0  0  0  0  0
  -24.6803  -31.0690   22.1026 N   0  0  0  0  0  0
  -23.4179  -28.8218   23.2996 O   0  0  0  0  0  0
  -28.2626  -26.4531   20.2738 O   0  0  0  0  0  0
  -26.5602  -34.8931   22.4687 O   0  0  0  0  0  0
  -23.5359  -32.1449   23.7394 O   0  0  0  0  0  0
  -29.9702  -19.2041   22.2345 C   0  0  0  0  0  0
  -29.9217  -20.3292   21.3489 C   0  0  0  0  0  0
  -30.2110  -18.0959   21.4546 C   0  0  0  0  0  0
  -30.1673  -18.5335   17.6195 C   0  0  0  0  0  0
  -26.6853  -24.7035   21.2966 C   0  0  0  0  0  0
  -29.9994  -21.8243   21.7174 C   0  0  0  0  0  0
  -30.6205  -16.6871   21.8957 C   0  0  0  0  0  0
  -29.0697  -22.8591   20.9889 C   0  0  0  0  0  0
  -29.2049  -24.3445   21.5301 C   0  0  0  0  0  0
  -30.4598  -17.7945   18.9345 C   0  0  0  0  0  0
  -28.0612  -25.4127   21.3033 C   0  0  1  0  0  0
  -30.0419  -19.9185   20.0940 N   0  0  0  0  0  0
  -30.1993  -18.5614   20.1485 N   0  0  0  0  0  0
  -30.0302  -15.4970   21.2423 N   0  0  0  0  0  0
  -31.4707  -12.4648   19.1048 H   0  0  0  0  0  0
  -30.3512  -11.3387   19.8204 H   0  0  0  0  0  0
  -29.7359  -11.7725   17.4292 H   0  0  0  0  0  0
  -29.6572  -13.4845   17.7378 H   0  0  0  0  0  0
  -27.8450  -11.3086   18.8260 H   0  0  0  0  0  0
  -27.3647  -12.6159   17.7808 H   0  0  0  0  0  0
  -27.6909  -14.2565   19.5462 H   0  0  0  0  0  0
  -28.6965  -11.9890   21.3380 H   0  0  0  0  0  0
  -28.4454  -13.6268   21.8531 H   0  0  0  0  0  0
  -25.2796   -9.5678   22.4722 H   0  0  0  0  0  0
  -24.0018   -7.4644   22.7462 H   0  0  0  0  0  0
  -21.0848   -8.8809   19.8955 H   0  0  0  0  0  0
  -22.3732  -10.9697   19.6156 H   0  0  0  0  0  0
  -21.2037   -7.6141   23.9710 H   0  0  0  0  0  0
  -21.1500   -6.0505   25.9055 H   0  0  0  0  0  0
  -22.0589   -2.7615   23.2821 H   0  0  0  0  0  0
  -22.4129  -11.9982   22.4836 H   0  0  0  0  0  0
  -21.1114  -13.1324   22.2514 H   0  0  0  0  0  0
  -24.6627  -15.8423   20.5166 H   0  0  0  0  0  0
  -26.2774  -15.6317   20.0683 H   0  0  0  0  0  0
  -26.7152  -32.5490   23.1152 H   0  0  0  0  0  0
  -25.0013  -33.9770   25.0429 H   0  0  0  0  0  0
  -22.7079  -31.3095   21.4062 H   0  0  0  0  0  0
  -23.3722  -35.9655   23.3336 H   0  0  0  0  0  0
  -24.3542  -36.8923   22.2062 H   0  0  0  0  0  0
  -23.7216  -37.6519   23.6666 H   0  0  0  0  0  0
  -26.1003  -31.5742   20.6286 H   0  0  0  0  0  0
  -26.8285  -30.8372   22.0264 H   0  0  0  0  0  0
  -28.0855  -28.9930   21.2755 H   0  0  0  0  0  0
  -26.0486  -25.9911   18.9483 H   0  0  0  0  0  0
  -24.0007  -27.3471   18.9442 H   0  0  0  0  0  0
  -23.7465  -30.6149   19.4060 H   0  0  0  0  0  0
  -22.7542  -29.2573   19.8511 H   0  0  0  0  0  0
  -25.1282  -36.1977   25.0821 H   0  0  0  0  0  0
  -20.9975  -28.3289   24.1394 H   0  0  0  0  0  0
  -20.5700  -26.2315   23.3610 H   0  0  0  0  0  0
  -21.6651  -26.7473   22.1186 H   0  0  0  0  0  0
  -19.6926  -25.6301   21.1246 H   0  0  0  0  0  0
  -19.6701  -27.3200   20.6737 H   0  0  0  0  0  0
  -17.4202  -26.6704   21.4003 H   0  0  0  0  0  0
  -18.0322  -26.0076   22.9009 H   0  0  0  0  0  0
  -19.7967  -30.7283   24.2232 H   0  0  0  0  0  0
  -17.5056  -31.6280   24.5202 H   0  0  0  0  0  0
  -15.5373  -30.3024   23.7696 H   0  0  0  0  0  0
  -15.8659  -28.0860   22.7072 H   0  0  0  0  0  0
  -24.5664  -30.7350   25.7735 H   0  0  0  0  0  0
  -24.8997  -32.3022   26.5015 H   0  0  0  0  0  0
  -25.7870  -30.8752   27.0175 H   0  0  0  0  0  0
  -26.2990  -29.6803   24.1207 H   0  0  0  0  0  0
  -27.3836  -29.7276   25.4893 H   0  0  0  0  0  0
  -27.8932  -30.4316   23.9746 H   0  0  0  0  0  0
  -27.2488  -33.3664   26.2145 H   0  0  0  0  0  0
  -28.3803  -32.6953   25.0538 H   0  0  0  0  0  0
  -28.0518  -31.8519   26.5592 H   0  0  0  0  0  0
  -28.2578  -38.0119   24.7496 H   0  0  0  0  0  0
  -28.1079  -36.2639   24.6279 H   0  0  0  0  0  0
  -27.2306  -37.1469   25.8868 H   0  0  0  0  0  0
  -20.9334  -29.8761   21.6864 H   0  0  0  0  0  0
  -26.0167  -38.2883   24.1391 H   0  0  0  0  0  0
  -29.9559  -19.2169   23.3159 H   0  0  0  0  0  0
  -30.3544  -17.8818   16.7665 H   0  0  0  0  0  0
  -30.8028  -19.4094   17.5057 H   0  0  0  0  0  0
  -29.1255  -18.8529   17.5707 H   0  0  0  0  0  0
  -25.8663  -25.3857   21.5222 H   0  0  0  0  0  0
  -26.6311  -23.9302   22.0608 H   0  0  0  0  0  0
  -26.4852  -24.2283   20.3359 H   0  0  0  0  0  0
  -31.0347  -22.1459   21.5983 H   0  0  0  0  0  0
  -29.8031  -21.9100   22.7882 H   0  0  0  0  0  0
  -30.3705  -16.5784   22.9524 H   0  0  0  0  0  0
  -31.7118  -16.6236   21.8644 H   0  0  0  0  0  0
  -28.0493  -22.4917   21.0885 H   0  0  0  0  0  0
  -29.2870  -22.8467   19.9209 H   0  0  0  0  0  0
  -30.1675  -24.7663   21.2412 H   0  0  0  0  0  0
  -29.2747  -24.2439   22.6159 H   0  0  0  0  0  0
  -31.5002  -17.4716   18.9612 H   0  0  0  0  0  0
  -29.8510  -16.8922   18.9652 H   0  0  0  0  0  0
  -28.0677  -25.9967   22.2275 H   0  0  0  0  0  0
  -29.0717  -15.2975   21.4796 H   0  0  0  0  0  0
  1 25  1  0  0  0
  1 30  2  0  0  0
  1 84  1  0  0  0
  2  3  1  0  0  0
  2 25  1  0  0  0
  2 85  1  0  0  0
  2 86  1  0  0  0
  3  4  1  0  0  0
  3 87  1  0  0  0
  3 88  1  0  0  0
  4  5  1  0  0  0
  4 89  1  0  0  0
  4 90  1  0  0  0
  5  6  1  0  0  0
  5 26  1  0  0  0
  5 91  1  0  0  0
  6 25  1  0  0  0
  6 92  1  0  0  0
  6 93  1  0  0  0
  7  8  2  0  0  0
  7 26  1  0  0  0
  7 29  1  0  0  0
  8  9  1  0  0  0
  8 22  1  0  0  0
  9 10  1  0  0  0
  9 27  2  0  0  0
 10 11  2  0  0  0
 10 15  1  0  0  0
 11 12  1  0  0  0
 11 94  1  0  0  0
 12 13  2  0  0  0
 12 95  1  0  0  0
 13 14  1  0  0  0
 13 31  1  0  0  0
 14 15  2  0  0  0
 14 96  1  0  0  0
 15 97  1  0  0  0
 16 17  2  0  0  0
 16 21  1  0  0  0
 16 31  1  0  0  0
 17 18  1  0  0  0
 17 98  1  0  0  0
 18 19  2  0  0  0
 18 99  1  0  0  0
 19 20  1  0  0  0
 19 24  1  0  0  0
 20 21  2  0  0  0
 20100  1  0  0  0
 21 23  1  0  0  0
 22 28  1  0  0  0
 22 32  2  0  0  0
 26 27  1  0  0  0
 28101  1  0  0  0
 28102  1  0  0  0
 29103  1  0  0  0
 29104  1  0  0  0
 33 34  1  0  0  0
 33 66  1  0  0  0
 33 70  2  0  0  0
 34 36  1  0  0  0
 34 59  1  0  0  0
 34105  1  0  0  0
 35 44  2  0  0  0
 35 45  1  0  0  0
 35 68  1  0  0  0
 36 56  1  0  0  0
 36106  1  0  0  0
 37 39  1  0  0  0
 37 47  1  0  0  0
 37 66  1  0  0  0
 37107  1  0  0  0
 38 43  2  0  0  0
 38 46  1  0  0  0
 38 47  1  0  0  0
 39 64  1  0  0  0
 39 67  2  0  0  0
 40 52  1  0  0  0
 40 53  2  0  0  0
 40 58  1  0  0  0
 41108  1  0  0  0
 41109  1  0  0  0
 41110  1  0  0  0
 41 48  1  0  0  0
 42 43  1  0  0  0
 42 66  1  0  0  0
 42111  1  0  0  0
 42112  1  0  0  0
 43 44  1  0  0  0
 44113  1  0  0  0
 45 46  2  0  0  0
 45114  1  0  0  0
 46115  1  0  0  0
 47116  1  0  0  0
 47117  1  0  0  0
 48 56  1  0  0  0
 48 65  1  0  0  0
 48118  1  0  0  0
 49 50  1  0  0  0
 49 53  1  0  0  0
 49 64  1  0  0  0
 49119  1  0  0  0
 50 51  1  0  0  0
 50120  1  0  0  0
 50121  1  0  0  0
 51 52  1  0  0  0
 51122  1  0  0  0
 51123  1  0  0  0
 52124  1  0  0  0
 52125  1  0  0  0
 53 54  1  0  0  0
 54 55  2  0  0  0
 54126  1  0  0  0
 55 57  1  0  0  0
 55127  1  0  0  0
 56 69  2  0  0  0
 57 58  2  0  0  0
 57128  1  0  0  0
 58129  1  0  0  0
 59 60  1  0  0  0
 59 61  1  0  0  0
 59 62  1  0  0  0
 60130  1  0  0  0
 60131  1  0  0  0
 60132  1  0  0  0
 61133  1  0  0  0
 61134  1  0  0  0
 61135  1  0  0  0
 62136  1  0  0  0
 62137  1  0  0  0
 62138  1  0  0  0
 63 65  1  0  0  0
 63139  1  0  0  0
 63140  1  0  0  0
 63141  1  0  0  0
 64142  1  0  0  0
 65143  1  0  0  0
 68 81  1  0  0  0
 71 72  1  0  0  0
 71 73  2  0  0  0
 71144  1  0  0  0
 72 76  1  0  0  0
 72 82  2  0  0  0
 73 77  1  0  0  0
 73 83  1  0  0  0
 74 80  1  0  0  0
 74145  1  0  0  0
 74146  1  0  0  0
 74147  1  0  0  0
 75148  1  0  0  0
 75149  1  0  0  0
 75150  1  0  0  0
 75 81  1  0  0  0
 76 78  1  0  0  0
 76151  1  0  0  0
 76152  1  0  0  0
 77 84  1  0  0  0
 77153  1  0  0  0
 77154  1  0  0  0
 78 79  1  0  0  0
 78155  1  0  0  0
 78156  1  0  0  0
 79 81  1  0  0  0
 79157  1  0  0  0
 79158  1  0  0  0
 80 83  1  0  0  0
 80159  1  0  0  0
 80160  1  0  0  0
 81161  1  0  0  0
 82 83  1  0  0  0
 84162  1  0  0  0
M  ISO  4   1 100  68 101  81 101  84 100
M  END
> <chiral flag>
0

> <version>
0

> <s_m_source_file>
/data/baiqing/PycharmProjects/Reinvent-master-3.2/result/LINK_invent/BTK/process_docking_weight1_custom_sum_contain_oxygen_bond_distance_aromatic_linkinvent_7_9_3/rearranged_h_0079.sdf

> <i_m_source_file_index>
33

> <r_mmod_Potential_Energy-OPLS-2005>
-62.0739135742188

> <r_mmod_Stretch_Energy-OPLS-2005>
55.4042129516602

> <r_mmod_Bend_Energy-OPLS-2005>
133.079498291016

> <r_mmod_Torsional_Energy-OPLS-2005>
248.100860595703

> <r_mmod_Improper_Torsional_Energy-OPLS-2005>
5.28238296508789

> <r_mmod_Van_der_Waal_Energy-OPLS-2005>
130.387725830078

> <r_mmod_Electrostatic_Energy-OPLS-2005>
-459.444366455078

> <r_mmod_Solvation_Energy-OPLS-2005>
-212.259078979492

> <b_mmod_Minimization_Converged-OPLS-2005>
0

> <r_mmod_RMS_Derivative-OPLS-2005>
4.01725149154663

$$$$
33
                    3D
 Structure written by MMmdl.
173181  0  0  1  0            999 V2000
  -30.6224  -14.6404   20.5078 C   0  0  0  0  0  0
  -30.4213  -12.3801   19.4843 C   0  0  0  0  0  0
  -29.5029  -12.5128   18.2487 C   0  0  0  0  0  0
  -28.0265  -12.3437   18.6546 C   0  0  0  0  0  0
  -27.6491  -13.2195   19.8775 C   0  0  2  0  0  0
  -28.6882  -13.0797   21.0145 C   0  0  0  0  0  0
  -25.2493  -13.8183   20.5681 C   0  0  0  0  0  0
  -24.1762  -13.0448   20.9167 C   0  0  0  0  0  0
  -24.6347  -11.6908   20.8764 C   0  0  0  0  0  0
  -23.9023  -10.4295   21.0416 C   0  0  0  0  0  0
  -24.3589   -9.4193   21.9181 C   0  0  0  0  0  0
  -23.6276   -8.2229   22.0761 C   0  0  0  0  0  0
  -22.4268   -8.0258   21.3538 C   0  0  0  0  0  0
  -21.9886   -9.0229   20.4637 C   0  0  0  0  0  0
  -22.7207  -10.2115   20.3049 C   0  0  0  0  0  0
  -21.6835   -6.0713   22.5279 C   0  0  0  0  0  0
  -21.4017   -6.5625   23.8210 C   0  0  0  0  0  0
  -21.3673   -5.6791   24.9172 C   0  0  0  0  0  0
  -21.6047   -4.3050   24.7232 C   0  0  0  0  0  0
  -21.8813   -3.8128   23.4352 C   0  0  0  0  0  0
  -21.9189   -4.6945   22.3402 C   0  0  0  0  0  0
  -22.7779  -13.5200   21.1840 C   0  0  0  0  0  0
  -22.1643   -4.2120   21.0983 F   0  0  0  0  0  0
  -21.5644   -3.4540   25.7747 F   0  0  0  0  0  0
  -30.0075  -13.4142   20.4569 N   0  0  0  0  0  0
  -26.2944  -12.9372   20.3398 N   0  0  0  0  0  0
  -25.9282  -11.6532   20.5844 N   0  0  0  0  0  0
  -22.0467  -12.8182   22.0411 N   0  0  0  0  0  0
  -25.4220  -15.1910   20.4044 N   0  0  0  0  0  0
  -31.7648  -14.8002   20.0705 O   0  0  0  0  0  0
  -21.6633   -6.8851   21.4236 O   0  0  0  0  0  0
  -22.3433  -14.5520   20.6709 O   0  0  0  0  0  0
  -24.6217  -31.8605   23.2010 C   0  0  0  0  0  0
  -25.9108  -32.4742   23.8309 C   0  0  1  0  0  0
  -27.2407  -27.3395   20.1504 C   0  0  0  0  0  0
  -25.5942  -33.8542   24.2238 N   0  0  0  0  0  0
  -23.4133  -30.4783   21.5442 C   0  0  2  0  0  0
  -24.8621  -28.9163   20.1275 C   0  0  0  0  0  0
  -22.7427  -29.4627   22.4997 C   0  0  0  0  0  0
  -18.0249  -28.1382   22.8460 C   0  0  0  0  0  0
  -24.1517  -36.7300   23.2634 C   0  0  0  0  0  0
  -25.9450  -30.7971   21.3672 C   0  0  0  0  0  0
  -26.0209  -29.4176   20.7295 C   0  0  0  0  0  0
  -27.2110  -28.6421   20.7268 C   0  0  0  0  0  0
  -26.0621  -26.8688   19.5333 C   0  0  0  0  0  0
  -24.8818  -27.6463   19.5200 C   0  0  0  0  0  0
  -23.6278  -29.7956   20.1639 C   0  0  0  0  0  0
  -25.4132  -36.3053   24.0310 C   0  0  1  0  0  0
  -20.5849  -28.3672   23.1301 C   0  0  2  0  0  0
  -20.6762  -26.9416   22.5410 C   0  0  0  0  0  0
  -19.5765  -26.6387   21.5188 C   0  0  0  0  0  0
  -18.1924  -26.7919   22.1594 C   0  0  0  0  0  0
  -19.1510  -28.8839   23.2869 C   0  0  0  0  0  0
  -18.9449  -30.1442   23.8888 C   0  0  0  0  0  0
  -17.6458  -30.6587   24.0558 C   0  0  0  0  0  0
  -25.9074  -34.9426   23.5078 C   0  0  0  0  0  0
  -16.5339  -29.9097   23.6333 C   0  0  0  0  0  0
  -16.7241  -28.6521   23.0332 C   0  0  0  0  0  0
  -26.4505  -31.6530   25.0668 C   0  0  0  0  0  0
  -25.3734  -31.3670   26.1394 C   0  0  0  0  0  0
  -27.0327  -30.2948   24.6067 C   0  0  0  0  0  0
  -27.6057  -32.4264   25.7447 C   0  0  0  0  0  0
  -27.5577  -37.1801   24.8447 C   0  0  0  0  0  0
  -21.4160  -29.3034   22.3721 N   0  0  0  0  0  0
  -26.4292  -37.3757   23.9389 N   0  0  0  0  0  0
  -24.6786  -31.0630   22.0955 N   0  0  0  0  0  0
  -23.4149  -28.8187   23.3104 O   0  0  0  0  0  0
  -28.4454  -26.6511   20.0323 O   0  0  0  0  0  0
  -26.5655  -34.8904   22.4649 O   0  0  0  0  0  0
  -23.5418  -32.1430   23.7386 O   0  0  0  0  0  0
  -27.7618  -20.1165   20.7458 C   0  0  0  0  0  0
  -27.3556  -21.4797   20.6845 C   0  0  0  0  0  0
  -28.3089  -22.5468   20.8386 C   0  0  0  0  0  0
  -29.0818  -19.7455   21.0523 C   0  0  0  0  0  0
  -29.6486  -22.0629   21.0801 C   0  0  0  0  0  0
  -31.6698  -23.1277   19.9651 C   0  0  0  0  0  0
  -27.0936  -24.4474   22.1193 C   0  0  0  0  0  0
  -23.8661  -20.3748   21.4562 C   0  0  0  0  0  0
  -25.7133  -21.0387   23.0651 C   0  0  0  0  0  0
  -25.8473  -21.7043   20.5161 C   0  0  0  0  0  0
  -29.4293  -18.2622   21.4836 C   0  0  0  0  0  0
  -30.8674  -22.9561   21.2636 C   0  0  0  0  0  0
  -29.9985  -17.1731   20.4693 C   0  0  0  0  0  0
  -28.7844  -25.2836   20.4730 C   0  0  0  0  0  0
  -27.8087  -24.0825   20.8037 C   0  0  1  0  0  0
  -24.9636  -21.4069   21.7679 C   0  0  0  0  0  0
  -29.9972  -20.7360   21.1917 N   0  0  0  0  0  0
  -29.8435  -15.7136   20.8606 N   0  0  0  0  0  0
  -31.4690  -12.4743   19.1969 H   0  0  0  0  0  0
  -30.3246  -11.3865   19.9282 H   0  0  0  0  0  0
  -29.7710  -11.7837   17.4822 H   0  0  0  0  0  0
  -29.6414  -13.4972   17.8001 H   0  0  0  0  0  0
  -27.8632  -11.2914   18.8924 H   0  0  0  0  0  0
  -27.3703  -12.5711   17.8144 H   0  0  0  0  0  0
  -27.6684  -14.2540   19.5350 H   0  0  0  0  0  0
  -28.6886  -12.0603   21.4031 H   0  0  0  0  0  0
  -28.4326  -13.7181   21.8611 H   0  0  0  0  0  0
  -25.2737   -9.5662   22.4755 H   0  0  0  0  0  0
  -23.9971   -7.4612   22.7497 H   0  0  0  0  0  0
  -21.0815   -8.8730   19.8943 H   0  0  0  0  0  0
  -22.3651  -10.9645   19.6160 H   0  0  0  0  0  0
  -21.2008   -7.6134   23.9693 H   0  0  0  0  0  0
  -21.1514   -6.0528   25.9074 H   0  0  0  0  0  0
  -22.0590   -2.7590   23.2868 H   0  0  0  0  0  0
  -22.4118  -11.9792   22.4693 H   0  0  0  0  0  0
  -21.1125  -13.1218   22.2767 H   0  0  0  0  0  0
  -24.6581  -15.8523   20.4940 H   0  0  0  0  0  0
  -26.2711  -15.6175   20.0578 H   0  0  0  0  0  0
  -26.7159  -32.5440   23.1047 H   0  0  0  0  0  0
  -25.0015  -33.9671   25.0327 H   0  0  0  0  0  0
  -22.7103  -31.3005   21.3956 H   0  0  0  0  0  0
  -23.3761  -35.9663   23.3288 H   0  0  0  0  0  0
  -24.3598  -36.8958   22.2051 H   0  0  0  0  0  0
  -23.7338  -37.6518   23.6687 H   0  0  0  0  0  0
  -26.0633  -31.5551   20.5928 H   0  0  0  0  0  0
  -26.8280  -30.8532   21.9902 H   0  0  0  0  0  0
  -28.1110  -29.0426   21.1716 H   0  0  0  0  0  0
  -26.0571  -25.9139   19.0281 H   0  0  0  0  0  0
  -23.9963  -27.2682   19.0296 H   0  0  0  0  0  0
  -23.7520  -30.5649   19.4017 H   0  0  0  0  0  0
  -22.7472  -29.2241   19.8627 H   0  0  0  0  0  0
  -25.1322  -36.1870   25.0808 H   0  0  0  0  0  0
  -20.9886  -28.3235   24.1444 H   0  0  0  0  0  0
  -20.5670  -26.2281   23.3606 H   0  0  0  0  0  0
  -21.6641  -26.7484   22.1219 H   0  0  0  0  0  0
  -19.6987  -25.6302   21.1226 H   0  0  0  0  0  0
  -19.6723  -27.3199   20.6722 H   0  0  0  0  0  0
  -17.4204  -26.6615   21.3986 H   0  0  0  0  0  0
  -18.0355  -26.0063   22.8999 H   0  0  0  0  0  0
  -19.7947  -30.7213   24.2291 H   0  0  0  0  0  0
  -17.5046  -31.6278   24.5149 H   0  0  0  0  0  0
  -15.5360  -30.3001   23.7698 H   0  0  0  0  0  0
  -15.8634  -28.0858   22.7053 H   0  0  0  0  0  0
  -24.5944  -30.6968   25.7727 H   0  0  0  0  0  0
  -24.8880  -32.2836   26.4742 H   0  0  0  0  0  0
  -25.8055  -30.8913   27.0206 H   0  0  0  0  0  0
  -26.2858  -29.6693   24.1152 H   0  0  0  0  0  0
  -27.4106  -29.7174   25.4516 H   0  0  0  0  0  0
  -27.8700  -30.4216   23.9201 H   0  0  0  0  0  0
  -27.2646  -33.3570   26.1979 H   0  0  0  0  0  0
  -28.3881  -32.6798   25.0284 H   0  0  0  0  0  0
  -28.0694  -31.8415   26.5404 H   0  0  0  0  0  0
  -28.2565  -38.0117   24.7479 H   0  0  0  0  0  0
  -28.1093  -36.2635   24.6277 H   0  0  0  0  0  0
  -27.2274  -37.1445   25.8843 H   0  0  0  0  0  0
  -20.9375  -29.8733   21.6886 H   0  0  0  0  0  0
  -26.0163  -38.2833   24.1389 H   0  0  0  0  0  0
  -27.0145  -19.3392   20.6636 H   0  0  0  0  0  0
  -32.5412  -23.7602   20.1299 H   0  0  0  0  0  0
  -31.0736  -23.5820   19.1767 H   0  0  0  0  0  0
  -32.0151  -22.1618   19.5950 H   0  0  0  0  0  0
  -26.1880  -23.8682   22.2687 H   0  0  0  0  0  0
  -26.7928  -25.4957   22.1532 H   0  0  0  0  0  0
  -27.7506  -24.2819   22.9720 H   0  0  0  0  0  0
  -23.1951  -20.2403   22.3055 H   0  0  0  0  0  0
  -24.2912  -19.4003   21.2135 H   0  0  0  0  0  0
  -23.2567  -20.6927   20.6091 H   0  0  0  0  0  0
  -25.0409  -21.0131   23.9237 H   0  0  0  0  0  0
  -26.4870  -21.7702   23.3005 H   0  0  0  0  0  0
  -26.1887  -20.0612   22.9931 H   0  0  0  0  0  0
  -25.5271  -21.0837   19.6765 H   0  0  0  0  0  0
  -25.6170  -22.7120   20.1827 H   0  0  0  0  0  0
  -28.5148  -17.8641   21.9211 H   0  0  0  0  0  0
  -30.1299  -18.3298   22.3178 H   0  0  0  0  0  0
  -31.5238  -22.4969   22.0044 H   0  0  0  0  0  0
  -30.6218  -23.9015   21.7252 H   0  0  0  0  0  0
  -31.0450  -17.3967   20.2629 H   0  0  0  0  0  0
  -29.4816  -17.2962   19.5166 H   0  0  0  0  0  0
  -29.4448  -24.9428   19.6812 H   0  0  0  0  0  0
  -29.4075  -25.4670   21.3437 H   0  0  0  0  0  0
  -27.0877  -24.1446   19.9959 H   0  0  0  0  0  0
  -24.4424  -22.3362   21.9976 H   0  0  0  0  0  0
  -28.9484  -15.4602   21.2537 H   0  0  0  0  0  0
  1 25  1  0  0  0
  1 30  2  0  0  0
  1 88  1  0  0  0
  2  3  1  0  0  0
  2 25  1  0  0  0
  2 89  1  0  0  0
  2 90  1  0  0  0
  3  4  1  0  0  0
  3 91  1  0  0  0
  3 92  1  0  0  0
  4  5  1  0  0  0
  4 93  1  0  0  0
  4 94  1  0  0  0
  5  6  1  0  0  0
  5 26  1  0  0  0
  5 95  1  0  0  0
  6 25  1  0  0  0
  6 96  1  0  0  0
  6 97  1  0  0  0
  7  8  2  0  0  0
  7 26  1  0  0  0
  7 29  1  0  0  0
  8  9  1  0  0  0
  8 22  1  0  0  0
  9 10  1  0  0  0
  9 27  2  0  0  0
 10 11  2  0  0  0
 10 15  1  0  0  0
 11 12  1  0  0  0
 11 98  1  0  0  0
 12 13  2  0  0  0
 12 99  1  0  0  0
 13 14  1  0  0  0
 13 31  1  0  0  0
 14 15  2  0  0  0
 14100  1  0  0  0
 15101  1  0  0  0
 16 17  2  0  0  0
 16 21  1  0  0  0
 16 31  1  0  0  0
 17 18  1  0  0  0
 17102  1  0  0  0
 18 19  2  0  0  0
 18103  1  0  0  0
 19 20  1  0  0  0
 19 24  1  0  0  0
 20 21  2  0  0  0
 20104  1  0  0  0
 21 23  1  0  0  0
 22 28  1  0  0  0
 22 32  2  0  0  0
 26 27  1  0  0  0
 28105  1  0  0  0
 28106  1  0  0  0
 29107  1  0  0  0
 29108  1  0  0  0
 33 34  1  0  0  0
 33 66  1  0  0  0
 33 70  2  0  0  0
 34 36  1  0  0  0
 34 59  1  0  0  0
 34109  1  0  0  0
 35 44  2  0  0  0
 35 45  1  0  0  0
 35 68  1  0  0  0
 36 56  1  0  0  0
 36110  1  0  0  0
 37 39  1  0  0  0
 37 47  1  0  0  0
 37 66  1  0  0  0
 37111  1  0  0  0
 38 43  2  0  0  0
 38 46  1  0  0  0
 38 47  1  0  0  0
 39 64  1  0  0  0
 39 67  2  0  0  0
 40 52  1  0  0  0
 40 53  2  0  0  0
 40 58  1  0  0  0
 41112  1  0  0  0
 41113  1  0  0  0
 41114  1  0  0  0
 41 48  1  0  0  0
 42 43  1  0  0  0
 42 66  1  0  0  0
 42115  1  0  0  0
 42116  1  0  0  0
 43 44  1  0  0  0
 44117  1  0  0  0
 45 46  2  0  0  0
 45118  1  0  0  0
 46119  1  0  0  0
 47120  1  0  0  0
 47121  1  0  0  0
 48 56  1  0  0  0
 48 65  1  0  0  0
 48122  1  0  0  0
 49 50  1  0  0  0
 49 53  1  0  0  0
 49 64  1  0  0  0
 49123  1  0  0  0
 50 51  1  0  0  0
 50124  1  0  0  0
 50125  1  0  0  0
 51 52  1  0  0  0
 51126  1  0  0  0
 51127  1  0  0  0
 52128  1  0  0  0
 52129  1  0  0  0
 53 54  1  0  0  0
 54 55  2  0  0  0
 54130  1  0  0  0
 55 57  1  0  0  0
 55131  1  0  0  0
 56 69  2  0  0  0
 57 58  2  0  0  0
 57132  1  0  0  0
 58133  1  0  0  0
 59 60  1  0  0  0
 59 61  1  0  0  0
 59 62  1  0  0  0
 60134  1  0  0  0
 60135  1  0  0  0
 60136  1  0  0  0
 61137  1  0  0  0
 61138  1  0  0  0
 61139  1  0  0  0
 62140  1  0  0  0
 62141  1  0  0  0
 62142  1  0  0  0
 63 65  1  0  0  0
 63143  1  0  0  0
 63144  1  0  0  0
 63145  1  0  0  0
 64146  1  0  0  0
 65147  1  0  0  0
 68 84  1  0  0  0
 71 72  2  0  0  0
 71 74  1  0  0  0
 71148  1  0  0  0
 72 73  1  0  0  0
 72 80  1  0  0  0
 73 75  2  0  0  0
 73 85  1  0  0  0
 74 81  1  0  0  0
 74 87  2  0  0  0
 75 82  1  0  0  0
 75 87  1  0  0  0
 76 82  1  0  0  0
 76149  1  0  0  0
 76150  1  0  0  0
 76151  1  0  0  0
 77152  1  0  0  0
 77153  1  0  0  0
 77154  1  0  0  0
 77 85  1  0  0  0
 78155  1  0  0  0
 78156  1  0  0  0
 78157  1  0  0  0
 78 86  1  0  0  0
 79 86  1  0  0  0
 79158  1  0  0  0
 79159  1  0  0  0
 79160  1  0  0  0
 80 86  1  0  0  0
 80161  1  0  0  0
 80162  1  0  0  0
 81 83  1  0  0  0
 81163  1  0  0  0
 81164  1  0  0  0
 82165  1  0  0  0
 82166  1  0  0  0
 83 88  1  0  0  0
 83167  1  0  0  0
 83168  1  0  0  0
 84 85  1  0  0  0
 84169  1  0  0  0
 84170  1  0  0  0
 85171  1  0  0  0
 86172  1  0  0  0
 88173  1  0  0  0
M  ISO  4   1 100  68 101  84 101  88 100
M  END
> <chiral flag>
0

> <version>
0

> <s_m_source_file>
/data/baiqing/PycharmProjects/Reinvent-master-3.2/result/LINK_invent/BTK/process_docking_weight1_custom_sum_contain_oxygen_bond_distance_aromatic_linkinvent_7_9_3/rearranged_h_0079.sdf

> <i_m_source_file_index>
34

> <r_mmod_Potential_Energy-OPLS-2005>
20.4915466308594

> <r_mmod_Stretch_Energy-OPLS-2005>
94.8621368408203

> <r_mmod_Bend_Energy-OPLS-2005>
216.566268920898

> <r_mmod_Torsional_Energy-OPLS-2005>
228.059127807617

> <r_mmod_Improper_Torsional_Energy-OPLS-2005>
8.02228355407715

> <r_mmod_Van_der_Waal_Energy-OPLS-2005>
141.366165161133

> <r_mmod_Electrostatic_Energy-OPLS-2005>
-491.105834960938

> <r_mmod_Solvation_Energy-OPLS-2005>
-215.473068237305

> <b_mmod_Minimization_Converged-OPLS-2005>
0

> <r_mmod_RMS_Derivative-OPLS-2005>
3.96475386619568

$$$$
34
                    3D
 Structure written by MMmdl.
173181  0  0  1  0            999 V2000
  -30.7125  -14.6627   20.4621 C   0  0  0  0  0  0
  -30.4506  -12.4110   19.4466 C   0  0  0  0  0  0
  -29.5169  -12.4779   18.2197 C   0  0  0  0  0  0
  -28.0319  -12.3662   18.6281 C   0  0  0  0  0  0
  -27.6580  -13.2510   19.8484 C   0  0  2  0  0  0
  -28.7170  -13.1621   20.9706 C   0  0  0  0  0  0
  -25.2569  -13.8249   20.5786 C   0  0  0  0  0  0
  -24.1878  -13.0418   20.9231 C   0  0  0  0  0  0
  -24.6522  -11.6902   20.8739 C   0  0  0  0  0  0
  -23.9205  -10.4264   21.0380 C   0  0  0  0  0  0
  -24.3712   -9.4169   21.9171 C   0  0  0  0  0  0
  -23.6325   -8.2245   22.0751 C   0  0  0  0  0  0
  -22.4314   -8.0293   21.3545 C   0  0  0  0  0  0
  -21.9979   -9.0303   20.4654 C   0  0  0  0  0  0
  -22.7362  -10.2140   20.3053 C   0  0  0  0  0  0
  -21.6837   -6.0766   22.5274 C   0  0  0  0  0  0
  -21.4006   -6.5677   23.8197 C   0  0  0  0  0  0
  -21.3643   -5.6802   24.9158 C   0  0  0  0  0  0
  -21.6050   -4.3082   24.7180 C   0  0  0  0  0  0
  -21.8805   -3.8187   23.4303 C   0  0  0  0  0  0
  -21.9188   -4.7011   22.3364 C   0  0  0  0  0  0
  -22.7865  -13.5121   21.1788 C   0  0  0  0  0  0
  -22.1660   -4.2220   21.0941 F   0  0  0  0  0  0
  -21.5617   -3.4547   25.7679 F   0  0  0  0  0  0
  -30.0234  -13.4703   20.3809 N   0  0  0  0  0  0
  -26.3055  -12.9521   20.3334 N   0  0  0  0  0  0
  -25.9478  -11.6633   20.5746 N   0  0  0  0  0  0
  -22.0509  -12.8183   22.0373 N   0  0  0  0  0  0
  -25.4060  -15.1980   20.4307 N   0  0  0  0  0  0
  -31.9053  -14.7184   20.1622 O   0  0  0  0  0  0
  -21.6618   -6.8958   21.4241 O   0  0  0  0  0  0
  -22.3520  -14.5384   20.6526 O   0  0  0  0  0  0
  -24.6293  -31.8632   23.2027 C   0  0  0  0  0  0
  -25.9106  -32.4805   23.8404 C   0  0  1  0  0  0
  -27.1820  -27.2595   20.0887 C   0  0  0  0  0  0
  -25.5897  -33.8640   24.2303 N   0  0  0  0  0  0
  -23.4215  -30.5073   21.5395 C   0  0  2  0  0  0
  -24.8529  -28.9830   20.1018 C   0  0  0  0  0  0
  -22.7576  -29.4661   22.4787 C   0  0  0  0  0  0
  -18.0321  -28.1347   22.8520 C   0  0  0  0  0  0
  -24.1490  -36.7336   23.2682 C   0  0  0  0  0  0
  -25.9846  -30.7732   21.3985 C   0  0  0  0  0  0
  -26.0352  -29.4043   20.7248 C   0  0  0  0  0  0
  -27.1913  -28.5566   20.7235 C   0  0  0  0  0  0
  -25.9666  -26.9318   19.4379 C   0  0  0  0  0  0
  -24.8198  -27.7464   19.4618 C   0  0  0  0  0  0
  -23.6348  -29.8816   20.1392 C   0  0  0  0  0  0
  -25.4107  -36.3133   24.0405 C   0  0  1  0  0  0
  -20.5999  -28.3670   23.1293 C   0  0  2  0  0  0
  -20.6900  -26.9412   22.5375 C   0  0  0  0  0  0
  -19.5804  -26.6354   21.5263 C   0  0  0  0  0  0
  -18.1958  -26.7924   22.1643 C   0  0  0  0  0  0
  -19.1592  -28.8841   23.2896 C   0  0  0  0  0  0
  -18.9474  -30.1456   23.8840 C   0  0  0  0  0  0
  -17.6448  -30.6560   24.0578 C   0  0  0  0  0  0
  -25.9043  -34.9492   23.5184 C   0  0  0  0  0  0
  -16.5339  -29.9054   23.6343 C   0  0  0  0  0  0
  -16.7290  -28.6487   23.0374 C   0  0  0  0  0  0
  -26.4395  -31.6610   25.0767 C   0  0  0  0  0  0
  -25.3636  -31.3720   26.1486 C   0  0  0  0  0  0
  -27.0272  -30.3033   24.6335 C   0  0  0  0  0  0
  -27.5962  -32.4342   25.7485 C   0  0  0  0  0  0
  -27.5577  -37.1892   24.8490 C   0  0  0  0  0  0
  -21.4267  -29.3088   22.3676 N   0  0  0  0  0  0
  -26.4254  -37.3864   23.9453 N   0  0  0  0  0  0
  -24.6967  -31.0751   22.0945 N   0  0  0  0  0  0
  -23.4348  -28.8153   23.2746 O   0  0  0  0  0  0
  -28.2611  -26.3191   20.1160 O   0  0  0  0  0  0
  -26.5596  -34.8962   22.4702 O   0  0  0  0  0  0
  -23.5451  -32.1367   23.7390 O   0  0  0  0  0  0
  -29.0942  -23.7632   21.9827 C   0  0  0  0  0  0
  -29.3330  -22.4471   19.9929 C   0  0  0  0  0  0
  -28.8865  -23.6967   20.5860 C   0  0  0  0  0  0
  -29.6618  -22.6774   22.6845 C   0  0  0  0  0  0
  -29.7488  -21.3184   20.7745 C   0  0  0  0  0  0
  -27.7721  -24.4867   18.3379 C   0  0  0  0  0  0
  -31.3341  -22.2833   24.5798 C   0  0  0  0  0  0
  -28.8381  -22.0571   25.0299 C   0  0  0  0  0  0
  -31.7034  -19.9192   19.9644 C   0  0  0  0  0  0
  -29.7434  -18.5480   22.3462 C   0  0  0  0  0  0
  -28.2520  -18.1958   20.3503 C   0  0  0  0  0  0
  -30.5867  -17.2152   20.3869 C   0  0  0  0  0  0
  -28.0165  -24.8309   19.8548 C   0  0  2  0  0  0
  -29.9208  -22.7757   24.1932 C   0  0  0  0  0  0
  -30.1723  -19.9108   20.1458 C   0  0  1  0  0  0
  -29.6990  -18.4912   20.7981 C   0  0  0  0  0  0
  -29.9426  -21.4932   22.1024 N   0  0  0  0  0  0
  -30.0230  -15.8298   20.6294 N   0  0  0  0  0  0
  -31.4865  -12.5360   19.1216 H   0  0  0  0  0  0
  -30.4142  -11.4328   19.9288 H   0  0  0  0  0  0
  -29.7601  -11.6801   17.5160 H   0  0  0  0  0  0
  -29.6959  -13.4193   17.6924 H   0  0  0  0  0  0
  -27.8317  -11.3171   18.8530 H   0  0  0  0  0  0
  -27.3961  -12.6224   17.7791 H   0  0  0  0  0  0
  -27.6523  -14.2820   19.4826 H   0  0  0  0  0  0
  -28.7348  -12.1586   21.4001 H   0  0  0  0  0  0
  -28.4924  -13.8519   21.7857 H   0  0  0  0  0  0
  -25.2855   -9.5569   22.4780 H   0  0  0  0  0  0
  -23.9977   -7.4609   22.7500 H   0  0  0  0  0  0
  -21.0899   -8.8885   19.8975 H   0  0  0  0  0  0
  -22.3871  -10.9701   19.6180 H   0  0  0  0  0  0
  -21.2011   -7.6175   23.9720 H   0  0  0  0  0  0
  -21.1467   -6.0534   25.9060 H   0  0  0  0  0  0
  -22.0600   -2.7658   23.2740 H   0  0  0  0  0  0
  -22.4087  -11.9931   22.4919 H   0  0  0  0  0  0
  -21.1063  -13.1201   22.2399 H   0  0  0  0  0  0
  -24.6395  -15.8286   20.6469 H   0  0  0  0  0  0
  -26.2234  -15.6778   20.0714 H   0  0  0  0  0  0
  -26.7199  -32.5477   23.1152 H   0  0  0  0  0  0
  -25.0198  -33.9809   25.0565 H   0  0  0  0  0  0
  -22.7084  -31.3243   21.4233 H   0  0  0  0  0  0
  -23.3786  -35.9616   23.3311 H   0  0  0  0  0  0
  -24.3664  -36.8897   22.2106 H   0  0  0  0  0  0
  -23.7147  -37.6520   23.6624 H   0  0  0  0  0  0
  -26.1932  -31.5392   20.6438 H   0  0  0  0  0  0
  -26.8442  -30.7704   22.0593 H   0  0  0  0  0  0
  -28.0725  -28.8907   21.2590 H   0  0  0  0  0  0
  -25.8107  -26.0388   18.8747 H   0  0  0  0  0  0
  -23.9249  -27.4300   18.9465 H   0  0  0  0  0  0
  -23.7692  -30.6678   19.3930 H   0  0  0  0  0  0
  -22.7471  -29.3309   19.8223 H   0  0  0  0  0  0
  -25.1292  -36.1971   25.0895 H   0  0  0  0  0  0
  -21.0165  -28.3126   24.1391 H   0  0  0  0  0  0
  -20.5973  -26.2226   23.3551 H   0  0  0  0  0  0
  -21.6733  -26.7476   22.1056 H   0  0  0  0  0  0
  -19.6921  -25.6271   21.1258 H   0  0  0  0  0  0
  -19.6744  -27.3239   20.6876 H   0  0  0  0  0  0
  -17.4310  -26.6785   21.3944 H   0  0  0  0  0  0
  -18.0196  -25.9987   22.8958 H   0  0  0  0  0  0
  -19.7869  -30.7424   24.2145 H   0  0  0  0  0  0
  -17.4912  -31.6258   24.5169 H   0  0  0  0  0  0
  -15.5334  -30.2962   23.7698 H   0  0  0  0  0  0
  -15.8682  -28.0831   22.7155 H   0  0  0  0  0  0
  -24.5882  -30.6963   25.7861 H   0  0  0  0  0  0
  -24.8683  -32.2836   26.4807 H   0  0  0  0  0  0
  -25.7991  -30.8939   27.0284 H   0  0  0  0  0  0
  -26.2866  -29.6783   24.1314 H   0  0  0  0  0  0
  -27.3893  -29.7267   25.4854 H   0  0  0  0  0  0
  -27.8738  -30.4378   23.9618 H   0  0  0  0  0  0
  -27.2617  -33.3712   26.1957 H   0  0  0  0  0  0
  -28.3768  -32.6701   25.0266 H   0  0  0  0  0  0
  -28.0605  -31.8456   26.5399 H   0  0  0  0  0  0
  -28.2703  -38.0118   24.7639 H   0  0  0  0  0  0
  -28.0972  -36.2708   24.6217 H   0  0  0  0  0  0
  -27.2356  -37.1418   25.8896 H   0  0  0  0  0  0
  -20.9341  -29.8683   21.6878 H   0  0  0  0  0  0
  -26.0147  -38.2933   24.1362 H   0  0  0  0  0  0
  -28.7824  -24.6358   22.5329 H   0  0  0  0  0  0
  -29.3597  -22.2956   18.9279 H   0  0  0  0  0  0
  -26.7095  -24.4134   18.1024 H   0  0  0  0  0  0
  -28.0494  -23.4831   18.0068 H   0  0  0  0  0  0
  -28.2658  -25.1997   17.6691 H   0  0  0  0  0  0
  -32.1132  -22.7819   24.0025 H   0  0  0  0  0  0
  -31.4276  -21.2077   24.4035 H   0  0  0  0  0  0
  -31.5340  -22.4677   25.6430 H   0  0  0  0  0  0
  -27.8536  -22.5025   24.8657 H   0  0  0  0  0  0
  -29.0741  -22.1429   26.0937 H   0  0  0  0  0  0
  -28.7719  -20.9881   24.8006 H   0  0  0  0  0  0
  -32.0171  -20.7857   19.3865 H   0  0  0  0  0  0
  -32.0992  -19.0587   19.4240 H   0  0  0  0  0  0
  -32.1898  -19.9667   20.9362 H   0  0  0  0  0  0
  -29.8290  -17.5647   22.8088 H   0  0  0  0  0  0
  -28.8493  -19.0239   22.7551 H   0  0  0  0  0  0
  -30.6143  -19.1127   22.6865 H   0  0  0  0  0  0
  -27.8051  -17.3806   20.9143 H   0  0  0  0  0  0
  -28.2010  -17.9051   19.3004 H   0  0  0  0  0  0
  -27.5982  -19.0614   20.4688 H   0  0  0  0  0  0
  -31.5423  -17.2927   20.9131 H   0  0  0  0  0  0
  -30.8486  -17.2722   19.3287 H   0  0  0  0  0  0
  -27.0615  -24.6503   20.3587 H   0  0  0  0  0  0
  -29.8773  -23.8384   24.4421 H   0  0  0  0  0  0
  -29.7582  -19.9295   19.1295 H   0  0  0  0  0  0
  -29.0243  -15.7769   20.7566 H   0  0  0  0  0  0
  1 25  1  0  0  0
  1 30  2  0  0  0
  1 88  1  0  0  0
  2  3  1  0  0  0
  2 25  1  0  0  0
  2 89  1  0  0  0
  2 90  1  0  0  0
  3  4  1  0  0  0
  3 91  1  0  0  0
  3 92  1  0  0  0
  4  5  1  0  0  0
  4 93  1  0  0  0
  4 94  1  0  0  0
  5  6  1  0  0  0
  5 26  1  0  0  0
  5 95  1  0  0  0
  6 25  1  0  0  0
  6 96  1  0  0  0
  6 97  1  0  0  0
  7  8  2  0  0  0
  7 26  1  0  0  0
  7 29  1  0  0  0
  8  9  1  0  0  0
  8 22  1  0  0  0
  9 10  1  0  0  0
  9 27  2  0  0  0
 10 11  2  0  0  0
 10 15  1  0  0  0
 11 12  1  0  0  0
 11 98  1  0  0  0
 12 13  2  0  0  0
 12 99  1  0  0  0
 13 14  1  0  0  0
 13 31  1  0  0  0
 14 15  2  0  0  0
 14100  1  0  0  0
 15101  1  0  0  0
 16 17  2  0  0  0
 16 21  1  0  0  0
 16 31  1  0  0  0
 17 18  1  0  0  0
 17102  1  0  0  0
 18 19  2  0  0  0
 18103  1  0  0  0
 19 20  1  0  0  0
 19 24  1  0  0  0
 20 21  2  0  0  0
 20104  1  0  0  0
 21 23  1  0  0  0
 22 28  1  0  0  0
 22 32  2  0  0  0
 26 27  1  0  0  0
 28105  1  0  0  0
 28106  1  0  0  0
 29107  1  0  0  0
 29108  1  0  0  0
 33 34  1  0  0  0
 33 66  1  0  0  0
 33 70  2  0  0  0
 34 36  1  0  0  0
 34 59  1  0  0  0
 34109  1  0  0  0
 35 44  2  0  0  0
 35 45  1  0  0  0
 35 68  1  0  0  0
 36 56  1  0  0  0
 36110  1  0  0  0
 37 39  1  0  0  0
 37 47  1  0  0  0
 37 66  1  0  0  0
 37111  1  0  0  0
 38 43  2  0  0  0
 38 46  1  0  0  0
 38 47  1  0  0  0
 39 64  1  0  0  0
 39 67  2  0  0  0
 40 52  1  0  0  0
 40 53  2  0  0  0
 40 58  1  0  0  0
 41112  1  0  0  0
 41113  1  0  0  0
 41114  1  0  0  0
 41 48  1  0  0  0
 42 43  1  0  0  0
 42 66  1  0  0  0
 42115  1  0  0  0
 42116  1  0  0  0
 43 44  1  0  0  0
 44117  1  0  0  0
 45 46  2  0  0  0
 45118  1  0  0  0
 46119  1  0  0  0
 47120  1  0  0  0
 47121  1  0  0  0
 48 56  1  0  0  0
 48 65  1  0  0  0
 48122  1  0  0  0
 49 50  1  0  0  0
 49 53  1  0  0  0
 49 64  1  0  0  0
 49123  1  0  0  0
 50 51  1  0  0  0
 50124  1  0  0  0
 50125  1  0  0  0
 51 52  1  0  0  0
 51126  1  0  0  0
 51127  1  0  0  0
 52128  1  0  0  0
 52129  1  0  0  0
 53 54  1  0  0  0
 54 55  2  0  0  0
 54130  1  0  0  0
 55 57  1  0  0  0
 55131  1  0  0  0
 56 69  2  0  0  0
 57 58  2  0  0  0
 57132  1  0  0  0
 58133  1  0  0  0
 59 60  1  0  0  0
 59 61  1  0  0  0
 59 62  1  0  0  0
 60134  1  0  0  0
 60135  1  0  0  0
 60136  1  0  0  0
 61137  1  0  0  0
 61138  1  0  0  0
 61139  1  0  0  0
 62140  1  0  0  0
 62141  1  0  0  0
 62142  1  0  0  0
 63 65  1  0  0  0
 63143  1  0  0  0
 63144  1  0  0  0
 63145  1  0  0  0
 64146  1  0  0  0
 65147  1  0  0  0
 68 83  1  0  0  0
 71 73  2  0  0  0
 71 74  1  0  0  0
 71148  1  0  0  0
 72 73  1  0  0  0
 72 75  2  0  0  0
 72149  1  0  0  0
 73 83  1  0  0  0
 74 84  1  0  0  0
 74 87  2  0  0  0
 75 85  1  0  0  0
 75 87  1  0  0  0
 76150  1  0  0  0
 76151  1  0  0  0
 76152  1  0  0  0
 76 83  1  0  0  0
 77153  1  0  0  0
 77154  1  0  0  0
 77155  1  0  0  0
 77 84  1  0  0  0
 78 84  1  0  0  0
 78156  1  0  0  0
 78157  1  0  0  0
 78158  1  0  0  0
 79159  1  0  0  0
 79160  1  0  0  0
 79161  1  0  0  0
 79 85  1  0  0  0
 80162  1  0  0  0
 80163  1  0  0  0
 80164  1  0  0  0
 80 86  1  0  0  0
 81 86  1  0  0  0
 81165  1  0  0  0
 81166  1  0  0  0
 81167  1  0  0  0
 82 86  1  0  0  0
 82 88  1  0  0  0
 82168  1  0  0  0
 82169  1  0  0  0
 83170  1  0  0  0
 84171  1  0  0  0
 85 86  1  0  0  0
 85172  1  0  0  0
 88173  1  0  0  0
M  ISO  4   1 100  68 101  83 101  88 100
M  END
> <chiral flag>
0

> <version>
0

> <s_m_source_file>
/data/baiqing/PycharmProjects/Reinvent-master-3.2/result/LINK_invent/BTK/process_docking_weight1_custom_sum_contain_oxygen_bond_distance_aromatic_linkinvent_7_9_3/rearranged_h_0079.sdf

> <i_m_source_file_index>
35

> <r_mmod_Potential_Energy-OPLS-2005>
14.8572101593018

> <r_mmod_Stretch_Energy-OPLS-2005>
133.195297241211

> <r_mmod_Bend_Energy-OPLS-2005>
183.428588867188

> <r_mmod_Torsional_Energy-OPLS-2005>
244.339965820312

> <r_mmod_Improper_Torsional_Energy-OPLS-2005>
7.55708503723145

> <r_mmod_Van_der_Waal_Energy-OPLS-2005>
161.646469116211

> <r_mmod_Electrostatic_Energy-OPLS-2005>
-594.125854492188

> <r_mmod_Solvation_Energy-OPLS-2005>
-199.288604736328

> <b_mmod_Minimization_Converged-OPLS-2005>
0

> <r_mmod_RMS_Derivative-OPLS-2005>
13.4812088012695

$$$$
35
                    3D
 Structure written by MMmdl.
173181  0  0  1  0            999 V2000
  -30.7311  -14.4052   20.6142 C   0  0  0  0  0  0
  -30.4162  -12.2828   19.4084 C   0  0  0  0  0  0
  -29.4885  -12.5185   18.1999 C   0  0  0  0  0  0
  -28.0096  -12.3821   18.6116 C   0  0  0  0  0  0
  -27.6648  -13.2013   19.8839 C   0  0  2  0  0  0
  -28.7054  -12.9512   20.9993 C   0  0  0  0  0  0
  -25.2600  -13.8148   20.5683 C   0  0  0  0  0  0
  -24.1846  -13.0437   20.9171 C   0  0  0  0  0  0
  -24.6391  -11.6899   20.8736 C   0  0  0  0  0  0
  -23.9053  -10.4295   21.0410 C   0  0  0  0  0  0
  -24.3610   -9.4209   21.9184 C   0  0  0  0  0  0
  -23.6290   -8.2242   22.0751 C   0  0  0  0  0  0
  -22.4271   -8.0283   21.3542 C   0  0  0  0  0  0
  -21.9904   -9.0257   20.4645 C   0  0  0  0  0  0
  -22.7229  -10.2138   20.3058 C   0  0  0  0  0  0
  -21.6853   -6.0736   22.5280 C   0  0  0  0  0  0
  -21.4014   -6.5641   23.8214 C   0  0  0  0  0  0
  -21.3657   -5.6793   24.9176 C   0  0  0  0  0  0
  -21.6044   -4.3055   24.7225 C   0  0  0  0  0  0
  -21.8822   -3.8147   23.4345 C   0  0  0  0  0  0
  -21.9193   -4.6964   22.3401 C   0  0  0  0  0  0
  -22.7869  -13.5242   21.1843 C   0  0  0  0  0  0
  -22.1663   -4.2151   21.0977 F   0  0  0  0  0  0
  -21.5627   -3.4540   25.7735 F   0  0  0  0  0  0
  -30.0426  -13.2455   20.4545 N   0  0  0  0  0  0
  -26.3037  -12.9308   20.3405 N   0  0  0  0  0  0
  -25.9314  -11.6471   20.5775 N   0  0  0  0  0  0
  -22.0507  -12.8236   22.0398 N   0  0  0  0  0  0
  -25.4320  -15.1862   20.4065 N   0  0  0  0  0  0
  -31.8236  -14.6189   20.0809 O   0  0  0  0  0  0
  -21.6636   -6.8881   21.4244 O   0  0  0  0  0  0
  -22.3554  -14.5551   20.6698 O   0  0  0  0  0  0
  -24.6102  -31.8706   23.2119 C   0  0  0  0  0  0
  -25.9019  -32.4834   23.8401 C   0  0  1  0  0  0
  -27.2437  -27.4702   20.1013 C   0  0  0  0  0  0
  -25.5896  -33.8632   24.2340 N   0  0  0  0  0  0
  -23.3969  -30.4919   21.5509 C   0  0  2  0  0  0
  -24.8468  -28.9565   20.1190 C   0  0  0  0  0  0
  -22.7390  -29.4666   22.5010 C   0  0  0  0  0  0
  -18.0269  -28.1375   22.8483 C   0  0  0  0  0  0
  -24.1494  -36.7319   23.2635 C   0  0  0  0  0  0
  -25.9198  -30.8453   21.3606 C   0  0  0  0  0  0
  -26.0003  -29.4784   20.7189 C   0  0  0  0  0  0
  -27.2007  -28.7399   20.7159 C   0  0  0  0  0  0
  -26.0824  -26.9561   19.4917 C   0  0  0  0  0  0
  -24.8794  -27.6899   19.5062 C   0  0  0  0  0  0
  -23.6052  -29.8187   20.1666 C   0  0  0  0  0  0
  -25.4115  -36.3122   24.0335 C   0  0  1  0  0  0
  -20.5855  -28.3654   23.1328 C   0  0  2  0  0  0
  -20.6767  -26.9396   22.5426 C   0  0  0  0  0  0
  -19.5749  -26.6377   21.5218 C   0  0  0  0  0  0
  -18.1919  -26.7920   22.1617 C   0  0  0  0  0  0
  -19.1518  -28.8830   23.2901 C   0  0  0  0  0  0
  -18.9453  -30.1439   23.8911 C   0  0  0  0  0  0
  -17.6459  -30.6582   24.0570 C   0  0  0  0  0  0
  -25.9034  -34.9482   23.5132 C   0  0  0  0  0  0
  -16.5347  -29.9093   23.6322 C   0  0  0  0  0  0
  -16.7261  -28.6514   23.0331 C   0  0  0  0  0  0
  -26.4466  -31.6596   25.0710 C   0  0  0  0  0  0
  -25.3747  -31.3689   26.1468 C   0  0  0  0  0  0
  -27.0286  -30.3047   24.6043 C   0  0  0  0  0  0
  -27.6055  -32.4297   25.7469 C   0  0  0  0  0  0
  -27.5588  -37.1814   24.8461 C   0  0  0  0  0  0
  -21.4124  -29.3024   22.3742 N   0  0  0  0  0  0
  -26.4303  -37.3803   23.9403 N   0  0  0  0  0  0
  -24.6600  -31.0831   22.1005 N   0  0  0  0  0  0
  -23.4176  -28.8214   23.3048 O   0  0  0  0  0  0
  -28.4003  -26.7331   20.0455 O   0  0  0  0  0  0
  -26.5598  -34.8928   22.4691 O   0  0  0  0  0  0
  -23.5309  -32.1450   23.7539 O   0  0  0  0  0  0
  -26.4037  -22.5876   20.7576 C   0  0  0  0  0  0
  -28.3327  -21.4053   21.6056 C   0  0  0  0  0  0
  -27.7711  -22.5886   21.0858 C   0  0  0  0  0  0
  -25.6607  -21.4100   20.9409 C   0  0  0  0  0  0
  -27.5197  -20.2602   21.7357 C   0  0  0  0  0  0
  -24.1894  -21.3686   20.5904 C   0  0  0  0  0  0
  -27.3129  -18.3412   23.3828 C   0  0  0  0  0  0
  -29.4513  -17.0362   19.0091 C   0  0  0  0  0  0
  -30.3713  -19.0139   20.1728 C   0  0  0  0  0  0
  -28.6149  -23.8243   20.8282 C   0  0  0  0  0  0
  -28.2664  -25.0042   21.7525 C   0  0  0  0  0  0
  -28.2116  -17.9108   21.0104 C   0  0  0  0  0  0
  -30.4854  -16.7774   21.3347 C   0  0  0  0  0  0
  -28.9284  -26.3194   21.3058 C   0  0  0  0  0  0
  -28.0982  -18.9179   22.1912 C   0  0  1  0  0  0
  -29.6267  -17.6823   20.4023 C   0  0  0  0  0  0
  -26.2063  -20.2679   21.4071 N   0  0  0  0  0  0
  -30.0894  -15.3653   21.2959 N   0  0  0  0  0  0
  -31.4604  -12.3750   19.1054 H   0  0  0  0  0  0
  -30.3059  -11.2640   19.7825 H   0  0  0  0  0  0
  -29.7191  -11.8118   17.4017 H   0  0  0  0  0  0
  -29.6644  -13.5137   17.7880 H   0  0  0  0  0  0
  -27.8089  -11.3247   18.7864 H   0  0  0  0  0  0
  -27.3615  -12.6815   17.7872 H   0  0  0  0  0  0
  -27.7153  -14.2533   19.6101 H   0  0  0  0  0  0
  -28.6686  -11.9086   21.3189 H   0  0  0  0  0  0
  -28.4681  -13.5328   21.8901 H   0  0  0  0  0  0
  -25.2760   -9.5682   22.4752 H   0  0  0  0  0  0
  -24.0001   -7.4633   22.7468 H   0  0  0  0  0  0
  -21.0835   -8.8780   19.8951 H   0  0  0  0  0  0
  -22.3695  -10.9679   19.6166 H   0  0  0  0  0  0
  -21.2009   -7.6150   23.9717 H   0  0  0  0  0  0
  -21.1474   -6.0523   25.9077 H   0  0  0  0  0  0
  -22.0602   -2.7609   23.2845 H   0  0  0  0  0  0
  -22.4122  -11.9900   22.4793 H   0  0  0  0  0  0
  -21.1127  -13.1269   22.2601 H   0  0  0  0  0  0
  -24.6670  -15.8423   20.5138 H   0  0  0  0  0  0
  -26.2853  -15.6234   20.0842 H   0  0  0  0  0  0
  -26.7095  -32.5573   23.1179 H   0  0  0  0  0  0
  -25.0068  -33.9803   25.0496 H   0  0  0  0  0  0
  -22.6844  -31.3074   21.4113 H   0  0  0  0  0  0
  -23.3754  -35.9656   23.3311 H   0  0  0  0  0  0
  -24.3592  -36.8913   22.2047 H   0  0  0  0  0  0
  -23.7237  -37.6522   23.6643 H   0  0  0  0  0  0
  -26.0244  -31.6070   20.5868 H   0  0  0  0  0  0
  -26.8109  -30.9060   21.9731 H   0  0  0  0  0  0
  -28.0924  -29.1477   21.1706 H   0  0  0  0  0  0
  -26.1130  -25.9873   19.0127 H   0  0  0  0  0  0
  -23.9940  -27.2790   19.0402 H   0  0  0  0  0  0
  -23.7088  -30.5907   19.4035 H   0  0  0  0  0  0
  -22.7317  -29.2329   19.8740 H   0  0  0  0  0  0
  -25.1290  -36.2003   25.0830 H   0  0  0  0  0  0
  -20.9942  -28.3228   24.1452 H   0  0  0  0  0  0
  -20.5684  -26.2264   23.3608 H   0  0  0  0  0  0
  -21.6641  -26.7453   22.1221 H   0  0  0  0  0  0
  -19.6922  -25.6293   21.1238 H   0  0  0  0  0  0
  -19.6701  -27.3200   20.6759 H   0  0  0  0  0  0
  -17.4198  -26.6662   21.4012 H   0  0  0  0  0  0
  -18.0317  -26.0065   22.9017 H   0  0  0  0  0  0
  -19.7935  -30.7239   24.2292 H   0  0  0  0  0  0
  -17.5021  -31.6265   24.5168 H   0  0  0  0  0  0
  -15.5348  -30.3004   23.7641 H   0  0  0  0  0  0
  -15.8656  -28.0852   22.7022 H   0  0  0  0  0  0
  -24.5919  -30.7035   25.7804 H   0  0  0  0  0  0
  -24.8939  -32.2840   26.4941 H   0  0  0  0  0  0
  -25.8115  -30.8842   27.0208 H   0  0  0  0  0  0
  -26.2806  -29.6814   24.1127 H   0  0  0  0  0  0
  -27.4100  -29.7277   25.4475 H   0  0  0  0  0  0
  -27.8626  -30.4371   23.9146 H   0  0  0  0  0  0
  -27.2686  -33.3582   26.2100 H   0  0  0  0  0  0
  -28.3851  -32.6874   25.0286 H   0  0  0  0  0  0
  -28.0745  -31.8379   26.5344 H   0  0  0  0  0  0
  -28.2613  -38.0108   24.7525 H   0  0  0  0  0  0
  -28.1076  -36.2639   24.6278 H   0  0  0  0  0  0
  -27.2308  -37.1453   25.8866 H   0  0  0  0  0  0
  -20.9285  -29.8739   21.6962 H   0  0  0  0  0  0
  -26.0198  -38.2883   24.1414 H   0  0  0  0  0  0
  -25.9325  -23.4744   20.3556 H   0  0  0  0  0  0
  -29.3826  -21.3623   21.8611 H   0  0  0  0  0  0
  -23.6617  -22.1918   21.0712 H   0  0  0  0  0  0
  -23.7257  -20.4357   20.9129 H   0  0  0  0  0  0
  -24.0567  -21.4613   19.5126 H   0  0  0  0  0  0
  -27.2853  -19.0522   24.2087 H   0  0  0  0  0  0
  -27.7736  -17.4242   23.7502 H   0  0  0  0  0  0
  -26.2833  -18.1094   23.1089 H   0  0  0  0  0  0
  -28.9709  -17.7213   18.3098 H   0  0  0  0  0  0
  -28.8314  -16.1421   19.0438 H   0  0  0  0  0  0
  -30.4112  -16.7551   18.5747 H   0  0  0  0  0  0
  -29.7544  -19.7300   19.6288 H   0  0  0  0  0  0
  -31.2784  -18.8611   19.5862 H   0  0  0  0  0  0
  -30.6867  -19.4824   21.1041 H   0  0  0  0  0  0
  -28.4632  -24.1117   19.7865 H   0  0  0  0  0  0
  -29.6732  -23.5782   20.9226 H   0  0  0  0  0  0
  -28.5749  -24.7619   22.7698 H   0  0  0  0  0  0
  -27.1864  -25.1484   21.7906 H   0  0  0  0  0  0
  -27.5204  -18.2177   20.2243 H   0  0  0  0  0  0
  -27.8241  -16.9439   21.3319 H   0  0  0  0  0  0
  -30.4156  -17.1208   22.3674 H   0  0  0  0  0  0
  -31.5417  -16.8784   21.0758 H   0  0  0  0  0  0
  -30.0042  -26.1775   21.2016 H   0  0  0  0  0  0
  -28.7993  -27.0824   22.0746 H   0  0  0  0  0  0
  -29.0928  -19.1129   22.5881 H   0  0  0  0  0  0
  -29.2045  -15.1175   21.7114 H   0  0  0  0  0  0
  1 25  1  0  0  0
  1 30  2  0  0  0
  1 88  1  0  0  0
  2  3  1  0  0  0
  2 25  1  0  0  0
  2 89  1  0  0  0
  2 90  1  0  0  0
  3  4  1  0  0  0
  3 91  1  0  0  0
  3 92  1  0  0  0
  4  5  1  0  0  0
  4 93  1  0  0  0
  4 94  1  0  0  0
  5  6  1  0  0  0
  5 26  1  0  0  0
  5 95  1  0  0  0
  6 25  1  0  0  0
  6 96  1  0  0  0
  6 97  1  0  0  0
  7  8  2  0  0  0
  7 26  1  0  0  0
  7 29  1  0  0  0
  8  9  1  0  0  0
  8 22  1  0  0  0
  9 10  1  0  0  0
  9 27  2  0  0  0
 10 11  2  0  0  0
 10 15  1  0  0  0
 11 12  1  0  0  0
 11 98  1  0  0  0
 12 13  2  0  0  0
 12 99  1  0  0  0
 13 14  1  0  0  0
 13 31  1  0  0  0
 14 15  2  0  0  0
 14100  1  0  0  0
 15101  1  0  0  0
 16 17  2  0  0  0
 16 21  1  0  0  0
 16 31  1  0  0  0
 17 18  1  0  0  0
 17102  1  0  0  0
 18 19  2  0  0  0
 18103  1  0  0  0
 19 20  1  0  0  0
 19 24  1  0  0  0
 20 21  2  0  0  0
 20104  1  0  0  0
 21 23  1  0  0  0
 22 28  1  0  0  0
 22 32  2  0  0  0
 26 27  1  0  0  0
 28105  1  0  0  0
 28106  1  0  0  0
 29107  1  0  0  0
 29108  1  0  0  0
 33 34  1  0  0  0
 33 66  1  0  0  0
 33 70  2  0  0  0
 34 36  1  0  0  0
 34 59  1  0  0  0
 34109  1  0  0  0
 35 44  2  0  0  0
 35 45  1  0  0  0
 35 68  1  0  0  0
 36 56  1  0  0  0
 36110  1  0  0  0
 37 39  1  0  0  0
 37 47  1  0  0  0
 37 66  1  0  0  0
 37111  1  0  0  0
 38 43  2  0  0  0
 38 46  1  0  0  0
 38 47  1  0  0  0
 39 64  1  0  0  0
 39 67  2  0  0  0
 40 52  1  0  0  0
 40 53  2  0  0  0
 40 58  1  0  0  0
 41112  1  0  0  0
 41113  1  0  0  0
 41114  1  0  0  0
 41 48  1  0  0  0
 42 43  1  0  0  0
 42 66  1  0  0  0
 42115  1  0  0  0
 42116  1  0  0  0
 43 44  1  0  0  0
 44117  1  0  0  0
 45 46  2  0  0  0
 45118  1  0  0  0
 46119  1  0  0  0
 47120  1  0  0  0
 47121  1  0  0  0
 48 56  1  0  0  0
 48 65  1  0  0  0
 48122  1  0  0  0
 49 50  1  0  0  0
 49 53  1  0  0  0
 49 64  1  0  0  0
 49123  1  0  0  0
 50 51  1  0  0  0
 50124  1  0  0  0
 50125  1  0  0  0
 51 52  1  0  0  0
 51126  1  0  0  0
 51127  1  0  0  0
 52128  1  0  0  0
 52129  1  0  0  0
 53 54  1  0  0  0
 54 55  2  0  0  0
 54130  1  0  0  0
 55 57  1  0  0  0
 55131  1  0  0  0
 56 69  2  0  0  0
 57 58  2  0  0  0
 57132  1  0  0  0
 58133  1  0  0  0
 59 60  1  0  0  0
 59 61  1  0  0  0
 59 62  1  0  0  0
 60134  1  0  0  0
 60135  1  0  0  0
 60136  1  0  0  0
 61137  1  0  0  0
 61138  1  0  0  0
 61139  1  0  0  0
 62140  1  0  0  0
 62141  1  0  0  0
 62142  1  0  0  0
 63 65  1  0  0  0
 63143  1  0  0  0
 63144  1  0  0  0
 63145  1  0  0  0
 64146  1  0  0  0
 65147  1  0  0  0
 68 84  1  0  0  0
 71 73  2  0  0  0
 71 74  1  0  0  0
 71148  1  0  0  0
 72 73  1  0  0  0
 72 75  2  0  0  0
 72149  1  0  0  0
 73 80  1  0  0  0
 74 76  1  0  0  0
 74 87  2  0  0  0
 75 85  1  0  0  0
 75 87  1  0  0  0
 76150  1  0  0  0
 76151  1  0  0  0
 76152  1  0  0  0
 77153  1  0  0  0
 77154  1  0  0  0
 77155  1  0  0  0
 77 85  1  0  0  0
 78156  1  0  0  0
 78157  1  0  0  0
 78158  1  0  0  0
 78 86  1  0  0  0
 79 86  1  0  0  0
 79159  1  0  0  0
 79160  1  0  0  0
 79161  1  0  0  0
 80 81  1  0  0  0
 80162  1  0  0  0
 80163  1  0  0  0
 81 84  1  0  0  0
 81164  1  0  0  0
 81165  1  0  0  0
 82 85  1  0  0  0
 82 86  1  0  0  0
 82166  1  0  0  0
 82167  1  0  0  0
 83 86  1  0  0  0
 83 88  1  0  0  0
 83168  1  0  0  0
 83169  1  0  0  0
 84170  1  0  0  0
 84171  1  0  0  0
 85172  1  0  0  0
 88173  1  0  0  0
M  ISO  4   1 100  68 101  84 101  88 100
M  END
> <chiral flag>
0

> <version>
0

> <s_m_source_file>
/data/baiqing/PycharmProjects/Reinvent-master-3.2/result/LINK_invent/BTK/process_docking_weight1_custom_sum_contain_oxygen_bond_distance_aromatic_linkinvent_7_9_3/rearranged_h_0079.sdf

> <i_m_source_file_index>
36

> <r_mmod_Potential_Energy-OPLS-2005>
-298.487274169922

> <r_mmod_Stretch_Energy-OPLS-2005>
34.4739952087402

> <r_mmod_Bend_Energy-OPLS-2005>
95.9533538818359

> <r_mmod_Torsional_Energy-OPLS-2005>
234.725051879883

> <r_mmod_Improper_Torsional_Energy-OPLS-2005>
3.17442870140076

> <r_mmod_Van_der_Waal_Energy-OPLS-2005>
148.93962097168

> <r_mmod_Electrostatic_Energy-OPLS-2005>
-621.38818359375

> <r_mmod_Solvation_Energy-OPLS-2005>
-201.366149902344

> <b_mmod_Minimization_Converged-OPLS-2005>
0

> <r_mmod_RMS_Derivative-OPLS-2005>
0.91329288482666

$$$$
36
                    3D
 Structure written by MMmdl.
150158  0  0  1  0            999 V2000
  -30.5334  -15.0995   20.3933 C   0  0  0  0  0  0
  -30.4222  -12.6850   19.5439 C   0  0  0  0  0  0
  -29.5406  -12.5614   18.2802 C   0  0  0  0  0  0
  -28.0689  -12.3349   18.6708 C   0  0  0  0  0  0
  -27.6104  -13.2837   19.8097 C   0  0  2  0  0  0
  -28.6355  -13.4012   20.9543 C   0  0  0  0  0  0
  -25.2325  -13.8292   20.5606 C   0  0  0  0  0  0
  -24.1735  -13.0462   20.9274 C   0  0  0  0  0  0
  -24.6413  -11.6964   20.8742 C   0  0  0  0  0  0
  -23.9107  -10.4318   21.0384 C   0  0  0  0  0  0
  -24.3649   -9.4224   21.9149 C   0  0  0  0  0  0
  -23.6331   -8.2253   22.0718 C   0  0  0  0  0  0
  -22.4311   -8.0283   21.3508 C   0  0  0  0  0  0
  -21.9942   -9.0263   20.4627 C   0  0  0  0  0  0
  -22.7278  -10.2152   20.3035 C   0  0  0  0  0  0
  -21.6863   -6.0733   22.5261 C   0  0  0  0  0  0
  -21.4052   -6.5626   23.8207 C   0  0  0  0  0  0
  -21.3695   -5.6772   24.9160 C   0  0  0  0  0  0
  -21.6046   -4.3034   24.7193 C   0  0  0  0  0  0
  -21.8821   -3.8130   23.4315 C   0  0  0  0  0  0
  -21.9206   -4.6962   22.3378 C   0  0  0  0  0  0
  -22.7736  -13.5187   21.1917 C   0  0  0  0  0  0
  -22.1638   -4.2155   21.0956 F   0  0  0  0  0  0
  -21.5643   -3.4506   25.7700 F   0  0  0  0  0  0
  -29.9046  -13.8364   20.3621 N   0  0  0  0  0  0
  -26.2764  -12.9604   20.3029 N   0  0  0  0  0  0
  -25.9342  -11.6696   20.5628 N   0  0  0  0  0  0
  -22.0388  -12.8189   22.0487 N   0  0  0  0  0  0
  -25.3880  -15.2013   20.3935 N   0  0  0  0  0  0
  -31.7483  -15.0311   20.1707 O   0  0  0  0  0  0
  -21.6656   -6.8885   21.4224 O   0  0  0  0  0  0
  -22.3389  -14.5463   20.6716 O   0  0  0  0  0  0
  -24.6540  -31.8329   23.1808 C   0  0  0  0  0  0
  -25.9253  -32.4640   23.8241 C   0  0  1  0  0  0
  -27.1988  -26.9991   20.1755 C   0  0  0  0  0  0
  -25.5974  -33.8464   24.2156 N   0  0  0  0  0  0
  -23.4637  -30.4498   21.5254 C   0  0  2  0  0  0
  -24.9138  -28.8534   20.1084 C   0  0  0  0  0  0
  -22.7656  -29.4472   22.4791 C   0  0  0  0  0  0
  -18.0326  -28.1385   22.8488 C   0  0  0  0  0  0
  -24.1489  -36.7227   23.2637 C   0  0  0  0  0  0
  -26.0297  -30.6578   21.4049 C   0  0  0  0  0  0
  -26.0933  -29.2571   20.7465 C   0  0  0  0  0  0
  -27.2311  -28.3451   20.7632 C   0  0  0  0  0  0
  -25.9980  -26.7341   19.4773 C   0  0  0  0  0  0
  -24.8861  -27.6109   19.4570 C   0  0  0  0  0  0
  -23.7011  -29.7775   20.1454 C   0  0  0  0  0  0
  -25.4127  -36.3003   24.0306 C   0  0  1  0  0  0
  -20.5962  -28.3731   23.1214 C   0  0  2  0  0  0
  -20.6812  -26.9414   22.5413 C   0  0  0  0  0  0
  -19.5789  -26.6357   21.5235 C   0  0  0  0  0  0
  -18.1966  -26.7921   22.1627 C   0  0  0  0  0  0
  -19.1589  -28.8888   23.2840 C   0  0  0  0  0  0
  -18.9483  -30.1479   23.8871 C   0  0  0  0  0  0
  -17.6475  -30.6589   24.0561 C   0  0  0  0  0  0
  -25.9101  -34.9374   23.5040 C   0  0  0  0  0  0
  -16.5370  -29.9081   23.6314 C   0  0  0  0  0  0
  -16.7311  -28.6486   23.0363 C   0  0  0  0  0  0
  -26.4536  -31.6556   25.0746 C   0  0  0  0  0  0
  -25.3672  -31.3818   26.1413 C   0  0  0  0  0  0
  -27.0412  -30.2926   24.6422 C   0  0  0  0  0  0
  -27.6038  -32.4364   25.7538 C   0  0  0  0  0  0
  -27.5585  -37.1780   24.8459 C   0  0  0  0  0  0
  -21.4335  -29.3043   22.3580 N   0  0  0  0  0  0
  -26.4291  -37.3720   23.9418 N   0  0  0  0  0  0
  -24.7357  -31.0060   22.0912 N   0  0  0  0  0  0
  -23.4248  -28.8002   23.2978 O   0  0  0  0  0  0
  -28.2007  -25.9268   20.2893 O   0  0  0  0  0  0
  -26.5680  -34.8877   22.4617 O   0  0  0  0  0  0
  -23.5628  -32.1240   23.6975 O   0  0  0  0  0  0
  -28.6337  -17.1247   20.8650 C   0  0  0  0  0  0
  -30.6680  -17.8089   20.0190 C   0  0  0  0  0  0
  -29.9192  -16.6342   20.4259 C   0  0  0  0  0  0
  -28.2038  -18.5400   20.8179 C   0  0  0  0  0  0
  -29.0316  -19.6492   20.3507 C   0  0  0  0  0  0
  -26.7673  -18.7996   21.2607 C   0  0  0  0  0  0
  -28.5089  -21.2285   19.9184 C   0  0  0  0  0  0
  -28.7037  -22.8537   20.5423 C   0  0  0  0  0  0
  -27.9905  -24.3576   19.9572 C   0  0  0  0  0  0
  -30.2708  -19.1666   19.9692 N   0  0  0  0  0  0
  -31.4653  -12.8134   19.2487 H   0  0  0  0  0  0
  -30.3949  -11.7600   20.1237 H   0  0  0  0  0  0
  -29.8977  -11.7458   17.6482 H   0  0  0  0  0  0
  -29.6295  -13.4720   17.6868 H   0  0  0  0  0  0
  -27.9679  -11.2997   18.9880 H   0  0  0  0  0  0
  -27.4259  -12.4519   17.7956 H   0  0  0  0  0  0
  -27.5481  -14.2696   19.3479 H   0  0  0  0  0  0
  -28.7449  -12.4541   21.4865 H   0  0  0  0  0  0
  -28.3035  -14.1332   21.6903 H   0  0  0  0  0  0
  -25.2797   -9.5696   22.4720 H   0  0  0  0  0  0
  -24.0051   -7.4642   22.7415 H   0  0  0  0  0  0
  -21.0868   -8.8793   19.8932 H   0  0  0  0  0  0
  -22.3722  -10.9683   19.6148 H   0  0  0  0  0  0
  -21.2041   -7.6132   23.9714 H   0  0  0  0  0  0
  -21.1526   -6.0482   25.9069 H   0  0  0  0  0  0
  -22.0577   -2.7592   23.2783 H   0  0  0  0  0  0
  -22.4065  -11.9930   22.5014 H   0  0  0  0  0  0
  -21.0971  -13.1150   22.2616 H   0  0  0  0  0  0
  -24.5765  -15.8088   20.4322 H   0  0  0  0  0  0
  -26.1408  -15.5948   19.8437 H   0  0  0  0  0  0
  -26.7317  -32.5187   23.0961 H   0  0  0  0  0  0
  -25.0169  -33.9552   25.0344 H   0  0  0  0  0  0
  -22.7733  -31.2801   21.3672 H   0  0  0  0  0  0
  -23.3757  -35.9551   23.3274 H   0  0  0  0  0  0
  -24.3570  -36.8889   22.2054 H   0  0  0  0  0  0
  -23.7231  -37.6407   23.6699 H   0  0  0  0  0  0
  -26.2108  -31.4026   20.6285 H   0  0  0  0  0  0
  -26.8899  -30.7088   22.0594 H   0  0  0  0  0  0
  -28.1223  -28.6386   21.2996 H   0  0  0  0  0  0
  -25.8785  -25.7907   18.9660 H   0  0  0  0  0  0
  -23.9876  -27.3050   18.9392 H   0  0  0  0  0  0
  -23.8672  -30.5507   19.3953 H   0  0  0  0  0  0
  -22.8121  -29.2382   19.8162 H   0  0  0  0  0  0
  -25.1326  -36.1806   25.0801 H   0  0  0  0  0  0
  -21.0056  -28.3297   24.1340 H   0  0  0  0  0  0
  -20.5710  -26.2344   23.3643 H   0  0  0  0  0  0
  -21.6673  -26.7418   22.1218 H   0  0  0  0  0  0
  -19.6939  -25.6253   21.1310 H   0  0  0  0  0  0
  -19.6709  -27.3125   20.6729 H   0  0  0  0  0  0
  -17.4245  -26.6691   21.4008 H   0  0  0  0  0  0
  -18.0329  -26.0062   22.9016 H   0  0  0  0  0  0
  -19.7961  -30.7318   24.2214 H   0  0  0  0  0  0
  -17.5020  -31.6254   24.5182 H   0  0  0  0  0  0
  -15.5368  -30.2982   23.7641 H   0  0  0  0  0  0
  -15.8707  -28.0795   22.7105 H   0  0  0  0  0  0
  -24.5826  -30.7207   25.7720 H   0  0  0  0  0  0
  -24.8898  -32.3043   26.4743 H   0  0  0  0  0  0
  -25.7898  -30.9029   27.0257 H   0  0  0  0  0  0
  -26.3050  -29.6632   24.1417 H   0  0  0  0  0  0
  -27.3952  -29.7263   25.5048 H   0  0  0  0  0  0
  -27.9006  -30.4132   23.9823 H   0  0  0  0  0  0
  -27.2595  -33.3676   26.2054 H   0  0  0  0  0  0
  -28.3881  -32.6912   25.0400 H   0  0  0  0  0  0
  -28.0673  -31.8540   26.5509 H   0  0  0  0  0  0
  -28.2574  -38.0104   24.7529 H   0  0  0  0  0  0
  -28.1116  -36.2637   24.6267 H   0  0  0  0  0  0
  -27.2321  -37.1406   25.8864 H   0  0  0  0  0  0
  -20.9554  -29.8770   21.6768 H   0  0  0  0  0  0
  -26.0139  -38.2786   24.1406 H   0  0  0  0  0  0
  -27.9225  -16.3994   21.2316 H   0  0  0  0  0  0
  -31.6878  -17.6635   19.6826 H   0  0  0  0  0  0
  -26.5343  -18.2358   22.1671 H   0  0  0  0  0  0
  -26.0664  -18.4808   20.4899 H   0  0  0  0  0  0
  -26.5786  -19.8495   21.4820 H   0  0  0  0  0  0
  -27.4320  -21.1181   19.7894 H   0  0  0  0  0  0
  -28.8664  -21.3079   18.8903 H   0  0  0  0  0  0
  -29.7781  -23.0227   20.5784 H   0  0  0  0  0  0
  -28.4074  -22.7820   21.5903 H   0  0  0  0  0  0
  -26.9224  -24.1876   20.0751 H   0  0  0  0  0  0
  -28.1496  -24.3232   18.8775 H   0  0  0  0  0  0
  1 25  1  0  0  0
  1 30  2  0  0  0
  1 73  1  0  0  0
  2  3  1  0  0  0
  2 25  1  0  0  0
  2 81  1  0  0  0
  2 82  1  0  0  0
  3  4  1  0  0  0
  3 83  1  0  0  0
  3 84  1  0  0  0
  4  5  1  0  0  0
  4 85  1  0  0  0
  4 86  1  0  0  0
  5  6  1  0  0  0
  5 26  1  0  0  0
  5 87  1  0  0  0
  6 25  1  0  0  0
  6 88  1  0  0  0
  6 89  1  0  0  0
  7  8  2  0  0  0
  7 26  1  0  0  0
  7 29  1  0  0  0
  8  9  1  0  0  0
  8 22  1  0  0  0
  9 10  1  0  0  0
  9 27  2  0  0  0
 10 11  2  0  0  0
 10 15  1  0  0  0
 11 12  1  0  0  0
 11 90  1  0  0  0
 12 13  2  0  0  0
 12 91  1  0  0  0
 13 14  1  0  0  0
 13 31  1  0  0  0
 14 15  2  0  0  0
 14 92  1  0  0  0
 15 93  1  0  0  0
 16 17  2  0  0  0
 16 21  1  0  0  0
 16 31  1  0  0  0
 17 18  1  0  0  0
 17 94  1  0  0  0
 18 19  2  0  0  0
 18 95  1  0  0  0
 19 20  1  0  0  0
 19 24  1  0  0  0
 20 21  2  0  0  0
 20 96  1  0  0  0
 21 23  1  0  0  0
 22 28  1  0  0  0
 22 32  2  0  0  0
 26 27  1  0  0  0
 28 97  1  0  0  0
 28 98  1  0  0  0
 29 99  1  0  0  0
 29100  1  0  0  0
 33 34  1  0  0  0
 33 66  1  0  0  0
 33 70  2  0  0  0
 34 36  1  0  0  0
 34 59  1  0  0  0
 34101  1  0  0  0
 35 44  2  0  0  0
 35 45  1  0  0  0
 35 68  1  0  0  0
 36 56  1  0  0  0
 36102  1  0  0  0
 37 39  1  0  0  0
 37 47  1  0  0  0
 37 66  1  0  0  0
 37103  1  0  0  0
 38 43  2  0  0  0
 38 46  1  0  0  0
 38 47  1  0  0  0
 39 64  1  0  0  0
 39 67  2  0  0  0
 40 52  1  0  0  0
 40 53  2  0  0  0
 40 58  1  0  0  0
 41104  1  0  0  0
 41105  1  0  0  0
 41106  1  0  0  0
 41 48  1  0  0  0
 42 43  1  0  0  0
 42 66  1  0  0  0
 42107  1  0  0  0
 42108  1  0  0  0
 43 44  1  0  0  0
 44109  1  0  0  0
 45 46  2  0  0  0
 45110  1  0  0  0
 46111  1  0  0  0
 47112  1  0  0  0
 47113  1  0  0  0
 48 56  1  0  0  0
 48 65  1  0  0  0
 48114  1  0  0  0
 49 50  1  0  0  0
 49 53  1  0  0  0
 49 64  1  0  0  0
 49115  1  0  0  0
 50 51  1  0  0  0
 50116  1  0  0  0
 50117  1  0  0  0
 51 52  1  0  0  0
 51118  1  0  0  0
 51119  1  0  0  0
 52120  1  0  0  0
 52121  1  0  0  0
 53 54  1  0  0  0
 54 55  2  0  0  0
 54122  1  0  0  0
 55 57  1  0  0  0
 55123  1  0  0  0
 56 69  2  0  0  0
 57 58  2  0  0  0
 57124  1  0  0  0
 58125  1  0  0  0
 59 60  1  0  0  0
 59 61  1  0  0  0
 59 62  1  0  0  0
 60126  1  0  0  0
 60127  1  0  0  0
 60128  1  0  0  0
 61129  1  0  0  0
 61130  1  0  0  0
 61131  1  0  0  0
 62132  1  0  0  0
 62133  1  0  0  0
 62134  1  0  0  0
 63 65  1  0  0  0
 63135  1  0  0  0
 63136  1  0  0  0
 63137  1  0  0  0
 64138  1  0  0  0
 65139  1  0  0  0
 68 79  1  0  0  0
 71 73  2  0  0  0
 71 74  1  0  0  0
 71140  1  0  0  0
 72 73  1  0  0  0
 72 80  2  0  0  0
 72141  1  0  0  0
 74 75  2  0  0  0
 74 76  1  0  0  0
 75 77  1  0  0  0
 75 80  1  0  0  0
 76142  1  0  0  0
 76143  1  0  0  0
 76144  1  0  0  0
 77 78  1  0  0  0
 77145  1  0  0  0
 77146  1  0  0  0
 78 79  1  0  0  0
 78147  1  0  0  0
 78148  1  0  0  0
 79149  1  0  0  0
 79150  1  0  0  0
M  ISO  4   1 100  68 101  73 100  79 101
M  END
> <chiral flag>
0

> <version>
0

> <s_m_source_file>
/data/baiqing/PycharmProjects/Reinvent-master-3.2/result/LINK_invent/BTK/process_docking_weight1_custom_sum_contain_oxygen_bond_distance_aromatic_linkinvent_7_9_3/rearranged_h_0079.sdf

> <i_m_source_file_index>
37

> <r_mmod_Potential_Energy-OPLS-2005>
772.513610839844

> <r_mmod_Stretch_Energy-OPLS-2005>
411.232788085938

> <r_mmod_Bend_Energy-OPLS-2005>
382.428131103516

> <r_mmod_Torsional_Energy-OPLS-2005>
191.737274169922

> <r_mmod_Improper_Torsional_Energy-OPLS-2005>
9.03452491760254

> <r_mmod_Van_der_Waal_Energy-OPLS-2005>
129.251815795898

> <r_mmod_Electrostatic_Energy-OPLS-2005>
-469.330017089844

> <r_mmod_Solvation_Energy-OPLS-2005>
-208.414520263672

> <b_mmod_Minimization_Converged-OPLS-2005>
0

> <r_mmod_RMS_Derivative-OPLS-2005>
4.7179799079895

$$$$
37
                    3D
 Structure written by MMmdl.
163171  0  0  1  0            999 V2000
  -30.7098  -14.4478   20.5659 C   0  0  0  0  0  0
  -30.4186  -12.2871   19.4255 C   0  0  0  0  0  0
  -29.4972  -12.4988   18.2066 C   0  0  0  0  0  0
  -28.0137  -12.3796   18.6095 C   0  0  0  0  0  0
  -27.6640  -13.2077   19.8755 C   0  0  2  0  0  0
  -28.7037  -12.9803   20.9981 C   0  0  0  0  0  0
  -25.2605  -13.8173   20.5663 C   0  0  0  0  0  0
  -24.1856  -13.0465   20.9177 C   0  0  0  0  0  0
  -24.6390  -11.6925   20.8732 C   0  0  0  0  0  0
  -23.9050  -10.4310   21.0418 C   0  0  0  0  0  0
  -24.3608   -9.4222   21.9195 C   0  0  0  0  0  0
  -23.6292   -8.2249   22.0750 C   0  0  0  0  0  0
  -22.4281   -8.0268   21.3538 C   0  0  0  0  0  0
  -21.9912   -9.0244   20.4648 C   0  0  0  0  0  0
  -22.7223  -10.2130   20.3064 C   0  0  0  0  0  0
  -21.6858   -6.0729   22.5280 C   0  0  0  0  0  0
  -21.4014   -6.5632   23.8211 C   0  0  0  0  0  0
  -21.3657   -5.6777   24.9172 C   0  0  0  0  0  0
  -21.6045   -4.3042   24.7223 C   0  0  0  0  0  0
  -21.8819   -3.8137   23.4351 C   0  0  0  0  0  0
  -21.9191   -4.6958   22.3406 C   0  0  0  0  0  0
  -22.7875  -13.5272   21.1827 C   0  0  0  0  0  0
  -22.1666   -4.2148   21.0986 F   0  0  0  0  0  0
  -21.5626   -3.4525   25.7740 F   0  0  0  0  0  0
  -30.0379  -13.2724   20.4508 N   0  0  0  0  0  0
  -26.3032  -12.9339   20.3338 N   0  0  0  0  0  0
  -25.9307  -11.6506   20.5726 N   0  0  0  0  0  0
  -22.0482  -12.8280   22.0379 N   0  0  0  0  0  0
  -25.4376  -15.1884   20.4042 N   0  0  0  0  0  0
  -31.8349  -14.6212   20.0896 O   0  0  0  0  0  0
  -21.6646   -6.8869   21.4239 O   0  0  0  0  0  0
  -22.3590  -14.5577   20.6647 O   0  0  0  0  0  0
  -24.6142  -31.8691   23.2088 C   0  0  0  0  0  0
  -25.9047  -32.4822   23.8381 C   0  0  1  0  0  0
  -27.2376  -27.4467   20.0995 C   0  0  0  0  0  0
  -25.5919  -33.8619   24.2318 N   0  0  0  0  0  0
  -23.4020  -30.4905   21.5486 C   0  0  2  0  0  0
  -24.8505  -28.9530   20.1170 C   0  0  0  0  0  0
  -22.7415  -29.4661   22.4982 C   0  0  0  0  0  0
  -18.0282  -28.1377   22.8483 C   0  0  0  0  0  0
  -24.1495  -36.7310   23.2633 C   0  0  0  0  0  0
  -25.9283  -30.8367   21.3605 C   0  0  0  0  0  0
  -26.0086  -29.4697   20.7130 C   0  0  0  0  0  0
  -27.2073  -28.7226   20.7050 C   0  0  0  0  0  0
  -26.0690  -26.9378   19.4989 C   0  0  0  0  0  0
  -24.8743  -27.6844   19.5079 C   0  0  0  0  0  0
  -23.6120  -29.8200   20.1637 C   0  0  0  0  0  0
  -25.4116  -36.3103   24.0331 C   0  0  1  0  0  0
  -20.5865  -28.3669   23.1321 C   0  0  2  0  0  0
  -20.6779  -26.9406   22.5415 C   0  0  0  0  0  0
  -19.5755  -26.6383   21.5208 C   0  0  0  0  0  0
  -18.1938  -26.7921   22.1619 C   0  0  0  0  0  0
  -19.1528  -28.8835   23.2901 C   0  0  0  0  0  0
  -18.9450  -30.1434   23.8919 C   0  0  0  0  0  0
  -17.6457  -30.6568   24.0580 C   0  0  0  0  0  0
  -25.9046  -34.9474   23.5116 C   0  0  0  0  0  0
  -16.5350  -29.9077   23.6315 C   0  0  0  0  0  0
  -16.7273  -28.6503   23.0327 C   0  0  0  0  0  0
  -26.4487  -31.6584   25.0696 C   0  0  0  0  0  0
  -25.3769  -31.3681   26.1449 C   0  0  0  0  0  0
  -27.0312  -30.3033   24.6038 C   0  0  0  0  0  0
  -27.6060  -32.4304   25.7471 C   0  0  0  0  0  0
  -27.5587  -37.1810   24.8467 C   0  0  0  0  0  0
  -21.4140  -29.3048   22.3739 N   0  0  0  0  0  0
  -26.4301  -37.3788   23.9405 N   0  0  0  0  0  0
  -24.6660  -31.0798   22.0982 N   0  0  0  0  0  0
  -23.4186  -28.8194   23.3022 O   0  0  0  0  0  0
  -28.3918  -26.7009   20.0796 O   0  0  0  0  0  0
  -26.5593  -34.8927   22.4667 O   0  0  0  0  0  0
  -23.5341  -32.1440   23.7489 O   0  0  0  0  0  0
  -28.8264  -20.8997   22.2022 C   0  0  0  0  0  0
  -28.2265  -19.7114   21.8444 C   0  0  0  0  0  0
  -26.9691  -21.4103   21.1035 C   0  0  0  0  0  0
  -25.8274  -22.1263   20.4569 C   0  0  0  0  0  0
  -28.1467  -17.9163   23.5652 C   0  0  0  0  0  0
  -28.2850  -24.3170   20.7737 C   0  0  0  0  0  0
  -30.0417  -17.9112   21.8579 C   0  0  0  0  0  0
  -28.2412  -23.3759   22.0058 C   0  0  0  0  0  0
  -30.2908  -16.8930   20.7205 C   0  0  0  0  0  0
  -28.5240  -25.7914   21.1783 C   0  0  0  0  0  0
  -28.5547  -18.2618   22.1258 C   0  0  2  0  0  0
  -28.0358  -21.9300   21.7388 N   0  0  0  0  0  0
  -27.0910  -20.0800   21.1697 N   0  3  0  0  0  0
  -29.9960  -15.4850   21.0460 N   0  0  0  0  0  0
  -31.4646  -12.3718   19.1252 H   0  0  0  0  0  0
  -30.3084  -11.2746   19.8165 H   0  0  0  0  0  0
  -29.7307  -11.7705   17.4277 H   0  0  0  0  0  0
  -29.6850  -13.4796   17.7685 H   0  0  0  0  0  0
  -27.8009  -11.3241   18.7808 H   0  0  0  0  0  0
  -27.3778  -12.6841   17.7771 H   0  0  0  0  0  0
  -27.7129  -14.2576   19.5836 H   0  0  0  0  0  0
  -28.6736  -11.9443   21.3403 H   0  0  0  0  0  0
  -28.4727  -13.5853   21.8768 H   0  0  0  0  0  0
  -25.2751   -9.5700   22.4773 H   0  0  0  0  0  0
  -23.9993   -7.4648   22.7477 H   0  0  0  0  0  0
  -21.0831   -8.8760   19.8973 H   0  0  0  0  0  0
  -22.3674  -10.9665   19.6170 H   0  0  0  0  0  0
  -21.2011   -7.6141   23.9722 H   0  0  0  0  0  0
  -21.1485   -6.0510   25.9075 H   0  0  0  0  0  0
  -22.0609   -2.7604   23.2853 H   0  0  0  0  0  0
  -22.4034  -11.9920   22.4781 H   0  0  0  0  0  0
  -21.1100  -13.1334   22.2559 H   0  0  0  0  0  0
  -24.6635  -15.8377   20.4829 H   0  0  0  0  0  0
  -26.2706  -15.6086   20.0115 H   0  0  0  0  0  0
  -26.7119  -32.5545   23.1146 H   0  0  0  0  0  0
  -25.0121  -33.9780   25.0499 H   0  0  0  0  0  0
  -22.6911  -31.3066   21.4081 H   0  0  0  0  0  0
  -23.3752  -35.9650   23.3313 H   0  0  0  0  0  0
  -24.3591  -36.8905   22.2044 H   0  0  0  0  0  0
  -23.7260  -37.6527   23.6638 H   0  0  0  0  0  0
  -26.0354  -31.5994   20.5883 H   0  0  0  0  0  0
  -26.8181  -30.8948   21.9750 H   0  0  0  0  0  0
  -28.1046  -29.1173   21.1599 H   0  0  0  0  0  0
  -26.0844  -25.9663   19.0258 H   0  0  0  0  0  0
  -23.9849  -27.2823   19.0430 H   0  0  0  0  0  0
  -23.7229  -30.5941   19.4034 H   0  0  0  0  0  0
  -22.7363  -29.2402   19.8667 H   0  0  0  0  0  0
  -25.1296  -36.1963   25.0826 H   0  0  0  0  0  0
  -20.9964  -28.3227   24.1437 H   0  0  0  0  0  0
  -20.5677  -26.2278   23.3602 H   0  0  0  0  0  0
  -21.6659  -26.7452   22.1223 H   0  0  0  0  0  0
  -19.6894  -25.6294   21.1239 H   0  0  0  0  0  0
  -19.6702  -27.3185   20.6742 H   0  0  0  0  0  0
  -17.4209  -26.6655   21.4019 H   0  0  0  0  0  0
  -18.0340  -26.0053   22.9000 H   0  0  0  0  0  0
  -19.7923  -30.7250   24.2300 H   0  0  0  0  0  0
  -17.5005  -31.6237   24.5206 H   0  0  0  0  0  0
  -15.5360  -30.2983   23.7623 H   0  0  0  0  0  0
  -15.8673  -28.0829   22.7012 H   0  0  0  0  0  0
  -24.5941  -30.7023   25.7790 H   0  0  0  0  0  0
  -24.8959  -32.2835   26.4904 H   0  0  0  0  0  0
  -25.8133  -30.8852   27.0195 H   0  0  0  0  0  0
  -26.2832  -29.6794   24.1126 H   0  0  0  0  0  0
  -27.4144  -29.7257   25.4457 H   0  0  0  0  0  0
  -27.8641  -30.4361   23.9129 H   0  0  0  0  0  0
  -27.2671  -33.3585   26.2082 H   0  0  0  0  0  0
  -28.3863  -32.6895   25.0305 H   0  0  0  0  0  0
  -28.0739  -31.8412   26.5362 H   0  0  0  0  0  0
  -28.2609  -38.0102   24.7509 H   0  0  0  0  0  0
  -28.1077  -36.2636   24.6300 H   0  0  0  0  0  0
  -27.2303  -37.1467   25.8868 H   0  0  0  0  0  0
  -20.9295  -29.8817   21.7002 H   0  0  0  0  0  0
  -26.0190  -38.2866   24.1403 H   0  0  0  0  0  0
  -29.7272  -21.0797   22.7746 H   0  0  0  0  0  0
  -25.5886  -23.0234   21.0265 H   0  0  0  0  0  0
  -24.9588  -21.4673   20.4377 H   0  0  0  0  0  0
  -26.1181  -22.3804   19.4367 H   0  0  0  0  0  0
  -27.0833  -18.0925   23.7303 H   0  0  0  0  0  0
  -28.6959  -18.5200   24.2892 H   0  0  0  0  0  0
  -28.3433  -16.8670   23.7887 H   0  0  0  0  0  0
  -27.3539  -24.2641   20.2153 H   0  0  0  0  0  0
  -29.0682  -23.9914   20.0893 H   0  0  0  0  0  0
  -30.5749  -18.8241   21.5899 H   0  0  0  0  0  0
  -30.5350  -17.5671   22.7689 H   0  0  0  0  0  0
  -27.4481  -23.6869   22.6874 H   0  0  0  0  0  0
  -29.1745  -23.4734   22.5633 H   0  0  0  0  0  0
  -31.3317  -17.0027   20.4124 H   0  0  0  0  0  0
  -29.6992  -17.1682   19.8455 H   0  0  0  0  0  0
  -29.5328  -25.8934   21.5783 H   0  0  0  0  0  0
  -27.8535  -26.0654   21.9966 H   0  0  0  0  0  0
  -27.9357  -17.6503   21.4663 H   0  0  0  0  0  0
  -26.4113  -19.4328   20.7855 H   0  0  0  0  0  0
  -29.0819  -15.2674   21.4125 H   0  0  0  0  0  0
  1 25  1  0  0  0
  1 30  2  0  0  0
  1 84  1  0  0  0
  2  3  1  0  0  0
  2 25  1  0  0  0
  2 85  1  0  0  0
  2 86  1  0  0  0
  3  4  1  0  0  0
  3 87  1  0  0  0
  3 88  1  0  0  0
  4  5  1  0  0  0
  4 89  1  0  0  0
  4 90  1  0  0  0
  5  6  1  0  0  0
  5 26  1  0  0  0
  5 91  1  0  0  0
  6 25  1  0  0  0
  6 92  1  0  0  0
  6 93  1  0  0  0
  7  8  2  0  0  0
  7 26  1  0  0  0
  7 29  1  0  0  0
  8  9  1  0  0  0
  8 22  1  0  0  0
  9 10  1  0  0  0
  9 27  2  0  0  0
 10 11  2  0  0  0
 10 15  1  0  0  0
 11 12  1  0  0  0
 11 94  1  0  0  0
 12 13  2  0  0  0
 12 95  1  0  0  0
 13 14  1  0  0  0
 13 31  1  0  0  0
 14 15  2  0  0  0
 14 96  1  0  0  0
 15 97  1  0  0  0
 16 17  2  0  0  0
 16 21  1  0  0  0
 16 31  1  0  0  0
 17 18  1  0  0  0
 17 98  1  0  0  0
 18 19  2  0  0  0
 18 99  1  0  0  0
 19 20  1  0  0  0
 19 24  1  0  0  0
 20 21  2  0  0  0
 20100  1  0  0  0
 21 23  1  0  0  0
 22 28  1  0  0  0
 22 32  2  0  0  0
 26 27  1  0  0  0
 28101  1  0  0  0
 28102  1  0  0  0
 29103  1  0  0  0
 29104  1  0  0  0
 33 34  1  0  0  0
 33 66  1  0  0  0
 33 70  2  0  0  0
 34 36  1  0  0  0
 34 59  1  0  0  0
 34105  1  0  0  0
 35 44  2  0  0  0
 35 45  1  0  0  0
 35 68  1  0  0  0
 36 56  1  0  0  0
 36106  1  0  0  0
 37 39  1  0  0  0
 37 47  1  0  0  0
 37 66  1  0  0  0
 37107  1  0  0  0
 38 43  2  0  0  0
 38 46  1  0  0  0
 38 47  1  0  0  0
 39 64  1  0  0  0
 39 67  2  0  0  0
 40 52  1  0  0  0
 40 53  2  0  0  0
 40 58  1  0  0  0
 41108  1  0  0  0
 41109  1  0  0  0
 41110  1  0  0  0
 41 48  1  0  0  0
 42 43  1  0  0  0
 42 66  1  0  0  0
 42111  1  0  0  0
 42112  1  0  0  0
 43 44  1  0  0  0
 44113  1  0  0  0
 45 46  2  0  0  0
 45114  1  0  0  0
 46115  1  0  0  0
 47116  1  0  0  0
 47117  1  0  0  0
 48 56  1  0  0  0
 48 65  1  0  0  0
 48118  1  0  0  0
 49 50  1  0  0  0
 49 53  1  0  0  0
 49 64  1  0  0  0
 49119  1  0  0  0
 50 51  1  0  0  0
 50120  1  0  0  0
 50121  1  0  0  0
 51 52  1  0  0  0
 51122  1  0  0  0
 51123  1  0  0  0
 52124  1  0  0  0
 52125  1  0  0  0
 53 54  1  0  0  0
 54 55  2  0  0  0
 54126  1  0  0  0
 55 57  1  0  0  0
 55127  1  0  0  0
 56 69  2  0  0  0
 57 58  2  0  0  0
 57128  1  0  0  0
 58129  1  0  0  0
 59 60  1  0  0  0
 59 61  1  0  0  0
 59 62  1  0  0  0
 60130  1  0  0  0
 60131  1  0  0  0
 60132  1  0  0  0
 61133  1  0  0  0
 61134  1  0  0  0
 61135  1  0  0  0
 62136  1  0  0  0
 62137  1  0  0  0
 62138  1  0  0  0
 63 65  1  0  0  0
 63139  1  0  0  0
 63140  1  0  0  0
 63141  1  0  0  0
 64142  1  0  0  0
 65143  1  0  0  0
 68 80  1  0  0  0
 71 72  2  0  0  0
 71 82  1  0  0  0
 71144  1  0  0  0
 72 81  1  0  0  0
 72 83  1  0  0  0
 73 74  1  0  0  0
 73 82  1  0  0  0
 73 83  2  0  0  0
 74145  1  0  0  0
 74146  1  0  0  0
 74147  1  0  0  0
 75148  1  0  0  0
 75149  1  0  0  0
 75150  1  0  0  0
 75 81  1  0  0  0
 76 78  1  0  0  0
 76 80  1  0  0  0
 76151  1  0  0  0
 76152  1  0  0  0
 77 79  1  0  0  0
 77 81  1  0  0  0
 77153  1  0  0  0
 77154  1  0  0  0
 78 82  1  0  0  0
 78155  1  0  0  0
 78156  1  0  0  0
 79 84  1  0  0  0
 79157  1  0  0  0
 79158  1  0  0  0
 80159  1  0  0  0
 80160  1  0  0  0
 81161  1  0  0  0
 83162  1  0  0  0
 84163  1  0  0  0
M  CHG  1  83   1
M  ISO  4   1 100  68 101  80 101  84 100
M  END
> <chiral flag>
0

> <version>
0

> <s_m_source_file>
/data/baiqing/PycharmProjects/Reinvent-master-3.2/result/LINK_invent/BTK/process_docking_weight1_custom_sum_contain_oxygen_bond_distance_aromatic_linkinvent_7_9_3/rearranged_h_0079.sdf

> <i_m_source_file_index>
38

> <r_mmod_Potential_Energy-OPLS-2005>
-108.723457336426

> <r_mmod_Stretch_Energy-OPLS-2005>
35.0825576782227

> <r_mmod_Bend_Energy-OPLS-2005>
95.0917816162109

> <r_mmod_Torsional_Energy-OPLS-2005>
267.544738769531

> <r_mmod_Improper_Torsional_Energy-OPLS-2005>
6.3402624130249

> <r_mmod_Van_der_Waal_Energy-OPLS-2005>
123.334754943848

> <r_mmod_Electrostatic_Energy-OPLS-2005>
-221.140884399414

> <r_mmod_Solvation_Energy-OPLS-2005>
-425.596069335938

> <b_mmod_Minimization_Converged-OPLS-2005>
0

> <r_mmod_RMS_Derivative-OPLS-2005>
2.20680403709412

$$$$
38
                    3D
 Structure written by MMmdl.
173181  0  0  1  0            999 V2000
  -30.7805  -14.3616   20.6836 C   0  0  0  0  0  0
  -30.4169  -12.2879   19.4018 C   0  0  0  0  0  0
  -29.4909  -12.5349   18.1983 C   0  0  0  0  0  0
  -28.0104  -12.3975   18.6049 C   0  0  0  0  0  0
  -27.6669  -13.2108   19.8829 C   0  0  2  0  0  0
  -28.7052  -12.9551   20.9980 C   0  0  0  0  0  0
  -25.2611  -13.8203   20.5724 C   0  0  0  0  0  0
  -24.1860  -13.0465   20.9189 C   0  0  0  0  0  0
  -24.6416  -11.6930   20.8723 C   0  0  0  0  0  0
  -23.9080  -10.4314   21.0396 C   0  0  0  0  0  0
  -24.3625   -9.4231   21.9181 C   0  0  0  0  0  0
  -23.6306   -8.2260   22.0754 C   0  0  0  0  0  0
  -22.4286   -8.0291   21.3541 C   0  0  0  0  0  0
  -21.9915   -9.0260   20.4641 C   0  0  0  0  0  0
  -22.7245  -10.2147   20.3055 C   0  0  0  0  0  0
  -21.6851   -6.0746   22.5276 C   0  0  0  0  0  0
  -21.4006   -6.5637   23.8219 C   0  0  0  0  0  0
  -21.3667   -5.6786   24.9169 C   0  0  0  0  0  0
  -21.6054   -4.3054   24.7215 C   0  0  0  0  0  0
  -21.8820   -3.8149   23.4331 C   0  0  0  0  0  0
  -21.9192   -4.6968   22.3383 C   0  0  0  0  0  0
  -22.7879  -13.5249   21.1820 C   0  0  0  0  0  0
  -22.1658   -4.2158   21.0963 F   0  0  0  0  0  0
  -21.5635   -3.4532   25.7726 F   0  0  0  0  0  0
  -30.0501  -13.2398   20.4603 N   0  0  0  0  0  0
  -26.3055  -12.9377   20.3394 N   0  0  0  0  0  0
  -25.9343  -11.6522   20.5749 N   0  0  0  0  0  0
  -22.0494  -12.8261   22.0384 N   0  0  0  0  0  0
  -25.4342  -15.1930   20.4146 N   0  0  0  0  0  0
  -31.8192  -14.6260   20.0709 O   0  0  0  0  0  0
  -21.6645   -6.8892   21.4242 O   0  0  0  0  0  0
  -22.3559  -14.5540   20.6657 O   0  0  0  0  0  0
  -24.6176  -31.8669   23.2177 C   0  0  0  0  0  0
  -25.9080  -32.4821   23.8428 C   0  0  1  0  0  0
  -27.2221  -27.4418   20.0730 C   0  0  0  0  0  0
  -25.5971  -33.8628   24.2370 N   0  0  0  0  0  0
  -23.4003  -30.4992   21.5584 C   0  0  2  0  0  0
  -24.8371  -28.9699   20.1147 C   0  0  0  0  0  0
  -22.7405  -29.4673   22.5028 C   0  0  0  0  0  0
  -18.0276  -28.1363   22.8489 C   0  0  0  0  0  0
  -24.1483  -36.7286   23.2641 C   0  0  0  0  0  0
  -25.9308  -30.8349   21.3676 C   0  0  0  0  0  0
  -26.0013  -29.4750   20.7050 C   0  0  0  0  0  0
  -27.1958  -28.7184   20.6785 C   0  0  0  0  0  0
  -26.0330  -26.9560   19.4737 C   0  0  0  0  0  0
  -24.8485  -27.7111   19.4962 C   0  0  0  0  0  0
  -23.6022  -29.8383   20.1698 C   0  0  0  0  0  0
  -25.4115  -36.3116   24.0350 C   0  0  1  0  0  0
  -20.5862  -28.3642   23.1312 C   0  0  2  0  0  0
  -20.6760  -26.9379   22.5396 C   0  0  0  0  0  0
  -19.5747  -26.6368   21.5186 C   0  0  0  0  0  0
  -18.1919  -26.7921   22.1588 C   0  0  0  0  0  0
  -19.1523  -28.8826   23.2896 C   0  0  0  0  0  0
  -18.9452  -30.1438   23.8901 C   0  0  0  0  0  0
  -17.6451  -30.6575   24.0547 C   0  0  0  0  0  0
  -25.9037  -34.9474   23.5133 C   0  0  0  0  0  0
  -16.5342  -29.9056   23.6341 C   0  0  0  0  0  0
  -16.7258  -28.6468   23.0365 C   0  0  0  0  0  0
  -26.4523  -31.6616   25.0749 C   0  0  0  0  0  0
  -25.3803  -31.3683   26.1496 C   0  0  0  0  0  0
  -27.0369  -30.3086   24.6093 C   0  0  0  0  0  0
  -27.6123  -32.4325   25.7479 C   0  0  0  0  0  0
  -27.5582  -37.1809   24.8479 C   0  0  0  0  0  0
  -21.4139  -29.3040   22.3749 N   0  0  0  0  0  0
  -26.4307  -37.3799   23.9419 N   0  0  0  0  0  0
  -24.6682  -31.0787   22.1071 N   0  0  0  0  0  0
  -23.4185  -28.8192   23.3035 O   0  0  0  0  0  0
  -28.4059  -26.7256   20.0936 O   0  0  0  0  0  0
  -26.5532  -34.8918   22.4652 O   0  0  0  0  0  0
  -23.5383  -32.1402   23.7618 O   0  0  0  0  0  0
  -30.3971  -22.5427   20.8081 C   0  0  0  0  0  0
  -28.8092  -20.7466   21.0498 C   0  0  0  0  0  0
  -29.0673  -22.1300   21.0318 C   0  0  0  0  0  0
  -31.3908  -21.5652   20.6128 C   0  0  0  0  0  0
  -29.8619  -19.8315   20.8586 C   0  0  0  0  0  0
  -32.8323  -21.9711   20.3971 C   0  0  0  0  0  0
  -30.0249  -17.6453   19.6150 C   0  0  0  0  0  0
  -27.1009  -25.2520   22.2788 C   0  0  0  0  0  0
  -30.7090  -18.5695   23.2798 C   0  0  0  0  0  0
  -28.7155  -17.1359   23.0248 C   0  0  0  0  0  0
  -27.9045  -23.0872   21.2794 C   0  0  0  0  0  0
  -30.9591  -16.3902   22.1262 C   0  0  0  0  0  0
  -28.3637  -25.2888   20.0315 C   0  0  0  0  0  0
  -29.5909  -18.3203   20.9334 C   0  0  1  0  0  0
  -28.2062  -24.6040   21.4182 C   0  0  1  0  0  0
  -29.9997  -17.6060   22.2971 C   0  0  0  0  0  0
  -31.1323  -20.2393   20.6290 N   0  0  0  0  0  0
  -30.3080  -15.1730   21.6357 N   0  0  0  0  0  0
  -31.4638  -12.3760   19.1031 H   0  0  0  0  0  0
  -30.2998  -11.2664   19.7678 H   0  0  0  0  0  0
  -29.7299  -11.8408   17.3910 H   0  0  0  0  0  0
  -29.6681  -13.5366   17.8033 H   0  0  0  0  0  0
  -27.8049  -11.3394   18.7675 H   0  0  0  0  0  0
  -27.3669  -12.7103   17.7810 H   0  0  0  0  0  0
  -27.7236  -14.2659   19.6145 H   0  0  0  0  0  0
  -28.6685  -11.9131   21.3160 H   0  0  0  0  0  0
  -28.4565  -13.5334   21.8887 H   0  0  0  0  0  0
  -25.2775   -9.5705   22.4748 H   0  0  0  0  0  0
  -24.0018   -7.4649   22.7468 H   0  0  0  0  0  0
  -21.0849   -8.8781   19.8939 H   0  0  0  0  0  0
  -22.3711  -10.9681   19.6156 H   0  0  0  0  0  0
  -21.1989   -7.6147   23.9728 H   0  0  0  0  0  0
  -21.1492   -6.0509   25.9088 H   0  0  0  0  0  0
  -22.0593   -2.7612   23.2820 H   0  0  0  0  0  0
  -22.4064  -11.9916   22.4800 H   0  0  0  0  0  0
  -21.1111  -13.1311   22.2531 H   0  0  0  0  0  0
  -24.6714  -15.8514   20.5309 H   0  0  0  0  0  0
  -26.2941  -15.6318   20.1105 H   0  0  0  0  0  0
  -26.7132  -32.5498   23.1178 H   0  0  0  0  0  0
  -25.0383  -33.9789   25.0690 H   0  0  0  0  0  0
  -22.6915  -31.3199   21.4299 H   0  0  0  0  0  0
  -23.3769  -35.9596   23.3342 H   0  0  0  0  0  0
  -24.3606  -36.8833   22.2048 H   0  0  0  0  0  0
  -23.7178  -37.6490   23.6600 H   0  0  0  0  0  0
  -26.0492  -31.6094   20.6078 H   0  0  0  0  0  0
  -26.8179  -30.8759   21.9873 H   0  0  0  0  0  0
  -28.0951  -29.1078   21.1359 H   0  0  0  0  0  0
  -25.9785  -26.0068   18.9652 H   0  0  0  0  0  0
  -23.9530  -27.3260   19.0280 H   0  0  0  0  0  0
  -23.7070  -30.6165   19.4129 H   0  0  0  0  0  0
  -22.7222  -29.2647   19.8731 H   0  0  0  0  0  0
  -25.1289  -36.2007   25.0844 H   0  0  0  0  0  0
  -20.9953  -28.3157   24.1425 H   0  0  0  0  0  0
  -20.5655  -26.2220   23.3560 H   0  0  0  0  0  0
  -21.6625  -26.7401   22.1191 H   0  0  0  0  0  0
  -19.6885  -25.6271   21.1213 H   0  0  0  0  0  0
  -19.6703  -27.3173   20.6714 H   0  0  0  0  0  0
  -17.4191  -26.6705   21.3975 H   0  0  0  0  0  0
  -18.0310  -26.0037   22.8955 H   0  0  0  0  0  0
  -19.7930  -30.7257   24.2252 H   0  0  0  0  0  0
  -17.5000  -31.6265   24.5121 H   0  0  0  0  0  0
  -15.5339  -30.2942   23.7687 H   0  0  0  0  0  0
  -15.8656  -28.0774   22.7095 H   0  0  0  0  0  0
  -24.6007  -30.6988   25.7832 H   0  0  0  0  0  0
  -24.8958  -32.2809   26.4967 H   0  0  0  0  0  0
  -25.8184  -30.8845   27.0232 H   0  0  0  0  0  0
  -26.2880  -29.6806   24.1243 H   0  0  0  0  0  0
  -27.4288  -29.7363   25.4512 H   0  0  0  0  0  0
  -27.8658  -30.4477   23.9150 H   0  0  0  0  0  0
  -27.2799  -33.3652   26.2053 H   0  0  0  0  0  0
  -28.3929  -32.6832   25.0280 H   0  0  0  0  0  0
  -28.0792  -31.8434   26.5379 H   0  0  0  0  0  0
  -28.2635  -38.0080   24.7542 H   0  0  0  0  0  0
  -28.1037  -36.2615   24.6307 H   0  0  0  0  0  0
  -27.2297  -37.1456   25.8881 H   0  0  0  0  0  0
  -20.9277  -29.8770   21.6998 H   0  0  0  0  0  0
  -26.0201  -38.2876   24.1436 H   0  0  0  0  0  0
  -30.6730  -23.5863   20.7941 H   0  0  0  0  0  0
  -27.8038  -20.3871   21.2313 H   0  0  0  0  0  0
  -32.8911  -22.8748   19.7901 H   0  0  0  0  0  0
  -33.3950  -21.1883   19.8891 H   0  0  0  0  0  0
  -33.3129  -22.1747   21.3529 H   0  0  0  0  0  0
  -29.6308  -18.1958   18.7608 H   0  0  0  0  0  0
  -29.6388  -16.6324   19.5279 H   0  0  0  0  0  0
  -31.1094  -17.6178   19.5034 H   0  0  0  0  0  0
  -26.9661  -24.7310   23.2262 H   0  0  0  0  0  0
  -26.1389  -25.2561   21.7661 H   0  0  0  0  0  0
  -27.3506  -26.2809   22.5333 H   0  0  0  0  0  0
  -30.9337  -18.0848   24.2306 H   0  0  0  0  0  0
  -30.0978  -19.4418   23.5126 H   0  0  0  0  0  0
  -31.6597  -18.9246   22.8808 H   0  0  0  0  0  0
  -28.9482  -16.6170   23.9564 H   0  0  0  0  0  0
  -28.1150  -16.4618   22.4137 H   0  0  0  0  0  0
  -28.0737  -17.9815   23.2794 H   0  0  0  0  0  0
  -27.4484  -22.7371   22.2070 H   0  0  0  0  0  0
  -27.1483  -22.9246   20.5088 H   0  0  0  0  0  0
  -31.3840  -16.1134   23.0928 H   0  0  0  0  0  0
  -31.8209  -16.6735   21.5185 H   0  0  0  0  0  0
  -27.6295  -24.9056   19.3281 H   0  0  0  0  0  0
  -29.3115  -24.9769   19.5935 H   0  0  0  0  0  0
  -28.5042  -18.2489   20.8799 H   0  0  0  0  0  0
  -29.1264  -24.7351   21.9883 H   0  0  0  0  0  0
  -29.4546  -14.8911   22.0939 H   0  0  0  0  0  0
  1 25  1  0  0  0
  1 30  2  0  0  0
  1 88  1  0  0  0
  2  3  1  0  0  0
  2 25  1  0  0  0
  2 89  1  0  0  0
  2 90  1  0  0  0
  3  4  1  0  0  0
  3 91  1  0  0  0
  3 92  1  0  0  0
  4  5  1  0  0  0
  4 93  1  0  0  0
  4 94  1  0  0  0
  5  6  1  0  0  0
  5 26  1  0  0  0
  5 95  1  0  0  0
  6 25  1  0  0  0
  6 96  1  0  0  0
  6 97  1  0  0  0
  7  8  2  0  0  0
  7 26  1  0  0  0
  7 29  1  0  0  0
  8  9  1  0  0  0
  8 22  1  0  0  0
  9 10  1  0  0  0
  9 27  2  0  0  0
 10 11  2  0  0  0
 10 15  1  0  0  0
 11 12  1  0  0  0
 11 98  1  0  0  0
 12 13  2  0  0  0
 12 99  1  0  0  0
 13 14  1  0  0  0
 13 31  1  0  0  0
 14 15  2  0  0  0
 14100  1  0  0  0
 15101  1  0  0  0
 16 17  2  0  0  0
 16 21  1  0  0  0
 16 31  1  0  0  0
 17 18  1  0  0  0
 17102  1  0  0  0
 18 19  2  0  0  0
 18103  1  0  0  0
 19 20  1  0  0  0
 19 24  1  0  0  0
 20 21  2  0  0  0
 20104  1  0  0  0
 21 23  1  0  0  0
 22 28  1  0  0  0
 22 32  2  0  0  0
 26 27  1  0  0  0
 28105  1  0  0  0
 28106  1  0  0  0
 29107  1  0  0  0
 29108  1  0  0  0
 33 34  1  0  0  0
 33 66  1  0  0  0
 33 70  2  0  0  0
 34 36  1  0  0  0
 34 59  1  0  0  0
 34109  1  0  0  0
 35 44  2  0  0  0
 35 45  1  0  0  0
 35 68  1  0  0  0
 36 56  1  0  0  0
 36110  1  0  0  0
 37 39  1  0  0  0
 37 47  1  0  0  0
 37 66  1  0  0  0
 37111  1  0  0  0
 38 43  2  0  0  0
 38 46  1  0  0  0
 38 47  1  0  0  0
 39 64  1  0  0  0
 39 67  2  0  0  0
 40 52  1  0  0  0
 40 53  2  0  0  0
 40 58  1  0  0  0
 41112  1  0  0  0
 41113  1  0  0  0
 41114  1  0  0  0
 41 48  1  0  0  0
 42 43  1  0  0  0
 42 66  1  0  0  0
 42115  1  0  0  0
 42116  1  0  0  0
 43 44  1  0  0  0
 44117  1  0  0  0
 45 46  2  0  0  0
 45118  1  0  0  0
 46119  1  0  0  0
 47120  1  0  0  0
 47121  1  0  0  0
 48 56  1  0  0  0
 48 65  1  0  0  0
 48122  1  0  0  0
 49 50  1  0  0  0
 49 53  1  0  0  0
 49 64  1  0  0  0
 49123  1  0  0  0
 50 51  1  0  0  0
 50124  1  0  0  0
 50125  1  0  0  0
 51 52  1  0  0  0
 51126  1  0  0  0
 51127  1  0  0  0
 52128  1  0  0  0
 52129  1  0  0  0
 53 54  1  0  0  0
 54 55  2  0  0  0
 54130  1  0  0  0
 55 57  1  0  0  0
 55131  1  0  0  0
 56 69  2  0  0  0
 57 58  2  0  0  0
 57132  1  0  0  0
 58133  1  0  0  0
 59 60  1  0  0  0
 59 61  1  0  0  0
 59 62  1  0  0  0
 60134  1  0  0  0
 60135  1  0  0  0
 60136  1  0  0  0
 61137  1  0  0  0
 61138  1  0  0  0
 61139  1  0  0  0
 62140  1  0  0  0
 62141  1  0  0  0
 62142  1  0  0  0
 63 65  1  0  0  0
 63143  1  0  0  0
 63144  1  0  0  0
 63145  1  0  0  0
 64146  1  0  0  0
 65147  1  0  0  0
 68 83  1  0  0  0
 71 73  2  0  0  0
 71 74  1  0  0  0
 71148  1  0  0  0
 72 73  1  0  0  0
 72 75  2  0  0  0
 72149  1  0  0  0
 73 81  1  0  0  0
 74 76  1  0  0  0
 74 87  2  0  0  0
 75 84  1  0  0  0
 75 87  1  0  0  0
 76150  1  0  0  0
 76151  1  0  0  0
 76152  1  0  0  0
 77153  1  0  0  0
 77154  1  0  0  0
 77155  1  0  0  0
 77 84  1  0  0  0
 78156  1  0  0  0
 78157  1  0  0  0
 78158  1  0  0  0
 78 85  1  0  0  0
 79159  1  0  0  0
 79160  1  0  0  0
 79161  1  0  0  0
 79 86  1  0  0  0
 80 86  1  0  0  0
 80162  1  0  0  0
 80163  1  0  0  0
 80164  1  0  0  0
 81 85  1  0  0  0
 81165  1  0  0  0
 81166  1  0  0  0
 82 86  1  0  0  0
 82 88  1  0  0  0
 82167  1  0  0  0
 82168  1  0  0  0
 83 85  1  0  0  0
 83169  1  0  0  0
 83170  1  0  0  0
 84 86  1  0  0  0
 84171  1  0  0  0
 85172  1  0  0  0
 88173  1  0  0  0
M  ISO  4   1 100  68 101  83 101  88 100
M  END
> <chiral flag>
0

> <version>
0

> <s_m_source_file>
/data/baiqing/PycharmProjects/Reinvent-master-3.2/result/LINK_invent/BTK/process_docking_weight1_custom_sum_contain_oxygen_bond_distance_aromatic_linkinvent_7_9_3/rearranged_h_0079.sdf

> <i_m_source_file_index>
39

> <r_mmod_Potential_Energy-OPLS-2005>
-197.522689819336

> <r_mmod_Stretch_Energy-OPLS-2005>
42.1200790405273

> <r_mmod_Bend_Energy-OPLS-2005>
125.235717773438

> <r_mmod_Torsional_Energy-OPLS-2005>
203.989349365234

> <r_mmod_Improper_Torsional_Energy-OPLS-2005>
1.65909314155579

> <r_mmod_Van_der_Waal_Energy-OPLS-2005>
171.616683959961

> <r_mmod_Electrostatic_Energy-OPLS-2005>
-547.513427734375

> <r_mmod_Solvation_Energy-OPLS-2005>
-203.674224853516

> <b_mmod_Minimization_Converged-OPLS-2005>
0

> <r_mmod_RMS_Derivative-OPLS-2005>
2.87244153022766

$$$$
39
                    3D
 Structure written by MMmdl.
164172  0  0  1  0            999 V2000
  -30.6916  -14.5149   20.5562 C   0  0  0  0  0  0
  -30.4480  -12.3490   19.4017 C   0  0  0  0  0  0
  -29.5179  -12.5362   18.1873 C   0  0  0  0  0  0
  -28.0359  -12.3876   18.5929 C   0  0  0  0  0  0
  -27.6683  -13.2123   19.8592 C   0  0  2  0  0  0
  -28.7132  -13.0027   20.9778 C   0  0  0  0  0  0
  -25.2630  -13.8131   20.5584 C   0  0  0  0  0  0
  -24.1880  -13.0396   20.9137 C   0  0  0  0  0  0
  -24.6452  -11.6886   20.8626 C   0  0  0  0  0  0
  -23.9092  -10.4268   21.0321 C   0  0  0  0  0  0
  -24.3637   -9.4189   21.9123 C   0  0  0  0  0  0
  -23.6289   -8.2232   22.0727 C   0  0  0  0  0  0
  -22.4277   -8.0271   21.3537 C   0  0  0  0  0  0
  -21.9907   -9.0225   20.4634 C   0  0  0  0  0  0
  -22.7234  -10.2103   20.3003 C   0  0  0  0  0  0
  -21.6866   -6.0726   22.5265 C   0  0  0  0  0  0
  -21.4013   -6.5620   23.8202 C   0  0  0  0  0  0
  -21.3664   -5.6778   24.9165 C   0  0  0  0  0  0
  -21.6045   -4.3036   24.7219 C   0  0  0  0  0  0
  -21.8841   -3.8136   23.4335 C   0  0  0  0  0  0
  -21.9195   -4.6950   22.3391 C   0  0  0  0  0  0
  -22.7912  -13.5204   21.1829 C   0  0  0  0  0  0
  -22.1679   -4.2128   21.0966 F   0  0  0  0  0  0
  -21.5631   -3.4525   25.7735 F   0  0  0  0  0  0
  -30.0377  -13.3263   20.4215 N   0  0  0  0  0  0
  -26.3091  -12.9315   20.3233 N   0  0  0  0  0  0
  -25.9376  -11.6470   20.5594 N   0  0  0  0  0  0
  -22.0567  -12.8152   22.0392 N   0  0  0  0  0  0
  -25.4255  -15.1837   20.4062 N   0  0  0  0  0  0
  -31.8441  -14.6955   20.1609 O   0  0  0  0  0  0
  -21.6655   -6.8859   21.4237 O   0  0  0  0  0  0
  -22.3578  -14.5511   20.6723 O   0  0  0  0  0  0
  -24.6114  -31.8637   23.2019 C   0  0  0  0  0  0
  -25.8970  -32.4778   23.8334 C   0  0  1  0  0  0
  -27.2749  -27.4344   20.1424 C   0  0  0  0  0  0
  -25.5834  -33.8583   24.2302 N   0  0  0  0  0  0
  -23.4113  -30.4768   21.5406 C   0  0  2  0  0  0
  -24.8780  -28.9413   20.1148 C   0  0  0  0  0  0
  -22.7431  -29.4608   22.4984 C   0  0  0  0  0  0
  -18.0278  -28.1350   22.8486 C   0  0  0  0  0  0
  -24.1505  -36.7305   23.2650 C   0  0  0  0  0  0
  -25.9381  -30.8334   21.3598 C   0  0  0  0  0  0
  -26.0295  -29.4633   20.7169 C   0  0  0  0  0  0
  -27.2334  -28.7208   20.7273 C   0  0  0  0  0  0
  -26.1151  -26.9318   19.5149 C   0  0  0  0  0  0
  -24.9147  -27.6739   19.5081 C   0  0  0  0  0  0
  -23.6249  -29.7920   20.1627 C   0  0  0  0  0  0
  -25.4081  -36.3056   24.0360 C   0  0  1  0  0  0
  -20.5863  -28.3645   23.1329 C   0  0  2  0  0  0
  -20.6774  -26.9395   22.5405 C   0  0  0  0  0  0
  -19.5768  -26.6375   21.5196 C   0  0  0  0  0  0
  -18.1930  -26.7887   22.1603 C   0  0  0  0  0  0
  -19.1511  -28.8827   23.2912 C   0  0  0  0  0  0
  -18.9426  -30.1432   23.8931 C   0  0  0  0  0  0
  -17.6428  -30.6580   24.0556 C   0  0  0  0  0  0
  -25.8974  -34.9432   23.5102 C   0  0  0  0  0  0
  -16.5315  -29.9032   23.6381 C   0  0  0  0  0  0
  -16.7252  -28.6456   23.0381 C   0  0  0  0  0  0
  -26.4431  -31.6538   25.0640 C   0  0  0  0  0  0
  -25.3694  -31.3558   26.1401 C   0  0  0  0  0  0
  -27.0276  -30.2994   24.5944 C   0  0  0  0  0  0
  -27.6042  -32.4218   25.7388 C   0  0  0  0  0  0
  -27.5624  -37.1731   24.8434 C   0  0  0  0  0  0
  -21.4157  -29.3016   22.3758 N   0  0  0  0  0  0
  -26.4257  -37.3738   23.9465 N   0  0  0  0  0  0
  -24.6713  -31.0688   22.0952 N   0  0  0  0  0  0
  -23.4178  -28.8199   23.3076 O   0  0  0  0  0  0
  -28.4059  -26.6408   20.1827 O   0  0  0  0  0  0
  -26.5579  -34.8880   22.4688 O   0  0  0  0  0  0
  -23.5300  -32.1402   23.7385 O   0  0  0  0  0  0
  -29.1717  -20.2933   19.9574 C   0  0  0  0  0  0
  -29.0841  -21.6254   20.3865 C   0  0  0  0  0  0
  -30.8287  -19.9350   21.6721 C   0  0  0  0  0  0
  -30.0507  -19.4076   20.6135 C   0  0  0  0  0  0
  -29.9162  -22.0809   21.4281 C   0  0  0  0  0  0
  -31.0977  -17.7960   18.9739 C   0  0  0  0  0  0
  -27.3887  -25.5077   22.1682 C   0  0  0  0  0  0
  -29.6390  -26.7877   22.2717 C   0  0  0  0  0  0
  -29.7964  -23.5129   21.9759 C   0  0  0  0  0  0
  -29.4841  -24.6348   20.9271 C   0  0  0  0  0  0
  -30.3535  -16.9230   21.3022 C   0  0  0  0  0  0
  -30.1019  -17.9412   20.1447 C   0  0  1  0  0  0
  -28.7045  -25.9024   21.4094 C   0  0  0  0  0  0
  -30.7711  -21.2367   22.0613 N   0  0  0  0  0  0
  -29.9404  -15.5365   21.0147 N   0  0  0  0  0  0
  -31.4865  -12.4860   19.0898 H   0  0  0  0  0  0
  -30.3814  -11.3323   19.7913 H   0  0  0  0  0  0
  -29.7700  -11.8172   17.4062 H   0  0  0  0  0  0
  -29.6889  -13.5221   17.7471 H   0  0  0  0  0  0
  -27.8464  -11.3284   18.7669 H   0  0  0  0  0  0
  -27.3954  -12.6814   17.7580 H   0  0  0  0  0  0
  -27.7051  -14.2635   19.5711 H   0  0  0  0  0  0
  -28.7021  -11.9686   21.3266 H   0  0  0  0  0  0
  -28.4715  -13.6105   21.8514 H   0  0  0  0  0  0
  -25.2813   -9.5674   22.4657 H   0  0  0  0  0  0
  -24.0014   -7.4649   22.7456 H   0  0  0  0  0  0
  -21.0832   -8.8744   19.8946 H   0  0  0  0  0  0
  -22.3688  -10.9632   19.6089 H   0  0  0  0  0  0
  -21.2015   -7.6130   23.9696 H   0  0  0  0  0  0
  -21.1465   -6.0506   25.9071 H   0  0  0  0  0  0
  -22.0619   -2.7593   23.2845 H   0  0  0  0  0  0
  -22.4240  -11.9830   22.4766 H   0  0  0  0  0  0
  -21.1176  -13.1133   22.2601 H   0  0  0  0  0  0
  -24.6400  -15.8185   20.5008 H   0  0  0  0  0  0
  -26.2683  -15.6433   20.0825 H   0  0  0  0  0  0
  -26.7069  -32.5646   23.1152 H   0  0  0  0  0  0
  -25.0012  -33.9728   25.0483 H   0  0  0  0  0  0
  -22.7004  -31.2938   21.3873 H   0  0  0  0  0  0
  -23.3706  -35.9702   23.3202 H   0  0  0  0  0  0
  -24.3669  -36.9021   22.2102 H   0  0  0  0  0  0
  -23.7273  -37.6476   23.6744 H   0  0  0  0  0  0
  -26.0420  -31.5846   20.5716 H   0  0  0  0  0  0
  -26.8240  -30.9007   21.9758 H   0  0  0  0  0  0
  -28.1196  -29.1216   21.1975 H   0  0  0  0  0  0
  -26.1318  -25.9515   19.0583 H   0  0  0  0  0  0
  -24.0279  -27.2591   19.0456 H   0  0  0  0  0  0
  -23.7097  -30.5472   19.3816 H   0  0  0  0  0  0
  -22.7644  -29.1756   19.8965 H   0  0  0  0  0  0
  -25.1183  -36.1893   25.0818 H   0  0  0  0  0  0
  -20.9992  -28.3234   24.1435 H   0  0  0  0  0  0
  -20.5740  -26.2215   23.3536 H   0  0  0  0  0  0
  -21.6655  -26.7495   22.1223 H   0  0  0  0  0  0
  -19.6939  -25.6275   21.1225 H   0  0  0  0  0  0
  -19.6769  -27.3204   20.6715 H   0  0  0  0  0  0
  -17.4258  -26.6709   21.3931 H   0  0  0  0  0  0
  -18.0311  -25.9975   22.8937 H   0  0  0  0  0  0
  -19.7926  -30.7201   24.2339 H   0  0  0  0  0  0
  -17.4995  -31.6286   24.5089 H   0  0  0  0  0  0
  -15.5311  -30.2912   23.7701 H   0  0  0  0  0  0
  -15.8650  -28.0749   22.7086 H   0  0  0  0  0  0
  -24.6015  -30.6701   25.7774 H   0  0  0  0  0  0
  -24.8662  -32.2620   26.4749 H   0  0  0  0  0  0
  -25.8066  -30.8906   27.0235 H   0  0  0  0  0  0
  -26.2763  -29.6632   24.1246 H   0  0  0  0  0  0
  -27.4354  -29.7314   25.4307 H   0  0  0  0  0  0
  -27.8442  -30.4294   23.8848 H   0  0  0  0  0  0
  -27.2806  -33.3701   26.1650 H   0  0  0  0  0  0
  -28.3999  -32.6367   25.0256 H   0  0  0  0  0  0
  -28.0431  -31.8431   26.5534 H   0  0  0  0  0  0
  -28.2443  -38.0232   24.7731 H   0  0  0  0  0  0
  -28.1325  -36.2753   24.5904 H   0  0  0  0  0  0
  -27.2418  -37.0942   25.8851 H   0  0  0  0  0  0
  -20.9317  -29.8683   21.6937 H   0  0  0  0  0  0
  -26.0124  -38.2776   24.1574 H   0  0  0  0  0  0
  -28.5507  -19.9648   19.1370 H   0  0  0  0  0  0
  -28.3516  -22.2626   19.9159 H   0  0  0  0  0  0
  -31.5144  -19.3061   22.2265 H   0  0  0  0  0  0
  -30.9072  -18.5290   18.1878 H   0  0  0  0  0  0
  -31.0303  -16.8112   18.5075 H   0  0  0  0  0  0
  -32.1277  -17.9399   19.3015 H   0  0  0  0  0  0
  -27.5577  -24.9812   23.1049 H   0  0  0  0  0  0
  -26.7382  -24.8686   21.5621 H   0  0  0  0  0  0
  -26.7990  -26.3817   22.4552 H   0  0  0  0  0  0
  -30.0823  -26.2449   23.1087 H   0  0  0  0  0  0
  -29.1148  -27.6388   22.7008 H   0  0  0  0  0  0
  -30.4702  -27.1660   21.6698 H   0  0  0  0  0  0
  -30.6938  -23.7728   22.5383 H   0  0  0  0  0  0
  -29.0032  -23.4494   22.7138 H   0  0  0  0  0  0
  -28.8850  -24.2297   20.1178 H   0  0  0  0  0  0
  -30.4206  -24.9328   20.4454 H   0  0  0  0  0  0
  -29.7527  -17.2206   22.1652 H   0  0  0  0  0  0
  -31.3932  -16.9587   21.6373 H   0  0  0  0  0  0
  -29.1094  -17.7309   19.7356 H   0  0  0  0  0  0
  -28.9797  -15.3089   21.2271 H   0  0  0  0  0  0
  1 25  1  0  0  0
  1 30  2  0  0  0
  1 85  1  0  0  0
  2  3  1  0  0  0
  2 25  1  0  0  0
  2 86  1  0  0  0
  2 87  1  0  0  0
  3  4  1  0  0  0
  3 88  1  0  0  0
  3 89  1  0  0  0
  4  5  1  0  0  0
  4 90  1  0  0  0
  4 91  1  0  0  0
  5  6  1  0  0  0
  5 26  1  0  0  0
  5 92  1  0  0  0
  6 25  1  0  0  0
  6 93  1  0  0  0
  6 94  1  0  0  0
  7  8  2  0  0  0
  7 26  1  0  0  0
  7 29  1  0  0  0
  8  9  1  0  0  0
  8 22  1  0  0  0
  9 10  1  0  0  0
  9 27  2  0  0  0
 10 11  2  0  0  0
 10 15  1  0  0  0
 11 12  1  0  0  0
 11 95  1  0  0  0
 12 13  2  0  0  0
 12 96  1  0  0  0
 13 14  1  0  0  0
 13 31  1  0  0  0
 14 15  2  0  0  0
 14 97  1  0  0  0
 15 98  1  0  0  0
 16 17  2  0  0  0
 16 21  1  0  0  0
 16 31  1  0  0  0
 17 18  1  0  0  0
 17 99  1  0  0  0
 18 19  2  0  0  0
 18100  1  0  0  0
 19 20  1  0  0  0
 19 24  1  0  0  0
 20 21  2  0  0  0
 20101  1  0  0  0
 21 23  1  0  0  0
 22 28  1  0  0  0
 22 32  2  0  0  0
 26 27  1  0  0  0
 28102  1  0  0  0
 28103  1  0  0  0
 29104  1  0  0  0
 29105  1  0  0  0
 33 34  1  0  0  0
 33 66  1  0  0  0
 33 70  2  0  0  0
 34 36  1  0  0  0
 34 59  1  0  0  0
 34106  1  0  0  0
 35 44  2  0  0  0
 35 45  1  0  0  0
 35 68  1  0  0  0
 36 56  1  0  0  0
 36107  1  0  0  0
 37 39  1  0  0  0
 37 47  1  0  0  0
 37 66  1  0  0  0
 37108  1  0  0  0
 38 43  2  0  0  0
 38 46  1  0  0  0
 38 47  1  0  0  0
 39 64  1  0  0  0
 39 67  2  0  0  0
 40 52  1  0  0  0
 40 53  2  0  0  0
 40 58  1  0  0  0
 41109  1  0  0  0
 41110  1  0  0  0
 41111  1  0  0  0
 41 48  1  0  0  0
 42 43  1  0  0  0
 42 66  1  0  0  0
 42112  1  0  0  0
 42113  1  0  0  0
 43 44  1  0  0  0
 44114  1  0  0  0
 45 46  2  0  0  0
 45115  1  0  0  0
 46116  1  0  0  0
 47117  1  0  0  0
 47118  1  0  0  0
 48 56  1  0  0  0
 48 65  1  0  0  0
 48119  1  0  0  0
 49 50  1  0  0  0
 49 53  1  0  0  0
 49 64  1  0  0  0
 49120  1  0  0  0
 50 51  1  0  0  0
 50121  1  0  0  0
 50122  1  0  0  0
 51 52  1  0  0  0
 51123  1  0  0  0
 51124  1  0  0  0
 52125  1  0  0  0
 52126  1  0  0  0
 53 54  1  0  0  0
 54 55  2  0  0  0
 54127  1  0  0  0
 55 57  1  0  0  0
 55128  1  0  0  0
 56 69  2  0  0  0
 57 58  2  0  0  0
 57129  1  0  0  0
 58130  1  0  0  0
 59 60  1  0  0  0
 59 61  1  0  0  0
 59 62  1  0  0  0
 60131  1  0  0  0
 60132  1  0  0  0
 60133  1  0  0  0
 61134  1  0  0  0
 61135  1  0  0  0
 61136  1  0  0  0
 62137  1  0  0  0
 62138  1  0  0  0
 62139  1  0  0  0
 63 65  1  0  0  0
 63140  1  0  0  0
 63141  1  0  0  0
 63142  1  0  0  0
 64143  1  0  0  0
 65144  1  0  0  0
 68 83  1  0  0  0
 71 72  2  0  0  0
 71 74  1  0  0  0
 71145  1  0  0  0
 72 75  1  0  0  0
 72146  1  0  0  0
 73 74  2  0  0  0
 73 84  1  0  0  0
 73147  1  0  0  0
 74 82  1  0  0  0
 75 79  1  0  0  0
 75 84  2  0  0  0
 76148  1  0  0  0
 76149  1  0  0  0
 76150  1  0  0  0
 76 82  1  0  0  0
 77151  1  0  0  0
 77152  1  0  0  0
 77153  1  0  0  0
 77 83  1  0  0  0
 78 83  1  0  0  0
 78154  1  0  0  0
 78155  1  0  0  0
 78156  1  0  0  0
 79 80  1  0  0  0
 79157  1  0  0  0
 79158  1  0  0  0
 80 83  1  0  0  0
 80159  1  0  0  0
 80160  1  0  0  0
 81 82  1  0  0  0
 81 85  1  0  0  0
 81161  1  0  0  0
 81162  1  0  0  0
 82163  1  0  0  0
 85164  1  0  0  0
M  ISO  4   1 100  68 101  83 101  85 100
M  END
> <chiral flag>
0

> <version>
0

> <s_m_source_file>
/data/baiqing/PycharmProjects/Reinvent-master-3.2/result/LINK_invent/BTK/process_docking_weight1_custom_sum_contain_oxygen_bond_distance_aromatic_linkinvent_7_9_3/rearranged_h_0079.sdf

> <i_m_source_file_index>
40

> <r_mmod_Potential_Energy-OPLS-2005>
-256.062377929688

> <r_mmod_Stretch_Energy-OPLS-2005>
47.8907814025879

> <r_mmod_Bend_Energy-OPLS-2005>
109.92610168457

> <r_mmod_Torsional_Energy-OPLS-2005>
237.85791015625

> <r_mmod_Improper_Torsional_Energy-OPLS-2005>
3.69367527961731

> <r_mmod_Van_der_Waal_Energy-OPLS-2005>
151.761413574219

> <r_mmod_Electrostatic_Energy-OPLS-2005>
-613.218933105469

> <r_mmod_Solvation_Energy-OPLS-2005>
-214.031631469727

> <b_mmod_Minimization_Converged-OPLS-2005>
0

> <r_mmod_RMS_Derivative-OPLS-2005>
8.23283576965332

$$$$
40
                    3D
 Structure written by MMmdl.
167175  0  0  1  0            999 V2000
  -30.6741  -14.4897   20.5185 C   0  0  0  0  0  0
  -30.4366  -12.2899   19.4354 C   0  0  0  0  0  0
  -29.5059  -12.4553   18.2152 C   0  0  0  0  0  0
  -28.0210  -12.3567   18.6234 C   0  0  0  0  0  0
  -27.6675  -13.1922   19.8838 C   0  0  2  0  0  0
  -28.7149  -12.9811   21.0022 C   0  0  0  0  0  0
  -25.2647  -13.8135   20.5690 C   0  0  0  0  0  0
  -24.1872  -13.0420   20.9150 C   0  0  0  0  0  0
  -24.6419  -11.6892   20.8748 C   0  0  0  0  0  0
  -23.9088  -10.4285   21.0416 C   0  0  0  0  0  0
  -24.3630   -9.4206   21.9188 C   0  0  0  0  0  0
  -23.6287   -8.2260   22.0776 C   0  0  0  0  0  0
  -22.4283   -8.0299   21.3547 C   0  0  0  0  0  0
  -21.9918   -9.0283   20.4654 C   0  0  0  0  0  0
  -22.7261  -10.2152   20.3067 C   0  0  0  0  0  0
  -21.6861   -6.0746   22.5276 C   0  0  0  0  0  0
  -21.4017   -6.5661   23.8208 C   0  0  0  0  0  0
  -21.3639   -5.6819   24.9171 C   0  0  0  0  0  0
  -21.6031   -4.3082   24.7229 C   0  0  0  0  0  0
  -21.8822   -3.8155   23.4355 C   0  0  0  0  0  0
  -21.9195   -4.6962   22.3406 C   0  0  0  0  0  0
  -22.7891  -13.5220   21.1794 C   0  0  0  0  0  0
  -22.1670   -4.2148   21.0984 F   0  0  0  0  0  0
  -21.5611   -3.4576   25.7734 F   0  0  0  0  0  0
  -30.0423  -13.2869   20.4390 N   0  0  0  0  0  0
  -26.3074  -12.9267   20.3444 N   0  0  0  0  0  0
  -25.9346  -11.6448   20.5822 N   0  0  0  0  0  0
  -22.0567  -12.8190   22.0370 N   0  0  0  0  0  0
  -25.4397  -15.1851   20.4096 N   0  0  0  0  0  0
  -31.8204  -14.6850   20.1065 O   0  0  0  0  0  0
  -21.6642   -6.8889   21.4233 O   0  0  0  0  0  0
  -22.3563  -14.5511   20.6633 O   0  0  0  0  0  0
  -24.6135  -31.8685   23.2105 C   0  0  0  0  0  0
  -25.9021  -32.4837   23.8411 C   0  0  1  0  0  0
  -27.2508  -27.4619   20.0915 C   0  0  0  0  0  0
  -25.5887  -33.8633   24.2348 N   0  0  0  0  0  0
  -23.4039  -30.4869   21.5515 C   0  0  2  0  0  0
  -24.8537  -28.9491   20.1231 C   0  0  0  0  0  0
  -22.7423  -29.4645   22.5018 C   0  0  0  0  0  0
  -18.0269  -28.1382   22.8500 C   0  0  0  0  0  0
  -24.1486  -36.7330   23.2638 C   0  0  0  0  0  0
  -25.9288  -30.8411   21.3591 C   0  0  0  0  0  0
  -26.0107  -29.4735   20.7138 C   0  0  0  0  0  0
  -27.2148  -28.7363   20.6944 C   0  0  0  0  0  0
  -26.0797  -26.9392   19.5042 C   0  0  0  0  0  0
  -24.8805  -27.6793   19.5169 C   0  0  0  0  0  0
  -23.6129  -29.8120   20.1687 C   0  0  0  0  0  0
  -25.4108  -36.3127   24.0343 C   0  0  1  0  0  0
  -20.5862  -28.3656   23.1343 C   0  0  2  0  0  0
  -20.6756  -26.9395   22.5423 C   0  0  0  0  0  0
  -19.5730  -26.6387   21.5223 C   0  0  0  0  0  0
  -18.1912  -26.7929   22.1630 C   0  0  0  0  0  0
  -19.1517  -28.8839   23.2919 C   0  0  0  0  0  0
  -18.9438  -30.1451   23.8923 C   0  0  0  0  0  0
  -17.6436  -30.6584   24.0574 C   0  0  0  0  0  0
  -25.9030  -34.9488   23.5146 C   0  0  0  0  0  0
  -16.5334  -29.9084   23.6321 C   0  0  0  0  0  0
  -16.7261  -28.6505   23.0346 C   0  0  0  0  0  0
  -26.4454  -31.6610   25.0732 C   0  0  0  0  0  0
  -25.3732  -31.3665   26.1483 C   0  0  0  0  0  0
  -27.0283  -30.3072   24.6064 C   0  0  0  0  0  0
  -27.6040  -32.4321   25.7490 C   0  0  0  0  0  0
  -27.5592  -37.1814   24.8462 C   0  0  0  0  0  0
  -21.4150  -29.3023   22.3762 N   0  0  0  0  0  0
  -26.4300  -37.3807   23.9416 N   0  0  0  0  0  0
  -24.6671  -31.0794   22.0996 N   0  0  0  0  0  0
  -23.4189  -28.8190   23.3066 O   0  0  0  0  0  0
  -28.4274  -26.7586   20.0233 O   0  0  0  0  0  0
  -26.5593  -34.8926   22.4703 O   0  0  0  0  0  0
  -23.5327  -32.1422   23.7502 O   0  0  0  0  0  0
  -31.7172  -22.2106   20.1746 C   0  0  0  0  0  0
  -29.5979  -21.0685   20.3338 C   0  0  0  0  0  0
  -30.3768  -22.2100   20.6031 C   0  0  0  0  0  0
  -32.2108  -21.0846   19.4865 C   0  0  0  0  0  0
  -30.1647  -19.9914   19.6219 C   0  0  0  0  0  0
  -33.6382  -21.0474   18.9827 C   0  0  0  0  0  0
  -28.8541  -19.3565   17.6179 C   0  0  0  0  0  0
  -28.8207  -16.4837   18.3699 C   0  0  0  0  0  0
  -29.7615  -23.4238   21.2859 C   0  0  0  0  0  0
  -29.4582  -24.5784   20.3079 C   0  0  0  0  0  0
  -30.0460  -16.9562   20.6088 C   0  0  0  0  0  0
  -28.5199  -25.6425   20.9057 C   0  0  0  0  0  0
  -29.2494  -18.9109   19.0449 C   0  0  1  0  0  0
  -29.7670  -17.4311   19.1425 C   0  0  2  0  0  0
  -31.4498  -20.0058   19.1990 N   0  0  0  0  0  0
  -29.8643  -15.5107   20.8537 N   0  0  0  0  0  0
  -31.4788  -12.3951   19.1298 H   0  0  0  0  0  0
  -30.3458  -11.2839   19.8492 H   0  0  0  0  0  0
  -29.7323  -11.6879   17.4730 H   0  0  0  0  0  0
  -29.7028  -13.4075   17.7237 H   0  0  0  0  0  0
  -27.8011  -11.3046   18.8067 H   0  0  0  0  0  0
  -27.3863  -12.6554   17.7879 H   0  0  0  0  0  0
  -27.7010  -14.2369   19.5885 H   0  0  0  0  0  0
  -28.6976  -11.9498   21.3572 H   0  0  0  0  0  0
  -28.4886  -13.5910   21.8776 H   0  0  0  0  0  0
  -25.2784   -9.5686   22.4743 H   0  0  0  0  0  0
  -23.9982   -7.4683   22.7539 H   0  0  0  0  0  0
  -21.0849   -8.8845   19.8952 H   0  0  0  0  0  0
  -22.3737  -10.9724   19.6202 H   0  0  0  0  0  0
  -21.2025   -7.6176   23.9685 H   0  0  0  0  0  0
  -21.1450   -6.0569   25.9062 H   0  0  0  0  0  0
  -22.0597   -2.7619   23.2874 H   0  0  0  0  0  0
  -22.4208  -11.9818   22.4662 H   0  0  0  0  0  0
  -21.1221  -13.1230   22.2679 H   0  0  0  0  0  0
  -24.6750  -15.8428   20.5087 H   0  0  0  0  0  0
  -26.2906  -15.6165   20.0739 H   0  0  0  0  0  0
  -26.7113  -32.5566   23.1198 H   0  0  0  0  0  0
  -25.0040  -33.9801   25.0496 H   0  0  0  0  0  0
  -22.6911  -31.3016   21.4080 H   0  0  0  0  0  0
  -23.3756  -35.9650   23.3279 H   0  0  0  0  0  0
  -24.3585  -36.8971   22.2057 H   0  0  0  0  0  0
  -23.7221  -37.6518   23.6672 H   0  0  0  0  0  0
  -26.0307  -31.6015   20.5834 H   0  0  0  0  0  0
  -26.8219  -30.9051   21.9700 H   0  0  0  0  0  0
  -28.1153  -29.1432   21.1319 H   0  0  0  0  0  0
  -26.1035  -25.9697   19.0255 H   0  0  0  0  0  0
  -23.9921  -27.2703   19.0546 H   0  0  0  0  0  0
  -23.7193  -30.5818   19.4034 H   0  0  0  0  0  0
  -22.7397  -29.2247   19.8783 H   0  0  0  0  0  0
  -25.1271  -36.2001   25.0836 H   0  0  0  0  0  0
  -20.9945  -28.3206   24.1471 H   0  0  0  0  0  0
  -20.5673  -26.2255   23.3596 H   0  0  0  0  0  0
  -21.6627  -26.7429   22.1226 H   0  0  0  0  0  0
  -19.6882  -25.6305   21.1241 H   0  0  0  0  0  0
  -19.6669  -27.3208   20.6766 H   0  0  0  0  0  0
  -17.4181  -26.6700   21.4032 H   0  0  0  0  0  0
  -18.0280  -26.0069   22.9017 H   0  0  0  0  0  0
  -19.7905  -30.7270   24.2307 H   0  0  0  0  0  0
  -17.4977  -31.6262   24.5173 H   0  0  0  0  0  0
  -15.5332  -30.2989   23.7617 H   0  0  0  0  0  0
  -15.8667  -28.0830   22.7035 H   0  0  0  0  0  0
  -24.5918  -30.7005   25.7803 H   0  0  0  0  0  0
  -24.8896  -32.2789   26.4983 H   0  0  0  0  0  0
  -25.8100  -30.8798   27.0214 H   0  0  0  0  0  0
  -26.2805  -29.6845   24.1138 H   0  0  0  0  0  0
  -27.4101  -29.7288   25.4488 H   0  0  0  0  0  0
  -27.8615  -30.4421   23.9166 H   0  0  0  0  0  0
  -27.2680  -33.3618   26.2093 H   0  0  0  0  0  0
  -28.3827  -32.6891   25.0300 H   0  0  0  0  0  0
  -28.0734  -31.8434   26.5380 H   0  0  0  0  0  0
  -28.2588  -38.0136   24.7559 H   0  0  0  0  0  0
  -28.1117  -36.2672   24.6235 H   0  0  0  0  0  0
  -27.2317  -37.1402   25.8864 H   0  0  0  0  0  0
  -20.9318  -29.8755   21.6988 H   0  0  0  0  0  0
  -26.0195  -38.2882   24.1436 H   0  0  0  0  0  0
  -32.3521  -23.0706   20.3479 H   0  0  0  0  0  0
  -28.5494  -21.0517   20.5981 H   0  0  0  0  0  0
  -34.2645  -21.7545   19.5261 H   0  0  0  0  0  0
  -33.6745  -21.3090   17.9248 H   0  0  0  0  0  0
  -34.0719  -20.0537   19.1030 H   0  0  0  0  0  0
  -28.5314  -20.3981   17.6173 H   0  0  0  0  0  0
  -28.0188  -18.7885   17.2141 H   0  0  0  0  0  0
  -29.6938  -19.2787   16.9265 H   0  0  0  0  0  0
  -29.1705  -15.4581   18.3774 H   0  0  0  0  0  0
  -28.7683  -16.7348   17.3115 H   0  0  0  0  0  0
  -27.8079  -16.5144   18.7751 H   0  0  0  0  0  0
  -30.4293  -23.7728   22.0747 H   0  0  0  0  0  0
  -28.8415  -23.1155   21.7857 H   0  0  0  0  0  0
  -28.9925  -24.1767   19.4075 H   0  0  0  0  0  0
  -30.3947  -25.0375   19.9894 H   0  0  0  0  0  0
  -29.3606  -17.4699   21.2820 H   0  0  0  0  0  0
  -31.0456  -17.2639   20.9186 H   0  0  0  0  0  0
  -28.9095  -25.9965   21.8614 H   0  0  0  0  0  0
  -27.5418  -25.1984   21.1051 H   0  0  0  0  0  0
  -28.3299  -18.9473   19.6325 H   0  0  0  0  0  0
  -30.7243  -17.3854   18.6192 H   0  0  0  0  0  0
  -28.9502  -15.2327   21.1787 H   0  0  0  0  0  0
  1 25  1  0  0  0
  1 30  2  0  0  0
  1 86  1  0  0  0
  2  3  1  0  0  0
  2 25  1  0  0  0
  2 87  1  0  0  0
  2 88  1  0  0  0
  3  4  1  0  0  0
  3 89  1  0  0  0
  3 90  1  0  0  0
  4  5  1  0  0  0
  4 91  1  0  0  0
  4 92  1  0  0  0
  5  6  1  0  0  0
  5 26  1  0  0  0
  5 93  1  0  0  0
  6 25  1  0  0  0
  6 94  1  0  0  0
  6 95  1  0  0  0
  7  8  2  0  0  0
  7 26  1  0  0  0
  7 29  1  0  0  0
  8  9  1  0  0  0
  8 22  1  0  0  0
  9 10  1  0  0  0
  9 27  2  0  0  0
 10 11  2  0  0  0
 10 15  1  0  0  0
 11 12  1  0  0  0
 11 96  1  0  0  0
 12 13  2  0  0  0
 12 97  1  0  0  0
 13 14  1  0  0  0
 13 31  1  0  0  0
 14 15  2  0  0  0
 14 98  1  0  0  0
 15 99  1  0  0  0
 16 17  2  0  0  0
 16 21  1  0  0  0
 16 31  1  0  0  0
 17 18  1  0  0  0
 17100  1  0  0  0
 18 19  2  0  0  0
 18101  1  0  0  0
 19 20  1  0  0  0
 19 24  1  0  0  0
 20 21  2  0  0  0
 20102  1  0  0  0
 21 23  1  0  0  0
 22 28  1  0  0  0
 22 32  2  0  0  0
 26 27  1  0  0  0
 28103  1  0  0  0
 28104  1  0  0  0
 29105  1  0  0  0
 29106  1  0  0  0
 33 34  1  0  0  0
 33 66  1  0  0  0
 33 70  2  0  0  0
 34 36  1  0  0  0
 34 59  1  0  0  0
 34107  1  0  0  0
 35 44  2  0  0  0
 35 45  1  0  0  0
 35 68  1  0  0  0
 36 56  1  0  0  0
 36108  1  0  0  0
 37 39  1  0  0  0
 37 47  1  0  0  0
 37 66  1  0  0  0
 37109  1  0  0  0
 38 43  2  0  0  0
 38 46  1  0  0  0
 38 47  1  0  0  0
 39 64  1  0  0  0
 39 67  2  0  0  0
 40 52  1  0  0  0
 40 53  2  0  0  0
 40 58  1  0  0  0
 41110  1  0  0  0
 41111  1  0  0  0
 41112  1  0  0  0
 41 48  1  0  0  0
 42 43  1  0  0  0
 42 66  1  0  0  0
 42113  1  0  0  0
 42114  1  0  0  0
 43 44  1  0  0  0
 44115  1  0  0  0
 45 46  2  0  0  0
 45116  1  0  0  0
 46117  1  0  0  0
 47118  1  0  0  0
 47119  1  0  0  0
 48 56  1  0  0  0
 48 65  1  0  0  0
 48120  1  0  0  0
 49 50  1  0  0  0
 49 53  1  0  0  0
 49 64  1  0  0  0
 49121  1  0  0  0
 50 51  1  0  0  0
 50122  1  0  0  0
 50123  1  0  0  0
 51 52  1  0  0  0
 51124  1  0  0  0
 51125  1  0  0  0
 52126  1  0  0  0
 52127  1  0  0  0
 53 54  1  0  0  0
 54 55  2  0  0  0
 54128  1  0  0  0
 55 57  1  0  0  0
 55129  1  0  0  0
 56 69  2  0  0  0
 57 58  2  0  0  0
 57130  1  0  0  0
 58131  1  0  0  0
 59 60  1  0  0  0
 59 61  1  0  0  0
 59 62  1  0  0  0
 60132  1  0  0  0
 60133  1  0  0  0
 60134  1  0  0  0
 61135  1  0  0  0
 61136  1  0  0  0
 61137  1  0  0  0
 62138  1  0  0  0
 62139  1  0  0  0
 62140  1  0  0  0
 63 65  1  0  0  0
 63141  1  0  0  0
 63142  1  0  0  0
 63143  1  0  0  0
 64144  1  0  0  0
 65145  1  0  0  0
 68 82  1  0  0  0
 71 73  2  0  0  0
 71 74  1  0  0  0
 71146  1  0  0  0
 72 73  1  0  0  0
 72 75  2  0  0  0
 72147  1  0  0  0
 73 79  1  0  0  0
 74 76  1  0  0  0
 74 85  2  0  0  0
 75 83  1  0  0  0
 75 85  1  0  0  0
 76148  1  0  0  0
 76149  1  0  0  0
 76150  1  0  0  0
 77151  1  0  0  0
 77152  1  0  0  0
 77153  1  0  0  0
 77 83  1  0  0  0
 78154  1  0  0  0
 78155  1  0  0  0
 78156  1  0  0  0
 78 84  1  0  0  0
 79 80  1  0  0  0
 79157  1  0  0  0
 79158  1  0  0  0
 80 82  1  0  0  0
 80159  1  0  0  0
 80160  1  0  0  0
 81 84  1  0  0  0
 81 86  1  0  0  0
 81161  1  0  0  0
 81162  1  0  0  0
 82163  1  0  0  0
 82164  1  0  0  0
 83 84  1  0  0  0
 83165  1  0  0  0
 84166  1  0  0  0
 86167  1  0  0  0
M  ISO  4   1 100  68 101  82 101  86 100
M  END
> <chiral flag>
0

> <version>
0

> <s_m_source_file>
/data/baiqing/PycharmProjects/Reinvent-master-3.2/result/LINK_invent/BTK/process_docking_weight1_custom_sum_contain_oxygen_bond_distance_aromatic_linkinvent_7_9_3/rearranged_h_0079.sdf

> <i_m_source_file_index>
41

> <r_mmod_Potential_Energy-OPLS-2005>
-240.787399291992

> <r_mmod_Stretch_Energy-OPLS-2005>
37.2653160095215

> <r_mmod_Bend_Energy-OPLS-2005>
98.4203033447266

> <r_mmod_Torsional_Energy-OPLS-2005>
237.589126586914

> <r_mmod_Improper_Torsional_Energy-OPLS-2005>
7.93271923065186

> <r_mmod_Van_der_Waal_Energy-OPLS-2005>
150.4677734375

> <r_mmod_Electrostatic_Energy-OPLS-2005>
-567.664001464844

> <r_mmod_Solvation_Energy-OPLS-2005>
-218.1884765625

> <b_mmod_Minimization_Converged-OPLS-2005>
0

> <r_mmod_RMS_Derivative-OPLS-2005>
2.4476056098938

$$$$
41
                    3D
 Structure written by MMmdl.
168176  0  0  1  0            999 V2000
  -30.7026  -14.4514   20.5442 C   0  0  0  0  0  0
  -30.4145  -12.2760   19.4465 C   0  0  0  0  0  0
  -29.5066  -12.5099   18.2220 C   0  0  0  0  0  0
  -28.0222  -12.3795   18.6159 C   0  0  0  0  0  0
  -27.6658  -13.2071   19.8814 C   0  0  2  0  0  0
  -28.7003  -12.9842   21.0110 C   0  0  0  0  0  0
  -25.2594  -13.8182   20.5658 C   0  0  0  0  0  0
  -24.1854  -13.0454   20.9176 C   0  0  0  0  0  0
  -24.6406  -11.6909   20.8711 C   0  0  0  0  0  0
  -23.9078  -10.4303   21.0397 C   0  0  0  0  0  0
  -24.3625   -9.4228   21.9187 C   0  0  0  0  0  0
  -23.6306   -8.2259   22.0761 C   0  0  0  0  0  0
  -22.4294   -8.0294   21.3545 C   0  0  0  0  0  0
  -21.9931   -9.0264   20.4652 C   0  0  0  0  0  0
  -22.7242  -10.2141   20.3061 C   0  0  0  0  0  0
  -21.6864   -6.0762   22.5289 C   0  0  0  0  0  0
  -21.4011   -6.5657   23.8223 C   0  0  0  0  0  0
  -21.3662   -5.6797   24.9177 C   0  0  0  0  0  0
  -21.6025   -4.3062   24.7217 C   0  0  0  0  0  0
  -21.8813   -3.8171   23.4337 C   0  0  0  0  0  0
  -21.9196   -4.6993   22.3403 C   0  0  0  0  0  0
  -22.7875  -13.5240   21.1846 C   0  0  0  0  0  0
  -22.1652   -4.2176   21.0977 F   0  0  0  0  0  0
  -21.5640   -3.4542   25.7737 F   0  0  0  0  0  0
  -30.0431  -13.2647   20.4720 N   0  0  0  0  0  0
  -26.3042  -12.9337   20.3366 N   0  0  0  0  0  0
  -25.9333  -11.6505   20.5744 N   0  0  0  0  0  0
  -22.0515  -12.8220   22.0393 N   0  0  0  0  0  0
  -25.4300  -15.1904   20.4052 N   0  0  0  0  0  0
  -31.8169  -14.6277   20.0493 O   0  0  0  0  0  0
  -21.6638   -6.8896   21.4253 O   0  0  0  0  0  0
  -22.3557  -14.5549   20.6710 O   0  0  0  0  0  0
  -24.6094  -31.8679   23.2115 C   0  0  0  0  0  0
  -25.9012  -32.4823   23.8394 C   0  0  1  0  0  0
  -27.2674  -27.4849   20.0727 C   0  0  0  0  0  0
  -25.5931  -33.8638   24.2328 N   0  0  0  0  0  0
  -23.3965  -30.4871   21.5478 C   0  0  2  0  0  0
  -24.8502  -28.9548   20.1107 C   0  0  0  0  0  0
  -22.7354  -29.4651   22.4981 C   0  0  0  0  0  0
  -18.0268  -28.1314   22.8495 C   0  0  0  0  0  0
  -24.1519  -36.7316   23.2626 C   0  0  0  0  0  0
  -25.9177  -30.8409   21.3608 C   0  0  0  0  0  0
  -26.0003  -29.4782   20.7110 C   0  0  0  0  0  0
  -27.2024  -28.7427   20.7004 C   0  0  0  0  0  0
  -26.0999  -26.9590   19.4716 C   0  0  0  0  0  0
  -24.8925  -27.6915   19.4915 C   0  0  0  0  0  0
  -23.6008  -29.8081   20.1653 C   0  0  0  0  0  0
  -25.4128  -36.3103   24.0317 C   0  0  1  0  0  0
  -20.5858  -28.3626   23.1297 C   0  0  2  0  0  0
  -20.6764  -26.9365   22.5385 C   0  0  0  0  0  0
  -19.5751  -26.6338   21.5171 C   0  0  0  0  0  0
  -18.1923  -26.7876   22.1585 C   0  0  0  0  0  0
  -19.1495  -28.8784   23.2920 C   0  0  0  0  0  0
  -18.9433  -30.1401   23.8910 C   0  0  0  0  0  0
  -17.6440  -30.6560   24.0539 C   0  0  0  0  0  0
  -25.9024  -34.9479   23.5090 C   0  0  0  0  0  0
  -16.5331  -29.9035   23.6343 C   0  0  0  0  0  0
  -16.7259  -28.6439   23.0378 C   0  0  0  0  0  0
  -26.4482  -31.6595   25.0696 C   0  0  0  0  0  0
  -25.3781  -31.3646   26.1460 C   0  0  0  0  0  0
  -27.0311  -30.3053   24.6022 C   0  0  0  0  0  0
  -27.6032  -32.4349   25.7457 C   0  0  0  0  0  0
  -27.5593  -37.1803   24.8442 C   0  0  0  0  0  0
  -21.4084  -29.3015   22.3715 N   0  0  0  0  0  0
  -26.4309  -37.3778   23.9393 N   0  0  0  0  0  0
  -24.6590  -31.0796   22.1005 N   0  0  0  0  0  0
  -23.4125  -28.8197   23.3020 O   0  0  0  0  0  0
  -28.4834  -26.8451   20.0817 O   0  0  0  0  0  0
  -26.5521  -34.8921   22.4604 O   0  0  0  0  0  0
  -23.5296  -32.1443   23.7509 O   0  0  0  0  0  0
  -29.0189  -21.3416   19.3020 C   0  0  0  0  0  0
  -30.0509  -20.3871   19.0946 C   0  0  0  0  0  0
  -30.5080  -22.9855   18.7534 C   0  0  0  0  0  0
  -27.5897  -21.0110   19.6914 C   0  0  0  0  0  0
  -30.0813  -18.4382   17.5016 C   0  0  0  0  0  0
  -31.9288  -17.6696   19.7885 C   0  0  0  0  0  0
  -30.3187  -18.5812   21.4581 C   0  0  0  0  0  0
  -30.7535  -24.4134   18.2846 C   0  0  0  0  0  0
  -30.2609  -25.5117   19.2423 C   0  0  0  0  0  0
  -29.6086  -16.5944   20.0439 C   0  0  0  0  0  0
  -28.7563  -25.8309   19.1269 C   0  0  0  0  0  0
  -29.8086  -18.8719   18.9616 C   0  0  1  0  0  0
  -30.4299  -17.9290   20.0646 C   0  0  0  0  0  0
  -29.2610  -22.6546   19.1003 N   0  0  0  0  0  0
  -31.3068  -20.8211   18.8150 N   0  0  0  0  0  0
  -31.5392  -22.1304   18.6477 N   0  0  0  0  0  0
  -29.9582  -15.4921   20.9584 N   0  0  0  0  0  0
  -31.4642  -12.3466   19.1599 H   0  0  0  0  0  0
  -30.2824  -11.2657   19.8364 H   0  0  0  0  0  0
  -29.7494  -11.7988   17.4309 H   0  0  0  0  0  0
  -29.6930  -13.5042   17.8091 H   0  0  0  0  0  0
  -27.8143  -11.3230   18.7885 H   0  0  0  0  0  0
  -27.3896  -12.6807   17.7809 H   0  0  0  0  0  0
  -27.7109  -14.2563   19.5912 H   0  0  0  0  0  0
  -28.6592  -11.9568   21.3741 H   0  0  0  0  0  0
  -28.4655  -13.6052   21.8762 H   0  0  0  0  0  0
  -25.2770   -9.5706   22.4749 H   0  0  0  0  0  0
  -24.0032   -7.4652   22.7470 H   0  0  0  0  0  0
  -21.0883   -8.8765   19.8936 H   0  0  0  0  0  0
  -22.3717  -10.9675   19.6160 H   0  0  0  0  0  0
  -21.1978   -7.6160   23.9734 H   0  0  0  0  0  0
  -21.1492   -6.0526   25.9073 H   0  0  0  0  0  0
  -22.0590   -2.7638   23.2830 H   0  0  0  0  0  0
  -22.4114  -11.9864   22.4757 H   0  0  0  0  0  0
  -21.1131  -13.1232   22.2584 H   0  0  0  0  0  0
  -24.6600  -15.8429   20.5078 H   0  0  0  0  0  0
  -26.2832  -15.6306   20.0863 H   0  0  0  0  0  0
  -26.7048  -32.5562   23.1123 H   0  0  0  0  0  0
  -25.0337  -33.9853   25.0651 H   0  0  0  0  0  0
  -22.6864  -31.3035   21.4026 H   0  0  0  0  0  0
  -23.3785  -35.9636   23.3283 H   0  0  0  0  0  0
  -24.3632  -36.8945   22.2034 H   0  0  0  0  0  0
  -23.7254  -37.6516   23.6657 H   0  0  0  0  0  0
  -26.0256  -31.6061   20.5927 H   0  0  0  0  0  0
  -26.8036  -30.8974   21.9790 H   0  0  0  0  0  0
  -28.0952  -29.1451   21.1608 H   0  0  0  0  0  0
  -26.1095  -25.9952   18.9892 H   0  0  0  0  0  0
  -24.0112  -27.2819   19.0170 H   0  0  0  0  0  0
  -23.6802  -30.5757   19.3951 H   0  0  0  0  0  0
  -22.7351  -29.2080   19.8856 H   0  0  0  0  0  0
  -25.1293  -36.1943   25.0799 H   0  0  0  0  0  0
  -20.9992  -28.3182   24.1402 H   0  0  0  0  0  0
  -20.5658  -26.2217   23.3565 H   0  0  0  0  0  0
  -21.6635  -26.7415   22.1168 H   0  0  0  0  0  0
  -19.6940  -25.6237   21.1226 H   0  0  0  0  0  0
  -19.6711  -27.3134   20.6690 H   0  0  0  0  0  0
  -17.4209  -26.6661   21.3966 H   0  0  0  0  0  0
  -18.0352  -25.9942   22.8913 H   0  0  0  0  0  0
  -19.7897  -30.7225   24.2275 H   0  0  0  0  0  0
  -17.4983  -31.6256   24.5097 H   0  0  0  0  0  0
  -15.5334  -30.2923   23.7671 H   0  0  0  0  0  0
  -15.8662  -28.0759   22.7105 H   0  0  0  0  0  0
  -24.5954  -30.6972   25.7823 H   0  0  0  0  0  0
  -24.8977  -32.2788   26.4973 H   0  0  0  0  0  0
  -25.8187  -30.8789   27.0177 H   0  0  0  0  0  0
  -26.2816  -29.6797   24.1155 H   0  0  0  0  0  0
  -27.4186  -29.7298   25.4446 H   0  0  0  0  0  0
  -27.8621  -30.4391   23.9080 H   0  0  0  0  0  0
  -27.2616  -33.3648   26.2022 H   0  0  0  0  0  0
  -28.3861  -32.6928   25.0301 H   0  0  0  0  0  0
  -28.0687  -31.8497   26.5401 H   0  0  0  0  0  0
  -28.2541  -38.0167   24.7582 H   0  0  0  0  0  0
  -28.1171  -36.2702   24.6184 H   0  0  0  0  0  0
  -27.2331  -37.1338   25.8846 H   0  0  0  0  0  0
  -20.9222  -29.8765   21.6979 H   0  0  0  0  0  0
  -26.0207  -38.2856   24.1408 H   0  0  0  0  0  0
  -27.5069  -20.0733   20.2384 H   0  0  0  0  0  0
  -26.9620  -20.9629   18.8016 H   0  0  0  0  0  0
  -27.1891  -21.7898   20.3434 H   0  0  0  0  0  0
  -29.5194  -19.0667   16.8098 H   0  0  0  0  0  0
  -29.7894  -17.4108   17.2949 H   0  0  0  0  0  0
  -31.1343  -18.5408   17.2407 H   0  0  0  0  0  0
  -32.3943  -17.1304   20.6129 H   0  0  0  0  0  0
  -32.4872  -18.5984   19.6727 H   0  0  0  0  0  0
  -32.0835  -17.0815   18.8827 H   0  0  0  0  0  0
  -30.6381  -17.8985   22.2450 H   0  0  0  0  0  0
  -29.2967  -18.8868   21.6816 H   0  0  0  0  0  0
  -30.9484  -19.4693   21.5343 H   0  0  0  0  0  0
  -30.3155  -24.5423   17.2946 H   0  0  0  0  0  0
  -31.8279  -24.5411   18.1458 H   0  0  0  0  0  0
  -30.8015  -26.4242   18.9946 H   0  0  0  0  0  0
  -30.5320  -25.2669   20.2681 H   0  0  0  0  0  0
  -29.6024  -16.1803   19.0366 H   0  0  0  0  0  0
  -28.5624  -16.8254   20.2468 H   0  0  0  0  0  0
  -28.1385  -24.9581   19.3265 H   0  0  0  0  0  0
  -28.5257  -26.1806   18.1188 H   0  0  0  0  0  0
  -28.7331  -18.7560   19.0617 H   0  0  0  0  0  0
  -29.1899  -15.2072   21.5470 H   0  0  0  0  0  0
  1 25  1  0  0  0
  1 30  2  0  0  0
  1 87  1  0  0  0
  2  3  1  0  0  0
  2 25  1  0  0  0
  2 88  1  0  0  0
  2 89  1  0  0  0
  3  4  1  0  0  0
  3 90  1  0  0  0
  3 91  1  0  0  0
  4  5  1  0  0  0
  4 92  1  0  0  0
  4 93  1  0  0  0
  5  6  1  0  0  0
  5 26  1  0  0  0
  5 94  1  0  0  0
  6 25  1  0  0  0
  6 95  1  0  0  0
  6 96  1  0  0  0
  7  8  2  0  0  0
  7 26  1  0  0  0
  7 29  1  0  0  0
  8  9  1  0  0  0
  8 22  1  0  0  0
  9 10  1  0  0  0
  9 27  2  0  0  0
 10 11  2  0  0  0
 10 15  1  0  0  0
 11 12  1  0  0  0
 11 97  1  0  0  0
 12 13  2  0  0  0
 12 98  1  0  0  0
 13 14  1  0  0  0
 13 31  1  0  0  0
 14 15  2  0  0  0
 14 99  1  0  0  0
 15100  1  0  0  0
 16 17  2  0  0  0
 16 21  1  0  0  0
 16 31  1  0  0  0
 17 18  1  0  0  0
 17101  1  0  0  0
 18 19  2  0  0  0
 18102  1  0  0  0
 19 20  1  0  0  0
 19 24  1  0  0  0
 20 21  2  0  0  0
 20103  1  0  0  0
 21 23  1  0  0  0
 22 28  1  0  0  0
 22 32  2  0  0  0
 26 27  1  0  0  0
 28104  1  0  0  0
 28105  1  0  0  0
 29106  1  0  0  0
 29107  1  0  0  0
 33 34  1  0  0  0
 33 66  1  0  0  0
 33 70  2  0  0  0
 34 36  1  0  0  0
 34 59  1  0  0  0
 34108  1  0  0  0
 35 44  2  0  0  0
 35 45  1  0  0  0
 35 68  1  0  0  0
 36 56  1  0  0  0
 36109  1  0  0  0
 37 39  1  0  0  0
 37 47  1  0  0  0
 37 66  1  0  0  0
 37110  1  0  0  0
 38 43  2  0  0  0
 38 46  1  0  0  0
 38 47  1  0  0  0
 39 64  1  0  0  0
 39 67  2  0  0  0
 40 52  1  0  0  0
 40 53  2  0  0  0
 40 58  1  0  0  0
 41111  1  0  0  0
 41112  1  0  0  0
 41113  1  0  0  0
 41 48  1  0  0  0
 42 43  1  0  0  0
 42 66  1  0  0  0
 42114  1  0  0  0
 42115  1  0  0  0
 43 44  1  0  0  0
 44116  1  0  0  0
 45 46  2  0  0  0
 45117  1  0  0  0
 46118  1  0  0  0
 47119  1  0  0  0
 47120  1  0  0  0
 48 56  1  0  0  0
 48 65  1  0  0  0
 48121  1  0  0  0
 49 50  1  0  0  0
 49 53  1  0  0  0
 49 64  1  0  0  0
 49122  1  0  0  0
 50 51  1  0  0  0
 50123  1  0  0  0
 50124  1  0  0  0
 51 52  1  0  0  0
 51125  1  0  0  0
 51126  1  0  0  0
 52127  1  0  0  0
 52128  1  0  0  0
 53 54  1  0  0  0
 54 55  2  0  0  0
 54129  1  0  0  0
 55 57  1  0  0  0
 55130  1  0  0  0
 56 69  2  0  0  0
 57 58  2  0  0  0
 57131  1  0  0  0
 58132  1  0  0  0
 59 60  1  0  0  0
 59 61  1  0  0  0
 59 62  1  0  0  0
 60133  1  0  0  0
 60134  1  0  0  0
 60135  1  0  0  0
 61136  1  0  0  0
 61137  1  0  0  0
 61138  1  0  0  0
 62139  1  0  0  0
 62140  1  0  0  0
 62141  1  0  0  0
 63 65  1  0  0  0
 63142  1  0  0  0
 63143  1  0  0  0
 63144  1  0  0  0
 64145  1  0  0  0
 65146  1  0  0  0
 68 81  1  0  0  0
 71 72  2  0  0  0
 71 74  1  0  0  0
 71 84  1  0  0  0
 72 82  1  0  0  0
 72 85  1  0  0  0
 73 78  1  0  0  0
 73 84  2  0  0  0
 73 86  1  0  0  0
 74147  1  0  0  0
 74148  1  0  0  0
 74149  1  0  0  0
 75150  1  0  0  0
 75151  1  0  0  0
 75152  1  0  0  0
 75 82  1  0  0  0
 76153  1  0  0  0
 76154  1  0  0  0
 76155  1  0  0  0
 76 83  1  0  0  0
 77 83  1  0  0  0
 77156  1  0  0  0
 77157  1  0  0  0
 77158  1  0  0  0
 78 79  1  0  0  0
 78159  1  0  0  0
 78160  1  0  0  0
 79 81  1  0  0  0
 79161  1  0  0  0
 79162  1  0  0  0
 80 83  1  0  0  0
 80 87  1  0  0  0
 80163  1  0  0  0
 80164  1  0  0  0
 81165  1  0  0  0
 81166  1  0  0  0
 82 83  1  0  0  0
 82167  1  0  0  0
 85 86  2  0  0  0
 87168  1  0  0  0
M  ISO  4   1 100  68 101  81 101  87 100
M  END
> <chiral flag>
0

> <version>
0

> <s_m_source_file>
/data/baiqing/PycharmProjects/Reinvent-master-3.2/result/LINK_invent/BTK/process_docking_weight1_custom_sum_contain_oxygen_bond_distance_aromatic_linkinvent_7_9_3/rearranged_h_0079.sdf

> <i_m_source_file_index>
42

> <r_mmod_Potential_Energy-OPLS-2005>
-82.3584594726562

> <r_mmod_Stretch_Energy-OPLS-2005>
41.248405456543

> <r_mmod_Bend_Energy-OPLS-2005>
130.643280029297

> <r_mmod_Torsional_Energy-OPLS-2005>
243.895599365234

> <r_mmod_Improper_Torsional_Energy-OPLS-2005>
11.2814111709595

> <r_mmod_Van_der_Waal_Energy-OPLS-2005>
168.446716308594

> <r_mmod_Electrostatic_Energy-OPLS-2005>
-454.830047607422

> <r_mmod_Solvation_Energy-OPLS-2005>
-235.350708007812

> <b_mmod_Minimization_Converged-OPLS-2005>
0

> <r_mmod_RMS_Derivative-OPLS-2005>
4.2469367980957

$$$$
42
                    3D
 Structure written by MMmdl.
163171  0  0  1  0            999 V2000
  -30.6899  -14.4609   20.5811 C   0  0  0  0  0  0
  -30.4307  -12.3032   19.4172 C   0  0  0  0  0  0
  -29.4994  -12.5113   18.2041 C   0  0  0  0  0  0
  -28.0197  -12.3656   18.6132 C   0  0  0  0  0  0
  -27.6644  -13.1990   19.8733 C   0  0  2  0  0  0
  -28.7046  -12.9626   20.9925 C   0  0  0  0  0  0
  -25.2593  -13.8125   20.5626 C   0  0  0  0  0  0
  -24.1840  -13.0416   20.9132 C   0  0  0  0  0  0
  -24.6384  -11.6883   20.8688 C   0  0  0  0  0  0
  -23.9050  -10.4277   21.0372 C   0  0  0  0  0  0
  -24.3606   -9.4199   21.9155 C   0  0  0  0  0  0
  -23.6286   -8.2232   22.0745 C   0  0  0  0  0  0
  -22.4265   -8.0269   21.3543 C   0  0  0  0  0  0
  -21.9894   -9.0238   20.4640 C   0  0  0  0  0  0
  -22.7219  -10.2119   20.3029 C   0  0  0  0  0  0
  -21.6856   -6.0724   22.5278 C   0  0  0  0  0  0
  -21.4014   -6.5624   23.8212 C   0  0  0  0  0  0
  -21.3667   -5.6776   24.9174 C   0  0  0  0  0  0
  -21.6049   -4.3039   24.7219 C   0  0  0  0  0  0
  -21.8829   -3.8134   23.4339 C   0  0  0  0  0  0
  -21.9194   -4.6952   22.3400 C   0  0  0  0  0  0
  -22.7865  -13.5228   21.1825 C   0  0  0  0  0  0
  -22.1655   -4.2139   21.0977 F   0  0  0  0  0  0
  -21.5647   -3.4524   25.7729 F   0  0  0  0  0  0
  -30.0394  -13.2738   20.4495 N   0  0  0  0  0  0
  -26.3029  -12.9283   20.3325 N   0  0  0  0  0  0
  -25.9308  -11.6449   20.5706 N   0  0  0  0  0  0
  -22.0524  -12.8230   22.0404 N   0  0  0  0  0  0
  -25.4308  -15.1842   20.4059 N   0  0  0  0  0  0
  -31.8063  -14.6814   20.1053 O   0  0  0  0  0  0
  -21.6639   -6.8862   21.4239 O   0  0  0  0  0  0
  -22.3559  -14.5558   20.6707 O   0  0  0  0  0  0
  -24.6142  -31.8685   23.2098 C   0  0  0  0  0  0
  -25.9034  -32.4824   23.8390 C   0  0  1  0  0  0
  -27.2316  -27.4396   20.0984 C   0  0  0  0  0  0
  -25.5894  -33.8624   24.2330 N   0  0  0  0  0  0
  -23.4016  -30.4917   21.5506 C   0  0  2  0  0  0
  -24.8472  -28.9615   20.1110 C   0  0  0  0  0  0
  -22.7412  -29.4651   22.4993 C   0  0  0  0  0  0
  -18.0271  -28.1376   22.8494 C   0  0  0  0  0  0
  -24.1491  -36.7316   23.2637 C   0  0  0  0  0  0
  -25.9302  -30.8367   21.3611 C   0  0  0  0  0  0
  -26.0076  -29.4735   20.7059 C   0  0  0  0  0  0
  -27.2048  -28.7219   20.6916 C   0  0  0  0  0  0
  -26.0548  -26.9452   19.4907 C   0  0  0  0  0  0
  -24.8661  -27.6972   19.4981 C   0  0  0  0  0  0
  -23.6085  -29.8256   20.1643 C   0  0  0  0  0  0
  -25.4113  -36.3112   24.0337 C   0  0  1  0  0  0
  -20.5863  -28.3655   23.1321 C   0  0  2  0  0  0
  -20.6763  -26.9393   22.5417 C   0  0  0  0  0  0
  -19.5740  -26.6381   21.5214 C   0  0  0  0  0  0
  -18.1917  -26.7923   22.1627 C   0  0  0  0  0  0
  -19.1522  -28.8834   23.2902 C   0  0  0  0  0  0
  -18.9450  -30.1444   23.8905 C   0  0  0  0  0  0
  -17.6453  -30.6580   24.0568 C   0  0  0  0  0  0
  -25.9034  -34.9478   23.5131 C   0  0  0  0  0  0
  -16.5341  -29.9085   23.6322 C   0  0  0  0  0  0
  -16.7263  -28.6501   23.0341 C   0  0  0  0  0  0
  -26.4471  -31.6602   25.0717 C   0  0  0  0  0  0
  -25.3738  -31.3710   26.1469 C   0  0  0  0  0  0
  -27.0294  -30.3045   24.6069 C   0  0  0  0  0  0
  -27.6043  -32.4326   25.7472 C   0  0  0  0  0  0
  -27.5586  -37.1806   24.8461 C   0  0  0  0  0  0
  -21.4138  -29.3026   22.3736 N   0  0  0  0  0  0
  -26.4303  -37.3793   23.9402 N   0  0  0  0  0  0
  -24.6667  -31.0798   22.0987 N   0  0  0  0  0  0
  -23.4191  -28.8190   23.3028 O   0  0  0  0  0  0
  -28.3925  -26.6947   20.1286 O   0  0  0  0  0  0
  -26.5591  -34.8926   22.4687 O   0  0  0  0  0  0
  -23.5330  -32.1431   23.7492 O   0  0  0  0  0  0
  -31.4061  -22.2983   20.9444 C   0  0  0  0  0  0
  -32.1239  -21.2378   20.3774 C   0  0  0  0  0  0
  -30.0154  -22.1531   21.0338 C   0  0  0  0  0  0
  -30.1840  -20.0527   20.0966 C   0  0  0  0  0  0
  -33.6278  -21.2989   20.2213 C   0  0  0  0  0  0
  -29.6337  -25.5775   22.4675 C   0  0  0  0  0  0
  -29.1169  -23.2272   21.6481 C   0  0  0  0  0  0
  -29.4557  -18.8743   19.4546 C   0  0  0  0  0  0
  -30.0553  -17.4536   19.6264 C   0  0  0  0  0  0
  -30.1805  -16.8953   21.0652 C   0  0  0  0  0  0
  -28.2246  -25.2885   20.3813 C   0  0  0  0  0  0
  -29.3879  -24.7049   21.2191 C   0  0  1  0  0  0
  -31.5029  -20.1262   19.9374 N   0  0  0  0  0  0
  -29.4197  -21.0163   20.6137 N   0  0  0  0  0  0
  -29.9459  -15.4437   21.1174 N   0  0  0  0  0  0
  -31.4735  -12.4180   19.1154 H   0  0  0  0  0  0
  -30.3419  -11.2870   19.8033 H   0  0  0  0  0  0
  -29.7416  -11.7957   17.4179 H   0  0  0  0  0  0
  -29.6667  -13.5019   17.7774 H   0  0  0  0  0  0
  -27.8322  -11.3082   18.8036 H   0  0  0  0  0  0
  -27.3703  -12.6427   17.7816 H   0  0  0  0  0  0
  -27.7135  -14.2476   19.5816 H   0  0  0  0  0  0
  -28.6808  -11.9206   21.3130 H   0  0  0  0  0  0
  -28.4616  -13.5446   21.8824 H   0  0  0  0  0  0
  -25.2753   -9.5687   22.4718 H   0  0  0  0  0  0
  -24.0002   -7.4629   22.7468 H   0  0  0  0  0  0
  -21.0823   -8.8750   19.8953 H   0  0  0  0  0  0
  -22.3664  -10.9650   19.6133 H   0  0  0  0  0  0
  -21.2000   -7.6128   23.9713 H   0  0  0  0  0  0
  -21.1489   -6.0501   25.9082 H   0  0  0  0  0  0
  -22.0609   -2.7589   23.2840 H   0  0  0  0  0  0
  -22.4120  -11.9871   22.4770 H   0  0  0  0  0  0
  -21.1157  -13.1273   22.2640 H   0  0  0  0  0  0
  -24.6638  -15.8384   20.5197 H   0  0  0  0  0  0
  -26.2881  -15.6306   20.1060 H   0  0  0  0  0  0
  -26.7109  -32.5540   23.1161 H   0  0  0  0  0  0
  -25.0073  -33.9794   25.0491 H   0  0  0  0  0  0
  -22.6901  -31.3084   21.4124 H   0  0  0  0  0  0
  -23.3752  -35.9650   23.3310 H   0  0  0  0  0  0
  -24.3586  -36.8913   22.2048 H   0  0  0  0  0  0
  -23.7245  -37.6525   23.6645 H   0  0  0  0  0  0
  -26.0440  -31.6034   20.5938 H   0  0  0  0  0  0
  -26.8178  -30.8874   21.9797 H   0  0  0  0  0  0
  -28.1003  -29.1105   21.1562 H   0  0  0  0  0  0
  -26.0468  -25.9763   19.0110 H   0  0  0  0  0  0
  -23.9754  -27.2999   19.0303 H   0  0  0  0  0  0
  -23.7160  -30.6006   19.4046 H   0  0  0  0  0  0
  -22.7328  -29.2438   19.8701 H   0  0  0  0  0  0
  -25.1291  -36.1982   25.0829 H   0  0  0  0  0  0
  -20.9960  -28.3216   24.1441 H   0  0  0  0  0  0
  -20.5664  -26.2262   23.3599 H   0  0  0  0  0  0
  -21.6634  -26.7433   22.1207 H   0  0  0  0  0  0
  -19.6898  -25.6296   21.1232 H   0  0  0  0  0  0
  -19.6687  -27.3206   20.6755 H   0  0  0  0  0  0
  -17.4191  -26.6677   21.4023 H   0  0  0  0  0  0
  -18.0310  -26.0064   22.9019 H   0  0  0  0  0  0
  -19.7925  -30.7259   24.2276 H   0  0  0  0  0  0
  -17.5004  -31.6256   24.5174 H   0  0  0  0  0  0
  -15.5343  -30.2990   23.7632 H   0  0  0  0  0  0
  -15.8664  -28.0826   22.7043 H   0  0  0  0  0  0
  -24.5904  -30.7067   25.7807 H   0  0  0  0  0  0
  -24.8951  -32.2873   26.4929 H   0  0  0  0  0  0
  -25.8094  -30.8869   27.0219 H   0  0  0  0  0  0
  -26.2826  -29.6817   24.1132 H   0  0  0  0  0  0
  -27.4088  -29.7264   25.4505 H   0  0  0  0  0  0
  -27.8655  -30.4377   23.9198 H   0  0  0  0  0  0
  -27.2656  -33.3610   26.2087 H   0  0  0  0  0  0
  -28.3831  -32.6914   25.0285 H   0  0  0  0  0  0
  -28.0749  -31.8439   26.5360 H   0  0  0  0  0  0
  -28.2602  -38.0102   24.7510 H   0  0  0  0  0  0
  -28.1081  -36.2633   24.6292 H   0  0  0  0  0  0
  -27.2300  -37.1457   25.8861 H   0  0  0  0  0  0
  -20.9293  -29.8775   21.6987 H   0  0  0  0  0  0
  -26.0195  -38.2871   24.1400 H   0  0  0  0  0  0
  -31.9101  -23.1883   21.3001 H   0  0  0  0  0  0
  -34.0860  -21.7467   21.1034 H   0  0  0  0  0  0
  -33.8914  -21.9073   19.3566 H   0  0  0  0  0  0
  -34.0585  -20.3065   20.0851 H   0  0  0  0  0  0
  -29.8989  -26.6004   22.1970 H   0  0  0  0  0  0
  -30.4506  -25.1822   23.0721 H   0  0  0  0  0  0
  -28.7449  -25.6252   23.0989 H   0  0  0  0  0  0
  -29.2198  -23.1258   22.7292 H   0  0  0  0  0  0
  -28.0768  -22.9703   21.4480 H   0  0  0  0  0  0
  -29.3803  -19.0905   18.3882 H   0  0  0  0  0  0
  -28.4279  -18.8576   19.8185 H   0  0  0  0  0  0
  -31.0332  -17.4178   19.1451 H   0  0  0  0  0  0
  -29.4224  -16.7850   19.0420 H   0  0  0  0  0  0
  -31.1583  -17.1407   21.4870 H   0  0  0  0  0  0
  -29.4376  -17.3624   21.7126 H   0  0  0  0  0  0
  -27.2973  -25.1094   20.9281 H   0  0  0  0  0  0
  -28.1412  -24.7582   19.4313 H   0  0  0  0  0  0
  -30.2887  -24.7492   20.6077 H   0  0  0  0  0  0
  -29.0547  -15.1506   21.4904 H   0  0  0  0  0  0
  1 25  1  0  0  0
  1 30  2  0  0  0
  1 85  1  0  0  0
  2  3  1  0  0  0
  2 25  1  0  0  0
  2 86  1  0  0  0
  2 87  1  0  0  0
  3  4  1  0  0  0
  3 88  1  0  0  0
  3 89  1  0  0  0
  4  5  1  0  0  0
  4 90  1  0  0  0
  4 91  1  0  0  0
  5  6  1  0  0  0
  5 26  1  0  0  0
  5 92  1  0  0  0
  6 25  1  0  0  0
  6 93  1  0  0  0
  6 94  1  0  0  0
  7  8  2  0  0  0
  7 26  1  0  0  0
  7 29  1  0  0  0
  8  9  1  0  0  0
  8 22  1  0  0  0
  9 10  1  0  0  0
  9 27  2  0  0  0
 10 11  2  0  0  0
 10 15  1  0  0  0
 11 12  1  0  0  0
 11 95  1  0  0  0
 12 13  2  0  0  0
 12 96  1  0  0  0
 13 14  1  0  0  0
 13 31  1  0  0  0
 14 15  2  0  0  0
 14 97  1  0  0  0
 15 98  1  0  0  0
 16 17  2  0  0  0
 16 21  1  0  0  0
 16 31  1  0  0  0
 17 18  1  0  0  0
 17 99  1  0  0  0
 18 19  2  0  0  0
 18100  1  0  0  0
 19 20  1  0  0  0
 19 24  1  0  0  0
 20 21  2  0  0  0
 20101  1  0  0  0
 21 23  1  0  0  0
 22 28  1  0  0  0
 22 32  2  0  0  0
 26 27  1  0  0  0
 28102  1  0  0  0
 28103  1  0  0  0
 29104  1  0  0  0
 29105  1  0  0  0
 33 34  1  0  0  0
 33 66  1  0  0  0
 33 70  2  0  0  0
 34 36  1  0  0  0
 34 59  1  0  0  0
 34106  1  0  0  0
 35 44  2  0  0  0
 35 45  1  0  0  0
 35 68  1  0  0  0
 36 56  1  0  0  0
 36107  1  0  0  0
 37 39  1  0  0  0
 37 47  1  0  0  0
 37 66  1  0  0  0
 37108  1  0  0  0
 38 43  2  0  0  0
 38 46  1  0  0  0
 38 47  1  0  0  0
 39 64  1  0  0  0
 39 67  2  0  0  0
 40 52  1  0  0  0
 40 53  2  0  0  0
 40 58  1  0  0  0
 41109  1  0  0  0
 41110  1  0  0  0
 41111  1  0  0  0
 41 48  1  0  0  0
 42 43  1  0  0  0
 42 66  1  0  0  0
 42112  1  0  0  0
 42113  1  0  0  0
 43 44  1  0  0  0
 44114  1  0  0  0
 45 46  2  0  0  0
 45115  1  0  0  0
 46116  1  0  0  0
 47117  1  0  0  0
 47118  1  0  0  0
 48 56  1  0  0  0
 48 65  1  0  0  0
 48119  1  0  0  0
 49 50  1  0  0  0
 49 53  1  0  0  0
 49 64  1  0  0  0
 49120  1  0  0  0
 50 51  1  0  0  0
 50121  1  0  0  0
 50122  1  0  0  0
 51 52  1  0  0  0
 51123  1  0  0  0
 51124  1  0  0  0
 52125  1  0  0  0
 52126  1  0  0  0
 53 54  1  0  0  0
 54 55  2  0  0  0
 54127  1  0  0  0
 55 57  1  0  0  0
 55128  1  0  0  0
 56 69  2  0  0  0
 57 58  2  0  0  0
 57129  1  0  0  0
 58130  1  0  0  0
 59 60  1  0  0  0
 59 61  1  0  0  0
 59 62  1  0  0  0
 60131  1  0  0  0
 60132  1  0  0  0
 60133  1  0  0  0
 61134  1  0  0  0
 61135  1  0  0  0
 61136  1  0  0  0
 62137  1  0  0  0
 62138  1  0  0  0
 62139  1  0  0  0
 63 65  1  0  0  0
 63140  1  0  0  0
 63141  1  0  0  0
 63142  1  0  0  0
 64143  1  0  0  0
 65144  1  0  0  0
 68 81  1  0  0  0
 71 72  2  0  0  0
 71 73  1  0  0  0
 71145  1  0  0  0
 72 75  1  0  0  0
 72 83  1  0  0  0
 73 77  1  0  0  0
 73 84  2  0  0  0
 74 78  1  0  0  0
 74 83  2  0  0  0
 74 84  1  0  0  0
 75146  1  0  0  0
 75147  1  0  0  0
 75148  1  0  0  0
 76149  1  0  0  0
 76150  1  0  0  0
 76151  1  0  0  0
 76 82  1  0  0  0
 77 82  1  0  0  0
 77152  1  0  0  0
 77153  1  0  0  0
 78 79  1  0  0  0
 78154  1  0  0  0
 78155  1  0  0  0
 79 80  1  0  0  0
 79156  1  0  0  0
 79157  1  0  0  0
 80 85  1  0  0  0
 80158  1  0  0  0
 80159  1  0  0  0
 81 82  1  0  0  0
 81160  1  0  0  0
 81161  1  0  0  0
 82162  1  0  0  0
 85163  1  0  0  0
M  ISO  4   1 100  68 101  81 101  85 100
M  END
> <chiral flag>
0

> <version>
0

> <s_m_source_file>
/data/baiqing/PycharmProjects/Reinvent-master-3.2/result/LINK_invent/BTK/process_docking_weight1_custom_sum_contain_oxygen_bond_distance_aromatic_linkinvent_7_9_3/rearranged_h_0079.sdf

> <i_m_source_file_index>
43

> <r_mmod_Potential_Energy-OPLS-2005>
-497.704437255859

> <r_mmod_Stretch_Energy-OPLS-2005>
36.018440246582

> <r_mmod_Bend_Energy-OPLS-2005>
101.973175048828

> <r_mmod_Torsional_Energy-OPLS-2005>
219.665176391602

> <r_mmod_Improper_Torsional_Energy-OPLS-2005>
5.0708384513855

> <r_mmod_Van_der_Waal_Energy-OPLS-2005>
160.534606933594

> <r_mmod_Electrostatic_Energy-OPLS-2005>
-798.689025878906

> <r_mmod_Solvation_Energy-OPLS-2005>
-234.404037475586

> <b_mmod_Minimization_Converged-OPLS-2005>
0

> <r_mmod_RMS_Derivative-OPLS-2005>
1.69635128974915

$$$$
43
                    3D
 Structure written by MMmdl.
157165  0  0  1  0            999 V2000
  -30.6768  -14.5663   20.4207 C   0  0  0  0  0  0
  -30.4265  -12.3511   19.4168 C   0  0  0  0  0  0
  -29.4851  -12.5157   18.2064 C   0  0  0  0  0  0
  -28.0171  -12.3384   18.6358 C   0  0  0  0  0  0
  -27.6501  -13.2042   19.8718 C   0  0  2  0  0  0
  -28.7118  -13.0757   20.9897 C   0  0  0  0  0  0
  -25.2586  -13.8144   20.5775 C   0  0  0  0  0  0
  -24.1824  -13.0429   20.9233 C   0  0  0  0  0  0
  -24.6376  -11.6896   20.8791 C   0  0  0  0  0  0
  -23.9055  -10.4290   21.0451 C   0  0  0  0  0  0
  -24.3592   -9.4202   21.9218 C   0  0  0  0  0  0
  -23.6278   -8.2235   22.0757 C   0  0  0  0  0  0
  -22.4270   -8.0279   21.3541 C   0  0  0  0  0  0
  -21.9922   -9.0261   20.4644 C   0  0  0  0  0  0
  -22.7249  -10.2137   20.3086 C   0  0  0  0  0  0
  -21.6848   -6.0742   22.5289 C   0  0  0  0  0  0
  -21.4005   -6.5640   23.8227 C   0  0  0  0  0  0
  -21.3658   -5.6780   24.9177 C   0  0  0  0  0  0
  -21.6048   -4.3053   24.7220 C   0  0  0  0  0  0
  -21.8816   -3.8153   23.4338 C   0  0  0  0  0  0
  -21.9189   -4.6970   22.3401 C   0  0  0  0  0  0
  -22.7859  -13.5253   21.1852 C   0  0  0  0  0  0
  -22.1664   -4.2170   21.0978 F   0  0  0  0  0  0
  -21.5626   -3.4527   25.7723 F   0  0  0  0  0  0
  -30.0338  -13.3658   20.4077 N   0  0  0  0  0  0
  -26.2983  -12.9293   20.3434 N   0  0  0  0  0  0
  -25.9301  -11.6462   20.5838 N   0  0  0  0  0  0
  -22.0420  -12.8288   22.0381 N   0  0  0  0  0  0
  -25.4318  -15.1883   20.4208 N   0  0  0  0  0  0
  -31.8693  -14.6796   20.1305 O   0  0  0  0  0  0
  -21.6631   -6.8882   21.4252 O   0  0  0  0  0  0
  -22.3599  -14.5563   20.6665 O   0  0  0  0  0  0
  -24.6215  -31.8648   23.2084 C   0  0  0  0  0  0
  -25.9065  -32.4814   23.8413 C   0  0  1  0  0  0
  -27.2148  -27.3629   20.1208 C   0  0  0  0  0  0
  -25.5902  -33.8613   24.2307 N   0  0  0  0  0  0
  -23.4148  -30.4887   21.5487 C   0  0  2  0  0  0
  -24.8571  -28.9502   20.1151 C   0  0  0  0  0  0
  -22.7469  -29.4642   22.4964 C   0  0  0  0  0  0
  -18.0281  -28.1411   22.8496 C   0  0  0  0  0  0
  -24.1483  -36.7304   23.2642 C   0  0  0  0  0  0
  -25.9521  -30.8060   21.3777 C   0  0  0  0  0  0
  -26.0249  -29.4389   20.7171 C   0  0  0  0  0  0
  -27.2099  -28.6534   20.7126 C   0  0  0  0  0  0
  -26.0343  -26.9220   19.4807 C   0  0  0  0  0  0
  -24.8596  -27.6928   19.4932 C   0  0  0  0  0  0
  -23.6273  -29.8265   20.1649 C   0  0  0  0  0  0
  -25.4113  -36.3108   24.0334 C   0  0  1  0  0  0
  -20.5882  -28.3696   23.1288 C   0  0  2  0  0  0
  -20.6786  -26.9407   22.5418 C   0  0  0  0  0  0
  -19.5743  -26.6381   21.5222 C   0  0  0  0  0  0
  -18.1927  -26.7948   22.1634 C   0  0  0  0  0  0
  -19.1535  -28.8876   23.2886 C   0  0  0  0  0  0
  -18.9473  -30.1474   23.8890 C   0  0  0  0  0  0
  -17.6467  -30.6588   24.0578 C   0  0  0  0  0  0
  -25.9039  -34.9475   23.5116 C   0  0  0  0  0  0
  -16.5357  -29.9093   23.6365 C   0  0  0  0  0  0
  -16.7274  -28.6524   23.0348 C   0  0  0  0  0  0
  -26.4456  -31.6644   25.0790 C   0  0  0  0  0  0
  -25.3708  -31.3772   26.1535 C   0  0  0  0  0  0
  -27.0304  -30.3071   24.6257 C   0  0  0  0  0  0
  -27.6013  -32.4418   25.7549 C   0  0  0  0  0  0
  -27.5578  -37.1817   24.8468 C   0  0  0  0  0  0
  -21.4178  -29.3058   22.3707 N   0  0  0  0  0  0
  -26.4296  -37.3795   23.9399 N   0  0  0  0  0  0
  -24.6805  -31.0705   22.1005 N   0  0  0  0  0  0
  -23.4223  -28.8151   23.2980 O   0  0  0  0  0  0
  -28.3200  -26.5199   20.1746 O   0  0  0  0  0  0
  -26.5611  -34.8930   22.4678 O   0  0  0  0  0  0
  -23.5376  -32.1411   23.7432 O   0  0  0  0  0  0
  -29.6642  -19.0076   20.3780 C   0  0  0  0  0  0
  -30.8600  -20.7954   19.2801 C   0  0  0  0  0  0
  -29.9467  -20.4080   20.2781 C   0  0  0  0  0  0
  -30.3226  -18.1175   19.4799 C   0  0  0  0  0  0
  -28.6493  -16.5754   18.4200 C   0  0  0  0  0  0
  -29.3861  -21.4654   21.2497 C   0  0  0  0  0  0
  -28.4153  -22.5825   20.7118 C   0  0  0  0  0  0
  -28.9822  -23.9998   20.3185 C   0  0  0  0  0  0
  -28.0534  -25.1940   20.7405 C   0  0  0  0  0  0
  -29.9467  -16.6306   19.2385 C   0  0  2  0  0  0
  -31.4729  -19.9031   18.4659 N   0  0  0  0  0  0
  -31.2051  -18.5983   18.5667 N   0  0  0  0  0  0
  -29.8645  -15.6462   20.3550 N   0  0  0  0  0  0
  -31.4651  -12.4669   19.0946 H   0  0  0  0  0  0
  -30.3531  -11.3484   19.8422 H   0  0  0  0  0  0
  -29.7362  -11.8033   17.4169 H   0  0  0  0  0  0
  -29.6201  -13.5073   17.7686 H   0  0  0  0  0  0
  -27.8685  -11.2852   18.8675 H   0  0  0  0  0  0
  -27.3463  -12.5659   17.8066 H   0  0  0  0  0  0
  -27.6540  -14.2337   19.5355 H   0  0  0  0  0  0
  -28.7075  -12.0709   21.4129 H   0  0  0  0  0  0
  -28.4929  -13.7529   21.8168 H   0  0  0  0  0  0
  -25.2712   -9.5688   22.4821 H   0  0  0  0  0  0
  -23.9980   -7.4642   22.7481 H   0  0  0  0  0  0
  -21.0853   -8.8791   19.8952 H   0  0  0  0  0  0
  -22.3716  -10.9683   19.6210 H   0  0  0  0  0  0
  -21.1994   -7.6145   23.9729 H   0  0  0  0  0  0
  -21.1490   -6.0508   25.9077 H   0  0  0  0  0  0
  -22.0597   -2.7621   23.2823 H   0  0  0  0  0  0
  -22.3936  -11.9957   22.4855 H   0  0  0  0  0  0
  -21.1025  -13.1376   22.2449 H   0  0  0  0  0  0
  -24.6650  -15.8392   20.5463 H   0  0  0  0  0  0
  -26.2727  -15.6316   20.0795 H   0  0  0  0  0  0
  -26.7147  -32.5478   23.1182 H   0  0  0  0  0  0
  -25.0079  -33.9793   25.0471 H   0  0  0  0  0  0
  -22.7070  -31.3056   21.4084 H   0  0  0  0  0  0
  -23.3748  -35.9634   23.3326 H   0  0  0  0  0  0
  -24.3554  -36.8899   22.2049 H   0  0  0  0  0  0
  -23.7239  -37.6513   23.6647 H   0  0  0  0  0  0
  -26.0889  -31.5732   20.6162 H   0  0  0  0  0  0
  -26.8296  -30.8461   22.0121 H   0  0  0  0  0  0
  -28.1052  -29.0113   21.2022 H   0  0  0  0  0  0
  -26.0087  -25.9627   18.9844 H   0  0  0  0  0  0
  -23.9629  -27.3091   19.0250 H   0  0  0  0  0  0
  -23.7498  -30.6030   19.4082 H   0  0  0  0  0  0
  -22.7484  -29.2556   19.8603 H   0  0  0  0  0  0
  -25.1288  -36.1977   25.0831 H   0  0  0  0  0  0
  -20.9962  -28.3255   24.1418 H   0  0  0  0  0  0
  -20.5696  -26.2297   23.3602 H   0  0  0  0  0  0
  -21.6654  -26.7461   22.1194 H   0  0  0  0  0  0
  -19.6861  -25.6268   21.1275 H   0  0  0  0  0  0
  -19.6677  -27.3189   20.6747 H   0  0  0  0  0  0
  -17.4195  -26.6704   21.4036 H   0  0  0  0  0  0
  -18.0303  -26.0104   22.9036 H   0  0  0  0  0  0
  -19.7946  -30.7302   24.2217 H   0  0  0  0  0  0
  -17.5010  -31.6284   24.5166 H   0  0  0  0  0  0
  -15.5356  -30.2984   23.7659 H   0  0  0  0  0  0
  -15.8681  -28.0850   22.7036 H   0  0  0  0  0  0
  -24.5842  -30.7169   25.7853 H   0  0  0  0  0  0
  -24.8953  -32.2939   26.5040 H   0  0  0  0  0  0
  -25.8045  -30.8881   27.0263 H   0  0  0  0  0  0
  -26.2873  -29.6850   24.1252 H   0  0  0  0  0  0
  -27.3932  -29.7326   25.4784 H   0  0  0  0  0  0
  -27.8775  -30.4344   23.9517 H   0  0  0  0  0  0
  -27.2581  -33.3680   26.2166 H   0  0  0  0  0  0
  -28.3779  -32.7062   25.0365 H   0  0  0  0  0  0
  -28.0737  -31.8558   26.5438 H   0  0  0  0  0  0
  -28.2613  -38.0098   24.7485 H   0  0  0  0  0  0
  -28.1060  -36.2624   24.6333 H   0  0  0  0  0  0
  -27.2288  -37.1514   25.8873 H   0  0  0  0  0  0
  -20.9307  -29.8854   21.7009 H   0  0  0  0  0  0
  -26.0187  -38.2865   24.1409 H   0  0  0  0  0  0
  -28.9501  -18.6205   21.0879 H   0  0  0  0  0  0
  -31.1255  -21.8318   19.1368 H   0  0  0  0  0  0
  -27.7883  -16.8788   19.0168 H   0  0  0  0  0  0
  -28.4637  -15.5817   18.0223 H   0  0  0  0  0  0
  -28.7037  -17.2401   17.5592 H   0  0  0  0  0  0
  -30.2258  -21.9332   21.7668 H   0  0  0  0  0  0
  -28.8595  -20.9052   22.0235 H   0  0  0  0  0  0
  -27.7330  -22.7765   21.5403 H   0  0  0  0  0  0
  -27.7628  -22.1854   19.9328 H   0  0  0  0  0  0
  -29.1328  -24.0239   19.2370 H   0  0  0  0  0  0
  -29.9649  -24.1551   20.7625 H   0  0  0  0  0  0
  -28.1139  -25.3020   21.8264 H   0  0  0  0  0  0
  -27.0275  -24.8761   20.5656 H   0  0  0  0  0  0
  -30.7108  -16.2609   18.5485 H   0  0  0  0  0  0
  -28.9324  -15.4857   20.7003 H   0  0  0  0  0  0
  1 25  1  0  0  0
  1 30  2  0  0  0
  1 83  1  0  0  0
  2  3  1  0  0  0
  2 25  1  0  0  0
  2 84  1  0  0  0
  2 85  1  0  0  0
  3  4  1  0  0  0
  3 86  1  0  0  0
  3 87  1  0  0  0
  4  5  1  0  0  0
  4 88  1  0  0  0
  4 89  1  0  0  0
  5  6  1  0  0  0
  5 26  1  0  0  0
  5 90  1  0  0  0
  6 25  1  0  0  0
  6 91  1  0  0  0
  6 92  1  0  0  0
  7  8  2  0  0  0
  7 26  1  0  0  0
  7 29  1  0  0  0
  8  9  1  0  0  0
  8 22  1  0  0  0
  9 10  1  0  0  0
  9 27  2  0  0  0
 10 11  2  0  0  0
 10 15  1  0  0  0
 11 12  1  0  0  0
 11 93  1  0  0  0
 12 13  2  0  0  0
 12 94  1  0  0  0
 13 14  1  0  0  0
 13 31  1  0  0  0
 14 15  2  0  0  0
 14 95  1  0  0  0
 15 96  1  0  0  0
 16 17  2  0  0  0
 16 21  1  0  0  0
 16 31  1  0  0  0
 17 18  1  0  0  0
 17 97  1  0  0  0
 18 19  2  0  0  0
 18 98  1  0  0  0
 19 20  1  0  0  0
 19 24  1  0  0  0
 20 21  2  0  0  0
 20 99  1  0  0  0
 21 23  1  0  0  0
 22 28  1  0  0  0
 22 32  2  0  0  0
 26 27  1  0  0  0
 28100  1  0  0  0
 28101  1  0  0  0
 29102  1  0  0  0
 29103  1  0  0  0
 33 34  1  0  0  0
 33 66  1  0  0  0
 33 70  2  0  0  0
 34 36  1  0  0  0
 34 59  1  0  0  0
 34104  1  0  0  0
 35 44  2  0  0  0
 35 45  1  0  0  0
 35 68  1  0  0  0
 36 56  1  0  0  0
 36105  1  0  0  0
 37 39  1  0  0  0
 37 47  1  0  0  0
 37 66  1  0  0  0
 37106  1  0  0  0
 38 43  2  0  0  0
 38 46  1  0  0  0
 38 47  1  0  0  0
 39 64  1  0  0  0
 39 67  2  0  0  0
 40 52  1  0  0  0
 40 53  2  0  0  0
 40 58  1  0  0  0
 41107  1  0  0  0
 41108  1  0  0  0
 41109  1  0  0  0
 41 48  1  0  0  0
 42 43  1  0  0  0
 42 66  1  0  0  0
 42110  1  0  0  0
 42111  1  0  0  0
 43 44  1  0  0  0
 44112  1  0  0  0
 45 46  2  0  0  0
 45113  1  0  0  0
 46114  1  0  0  0
 47115  1  0  0  0
 47116  1  0  0  0
 48 56  1  0  0  0
 48 65  1  0  0  0
 48117  1  0  0  0
 49 50  1  0  0  0
 49 53  1  0  0  0
 49 64  1  0  0  0
 49118  1  0  0  0
 50 51  1  0  0  0
 50119  1  0  0  0
 50120  1  0  0  0
 51 52  1  0  0  0
 51121  1  0  0  0
 51122  1  0  0  0
 52123  1  0  0  0
 52124  1  0  0  0
 53 54  1  0  0  0
 54 55  2  0  0  0
 54125  1  0  0  0
 55 57  1  0  0  0
 55126  1  0  0  0
 56 69  2  0  0  0
 57 58  2  0  0  0
 57127  1  0  0  0
 58128  1  0  0  0
 59 60  1  0  0  0
 59 61  1  0  0  0
 59 62  1  0  0  0
 60129  1  0  0  0
 60130  1  0  0  0
 60131  1  0  0  0
 61132  1  0  0  0
 61133  1  0  0  0
 61134  1  0  0  0
 62135  1  0  0  0
 62136  1  0  0  0
 62137  1  0  0  0
 63 65  1  0  0  0
 63138  1  0  0  0
 63139  1  0  0  0
 63140  1  0  0  0
 64141  1  0  0  0
 65142  1  0  0  0
 68 79  1  0  0  0
 71 73  2  0  0  0
 71 74  1  0  0  0
 71143  1  0  0  0
 72 73  1  0  0  0
 72 81  2  0  0  0
 72144  1  0  0  0
 73 76  1  0  0  0
 74 80  1  0  0  0
 74 82  2  0  0  0
 75145  1  0  0  0
 75146  1  0  0  0
 75147  1  0  0  0
 75 80  1  0  0  0
 76 77  1  0  0  0
 76148  1  0  0  0
 76149  1  0  0  0
 77 78  1  0  0  0
 77150  1  0  0  0
 77151  1  0  0  0
 78 79  1  0  0  0
 78152  1  0  0  0
 78153  1  0  0  0
 79154  1  0  0  0
 79155  1  0  0  0
 80 83  1  0  0  0
 80156  1  0  0  0
 81 82  1  0  0  0
 83157  1  0  0  0
M  ISO  4   1 100  68 101  79 101  83 100
M  END
> <chiral flag>
0

> <version>
0

> <s_m_source_file>
/data/baiqing/PycharmProjects/Reinvent-master-3.2/result/LINK_invent/BTK/process_docking_weight1_custom_sum_contain_oxygen_bond_distance_aromatic_linkinvent_7_9_3/rearranged_h_0079.sdf

> <i_m_source_file_index>
44

> <r_mmod_Potential_Energy-OPLS-2005>
53.3811721801758

> <r_mmod_Stretch_Energy-OPLS-2005>
54.6928634643555

> <r_mmod_Bend_Energy-OPLS-2005>
130.357727050781

> <r_mmod_Torsional_Energy-OPLS-2005>
261.583862304688

> <r_mmod_Improper_Torsional_Energy-OPLS-2005>
16.0074996948242

> <r_mmod_Van_der_Waal_Energy-OPLS-2005>
147.588073730469

> <r_mmod_Electrostatic_Energy-OPLS-2005>
-353.823394775391

> <r_mmod_Solvation_Energy-OPLS-2005>
-240.730194091797

> <b_mmod_Minimization_Converged-OPLS-2005>
0

> <r_mmod_RMS_Derivative-OPLS-2005>
4.79809045791626

$$$$
44
                    3D
 Structure written by MMmdl.
168176  0  0  1  0            999 V2000
  -30.7440  -14.4078   20.6556 C   0  0  0  0  0  0
  -30.4161  -12.3081   19.3987 C   0  0  0  0  0  0
  -29.4777  -12.5111   18.1944 C   0  0  0  0  0  0
  -28.0021  -12.3800   18.6132 C   0  0  0  0  0  0
  -27.6606  -13.2066   19.8801 C   0  0  2  0  0  0
  -28.7006  -12.9615   20.9930 C   0  0  0  0  0  0
  -25.2579  -13.8168   20.5694 C   0  0  0  0  0  0
  -24.1823  -13.0436   20.9183 C   0  0  0  0  0  0
  -24.6380  -11.6908   20.8745 C   0  0  0  0  0  0
  -23.9057  -10.4290   21.0406 C   0  0  0  0  0  0
  -24.3611   -9.4206   21.9184 C   0  0  0  0  0  0
  -23.6282   -8.2243   22.0757 C   0  0  0  0  0  0
  -22.4272   -8.0284   21.3546 C   0  0  0  0  0  0
  -21.9908   -9.0256   20.4647 C   0  0  0  0  0  0
  -22.7231  -10.2136   20.3053 C   0  0  0  0  0  0
  -21.6855   -6.0728   22.5277 C   0  0  0  0  0  0
  -21.4011   -6.5630   23.8214 C   0  0  0  0  0  0
  -21.3653   -5.6783   24.9177 C   0  0  0  0  0  0
  -21.6047   -4.3047   24.7222 C   0  0  0  0  0  0
  -21.8819   -3.8139   23.4343 C   0  0  0  0  0  0
  -21.9192   -4.6955   22.3399 C   0  0  0  0  0  0
  -22.7854  -13.5238   21.1854 C   0  0  0  0  0  0
  -22.1666   -4.2146   21.0974 F   0  0  0  0  0  0
  -21.5627   -3.4527   25.7732 F   0  0  0  0  0  0
  -30.0324  -13.2699   20.4436 N   0  0  0  0  0  0
  -26.3010  -12.9330   20.3399 N   0  0  0  0  0  0
  -25.9307  -11.6493   20.5786 N   0  0  0  0  0  0
  -22.0506  -12.8208   22.0405 N   0  0  0  0  0  0
  -25.4317  -15.1873   20.4079 N   0  0  0  0  0  0
  -31.8234  -14.6379   20.1031 O   0  0  0  0  0  0
  -21.6648   -6.8878   21.4242 O   0  0  0  0  0  0
  -22.3539  -14.5547   20.6720 O   0  0  0  0  0  0
  -24.6102  -31.8716   23.2126 C   0  0  0  0  0  0
  -25.8999  -32.4835   23.8439 C   0  0  1  0  0  0
  -27.2346  -27.4670   20.0856 C   0  0  0  0  0  0
  -25.5863  -33.8634   24.2356 N   0  0  0  0  0  0
  -23.3972  -30.4962   21.5536 C   0  0  2  0  0  0
  -24.8416  -28.9591   20.1219 C   0  0  0  0  0  0
  -22.7380  -29.4705   22.5025 C   0  0  0  0  0  0
  -18.0278  -28.1393   22.8505 C   0  0  0  0  0  0
  -24.1494  -36.7333   23.2660 C   0  0  0  0  0  0
  -25.9229  -30.8427   21.3650 C   0  0  0  0  0  0
  -26.0004  -29.4790   20.7130 C   0  0  0  0  0  0
  -27.2014  -28.7383   20.6955 C   0  0  0  0  0  0
  -26.0605  -26.9505   19.4989 C   0  0  0  0  0  0
  -24.8615  -27.6886   19.5199 C   0  0  0  0  0  0
  -23.6013  -29.8234   20.1707 C   0  0  0  0  0  0
  -25.4113  -36.3126   24.0350 C   0  0  1  0  0  0
  -20.5865  -28.3707   23.1325 C   0  0  2  0  0  0
  -20.6783  -26.9453   22.5431 C   0  0  0  0  0  0
  -19.5748  -26.6404   21.5246 C   0  0  0  0  0  0
  -18.1924  -26.7941   22.1639 C   0  0  0  0  0  0
  -19.1523  -28.8858   23.2910 C   0  0  0  0  0  0
  -18.9454  -30.1461   23.8941 C   0  0  0  0  0  0
  -17.6464  -30.6613   24.0579 C   0  0  0  0  0  0
  -25.9026  -34.9481   23.5160 C   0  0  0  0  0  0
  -16.5349  -29.9115   23.6351 C   0  0  0  0  0  0
  -16.7264  -28.6524   23.0384 C   0  0  0  0  0  0
  -26.4442  -31.6620   25.0768 C   0  0  0  0  0  0
  -25.3716  -31.3655   26.1523 C   0  0  0  0  0  0
  -27.0328  -30.3089   24.6139 C   0  0  0  0  0  0
  -27.6021  -32.4373   25.7497 C   0  0  0  0  0  0
  -27.5592  -37.1797   24.8469 C   0  0  0  0  0  0
  -21.4118  -29.3049   22.3710 N   0  0  0  0  0  0
  -26.4303  -37.3806   23.9416 N   0  0  0  0  0  0
  -24.6614  -31.0835   22.1015 N   0  0  0  0  0  0
  -23.4156  -28.8287   23.3095 O   0  0  0  0  0  0
  -28.4116  -26.7634   20.0434 O   0  0  0  0  0  0
  -26.5624  -34.8935   22.4749 O   0  0  0  0  0  0
  -23.5292  -32.1468   23.7518 O   0  0  0  0  0  0
  -29.8006  -19.4773   20.0857 C   0  0  0  0  0  0
  -30.1998  -18.6873   21.1982 C   0  0  0  0  0  0
  -29.0169  -20.4820   20.5959 C   0  0  0  0  0  0
  -32.5891  -18.2544   21.6642 C   0  0  0  0  0  0
  -28.9170  -21.7540   18.4271 C   0  0  0  0  0  0
  -26.8456  -21.4073   19.7619 C   0  0  0  0  0  0
  -28.2348  -20.9107   23.0337 C   0  0  0  0  0  0
  -28.3059  -24.3124   19.8546 C   0  0  0  0  0  0
  -28.6480  -23.0037   20.6025 C   0  0  0  0  0  0
  -30.9379  -16.3893   22.1511 C   0  0  0  0  0  0
  -28.4201  -25.5400   20.7738 C   0  0  0  0  0  0
  -31.2633  -17.6071   21.2369 C   0  0  1  0  0  0
  -28.3635  -21.6555   19.8703 C   0  0  0  0  0  0
  -29.6725  -19.1476   22.3198 N   0  0  0  0  0  0
  -28.9260  -20.2153   21.9626 N   0  0  0  0  0  0
  -30.2082  -15.2825   21.5210 N   0  0  0  0  0  0
  -31.4551  -12.4244   19.0851 H   0  0  0  0  0  0
  -30.3351  -11.2906   19.7838 H   0  0  0  0  0  0
  -29.7045  -11.7834   17.4148 H   0  0  0  0  0  0
  -29.6489  -13.4944   17.7542 H   0  0  0  0  0  0
  -27.8005  -11.3245   18.7966 H   0  0  0  0  0  0
  -27.3502  -12.6770   17.7905 H   0  0  0  0  0  0
  -27.7153  -14.2595   19.6023 H   0  0  0  0  0  0
  -28.6753  -11.9188   21.3125 H   0  0  0  0  0  0
  -28.4534  -13.5385   21.8837 H   0  0  0  0  0  0
  -25.2755   -9.5690   22.4770 H   0  0  0  0  0  0
  -23.9996   -7.4644   22.7482 H   0  0  0  0  0  0
  -21.0844   -8.8759   19.8959 H   0  0  0  0  0  0
  -22.3671  -10.9674   19.6174 H   0  0  0  0  0  0
  -21.2004   -7.6144   23.9714 H   0  0  0  0  0  0
  -21.1472   -6.0514   25.9083 H   0  0  0  0  0  0
  -22.0599   -2.7600   23.2839 H   0  0  0  0  0  0
  -22.4140  -11.9856   22.4756 H   0  0  0  0  0  0
  -21.1137  -13.1239   22.2664 H   0  0  0  0  0  0
  -24.6714  -15.8491   20.5205 H   0  0  0  0  0  0
  -26.2916  -15.6216   20.0950 H   0  0  0  0  0  0
  -26.7066  -32.5572   23.1212 H   0  0  0  0  0  0
  -24.9935  -33.9788   25.0444 H   0  0  0  0  0  0
  -22.6846  -31.3114   21.4139 H   0  0  0  0  0  0
  -23.3769  -35.9654   23.3302 H   0  0  0  0  0  0
  -24.3593  -36.8989   22.2083 H   0  0  0  0  0  0
  -23.7223  -37.6507   23.6718 H   0  0  0  0  0  0
  -26.0345  -31.6091   20.5971 H   0  0  0  0  0  0
  -26.8078  -30.8954   21.9861 H   0  0  0  0  0  0
  -28.0981  -29.1333   21.1544 H   0  0  0  0  0  0
  -26.0705  -25.9899   19.0094 H   0  0  0  0  0  0
  -23.9698  -27.2785   19.0665 H   0  0  0  0  0  0
  -23.6982  -30.5950   19.4062 H   0  0  0  0  0  0
  -22.7254  -29.2376   19.8843 H   0  0  0  0  0  0
  -25.1284  -36.2009   25.0840 H   0  0  0  0  0  0
  -20.9943  -28.3309   24.1445 H   0  0  0  0  0  0
  -20.5777  -26.2312   23.3614 H   0  0  0  0  0  0
  -21.6643  -26.7554   22.1177 H   0  0  0  0  0  0
  -19.6937  -25.6321   21.1266 H   0  0  0  0  0  0
  -19.6695  -27.3215   20.6781 H   0  0  0  0  0  0
  -17.4212  -26.6723   21.4021 H   0  0  0  0  0  0
  -18.0291  -26.0078   22.9016 H   0  0  0  0  0  0
  -19.7940  -30.7252   24.2330 H   0  0  0  0  0  0
  -17.5044  -31.6303   24.5166 H   0  0  0  0  0  0
  -15.5355  -30.3051   23.7666 H   0  0  0  0  0  0
  -15.8646  -28.0849   22.7124 H   0  0  0  0  0  0
  -24.5885  -30.7026   25.7829 H   0  0  0  0  0  0
  -24.8897  -32.2763   26.5079 H   0  0  0  0  0  0
  -25.8074  -30.8735   27.0231 H   0  0  0  0  0  0
  -26.2885  -29.6779   24.1266 H   0  0  0  0  0  0
  -27.4200  -29.7388   25.4596 H   0  0  0  0  0  0
  -27.8667  -30.4454   23.9251 H   0  0  0  0  0  0
  -27.2664  -33.3702   26.2049 H   0  0  0  0  0  0
  -28.3794  -32.6895   25.0272 H   0  0  0  0  0  0
  -28.0746  -31.8538   26.5405 H   0  0  0  0  0  0
  -28.2574  -38.0134   24.7599 H   0  0  0  0  0  0
  -28.1111  -36.2655   24.6211 H   0  0  0  0  0  0
  -27.2306  -37.1356   25.8869 H   0  0  0  0  0  0
  -20.9296  -29.8681   21.6843 H   0  0  0  0  0  0
  -26.0201  -38.2884   24.1444 H   0  0  0  0  0  0
  -30.1092  -19.3564   19.0578 H   0  0  0  0  0  0
  -32.8480  -19.0795   21.0008 H   0  0  0  0  0  0
  -33.4095  -17.5378   21.6311 H   0  0  0  0  0  0
  -32.5282  -18.6509   22.6781 H   0  0  0  0  0  0
  -28.7252  -20.8437   17.8606 H   0  0  0  0  0  0
  -29.9946  -21.9244   18.4217 H   0  0  0  0  0  0
  -28.4580  -22.5632   17.8594 H   0  0  0  0  0  0
  -26.6459  -20.4854   19.2142 H   0  0  0  0  0  0
  -26.3297  -22.2120   19.2380 H   0  0  0  0  0  0
  -26.3717  -21.3030   20.7356 H   0  0  0  0  0  0
  -28.8435  -21.7473   23.3791 H   0  0  0  0  0  0
  -28.0678  -20.2375   23.8754 H   0  0  0  0  0  0
  -27.2625  -21.2712   22.7072 H   0  0  0  0  0  0
  -27.3007  -24.2531   19.4452 H   0  0  0  0  0  0
  -28.9835  -24.4498   19.0118 H   0  0  0  0  0  0
  -28.1066  -23.0317   21.5453 H   0  0  0  0  0  0
  -29.7056  -23.0425   20.8689 H   0  0  0  0  0  0
  -30.4222  -16.7045   23.0589 H   0  0  0  0  0  0
  -31.8748  -15.9573   22.5069 H   0  0  0  0  0  0
  -29.3717  -25.5025   21.3040 H   0  0  0  0  0  0
  -27.6440  -25.5203   21.5430 H   0  0  0  0  0  0
  -31.4147  -17.2449   20.2196 H   0  0  0  0  0  0
  -29.2978  -15.0574   21.8940 H   0  0  0  0  0  0
  1 25  1  0  0  0
  1 30  2  0  0  0
  1 86  1  0  0  0
  2  3  1  0  0  0
  2 25  1  0  0  0
  2 87  1  0  0  0
  2 88  1  0  0  0
  3  4  1  0  0  0
  3 89  1  0  0  0
  3 90  1  0  0  0
  4  5  1  0  0  0
  4 91  1  0  0  0
  4 92  1  0  0  0
  5  6  1  0  0  0
  5 26  1  0  0  0
  5 93  1  0  0  0
  6 25  1  0  0  0
  6 94  1  0  0  0
  6 95  1  0  0  0
  7  8  2  0  0  0
  7 26  1  0  0  0
  7 29  1  0  0  0
  8  9  1  0  0  0
  8 22  1  0  0  0
  9 10  1  0  0  0
  9 27  2  0  0  0
 10 11  2  0  0  0
 10 15  1  0  0  0
 11 12  1  0  0  0
 11 96  1  0  0  0
 12 13  2  0  0  0
 12 97  1  0  0  0
 13 14  1  0  0  0
 13 31  1  0  0  0
 14 15  2  0  0  0
 14 98  1  0  0  0
 15 99  1  0  0  0
 16 17  2  0  0  0
 16 21  1  0  0  0
 16 31  1  0  0  0
 17 18  1  0  0  0
 17100  1  0  0  0
 18 19  2  0  0  0
 18101  1  0  0  0
 19 20  1  0  0  0
 19 24  1  0  0  0
 20 21  2  0  0  0
 20102  1  0  0  0
 21 23  1  0  0  0
 22 28  1  0  0  0
 22 32  2  0  0  0
 26 27  1  0  0  0
 28103  1  0  0  0
 28104  1  0  0  0
 29105  1  0  0  0
 29106  1  0  0  0
 33 34  1  0  0  0
 33 66  1  0  0  0
 33 70  2  0  0  0
 34 36  1  0  0  0
 34 59  1  0  0  0
 34107  1  0  0  0
 35 44  2  0  0  0
 35 45  1  0  0  0
 35 68  1  0  0  0
 36 56  1  0  0  0
 36108  1  0  0  0
 37 39  1  0  0  0
 37 47  1  0  0  0
 37 66  1  0  0  0
 37109  1  0  0  0
 38 43  2  0  0  0
 38 46  1  0  0  0
 38 47  1  0  0  0
 39 64  1  0  0  0
 39 67  2  0  0  0
 40 52  1  0  0  0
 40 53  2  0  0  0
 40 58  1  0  0  0
 41110  1  0  0  0
 41111  1  0  0  0
 41112  1  0  0  0
 41 48  1  0  0  0
 42 43  1  0  0  0
 42 66  1  0  0  0
 42113  1  0  0  0
 42114  1  0  0  0
 43 44  1  0  0  0
 44115  1  0  0  0
 45 46  2  0  0  0
 45116  1  0  0  0
 46117  1  0  0  0
 47118  1  0  0  0
 47119  1  0  0  0
 48 56  1  0  0  0
 48 65  1  0  0  0
 48120  1  0  0  0
 49 50  1  0  0  0
 49 53  1  0  0  0
 49 64  1  0  0  0
 49121  1  0  0  0
 50 51  1  0  0  0
 50122  1  0  0  0
 50123  1  0  0  0
 51 52  1  0  0  0
 51124  1  0  0  0
 51125  1  0  0  0
 52126  1  0  0  0
 52127  1  0  0  0
 53 54  1  0  0  0
 54 55  2  0  0  0
 54128  1  0  0  0
 55 57  1  0  0  0
 55129  1  0  0  0
 56 69  2  0  0  0
 57 58  2  0  0  0
 57130  1  0  0  0
 58131  1  0  0  0
 59 60  1  0  0  0
 59 61  1  0  0  0
 59 62  1  0  0  0
 60132  1  0  0  0
 60133  1  0  0  0
 60134  1  0  0  0
 61135  1  0  0  0
 61136  1  0  0  0
 61137  1  0  0  0
 62138  1  0  0  0
 62139  1  0  0  0
 62140  1  0  0  0
 63 65  1  0  0  0
 63141  1  0  0  0
 63142  1  0  0  0
 63143  1  0  0  0
 64144  1  0  0  0
 65145  1  0  0  0
 68 81  1  0  0  0
 71 72  1  0  0  0
 71 73  2  0  0  0
 71146  1  0  0  0
 72 82  1  0  0  0
 72 84  2  0  0  0
 73 83  1  0  0  0
 73 85  1  0  0  0
 74147  1  0  0  0
 74148  1  0  0  0
 74149  1  0  0  0
 74 82  1  0  0  0
 75150  1  0  0  0
 75151  1  0  0  0
 75152  1  0  0  0
 75 83  1  0  0  0
 76 83  1  0  0  0
 76153  1  0  0  0
 76154  1  0  0  0
 76155  1  0  0  0
 77 85  1  0  0  0
 77156  1  0  0  0
 77157  1  0  0  0
 77158  1  0  0  0
 78 79  1  0  0  0
 78 81  1  0  0  0
 78159  1  0  0  0
 78160  1  0  0  0
 79 83  1  0  0  0
 79161  1  0  0  0
 79162  1  0  0  0
 80 82  1  0  0  0
 80 86  1  0  0  0
 80163  1  0  0  0
 80164  1  0  0  0
 81165  1  0  0  0
 81166  1  0  0  0
 82167  1  0  0  0
 84 85  1  0  0  0
 86168  1  0  0  0
M  ISO  4   1 100  68 101  81 101  86 100
M  END
> <chiral flag>
0

> <version>
0

> <s_m_source_file>
/data/baiqing/PycharmProjects/Reinvent-master-3.2/result/LINK_invent/BTK/process_docking_weight1_custom_sum_contain_oxygen_bond_distance_aromatic_linkinvent_7_9_3/rearranged_h_0079.sdf

> <i_m_source_file_index>
45

> <r_mmod_Potential_Energy-OPLS-2005>
-114.544540405273

> <r_mmod_Stretch_Energy-OPLS-2005>
34.5080451965332

> <r_mmod_Bend_Energy-OPLS-2005>
106.819129943848

> <r_mmod_Torsional_Energy-OPLS-2005>
235.287704467773

> <r_mmod_Improper_Torsional_Energy-OPLS-2005>
3.0024094581604

> <r_mmod_Van_der_Waal_Energy-OPLS-2005>
138.988159179688

> <r_mmod_Electrostatic_Energy-OPLS-2005>
-439.780944824219

> <r_mmod_Solvation_Energy-OPLS-2005>
-201.261535644531

> <b_mmod_Minimization_Converged-OPLS-2005>
0

> <r_mmod_RMS_Derivative-OPLS-2005>
2.76353120803833

$$$$
45
                    3D
 Structure written by MMmdl.
179186  0  0  1  0            999 V2000
  -30.7490  -14.3817   20.6456 C   0  0  0  0  0  0
  -30.4112  -12.2893   19.3903 C   0  0  0  0  0  0
  -29.4779  -12.5237   18.1877 C   0  0  0  0  0  0
  -28.0021  -12.3839   18.6065 C   0  0  0  0  0  0
  -27.6612  -13.2055   19.8785 C   0  0  2  0  0  0
  -28.7011  -12.9480   20.9900 C   0  0  0  0  0  0
  -25.2568  -13.8165   20.5666 C   0  0  0  0  0  0
  -24.1820  -13.0441   20.9148 C   0  0  0  0  0  0
  -24.6365  -11.6907   20.8715 C   0  0  0  0  0  0
  -23.9041  -10.4296   21.0392 C   0  0  0  0  0  0
  -24.3596   -9.4218   21.9178 C   0  0  0  0  0  0
  -23.6274   -8.2248   22.0750 C   0  0  0  0  0  0
  -22.4264   -8.0279   21.3538 C   0  0  0  0  0  0
  -21.9895   -9.0247   20.4639 C   0  0  0  0  0  0
  -22.7212  -10.2133   20.3045 C   0  0  0  0  0  0
  -21.6858   -6.0728   22.5273 C   0  0  0  0  0  0
  -21.4017   -6.5633   23.8209 C   0  0  0  0  0  0
  -21.3660   -5.6787   24.9166 C   0  0  0  0  0  0
  -21.6047   -4.3050   24.7227 C   0  0  0  0  0  0
  -21.8821   -3.8142   23.4344 C   0  0  0  0  0  0
  -21.9193   -4.6951   22.3398 C   0  0  0  0  0  0
  -22.7848  -13.5248   21.1838 C   0  0  0  0  0  0
  -22.1662   -4.2137   21.0978 F   0  0  0  0  0  0
  -21.5632   -3.4538   25.7738 F   0  0  0  0  0  0
  -30.0377  -13.2439   20.4430 N   0  0  0  0  0  0
  -26.3011  -12.9330   20.3393 N   0  0  0  0  0  0
  -25.9299  -11.6488   20.5759 N   0  0  0  0  0  0
  -22.0488  -12.8230   22.0377 N   0  0  0  0  0  0
  -25.4301  -15.1869   20.4085 N   0  0  0  0  0  0
  -31.8119  -14.6324   20.0699 O   0  0  0  0  0  0
  -21.6639   -6.8867   21.4231 O   0  0  0  0  0  0
  -22.3528  -14.5563   20.6698 O   0  0  0  0  0  0
  -24.6113  -31.8700   23.2132 C   0  0  0  0  0  0
  -25.9001  -32.4857   23.8423 C   0  0  1  0  0  0
  -27.2324  -27.4564   20.0898 C   0  0  0  0  0  0
  -25.5841  -33.8648   24.2355 N   0  0  0  0  0  0
  -23.4014  -30.4902   21.5563 C   0  0  2  0  0  0
  -24.8475  -28.9574   20.1201 C   0  0  0  0  0  0
  -22.7413  -29.4655   22.5047 C   0  0  0  0  0  0
  -18.0259  -28.1375   22.8507 C   0  0  0  0  0  0
  -24.1470  -36.7338   23.2630 C   0  0  0  0  0  0
  -25.9283  -30.8335   21.3709 C   0  0  0  0  0  0
  -26.0048  -29.4696   20.7219 C   0  0  0  0  0  0
  -27.2016  -28.7202   20.7155 C   0  0  0  0  0  0
  -26.0704  -26.9580   19.4721 C   0  0  0  0  0  0
  -24.8710  -27.6957   19.4996 C   0  0  0  0  0  0
  -23.6088  -29.8232   20.1706 C   0  0  0  0  0  0
  -25.4098  -36.3149   24.0334 C   0  0  1  0  0  0
  -20.5844  -28.3635   23.1345 C   0  0  2  0  0  0
  -20.6755  -26.9378   22.5424 C   0  0  0  0  0  0
  -19.5733  -26.6380   21.5228 C   0  0  0  0  0  0
  -18.1908  -26.7922   22.1630 C   0  0  0  0  0  0
  -19.1509  -28.8831   23.2913 C   0  0  0  0  0  0
  -18.9434  -30.1438   23.8899 C   0  0  0  0  0  0
  -17.6444  -30.6575   24.0570 C   0  0  0  0  0  0
  -25.9019  -34.9502   23.5157 C   0  0  0  0  0  0
  -16.5335  -29.9080   23.6332 C   0  0  0  0  0  0
  -16.7245  -28.6498   23.0353 C   0  0  0  0  0  0
  -26.4426  -31.6633   25.0753 C   0  0  0  0  0  0
  -25.3668  -31.3724   26.1485 C   0  0  0  0  0  0
  -27.0260  -30.3079   24.6123 C   0  0  0  0  0  0
  -27.6005  -32.4357   25.7497 C   0  0  0  0  0  0
  -27.5595  -37.1815   24.8454 C   0  0  0  0  0  0
  -21.4143  -29.3003   22.3770 N   0  0  0  0  0  0
  -26.4316  -37.3800   23.9397 N   0  0  0  0  0  0
  -24.6653  -31.0778   22.1054 N   0  0  0  0  0  0
  -23.4183  -28.8200   23.3096 O   0  0  0  0  0  0
  -28.3947  -26.7345   20.0271 O   0  0  0  0  0  0
  -26.5616  -34.8934   22.4733 O   0  0  0  0  0  0
  -23.5314  -32.1448   23.7529 O   0  0  0  0  0  0
  -24.6800  -21.4383   22.6705 C   0  0  0  0  0  0
  -29.1075  -21.1347   22.8574 C   0  0  0  0  0  0
  -28.7377  -18.4139   20.1082 C   0  0  0  0  0  0
  -29.7296  -16.1153   24.2359 C   0  0  0  0  0  0
  -31.0980  -18.1483   23.8245 C   0  0  0  0  0  0
  -26.7009  -24.0836   21.4156 C   0  0  0  0  0  0
  -28.0728  -24.4148   20.7928 C   0  0  0  0  0  0
  -26.1898  -22.6723   21.0458 C   0  0  0  0  0  0
  -26.8285  -20.3128   21.9176 C   0  0  0  0  0  0
  -30.9126  -16.4224   22.0242 C   0  0  0  0  0  0
  -28.6108  -25.8262   21.1065 C   0  0  0  0  0  0
  -26.1360  -21.6651   22.2242 C   0  0  2  0  0  0
  -28.3754  -20.3555   21.7435 C   0  0  2  0  0  0
  -29.0446  -18.9618   21.5172 C   0  0  1  0  0  0
  -30.1319  -17.1455   23.1522 C   0  0  0  0  0  0
  -28.8416  -17.8801   22.6432 C   0  0  0  0  0  0
  -30.2251  -15.2353   21.5268 N   0  0  0  0  0  0
  -28.3092  -18.4341   23.7333 F   0  0  0  0  0  0
  -27.9522  -16.9806   22.2131 F   0  0  0  0  0  0
  -31.4543  -12.3881   19.0834 H   0  0  0  0  0  0
  -30.3084  -11.2688   19.7622 H   0  0  0  0  0  0
  -29.7068  -11.8180   17.3883 H   0  0  0  0  0  0
  -29.6496  -13.5199   17.7762 H   0  0  0  0  0  0
  -27.8049  -11.3268   18.7847 H   0  0  0  0  0  0
  -27.3487  -12.6796   17.7848 H   0  0  0  0  0  0
  -27.7178  -14.2605   19.6080 H   0  0  0  0  0  0
  -28.6649  -11.9036   21.3029 H   0  0  0  0  0  0
  -28.4560  -13.5213   21.8843 H   0  0  0  0  0  0
  -25.2741   -9.5711   22.4750 H   0  0  0  0  0  0
  -23.9993   -7.4649   22.7478 H   0  0  0  0  0  0
  -21.0829   -8.8754   19.8945 H   0  0  0  0  0  0
  -22.3661  -10.9662   19.6152 H   0  0  0  0  0  0
  -21.2011   -7.6143   23.9704 H   0  0  0  0  0  0
  -21.1481   -6.0521   25.9073 H   0  0  0  0  0  0
  -22.0599   -2.7601   23.2849 H   0  0  0  0  0  0
  -22.4097  -11.9879   22.4751 H   0  0  0  0  0  0
  -21.1100  -13.1245   22.2588 H   0  0  0  0  0  0
  -24.6773  -15.8497   20.5534 H   0  0  0  0  0  0
  -26.3114  -15.6309   20.1831 H   0  0  0  0  0  0
  -26.7077  -32.5566   23.1189 H   0  0  0  0  0  0
  -24.9921  -33.9801   25.0458 H   0  0  0  0  0  0
  -22.6873  -31.3054   21.4202 H   0  0  0  0  0  0
  -23.3742  -35.9658   23.3318 H   0  0  0  0  0  0
  -24.3542  -36.8941   22.2040 H   0  0  0  0  0  0
  -23.7235  -37.6543   23.6641 H   0  0  0  0  0  0
  -26.0438  -31.5967   20.6014 H   0  0  0  0  0  0
  -26.8127  -30.8861   21.9935 H   0  0  0  0  0  0
  -28.1010  -29.1051   21.1751 H   0  0  0  0  0  0
  -26.0940  -26.0014   18.9706 H   0  0  0  0  0  0
  -23.9824  -27.2932   19.0314 H   0  0  0  0  0  0
  -23.7110  -30.5998   19.4111 H   0  0  0  0  0  0
  -22.7326  -29.2420   19.8818 H   0  0  0  0  0  0
  -25.1277  -36.2044   25.0830 H   0  0  0  0  0  0
  -20.9905  -28.3194   24.1479 H   0  0  0  0  0  0
  -20.5700  -26.2216   23.3584 H   0  0  0  0  0  0
  -21.6623  -26.7455   22.1200 H   0  0  0  0  0  0
  -19.6887  -25.6304   21.1233 H   0  0  0  0  0  0
  -19.6709  -27.3206   20.6782 H   0  0  0  0  0  0
  -17.4191  -26.6682   21.4023 H   0  0  0  0  0  0
  -18.0286  -26.0069   22.9029 H   0  0  0  0  0  0
  -19.7914  -30.7247   24.2280 H   0  0  0  0  0  0
  -17.4996  -31.6257   24.5160 H   0  0  0  0  0  0
  -15.5331  -30.2973   23.7659 H   0  0  0  0  0  0
  -15.8647  -28.0815   22.7064 H   0  0  0  0  0  0
  -24.5819  -30.7116   25.7791 H   0  0  0  0  0  0
  -24.8857  -32.2858   26.4985 H   0  0  0  0  0  0
  -25.7983  -30.8841   27.0221 H   0  0  0  0  0  0
  -26.2828  -29.6876   24.1104 H   0  0  0  0  0  0
  -27.3943  -29.7301   25.4604 H   0  0  0  0  0  0
  -27.8692  -30.4412   23.9347 H   0  0  0  0  0  0
  -27.2637  -33.3651   26.2104 H   0  0  0  0  0  0
  -28.3783  -32.6933   25.0295 H   0  0  0  0  0  0
  -28.0700  -31.8472   26.5386 H   0  0  0  0  0  0
  -28.2601  -38.0126   24.7521 H   0  0  0  0  0  0
  -28.1129  -36.2659   24.6291 H   0  0  0  0  0  0
  -27.2297  -37.1459   25.8850 H   0  0  0  0  0  0
  -20.9310  -29.8740   21.7007 H   0  0  0  0  0  0
  -26.0245  -38.2881   24.1402 H   0  0  0  0  0  0
  -24.2012  -22.3756   22.9593 H   0  0  0  0  0  0
  -24.6261  -20.7762   23.5351 H   0  0  0  0  0  0
  -24.0806  -20.9880   21.8771 H   0  0  0  0  0  0
  -28.8217  -22.1862   22.8683 H   0  0  0  0  0  0
  -30.1886  -21.1135   22.7099 H   0  0  0  0  0  0
  -28.9009  -20.7358   23.8496 H   0  0  0  0  0  0
  -29.0305  -19.1289   19.3382 H   0  0  0  0  0  0
  -27.6774  -18.1989   19.9771 H   0  0  0  0  0  0
  -29.2831  -17.4917   19.9106 H   0  0  0  0  0  0
  -30.5868  -15.5261   24.5629 H   0  0  0  0  0  0
  -28.9690  -15.4200   23.8809 H   0  0  0  0  0  0
  -29.3180  -16.6073   25.1175 H   0  0  0  0  0  0
  -31.9607  -17.6351   24.2507 H   0  0  0  0  0  0
  -30.6143  -18.6860   24.6401 H   0  0  0  0  0  0
  -31.4872  -18.8908   23.1296 H   0  0  0  0  0  0
  -25.9624  -24.8126   21.0875 H   0  0  0  0  0  0
  -26.7498  -24.2078   22.4980 H   0  0  0  0  0  0
  -28.0426  -24.2712   19.7122 H   0  0  0  0  0  0
  -28.7959  -23.6878   21.1603 H   0  0  0  0  0  0
  -26.7754  -22.2686   20.2193 H   0  0  0  0  0  0
  -25.1901  -22.7755   20.6223 H   0  0  0  0  0  0
  -26.3724  -19.8789   21.0279 H   0  0  0  0  0  0
  -26.5831  -19.6271   22.7260 H   0  0  0  0  0  0
  -31.8818  -16.0979   22.4068 H   0  0  0  0  0  0
  -31.1385  -17.0963   21.1979 H   0  0  0  0  0  0
  -29.6931  -25.7620   21.2285 H   0  0  0  0  0  0
  -28.2253  -26.2092   22.0534 H   0  0  0  0  0  0
  -26.6329  -22.0902   23.0945 H   0  0  0  0  0  0
  -28.5665  -20.9291   20.8363 H   0  0  0  0  0  0
  -30.1097  -19.1813   21.4737 H   0  0  0  0  0  0
  -29.3276  -15.0165   21.9295 H   0  0  0  0  0  0
  1 25  1  0  0  0
  1 30  2  0  0  0
  1 87  1  0  0  0
  2  3  1  0  0  0
  2 25  1  0  0  0
  2 90  1  0  0  0
  2 91  1  0  0  0
  3  4  1  0  0  0
  3 92  1  0  0  0
  3 93  1  0  0  0
  4  5  1  0  0  0
  4 94  1  0  0  0
  4 95  1  0  0  0
  5  6  1  0  0  0
  5 26  1  0  0  0
  5 96  1  0  0  0
  6 25  1  0  0  0
  6 97  1  0  0  0
  6 98  1  0  0  0
  7  8  2  0  0  0
  7 26  1  0  0  0
  7 29  1  0  0  0
  8  9  1  0  0  0
  8 22  1  0  0  0
  9 10  1  0  0  0
  9 27  2  0  0  0
 10 11  2  0  0  0
 10 15  1  0  0  0
 11 12  1  0  0  0
 11 99  1  0  0  0
 12 13  2  0  0  0
 12100  1  0  0  0
 13 14  1  0  0  0
 13 31  1  0  0  0
 14 15  2  0  0  0
 14101  1  0  0  0
 15102  1  0  0  0
 16 17  2  0  0  0
 16 21  1  0  0  0
 16 31  1  0  0  0
 17 18  1  0  0  0
 17103  1  0  0  0
 18 19  2  0  0  0
 18104  1  0  0  0
 19 20  1  0  0  0
 19 24  1  0  0  0
 20 21  2  0  0  0
 20105  1  0  0  0
 21 23  1  0  0  0
 22 28  1  0  0  0
 22 32  2  0  0  0
 26 27  1  0  0  0
 28106  1  0  0  0
 28107  1  0  0  0
 29108  1  0  0  0
 29109  1  0  0  0
 33 34  1  0  0  0
 33 66  1  0  0  0
 33 70  2  0  0  0
 34 36  1  0  0  0
 34 59  1  0  0  0
 34110  1  0  0  0
 35 44  2  0  0  0
 35 45  1  0  0  0
 35 68  1  0  0  0
 36 56  1  0  0  0
 36111  1  0  0  0
 37 39  1  0  0  0
 37 47  1  0  0  0
 37 66  1  0  0  0
 37112  1  0  0  0
 38 43  2  0  0  0
 38 46  1  0  0  0
 38 47  1  0  0  0
 39 64  1  0  0  0
 39 67  2  0  0  0
 40 52  1  0  0  0
 40 53  2  0  0  0
 40 58  1  0  0  0
 41113  1  0  0  0
 41114  1  0  0  0
 41115  1  0  0  0
 41 48  1  0  0  0
 42 43  1  0  0  0
 42 66  1  0  0  0
 42116  1  0  0  0
 42117  1  0  0  0
 43 44  1  0  0  0
 44118  1  0  0  0
 45 46  2  0  0  0
 45119  1  0  0  0
 46120  1  0  0  0
 47121  1  0  0  0
 47122  1  0  0  0
 48 56  1  0  0  0
 48 65  1  0  0  0
 48123  1  0  0  0
 49 50  1  0  0  0
 49 53  1  0  0  0
 49 64  1  0  0  0
 49124  1  0  0  0
 50 51  1  0  0  0
 50125  1  0  0  0
 50126  1  0  0  0
 51 52  1  0  0  0
 51127  1  0  0  0
 51128  1  0  0  0
 52129  1  0  0  0
 52130  1  0  0  0
 53 54  1  0  0  0
 54 55  2  0  0  0
 54131  1  0  0  0
 55 57  1  0  0  0
 55132  1  0  0  0
 56 69  2  0  0  0
 57 58  2  0  0  0
 57133  1  0  0  0
 58134  1  0  0  0
 59 60  1  0  0  0
 59 61  1  0  0  0
 59 62  1  0  0  0
 60135  1  0  0  0
 60136  1  0  0  0
 60137  1  0  0  0
 61138  1  0  0  0
 61139  1  0  0  0
 61140  1  0  0  0
 62141  1  0  0  0
 62142  1  0  0  0
 62143  1  0  0  0
 63 65  1  0  0  0
 63144  1  0  0  0
 63145  1  0  0  0
 63146  1  0  0  0
 64147  1  0  0  0
 65148  1  0  0  0
 68 81  1  0  0  0
 71149  1  0  0  0
 71150  1  0  0  0
 71151  1  0  0  0
 71 82  1  0  0  0
 72152  1  0  0  0
 72153  1  0  0  0
 72154  1  0  0  0
 72 83  1  0  0  0
 73155  1  0  0  0
 73156  1  0  0  0
 73157  1  0  0  0
 73 84  1  0  0  0
 74158  1  0  0  0
 74159  1  0  0  0
 74160  1  0  0  0
 74 85  1  0  0  0
 75 85  1  0  0  0
 75161  1  0  0  0
 75162  1  0  0  0
 75163  1  0  0  0
 76 77  1  0  0  0
 76 78  1  0  0  0
 76164  1  0  0  0
 76165  1  0  0  0
 77 81  1  0  0  0
 77166  1  0  0  0
 77167  1  0  0  0
 78 82  1  0  0  0
 78168  1  0  0  0
 78169  1  0  0  0
 79 82  1  0  0  0
 79 83  1  0  0  0
 79170  1  0  0  0
 79171  1  0  0  0
 80 85  1  0  0  0
 80 87  1  0  0  0
 80172  1  0  0  0
 80173  1  0  0  0
 81174  1  0  0  0
 81175  1  0  0  0
 82176  1  0  0  0
 83 84  1  0  0  0
 83177  1  0  0  0
 84 86  1  0  0  0
 84178  1  0  0  0
 85 86  1  0  0  0
 86 88  1  0  0  0
 86 89  1  0  0  0
 87179  1  0  0  0
M  ISO  4   1 100  68 101  81 101  87 100
M  END
> <chiral flag>
0

> <version>
0

> <s_m_source_file>
/data/baiqing/PycharmProjects/Reinvent-master-3.2/result/LINK_invent/BTK/process_docking_weight1_custom_sum_contain_oxygen_bond_distance_aromatic_linkinvent_7_9_3/rearranged_h_0079.sdf

> <i_m_source_file_index>
46

> <r_mmod_Potential_Energy-OPLS-2005>
10.1590566635132

> <r_mmod_Stretch_Energy-OPLS-2005>
38.2879257202148

> <r_mmod_Bend_Energy-OPLS-2005>
112.632110595703

> <r_mmod_Torsional_Energy-OPLS-2005>
314.114013671875

> <r_mmod_Improper_Torsional_Energy-OPLS-2005>
1.69765329360962

> <r_mmod_Van_der_Waal_Energy-OPLS-2005>
140.732849121094

> <r_mmod_Electrostatic_Energy-OPLS-2005>
-434.220916748047

> <r_mmod_Solvation_Energy-OPLS-2005>
-170.244903564453

> <b_mmod_Minimization_Converged-OPLS-2005>
0

> <r_mmod_RMS_Derivative-OPLS-2005>
2.60894727706909

$$$$
46
                    3D
 Structure written by MMmdl.
161168  0  0  1  0            999 V2000
  -30.4567  -15.2254   20.4303 C   0  0  0  0  0  0
  -30.4647  -12.7965   19.5171 C   0  0  0  0  0  0
  -29.5404  -12.6008   18.2838 C   0  0  0  0  0  0
  -28.0826  -12.3242   18.7030 C   0  0  0  0  0  0
  -27.6320  -13.2556   19.8535 C   0  0  2  0  0  0
  -28.6874  -13.3122   20.9844 C   0  0  0  0  0  0
  -25.2376  -13.8163   20.5690 C   0  0  0  0  0  0
  -24.1734  -13.0364   20.9219 C   0  0  0  0  0  0
  -24.6388  -11.6880   20.8758 C   0  0  0  0  0  0
  -23.9070  -10.4257   21.0411 C   0  0  0  0  0  0
  -24.3620   -9.4172   21.9196 C   0  0  0  0  0  0
  -23.6280   -8.2218   22.0761 C   0  0  0  0  0  0
  -22.4257   -8.0279   21.3548 C   0  0  0  0  0  0
  -21.9898   -9.0250   20.4640 C   0  0  0  0  0  0
  -22.7242  -10.2109   20.3046 C   0  0  0  0  0  0
  -21.6847   -6.0724   22.5292 C   0  0  0  0  0  0
  -21.4006   -6.5630   23.8228 C   0  0  0  0  0  0
  -21.3664   -5.6775   24.9192 C   0  0  0  0  0  0
  -21.6043   -4.3039   24.7235 C   0  0  0  0  0  0
  -21.8820   -3.8136   23.4355 C   0  0  0  0  0  0
  -21.9184   -4.6954   22.3417 C   0  0  0  0  0  0
  -22.7750  -13.5165   21.1862 C   0  0  0  0  0  0
  -22.1662   -4.2143   21.0990 F   0  0  0  0  0  0
  -21.5618   -3.4520   25.7755 F   0  0  0  0  0  0
  -29.9100  -13.9023   20.3867 N   0  0  0  0  0  0
  -26.2900  -12.9456   20.3345 N   0  0  0  0  0  0
  -25.9337  -11.6564   20.5764 N   0  0  0  0  0  0
  -22.0393  -12.8198   22.0437 N   0  0  0  0  0  0
  -25.3832  -15.1887   20.3986 N   0  0  0  0  0  0
  -31.6426  -15.2540   20.0695 O   0  0  0  0  0  0
  -21.6614   -6.8873   21.4254 O   0  0  0  0  0  0
  -22.3461  -14.5477   20.6719 O   0  0  0  0  0  0
  -24.6581  -31.8276   23.1741 C   0  0  0  0  0  0
  -25.9287  -32.4619   23.8168 C   0  0  1  0  0  0
  -27.2376  -26.9958   20.1695 C   0  0  0  0  0  0
  -25.5969  -33.8423   24.2090 N   0  0  0  0  0  0
  -23.4714  -30.4404   21.5196 C   0  0  2  0  0  0
  -24.9276  -28.8379   20.1109 C   0  0  0  0  0  0
  -22.7641  -29.4473   22.4774 C   0  0  0  0  0  0
  -18.0324  -28.1410   22.8491 C   0  0  0  0  0  0
  -24.1493  -36.7219   23.2638 C   0  0  0  0  0  0
  -26.0371  -30.6585   21.3931 C   0  0  0  0  0  0
  -26.1103  -29.2540   20.7361 C   0  0  0  0  0  0
  -27.2592  -28.3533   20.7399 C   0  0  0  0  0  0
  -26.0265  -26.7139   19.4954 C   0  0  0  0  0  0
  -24.9084  -27.5873   19.4712 C   0  0  0  0  0  0
  -23.7077  -29.7555   20.1457 C   0  0  0  0  0  0
  -25.4131  -36.2979   24.0295 C   0  0  1  0  0  0
  -20.5950  -28.3761   23.1201 C   0  0  2  0  0  0
  -20.6798  -26.9442   22.5402 C   0  0  0  0  0  0
  -19.5761  -26.6386   21.5218 C   0  0  0  0  0  0
  -18.1952  -26.7945   22.1636 C   0  0  0  0  0  0
  -19.1587  -28.8899   23.2844 C   0  0  0  0  0  0
  -18.9492  -30.1489   23.8875 C   0  0  0  0  0  0
  -17.6486  -30.6605   24.0563 C   0  0  0  0  0  0
  -25.9098  -34.9367   23.5012 C   0  0  0  0  0  0
  -16.5381  -29.9094   23.6344 C   0  0  0  0  0  0
  -16.7307  -28.6513   23.0373 C   0  0  0  0  0  0
  -26.4551  -31.6543   25.0675 C   0  0  0  0  0  0
  -25.3675  -31.3796   26.1330 C   0  0  0  0  0  0
  -27.0434  -30.2908   24.6385 C   0  0  0  0  0  0
  -27.6066  -32.4325   25.7478 C   0  0  0  0  0  0
  -27.5591  -37.1741   24.8450 C   0  0  0  0  0  0
  -21.4316  -29.3059   22.3534 N   0  0  0  0  0  0
  -26.4271  -37.3728   23.9435 N   0  0  0  0  0  0
  -24.7426  -31.0008   22.0834 N   0  0  0  0  0  0
  -23.4198  -28.8027   23.2987 O   0  0  0  0  0  0
  -28.2682  -25.9387   20.2555 O   0  0  0  0  0  0
  -26.5716  -34.8902   22.4608 O   0  0  0  0  0  0
  -23.5663  -32.1193   23.6888 O   0  0  0  0  0  0
  -29.2071  -19.5678   22.1727 C   0  0  0  0  0  0
  -31.1738  -20.0452   20.7595 C   0  0  0  0  0  0
  -30.4613  -23.3113   19.8876 C   0  0  0  0  0  0
  -29.1386  -23.0505   22.0044 C   0  0  0  0  0  0
  -28.5260  -16.3898   21.5090 C   0  0  0  0  0  0
  -28.8984  -21.1923   20.1000 C   0  0  0  0  0  0
  -29.6687  -18.0375   20.0161 C   0  0  0  0  0  0
  -28.0798  -24.3392   20.0236 C   0  0  0  0  0  0
  -29.6748  -19.6940   20.7109 C   0  0  0  0  0  0
  -29.0836  -22.9393   20.4706 C   0  0  0  0  0  0
  -29.6983  -16.4948   20.6430 N   0  0  0  0  0  0
  -31.4724  -13.0241   19.1658 H   0  0  0  0  0  0
  -30.5767  -11.8717   20.0835 H   0  0  0  0  0  0
  -29.9189  -11.7927   17.6578 H   0  0  0  0  0  0
  -29.5723  -13.4985   17.6663 H   0  0  0  0  0  0
  -28.0192  -11.2848   19.0293 H   0  0  0  0  0  0
  -27.4124  -12.4217   17.8464 H   0  0  0  0  0  0
  -27.5735  -14.2458   19.4042 H   0  0  0  0  0  0
  -28.8767  -12.3132   21.3790 H   0  0  0  0  0  0
  -28.3356  -13.8611   21.8519 H   0  0  0  0  0  0
  -25.2770   -9.5635   22.4760 H   0  0  0  0  0  0
  -23.9983   -7.4600   22.7482 H   0  0  0  0  0  0
  -21.0821   -8.8760   19.8952 H   0  0  0  0  0  0
  -22.3714  -10.9643   19.6143 H   0  0  0  0  0  0
  -21.1996   -7.6129   23.9732 H   0  0  0  0  0  0
  -21.1491   -6.0498   25.9087 H   0  0  0  0  0  0
  -22.0586   -2.7597   23.2849 H   0  0  0  0  0  0
  -22.3982  -11.9876   22.4876 H   0  0  0  0  0  0
  -21.1018  -13.1256   22.2614 H   0  0  0  0  0  0
  -24.6085  -15.8306   20.5275 H   0  0  0  0  0  0
  -26.2205  -15.6415   20.0591 H   0  0  0  0  0  0
  -26.7368  -32.5181   23.0889 H   0  0  0  0  0  0
  -25.0038  -33.9506   25.0189 H   0  0  0  0  0  0
  -22.7833  -31.2704   21.3511 H   0  0  0  0  0  0
  -23.3781  -35.9521   23.3215 H   0  0  0  0  0  0
  -24.3592  -36.8946   22.2073 H   0  0  0  0  0  0
  -23.7209  -37.6365   23.6742 H   0  0  0  0  0  0
  -26.2128  -31.4077   20.6193 H   0  0  0  0  0  0
  -26.8981  -30.7116   22.0468 H   0  0  0  0  0  0
  -28.1602  -28.6747   21.2459 H   0  0  0  0  0  0
  -25.9186  -25.7587   19.0046 H   0  0  0  0  0  0
  -24.0107  -27.2653   18.9625 H   0  0  0  0  0  0
  -23.8580  -30.5221   19.3847 H   0  0  0  0  0  0
  -22.8201  -29.2008   19.8356 H   0  0  0  0  0  0
  -25.1319  -36.1761   25.0782 H   0  0  0  0  0  0
  -21.0073  -28.3371   24.1307 H   0  0  0  0  0  0
  -20.5698  -26.2362   23.3636 H   0  0  0  0  0  0
  -21.6662  -26.7427   22.1193 H   0  0  0  0  0  0
  -19.6918  -25.6285   21.1276 H   0  0  0  0  0  0
  -19.6696  -27.3169   20.6726 H   0  0  0  0  0  0
  -17.4218  -26.6713   21.4046 H   0  0  0  0  0  0
  -18.0355  -26.0093   22.9035 H   0  0  0  0  0  0
  -19.7957  -30.7325   24.2232 H   0  0  0  0  0  0
  -17.5026  -31.6278   24.5164 H   0  0  0  0  0  0
  -15.5375  -30.2980   23.7666 H   0  0  0  0  0  0
  -15.8713  -28.0807   22.7100 H   0  0  0  0  0  0
  -24.5884  -30.7119   25.7628 H   0  0  0  0  0  0
  -24.8821  -32.2998   26.4600 H   0  0  0  0  0  0
  -25.7891  -30.9058   27.0202 H   0  0  0  0  0  0
  -26.3083  -29.6583   24.1395 H   0  0  0  0  0  0
  -27.3977  -29.7282   25.5031 H   0  0  0  0  0  0
  -27.9023  -30.4082   23.9773 H   0  0  0  0  0  0
  -27.2689  -33.3711   26.1887 H   0  0  0  0  0  0
  -28.3980  -32.6733   25.0366 H   0  0  0  0  0  0
  -28.0609  -31.8527   26.5525 H   0  0  0  0  0  0
  -28.2519  -38.0129   24.7622 H   0  0  0  0  0  0
  -28.1174  -36.2661   24.6108 H   0  0  0  0  0  0
  -27.2327  -37.1187   25.8852 H   0  0  0  0  0  0
  -20.9534  -29.8722   21.6671 H   0  0  0  0  0  0
  -26.0107  -38.2766   24.1506 H   0  0  0  0  0  0
  -29.4703  -20.4438   22.7609 H   0  0  0  0  0  0
  -29.6714  -18.7175   22.6757 H   0  0  0  0  0  0
  -28.1246  -19.4644   22.2363 H   0  0  0  0  0  0
  -31.3839  -20.8571   21.4586 H   0  0  0  0  0  0
  -31.5346  -20.3621   19.7799 H   0  0  0  0  0  0
  -31.7813  -19.1965   21.0745 H   0  0  0  0  0  0
  -31.2837  -22.8525   20.4321 H   0  0  0  0  0  0
  -30.6339  -24.3890   19.8998 H   0  0  0  0  0  0
  -30.5427  -22.9889   18.8488 H   0  0  0  0  0  0
  -30.0397  -22.5946   22.4134 H   0  0  0  0  0  0
  -28.2748  -22.5633   22.4573 H   0  0  0  0  0  0
  -29.1343  -24.0910   22.3333 H   0  0  0  0  0  0
  -28.0246  -17.3313   21.7074 H   0  0  0  0  0  0
  -28.7732  -15.9437   22.4716 H   0  0  0  0  0  0
  -27.7773  -15.7903   21.0157 H   0  0  0  0  0  0
  -27.8318  -21.0024   20.2242 H   0  0  0  0  0  0
  -29.0264  -21.1385   19.0184 H   0  0  0  0  0  0
  -30.4567  -18.0220   19.2623 H   0  0  0  0  0  0
  -28.7651  -18.0186   19.4050 H   0  0  0  0  0  0
  -27.0947  -24.1261   20.4368 H   0  0  0  0  0  0
  -27.9346  -24.2540   18.9464 H   0  0  0  0  0  0
  1 25  1  0  0  0
  1 30  2  0  0  0
  1 81  1  0  0  0
  2  3  1  0  0  0
  2 25  1  0  0  0
  2 82  1  0  0  0
  2 83  1  0  0  0
  3  4  1  0  0  0
  3 84  1  0  0  0
  3 85  1  0  0  0
  4  5  1  0  0  0
  4 86  1  0  0  0
  4 87  1  0  0  0
  5  6  1  0  0  0
  5 26  1  0  0  0
  5 88  1  0  0  0
  6 25  1  0  0  0
  6 89  1  0  0  0
  6 90  1  0  0  0
  7  8  2  0  0  0
  7 26  1  0  0  0
  7 29  1  0  0  0
  8  9  1  0  0  0
  8 22  1  0  0  0
  9 10  1  0  0  0
  9 27  2  0  0  0
 10 11  2  0  0  0
 10 15  1  0  0  0
 11 12  1  0  0  0
 11 91  1  0  0  0
 12 13  2  0  0  0
 12 92  1  0  0  0
 13 14  1  0  0  0
 13 31  1  0  0  0
 14 15  2  0  0  0
 14 93  1  0  0  0
 15 94  1  0  0  0
 16 17  2  0  0  0
 16 21  1  0  0  0
 16 31  1  0  0  0
 17 18  1  0  0  0
 17 95  1  0  0  0
 18 19  2  0  0  0
 18 96  1  0  0  0
 19 20  1  0  0  0
 19 24  1  0  0  0
 20 21  2  0  0  0
 20 97  1  0  0  0
 21 23  1  0  0  0
 22 28  1  0  0  0
 22 32  2  0  0  0
 26 27  1  0  0  0
 28 98  1  0  0  0
 28 99  1  0  0  0
 29100  1  0  0  0
 29101  1  0  0  0
 33 34  1  0  0  0
 33 66  1  0  0  0
 33 70  2  0  0  0
 34 36  1  0  0  0
 34 59  1  0  0  0
 34102  1  0  0  0
 35 44  2  0  0  0
 35 45  1  0  0  0
 35 68  1  0  0  0
 36 56  1  0  0  0
 36103  1  0  0  0
 37 39  1  0  0  0
 37 47  1  0  0  0
 37 66  1  0  0  0
 37104  1  0  0  0
 38 43  2  0  0  0
 38 46  1  0  0  0
 38 47  1  0  0  0
 39 64  1  0  0  0
 39 67  2  0  0  0
 40 52  1  0  0  0
 40 53  2  0  0  0
 40 58  1  0  0  0
 41105  1  0  0  0
 41106  1  0  0  0
 41107  1  0  0  0
 41 48  1  0  0  0
 42 43  1  0  0  0
 42 66  1  0  0  0
 42108  1  0  0  0
 42109  1  0  0  0
 43 44  1  0  0  0
 44110  1  0  0  0
 45 46  2  0  0  0
 45111  1  0  0  0
 46112  1  0  0  0
 47113  1  0  0  0
 47114  1  0  0  0
 48 56  1  0  0  0
 48 65  1  0  0  0
 48115  1  0  0  0
 49 50  1  0  0  0
 49 53  1  0  0  0
 49 64  1  0  0  0
 49116  1  0  0  0
 50 51  1  0  0  0
 50117  1  0  0  0
 50118  1  0  0  0
 51 52  1  0  0  0
 51119  1  0  0  0
 51120  1  0  0  0
 52121  1  0  0  0
 52122  1  0  0  0
 53 54  1  0  0  0
 54 55  2  0  0  0
 54123  1  0  0  0
 55 57  1  0  0  0
 55124  1  0  0  0
 56 69  2  0  0  0
 57 58  2  0  0  0
 57125  1  0  0  0
 58126  1  0  0  0
 59 60  1  0  0  0
 59 61  1  0  0  0
 59 62  1  0  0  0
 60127  1  0  0  0
 60128  1  0  0  0
 60129  1  0  0  0
 61130  1  0  0  0
 61131  1  0  0  0
 61132  1  0  0  0
 62133  1  0  0  0
 62134  1  0  0  0
 62135  1  0  0  0
 63 65  1  0  0  0
 63136  1  0  0  0
 63137  1  0  0  0
 63138  1  0  0  0
 64139  1  0  0  0
 65140  1  0  0  0
 68 78  1  0  0  0
 71141  1  0  0  0
 71142  1  0  0  0
 71143  1  0  0  0
 71 79  1  0  0  0
 72 79  1  0  0  0
 72144  1  0  0  0
 72145  1  0  0  0
 72146  1  0  0  0
 73147  1  0  0  0
 73148  1  0  0  0
 73149  1  0  0  0
 73 80  1  0  0  0
 74 80  1  0  0  0
 74150  1  0  0  0
 74151  1  0  0  0
 74152  1  0  0  0
 75 81  1  0  0  0
 75153  1  0  0  0
 75154  1  0  0  0
 75155  1  0  0  0
 76 79  1  0  0  0
 76 80  1  0  0  0
 76156  1  0  0  0
 76157  1  0  0  0
 77 79  1  0  0  0
 77 81  1  0  0  0
 77158  1  0  0  0
 77159  1  0  0  0
 78 80  1  0  0  0
 78160  1  0  0  0
 78161  1  0  0  0
M  ISO  4   1 100  68 101  78 101  81 100
M  END
> <chiral flag>
0

> <version>
0

> <s_m_source_file>
/data/baiqing/PycharmProjects/Reinvent-master-3.2/result/LINK_invent/BTK/process_docking_weight1_custom_sum_contain_oxygen_bond_distance_aromatic_linkinvent_7_9_3/rearranged_h_0079.sdf

> <i_m_source_file_index>
47

> <r_mmod_Potential_Energy-OPLS-2005>
1363.04675292969

> <r_mmod_Stretch_Energy-OPLS-2005>
595.198547363281

> <r_mmod_Bend_Energy-OPLS-2005>
446.300811767578

> <r_mmod_Torsional_Energy-OPLS-2005>
310.113891601562

> <r_mmod_Improper_Torsional_Energy-OPLS-2005>
4.944908618927

> <r_mmod_Van_der_Waal_Energy-OPLS-2005>
124.589889526367

> <r_mmod_Electrostatic_Energy-OPLS-2005>
-308.667205810547

> <r_mmod_Solvation_Energy-OPLS-2005>
-187.40234375

> <b_mmod_Minimization_Converged-OPLS-2005>
0

> <r_mmod_RMS_Derivative-OPLS-2005>
3.59572100639343

$$$$
47
                    3D
 Structure written by MMmdl.
169177  0  0  1  0            999 V2000
  -30.5619  -14.9877   20.3859 C   0  0  0  0  0  0
  -30.4377  -12.6082   19.5167 C   0  0  0  0  0  0
  -29.5236  -12.5480   18.2702 C   0  0  0  0  0  0
  -28.0557  -12.3524   18.6862 C   0  0  0  0  0  0
  -27.6478  -13.2652   19.8767 C   0  0  2  0  0  0
  -28.6967  -13.3050   21.0113 C   0  0  0  0  0  0
  -25.2498  -13.8208   20.5764 C   0  0  0  0  0  0
  -24.1848  -13.0432   20.9252 C   0  0  0  0  0  0
  -24.6531  -11.6921   20.8881 C   0  0  0  0  0  0
  -23.9208  -10.4304   21.0489 C   0  0  0  0  0  0
  -24.3701   -9.4222   21.9275 C   0  0  0  0  0  0
  -23.6316   -8.2243   22.0815 C   0  0  0  0  0  0
  -22.4283   -8.0328   21.3588 C   0  0  0  0  0  0
  -22.0002   -9.0327   20.4676 C   0  0  0  0  0  0
  -22.7384  -10.2201   20.3115 C   0  0  0  0  0  0
  -21.6889   -6.0792   22.5301 C   0  0  0  0  0  0
  -21.3990   -6.5672   23.8244 C   0  0  0  0  0  0
  -21.3642   -5.6846   24.9169 C   0  0  0  0  0  0
  -21.6028   -4.3072   24.7239 C   0  0  0  0  0  0
  -21.8837   -3.8210   23.4350 C   0  0  0  0  0  0
  -21.9196   -4.7034   22.3417 C   0  0  0  0  0  0
  -22.7889  -13.5211   21.1842 C   0  0  0  0  0  0
  -22.1690   -4.2214   21.0998 F   0  0  0  0  0  0
  -21.5606   -3.4557   25.7739 F   0  0  0  0  0  0
  -29.9680  -13.7192   20.4012 N   0  0  0  0  0  0
  -26.3016  -12.9518   20.3501 N   0  0  0  0  0  0
  -25.9501  -11.6627   20.5978 N   0  0  0  0  0  0
  -22.0526  -12.8242   22.0407 N   0  0  0  0  0  0
  -25.4065  -15.1885   20.3856 N   0  0  0  0  0  0
  -31.7499  -15.0092   20.0417 O   0  0  0  0  0  0
  -21.6642   -6.8964   21.4272 O   0  0  0  0  0  0
  -22.3652  -14.5570   20.6716 O   0  0  0  0  0  0
  -24.6457  -31.8367   23.1804 C   0  0  0  0  0  0
  -25.9231  -32.4638   23.8200 C   0  0  1  0  0  0
  -27.2195  -27.0658   20.1520 C   0  0  0  0  0  0
  -25.6011  -33.8460   24.2134 N   0  0  0  0  0  0
  -23.4556  -30.4466   21.5298 C   0  0  2  0  0  0
  -24.9062  -28.8630   20.1077 C   0  0  0  0  0  0
  -22.7641  -29.4461   22.4866 C   0  0  0  0  0  0
  -18.0300  -28.1411   22.8488 C   0  0  0  0  0  0
  -24.1492  -36.7200   23.2644 C   0  0  0  0  0  0
  -26.0144  -30.6793   21.3993 C   0  0  0  0  0  0
  -26.0809  -29.2835   20.7416 C   0  0  0  0  0  0
  -27.2271  -28.4017   20.7496 C   0  0  0  0  0  0
  -26.0259  -26.7680   19.4567 C   0  0  0  0  0  0
  -24.8940  -27.6265   19.4445 C   0  0  0  0  0  0
  -23.6803  -29.7659   20.1526 C   0  0  0  0  0  0
  -25.4137  -36.2992   24.0294 C   0  0  1  0  0  0
  -20.5945  -28.3684   23.1254 C   0  0  2  0  0  0
  -20.6821  -26.9398   22.5417 C   0  0  0  0  0  0
  -19.5787  -26.6376   21.5252 C   0  0  0  0  0  0
  -18.1944  -26.7965   22.1627 C   0  0  0  0  0  0
  -19.1576  -28.8876   23.2823 C   0  0  0  0  0  0
  -18.9481  -30.1496   23.8813 C   0  0  0  0  0  0
  -17.6467  -30.6601   24.0542 C   0  0  0  0  0  0
  -25.9091  -34.9383   23.5015 C   0  0  0  0  0  0
  -16.5356  -29.9073   23.6373 C   0  0  0  0  0  0
  -16.7281  -28.6510   23.0371 C   0  0  0  0  0  0
  -26.4570  -31.6558   25.0691 C   0  0  0  0  0  0
  -25.3730  -31.3790   26.1370 C   0  0  0  0  0  0
  -27.0470  -30.2943   24.6359 C   0  0  0  0  0  0
  -27.6071  -32.4362   25.7493 C   0  0  0  0  0  0
  -27.5562  -37.1756   24.8466 C   0  0  0  0  0  0
  -21.4312  -29.3000   22.3641 N   0  0  0  0  0  0
  -26.4267  -37.3719   23.9420 N   0  0  0  0  0  0
  -24.7252  -31.0119   22.0889 N   0  0  0  0  0  0
  -23.4250  -28.8051   23.3081 O   0  0  0  0  0  0
  -28.2689  -26.0605   20.2621 O   0  0  0  0  0  0
  -26.5652  -34.8875   22.4588 O   0  0  0  0  0  0
  -23.5555  -32.1306   23.6996 O   0  0  0  0  0  0
  -29.5626  -20.4829   20.2008 C   0  0  0  0  0  0
  -27.6185  -20.6286   21.1062 C   0  0  0  0  0  0
  -28.5834  -21.5123   20.6570 C   0  0  0  0  0  0
  -29.1935  -19.1041   20.3717 C   0  0  0  0  0  0
  -30.7800  -18.6365   17.6901 C   0  0  0  0  0  0
  -25.6150  -18.4373   21.3942 C   0  0  0  0  0  0
  -27.4960  -17.8574   22.9876 C   0  0  0  0  0  0
  -29.9091  -23.4734   21.6095 C   0  0  0  0  0  0
  -27.4473  -23.3822   22.0021 C   0  0  0  0  0  0
  -31.1052  -17.9347   19.0221 C   0  0  0  0  0  0
  -28.2091  -24.5144   19.9036 C   0  0  0  0  0  0
  -29.8314  -17.6484   19.8637 C   0  0  2  0  0  0
  -27.1276  -18.1655   21.5280 C   0  0  0  0  0  0
  -28.5527  -23.1922   20.9421 C   0  0  0  0  0  0
  -27.9550  -19.2586   20.9990 N   0  0  0  0  0  0
  -29.8071  -16.1977   20.5515 N   0  0  0  0  0  0
  -31.4867  -12.7130   19.2144 H   0  0  0  0  0  0
  -30.3944  -11.6621   20.0534 H   0  0  0  0  0  0
  -29.8362  -11.7319   17.6164 H   0  0  0  0  0  0
  -29.6365  -13.4706   17.6988 H   0  0  0  0  0  0
  -27.9145  -11.3064   18.9490 H   0  0  0  0  0  0
  -27.4019  -12.5366   17.8378 H   0  0  0  0  0  0
  -27.6107  -14.2738   19.4689 H   0  0  0  0  0  0
  -28.7966  -12.3464   21.5185 H   0  0  0  0  0  0
  -28.4076  -14.0250   21.7737 H   0  0  0  0  0  0
  -25.2825   -9.5654   22.4871 H   0  0  0  0  0  0
  -24.0034   -7.4647   22.7484 H   0  0  0  0  0  0
  -21.1003   -8.8887   19.8931 H   0  0  0  0  0  0
  -22.3897  -10.9766   19.6220 H   0  0  0  0  0  0
  -21.1970   -7.6162   23.9763 H   0  0  0  0  0  0
  -21.1429   -6.0528   25.9098 H   0  0  0  0  0  0
  -22.0629   -2.7639   23.2843 H   0  0  0  0  0  0
  -22.4245  -11.9896   22.4744 H   0  0  0  0  0  0
  -21.1198  -13.1347   22.2694 H   0  0  0  0  0  0
  -24.5966  -15.7928   20.3474 H   0  0  0  0  0  0
  -26.2304  -15.6094   19.9843 H   0  0  0  0  0  0
  -26.7309  -32.5193   23.0902 H   0  0  0  0  0  0
  -25.0273  -33.9573   25.0363 H   0  0  0  0  0  0
  -22.7546  -31.2684   21.3703 H   0  0  0  0  0  0
  -23.3760  -35.9515   23.3297 H   0  0  0  0  0  0
  -24.3575  -36.8843   22.2059 H   0  0  0  0  0  0
  -23.7219  -37.6376   23.6699 H   0  0  0  0  0  0
  -26.1884  -31.4220   20.6218 H   0  0  0  0  0  0
  -26.8783  -30.7245   22.0528 H   0  0  0  0  0  0
  -28.1224  -28.7078   21.2742 H   0  0  0  0  0  0
  -25.9331  -25.8386   18.9216 H   0  0  0  0  0  0
  -24.0085  -27.3149   18.9122 H   0  0  0  0  0  0
  -23.7984  -30.5257   19.3808 H   0  0  0  0  0  0
  -22.8037  -29.1899   19.8582 H   0  0  0  0  0  0
  -25.1332  -36.1778   25.0772 H   0  0  0  0  0  0
  -20.9977  -28.3265   24.1395 H   0  0  0  0  0  0
  -20.5814  -26.2295   23.3604 H   0  0  0  0  0  0
  -21.6656  -26.7473   22.1146 H   0  0  0  0  0  0
  -19.6923  -25.6285   21.1277 H   0  0  0  0  0  0
  -19.6722  -27.3179   20.6779 H   0  0  0  0  0  0
  -17.4244  -26.6722   21.3975 H   0  0  0  0  0  0
  -18.0253  -26.0095   22.9005 H   0  0  0  0  0  0
  -19.7947  -30.7354   24.2134 H   0  0  0  0  0  0
  -17.5011  -31.6289   24.5146 H   0  0  0  0  0  0
  -15.5360  -30.2928   23.7777 H   0  0  0  0  0  0
  -15.8683  -28.0790   22.7156 H   0  0  0  0  0  0
  -24.5889  -30.7164   25.7690 H   0  0  0  0  0  0
  -24.8940  -32.3000   26.4708 H   0  0  0  0  0  0
  -25.7970  -30.9005   27.0207 H   0  0  0  0  0  0
  -26.3132  -29.6625   24.1340 H   0  0  0  0  0  0
  -27.4061  -29.7269   25.4961 H   0  0  0  0  0  0
  -27.9045  -30.4181   23.9728 H   0  0  0  0  0  0
  -27.2641  -33.3687   26.1984 H   0  0  0  0  0  0
  -28.3928  -32.6894   25.0363 H   0  0  0  0  0  0
  -28.0698  -31.8558   26.5477 H   0  0  0  0  0  0
  -28.2571  -38.0068   24.7553 H   0  0  0  0  0  0
  -28.1067  -36.2599   24.6257 H   0  0  0  0  0  0
  -27.2293  -37.1365   25.8872 H   0  0  0  0  0  0
  -20.9589  -29.8598   21.6670 H   0  0  0  0  0  0
  -26.0106  -38.2768   24.1449 H   0  0  0  0  0  0
  -30.5262  -20.7488   19.7856 H   0  0  0  0  0  0
  -26.6882  -20.8715   21.5994 H   0  0  0  0  0  0
  -31.6973  -18.9187   17.1758 H   0  0  0  0  0  0
  -30.1788  -19.5398   17.8169 H   0  0  0  0  0  0
  -30.2269  -17.9719   17.0262 H   0  0  0  0  0  0
  -25.0385  -17.5913   21.7674 H   0  0  0  0  0  0
  -25.3331  -18.5888   20.3525 H   0  0  0  0  0  0
  -25.2886  -19.3087   21.9641 H   0  0  0  0  0  0
  -27.0214  -16.9354   23.3182 H   0  0  0  0  0  0
  -27.1637  -18.6510   23.6545 H   0  0  0  0  0  0
  -28.5722  -17.7419   23.1135 H   0  0  0  0  0  0
  -30.0604  -22.8344   22.4841 H   0  0  0  0  0  0
  -29.9848  -24.5061   21.9493 H   0  0  0  0  0  0
  -30.7353  -23.2793   20.9226 H   0  0  0  0  0  0
  -27.6361  -22.7883   22.8981 H   0  0  0  0  0  0
  -26.4777  -23.0874   21.5944 H   0  0  0  0  0  0
  -27.3424  -24.4213   22.3120 H   0  0  0  0  0  0
  -31.7962  -18.5584   19.5945 H   0  0  0  0  0  0
  -31.6553  -17.0378   18.7505 H   0  0  0  0  0  0
  -27.2456  -24.2978   19.4460 H   0  0  0  0  0  0
  -28.9198  -24.4186   19.0825 H   0  0  0  0  0  0
  -29.1178  -17.3883   19.0821 H   0  0  0  0  0  0
  -27.3389  -17.2792   20.9328 H   0  0  0  0  0  0
  -28.9322  -16.0019   21.0275 H   0  0  0  0  0  0
  1 25  1  0  0  0
  1 30  2  0  0  0
  1 86  1  0  0  0
  2  3  1  0  0  0
  2 25  1  0  0  0
  2 87  1  0  0  0
  2 88  1  0  0  0
  3  4  1  0  0  0
  3 89  1  0  0  0
  3 90  1  0  0  0
  4  5  1  0  0  0
  4 91  1  0  0  0
  4 92  1  0  0  0
  5  6  1  0  0  0
  5 26  1  0  0  0
  5 93  1  0  0  0
  6 25  1  0  0  0
  6 94  1  0  0  0
  6 95  1  0  0  0
  7  8  2  0  0  0
  7 26  1  0  0  0
  7 29  1  0  0  0
  8  9  1  0  0  0
  8 22  1  0  0  0
  9 10  1  0  0  0
  9 27  2  0  0  0
 10 11  2  0  0  0
 10 15  1  0  0  0
 11 12  1  0  0  0
 11 96  1  0  0  0
 12 13  2  0  0  0
 12 97  1  0  0  0
 13 14  1  0  0  0
 13 31  1  0  0  0
 14 15  2  0  0  0
 14 98  1  0  0  0
 15 99  1  0  0  0
 16 17  2  0  0  0
 16 21  1  0  0  0
 16 31  1  0  0  0
 17 18  1  0  0  0
 17100  1  0  0  0
 18 19  2  0  0  0
 18101  1  0  0  0
 19 20  1  0  0  0
 19 24  1  0  0  0
 20 21  2  0  0  0
 20102  1  0  0  0
 21 23  1  0  0  0
 22 28  1  0  0  0
 22 32  2  0  0  0
 26 27  1  0  0  0
 28103  1  0  0  0
 28104  1  0  0  0
 29105  1  0  0  0
 29106  1  0  0  0
 33 34  1  0  0  0
 33 66  1  0  0  0
 33 70  2  0  0  0
 34 36  1  0  0  0
 34 59  1  0  0  0
 34107  1  0  0  0
 35 44  2  0  0  0
 35 45  1  0  0  0
 35 68  1  0  0  0
 36 56  1  0  0  0
 36108  1  0  0  0
 37 39  1  0  0  0
 37 47  1  0  0  0
 37 66  1  0  0  0
 37109  1  0  0  0
 38 43  2  0  0  0
 38 46  1  0  0  0
 38 47  1  0  0  0
 39 64  1  0  0  0
 39 67  2  0  0  0
 40 52  1  0  0  0
 40 53  2  0  0  0
 40 58  1  0  0  0
 41110  1  0  0  0
 41111  1  0  0  0
 41112  1  0  0  0
 41 48  1  0  0  0
 42 43  1  0  0  0
 42 66  1  0  0  0
 42113  1  0  0  0
 42114  1  0  0  0
 43 44  1  0  0  0
 44115  1  0  0  0
 45 46  2  0  0  0
 45116  1  0  0  0
 46117  1  0  0  0
 47118  1  0  0  0
 47119  1  0  0  0
 48 56  1  0  0  0
 48 65  1  0  0  0
 48120  1  0  0  0
 49 50  1  0  0  0
 49 53  1  0  0  0
 49 64  1  0  0  0
 49121  1  0  0  0
 50 51  1  0  0  0
 50122  1  0  0  0
 50123  1  0  0  0
 51 52  1  0  0  0
 51124  1  0  0  0
 51125  1  0  0  0
 52126  1  0  0  0
 52127  1  0  0  0
 53 54  1  0  0  0
 54 55  2  0  0  0
 54128  1  0  0  0
 55 57  1  0  0  0
 55129  1  0  0  0
 56 69  2  0  0  0
 57 58  2  0  0  0
 57130  1  0  0  0
 58131  1  0  0  0
 59 60  1  0  0  0
 59 61  1  0  0  0
 59 62  1  0  0  0
 60132  1  0  0  0
 60133  1  0  0  0
 60134  1  0  0  0
 61135  1  0  0  0
 61136  1  0  0  0
 61137  1  0  0  0
 62138  1  0  0  0
 62139  1  0  0  0
 62140  1  0  0  0
 63 65  1  0  0  0
 63141  1  0  0  0
 63142  1  0  0  0
 63143  1  0  0  0
 64144  1  0  0  0
 65145  1  0  0  0
 68 81  1  0  0  0
 71 73  1  0  0  0
 71 74  2  0  0  0
 71146  1  0  0  0
 72 73  2  0  0  0
 72 85  1  0  0  0
 72147  1  0  0  0
 73 84  1  0  0  0
 74 82  1  0  0  0
 74 85  1  0  0  0
 75 80  1  0  0  0
 75148  1  0  0  0
 75149  1  0  0  0
 75150  1  0  0  0
 76151  1  0  0  0
 76152  1  0  0  0
 76153  1  0  0  0
 76 83  1  0  0  0
 77 83  1  0  0  0
 77154  1  0  0  0
 77155  1  0  0  0
 77156  1  0  0  0
 78157  1  0  0  0
 78158  1  0  0  0
 78159  1  0  0  0
 78 84  1  0  0  0
 79 84  1  0  0  0
 79160  1  0  0  0
 79161  1  0  0  0
 79162  1  0  0  0
 80163  1  0  0  0
 80164  1  0  0  0
 80 82  1  0  0  0
 81 84  1  0  0  0
 81165  1  0  0  0
 81166  1  0  0  0
 82 86  1  0  0  0
 82167  1  0  0  0
 83 85  1  0  0  0
 83168  1  0  0  0
 86169  1  0  0  0
M  ISO  4   1 100  68 101  81 101  86 100
M  END
> <chiral flag>
0

> <version>
0

> <s_m_source_file>
/data/baiqing/PycharmProjects/Reinvent-master-3.2/result/LINK_invent/BTK/process_docking_weight1_custom_sum_contain_oxygen_bond_distance_aromatic_linkinvent_7_9_3/rearranged_h_0079.sdf

> <i_m_source_file_index>
48

> <r_mmod_Potential_Energy-OPLS-2005>
661.801696777344

> <r_mmod_Stretch_Energy-OPLS-2005>
325.344757080078

> <r_mmod_Bend_Energy-OPLS-2005>
351.063659667969

> <r_mmod_Torsional_Energy-OPLS-2005>
266.112701416016

> <r_mmod_Improper_Torsional_Energy-OPLS-2005>
9.17047023773193

> <r_mmod_Van_der_Waal_Energy-OPLS-2005>
115.265419006348

> <r_mmod_Electrostatic_Energy-OPLS-2005>
-444.549255371094

> <r_mmod_Solvation_Energy-OPLS-2005>
-194.73942565918

> <b_mmod_Minimization_Converged-OPLS-2005>
0

> <r_mmod_RMS_Derivative-OPLS-2005>
9.46367645263672

$$$$
48
                    3D
 Structure written by MMmdl.
155163  0  0  1  0            999 V2000
  -30.4569  -15.0394   20.3966 C   0  0  0  0  0  0
  -30.4599  -12.6675   19.4607 C   0  0  0  0  0  0
  -29.5178  -12.5712   18.2334 C   0  0  0  0  0  0
  -28.0563  -12.3040   18.6590 C   0  0  0  0  0  0
  -27.6242  -13.2327   19.8202 C   0  0  2  0  0  0
  -28.6726  -13.2715   20.9503 C   0  0  0  0  0  0
  -25.2398  -13.8242   20.5558 C   0  0  0  0  0  0
  -24.1722  -13.0471   20.9215 C   0  0  0  0  0  0
  -24.6353  -11.6947   20.8803 C   0  0  0  0  0  0
  -23.9046  -10.4290   21.0401 C   0  0  0  0  0  0
  -24.3609   -9.4194   21.9139 C   0  0  0  0  0  0
  -23.6287   -8.2217   22.0721 C   0  0  0  0  0  0
  -22.4265   -8.0298   21.3540 C   0  0  0  0  0  0
  -21.9907   -9.0219   20.4604 C   0  0  0  0  0  0
  -22.7243  -10.2105   20.3005 C   0  0  0  0  0  0
  -21.6836   -6.0749   22.5257 C   0  0  0  0  0  0
  -21.4029   -6.5628   23.8221 C   0  0  0  0  0  0
  -21.3642   -5.6781   24.9168 C   0  0  0  0  0  0
  -21.6026   -4.3040   24.7221 C   0  0  0  0  0  0
  -21.8834   -3.8140   23.4337 C   0  0  0  0  0  0
  -21.9194   -4.6964   22.3399 C   0  0  0  0  0  0
  -22.7749  -13.5241   21.1881 C   0  0  0  0  0  0
  -22.1664   -4.2140   21.0984 F   0  0  0  0  0  0
  -21.5597   -3.4534   25.7729 F   0  0  0  0  0  0
  -29.9293  -13.7430   20.3491 N   0  0  0  0  0  0
  -26.2828  -12.9409   20.3141 N   0  0  0  0  0  0
  -25.9287  -11.6578   20.5735 N   0  0  0  0  0  0
  -22.0435  -12.8235   22.0481 N   0  0  0  0  0  0
  -25.4078  -15.1933   20.3808 N   0  0  0  0  0  0
  -31.6782  -15.1429   20.2254 O   0  0  0  0  0  0
  -21.6652   -6.8877   21.4232 O   0  0  0  0  0  0
  -22.3402  -14.5493   20.6658 O   0  0  0  0  0  0
  -24.6449  -31.8376   23.1873 C   0  0  0  0  0  0
  -25.9233  -32.4627   23.8263 C   0  0  1  0  0  0
  -27.2510  -27.0931   20.1820 C   0  0  0  0  0  0
  -25.5987  -33.8440   24.2178 N   0  0  0  0  0  0
  -23.4549  -30.4535   21.5251 C   0  0  2  0  0  0
  -24.9207  -28.8645   20.1266 C   0  0  0  0  0  0
  -22.7573  -29.4526   22.4815 C   0  0  0  0  0  0
  -18.0317  -28.1375   22.8477 C   0  0  0  0  0  0
  -24.1503  -36.7171   23.2646 C   0  0  0  0  0  0
  -26.0154  -30.7017   21.3990 C   0  0  0  0  0  0
  -26.0994  -29.3072   20.7411 C   0  0  0  0  0  0
  -27.2653  -28.4411   20.7417 C   0  0  0  0  0  0
  -26.0376  -26.7561   19.5461 C   0  0  0  0  0  0
  -24.9035  -27.6012   19.5100 C   0  0  0  0  0  0
  -23.6967  -29.7714   20.1518 C   0  0  0  0  0  0
  -25.4147  -36.2963   24.0312 C   0  0  1  0  0  0
  -20.5926  -28.3716   23.1205 C   0  0  2  0  0  0
  -20.6786  -26.9418   22.5378 C   0  0  0  0  0  0
  -19.5749  -26.6377   21.5188 C   0  0  0  0  0  0
  -18.1946  -26.7910   22.1621 C   0  0  0  0  0  0
  -19.1569  -28.8873   23.2828 C   0  0  0  0  0  0
  -18.9488  -30.1469   23.8863 C   0  0  0  0  0  0
  -17.6481  -30.6586   24.0552 C   0  0  0  0  0  0
  -25.9105  -34.9342   23.5056 C   0  0  0  0  0  0
  -16.5383  -29.9075   23.6329 C   0  0  0  0  0  0
  -16.7299  -28.6483   23.0373 C   0  0  0  0  0  0
  -26.4586  -31.6494   25.0699 C   0  0  0  0  0  0
  -25.3784  -31.3659   26.1390 C   0  0  0  0  0  0
  -27.0493  -30.2864   24.6378 C   0  0  0  0  0  0
  -27.6097  -32.4283   25.7476 C   0  0  0  0  0  0
  -27.5566  -37.1744   24.8487 C   0  0  0  0  0  0
  -21.4255  -29.3041   22.3569 N   0  0  0  0  0  0
  -26.4298  -37.3678   23.9410 N   0  0  0  0  0  0
  -24.7225  -31.0213   22.0896 N   0  0  0  0  0  0
  -23.4222  -28.8058   23.2947 O   0  0  0  0  0  0
  -28.3318  -26.1166   20.1583 O   0  0  0  0  0  0
  -26.5679  -34.8843   22.4619 O   0  0  0  0  0  0
  -23.5560  -32.1290   23.7072 O   0  0  0  0  0  0
  -28.3124  -21.9662   17.6324 C   0  0  0  0  0  0
  -28.6819  -20.7489   18.2281 C   0  0  0  0  0  0
  -28.3007  -23.1765   18.3469 C   0  0  0  0  0  0
  -29.1277  -20.6651   19.5645 C   0  0  0  0  0  0
  -28.5874  -23.1888   19.7358 C   0  0  0  0  0  0
  -27.9196  -24.4147   17.5531 C   0  0  0  0  0  0
  -31.2487  -19.4749   20.5726 C   0  0  0  0  0  0
  -28.2272  -24.5910   20.5979 C   0  0  0  0  0  0
  -29.3246  -17.7540   20.6681 C   0  0  0  0  0  0
  -29.8913  -19.1829   19.9261 C   0  0  1  0  0  0
  -29.0276  -21.9143   20.2940 N   0  0  0  0  0  0
  -29.5575  -16.1603   20.4272 N   0  0  0  0  0  0
  -31.4702  -12.8987   19.1255 H   0  0  0  0  0  0
  -30.5333  -11.7225   19.9920 H   0  0  0  0  0  0
  -29.8689  -11.8197   17.5282 H   0  0  0  0  0  0
  -29.5499  -13.5183   17.6934 H   0  0  0  0  0  0
  -27.9707  -11.2648   18.9686 H   0  0  0  0  0  0
  -27.3864  -12.4227   17.8060 H   0  0  0  0  0  0
  -27.5872  -14.2269   19.3736 H   0  0  0  0  0  0
  -28.8005  -12.2827   21.3942 H   0  0  0  0  0  0
  -28.3528  -13.9362   21.7549 H   0  0  0  0  0  0
  -25.2759   -9.5665   22.4732 H   0  0  0  0  0  0
  -23.9977   -7.4605   22.7439 H   0  0  0  0  0  0
  -21.0829   -8.8722   19.8909 H   0  0  0  0  0  0
  -22.3679  -10.9626   19.6095 H   0  0  0  0  0  0
  -21.2069   -7.6151   23.9734 H   0  0  0  0  0  0
  -21.1418   -6.0501   25.9069 H   0  0  0  0  0  0
  -22.0638   -2.7609   23.2851 H   0  0  0  0  0  0
  -22.4174  -11.9913   22.4814 H   0  0  0  0  0  0
  -21.0993  -13.1126   22.2675 H   0  0  0  0  0  0
  -24.5999  -15.8044   20.3541 H   0  0  0  0  0  0
  -26.2008  -15.5767   19.8826 H   0  0  0  0  0  0
  -26.7291  -32.5262   23.0983 H   0  0  0  0  0  0
  -25.0104  -33.9555   25.0307 H   0  0  0  0  0  0
  -22.7622  -31.2811   21.3579 H   0  0  0  0  0  0
  -23.3744  -35.9522   23.3380 H   0  0  0  0  0  0
  -24.3553  -36.8724   22.2039 H   0  0  0  0  0  0
  -23.7325  -37.6407   23.6649 H   0  0  0  0  0  0
  -26.2051  -31.4714   20.6530 H   0  0  0  0  0  0
  -26.8674  -30.7316   22.0675 H   0  0  0  0  0  0
  -28.1655  -28.7860   21.2306 H   0  0  0  0  0  0
  -25.9569  -25.7843   19.0887 H   0  0  0  0  0  0
  -24.0010  -27.2522   19.0272 H   0  0  0  0  0  0
  -23.8629  -30.5453   19.4007 H   0  0  0  0  0  0
  -22.8130  -29.2246   19.8143 H   0  0  0  0  0  0
  -25.1350  -36.1731   25.0802 H   0  0  0  0  0  0
  -21.0036  -28.3301   24.1314 H   0  0  0  0  0  0
  -20.5637  -26.2330   23.3592 H   0  0  0  0  0  0
  -21.6644  -26.7382   22.1187 H   0  0  0  0  0  0
  -19.6895  -25.6287   21.1218 H   0  0  0  0  0  0
  -19.6658  -27.3185   20.6710 H   0  0  0  0  0  0
  -17.4188  -26.6649   21.4059 H   0  0  0  0  0  0
  -18.0380  -26.0061   22.9029 H   0  0  0  0  0  0
  -19.7985  -30.7283   24.2205 H   0  0  0  0  0  0
  -17.5059  -31.6257   24.5152 H   0  0  0  0  0  0
  -15.5388  -30.2965   23.7680 H   0  0  0  0  0  0
  -15.8704  -28.0789   22.7119 H   0  0  0  0  0  0
  -24.5914  -30.7104   25.7658 H   0  0  0  0  0  0
  -24.9068  -32.2835   26.4887 H   0  0  0  0  0  0
  -25.8059  -30.8713   27.0124 H   0  0  0  0  0  0
  -26.3153  -29.6492   24.1441 H   0  0  0  0  0  0
  -27.4104  -29.7239   25.5007 H   0  0  0  0  0  0
  -27.9059  -30.4020   23.9739 H   0  0  0  0  0  0
  -27.2639  -33.3506   26.2140 H   0  0  0  0  0  0
  -28.3846  -32.6980   25.0294 H   0  0  0  0  0  0
  -28.0874  -31.8403   26.5322 H   0  0  0  0  0  0
  -28.2609  -38.0004   24.7457 H   0  0  0  0  0  0
  -28.1027  -36.2529   24.6419 H   0  0  0  0  0  0
  -27.2259  -37.1508   25.8882 H   0  0  0  0  0  0
  -20.9498  -29.8761   21.6751 H   0  0  0  0  0  0
  -26.0125  -38.2719   24.1416 H   0  0  0  0  0  0
  -28.0314  -21.9805   16.5876 H   0  0  0  0  0  0
  -28.6865  -19.8785   17.5856 H   0  0  0  0  0  0
  -26.8375  -24.4711   17.4622 H   0  0  0  0  0  0
  -28.3275  -24.3653   16.5412 H   0  0  0  0  0  0
  -28.3037  -25.3439   17.9692 H   0  0  0  0  0  0
  -31.8590  -20.1468   19.9766 H   0  0  0  0  0  0
  -31.8059  -18.5476   20.7144 H   0  0  0  0  0  0
  -31.1000  -19.9150   21.5583 H   0  0  0  0  0  0
  -28.8624  -24.5219   21.4863 H   0  0  0  0  0  0
  -27.2181  -24.4564   20.9874 H   0  0  0  0  0  0
  -28.2412  -17.8291   20.5657 H   0  0  0  0  0  0
  -29.4721  -17.9003   21.7365 H   0  0  0  0  0  0
  -30.1459  -18.8193   18.9278 H   0  0  0  0  0  0
  -28.6394  -15.7393   20.4484 H   0  0  0  0  0  0
  1 25  1  0  0  0
  1 30  2  0  0  0
  1 82  1  0  0  0
  2  3  1  0  0  0
  2 25  1  0  0  0
  2 83  1  0  0  0
  2 84  1  0  0  0
  3  4  1  0  0  0
  3 85  1  0  0  0
  3 86  1  0  0  0
  4  5  1  0  0  0
  4 87  1  0  0  0
  4 88  1  0  0  0
  5  6  1  0  0  0
  5 26  1  0  0  0
  5 89  1  0  0  0
  6 25  1  0  0  0
  6 90  1  0  0  0
  6 91  1  0  0  0
  7  8  2  0  0  0
  7 26  1  0  0  0
  7 29  1  0  0  0
  8  9  1  0  0  0
  8 22  1  0  0  0
  9 10  1  0  0  0
  9 27  2  0  0  0
 10 11  2  0  0  0
 10 15  1  0  0  0
 11 12  1  0  0  0
 11 92  1  0  0  0
 12 13  2  0  0  0
 12 93  1  0  0  0
 13 14  1  0  0  0
 13 31  1  0  0  0
 14 15  2  0  0  0
 14 94  1  0  0  0
 15 95  1  0  0  0
 16 17  2  0  0  0
 16 21  1  0  0  0
 16 31  1  0  0  0
 17 18  1  0  0  0
 17 96  1  0  0  0
 18 19  2  0  0  0
 18 97  1  0  0  0
 19 20  1  0  0  0
 19 24  1  0  0  0
 20 21  2  0  0  0
 20 98  1  0  0  0
 21 23  1  0  0  0
 22 28  1  0  0  0
 22 32  2  0  0  0
 26 27  1  0  0  0
 28 99  1  0  0  0
 28100  1  0  0  0
 29101  1  0  0  0
 29102  1  0  0  0
 33 34  1  0  0  0
 33 66  1  0  0  0
 33 70  2  0  0  0
 34 36  1  0  0  0
 34 59  1  0  0  0
 34103  1  0  0  0
 35 44  2  0  0  0
 35 45  1  0  0  0
 35 68  1  0  0  0
 36 56  1  0  0  0
 36104  1  0  0  0
 37 39  1  0  0  0
 37 47  1  0  0  0
 37 66  1  0  0  0
 37105  1  0  0  0
 38 43  2  0  0  0
 38 46  1  0  0  0
 38 47  1  0  0  0
 39 64  1  0  0  0
 39 67  2  0  0  0
 40 52  1  0  0  0
 40 53  2  0  0  0
 40 58  1  0  0  0
 41106  1  0  0  0
 41107  1  0  0  0
 41108  1  0  0  0
 41 48  1  0  0  0
 42 43  1  0  0  0
 42 66  1  0  0  0
 42109  1  0  0  0
 42110  1  0  0  0
 43 44  1  0  0  0
 44111  1  0  0  0
 45 46  2  0  0  0
 45112  1  0  0  0
 46113  1  0  0  0
 47114  1  0  0  0
 47115  1  0  0  0
 48 56  1  0  0  0
 48 65  1  0  0  0
 48116  1  0  0  0
 49 50  1  0  0  0
 49 53  1  0  0  0
 49 64  1  0  0  0
 49117  1  0  0  0
 50 51  1  0  0  0
 50118  1  0  0  0
 50119  1  0  0  0
 51 52  1  0  0  0
 51120  1  0  0  0
 51121  1  0  0  0
 52122  1  0  0  0
 52123  1  0  0  0
 53 54  1  0  0  0
 54 55  2  0  0  0
 54124  1  0  0  0
 55 57  1  0  0  0
 55125  1  0  0  0
 56 69  2  0  0  0
 57 58  2  0  0  0
 57126  1  0  0  0
 58127  1  0  0  0
 59 60  1  0  0  0
 59 61  1  0  0  0
 59 62  1  0  0  0
 60128  1  0  0  0
 60129  1  0  0  0
 60130  1  0  0  0
 61131  1  0  0  0
 61132  1  0  0  0
 61133  1  0  0  0
 62134  1  0  0  0
 62135  1  0  0  0
 62136  1  0  0  0
 63 65  1  0  0  0
 63137  1  0  0  0
 63138  1  0  0  0
 63139  1  0  0  0
 64140  1  0  0  0
 65141  1  0  0  0
 68 78  1  0  0  0
 71 72  2  0  0  0
 71 73  1  0  0  0
 71142  1  0  0  0
 72 74  1  0  0  0
 72143  1  0  0  0
 73 75  2  0  0  0
 73 76  1  0  0  0
 74 80  1  0  0  0
 74 81  2  0  0  0
 75 78  1  0  0  0
 75 81  1  0  0  0
 76144  1  0  0  0
 76145  1  0  0  0
 76146  1  0  0  0
 77147  1  0  0  0
 77148  1  0  0  0
 77149  1  0  0  0
 77 80  1  0  0  0
 78150  1  0  0  0
 78151  1  0  0  0
 79 80  1  0  0  0
 79 82  1  0  0  0
 79152  1  0  0  0
 79153  1  0  0  0
 80154  1  0  0  0
 82155  1  0  0  0
M  ISO  4   1 100  68 101  78 101  82 100
M  END
> <chiral flag>
0

> <version>
0

> <s_m_source_file>
/data/baiqing/PycharmProjects/Reinvent-master-3.2/result/LINK_invent/BTK/process_docking_weight1_custom_sum_contain_oxygen_bond_distance_aromatic_linkinvent_7_9_3/rearranged_h_0079.sdf

> <i_m_source_file_index>
49

> <r_mmod_Potential_Energy-OPLS-2005>
692.857238769531

> <r_mmod_Stretch_Energy-OPLS-2005>
365.870330810547

> <r_mmod_Bend_Energy-OPLS-2005>
411.467987060547

> <r_mmod_Torsional_Energy-OPLS-2005>
253.357116699219

> <r_mmod_Improper_Torsional_Energy-OPLS-2005>
8.74624919891357

> <r_mmod_Van_der_Waal_Energy-OPLS-2005>
125.973320007324

> <r_mmod_Electrostatic_Energy-OPLS-2005>
-490.514923095703

> <r_mmod_Solvation_Energy-OPLS-2005>
-229.94123840332

> <b_mmod_Minimization_Converged-OPLS-2005>
0

> <r_mmod_RMS_Derivative-OPLS-2005>
8.17861557006836

$$$$
49
                    3D
 Structure written by MMmdl.
164172  0  0  1  0            999 V2000
  -30.7618  -14.5008   20.5868 C   0  0  0  0  0  0
  -30.4082  -12.3341   19.4467 C   0  0  0  0  0  0
  -29.4877  -12.5014   18.2234 C   0  0  0  0  0  0
  -28.0150  -12.3548   18.6398 C   0  0  0  0  0  0
  -27.6592  -13.2189   19.8784 C   0  0  2  0  0  0
  -28.7036  -13.0640   21.0095 C   0  0  0  0  0  0
  -25.2562  -13.8188   20.5681 C   0  0  0  0  0  0
  -24.1824  -13.0442   20.9183 C   0  0  0  0  0  0
  -24.6394  -11.6919   20.8744 C   0  0  0  0  0  0
  -23.9061  -10.4291   21.0384 C   0  0  0  0  0  0
  -24.3606   -9.4213   21.9159 C   0  0  0  0  0  0
  -23.6280   -8.2256   22.0751 C   0  0  0  0  0  0
  -22.4268   -8.0279   21.3535 C   0  0  0  0  0  0
  -21.9892   -9.0256   20.4633 C   0  0  0  0  0  0
  -22.7232  -10.2125   20.3042 C   0  0  0  0  0  0
  -21.6865   -6.0724   22.5273 C   0  0  0  0  0  0
  -21.4038   -6.5631   23.8209 C   0  0  0  0  0  0
  -21.3662   -5.6779   24.9172 C   0  0  0  0  0  0
  -21.6047   -4.3050   24.7213 C   0  0  0  0  0  0
  -21.8831   -3.8139   23.4338 C   0  0  0  0  0  0
  -21.9205   -4.6951   22.3395 C   0  0  0  0  0  0
  -22.7853  -13.5246   21.1812 C   0  0  0  0  0  0
  -22.1660   -4.2145   21.0965 F   0  0  0  0  0  0
  -21.5623   -3.4533   25.7727 F   0  0  0  0  0  0
  -30.0333  -13.3512   20.4513 N   0  0  0  0  0  0
  -26.3022  -12.9386   20.3440 N   0  0  0  0  0  0
  -25.9336  -11.6530   20.5833 N   0  0  0  0  0  0
  -22.0483  -12.8254   22.0363 N   0  0  0  0  0  0
  -25.4225  -15.1905   20.4025 N   0  0  0  0  0  0
  -31.8207  -14.6761   19.9869 O   0  0  0  0  0  0
  -21.6645   -6.8870   21.4234 O   0  0  0  0  0  0
  -22.3560  -14.5560   20.6665 O   0  0  0  0  0  0
  -24.6200  -31.8650   23.2146 C   0  0  0  0  0  0
  -25.9061  -32.4796   23.8447 C   0  0  1  0  0  0
  -27.2156  -27.3705   20.0972 C   0  0  0  0  0  0
  -25.5917  -33.8606   24.2366 N   0  0  0  0  0  0
  -23.4119  -30.4962   21.5519 C   0  0  2  0  0  0
  -24.8555  -28.9694   20.1071 C   0  0  0  0  0  0
  -22.7455  -29.4641   22.4929 C   0  0  0  0  0  0
  -18.0285  -28.1390   22.8454 C   0  0  0  0  0  0
  -24.1481  -36.7306   23.2643 C   0  0  0  0  0  0
  -25.9516  -30.8093   21.3842 C   0  0  0  0  0  0
  -26.0203  -29.4432   20.7217 C   0  0  0  0  0  0
  -27.2001  -28.6510   20.7159 C   0  0  0  0  0  0
  -26.0361  -26.9590   19.4278 C   0  0  0  0  0  0
  -24.8630  -27.7312   19.4532 C   0  0  0  0  0  0
  -23.6255  -29.8476   20.1608 C   0  0  0  0  0  0
  -25.4099  -36.3112   24.0351 C   0  0  1  0  0  0
  -20.5879  -28.3674   23.1267 C   0  0  2  0  0  0
  -20.6760  -26.9389   22.5404 C   0  0  0  0  0  0
  -19.5748  -26.6379   21.5191 C   0  0  0  0  0  0
  -18.1925  -26.7929   22.1596 C   0  0  0  0  0  0
  -19.1538  -28.8848   23.2857 C   0  0  0  0  0  0
  -18.9464  -30.1446   23.8879 C   0  0  0  0  0  0
  -17.6458  -30.6578   24.0557 C   0  0  0  0  0  0
  -25.9032  -34.9464   23.5151 C   0  0  0  0  0  0
  -16.5349  -29.9073   23.6326 C   0  0  0  0  0  0
  -16.7271  -28.6510   23.0318 C   0  0  0  0  0  0
  -26.4490  -31.6585   25.0786 C   0  0  0  0  0  0
  -25.3764  -31.3666   26.1539 C   0  0  0  0  0  0
  -27.0337  -30.3026   24.6209 C   0  0  0  0  0  0
  -27.6086  -32.4301   25.7522 C   0  0  0  0  0  0
  -27.5583  -37.1812   24.8470 C   0  0  0  0  0  0
  -21.4176  -29.3042   22.3678 N   0  0  0  0  0  0
  -26.4298  -37.3786   23.9413 N   0  0  0  0  0  0
  -24.6787  -31.0726   22.1069 N   0  0  0  0  0  0
  -23.4208  -28.8131   23.2945 O   0  0  0  0  0  0
  -28.3485  -26.5553   20.1682 O   0  0  0  0  0  0
  -26.5590  -34.8904   22.4707 O   0  0  0  0  0  0
  -23.5364  -32.1407   23.7508 O   0  0  0  0  0  0
  -26.7053  -20.0258   21.4496 C   0  0  0  0  0  0
  -27.5426  -18.9044   21.3810 C   0  0  0  0  0  0
  -27.1910  -21.2990   21.0755 C   0  0  0  0  0  0
  -28.8873  -19.0629   21.0100 C   0  0  0  0  0  0
  -28.5332  -21.3938   20.6161 C   0  0  0  0  0  0
  -24.9637  -22.3335   21.9382 C   0  0  0  0  0  0
  -29.1100  -16.5894   23.1123 C   0  0  0  0  0  0
  -26.2597  -22.5130   21.1285 C   0  0  0  0  0  0
  -29.8611  -17.8419   20.9580 C   0  0  0  0  0  0
  -29.0762  -22.6524   19.8727 C   0  0  0  0  0  0
  -29.1056  -24.0908   20.5269 C   0  0  0  0  0  0
  -28.2296  -25.1519   19.7771 C   0  0  0  0  0  0
  -29.4201  -16.4570   21.6071 C   0  0  1  0  0  0
  -29.3540  -20.2929   20.6235 N   0  0  0  0  0  0
  -30.4481  -15.3828   21.5561 N   0  0  0  0  0  0
  -31.4568  -12.3949   19.1471 H   0  0  0  0  0  0
  -30.2886  -11.3373   19.8753 H   0  0  0  0  0  0
  -29.7308  -11.7539   17.4666 H   0  0  0  0  0  0
  -29.6500  -13.4761   17.7604 H   0  0  0  0  0  0
  -27.8353  -11.3014   18.8607 H   0  0  0  0  0  0
  -27.3602  -12.6033   17.8034 H   0  0  0  0  0  0
  -27.6854  -14.2592   19.5527 H   0  0  0  0  0  0
  -28.6833  -12.0495   21.4124 H   0  0  0  0  0  0
  -28.4612  -13.7216   21.8436 H   0  0  0  0  0  0
  -25.2751   -9.5723   22.4718 H   0  0  0  0  0  0
  -24.0001   -7.4675   22.7490 H   0  0  0  0  0  0
  -21.0825   -8.8795   19.8925 H   0  0  0  0  0  0
  -22.3707  -10.9669   19.6153 H   0  0  0  0  0  0
  -21.2044   -7.6139   23.9734 H   0  0  0  0  0  0
  -21.1461   -6.0482   25.9075 H   0  0  0  0  0  0
  -22.0601   -2.7599   23.2841 H   0  0  0  0  0  0
  -22.4111  -11.9927   22.4773 H   0  0  0  0  0  0
  -21.1107  -13.1291   22.2573 H   0  0  0  0  0  0
  -24.6507  -15.8408   20.5036 H   0  0  0  0  0  0
  -26.2690  -15.6323   20.0660 H   0  0  0  0  0  0
  -26.7115  -32.5474   23.1188 H   0  0  0  0  0  0
  -25.0107  -33.9775   25.0542 H   0  0  0  0  0  0
  -22.7017  -31.3161   21.4171 H   0  0  0  0  0  0
  -23.3750  -35.9634   23.3311 H   0  0  0  0  0  0
  -24.3589  -36.8919   22.2063 H   0  0  0  0  0  0
  -23.7225  -37.6510   23.6638 H   0  0  0  0  0  0
  -26.0909  -31.5824   20.6261 H   0  0  0  0  0  0
  -26.8308  -30.8451   22.0165 H   0  0  0  0  0  0
  -28.0917  -29.0071   21.2114 H   0  0  0  0  0  0
  -25.9804  -26.0441   18.8608 H   0  0  0  0  0  0
  -23.9782  -27.3745   18.9450 H   0  0  0  0  0  0
  -23.7502  -30.6354   19.4159 H   0  0  0  0  0  0
  -22.7435  -29.2881   19.8443 H   0  0  0  0  0  0
  -25.1263  -36.2006   25.0848 H   0  0  0  0  0  0
  -20.9958  -28.3235   24.1390 H   0  0  0  0  0  0
  -20.5632  -26.2272   23.3600 H   0  0  0  0  0  0
  -21.6625  -26.7395   22.1210 H   0  0  0  0  0  0
  -19.6895  -25.6292   21.1221 H   0  0  0  0  0  0
  -19.6696  -27.3179   20.6716 H   0  0  0  0  0  0
  -17.4181  -26.6650   21.4009 H   0  0  0  0  0  0
  -18.0320  -26.0099   22.9028 H   0  0  0  0  0  0
  -19.7944  -30.7264   24.2228 H   0  0  0  0  0  0
  -17.5021  -31.6249   24.5174 H   0  0  0  0  0  0
  -15.5343  -30.2964   23.7695 H   0  0  0  0  0  0
  -15.8671  -28.0849   22.6998 H   0  0  0  0  0  0
  -24.5965  -30.6973   25.7888 H   0  0  0  0  0  0
  -24.8915  -32.2789   26.5019 H   0  0  0  0  0  0
  -25.8156  -30.8842   27.0283 H   0  0  0  0  0  0
  -26.2909  -29.6753   24.1271 H   0  0  0  0  0  0
  -27.4086  -29.7300   25.4702 H   0  0  0  0  0  0
  -27.8752  -30.4338   23.9405 H   0  0  0  0  0  0
  -27.2751  -33.3603   26.2134 H   0  0  0  0  0  0
  -28.3870  -32.6857   25.0318 H   0  0  0  0  0  0
  -28.0771  -31.8393   26.5403 H   0  0  0  0  0  0
  -28.2605  -38.0106   24.7518 H   0  0  0  0  0  0
  -28.1083  -36.2642   24.6292 H   0  0  0  0  0  0
  -27.2309  -37.1461   25.8877 H   0  0  0  0  0  0
  -20.9325  -29.8885   21.7017 H   0  0  0  0  0  0
  -26.0196  -38.2868   24.1418 H   0  0  0  0  0  0
  -25.6844  -19.8746   21.7666 H   0  0  0  0  0  0
  -27.1314  -17.9360   21.6289 H   0  0  0  0  0  0
  -24.4309  -23.2812   22.0233 H   0  0  0  0  0  0
  -25.1730  -21.9932   22.9539 H   0  0  0  0  0  0
  -24.2826  -21.6244   21.4678 H   0  0  0  0  0  0
  -30.0123  -16.8467   23.6723 H   0  0  0  0  0  0
  -28.7266  -15.6527   23.5193 H   0  0  0  0  0  0
  -28.3748  -17.3556   23.3413 H   0  0  0  0  0  0
  -26.0172  -22.8232   20.1108 H   0  0  0  0  0  0
  -26.7914  -23.3337   21.6020 H   0  0  0  0  0  0
  -30.8080  -18.1569   21.3989 H   0  0  0  0  0  0
  -30.0713  -17.6748   19.9018 H   0  0  0  0  0  0
  -28.5226  -22.7052   18.9350 H   0  0  0  0  0  0
  -30.0962  -22.4286   19.5593 H   0  0  0  0  0  0
  -30.1346  -24.4509   20.4977 H   0  0  0  0  0  0
  -28.8624  -24.0500   21.5881 H   0  0  0  0  0  0
  -27.2138  -24.7888   19.8966 H   0  0  0  0  0  0
  -28.4486  -25.1051   18.7097 H   0  0  0  0  0  0
  -28.5266  -16.1125   21.0881 H   0  0  0  0  0  0
  -31.3106  -15.7285   21.9497 H   0  0  0  0  0  0
  1 25  1  0  0  0
  1 30  2  0  0  0
  1 85  1  0  0  0
  2  3  1  0  0  0
  2 25  1  0  0  0
  2 86  1  0  0  0
  2 87  1  0  0  0
  3  4  1  0  0  0
  3 88  1  0  0  0
  3 89  1  0  0  0
  4  5  1  0  0  0
  4 90  1  0  0  0
  4 91  1  0  0  0
  5  6  1  0  0  0
  5 26  1  0  0  0
  5 92  1  0  0  0
  6 25  1  0  0  0
  6 93  1  0  0  0
  6 94  1  0  0  0
  7  8  2  0  0  0
  7 26  1  0  0  0
  7 29  1  0  0  0
  8  9  1  0  0  0
  8 22  1  0  0  0
  9 10  1  0  0  0
  9 27  2  0  0  0
 10 11  2  0  0  0
 10 15  1  0  0  0
 11 12  1  0  0  0
 11 95  1  0  0  0
 12 13  2  0  0  0
 12 96  1  0  0  0
 13 14  1  0  0  0
 13 31  1  0  0  0
 14 15  2  0  0  0
 14 97  1  0  0  0
 15 98  1  0  0  0
 16 17  2  0  0  0
 16 21  1  0  0  0
 16 31  1  0  0  0
 17 18  1  0  0  0
 17 99  1  0  0  0
 18 19  2  0  0  0
 18100  1  0  0  0
 19 20  1  0  0  0
 19 24  1  0  0  0
 20 21  2  0  0  0
 20101  1  0  0  0
 21 23  1  0  0  0
 22 28  1  0  0  0
 22 32  2  0  0  0
 26 27  1  0  0  0
 28102  1  0  0  0
 28103  1  0  0  0
 29104  1  0  0  0
 29105  1  0  0  0
 33 34  1  0  0  0
 33 66  1  0  0  0
 33 70  2  0  0  0
 34 36  1  0  0  0
 34 59  1  0  0  0
 34106  1  0  0  0
 35 44  2  0  0  0
 35 45  1  0  0  0
 35 68  1  0  0  0
 36 56  1  0  0  0
 36107  1  0  0  0
 37 39  1  0  0  0
 37 47  1  0  0  0
 37 66  1  0  0  0
 37108  1  0  0  0
 38 43  2  0  0  0
 38 46  1  0  0  0
 38 47  1  0  0  0
 39 64  1  0  0  0
 39 67  2  0  0  0
 40 52  1  0  0  0
 40 53  2  0  0  0
 40 58  1  0  0  0
 41109  1  0  0  0
 41110  1  0  0  0
 41111  1  0  0  0
 41 48  1  0  0  0
 42 43  1  0  0  0
 42 66  1  0  0  0
 42112  1  0  0  0
 42113  1  0  0  0
 43 44  1  0  0  0
 44114  1  0  0  0
 45 46  2  0  0  0
 45115  1  0  0  0
 46116  1  0  0  0
 47117  1  0  0  0
 47118  1  0  0  0
 48 56  1  0  0  0
 48 65  1  0  0  0
 48119  1  0  0  0
 49 50  1  0  0  0
 49 53  1  0  0  0
 49 64  1  0  0  0
 49120  1  0  0  0
 50 51  1  0  0  0
 50121  1  0  0  0
 50122  1  0  0  0
 51 52  1  0  0  0
 51123  1  0  0  0
 51124  1  0  0  0
 52125  1  0  0  0
 52126  1  0  0  0
 53 54  1  0  0  0
 54 55  2  0  0  0
 54127  1  0  0  0
 55 57  1  0  0  0
 55128  1  0  0  0
 56 69  2  0  0  0
 57 58  2  0  0  0
 57129  1  0  0  0
 58130  1  0  0  0
 59 60  1  0  0  0
 59 61  1  0  0  0
 59 62  1  0  0  0
 60131  1  0  0  0
 60132  1  0  0  0
 60133  1  0  0  0
 61134  1  0  0  0
 61135  1  0  0  0
 61136  1  0  0  0
 62137  1  0  0  0
 62138  1  0  0  0
 62139  1  0  0  0
 63 65  1  0  0  0
 63140  1  0  0  0
 63141  1  0  0  0
 63142  1  0  0  0
 64143  1  0  0  0
 65144  1  0  0  0
 68 82  1  0  0  0
 71 72  2  0  0  0
 71 73  1  0  0  0
 71145  1  0  0  0
 72 74  1  0  0  0
 72146  1  0  0  0
 73 75  2  0  0  0
 73 78  1  0  0  0
 74 79  1  0  0  0
 74 84  2  0  0  0
 75 80  1  0  0  0
 75 84  1  0  0  0
 76 78  1  0  0  0
 76147  1  0  0  0
 76148  1  0  0  0
 76149  1  0  0  0
 77150  1  0  0  0
 77151  1  0  0  0
 77152  1  0  0  0
 77 83  1  0  0  0
 78153  1  0  0  0
 78154  1  0  0  0
 79 83  1  0  0  0
 79155  1  0  0  0
 79156  1  0  0  0
 80 81  1  0  0  0
 80157  1  0  0  0
 80158  1  0  0  0
 81 82  1  0  0  0
 81159  1  0  0  0
 81160  1  0  0  0
 82161  1  0  0  0
 82162  1  0  0  0
 83 85  1  0  0  0
 83163  1  0  0  0
 85164  1  0  0  0
M  ISO  4   1 100  68 101  82 101  85 100
M  END
> <chiral flag>
0

> <version>
0

> <s_m_source_file>
/data/baiqing/PycharmProjects/Reinvent-master-3.2/result/LINK_invent/BTK/process_docking_weight1_custom_sum_contain_oxygen_bond_distance_aromatic_linkinvent_7_9_3/rearranged_h_0079.sdf

> <i_m_source_file_index>
50

> <r_mmod_Potential_Energy-OPLS-2005>
-38.2440795898438

> <r_mmod_Stretch_Energy-OPLS-2005>
62.5633964538574

> <r_mmod_Bend_Energy-OPLS-2005>
155.234588623047

> <r_mmod_Torsional_Energy-OPLS-2005>
264.934722900391

> <r_mmod_Improper_Torsional_Energy-OPLS-2005>
9.55094718933105

> <r_mmod_Van_der_Waal_Energy-OPLS-2005>
153.324493408203

> <r_mmod_Electrostatic_Energy-OPLS-2005>
-496.2783203125

> <r_mmod_Solvation_Energy-OPLS-2005>
-213.705169677734

> <b_mmod_Minimization_Converged-OPLS-2005>
0

> <r_mmod_RMS_Derivative-OPLS-2005>
3.100919008255

$$$$
50
                    3D
 Structure written by MMmdl.
163171  0  0  1  0            999 V2000
  -30.6327  -14.5609   20.5447 C   0  0  0  0  0  0
  -30.4379  -12.3474   19.4474 C   0  0  0  0  0  0
  -29.5112  -12.5256   18.2230 C   0  0  0  0  0  0
  -28.0282  -12.3780   18.6228 C   0  0  0  0  0  0
  -27.6628  -13.2122   19.8802 C   0  0  2  0  0  0
  -28.7026  -12.9997   21.0053 C   0  0  0  0  0  0
  -25.2576  -13.8154   20.5680 C   0  0  0  0  0  0
  -24.1832  -13.0425   20.9179 C   0  0  0  0  0  0
  -24.6392  -11.6897   20.8724 C   0  0  0  0  0  0
  -23.9066  -10.4285   21.0393 C   0  0  0  0  0  0
  -24.3619   -9.4203   21.9174 C   0  0  0  0  0  0
  -23.6294   -8.2241   22.0750 C   0  0  0  0  0  0
  -22.4273   -8.0279   21.3546 C   0  0  0  0  0  0
  -21.9904   -9.0249   20.4644 C   0  0  0  0  0  0
  -22.7233  -10.2128   20.3047 C   0  0  0  0  0  0
  -21.6854   -6.0739   22.5284 C   0  0  0  0  0  0
  -21.4014   -6.5642   23.8218 C   0  0  0  0  0  0
  -21.3661   -5.6790   24.9179 C   0  0  0  0  0  0
  -21.6048   -4.3053   24.7228 C   0  0  0  0  0  0
  -21.8817   -3.8149   23.4348 C   0  0  0  0  0  0
  -21.9188   -4.6967   22.3406 C   0  0  0  0  0  0
  -22.7852  -13.5219   21.1851 C   0  0  0  0  0  0
  -22.1655   -4.2161   21.0981 F   0  0  0  0  0  0
  -21.5629   -3.4528   25.7736 F   0  0  0  0  0  0
  -30.0327  -13.3353   20.4659 N   0  0  0  0  0  0
  -26.3023  -12.9338   20.3364 N   0  0  0  0  0  0
  -25.9326  -11.6495   20.5756 N   0  0  0  0  0  0
  -22.0486  -12.8232   22.0408 N   0  0  0  0  0  0
  -25.4290  -15.1883   20.4115 N   0  0  0  0  0  0
  -31.7414  -14.7896   20.0540 O   0  0  0  0  0  0
  -21.6641   -6.8879   21.4245 O   0  0  0  0  0  0
  -22.3544  -14.5515   20.6674 O   0  0  0  0  0  0
  -24.6173  -31.8626   23.2026 C   0  0  0  0  0  0
  -25.9058  -32.4797   23.8330 C   0  0  1  0  0  0
  -27.2477  -27.3979   20.0816 C   0  0  0  0  0  0
  -25.5883  -33.8594   24.2259 N   0  0  0  0  0  0
  -23.4088  -30.4832   21.5445 C   0  0  2  0  0  0
  -24.8555  -28.9362   20.1140 C   0  0  0  0  0  0
  -22.7430  -29.4625   22.4954 C   0  0  0  0  0  0
  -18.0270  -28.1407   22.8452 C   0  0  0  0  0  0
  -24.1494  -36.7322   23.2636 C   0  0  0  0  0  0
  -25.9414  -30.8123   21.3624 C   0  0  0  0  0  0
  -26.0162  -29.4435   20.7081 C   0  0  0  0  0  0
  -27.2097  -28.6822   20.6872 C   0  0  0  0  0  0
  -26.0625  -26.9079   19.4874 C   0  0  0  0  0  0
  -24.8750  -27.6692   19.5026 C   0  0  0  0  0  0
  -23.6185  -29.8083   20.1625 C   0  0  0  0  0  0
  -25.4122  -36.3108   24.0321 C   0  0  1  0  0  0
  -20.5861  -28.3686   23.1308 C   0  0  2  0  0  0
  -20.6774  -26.9411   22.5434 C   0  0  0  0  0  0
  -19.5757  -26.6392   21.5226 C   0  0  0  0  0  0
  -18.1922  -26.7948   22.1606 C   0  0  0  0  0  0
  -19.1517  -28.8857   23.2874 C   0  0  0  0  0  0
  -18.9454  -30.1457   23.8896 C   0  0  0  0  0  0
  -17.6457  -30.6596   24.0560 C   0  0  0  0  0  0
  -25.9046  -34.9465   23.5105 C   0  0  0  0  0  0
  -16.5341  -29.9106   23.6330 C   0  0  0  0  0  0
  -16.7255  -28.6535   23.0321 C   0  0  0  0  0  0
  -26.4462  -31.6604   25.0697 C   0  0  0  0  0  0
  -25.3711  -31.3766   26.1448 C   0  0  0  0  0  0
  -27.0279  -30.3021   24.6134 C   0  0  0  0  0  0
  -27.6037  -32.4333   25.7446 C   0  0  0  0  0  0
  -27.5594  -37.1809   24.8456 C   0  0  0  0  0  0
  -21.4152  -29.3039   22.3712 N   0  0  0  0  0  0
  -26.4307  -37.3798   23.9402 N   0  0  0  0  0  0
  -24.6747  -31.0692   22.0941 N   0  0  0  0  0  0
  -23.4186  -28.8184   23.3032 O   0  0  0  0  0  0
  -28.4408  -26.6883   20.0987 O   0  0  0  0  0  0
  -26.5642  -34.8925   22.4684 O   0  0  0  0  0  0
  -23.5370  -32.1393   23.7405 O   0  0  0  0  0  0
  -28.1498  -20.3544   23.1890 C   0  0  0  0  0  0
  -28.0171  -21.5447   22.4508 C   0  0  0  0  0  0
  -28.6939  -21.5753   21.1916 C   0  0  0  0  0  0
  -29.4542  -19.3809   21.5885 C   0  0  0  0  0  0
  -28.0939  -23.4932   24.0703 C   0  0  0  0  0  0
  -25.9116  -22.2501   23.7880 C   0  0  0  0  0  0
  -28.7827  -22.7770   20.1875 C   0  0  0  0  0  0
  -30.3396  -18.1479   21.2369 C   0  0  0  0  0  0
  -28.1844  -24.1988   20.4961 C   0  0  0  0  0  0
  -29.6514  -16.9479   20.4933 C   0  0  0  0  0  0
  -28.5801  -25.3584   19.5348 C   0  0  0  0  0  0
  -27.2170  -22.6890   23.0951 C   0  0  0  0  0  0
  -28.8450  -19.2926   22.7590 N   0  0  0  0  0  0
  -29.3953  -20.4660   20.7936 N   0  0  0  0  0  0
  -29.8360  -15.5555   21.0139 N   0  0  0  0  0  0
  -31.4823  -12.4655   19.1543 H   0  0  0  0  0  0
  -30.3519  -11.3342   19.8464 H   0  0  0  0  0  0
  -29.7642  -11.8016   17.4479 H   0  0  0  0  0  0
  -29.6728  -13.5112   17.7821 H   0  0  0  0  0  0
  -27.8340  -11.3195   18.8050 H   0  0  0  0  0  0
  -27.3878  -12.6661   17.7889 H   0  0  0  0  0  0
  -27.6998  -14.2611   19.5840 H   0  0  0  0  0  0
  -28.6896  -11.9593   21.3314 H   0  0  0  0  0  0
  -28.4530  -13.5841   21.8927 H   0  0  0  0  0  0
  -25.2767   -9.5675   22.4750 H   0  0  0  0  0  0
  -24.0006   -7.4627   22.7452 H   0  0  0  0  0  0
  -21.0842   -8.8747   19.8956 H   0  0  0  0  0  0
  -22.3673  -10.9660   19.6155 H   0  0  0  0  0  0
  -21.2004   -7.6150   23.9725 H   0  0  0  0  0  0
  -21.1492   -6.0523   25.9083 H   0  0  0  0  0  0
  -22.0597   -2.7615   23.2840 H   0  0  0  0  0  0
  -22.4102  -11.9912   22.4841 H   0  0  0  0  0  0
  -21.1094  -13.1264   22.2579 H   0  0  0  0  0  0
  -24.6613  -15.8418   20.5198 H   0  0  0  0  0  0
  -26.2817  -15.6286   20.0899 H   0  0  0  0  0  0
  -26.7112  -32.5464   23.1062 H   0  0  0  0  0  0
  -24.9994  -33.9747   25.0379 H   0  0  0  0  0  0
  -22.6994  -31.3006   21.4004 H   0  0  0  0  0  0
  -23.3756  -35.9653   23.3307 H   0  0  0  0  0  0
  -24.3586  -36.8960   22.2053 H   0  0  0  0  0  0
  -23.7253  -37.6524   23.6664 H   0  0  0  0  0  0
  -26.0725  -31.5735   20.5937 H   0  0  0  0  0  0
  -26.8242  -30.8582   21.9900 H   0  0  0  0  0  0
  -28.1073  -29.0773   21.1433 H   0  0  0  0  0  0
  -26.0356  -25.9402   19.0079 H   0  0  0  0  0  0
  -23.9809  -27.2728   19.0411 H   0  0  0  0  0  0
  -23.7283  -30.5801   19.3998 H   0  0  0  0  0  0
  -22.7418  -29.2312   19.8650 H   0  0  0  0  0  0
  -25.1309  -36.1965   25.0819 H   0  0  0  0  0  0
  -20.9923  -28.3262   24.1440 H   0  0  0  0  0  0
  -20.5712  -26.2275   23.3619 H   0  0  0  0  0  0
  -21.6639  -26.7478   22.1202 H   0  0  0  0  0  0
  -19.6928  -25.6318   21.1233 H   0  0  0  0  0  0
  -19.6727  -27.3213   20.6769 H   0  0  0  0  0  0
  -17.4209  -26.6664   21.3998 H   0  0  0  0  0  0
  -18.0306  -26.0122   22.9031 H   0  0  0  0  0  0
  -19.7934  -30.7258   24.2267 H   0  0  0  0  0  0
  -17.5024  -31.6269   24.5185 H   0  0  0  0  0  0
  -15.5348  -30.3012   23.7685 H   0  0  0  0  0  0
  -15.8644  -28.0876   22.7028 H   0  0  0  0  0  0
  -24.5795  -30.7228   25.7773 H   0  0  0  0  0  0
  -24.9004  -32.2957   26.4940 H   0  0  0  0  0  0
  -25.8013  -30.8850   27.0178 H   0  0  0  0  0  0
  -26.2825  -29.6785   24.1178 H   0  0  0  0  0  0
  -27.4010  -29.7276   25.4625 H   0  0  0  0  0  0
  -27.8683  -30.4324   23.9314 H   0  0  0  0  0  0
  -27.2651  -33.3618   26.2048 H   0  0  0  0  0  0
  -28.3802  -32.6927   25.0242 H   0  0  0  0  0  0
  -28.0741  -31.8446   26.5333 H   0  0  0  0  0  0
  -28.2620  -38.0101   24.7518 H   0  0  0  0  0  0
  -28.1086  -36.2639   24.6259 H   0  0  0  0  0  0
  -27.2313  -37.1445   25.8859 H   0  0  0  0  0  0
  -20.9333  -29.8754   21.6910 H   0  0  0  0  0  0
  -26.0199  -38.2881   24.1388 H   0  0  0  0  0  0
  -27.7182  -20.2502   24.1721 H   0  0  0  0  0  0
  -29.0197  -23.8340   23.6074 H   0  0  0  0  0  0
  -28.3716  -22.8968   24.9394 H   0  0  0  0  0  0
  -27.5696  -24.3782   24.4339 H   0  0  0  0  0  0
  -25.2454  -21.7312   23.0987 H   0  0  0  0  0  0
  -25.3653  -23.1239   24.1481 H   0  0  0  0  0  0
  -26.0708  -21.6088   24.6540 H   0  0  0  0  0  0
  -28.3627  -22.4385   19.2396 H   0  0  0  0  0  0
  -29.8462  -22.9146   19.9936 H   0  0  0  0  0  0
  -30.7900  -17.7894   22.1634 H   0  0  0  0  0  0
  -31.1814  -18.4981   20.6395 H   0  0  0  0  0  0
  -28.5039  -24.5053   21.4888 H   0  0  0  0  0  0
  -27.0966  -24.1431   20.4775 H   0  0  0  0  0  0
  -29.9152  -16.9839   19.4355 H   0  0  0  0  0  0
  -28.5759  -17.1262   20.5191 H   0  0  0  0  0  0
  -28.0811  -25.2641   18.5703 H   0  0  0  0  0  0
  -29.6415  -25.2582   19.3075 H   0  0  0  0  0  0
  -26.8365  -23.3454   22.3329 H   0  0  0  0  0  0
  -29.0255  -15.1971   21.4979 H   0  0  0  0  0  0
  1 25  1  0  0  0
  1 30  2  0  0  0
  1 85  1  0  0  0
  2  3  1  0  0  0
  2 25  1  0  0  0
  2 86  1  0  0  0
  2 87  1  0  0  0
  3  4  1  0  0  0
  3 88  1  0  0  0
  3 89  1  0  0  0
  4  5  1  0  0  0
  4 90  1  0  0  0
  4 91  1  0  0  0
  5  6  1  0  0  0
  5 26  1  0  0  0
  5 92  1  0  0  0
  6 25  1  0  0  0
  6 93  1  0  0  0
  6 94  1  0  0  0
  7  8  2  0  0  0
  7 26  1  0  0  0
  7 29  1  0  0  0
  8  9  1  0  0  0
  8 22  1  0  0  0
  9 10  1  0  0  0
  9 27  2  0  0  0
 10 11  2  0  0  0
 10 15  1  0  0  0
 11 12  1  0  0  0
 11 95  1  0  0  0
 12 13  2  0  0  0
 12 96  1  0  0  0
 13 14  1  0  0  0
 13 31  1  0  0  0
 14 15  2  0  0  0
 14 97  1  0  0  0
 15 98  1  0  0  0
 16 17  2  0  0  0
 16 21  1  0  0  0
 16 31  1  0  0  0
 17 18  1  0  0  0
 17 99  1  0  0  0
 18 19  2  0  0  0
 18100  1  0  0  0
 19 20  1  0  0  0
 19 24  1  0  0  0
 20 21  2  0  0  0
 20101  1  0  0  0
 21 23  1  0  0  0
 22 28  1  0  0  0
 22 32  2  0  0  0
 26 27  1  0  0  0
 28102  1  0  0  0
 28103  1  0  0  0
 29104  1  0  0  0
 29105  1  0  0  0
 33 34  1  0  0  0
 33 66  1  0  0  0
 33 70  2  0  0  0
 34 36  1  0  0  0
 34 59  1  0  0  0
 34106  1  0  0  0
 35 44  2  0  0  0
 35 45  1  0  0  0
 35 68  1  0  0  0
 36 56  1  0  0  0
 36107  1  0  0  0
 37 39  1  0  0  0
 37 47  1  0  0  0
 37 66  1  0  0  0
 37108  1  0  0  0
 38 43  2  0  0  0
 38 46  1  0  0  0
 38 47  1  0  0  0
 39 64  1  0  0  0
 39 67  2  0  0  0
 40 52  1  0  0  0
 40 53  2  0  0  0
 40 58  1  0  0  0
 41109  1  0  0  0
 41110  1  0  0  0
 41111  1  0  0  0
 41 48  1  0  0  0
 42 43  1  0  0  0
 42 66  1  0  0  0
 42112  1  0  0  0
 42113  1  0  0  0
 43 44  1  0  0  0
 44114  1  0  0  0
 45 46  2  0  0  0
 45115  1  0  0  0
 46116  1  0  0  0
 47117  1  0  0  0
 47118  1  0  0  0
 48 56  1  0  0  0
 48 65  1  0  0  0
 48119  1  0  0  0
 49 50  1  0  0  0
 49 53  1  0  0  0
 49 64  1  0  0  0
 49120  1  0  0  0
 50 51  1  0  0  0
 50121  1  0  0  0
 50122  1  0  0  0
 51 52  1  0  0  0
 51123  1  0  0  0
 51124  1  0  0  0
 52125  1  0  0  0
 52126  1  0  0  0
 53 54  1  0  0  0
 54 55  2  0  0  0
 54127  1  0  0  0
 55 57  1  0  0  0
 55128  1  0  0  0
 56 69  2  0  0  0
 57 58  2  0  0  0
 57129  1  0  0  0
 58130  1  0  0  0
 59 60  1  0  0  0
 59 61  1  0  0  0
 59 62  1  0  0  0
 60131  1  0  0  0
 60132  1  0  0  0
 60133  1  0  0  0
 61134  1  0  0  0
 61135  1  0  0  0
 61136  1  0  0  0
 62137  1  0  0  0
 62138  1  0  0  0
 62139  1  0  0  0
 63 65  1  0  0  0
 63140  1  0  0  0
 63141  1  0  0  0
 63142  1  0  0  0
 64143  1  0  0  0
 65144  1  0  0  0
 68 81  1  0  0  0
 71 72  2  0  0  0
 71 83  1  0  0  0
 71145  1  0  0  0
 72 73  1  0  0  0
 72 82  1  0  0  0
 73 77  1  0  0  0
 73 84  2  0  0  0
 74 78  1  0  0  0
 74 83  2  0  0  0
 74 84  1  0  0  0
 75146  1  0  0  0
 75147  1  0  0  0
 75148  1  0  0  0
 75 82  1  0  0  0
 76 82  1  0  0  0
 76149  1  0  0  0
 76150  1  0  0  0
 76151  1  0  0  0
 77 79  1  0  0  0
 77152  1  0  0  0
 77153  1  0  0  0
 78 80  1  0  0  0
 78154  1  0  0  0
 78155  1  0  0  0
 79 81  1  0  0  0
 79156  1  0  0  0
 79157  1  0  0  0
 80 85  1  0  0  0
 80158  1  0  0  0
 80159  1  0  0  0
 81160  1  0  0  0
 81161  1  0  0  0
 82162  1  0  0  0
 85163  1  0  0  0
M  ISO  4   1 100  68 101  81 101  85 100
M  END
> <chiral flag>
0

> <version>
0

> <s_m_source_file>
/data/baiqing/PycharmProjects/Reinvent-master-3.2/result/LINK_invent/BTK/process_docking_weight1_custom_sum_contain_oxygen_bond_distance_aromatic_linkinvent_7_9_3/rearranged_h_0079.sdf

> <i_m_source_file_index>
51

> <r_mmod_Potential_Energy-OPLS-2005>
-331.967987060547

> <r_mmod_Stretch_Energy-OPLS-2005>
59.0504455566406

> <r_mmod_Bend_Energy-OPLS-2005>
157.941131591797

> <r_mmod_Torsional_Energy-OPLS-2005>
210.193313598633

> <r_mmod_Improper_Torsional_Energy-OPLS-2005>
6.88750982284546

> <r_mmod_Van_der_Waal_Energy-OPLS-2005>
158.285797119141

> <r_mmod_Electrostatic_Energy-OPLS-2005>
-717.064208984375

> <r_mmod_Solvation_Energy-OPLS-2005>
-230.355346679688

> <b_mmod_Minimization_Converged-OPLS-2005>
0

> <r_mmod_RMS_Derivative-OPLS-2005>
2.49572277069092

$$$$
51
                    3D
 Structure written by MMmdl.
164172  0  0  1  0            999 V2000
  -30.6156  -14.5433   20.5085 C   0  0  0  0  0  0
  -30.4364  -12.3240   19.4397 C   0  0  0  0  0  0
  -29.5044  -12.5027   18.2195 C   0  0  0  0  0  0
  -28.0240  -12.3578   18.6278 C   0  0  0  0  0  0
  -27.6630  -13.2003   19.8809 C   0  0  2  0  0  0
  -28.7066  -12.9852   21.0036 C   0  0  0  0  0  0
  -25.2617  -13.8137   20.5679 C   0  0  0  0  0  0
  -24.1859  -13.0436   20.9200 C   0  0  0  0  0  0
  -24.6403  -11.6894   20.8766 C   0  0  0  0  0  0
  -23.9061  -10.4276   21.0422 C   0  0  0  0  0  0
  -24.3612   -9.4190   21.9202 C   0  0  0  0  0  0
  -23.6279   -8.2235   22.0758 C   0  0  0  0  0  0
  -22.4276   -8.0276   21.3537 C   0  0  0  0  0  0
  -21.9908   -9.0264   20.4660 C   0  0  0  0  0  0
  -22.7237  -10.2137   20.3075 C   0  0  0  0  0  0
  -21.6842   -6.0734   22.5279 C   0  0  0  0  0  0
  -21.4010   -6.5638   23.8215 C   0  0  0  0  0  0
  -21.3655   -5.6790   24.9177 C   0  0  0  0  0  0
  -21.6042   -4.3054   24.7222 C   0  0  0  0  0  0
  -21.8817   -3.8144   23.4345 C   0  0  0  0  0  0
  -21.9194   -4.6961   22.3400 C   0  0  0  0  0  0
  -22.7880  -13.5238   21.1826 C   0  0  0  0  0  0
  -22.1659   -4.2150   21.0977 F   0  0  0  0  0  0
  -21.5627   -3.4546   25.7733 F   0  0  0  0  0  0
  -30.0327  -13.3121   20.4543 N   0  0  0  0  0  0
  -26.3023  -12.9287   20.3376 N   0  0  0  0  0  0
  -25.9331  -11.6452   20.5810 N   0  0  0  0  0  0
  -22.0500  -12.8269   22.0392 N   0  0  0  0  0  0
  -25.4366  -15.1832   20.3979 N   0  0  0  0  0  0
  -31.7403  -14.7708   20.0517 O   0  0  0  0  0  0
  -21.6630   -6.8886   21.4243 O   0  0  0  0  0  0
  -22.3586  -14.5544   20.6648 O   0  0  0  0  0  0
  -24.6175  -31.8688   23.2063 C   0  0  0  0  0  0
  -25.9081  -32.4844   23.8371 C   0  0  1  0  0  0
  -27.2272  -27.3824   20.1119 C   0  0  0  0  0  0
  -25.5926  -33.8631   24.2343 N   0  0  0  0  0  0
  -23.4098  -30.4899   21.5509 C   0  0  2  0  0  0
  -24.8542  -28.9513   20.1088 C   0  0  0  0  0  0
  -22.7415  -29.4665   22.4986 C   0  0  0  0  0  0
  -18.0317  -28.1407   22.8481 C   0  0  0  0  0  0
  -24.1486  -36.7316   23.2631 C   0  0  0  0  0  0
  -25.9400  -30.8206   21.3665 C   0  0  0  0  0  0
  -26.0163  -29.4485   20.7145 C   0  0  0  0  0  0
  -27.1986  -28.6678   20.7163 C   0  0  0  0  0  0
  -26.0378  -26.9070   19.5075 C   0  0  0  0  0  0
  -24.8631  -27.6836   19.5011 C   0  0  0  0  0  0
  -23.6168  -29.8204   20.1640 C   0  0  0  0  0  0
  -25.4094  -36.3120   24.0341 C   0  0  1  0  0  0
  -20.5891  -28.3675   23.1285 C   0  0  2  0  0  0
  -20.6794  -26.9407   22.5395 C   0  0  0  0  0  0
  -19.5776  -26.6400   21.5202 C   0  0  0  0  0  0
  -18.1951  -26.7955   22.1626 C   0  0  0  0  0  0
  -19.1562  -28.8865   23.2886 C   0  0  0  0  0  0
  -18.9461  -30.1456   23.8919 C   0  0  0  0  0  0
  -17.6457  -30.6584   24.0554 C   0  0  0  0  0  0
  -25.9025  -34.9489   23.5145 C   0  0  0  0  0  0
  -16.5351  -29.9087   23.6310 C   0  0  0  0  0  0
  -16.7293  -28.6508   23.0331 C   0  0  0  0  0  0
  -26.4499  -31.6618   25.0725 C   0  0  0  0  0  0
  -25.3733  -31.3686   26.1449 C   0  0  0  0  0  0
  -27.0319  -30.3051   24.6116 C   0  0  0  0  0  0
  -27.6093  -32.4318   25.7489 C   0  0  0  0  0  0
  -27.5594  -37.1810   24.8464 C   0  0  0  0  0  0
  -21.4151  -29.3057   22.3726 N   0  0  0  0  0  0
  -26.4306  -37.3787   23.9403 N   0  0  0  0  0  0
  -24.6755  -31.0753   22.0986 N   0  0  0  0  0  0
  -23.4152  -28.8183   23.3039 O   0  0  0  0  0  0
  -28.3998  -26.6417   20.1628 O   0  0  0  0  0  0
  -26.5553  -34.8933   22.4692 O   0  0  0  0  0  0
  -23.5362  -32.1461   23.7422 O   0  0  0  0  0  0
  -28.8634  -20.4982   20.4581 C   0  0  0  0  0  0
  -27.0621  -18.9521   20.5541 C   0  0  0  0  0  0
  -28.5112  -19.2173   20.7476 C   0  0  0  0  0  0
  -26.5994  -21.1495   19.9214 C   0  0  0  0  0  0
  -30.0488  -25.3859   19.0726 C   0  0  0  0  0  0
  -28.8293  -17.5449   22.6291 C   0  0  0  0  0  0
  -30.8325  -18.6223   21.6550 C   0  0  0  0  0  0
  -28.1678  -24.0829   20.2471 C   0  0  0  0  0  0
  -28.4244  -22.7579   19.4432 C   0  0  0  0  0  0
  -29.6249  -16.8899   20.2791 C   0  0  0  0  0  0
  -28.5606  -25.3858   19.4549 C   0  0  1  0  0  0
  -29.4320  -18.0753   21.3030 C   0  0  0  0  0  0
  -26.2052  -19.8291   20.1857 N   0  0  0  0  0  0
  -27.9285  -21.4690   20.0090 N   0  0  0  0  0  0
  -29.7655  -15.5330   20.8678 N   0  0  0  0  0  0
  -25.7721  -21.9909   19.5859 O   0  0  0  0  0  0
  -31.4833  -12.4304   19.1514 H   0  0  0  0  0  0
  -30.3462  -11.3148   19.8440 H   0  0  0  0  0  0
  -29.7487  -11.7730   17.4456 H   0  0  0  0  0  0
  -29.6680  -13.4852   17.7758 H   0  0  0  0  0  0
  -27.8374  -11.3028   18.8267 H   0  0  0  0  0  0
  -27.3743  -12.6273   17.7938 H   0  0  0  0  0  0
  -27.7012  -14.2442   19.5698 H   0  0  0  0  0  0
  -28.6963  -11.9475   21.3393 H   0  0  0  0  0  0
  -28.4708  -13.5778   21.8881 H   0  0  0  0  0  0
  -25.2765   -9.5643   22.4782 H   0  0  0  0  0  0
  -23.9986   -7.4609   22.7464 H   0  0  0  0  0  0
  -21.0847   -8.8777   19.8961 H   0  0  0  0  0  0
  -22.3708  -10.9677   19.6180 H   0  0  0  0  0  0
  -21.2005   -7.6155   23.9711 H   0  0  0  0  0  0
  -21.1476   -6.0532   25.9081 H   0  0  0  0  0  0
  -22.0605   -2.7615   23.2843 H   0  0  0  0  0  0
  -22.4113  -11.9952   22.4811 H   0  0  0  0  0  0
  -21.1116  -13.1299   22.2570 H   0  0  0  0  0  0
  -24.6470  -15.8186   20.4272 H   0  0  0  0  0  0
  -26.2594  -15.5864   19.9699 H   0  0  0  0  0  0
  -26.7135  -32.5512   23.1108 H   0  0  0  0  0  0
  -25.0122  -33.9784   25.0528 H   0  0  0  0  0  0
  -22.7091  -31.3117   21.4036 H   0  0  0  0  0  0
  -23.3785  -35.9632   23.3305 H   0  0  0  0  0  0
  -24.3578  -36.8926   22.2052 H   0  0  0  0  0  0
  -23.7230  -37.6512   23.6645 H   0  0  0  0  0  0
  -26.0472  -31.5835   20.5938 H   0  0  0  0  0  0
  -26.8267  -30.8791   21.9855 H   0  0  0  0  0  0
  -28.0970  -29.0412   21.1884 H   0  0  0  0  0  0
  -25.9828  -25.9235   19.0656 H   0  0  0  0  0  0
  -23.9674  -27.2956   19.0353 H   0  0  0  0  0  0
  -23.7301  -30.5980   19.4072 H   0  0  0  0  0  0
  -22.7400  -29.2382   19.8670 H   0  0  0  0  0  0
  -25.1287  -36.1982   25.0833 H   0  0  0  0  0  0
  -21.0002  -28.3250   24.1401 H   0  0  0  0  0  0
  -20.5663  -26.2298   23.3586 H   0  0  0  0  0  0
  -21.6652  -26.7418   22.1198 H   0  0  0  0  0  0
  -19.6900  -25.6302   21.1247 H   0  0  0  0  0  0
  -19.6728  -27.3188   20.6704 H   0  0  0  0  0  0
  -17.4204  -26.6710   21.4030 H   0  0  0  0  0  0
  -18.0332  -26.0105   22.9025 H   0  0  0  0  0  0
  -19.7911  -30.7272   24.2310 H   0  0  0  0  0  0
  -17.4993  -31.6244   24.5174 H   0  0  0  0  0  0
  -15.5340  -30.2980   23.7619 H   0  0  0  0  0  0
  -15.8701  -28.0806   22.7046 H   0  0  0  0  0  0
  -24.5946  -30.7026   25.7740 H   0  0  0  0  0  0
  -24.8865  -32.2797   26.4901 H   0  0  0  0  0  0
  -25.8048  -30.8833   27.0197 H   0  0  0  0  0  0
  -26.2845  -29.6840   24.1176 H   0  0  0  0  0  0
  -27.4075  -29.7281   25.4574 H   0  0  0  0  0  0
  -27.8694  -30.4372   23.9265 H   0  0  0  0  0  0
  -27.2769  -33.3614   26.2078 H   0  0  0  0  0  0
  -28.3880  -32.6861   25.0311 H   0  0  0  0  0  0
  -28.0780  -31.8430   26.5372 H   0  0  0  0  0  0
  -28.2599  -38.0114   24.7504 H   0  0  0  0  0  0
  -28.1096  -36.2652   24.6298 H   0  0  0  0  0  0
  -27.2307  -37.1446   25.8860 H   0  0  0  0  0  0
  -20.9338  -29.8777   21.6936 H   0  0  0  0  0  0
  -26.0235  -38.2880   24.1393 H   0  0  0  0  0  0
  -29.8700  -20.8732   20.5583 H   0  0  0  0  0  0
  -26.7445  -17.9274   20.7609 H   0  0  0  0  0  0
  -30.3151  -26.3189   18.5737 H   0  0  0  0  0  0
  -30.3050  -24.5715   18.3973 H   0  0  0  0  0  0
  -30.6816  -25.2941   19.9541 H   0  0  0  0  0  0
  -28.5928  -18.3577   23.3177 H   0  0  0  0  0  0
  -29.5261  -16.8878   23.1489 H   0  0  0  0  0  0
  -27.9157  -16.9728   22.4718 H   0  0  0  0  0  0
  -30.7781  -19.4252   22.3911 H   0  0  0  0  0  0
  -31.3548  -19.0076   20.7773 H   0  0  0  0  0  0
  -31.4617  -17.8462   22.0914 H   0  0  0  0  0  0
  -28.7404  -24.0452   21.1756 H   0  0  0  0  0  0
  -27.1176  -24.1498   20.5401 H   0  0  0  0  0  0
  -29.4913  -22.6563   19.2501 H   0  0  0  0  0  0
  -27.9811  -22.8647   18.4508 H   0  0  0  0  0  0
  -30.4375  -17.1015   19.5826 H   0  0  0  0  0  0
  -28.7369  -16.8249   19.6512 H   0  0  0  0  0  0
  -28.0113  -25.4215   18.5168 H   0  0  0  0  0  0
  -28.9359  -15.1913   21.3286 H   0  0  0  0  0  0
  1 25  1  0  0  0
  1 30  2  0  0  0
  1 85  1  0  0  0
  2  3  1  0  0  0
  2 25  1  0  0  0
  2 87  1  0  0  0
  2 88  1  0  0  0
  3  4  1  0  0  0
  3 89  1  0  0  0
  3 90  1  0  0  0
  4  5  1  0  0  0
  4 91  1  0  0  0
  4 92  1  0  0  0
  5  6  1  0  0  0
  5 26  1  0  0  0
  5 93  1  0  0  0
  6 25  1  0  0  0
  6 94  1  0  0  0
  6 95  1  0  0  0
  7  8  2  0  0  0
  7 26  1  0  0  0
  7 29  1  0  0  0
  8  9  1  0  0  0
  8 22  1  0  0  0
  9 10  1  0  0  0
  9 27  2  0  0  0
 10 11  2  0  0  0
 10 15  1  0  0  0
 11 12  1  0  0  0
 11 96  1  0  0  0
 12 13  2  0  0  0
 12 97  1  0  0  0
 13 14  1  0  0  0
 13 31  1  0  0  0
 14 15  2  0  0  0
 14 98  1  0  0  0
 15 99  1  0  0  0
 16 17  2  0  0  0
 16 21  1  0  0  0
 16 31  1  0  0  0
 17 18  1  0  0  0
 17100  1  0  0  0
 18 19  2  0  0  0
 18101  1  0  0  0
 19 20  1  0  0  0
 19 24  1  0  0  0
 20 21  2  0  0  0
 20102  1  0  0  0
 21 23  1  0  0  0
 22 28  1  0  0  0
 22 32  2  0  0  0
 26 27  1  0  0  0
 28103  1  0  0  0
 28104  1  0  0  0
 29105  1  0  0  0
 29106  1  0  0  0
 33 34  1  0  0  0
 33 66  1  0  0  0
 33 70  2  0  0  0
 34 36  1  0  0  0
 34 59  1  0  0  0
 34107  1  0  0  0
 35 44  2  0  0  0
 35 45  1  0  0  0
 35 68  1  0  0  0
 36 56  1  0  0  0
 36108  1  0  0  0
 37 39  1  0  0  0
 37 47  1  0  0  0
 37 66  1  0  0  0
 37109  1  0  0  0
 38 43  2  0  0  0
 38 46  1  0  0  0
 38 47  1  0  0  0
 39 64  1  0  0  0
 39 67  2  0  0  0
 40 52  1  0  0  0
 40 53  2  0  0  0
 40 58  1  0  0  0
 41110  1  0  0  0
 41111  1  0  0  0
 41112  1  0  0  0
 41 48  1  0  0  0
 42 43  1  0  0  0
 42 66  1  0  0  0
 42113  1  0  0  0
 42114  1  0  0  0
 43 44  1  0  0  0
 44115  1  0  0  0
 45 46  2  0  0  0
 45116  1  0  0  0
 46117  1  0  0  0
 47118  1  0  0  0
 47119  1  0  0  0
 48 56  1  0  0  0
 48 65  1  0  0  0
 48120  1  0  0  0
 49 50  1  0  0  0
 49 53  1  0  0  0
 49 64  1  0  0  0
 49121  1  0  0  0
 50 51  1  0  0  0
 50122  1  0  0  0
 50123  1  0  0  0
 51 52  1  0  0  0
 51124  1  0  0  0
 51125  1  0  0  0
 52126  1  0  0  0
 52127  1  0  0  0
 53 54  1  0  0  0
 54 55  2  0  0  0
 54128  1  0  0  0
 55 57  1  0  0  0
 55129  1  0  0  0
 56 69  2  0  0  0
 57 58  2  0  0  0
 57130  1  0  0  0
 58131  1  0  0  0
 59 60  1  0  0  0
 59 61  1  0  0  0
 59 62  1  0  0  0
 60132  1  0  0  0
 60133  1  0  0  0
 60134  1  0  0  0
 61135  1  0  0  0
 61136  1  0  0  0
 61137  1  0  0  0
 62138  1  0  0  0
 62139  1  0  0  0
 62140  1  0  0  0
 63 65  1  0  0  0
 63141  1  0  0  0
 63142  1  0  0  0
 63143  1  0  0  0
 64144  1  0  0  0
 65145  1  0  0  0
 68 81  1  0  0  0
 71 73  2  0  0  0
 71 84  1  0  0  0
 71146  1  0  0  0
 72 73  1  0  0  0
 72 83  2  0  0  0
 72147  1  0  0  0
 73 82  1  0  0  0
 74 83  1  0  0  0
 74 84  1  0  0  0
 74 86  2  0  0  0
 75148  1  0  0  0
 75149  1  0  0  0
 75150  1  0  0  0
 75 81  1  0  0  0
 76151  1  0  0  0
 76152  1  0  0  0
 76153  1  0  0  0
 76 82  1  0  0  0
 77 82  1  0  0  0
 77154  1  0  0  0
 77155  1  0  0  0
 77156  1  0  0  0
 78 79  1  0  0  0
 78 81  1  0  0  0
 78157  1  0  0  0
 78158  1  0  0  0
 79 84  1  0  0  0
 79159  1  0  0  0
 79160  1  0  0  0
 80 82  1  0  0  0
 80 85  1  0  0  0
 80161  1  0  0  0
 80162  1  0  0  0
 81163  1  0  0  0
 85164  1  0  0  0
M  ISO  4   1 100  68 101  81 101  85 100
M  END
> <chiral flag>
0

> <version>
0

> <s_m_source_file>
/data/baiqing/PycharmProjects/Reinvent-master-3.2/result/LINK_invent/BTK/process_docking_weight1_custom_sum_contain_oxygen_bond_distance_aromatic_linkinvent_7_9_3/rearranged_h_0079.sdf

> <i_m_source_file_index>
52

> <r_mmod_Potential_Energy-OPLS-2005>
-52.3314666748047

> <r_mmod_Stretch_Energy-OPLS-2005>
61.1333808898926

> <r_mmod_Bend_Energy-OPLS-2005>
145.28303527832

> <r_mmod_Torsional_Energy-OPLS-2005>
183.176345825195

> <r_mmod_Improper_Torsional_Energy-OPLS-2005>
8.8106632232666

> <r_mmod_Van_der_Waal_Energy-OPLS-2005>
171.520309448242

> <r_mmod_Electrostatic_Energy-OPLS-2005>
-433.562377929688

> <r_mmod_Solvation_Energy-OPLS-2005>
-213.433135986328

> <b_mmod_Minimization_Converged-OPLS-2005>
0

> <r_mmod_RMS_Derivative-OPLS-2005>
5.58123445510864

$$$$
52
                    3D
 Structure written by MMmdl.
160168  0  0  1  0            999 V2000
  -30.5504  -14.9763   20.4204 C   0  0  0  0  0  0
  -30.4377  -12.6046   19.5140 C   0  0  0  0  0  0
  -29.5255  -12.5350   18.2666 C   0  0  0  0  0  0
  -28.0587  -12.3186   18.6806 C   0  0  0  0  0  0
  -27.6293  -13.2545   19.8406 C   0  0  2  0  0  0
  -28.6699  -13.3008   20.9817 C   0  0  0  0  0  0
  -25.2451  -13.8226   20.5715 C   0  0  0  0  0  0
  -24.1775  -13.0442   20.9233 C   0  0  0  0  0  0
  -24.6400  -11.6931   20.8760 C   0  0  0  0  0  0
  -23.9086  -10.4297   21.0409 C   0  0  0  0  0  0
  -24.3630   -9.4209   21.9184 C   0  0  0  0  0  0
  -23.6300   -8.2248   22.0756 C   0  0  0  0  0  0
  -22.4281   -8.0288   21.3547 C   0  0  0  0  0  0
  -21.9922   -9.0263   20.4649 C   0  0  0  0  0  0
  -22.7258  -10.2138   20.3059 C   0  0  0  0  0  0
  -21.6855   -6.0739   22.5277 C   0  0  0  0  0  0
  -21.4019   -6.5641   23.8211 C   0  0  0  0  0  0
  -21.3660   -5.6792   24.9173 C   0  0  0  0  0  0
  -21.6043   -4.3055   24.7223 C   0  0  0  0  0  0
  -21.8818   -3.8148   23.4342 C   0  0  0  0  0  0
  -21.9194   -4.6967   22.3400 C   0  0  0  0  0  0
  -22.7794  -13.5207   21.1880 C   0  0  0  0  0  0
  -22.1660   -4.2153   21.0978 F   0  0  0  0  0  0
  -21.5628   -3.4537   25.7734 F   0  0  0  0  0  0
  -29.9470  -13.7150   20.3863 N   0  0  0  0  0  0
  -26.2885  -12.9473   20.3259 N   0  0  0  0  0  0
  -25.9336  -11.6596   20.5746 N   0  0  0  0  0  0
  -22.0444  -12.8198   22.0439 N   0  0  0  0  0  0
  -25.4099  -15.1957   20.4117 N   0  0  0  0  0  0
  -31.7487  -15.0099   20.1257 O   0  0  0  0  0  0
  -21.6643   -6.8884   21.4241 O   0  0  0  0  0  0
  -22.3480  -14.5510   20.6724 O   0  0  0  0  0  0
  -24.6474  -31.8428   23.1916 C   0  0  0  0  0  0
  -25.9238  -32.4687   23.8297 C   0  0  1  0  0  0
  -27.1946  -27.0767   20.1567 C   0  0  0  0  0  0
  -25.5976  -33.8497   24.2197 N   0  0  0  0  0  0
  -23.4519  -30.4663   21.5384 C   0  0  2  0  0  0
  -24.8996  -28.8952   20.1140 C   0  0  0  0  0  0
  -22.7584  -29.4544   22.4856 C   0  0  0  0  0  0
  -18.0306  -28.1400   22.8476 C   0  0  0  0  0  0
  -24.1489  -36.7244   23.2640 C   0  0  0  0  0  0
  -26.0146  -30.6912   21.4101 C   0  0  0  0  0  0
  -26.0774  -29.2979   20.7555 C   0  0  0  0  0  0
  -27.2209  -28.4015   20.7727 C   0  0  0  0  0  0
  -26.0197  -26.8472   19.4070 C   0  0  0  0  0  0
  -24.8873  -27.6823   19.4215 C   0  0  0  0  0  0
  -23.6818  -29.8044   20.1563 C   0  0  0  0  0  0
  -25.4123  -36.3024   24.0313 C   0  0  1  0  0  0
  -20.5921  -28.3728   23.1223 C   0  0  2  0  0  0
  -20.6788  -26.9428   22.5398 C   0  0  0  0  0  0
  -19.5759  -26.6382   21.5210 C   0  0  0  0  0  0
  -18.1943  -26.7936   22.1626 C   0  0  0  0  0  0
  -19.1565  -28.8882   23.2839 C   0  0  0  0  0  0
  -18.9481  -30.1477   23.8867 C   0  0  0  0  0  0
  -17.6478  -30.6595   24.0560 C   0  0  0  0  0  0
  -25.9080  -34.9401   23.5060 C   0  0  0  0  0  0
  -16.5367  -29.9087   23.6339 C   0  0  0  0  0  0
  -16.7290  -28.6507   23.0359 C   0  0  0  0  0  0
  -26.4541  -31.6570   25.0757 C   0  0  0  0  0  0
  -25.3707  -31.3787   26.1439 C   0  0  0  0  0  0
  -27.0419  -30.2951   24.6401 C   0  0  0  0  0  0
  -27.6057  -32.4350   25.7545 C   0  0  0  0  0  0
  -27.5572  -37.1782   24.8467 C   0  0  0  0  0  0
  -21.4273  -29.3053   22.3595 N   0  0  0  0  0  0
  -26.4283  -37.3742   23.9409 N   0  0  0  0  0  0
  -24.7245  -31.0230   22.0999 N   0  0  0  0  0  0
  -23.4208  -28.8074   23.3009 O   0  0  0  0  0  0
  -28.2209  -26.0381   20.2018 O   0  0  0  0  0  0
  -26.5661  -34.8896   22.4637 O   0  0  0  0  0  0
  -23.5581  -32.1345   23.7091 O   0  0  0  0  0  0
  -28.5109  -20.6431   22.3037 C   0  0  0  0  0  0
  -28.4953  -19.5202   23.0836 C   0  0  0  0  0  0
  -29.3475  -18.9222   21.0813 C   0  0  0  0  0  0
  -28.0368  -19.3072   24.4898 C   0  0  0  0  0  0
  -31.4498  -18.0548   19.8726 C   0  0  0  0  0  0
  -26.8649  -23.8947   19.4525 C   0  0  0  0  0  0
  -29.1431  -23.2367   20.4555 C   0  0  0  0  0  0
  -29.1051  -21.5579   20.0514 C   0  0  0  0  0  0
  -29.9780  -17.7244   20.1651 C   0  0  2  0  0  0
  -27.9666  -24.4667   20.3616 C   0  0  1  0  0  0
  -29.0476  -20.3372   21.0750 N   0  0  0  0  0  0
  -29.0176  -18.5199   22.3140 N   0  3  0  0  0  0
  -29.7872  -16.1802   20.5724 N   0  0  0  0  0  0
  -31.4739  -12.7504   19.2053 H   0  0  0  0  0  0
  -30.4243  -11.6575   20.0556 H   0  0  0  0  0  0
  -29.8505  -11.7335   17.6018 H   0  0  0  0  0  0
  -29.6128  -13.4615   17.6967 H   0  0  0  0  0  0
  -27.9557  -11.2780   18.9898 H   0  0  0  0  0  0
  -27.3980  -12.4484   17.8228 H   0  0  0  0  0  0
  -27.5880  -14.2532   19.4048 H   0  0  0  0  0  0
  -28.7606  -12.3309   21.4728 H   0  0  0  0  0  0
  -28.3633  -14.0095   21.7523 H   0  0  0  0  0  0
  -25.2773   -9.5680   22.4762 H   0  0  0  0  0  0
  -24.0004   -7.4638   22.7474 H   0  0  0  0  0  0
  -21.0853   -8.8785   19.8954 H   0  0  0  0  0  0
  -22.3715  -10.9678   19.6170 H   0  0  0  0  0  0
  -21.2015   -7.6150   23.9715 H   0  0  0  0  0  0
  -21.1482   -6.0523   25.9074 H   0  0  0  0  0  0
  -22.0597   -2.7612   23.2840 H   0  0  0  0  0  0
  -22.4061  -11.9859   22.4826 H   0  0  0  0  0  0
  -21.1058  -13.1217   22.2639 H   0  0  0  0  0  0
  -24.6316  -15.8388   20.5074 H   0  0  0  0  0  0
  -26.2358  -15.6322   20.0249 H   0  0  0  0  0  0
  -26.7299  -32.5271   23.1014 H   0  0  0  0  0  0
  -25.0104  -33.9617   25.0331 H   0  0  0  0  0  0
  -22.7562  -31.2942   21.3863 H   0  0  0  0  0  0
  -23.3758  -35.9569   23.3293 H   0  0  0  0  0  0
  -24.3570  -36.8887   22.2056 H   0  0  0  0  0  0
  -23.7236  -37.6434   23.6685 H   0  0  0  0  0  0
  -26.1835  -31.4392   20.6341 H   0  0  0  0  0  0
  -26.8813  -30.7395   22.0573 H   0  0  0  0  0  0
  -28.1086  -28.7001   21.3124 H   0  0  0  0  0  0
  -25.9388  -26.0084   18.7448 H   0  0  0  0  0  0
  -24.0121  -27.3936   18.8557 H   0  0  0  0  0  0
  -23.8261  -30.5826   19.4060 H   0  0  0  0  0  0
  -22.7945  -29.2533   19.8391 H   0  0  0  0  0  0
  -25.1309  -36.1850   25.0804 H   0  0  0  0  0  0
  -21.0012  -28.3322   24.1344 H   0  0  0  0  0  0
  -20.5679  -26.2346   23.3622 H   0  0  0  0  0  0
  -21.6654  -26.7429   22.1197 H   0  0  0  0  0  0
  -19.6918  -25.6286   21.1258 H   0  0  0  0  0  0
  -19.6692  -27.3177   20.6727 H   0  0  0  0  0  0
  -17.4208  -26.6676   21.4034 H   0  0  0  0  0  0
  -18.0347  -26.0086   22.9031 H   0  0  0  0  0  0
  -19.7958  -30.7302   24.2224 H   0  0  0  0  0  0
  -17.5031  -31.6273   24.5166 H   0  0  0  0  0  0
  -15.5368  -30.2980   23.7681 H   0  0  0  0  0  0
  -15.8690  -28.0816   22.7091 H   0  0  0  0  0  0
  -24.5895  -30.7122   25.7767 H   0  0  0  0  0  0
  -24.8889  -32.2981   26.4774 H   0  0  0  0  0  0
  -25.7975  -30.9026   27.0275 H   0  0  0  0  0  0
  -26.3067  -29.6659   24.1372 H   0  0  0  0  0  0
  -27.3953  -29.7271   25.5016 H   0  0  0  0  0  0
  -27.9011  -30.4157   23.9800 H   0  0  0  0  0  0
  -27.2638  -33.3672   26.2052 H   0  0  0  0  0  0
  -28.3909  -32.6877   25.0409 H   0  0  0  0  0  0
  -28.0680  -31.8527   26.5525 H   0  0  0  0  0  0
  -28.2585  -38.0082   24.7509 H   0  0  0  0  0  0
  -28.1073  -36.2611   24.6301 H   0  0  0  0  0  0
  -27.2288  -37.1435   25.8870 H   0  0  0  0  0  0
  -20.9487  -29.8781   21.6781 H   0  0  0  0  0  0
  -26.0145  -38.2807   24.1417 H   0  0  0  0  0  0
  -28.1775  -21.6435   22.5450 H   0  0  0  0  0  0
  -27.5852  -18.3217   24.6053 H   0  0  0  0  0  0
  -27.2941  -20.0565   24.7632 H   0  0  0  0  0  0
  -28.8774  -19.3891   25.1787 H   0  0  0  0  0  0
  -31.8719  -17.3918   19.1182 H   0  0  0  0  0  0
  -32.0587  -17.9784   20.7735 H   0  0  0  0  0  0
  -31.5519  -19.0710   19.4899 H   0  0  0  0  0  0
  -26.7714  -22.8175   19.5593 H   0  0  0  0  0  0
  -27.0499  -24.1040   18.3987 H   0  0  0  0  0  0
  -25.8764  -24.2441   19.7452 H   0  0  0  0  0  0
  -29.9085  -23.6154   19.7778 H   0  0  0  0  0  0
  -29.6256  -23.3248   21.4290 H   0  0  0  0  0  0
  -30.0305  -21.3751   19.5050 H   0  0  0  0  0  0
  -28.3362  -21.3647   19.3058 H   0  0  0  0  0  0
  -29.4388  -17.8314   19.2235 H   0  0  0  0  0  0
  -27.5183  -24.4285   21.3553 H   0  0  0  0  0  0
  -29.1608  -17.5685   22.6315 H   0  0  0  0  0  0
  -28.8272  -15.9674   20.7974 H   0  0  0  0  0  0
  1 25  1  0  0  0
  1 30  2  0  0  0
  1 83  1  0  0  0
  2  3  1  0  0  0
  2 25  1  0  0  0
  2 84  1  0  0  0
  2 85  1  0  0  0
  3  4  1  0  0  0
  3 86  1  0  0  0
  3 87  1  0  0  0
  4  5  1  0  0  0
  4 88  1  0  0  0
  4 89  1  0  0  0
  5  6  1  0  0  0
  5 26  1  0  0  0
  5 90  1  0  0  0
  6 25  1  0  0  0
  6 91  1  0  0  0
  6 92  1  0  0  0
  7  8  2  0  0  0
  7 26  1  0  0  0
  7 29  1  0  0  0
  8  9  1  0  0  0
  8 22  1  0  0  0
  9 10  1  0  0  0
  9 27  2  0  0  0
 10 11  2  0  0  0
 10 15  1  0  0  0
 11 12  1  0  0  0
 11 93  1  0  0  0
 12 13  2  0  0  0
 12 94  1  0  0  0
 13 14  1  0  0  0
 13 31  1  0  0  0
 14 15  2  0  0  0
 14 95  1  0  0  0
 15 96  1  0  0  0
 16 17  2  0  0  0
 16 21  1  0  0  0
 16 31  1  0  0  0
 17 18  1  0  0  0
 17 97  1  0  0  0
 18 19  2  0  0  0
 18 98  1  0  0  0
 19 20  1  0  0  0
 19 24  1  0  0  0
 20 21  2  0  0  0
 20 99  1  0  0  0
 21 23  1  0  0  0
 22 28  1  0  0  0
 22 32  2  0  0  0
 26 27  1  0  0  0
 28100  1  0  0  0
 28101  1  0  0  0
 29102  1  0  0  0
 29103  1  0  0  0
 33 34  1  0  0  0
 33 66  1  0  0  0
 33 70  2  0  0  0
 34 36  1  0  0  0
 34 59  1  0  0  0
 34104  1  0  0  0
 35 44  2  0  0  0
 35 45  1  0  0  0
 35 68  1  0  0  0
 36 56  1  0  0  0
 36105  1  0  0  0
 37 39  1  0  0  0
 37 47  1  0  0  0
 37 66  1  0  0  0
 37106  1  0  0  0
 38 43  2  0  0  0
 38 46  1  0  0  0
 38 47  1  0  0  0
 39 64  1  0  0  0
 39 67  2  0  0  0
 40 52  1  0  0  0
 40 53  2  0  0  0
 40 58  1  0  0  0
 41107  1  0  0  0
 41108  1  0  0  0
 41109  1  0  0  0
 41 48  1  0  0  0
 42 43  1  0  0  0
 42 66  1  0  0  0
 42110  1  0  0  0
 42111  1  0  0  0
 43 44  1  0  0  0
 44112  1  0  0  0
 45 46  2  0  0  0
 45113  1  0  0  0
 46114  1  0  0  0
 47115  1  0  0  0
 47116  1  0  0  0
 48 56  1  0  0  0
 48 65  1  0  0  0
 48117  1  0  0  0
 49 50  1  0  0  0
 49 53  1  0  0  0
 49 64  1  0  0  0
 49118  1  0  0  0
 50 51  1  0  0  0
 50119  1  0  0  0
 50120  1  0  0  0
 51 52  1  0  0  0
 51121  1  0  0  0
 51122  1  0  0  0
 52123  1  0  0  0
 52124  1  0  0  0
 53 54  1  0  0  0
 54 55  2  0  0  0
 54125  1  0  0  0
 55 57  1  0  0  0
 55126  1  0  0  0
 56 69  2  0  0  0
 57 58  2  0  0  0
 57127  1  0  0  0
 58128  1  0  0  0
 59 60  1  0  0  0
 59 61  1  0  0  0
 59 62  1  0  0  0
 60129  1  0  0  0
 60130  1  0  0  0
 60131  1  0  0  0
 61132  1  0  0  0
 61133  1  0  0  0
 61134  1  0  0  0
 62135  1  0  0  0
 62136  1  0  0  0
 62137  1  0  0  0
 63 65  1  0  0  0
 63138  1  0  0  0
 63139  1  0  0  0
 63140  1  0  0  0
 64141  1  0  0  0
 65142  1  0  0  0
 68 80  1  0  0  0
 71 72  2  0  0  0
 71 81  1  0  0  0
 71143  1  0  0  0
 72 74  1  0  0  0
 72 82  1  0  0  0
 73 79  1  0  0  0
 73 81  1  0  0  0
 73 82  2  0  0  0
 74144  1  0  0  0
 74145  1  0  0  0
 74146  1  0  0  0
 75147  1  0  0  0
 75148  1  0  0  0
 75149  1  0  0  0
 75 79  1  0  0  0
 76150  1  0  0  0
 76151  1  0  0  0
 76152  1  0  0  0
 76 80  1  0  0  0
 77 78  1  0  0  0
 77 80  1  0  0  0
 77153  1  0  0  0
 77154  1  0  0  0
 78 81  1  0  0  0
 78155  1  0  0  0
 78156  1  0  0  0
 79 83  1  0  0  0
 79157  1  0  0  0
 80158  1  0  0  0
 82159  1  0  0  0
 83160  1  0  0  0
M  CHG  1  82   1
M  ISO  4   1 100  68 101  80 101  83 100
M  END
> <chiral flag>
0

> <version>
0

> <s_m_source_file>
/data/baiqing/PycharmProjects/Reinvent-master-3.2/result/LINK_invent/BTK/process_docking_weight1_custom_sum_contain_oxygen_bond_distance_aromatic_linkinvent_7_9_3/rearranged_h_0079.sdf

> <i_m_source_file_index>
53

> <r_mmod_Potential_Energy-OPLS-2005>
611.971313476562

> <r_mmod_Stretch_Energy-OPLS-2005>
330.878387451172

> <r_mmod_Bend_Energy-OPLS-2005>
351.935424804688

> <r_mmod_Torsional_Energy-OPLS-2005>
251.849563598633

> <r_mmod_Improper_Torsional_Energy-OPLS-2005>
5.5943398475647

> <r_mmod_Van_der_Waal_Energy-OPLS-2005>
119.972076416016

> <r_mmod_Electrostatic_Energy-OPLS-2005>
-245.454315185547

> <r_mmod_Solvation_Energy-OPLS-2005>
-431.787841796875

> <b_mmod_Minimization_Converged-OPLS-2005>
0

> <r_mmod_RMS_Derivative-OPLS-2005>
0.569512188434601

$$$$
53
                    3D
 Structure written by MMmdl.
175183  0  0  1  0            999 V2000
  -30.7868  -14.3739   20.6276 C   0  0  0  0  0  0
  -30.4076  -12.2559   19.4277 C   0  0  0  0  0  0
  -29.4923  -12.4969   18.2139 C   0  0  0  0  0  0
  -28.0174  -12.3471   18.6256 C   0  0  0  0  0  0
  -27.6660  -13.2018   19.8741 C   0  0  2  0  0  0
  -28.7058  -12.9938   21.0034 C   0  0  0  0  0  0
  -25.2631  -13.8122   20.5683 C   0  0  0  0  0  0
  -24.1876  -13.0395   20.9098 C   0  0  0  0  0  0
  -24.6433  -11.6844   20.8706 C   0  0  0  0  0  0
  -23.9061  -10.4249   21.0373 C   0  0  0  0  0  0
  -24.3598   -9.4193   21.9196 C   0  0  0  0  0  0
  -23.6278   -8.2228   22.0766 C   0  0  0  0  0  0
  -22.4281   -8.0251   21.3523 C   0  0  0  0  0  0
  -21.9892   -9.0227   20.4644 C   0  0  0  0  0  0
  -22.7204  -10.2114   20.3046 C   0  0  0  0  0  0
  -21.6856   -6.0739   22.5272 C   0  0  0  0  0  0
  -21.4023   -6.5651   23.8215 C   0  0  0  0  0  0
  -21.3661   -5.6804   24.9175 C   0  0  0  0  0  0
  -21.6019   -4.3065   24.7220 C   0  0  0  0  0  0
  -21.8815   -3.8151   23.4353 C   0  0  0  0  0  0
  -21.9203   -4.6961   22.3412 C   0  0  0  0  0  0
  -22.7890  -13.5173   21.1774 C   0  0  0  0  0  0
  -22.1648   -4.2144   21.0984 F   0  0  0  0  0  0
  -21.5626   -3.4546   25.7743 F   0  0  0  0  0  0
  -30.0518  -13.2427   20.4620 N   0  0  0  0  0  0
  -26.3074  -12.9311   20.3356 N   0  0  0  0  0  0
  -25.9367  -11.6462   20.5720 N   0  0  0  0  0  0
  -22.0541  -12.8221   22.0359 N   0  0  0  0  0  0
  -25.4374  -15.1874   20.4228 N   0  0  0  0  0  0
  -31.8370  -14.5844   20.0133 O   0  0  0  0  0  0
  -21.6630   -6.8869   21.4231 O   0  0  0  0  0  0
  -22.3571  -14.5488   20.6623 O   0  0  0  0  0  0
  -24.6072  -31.8747   23.2178 C   0  0  0  0  0  0
  -25.8991  -32.4867   23.8434 C   0  0  1  0  0  0
  -27.2203  -27.4777   20.0997 C   0  0  0  0  0  0
  -25.5875  -33.8658   24.2368 N   0  0  0  0  0  0
  -23.3890  -30.5060   21.5581 C   0  0  2  0  0  0
  -24.8276  -28.9818   20.1249 C   0  0  0  0  0  0
  -22.7325  -29.4721   22.5023 C   0  0  0  0  0  0
  -18.0263  -28.1388   22.8499 C   0  0  0  0  0  0
  -24.1488  -36.7327   23.2633 C   0  0  0  0  0  0
  -25.9136  -30.8609   21.3580 C   0  0  0  0  0  0
  -25.9898  -29.4986   20.7073 C   0  0  0  0  0  0
  -27.1874  -28.7578   20.6861 C   0  0  0  0  0  0
  -26.0219  -26.9548   19.5489 C   0  0  0  0  0  0
  -24.8360  -27.7061   19.5453 C   0  0  0  0  0  0
  -23.5933  -29.8457   20.1723 C   0  0  0  0  0  0
  -25.4106  -36.3132   24.0335 C   0  0  1  0  0  0
  -20.5835  -28.3682   23.1343 C   0  0  2  0  0  0
  -20.6745  -26.9408   22.5529 C   0  0  0  0  0  0
  -19.5789  -26.6235   21.5341 C   0  0  0  0  0  0
  -18.1912  -26.7948   22.1611 C   0  0  0  0  0  0
  -19.1495  -28.8841   23.2920 C   0  0  0  0  0  0
  -18.9404  -30.1438   23.8908 C   0  0  0  0  0  0
  -17.6413  -30.6585   24.0548 C   0  0  0  0  0  0
  -25.9015  -34.9499   23.5144 C   0  0  0  0  0  0
  -16.5306  -29.9059   23.6322 C   0  0  0  0  0  0
  -16.7247  -28.6484   23.0351 C   0  0  0  0  0  0
  -26.4465  -31.6618   25.0730 C   0  0  0  0  0  0
  -25.3744  -31.3667   26.1469 C   0  0  0  0  0  0
  -27.0279  -30.3084   24.6039 C   0  0  0  0  0  0
  -27.6081  -32.4291   25.7479 C   0  0  0  0  0  0
  -27.5581  -37.1830   24.8467 C   0  0  0  0  0  0
  -21.4065  -29.3060   22.3742 N   0  0  0  0  0  0
  -26.4296  -37.3813   23.9407 N   0  0  0  0  0  0
  -24.6551  -31.0906   22.1050 N   0  0  0  0  0  0
  -23.4105  -28.8282   23.3059 O   0  0  0  0  0  0
  -28.4245  -26.8060   20.0936 O   0  0  0  0  0  0
  -26.5566  -34.8924   22.4688 O   0  0  0  0  0  0
  -23.5285  -32.1464   23.7631 O   0  0  0  0  0  0
  -27.6577  -20.5664   18.8190 C   0  0  0  0  0  0
  -28.4117  -21.1703   21.3514 C   0  0  0  0  0  0
  -27.2765  -21.7788   19.4392 C   0  0  0  0  0  0
  -28.9178  -20.0158   20.6879 C   0  0  0  0  0  0
  -27.2846  -20.2287   17.3907 C   0  0  0  0  0  0
  -28.7609  -21.5681   22.7694 C   0  0  0  0  0  0
  -31.2171  -19.8825   21.8940 C   0  0  0  0  0  0
  -29.6604  -17.8210   23.4028 C   0  0  0  0  0  0
  -28.2627  -17.2585   21.4318 C   0  0  0  0  0  0
  -26.8219  -22.9741   18.6257 C   0  0  0  0  0  0
  -28.0854  -23.6292   18.0069 C   0  0  0  0  0  0
  -28.3252  -25.1082   18.3301 C   0  0  0  0  0  0
  -30.7647  -16.6944   21.4449 C   0  0  0  0  0  0
  -28.4091  -25.4070   19.8442 C   0  0  0  0  0  0
  -30.0618  -19.1245   21.2062 C   0  0  1  0  0  0
  -29.6768  -17.7365   21.8579 C   0  0  0  0  0  0
  -27.6036  -22.0520   20.7209 N   0  0  0  0  0  0
  -28.4863  -19.7000   19.4382 N   0  0  0  0  0  0
  -30.2961  -15.3032   21.4562 N   0  0  0  0  0  0
  -31.4577  -12.3030   19.1318 H   0  0  0  0  0  0
  -30.2587  -11.2433   19.8051 H   0  0  0  0  0  0
  -29.7267  -11.7922   17.4150 H   0  0  0  0  0  0
  -29.6707  -13.4962   17.8147 H   0  0  0  0  0  0
  -27.8374  -11.2921   18.8338 H   0  0  0  0  0  0
  -27.3676  -12.6012   17.7887 H   0  0  0  0  0  0
  -27.7108  -14.2405   19.5540 H   0  0  0  0  0  0
  -28.6658  -11.9666   21.3659 H   0  0  0  0  0  0
  -28.4701  -13.6184   21.8680 H   0  0  0  0  0  0
  -25.2762   -9.5700   22.4730 H   0  0  0  0  0  0
  -24.0020   -7.4640   22.7520 H   0  0  0  0  0  0
  -21.0800   -8.8704   19.8972 H   0  0  0  0  0  0
  -22.3644  -10.9630   19.6128 H   0  0  0  0  0  0
  -21.2001   -7.6156   23.9702 H   0  0  0  0  0  0
  -21.1495   -6.0543   25.9079 H   0  0  0  0  0  0
  -22.0611   -2.7602   23.2842 H   0  0  0  0  0  0
  -22.4165  -11.9871   22.4738 H   0  0  0  0  0  0
  -21.1164  -13.1239   22.2583 H   0  0  0  0  0  0
  -24.6771  -15.8437   20.5594 H   0  0  0  0  0  0
  -26.3100  -15.6374   20.1735 H   0  0  0  0  0  0
  -26.7041  -32.5622   23.1181 H   0  0  0  0  0  0
  -25.0049  -33.9820   25.0531 H   0  0  0  0  0  0
  -22.6762  -31.3239   21.4263 H   0  0  0  0  0  0
  -23.3758  -35.9657   23.3303 H   0  0  0  0  0  0
  -24.3602  -36.8917   22.2051 H   0  0  0  0  0  0
  -23.7232  -37.6532   23.6638 H   0  0  0  0  0  0
  -26.0029  -31.6314   20.5907 H   0  0  0  0  0  0
  -26.8063  -30.9208   21.9679 H   0  0  0  0  0  0
  -28.0853  -29.1662   21.1285 H   0  0  0  0  0  0
  -25.9582  -25.9702   19.1200 H   0  0  0  0  0  0
  -23.9320  -27.2965   19.1134 H   0  0  0  0  0  0
  -23.7033  -30.6247   19.4161 H   0  0  0  0  0  0
  -22.7202  -29.2641   19.8761 H   0  0  0  0  0  0
  -25.1298  -36.1994   25.0836 H   0  0  0  0  0  0
  -20.9961  -28.3278   24.1452 H   0  0  0  0  0  0
  -20.5624  -26.2322   23.3762 H   0  0  0  0  0  0
  -21.6636  -26.7510   22.1381 H   0  0  0  0  0  0
  -19.6972  -25.6043   21.1615 H   0  0  0  0  0  0
  -19.6821  -27.2796   20.6706 H   0  0  0  0  0  0
  -17.4281  -26.6903   21.3882 H   0  0  0  0  0  0
  -18.0062  -26.0089   22.8941 H   0  0  0  0  0  0
  -19.7874  -30.7283   24.2276 H   0  0  0  0  0  0
  -17.4975  -31.6274   24.5143 H   0  0  0  0  0  0
  -15.5288  -30.2939   23.7657 H   0  0  0  0  0  0
  -15.8659  -28.0785   22.7039 H   0  0  0  0  0  0
  -24.5985  -30.6939   25.7787 H   0  0  0  0  0  0
  -24.8845  -32.2794   26.4898 H   0  0  0  0  0  0
  -25.8109  -30.8870   27.0240 H   0  0  0  0  0  0
  -26.2795  -29.6867   24.1116 H   0  0  0  0  0  0
  -27.4102  -29.7302   25.4465 H   0  0  0  0  0  0
  -27.8609  -30.4432   23.9127 H   0  0  0  0  0  0
  -27.2770  -33.3604   26.2084 H   0  0  0  0  0  0
  -28.3895  -32.6807   25.0287 H   0  0  0  0  0  0
  -28.0742  -31.8374   26.5365 H   0  0  0  0  0  0
  -28.2630  -38.0106   24.7524 H   0  0  0  0  0  0
  -28.1051  -36.2646   24.6296 H   0  0  0  0  0  0
  -27.2301  -37.1472   25.8870 H   0  0  0  0  0  0
  -20.9182  -29.8832   21.7015 H   0  0  0  0  0  0
  -26.0191  -38.2891   24.1419 H   0  0  0  0  0  0
  -27.9003  -19.4240   16.9932 H   0  0  0  0  0  0
  -27.4075  -21.0915   16.7399 H   0  0  0  0  0  0
  -26.2409  -19.9155   17.3404 H   0  0  0  0  0  0
  -29.7322  -22.0622   22.8119 H   0  0  0  0  0  0
  -28.7785  -20.6926   23.4093 H   0  0  0  0  0  0
  -28.0196  -22.2607   23.1681 H   0  0  0  0  0  0
  -31.4801  -20.7851   21.3447 H   0  0  0  0  0  0
  -32.1154  -19.2711   21.9576 H   0  0  0  0  0  0
  -30.9769  -20.1824   22.9076 H   0  0  0  0  0  0
  -29.4690  -16.8464   23.8482 H   0  0  0  0  0  0
  -28.8802  -18.4935   23.7590 H   0  0  0  0  0  0
  -30.6075  -18.1665   23.8184 H   0  0  0  0  0  0
  -27.9453  -16.3606   21.9640 H   0  0  0  0  0  0
  -28.2353  -17.0276   20.3656 H   0  0  0  0  0  0
  -27.4933  -18.0018   21.6456 H   0  0  0  0  0  0
  -26.2689  -23.6485   19.2764 H   0  0  0  0  0  0
  -26.1108  -22.6704   17.8542 H   0  0  0  0  0  0
  -28.0725  -23.4876   16.9264 H   0  0  0  0  0  0
  -28.9716  -23.0943   18.3576 H   0  0  0  0  0  0
  -27.5609  -25.6970   17.8294 H   0  0  0  0  0  0
  -29.2641  -25.4284   17.8774 H   0  0  0  0  0  0
  -31.6492  -16.7910   22.0777 H   0  0  0  0  0  0
  -31.1251  -16.9153   20.4368 H   0  0  0  0  0  0
  -29.3269  -24.9774   20.2485 H   0  0  0  0  0  0
  -27.6018  -24.9606   20.4237 H   0  0  0  0  0  0
  -30.5278  -18.8788   20.2508 H   0  0  0  0  0  0
  -29.4513  -15.1005   21.9704 H   0  0  0  0  0  0
  1 25  1  0  0  0
  1 30  2  0  0  0
  1 89  1  0  0  0
  2  3  1  0  0  0
  2 25  1  0  0  0
  2 90  1  0  0  0
  2 91  1  0  0  0
  3  4  1  0  0  0
  3 92  1  0  0  0
  3 93  1  0  0  0
  4  5  1  0  0  0
  4 94  1  0  0  0
  4 95  1  0  0  0
  5  6  1  0  0  0
  5 26  1  0  0  0
  5 96  1  0  0  0
  6 25  1  0  0  0
  6 97  1  0  0  0
  6 98  1  0  0  0
  7  8  2  0  0  0
  7 26  1  0  0  0
  7 29  1  0  0  0
  8  9  1  0  0  0
  8 22  1  0  0  0
  9 10  1  0  0  0
  9 27  2  0  0  0
 10 11  2  0  0  0
 10 15  1  0  0  0
 11 12  1  0  0  0
 11 99  1  0  0  0
 12 13  2  0  0  0
 12100  1  0  0  0
 13 14  1  0  0  0
 13 31  1  0  0  0
 14 15  2  0  0  0
 14101  1  0  0  0
 15102  1  0  0  0
 16 17  2  0  0  0
 16 21  1  0  0  0
 16 31  1  0  0  0
 17 18  1  0  0  0
 17103  1  0  0  0
 18 19  2  0  0  0
 18104  1  0  0  0
 19 20  1  0  0  0
 19 24  1  0  0  0
 20 21  2  0  0  0
 20105  1  0  0  0
 21 23  1  0  0  0
 22 28  1  0  0  0
 22 32  2  0  0  0
 26 27  1  0  0  0
 28106  1  0  0  0
 28107  1  0  0  0
 29108  1  0  0  0
 29109  1  0  0  0
 33 34  1  0  0  0
 33 66  1  0  0  0
 33 70  2  0  0  0
 34 36  1  0  0  0
 34 59  1  0  0  0
 34110  1  0  0  0
 35 44  2  0  0  0
 35 45  1  0  0  0
 35 68  1  0  0  0
 36 56  1  0  0  0
 36111  1  0  0  0
 37 39  1  0  0  0
 37 47  1  0  0  0
 37 66  1  0  0  0
 37112  1  0  0  0
 38 43  2  0  0  0
 38 46  1  0  0  0
 38 47  1  0  0  0
 39 64  1  0  0  0
 39 67  2  0  0  0
 40 52  1  0  0  0
 40 53  2  0  0  0
 40 58  1  0  0  0
 41113  1  0  0  0
 41114  1  0  0  0
 41115  1  0  0  0
 41 48  1  0  0  0
 42 43  1  0  0  0
 42 66  1  0  0  0
 42116  1  0  0  0
 42117  1  0  0  0
 43 44  1  0  0  0
 44118  1  0  0  0
 45 46  2  0  0  0
 45119  1  0  0  0
 46120  1  0  0  0
 47121  1  0  0  0
 47122  1  0  0  0
 48 56  1  0  0  0
 48 65  1  0  0  0
 48123  1  0  0  0
 49 50  1  0  0  0
 49 53  1  0  0  0
 49 64  1  0  0  0
 49124  1  0  0  0
 50 51  1  0  0  0
 50125  1  0  0  0
 50126  1  0  0  0
 51 52  1  0  0  0
 51127  1  0  0  0
 51128  1  0  0  0
 52129  1  0  0  0
 52130  1  0  0  0
 53 54  1  0  0  0
 54 55  2  0  0  0
 54131  1  0  0  0
 55 57  1  0  0  0
 55132  1  0  0  0
 56 69  2  0  0  0
 57 58  2  0  0  0
 57133  1  0  0  0
 58134  1  0  0  0
 59 60  1  0  0  0
 59 61  1  0  0  0
 59 62  1  0  0  0
 60135  1  0  0  0
 60136  1  0  0  0
 60137  1  0  0  0
 61138  1  0  0  0
 61139  1  0  0  0
 61140  1  0  0  0
 62141  1  0  0  0
 62142  1  0  0  0
 62143  1  0  0  0
 63 65  1  0  0  0
 63144  1  0  0  0
 63145  1  0  0  0
 63146  1  0  0  0
 64147  1  0  0  0
 65148  1  0  0  0
 68 84  1  0  0  0
 71 73  2  0  0  0
 71 75  1  0  0  0
 71 88  1  0  0  0
 72 74  1  0  0  0
 72 76  1  0  0  0
 72 87  2  0  0  0
 73 80  1  0  0  0
 73 87  1  0  0  0
 74 85  1  0  0  0
 74 88  2  0  0  0
 75149  1  0  0  0
 75150  1  0  0  0
 75151  1  0  0  0
 76152  1  0  0  0
 76153  1  0  0  0
 76154  1  0  0  0
 77155  1  0  0  0
 77156  1  0  0  0
 77157  1  0  0  0
 77 85  1  0  0  0
 78158  1  0  0  0
 78159  1  0  0  0
 78160  1  0  0  0
 78 86  1  0  0  0
 79 86  1  0  0  0
 79161  1  0  0  0
 79162  1  0  0  0
 79163  1  0  0  0
 80 81  1  0  0  0
 80164  1  0  0  0
 80165  1  0  0  0
 81 82  1  0  0  0
 81166  1  0  0  0
 81167  1  0  0  0
 82 84  1  0  0  0
 82168  1  0  0  0
 82169  1  0  0  0
 83 86  1  0  0  0
 83 89  1  0  0  0
 83170  1  0  0  0
 83171  1  0  0  0
 84172  1  0  0  0
 84173  1  0  0  0
 85 86  1  0  0  0
 85174  1  0  0  0
 89175  1  0  0  0
M  ISO  4   1 100  68 101  84 101  89 100
M  END
> <chiral flag>
0

> <version>
0

> <s_m_source_file>
/data/baiqing/PycharmProjects/Reinvent-master-3.2/result/LINK_invent/BTK/process_docking_weight1_custom_sum_contain_oxygen_bond_distance_aromatic_linkinvent_7_9_3/rearranged_h_0079.sdf

> <i_m_source_file_index>
54

> <r_mmod_Potential_Energy-OPLS-2005>
-0.015420937910676

> <r_mmod_Stretch_Energy-OPLS-2005>
40.2154083251953

> <r_mmod_Bend_Energy-OPLS-2005>
128.542282104492

> <r_mmod_Torsional_Energy-OPLS-2005>
229.486328125

> <r_mmod_Improper_Torsional_Energy-OPLS-2005>
5.5158052444458

> <r_mmod_Van_der_Waal_Energy-OPLS-2005>
189.123809814453

> <r_mmod_Electrostatic_Energy-OPLS-2005>
-396.661529541016

> <r_mmod_Solvation_Energy-OPLS-2005>
-206.841461181641

> <b_mmod_Minimization_Converged-OPLS-2005>
0

> <r_mmod_RMS_Derivative-OPLS-2005>
6.33175611495972

$$$$
54
                    3D
 Structure written by MMmdl.
165173  0  0  1  0            999 V2000
  -30.7208  -14.4364   20.6073 C   0  0  0  0  0  0
  -30.4227  -12.3032   19.4056 C   0  0  0  0  0  0
  -29.4868  -12.5163   18.1973 C   0  0  0  0  0  0
  -28.0089  -12.3777   18.6113 C   0  0  0  0  0  0
  -27.6637  -13.2046   19.8770 C   0  0  2  0  0  0
  -28.7058  -12.9625   20.9920 C   0  0  0  0  0  0
  -25.2603  -13.8174   20.5672 C   0  0  0  0  0  0
  -24.1849  -13.0461   20.9169 C   0  0  0  0  0  0
  -24.6396  -11.6918   20.8750 C   0  0  0  0  0  0
  -23.9067  -10.4303   21.0407 C   0  0  0  0  0  0
  -24.3625   -9.4214   21.9174 C   0  0  0  0  0  0
  -23.6304   -8.2250   22.0745 C   0  0  0  0  0  0
  -22.4280   -8.0296   21.3540 C   0  0  0  0  0  0
  -21.9916   -9.0270   20.4640 C   0  0  0  0  0  0
  -22.7245  -10.2149   20.3052 C   0  0  0  0  0  0
  -21.6856   -6.0745   22.5285 C   0  0  0  0  0  0
  -21.4011   -6.5643   23.8220 C   0  0  0  0  0  0
  -21.3665   -5.6792   24.9176 C   0  0  0  0  0  0
  -21.6044   -4.3057   24.7222 C   0  0  0  0  0  0
  -21.8823   -3.8154   23.4346 C   0  0  0  0  0  0
  -21.9195   -4.6970   22.3401 C   0  0  0  0  0  0
  -22.7868  -13.5246   21.1847 C   0  0  0  0  0  0
  -22.1661   -4.2160   21.0976 F   0  0  0  0  0  0
  -21.5637   -3.4535   25.7734 F   0  0  0  0  0  0
  -30.0397  -13.2716   20.4415 N   0  0  0  0  0  0
  -26.3041  -12.9331   20.3381 N   0  0  0  0  0  0
  -25.9320  -11.6491   20.5780 N   0  0  0  0  0  0
  -22.0531  -12.8236   22.0415 N   0  0  0  0  0  0
  -25.4357  -15.1891   20.4056 N   0  0  0  0  0  0
  -31.8313  -14.6469   20.1130 O   0  0  0  0  0  0
  -21.6642   -6.8894   21.4248 O   0  0  0  0  0  0
  -22.3530  -14.5550   20.6702 O   0  0  0  0  0  0
  -24.6150  -31.8687   23.2098 C   0  0  0  0  0  0
  -25.9039  -32.4825   23.8406 C   0  0  1  0  0  0
  -27.2277  -27.4335   20.0859 C   0  0  0  0  0  0
  -25.5897  -33.8625   24.2335 N   0  0  0  0  0  0
  -23.4036  -30.4932   21.5507 C   0  0  2  0  0  0
  -24.8475  -28.9660   20.1111 C   0  0  0  0  0  0
  -22.7425  -29.4655   22.4972 C   0  0  0  0  0  0
  -18.0270  -28.1379   22.8483 C   0  0  0  0  0  0
  -24.1485  -36.7321   23.2640 C   0  0  0  0  0  0
  -25.9351  -30.8338   21.3650 C   0  0  0  0  0  0
  -26.0103  -29.4698   20.7078 C   0  0  0  0  0  0
  -27.2043  -28.7110   20.6913 C   0  0  0  0  0  0
  -26.0458  -26.9554   19.4695 C   0  0  0  0  0  0
  -24.8599  -27.7078   19.4898 C   0  0  0  0  0  0
  -23.6111  -29.8316   20.1636 C   0  0  0  0  0  0
  -25.4106  -36.3112   24.0340 C   0  0  1  0  0  0
  -20.5869  -28.3667   23.1305 C   0  0  2  0  0  0
  -20.6756  -26.9402   22.5403 C   0  0  0  0  0  0
  -19.5732  -26.6387   21.5201 C   0  0  0  0  0  0
  -18.1916  -26.7920   22.1624 C   0  0  0  0  0  0
  -19.1526  -28.8840   23.2886 C   0  0  0  0  0  0
  -18.9457  -30.1447   23.8903 C   0  0  0  0  0  0
  -17.6459  -30.6579   24.0569 C   0  0  0  0  0  0
  -25.9028  -34.9475   23.5129 C   0  0  0  0  0  0
  -16.5349  -29.9086   23.6329 C   0  0  0  0  0  0
  -16.7266  -28.6510   23.0339 C   0  0  0  0  0  0
  -26.4467  -31.6607   25.0735 C   0  0  0  0  0  0
  -25.3732  -31.3709   26.1486 C   0  0  0  0  0  0
  -27.0305  -30.3048   24.6123 C   0  0  0  0  0  0
  -27.6047  -32.4333   25.7490 C   0  0  0  0  0  0
  -27.5581  -37.1806   24.8470 C   0  0  0  0  0  0
  -21.4153  -29.3037   22.3722 N   0  0  0  0  0  0
  -26.4297  -37.3787   23.9406 N   0  0  0  0  0  0
  -24.6697  -31.0776   22.1006 N   0  0  0  0  0  0
  -23.4194  -28.8194   23.3006 O   0  0  0  0  0  0
  -28.3901  -26.6843   20.1127 O   0  0  0  0  0  0
  -26.5594  -34.8930   22.4693 O   0  0  0  0  0  0
  -23.5337  -32.1467   23.7467 O   0  0  0  0  0  0
  -29.1105  -20.0895   21.0862 C   0  0  0  0  0  0
  -29.5069  -21.1591   21.8453 C   0  0  0  0  0  0
  -30.8469  -20.8283   22.2036 C   0  0  0  0  0  0
  -31.8130  -21.5950   23.0612 C   0  0  0  0  0  0
  -28.8706  -17.5139   19.7026 C   0  0  0  0  0  0
  -31.3236  -17.8110   19.3724 C   0  0  0  0  0  0
  -28.6595  -22.3372   22.2755 C   0  0  0  0  0  0
  -29.2787  -23.7521   22.0780 C   0  0  0  0  0  0
  -29.3746  -24.3669   20.6388 C   0  0  0  0  0  0
  -30.4898  -16.7663   21.5529 C   0  0  0  0  0  0
  -28.2260  -25.2500   20.0385 C   0  0  0  0  0  0
  -30.2004  -17.8223   20.4308 C   0  0  0  0  0  0
  -31.2206  -19.6541   21.7130 N   0  0  0  0  0  0
  -30.1474  -19.1700   21.0416 N   0  0  0  0  0  0
  -30.0552  -15.3888   21.2724 N   0  0  0  0  0  0
  -31.4670  -12.4085   19.1050 H   0  0  0  0  0  0
  -30.3279  -11.2867   19.7904 H   0  0  0  0  0  0
  -29.7213  -11.7983   17.4103 H   0  0  0  0  0  0
  -29.6549  -13.5056   17.7683 H   0  0  0  0  0  0
  -27.8102  -11.3207   18.7901 H   0  0  0  0  0  0
  -27.3580  -12.6720   17.7871 H   0  0  0  0  0  0
  -27.7146  -14.2556   19.5928 H   0  0  0  0  0  0
  -28.6783  -11.9186   21.3072 H   0  0  0  0  0  0
  -28.4606  -13.5383   21.8861 H   0  0  0  0  0  0
  -25.2785   -9.5689   22.4721 H   0  0  0  0  0  0
  -24.0034   -7.4635   22.7443 H   0  0  0  0  0  0
  -21.0859   -8.8783   19.8933 H   0  0  0  0  0  0
  -22.3716  -10.9682   19.6152 H   0  0  0  0  0  0
  -21.1992   -7.6146   23.9728 H   0  0  0  0  0  0
  -21.1484   -6.0510   25.9077 H   0  0  0  0  0  0
  -22.0597   -2.7619   23.2834 H   0  0  0  0  0  0
  -22.4154  -11.9892   22.4793 H   0  0  0  0  0  0
  -21.1145  -13.1235   22.2637 H   0  0  0  0  0  0
  -24.6776  -15.8527   20.5158 H   0  0  0  0  0  0
  -26.2931  -15.6206   20.0868 H   0  0  0  0  0  0
  -26.7120  -32.5536   23.1178 H   0  0  0  0  0  0
  -25.0044  -33.9807   25.0480 H   0  0  0  0  0  0
  -22.6909  -31.3083   21.4095 H   0  0  0  0  0  0
  -23.3737  -35.9660   23.3320 H   0  0  0  0  0  0
  -24.3578  -36.8923   22.2049 H   0  0  0  0  0  0
  -23.7252  -37.6539   23.6646 H   0  0  0  0  0  0
  -26.0484  -31.6019   20.5978 H   0  0  0  0  0  0
  -26.8228  -30.8834   21.9846 H   0  0  0  0  0  0
  -28.1034  -29.0913   21.1566 H   0  0  0  0  0  0
  -26.0184  -26.0007   18.9633 H   0  0  0  0  0  0
  -23.9689  -27.3169   19.0181 H   0  0  0  0  0  0
  -23.7204  -30.6092   19.4056 H   0  0  0  0  0  0
  -22.7347  -29.2515   19.8675 H   0  0  0  0  0  0
  -25.1265  -36.1980   25.0830 H   0  0  0  0  0  0
  -20.9958  -28.3235   24.1423 H   0  0  0  0  0  0
  -20.5648  -26.2281   23.3594 H   0  0  0  0  0  0
  -21.6628  -26.7425   22.1201 H   0  0  0  0  0  0
  -19.6893  -25.6299   21.1232 H   0  0  0  0  0  0
  -19.6671  -27.3201   20.6734 H   0  0  0  0  0  0
  -17.4174  -26.6671   21.4036 H   0  0  0  0  0  0
  -18.0317  -26.0061   22.9026 H   0  0  0  0  0  0
  -19.7938  -30.7250   24.2279 H   0  0  0  0  0  0
  -17.5018  -31.6256   24.5167 H   0  0  0  0  0  0
  -15.5351  -30.2986   23.7636 H   0  0  0  0  0  0
  -15.8671  -28.0829   22.7033 H   0  0  0  0  0  0
  -24.5901  -30.7060   25.7825 H   0  0  0  0  0  0
  -24.8930  -32.2862   26.4952 H   0  0  0  0  0  0
  -25.8082  -30.8871   27.0241 H   0  0  0  0  0  0
  -26.2862  -29.6796   24.1178 H   0  0  0  0  0  0
  -27.4078  -29.7281   25.4580 H   0  0  0  0  0  0
  -27.8690  -30.4361   23.9277 H   0  0  0  0  0  0
  -27.2671  -33.3623   26.2099 H   0  0  0  0  0  0
  -28.3834  -32.6922   25.0300 H   0  0  0  0  0  0
  -28.0754  -31.8453   26.5383 H   0  0  0  0  0  0
  -28.2589  -38.0105   24.7489 H   0  0  0  0  0  0
  -28.1074  -36.2627   24.6307 H   0  0  0  0  0  0
  -27.2298  -37.1483   25.8874 H   0  0  0  0  0  0
  -20.9303  -29.8801   21.6989 H   0  0  0  0  0  0
  -26.0189  -38.2865   24.1397 H   0  0  0  0  0  0
  -28.1562  -19.9000   20.6161 H   0  0  0  0  0  0
  -32.4858  -20.9303   23.6036 H   0  0  0  0  0  0
  -31.2958  -22.1979   23.8071 H   0  0  0  0  0  0
  -32.4267  -22.2623   22.4566 H   0  0  0  0  0  0
  -28.8863  -16.5391   19.2137 H   0  0  0  0  0  0
  -28.6731  -18.2500   18.9212 H   0  0  0  0  0  0
  -28.0254  -17.5189   20.3905 H   0  0  0  0  0  0
  -31.3665  -16.8660   18.8336 H   0  0  0  0  0  0
  -32.3017  -17.9730   19.8250 H   0  0  0  0  0  0
  -31.1755  -18.5993   18.6325 H   0  0  0  0  0  0
  -28.4371  -22.2294   23.3386 H   0  0  0  0  0  0
  -27.6762  -22.2965   21.8040 H   0  0  0  0  0  0
  -28.6589  -24.4063   22.7006 H   0  0  0  0  0  0
  -30.2611  -23.7874   22.5461 H   0  0  0  0  0  0
  -29.5481  -25.2775   21.2074 H   0  0  0  0  0  0
  -28.6544  -23.6077   20.3439 H   0  0  0  0  0  0
  -29.9606  -17.0589   22.4613 H   0  0  0  0  0  0
  -31.5473  -16.7732   21.8219 H   0  0  0  0  0  0
  -27.2942  -24.9895   20.5536 H   0  0  0  0  0  0
  -28.0857  -24.9998   18.9831 H   0  0  0  0  0  0
  -29.1466  -15.1278   21.6245 H   0  0  0  0  0  0
  1 25  1  0  0  0
  1 30  2  0  0  0
  1 85  1  0  0  0
  2  3  1  0  0  0
  2 25  1  0  0  0
  2 86  1  0  0  0
  2 87  1  0  0  0
  3  4  1  0  0  0
  3 88  1  0  0  0
  3 89  1  0  0  0
  4  5  1  0  0  0
  4 90  1  0  0  0
  4 91  1  0  0  0
  5  6  1  0  0  0
  5 26  1  0  0  0
  5 92  1  0  0  0
  6 25  1  0  0  0
  6 93  1  0  0  0
  6 94  1  0  0  0
  7  8  2  0  0  0
  7 26  1  0  0  0
  7 29  1  0  0  0
  8  9  1  0  0  0
  8 22  1  0  0  0
  9 10  1  0  0  0
  9 27  2  0  0  0
 10 11  2  0  0  0
 10 15  1  0  0  0
 11 12  1  0  0  0
 11 95  1  0  0  0
 12 13  2  0  0  0
 12 96  1  0  0  0
 13 14  1  0  0  0
 13 31  1  0  0  0
 14 15  2  0  0  0
 14 97  1  0  0  0
 15 98  1  0  0  0
 16 17  2  0  0  0
 16 21  1  0  0  0
 16 31  1  0  0  0
 17 18  1  0  0  0
 17 99  1  0  0  0
 18 19  2  0  0  0
 18100  1  0  0  0
 19 20  1  0  0  0
 19 24  1  0  0  0
 20 21  2  0  0  0
 20101  1  0  0  0
 21 23  1  0  0  0
 22 28  1  0  0  0
 22 32  2  0  0  0
 26 27  1  0  0  0
 28102  1  0  0  0
 28103  1  0  0  0
 29104  1  0  0  0
 29105  1  0  0  0
 33 34  1  0  0  0
 33 66  1  0  0  0
 33 70  2  0  0  0
 34 36  1  0  0  0
 34 59  1  0  0  0
 34106  1  0  0  0
 35 44  2  0  0  0
 35 45  1  0  0  0
 35 68  1  0  0  0
 36 56  1  0  0  0
 36107  1  0  0  0
 37 39  1  0  0  0
 37 47  1  0  0  0
 37 66  1  0  0  0
 37108  1  0  0  0
 38 43  2  0  0  0
 38 46  1  0  0  0
 38 47  1  0  0  0
 39 64  1  0  0  0
 39 67  2  0  0  0
 40 52  1  0  0  0
 40 53  2  0  0  0
 40 58  1  0  0  0
 41109  1  0  0  0
 41110  1  0  0  0
 41111  1  0  0  0
 41 48  1  0  0  0
 42 43  1  0  0  0
 42 66  1  0  0  0
 42112  1  0  0  0
 42113  1  0  0  0
 43 44  1  0  0  0
 44114  1  0  0  0
 45 46  2  0  0  0
 45115  1  0  0  0
 46116  1  0  0  0
 47117  1  0  0  0
 47118  1  0  0  0
 48 56  1  0  0  0
 48 65  1  0  0  0
 48119  1  0  0  0
 49 50  1  0  0  0
 49 53  1  0  0  0
 49 64  1  0  0  0
 49120  1  0  0  0
 50 51  1  0  0  0
 50121  1  0  0  0
 50122  1  0  0  0
 51 52  1  0  0  0
 51123  1  0  0  0
 51124  1  0  0  0
 52125  1  0  0  0
 52126  1  0  0  0
 53 54  1  0  0  0
 54 55  2  0  0  0
 54127  1  0  0  0
 55 57  1  0  0  0
 55128  1  0  0  0
 56 69  2  0  0  0
 57 58  2  0  0  0
 57129  1  0  0  0
 58130  1  0  0  0
 59 60  1  0  0  0
 59 61  1  0  0  0
 59 62  1  0  0  0
 60131  1  0  0  0
 60132  1  0  0  0
 60133  1  0  0  0
 61134  1  0  0  0
 61135  1  0  0  0
 61136  1  0  0  0
 62137  1  0  0  0
 62138  1  0  0  0
 62139  1  0  0  0
 63 65  1  0  0  0
 63140  1  0  0  0
 63141  1  0  0  0
 63142  1  0  0  0
 64143  1  0  0  0
 65144  1  0  0  0
 68 81  1  0  0  0
 71 72  2  0  0  0
 71 84  1  0  0  0
 71145  1  0  0  0
 72 73  1  0  0  0
 72 77  1  0  0  0
 73 74  1  0  0  0
 73 83  2  0  0  0
 74146  1  0  0  0
 74147  1  0  0  0
 74148  1  0  0  0
 75149  1  0  0  0
 75150  1  0  0  0
 75151  1  0  0  0
 75 82  1  0  0  0
 76 82  1  0  0  0
 76152  1  0  0  0
 76153  1  0  0  0
 76154  1  0  0  0
 77 78  1  0  0  0
 77155  1  0  0  0
 77156  1  0  0  0
 78 79  1  0  0  0
 78157  1  0  0  0
 78158  1  0  0  0
 79 81  1  0  0  0
 79159  1  0  0  0
 79160  1  0  0  0
 80 82  1  0  0  0
 80 85  1  0  0  0
 80161  1  0  0  0
 80162  1  0  0  0
 81163  1  0  0  0
 81164  1  0  0  0
 82 84  1  0  0  0
 83 84  1  0  0  0
 85165  1  0  0  0
M  ISO  4   1 100  68 101  81 101  85 100
M  END
> <chiral flag>
0

> <version>
0

> <s_m_source_file>
/data/baiqing/PycharmProjects/Reinvent-master-3.2/result/LINK_invent/BTK/process_docking_weight1_custom_sum_contain_oxygen_bond_distance_aromatic_linkinvent_7_9_3/rearranged_h_0079.sdf

> <i_m_source_file_index>
55

> <r_mmod_Potential_Energy-OPLS-2005>
136.073654174805

> <r_mmod_Stretch_Energy-OPLS-2005>
41.4446907043457

> <r_mmod_Bend_Energy-OPLS-2005>
335.682647705078

> <r_mmod_Torsional_Energy-OPLS-2005>
254.986862182617

> <r_mmod_Improper_Torsional_Energy-OPLS-2005>
2.7375967502594

> <r_mmod_Van_der_Waal_Energy-OPLS-2005>
158.063735961914

> <r_mmod_Electrostatic_Energy-OPLS-2005>
-452.021759033203

> <r_mmod_Solvation_Energy-OPLS-2005>
-216.315292358398

> <b_mmod_Minimization_Converged-OPLS-2005>
0

> <r_mmod_RMS_Derivative-OPLS-2005>
2.23369932174683

$$$$
55
                    3D
 Structure written by MMmdl.
171179  0  0  1  0            999 V2000
  -30.7396  -14.5257   20.6364 C   0  0  0  0  0  0
  -30.4141  -12.3602   19.4566 C   0  0  0  0  0  0
  -29.4977  -12.5387   18.2274 C   0  0  0  0  0  0
  -28.0198  -12.3757   18.6258 C   0  0  0  0  0  0
  -27.6580  -13.2159   19.8764 C   0  0  2  0  0  0
  -28.6921  -12.9948   20.9988 C   0  0  0  0  0  0
  -25.2566  -13.8181   20.5709 C   0  0  0  0  0  0
  -24.1826  -13.0456   20.9198 C   0  0  0  0  0  0
  -24.6389  -11.6921   20.8744 C   0  0  0  0  0  0
  -23.9065  -10.4302   21.0416 C   0  0  0  0  0  0
  -24.3615   -9.4214   21.9193 C   0  0  0  0  0  0
  -23.6293   -8.2247   22.0756 C   0  0  0  0  0  0
  -22.4279   -8.0286   21.3550 C   0  0  0  0  0  0
  -21.9916   -9.0256   20.4650 C   0  0  0  0  0  0
  -22.7240  -10.2135   20.3061 C   0  0  0  0  0  0
  -21.6856   -6.0739   22.5279 C   0  0  0  0  0  0
  -21.4018   -6.5643   23.8212 C   0  0  0  0  0  0
  -21.3657   -5.6792   24.9175 C   0  0  0  0  0  0
  -21.6043   -4.3055   24.7223 C   0  0  0  0  0  0
  -21.8819   -3.8150   23.4343 C   0  0  0  0  0  0
  -21.9197   -4.6967   22.3404 C   0  0  0  0  0  0
  -22.7848  -13.5247   21.1859 C   0  0  0  0  0  0
  -22.1665   -4.2153   21.0980 F   0  0  0  0  0  0
  -21.5624   -3.4540   25.7736 F   0  0  0  0  0  0
  -30.0240  -13.3582   20.4836 N   0  0  0  0  0  0
  -26.2999  -12.9366   20.3356 N   0  0  0  0  0  0
  -25.9316  -11.6515   20.5753 N   0  0  0  0  0  0
  -22.0476  -12.8235   22.0400 N   0  0  0  0  0  0
  -25.4280  -15.1903   20.4147 N   0  0  0  0  0  0
  -31.7741  -14.6612   19.9747 O   0  0  0  0  0  0
  -21.6646   -6.8882   21.4242 O   0  0  0  0  0  0
  -22.3540  -14.5559   20.6707 O   0  0  0  0  0  0
  -24.6194  -31.8653   23.2072 C   0  0  0  0  0  0
  -25.9075  -32.4809   23.8372 C   0  0  1  0  0  0
  -27.2284  -27.3941   20.1106 C   0  0  0  0  0  0
  -25.5913  -33.8607   24.2298 N   0  0  0  0  0  0
  -23.4116  -30.4857   21.5500 C   0  0  2  0  0  0
  -24.8590  -28.9499   20.1131 C   0  0  0  0  0  0
  -22.7454  -29.4631   22.4994 C   0  0  0  0  0  0
  -18.0280  -28.1366   22.8502 C   0  0  0  0  0  0
  -24.1502  -36.7321   23.2636 C   0  0  0  0  0  0
  -25.9447  -30.8182   21.3685 C   0  0  0  0  0  0
  -26.0235  -29.4510   20.7127 C   0  0  0  0  0  0
  -27.2151  -28.6812   20.7064 C   0  0  0  0  0  0
  -26.0524  -26.9208   19.4935 C   0  0  0  0  0  0
  -24.8713  -27.6867   19.4963 C   0  0  0  0  0  0
  -23.6207  -29.8180   20.1663 C   0  0  0  0  0  0
  -25.4129  -36.3102   24.0312 C   0  0  1  0  0  0
  -20.5873  -28.3665   23.1313 C   0  0  2  0  0  0
  -20.6788  -26.9400   22.5423 C   0  0  0  0  0  0
  -19.5772  -26.6382   21.5213 C   0  0  0  0  0  0
  -18.1941  -26.7926   22.1606 C   0  0  0  0  0  0
  -19.1527  -28.8831   23.2903 C   0  0  0  0  0  0
  -18.9447  -30.1443   23.8904 C   0  0  0  0  0  0
  -17.6448  -30.6581   24.0546 C   0  0  0  0  0  0
  -25.9053  -34.9468   23.5108 C   0  0  0  0  0  0
  -16.5343  -29.9071   23.6326 C   0  0  0  0  0  0
  -16.7267  -28.6480   23.0364 C   0  0  0  0  0  0
  -26.4489  -31.6599   25.0719 C   0  0  0  0  0  0
  -25.3714  -31.3688   26.1427 C   0  0  0  0  0  0
  -27.0319  -30.3032   24.6126 C   0  0  0  0  0  0
  -27.6053  -32.4338   25.7488 C   0  0  0  0  0  0
  -27.5595  -37.1821   24.8452 C   0  0  0  0  0  0
  -21.4175  -29.3017   22.3711 N   0  0  0  0  0  0
  -26.4318  -37.3782   23.9386 N   0  0  0  0  0  0
  -24.6770  -31.0702   22.1002 N   0  0  0  0  0  0
  -23.4196  -28.8192   23.3074 O   0  0  0  0  0  0
  -28.3363  -26.5663   20.1437 O   0  0  0  0  0  0
  -26.5619  -34.8916   22.4675 O   0  0  0  0  0  0
  -23.5377  -32.1437   23.7437 O   0  0  0  0  0  0
  -27.5612  -19.1435   21.7362 C   0  0  0  0  0  0
  -26.5333  -20.0962   21.7071 C   0  0  0  0  0  0
  -26.8053  -21.3792   21.1687 C   0  0  0  0  0  0
  -28.8299  -19.4667   21.2409 C   0  0  0  0  0  0
  -28.1108  -21.6537   20.6750 C   0  0  0  0  0  0
  -25.6872  -22.4166   21.0978 C   0  0  0  0  0  0
  -25.0678  -20.0250   23.7742 C   0  0  0  0  0  0
  -31.7933  -16.2054   22.1651 C   0  0  0  0  0  0
  -29.5490  -15.4419   22.8256 C   0  0  0  0  0  0
  -25.1782  -19.7021   22.2781 C   0  0  0  0  0  0
  -29.9627  -18.4325   21.4267 C   0  0  0  0  0  0
  -28.4444  -23.0094   19.9836 C   0  0  0  0  0  0
  -29.7815  -16.9926   20.8002 C   0  0  0  0  0  0
  -29.0351  -24.1619   20.8668 C   0  0  0  0  0  0
  -28.1984  -25.4724   21.0882 C   0  0  0  0  0  0
  -30.4144  -15.7656   21.5867 C   0  0  0  0  0  0
  -29.0981  -20.7038   20.7223 N   0  0  0  0  0  0
  -31.4600  -12.4348   19.1565 H   0  0  0  0  0  0
  -30.3147  -11.3506   19.8596 H   0  0  0  0  0  0
  -29.7589  -11.8173   17.4518 H   0  0  0  0  0  0
  -29.6536  -13.5278   17.7954 H   0  0  0  0  0  0
  -27.8452  -11.3178   18.8288 H   0  0  0  0  0  0
  -27.3685  -12.6372   17.7916 H   0  0  0  0  0  0
  -27.7031  -14.2665   19.5862 H   0  0  0  0  0  0
  -28.6940  -11.9448   21.2959 H   0  0  0  0  0  0
  -28.3761  -13.5092   21.8926 H   0  0  0  0  0  0
  -25.2753   -9.5697   22.4783 H   0  0  0  0  0  0
  -24.0006   -7.4641   22.7473 H   0  0  0  0  0  0
  -21.0856   -8.8783   19.8947 H   0  0  0  0  0  0
  -22.3709  -10.9685   19.6179 H   0  0  0  0  0  0
  -21.2011   -7.6153   23.9722 H   0  0  0  0  0  0
  -21.1478   -6.0521   25.9079 H   0  0  0  0  0  0
  -22.0599   -2.7614   23.2844 H   0  0  0  0  0  0
  -22.4077  -11.9898   22.4810 H   0  0  0  0  0  0
  -21.1087  -13.1263   22.2574 H   0  0  0  0  0  0
  -24.6639  -15.8457   20.5346 H   0  0  0  0  0  0
  -26.2841  -15.6317   20.1054 H   0  0  0  0  0  0
  -26.7151  -32.5500   23.1131 H   0  0  0  0  0  0
  -25.0018  -33.9744   25.0414 H   0  0  0  0  0  0
  -22.7020  -31.3038   21.4096 H   0  0  0  0  0  0
  -23.3739  -35.9675   23.3307 H   0  0  0  0  0  0
  -24.3589  -36.8959   22.2052 H   0  0  0  0  0  0
  -23.7281  -37.6535   23.6666 H   0  0  0  0  0  0
  -26.0636  -31.5861   20.6022 H   0  0  0  0  0  0
  -26.8299  -30.8709   21.9911 H   0  0  0  0  0  0
  -28.1127  -29.0542   21.1805 H   0  0  0  0  0  0
  -26.0431  -25.9432   19.0299 H   0  0  0  0  0  0
  -23.9745  -27.2983   19.0323 H   0  0  0  0  0  0
  -23.7234  -30.5917   19.4049 H   0  0  0  0  0  0
  -22.7453  -29.2352   19.8751 H   0  0  0  0  0  0
  -25.1312  -36.1969   25.0799 H   0  0  0  0  0  0
  -20.9951  -28.3248   24.1435 H   0  0  0  0  0  0
  -20.5739  -26.2258   23.3606 H   0  0  0  0  0  0
  -21.6652  -26.7488   22.1180 H   0  0  0  0  0  0
  -19.6937  -25.6289   21.1251 H   0  0  0  0  0  0
  -19.6713  -27.3185   20.6738 H   0  0  0  0  0  0
  -17.4227  -26.6684   21.3995 H   0  0  0  0  0  0
  -18.0310  -26.0049   22.8972 H   0  0  0  0  0  0
  -19.7921  -30.7252   24.2290 H   0  0  0  0  0  0
  -17.5000  -31.6264   24.5143 H   0  0  0  0  0  0
  -15.5345  -30.2962   23.7660 H   0  0  0  0  0  0
  -15.8667  -28.0795   22.7091 H   0  0  0  0  0  0
  -24.5926  -30.7012   25.7721 H   0  0  0  0  0  0
  -24.8828  -32.2817   26.4845 H   0  0  0  0  0  0
  -25.8031  -30.8870   27.0207 H   0  0  0  0  0  0
  -26.2861  -29.6786   24.1194 H   0  0  0  0  0  0
  -27.4076  -29.7289   25.4602 H   0  0  0  0  0  0
  -27.8708  -30.4319   23.9280 H   0  0  0  0  0  0
  -27.2676  -33.3650   26.2051 H   0  0  0  0  0  0
  -28.3867  -32.6905   25.0320 H   0  0  0  0  0  0
  -28.0713  -31.8473   26.5414 H   0  0  0  0  0  0
  -28.2613  -38.0124   24.7508 H   0  0  0  0  0  0
  -28.1103  -36.2648   24.6290 H   0  0  0  0  0  0
  -27.2290  -37.1478   25.8851 H   0  0  0  0  0  0
  -20.9359  -29.8690   21.6868 H   0  0  0  0  0  0
  -26.0204  -38.2865   24.1368 H   0  0  0  0  0  0
  -27.3857  -18.1687   22.1708 H   0  0  0  0  0  0
  -25.0214  -22.3559   21.9571 H   0  0  0  0  0  0
  -25.0935  -22.2745   20.1946 H   0  0  0  0  0  0
  -26.0564  -23.4339   21.0917 H   0  0  0  0  0  0
  -24.1017  -19.7124   24.1693 H   0  0  0  0  0  0
  -25.1720  -21.0943   23.9576 H   0  0  0  0  0  0
  -25.8425  -19.5142   24.3476 H   0  0  0  0  0  0
  -31.7120  -16.9257   22.9779 H   0  0  0  0  0  0
  -32.4270  -16.6659   21.4053 H   0  0  0  0  0  0
  -32.3445  -15.3565   22.5733 H   0  0  0  0  0  0
  -29.6890  -16.1719   23.6226 H   0  0  0  0  0  0
  -29.8014  -14.4715   23.2560 H   0  0  0  0  0  0
  -28.4836  -15.4734   22.5994 H   0  0  0  0  0  0
  -25.0342  -18.6309   22.1327 H   0  0  0  0  0  0
  -24.3693  -20.1737   21.7214 H   0  0  0  0  0  0
  -30.0556  -18.3389   22.5083 H   0  0  0  0  0  0
  -30.9069  -18.8598   21.0896 H   0  0  0  0  0  0
  -27.5765  -23.3730   19.4343 H   0  0  0  0  0  0
  -29.1695  -22.7889   19.1994 H   0  0  0  0  0  0
  -30.1610  -17.0214   19.7781 H   0  0  0  0  0  0
  -28.7164  -16.7916   20.6844 H   0  0  0  0  0  0
  -30.0092  -24.4491   20.4717 H   0  0  0  0  0  0
  -29.2507  -23.7368   21.8488 H   0  0  0  0  0  0
  -28.5247  -25.8955   22.0388 H   0  0  0  0  0  0
  -27.1543  -25.2223   21.2578 H   0  0  0  0  0  0
  1 25  1  0  0  0
  1 30  2  0  0  0
  1 86  1  0  0  0
  2  3  1  0  0  0
  2 25  1  0  0  0
  2 88  1  0  0  0
  2 89  1  0  0  0
  3  4  1  0  0  0
  3 90  1  0  0  0
  3 91  1  0  0  0
  4  5  1  0  0  0
  4 92  1  0  0  0
  4 93  1  0  0  0
  5  6  1  0  0  0
  5 26  1  0  0  0
  5 94  1  0  0  0
  6 25  1  0  0  0
  6 95  1  0  0  0
  6 96  1  0  0  0
  7  8  2  0  0  0
  7 26  1  0  0  0
  7 29  1  0  0  0
  8  9  1  0  0  0
  8 22  1  0  0  0
  9 10  1  0  0  0
  9 27  2  0  0  0
 10 11  2  0  0  0
 10 15  1  0  0  0
 11 12  1  0  0  0
 11 97  1  0  0  0
 12 13  2  0  0  0
 12 98  1  0  0  0
 13 14  1  0  0  0
 13 31  1  0  0  0
 14 15  2  0  0  0
 14 99  1  0  0  0
 15100  1  0  0  0
 16 17  2  0  0  0
 16 21  1  0  0  0
 16 31  1  0  0  0
 17 18  1  0  0  0
 17101  1  0  0  0
 18 19  2  0  0  0
 18102  1  0  0  0
 19 20  1  0  0  0
 19 24  1  0  0  0
 20 21  2  0  0  0
 20103  1  0  0  0
 21 23  1  0  0  0
 22 28  1  0  0  0
 22 32  2  0  0  0
 26 27  1  0  0  0
 28104  1  0  0  0
 28105  1  0  0  0
 29106  1  0  0  0
 29107  1  0  0  0
 33 34  1  0  0  0
 33 66  1  0  0  0
 33 70  2  0  0  0
 34 36  1  0  0  0
 34 59  1  0  0  0
 34108  1  0  0  0
 35 44  2  0  0  0
 35 45  1  0  0  0
 35 68  1  0  0  0
 36 56  1  0  0  0
 36109  1  0  0  0
 37 39  1  0  0  0
 37 47  1  0  0  0
 37 66  1  0  0  0
 37110  1  0  0  0
 38 43  2  0  0  0
 38 46  1  0  0  0
 38 47  1  0  0  0
 39 64  1  0  0  0
 39 67  2  0  0  0
 40 52  1  0  0  0
 40 53  2  0  0  0
 40 58  1  0  0  0
 41111  1  0  0  0
 41112  1  0  0  0
 41113  1  0  0  0
 41 48  1  0  0  0
 42 43  1  0  0  0
 42 66  1  0  0  0
 42114  1  0  0  0
 42115  1  0  0  0
 43 44  1  0  0  0
 44116  1  0  0  0
 45 46  2  0  0  0
 45117  1  0  0  0
 46118  1  0  0  0
 47119  1  0  0  0
 47120  1  0  0  0
 48 56  1  0  0  0
 48 65  1  0  0  0
 48121  1  0  0  0
 49 50  1  0  0  0
 49 53  1  0  0  0
 49 64  1  0  0  0
 49122  1  0  0  0
 50 51  1  0  0  0
 50123  1  0  0  0
 50124  1  0  0  0
 51 52  1  0  0  0
 51125  1  0  0  0
 51126  1  0  0  0
 52127  1  0  0  0
 52128  1  0  0  0
 53 54  1  0  0  0
 54 55  2  0  0  0
 54129  1  0  0  0
 55 57  1  0  0  0
 55130  1  0  0  0
 56 69  2  0  0  0
 57 58  2  0  0  0
 57131  1  0  0  0
 58132  1  0  0  0
 59 60  1  0  0  0
 59 61  1  0  0  0
 59 62  1  0  0  0
 60133  1  0  0  0
 60134  1  0  0  0
 60135  1  0  0  0
 61136  1  0  0  0
 61137  1  0  0  0
 61138  1  0  0  0
 62139  1  0  0  0
 62140  1  0  0  0
 62141  1  0  0  0
 63 65  1  0  0  0
 63142  1  0  0  0
 63143  1  0  0  0
 63144  1  0  0  0
 64145  1  0  0  0
 65146  1  0  0  0
 68 85  1  0  0  0
 71 72  2  0  0  0
 71 74  1  0  0  0
 71147  1  0  0  0
 72 73  1  0  0  0
 72 80  1  0  0  0
 73 75  2  0  0  0
 73 76  1  0  0  0
 74 81  1  0  0  0
 74 87  2  0  0  0
 75 82  1  0  0  0
 75 87  1  0  0  0
 76148  1  0  0  0
 76149  1  0  0  0
 76150  1  0  0  0
 77 80  1  0  0  0
 77151  1  0  0  0
 77152  1  0  0  0
 77153  1  0  0  0
 78154  1  0  0  0
 78155  1  0  0  0
 78156  1  0  0  0
 78 86  1  0  0  0
 79 86  1  0  0  0
 79157  1  0  0  0
 79158  1  0  0  0
 79159  1  0  0  0
 80160  1  0  0  0
 80161  1  0  0  0
 81 83  1  0  0  0
 81162  1  0  0  0
 81163  1  0  0  0
 82 84  1  0  0  0
 82164  1  0  0  0
 82165  1  0  0  0
 83 86  1  0  0  0
 83166  1  0  0  0
 83167  1  0  0  0
 84 85  1  0  0  0
 84168  1  0  0  0
 84169  1  0  0  0
 85170  1  0  0  0
 85171  1  0  0  0
M  ISO  4   1 100  68 101  85 101  86 100
M  END
> <chiral flag>
0

> <version>
0

> <s_m_source_file>
/data/baiqing/PycharmProjects/Reinvent-master-3.2/result/LINK_invent/BTK/process_docking_weight1_custom_sum_contain_oxygen_bond_distance_aromatic_linkinvent_7_9_3/rearranged_h_0079.sdf

> <i_m_source_file_index>
56

> <r_mmod_Potential_Energy-OPLS-2005>
-83.9511795043945

> <r_mmod_Stretch_Energy-OPLS-2005>
66.2879257202148

> <r_mmod_Bend_Energy-OPLS-2005>
150.898544311523

> <r_mmod_Torsional_Energy-OPLS-2005>
231.529067993164

> <r_mmod_Improper_Torsional_Energy-OPLS-2005>
2.31351065635681

> <r_mmod_Van_der_Waal_Energy-OPLS-2005>
162.862075805664

> <r_mmod_Electrostatic_Energy-OPLS-2005>
-524.875061035156

> <r_mmod_Solvation_Energy-OPLS-2005>
-195.200012207031

> <b_mmod_Minimization_Converged-OPLS-2005>
0

> <r_mmod_RMS_Derivative-OPLS-2005>
1.85814547538757

$$$$
56
                    3D
 Structure written by MMmdl.
158165  0  0  1  0            999 V2000
  -30.4204  -15.2057   20.3716 C   0  0  0  0  0  0
  -30.4401  -12.7664   19.5091 C   0  0  0  0  0  0
  -29.5340  -12.5568   18.2718 C   0  0  0  0  0  0
  -28.0719  -12.3090   18.6904 C   0  0  0  0  0  0
  -27.6108  -13.2672   19.8177 C   0  0  2  0  0  0
  -28.6447  -13.3988   20.9513 C   0  0  0  0  0  0
  -25.2376  -13.8230   20.5734 C   0  0  0  0  0  0
  -24.1726  -13.0437   20.9284 C   0  0  0  0  0  0
  -24.6366  -11.6929   20.8751 C   0  0  0  0  0  0
  -23.9062  -10.4290   21.0437 C   0  0  0  0  0  0
  -24.3619   -9.4211   21.9215 C   0  0  0  0  0  0
  -23.6294   -8.2234   22.0749 C   0  0  0  0  0  0
  -22.4281   -8.0290   21.3532 C   0  0  0  0  0  0
  -21.9918   -9.0269   20.4640 C   0  0  0  0  0  0
  -22.7247  -10.2153   20.3075 C   0  0  0  0  0  0
  -21.6857   -6.0741   22.5288 C   0  0  0  0  0  0
  -21.4011   -6.5642   23.8228 C   0  0  0  0  0  0
  -21.3666   -5.6792   24.9192 C   0  0  0  0  0  0
  -21.6048   -4.3049   24.7234 C   0  0  0  0  0  0
  -21.8818   -3.8154   23.4352 C   0  0  0  0  0  0
  -21.9188   -4.6955   22.3410 C   0  0  0  0  0  0
  -22.7750  -13.5218   21.1939 C   0  0  0  0  0  0
  -22.1662   -4.2164   21.0981 F   0  0  0  0  0  0
  -21.5630   -3.4532   25.7735 F   0  0  0  0  0  0
  -29.8764  -13.8986   20.3226 N   0  0  0  0  0  0
  -26.2784  -12.9509   20.3145 N   0  0  0  0  0  0
  -25.9291  -11.6617   20.5643 N   0  0  0  0  0  0
  -22.0370  -12.8212   22.0476 N   0  0  0  0  0  0
  -25.3960  -15.1986   20.4164 N   0  0  0  0  0  0
  -31.6476  -15.2365   20.2004 O   0  0  0  0  0  0
  -21.6636   -6.8889   21.4247 O   0  0  0  0  0  0
  -22.3444  -14.5535   20.6801 O   0  0  0  0  0  0
  -24.6597  -31.8273   23.1714 C   0  0  0  0  0  0
  -25.9334  -32.4582   23.8121 C   0  0  1  0  0  0
  -27.2007  -26.9751   20.1729 C   0  0  0  0  0  0
  -25.6009  -33.8389   24.2057 N   0  0  0  0  0  0
  -23.4673  -30.4439   21.5213 C   0  0  2  0  0  0
  -24.9140  -28.8350   20.1162 C   0  0  0  0  0  0
  -22.7620  -29.4489   22.4790 C   0  0  0  0  0  0
  -18.0339  -28.1363   22.8445 C   0  0  0  0  0  0
  -24.1510  -36.7211   23.2639 C   0  0  0  0  0  0
  -26.0332  -30.6514   21.3901 C   0  0  0  0  0  0
  -26.0983  -29.2453   20.7382 C   0  0  0  0  0  0
  -27.2451  -28.3365   20.7342 C   0  0  0  0  0  0
  -25.9884  -26.6996   19.5108 C   0  0  0  0  0  0
  -24.8798  -27.5817   19.4813 C   0  0  0  0  0  0
  -23.7021  -29.7627   20.1457 C   0  0  0  0  0  0
  -25.4144  -36.2955   24.0298 C   0  0  1  0  0  0
  -20.5969  -28.3713   23.1156 C   0  0  2  0  0  0
  -20.6849  -26.9405   22.5326 C   0  0  0  0  0  0
  -19.5794  -26.6330   21.5174 C   0  0  0  0  0  0
  -18.1975  -26.7899   22.1582 C   0  0  0  0  0  0
  -19.1596  -28.8855   23.2805 C   0  0  0  0  0  0
  -18.9491  -30.1434   23.8849 C   0  0  0  0  0  0
  -17.6489  -30.6538   24.0560 C   0  0  0  0  0  0
  -25.9089  -34.9336   23.4974 C   0  0  0  0  0  0
  -16.5387  -29.9036   23.6320 C   0  0  0  0  0  0
  -16.7326  -28.6471   23.0321 C   0  0  0  0  0  0
  -26.4595  -31.6505   25.0639 C   0  0  0  0  0  0
  -25.3740  -31.3753   26.1322 C   0  0  0  0  0  0
  -27.0471  -30.2865   24.6314 C   0  0  0  0  0  0
  -27.6085  -32.4299   25.7464 C   0  0  0  0  0  0
  -27.5569  -37.1762   24.8465 C   0  0  0  0  0  0
  -21.4296  -29.3034   22.3524 N   0  0  0  0  0  0
  -26.4279  -37.3699   23.9403 N   0  0  0  0  0  0
  -24.7414  -30.9992   22.0817 N   0  0  0  0  0  0
  -23.4219  -28.8058   23.2992 O   0  0  0  0  0  0
  -28.2316  -25.9186   20.1428 O   0  0  0  0  0  0
  -26.5692  -34.8899   22.4568 O   0  0  0  0  0  0
  -23.5700  -32.1221   23.6882 O   0  0  0  0  0  0
  -29.0076  -19.4178   18.4842 C   0  0  0  0  0  0
  -27.4097  -19.0665   20.3466 C   0  0  0  0  0  0
  -26.9550  -22.4557   19.2319 C   0  0  0  0  0  0
  -29.2884  -23.0588   18.6115 C   0  0  0  0  0  0
  -28.9547  -21.2050   20.4885 C   0  0  0  0  0  0
  -29.8289  -18.0749   20.5631 C   0  0  0  0  0  0
  -28.1152  -24.3487   20.5712 C   0  0  0  0  0  0
  -28.8561  -19.4704   20.0156 C   0  0  0  0  0  0
  -28.3573  -22.7580   19.7996 C   0  0  0  0  0  0
  -29.6112  -16.4388   20.4136 N   0  0  0  0  0  0
  -31.4595  -12.9762   19.1809 H   0  0  0  0  0  0
  -30.5020  -11.8541   20.1025 H   0  0  0  0  0  0
  -29.8927  -11.7194   17.6728 H   0  0  0  0  0  0
  -29.5888  -13.4373   17.6309 H   0  0  0  0  0  0
  -27.9977  -11.2755   19.0343 H   0  0  0  0  0  0
  -27.4101  -12.3933   17.8268 H   0  0  0  0  0  0
  -27.5377  -14.2451   19.3398 H   0  0  0  0  0  0
  -28.7966  -12.4467   21.4644 H   0  0  0  0  0  0
  -28.2974  -14.1082   21.7022 H   0  0  0  0  0  0
  -25.2747   -9.5716   22.4818 H   0  0  0  0  0  0
  -24.0011   -7.4632   22.7482 H   0  0  0  0  0  0
  -21.0835   -8.8821   19.8944 H   0  0  0  0  0  0
  -22.3712  -10.9716   19.6210 H   0  0  0  0  0  0
  -21.2002   -7.6146   23.9752 H   0  0  0  0  0  0
  -21.1483   -6.0501   25.9100 H   0  0  0  0  0  0
  -22.0575   -2.7604   23.2847 H   0  0  0  0  0  0
  -22.3898  -11.9887   22.4948 H   0  0  0  0  0  0
  -21.0993  -13.1310   22.2619 H   0  0  0  0  0  0
  -24.6167  -15.8356   20.5348 H   0  0  0  0  0  0
  -26.2101  -15.6454   20.0185 H   0  0  0  0  0  0
  -26.7397  -32.5140   23.0835 H   0  0  0  0  0  0
  -25.0201  -33.9441   25.0235 H   0  0  0  0  0  0
  -22.7772  -31.2731   21.3556 H   0  0  0  0  0  0
  -23.3769  -35.9539   23.3265 H   0  0  0  0  0  0
  -24.3589  -36.8886   22.2051 H   0  0  0  0  0  0
  -23.7271  -37.6390   23.6712 H   0  0  0  0  0  0
  -26.2033  -31.3939   20.6092 H   0  0  0  0  0  0
  -26.8975  -30.7081   22.0391 H   0  0  0  0  0  0
  -28.1544  -28.6545   21.2234 H   0  0  0  0  0  0
  -25.8816  -25.7455   19.0142 H   0  0  0  0  0  0
  -23.9801  -27.2674   18.9691 H   0  0  0  0  0  0
  -23.8613  -30.5309   19.3889 H   0  0  0  0  0  0
  -22.8092  -29.2194   19.8279 H   0  0  0  0  0  0
  -25.1337  -36.1732   25.0783 H   0  0  0  0  0  0
  -21.0071  -28.3279   24.1271 H   0  0  0  0  0  0
  -20.5784  -26.2339   23.3569 H   0  0  0  0  0  0
  -21.6681  -26.7427   22.1039 H   0  0  0  0  0  0
  -19.6941  -25.6200   21.1305 H   0  0  0  0  0  0
  -19.6793  -27.3092   20.6666 H   0  0  0  0  0  0
  -17.4256  -26.6644   21.3963 H   0  0  0  0  0  0
  -18.0373  -26.0023   22.8948 H   0  0  0  0  0  0
  -19.7975  -30.7254   24.2199 H   0  0  0  0  0  0
  -17.5026  -31.6203   24.5159 H   0  0  0  0  0  0
  -15.5369  -30.2918   23.7609 H   0  0  0  0  0  0
  -15.8747  -28.0785   22.7014 H   0  0  0  0  0  0
  -24.5952  -30.7070   25.7645 H   0  0  0  0  0  0
  -24.8933  -32.2954   26.4613 H   0  0  0  0  0  0
  -25.8020  -30.9009   27.0164 H   0  0  0  0  0  0
  -26.3110  -29.6549   24.1342 H   0  0  0  0  0  0
  -27.4035  -29.7221   25.4934 H   0  0  0  0  0  0
  -27.9028  -30.4027   23.9686 H   0  0  0  0  0  0
  -27.2641  -33.3638   26.1922 H   0  0  0  0  0  0
  -28.3981  -32.6790   25.0363 H   0  0  0  0  0  0
  -28.0659  -31.8497   26.5480 H   0  0  0  0  0  0
  -28.2559  -38.0082   24.7501 H   0  0  0  0  0  0
  -28.1088  -36.2596   24.6304 H   0  0  0  0  0  0
  -27.2278  -37.1434   25.8868 H   0  0  0  0  0  0
  -20.9529  -29.8692   21.6626 H   0  0  0  0  0  0
  -26.0118  -38.2745   24.1431 H   0  0  0  0  0  0
  -28.2367  -19.9835   17.9624 H   0  0  0  0  0  0
  -28.9374  -18.3929   18.1171 H   0  0  0  0  0  0
  -29.9735  -19.8114   18.1723 H   0  0  0  0  0  0
  -26.6859  -19.7361   19.8822 H   0  0  0  0  0  0
  -27.2306  -19.0904   21.4221 H   0  0  0  0  0  0
  -27.1783  -18.0597   19.9991 H   0  0  0  0  0  0
  -26.9738  -21.7000   18.4510 H   0  0  0  0  0  0
  -26.5117  -23.3447   18.7820 H   0  0  0  0  0  0
  -26.2759  -22.1156   20.0153 H   0  0  0  0  0  0
  -29.4091  -22.1909   17.9635 H   0  0  0  0  0  0
  -30.2812  -23.3622   18.9492 H   0  0  0  0  0  0
  -28.8897  -23.8674   17.9946 H   0  0  0  0  0  0
  -30.0230  -21.3760   20.6211 H   0  0  0  0  0  0
  -28.5801  -21.2143   21.5128 H   0  0  0  0  0  0
  -29.9117  -18.2024   21.6429 H   0  0  0  0  0  0
  -30.8417  -18.2593   20.2031 H   0  0  0  0  0  0
  -28.7983  -24.3139   21.4193 H   0  0  0  0  0  0
  -27.1369  -24.2889   21.0517 H   0  0  0  0  0  0
  -28.6315  -16.2017   20.4497 H   0  0  0  0  0  0
  1 25  1  0  0  0
  1 30  2  0  0  0
  1 80  1  0  0  0
  2  3  1  0  0  0
  2 25  1  0  0  0
  2 81  1  0  0  0
  2 82  1  0  0  0
  3  4  1  0  0  0
  3 83  1  0  0  0
  3 84  1  0  0  0
  4  5  1  0  0  0
  4 85  1  0  0  0
  4 86  1  0  0  0
  5  6  1  0  0  0
  5 26  1  0  0  0
  5 87  1  0  0  0
  6 25  1  0  0  0
  6 88  1  0  0  0
  6 89  1  0  0  0
  7  8  2  0  0  0
  7 26  1  0  0  0
  7 29  1  0  0  0
  8  9  1  0  0  0
  8 22  1  0  0  0
  9 10  1  0  0  0
  9 27  2  0  0  0
 10 11  2  0  0  0
 10 15  1  0  0  0
 11 12  1  0  0  0
 11 90  1  0  0  0
 12 13  2  0  0  0
 12 91  1  0  0  0
 13 14  1  0  0  0
 13 31  1  0  0  0
 14 15  2  0  0  0
 14 92  1  0  0  0
 15 93  1  0  0  0
 16 17  2  0  0  0
 16 21  1  0  0  0
 16 31  1  0  0  0
 17 18  1  0  0  0
 17 94  1  0  0  0
 18 19  2  0  0  0
 18 95  1  0  0  0
 19 20  1  0  0  0
 19 24  1  0  0  0
 20 21  2  0  0  0
 20 96  1  0  0  0
 21 23  1  0  0  0
 22 28  1  0  0  0
 22 32  2  0  0  0
 26 27  1  0  0  0
 28 97  1  0  0  0
 28 98  1  0  0  0
 29 99  1  0  0  0
 29100  1  0  0  0
 33 34  1  0  0  0
 33 66  1  0  0  0
 33 70  2  0  0  0
 34 36  1  0  0  0
 34 59  1  0  0  0
 34101  1  0  0  0
 35 44  2  0  0  0
 35 45  1  0  0  0
 35 68  1  0  0  0
 36 56  1  0  0  0
 36102  1  0  0  0
 37 39  1  0  0  0
 37 47  1  0  0  0
 37 66  1  0  0  0
 37103  1  0  0  0
 38 43  2  0  0  0
 38 46  1  0  0  0
 38 47  1  0  0  0
 39 64  1  0  0  0
 39 67  2  0  0  0
 40 52  1  0  0  0
 40 53  2  0  0  0
 40 58  1  0  0  0
 41104  1  0  0  0
 41105  1  0  0  0
 41106  1  0  0  0
 41 48  1  0  0  0
 42 43  1  0  0  0
 42 66  1  0  0  0
 42107  1  0  0  0
 42108  1  0  0  0
 43 44  1  0  0  0
 44109  1  0  0  0
 45 46  2  0  0  0
 45110  1  0  0  0
 46111  1  0  0  0
 47112  1  0  0  0
 47113  1  0  0  0
 48 56  1  0  0  0
 48 65  1  0  0  0
 48114  1  0  0  0
 49 50  1  0  0  0
 49 53  1  0  0  0
 49 64  1  0  0  0
 49115  1  0  0  0
 50 51  1  0  0  0
 50116  1  0  0  0
 50117  1  0  0  0
 51 52  1  0  0  0
 51118  1  0  0  0
 51119  1  0  0  0
 52120  1  0  0  0
 52121  1  0  0  0
 53 54  1  0  0  0
 54 55  2  0  0  0
 54122  1  0  0  0
 55 57  1  0  0  0
 55123  1  0  0  0
 56 69  2  0  0  0
 57 58  2  0  0  0
 57124  1  0  0  0
 58125  1  0  0  0
 59 60  1  0  0  0
 59 61  1  0  0  0
 59 62  1  0  0  0
 60126  1  0  0  0
 60127  1  0  0  0
 60128  1  0  0  0
 61129  1  0  0  0
 61130  1  0  0  0
 61131  1  0  0  0
 62132  1  0  0  0
 62133  1  0  0  0
 62134  1  0  0  0
 63 65  1  0  0  0
 63135  1  0  0  0
 63136  1  0  0  0
 63137  1  0  0  0
 64138  1  0  0  0
 65139  1  0  0  0
 68 77  1  0  0  0
 71140  1  0  0  0
 71141  1  0  0  0
 71142  1  0  0  0
 71 78  1  0  0  0
 72 78  1  0  0  0
 72143  1  0  0  0
 72144  1  0  0  0
 72145  1  0  0  0
 73146  1  0  0  0
 73147  1  0  0  0
 73148  1  0  0  0
 73 79  1  0  0  0
 74 79  1  0  0  0
 74149  1  0  0  0
 74150  1  0  0  0
 74151  1  0  0  0
 75 78  1  0  0  0
 75 79  1  0  0  0
 75152  1  0  0  0
 75153  1  0  0  0
 76 78  1  0  0  0
 76 80  1  0  0  0
 76154  1  0  0  0
 76155  1  0  0  0
 77 79  1  0  0  0
 77156  1  0  0  0
 77157  1  0  0  0
 80158  1  0  0  0
M  ISO  4   1 100  68 101  77 101  80 100
M  END
> <chiral flag>
0

> <version>
0

> <s_m_source_file>
/data/baiqing/PycharmProjects/Reinvent-master-3.2/result/LINK_invent/BTK/process_docking_weight1_custom_sum_contain_oxygen_bond_distance_aromatic_linkinvent_7_9_3/rearranged_h_0079.sdf

> <i_m_source_file_index>
57

> <r_mmod_Potential_Energy-OPLS-2005>
1179.4892578125

> <r_mmod_Stretch_Energy-OPLS-2005>
576.062438964844

> <r_mmod_Bend_Energy-OPLS-2005>
439.512268066406

> <r_mmod_Torsional_Energy-OPLS-2005>
265.815155029297

> <r_mmod_Improper_Torsional_Energy-OPLS-2005>
4.33529853820801

> <r_mmod_Van_der_Waal_Energy-OPLS-2005>
101.812713623047

> <r_mmod_Electrostatic_Energy-OPLS-2005>
-402.225433349609

> <r_mmod_Solvation_Energy-OPLS-2005>
-196.682861328125

> <b_mmod_Minimization_Converged-OPLS-2005>
0

> <r_mmod_RMS_Derivative-OPLS-2005>
4.47441864013672

$$$$
57
                    3D
 Structure written by MMmdl.
161169  0  0  1  0            999 V2000
  -30.6931  -14.5109   20.5526 C   0  0  0  0  0  0
  -30.4230  -12.3258   19.4333 C   0  0  0  0  0  0
  -29.4965  -12.5025   18.2123 C   0  0  0  0  0  0
  -28.0188  -12.3574   18.6254 C   0  0  0  0  0  0
  -27.6586  -13.2106   19.8712 C   0  0  2  0  0  0
  -28.7010  -13.0216   20.9966 C   0  0  0  0  0  0
  -25.2575  -13.8165   20.5680 C   0  0  0  0  0  0
  -24.1833  -13.0439   20.9180 C   0  0  0  0  0  0
  -24.6393  -11.6907   20.8738 C   0  0  0  0  0  0
  -23.9060  -10.4292   21.0406 C   0  0  0  0  0  0
  -24.3614   -9.4208   21.9183 C   0  0  0  0  0  0
  -23.6291   -8.2243   22.0753 C   0  0  0  0  0  0
  -22.4274   -8.0280   21.3544 C   0  0  0  0  0  0
  -21.9907   -9.0253   20.4648 C   0  0  0  0  0  0
  -22.7232  -10.2134   20.3057 C   0  0  0  0  0  0
  -21.6852   -6.0735   22.5279 C   0  0  0  0  0  0
  -21.4014   -6.5639   23.8213 C   0  0  0  0  0  0
  -21.3660   -5.6792   24.9174 C   0  0  0  0  0  0
  -21.6045   -4.3055   24.7225 C   0  0  0  0  0  0
  -21.8820   -3.8147   23.4346 C   0  0  0  0  0  0
  -21.9192   -4.6963   22.3403 C   0  0  0  0  0  0
  -22.7856  -13.5237   21.1846 C   0  0  0  0  0  0
  -22.1662   -4.2150   21.0980 F   0  0  0  0  0  0
  -21.5632   -3.4539   25.7737 F   0  0  0  0  0  0
  -30.0277  -13.3272   20.4383 N   0  0  0  0  0  0
  -26.3011  -12.9342   20.3353 N   0  0  0  0  0  0
  -25.9322  -11.6500   20.5770 N   0  0  0  0  0  0
  -22.0500  -12.8230   22.0405 N   0  0  0  0  0  0
  -25.4296  -15.1882   20.4087 N   0  0  0  0  0  0
  -31.8311  -14.6735   20.1059 O   0  0  0  0  0  0
  -21.6638   -6.8876   21.4241 O   0  0  0  0  0  0
  -22.3544  -14.5548   20.6699 O   0  0  0  0  0  0
  -24.6172  -31.8663   23.2082 C   0  0  0  0  0  0
  -25.9055  -32.4815   23.8387 C   0  0  1  0  0  0
  -27.2291  -27.4071   20.1079 C   0  0  0  0  0  0
  -25.5903  -33.8614   24.2317 N   0  0  0  0  0  0
  -23.4072  -30.4897   21.5488 C   0  0  2  0  0  0
  -24.8555  -28.9546   20.1120 C   0  0  0  0  0  0
  -22.7428  -29.4651   22.4972 C   0  0  0  0  0  0
  -18.0277  -28.1377   22.8490 C   0  0  0  0  0  0
  -24.1489  -36.7312   23.2637 C   0  0  0  0  0  0
  -25.9394  -30.8246   21.3660 C   0  0  0  0  0  0
  -26.0181  -29.4580   20.7108 C   0  0  0  0  0  0
  -27.2120  -28.6934   20.7022 C   0  0  0  0  0  0
  -26.0535  -26.9313   19.4900 C   0  0  0  0  0  0
  -24.8697  -27.6919   19.4952 C   0  0  0  0  0  0
  -23.6177  -29.8232   20.1633 C   0  0  0  0  0  0
  -25.4110  -36.3108   24.0335 C   0  0  1  0  0  0
  -20.5870  -28.3670   23.1307 C   0  0  2  0  0  0
  -20.6769  -26.9403   22.5414 C   0  0  0  0  0  0
  -19.5749  -26.6383   21.5211 C   0  0  0  0  0  0
  -18.1927  -26.7923   22.1621 C   0  0  0  0  0  0
  -19.1527  -28.8839   23.2896 C   0  0  0  0  0  0
  -18.9454  -30.1444   23.8909 C   0  0  0  0  0  0
  -17.6457  -30.6584   24.0564 C   0  0  0  0  0  0
  -25.9039  -34.9473   23.5124 C   0  0  0  0  0  0
  -16.5348  -29.9086   23.6324 C   0  0  0  0  0  0
  -16.7266  -28.6501   23.0348 C   0  0  0  0  0  0
  -26.4473  -31.6599   25.0722 C   0  0  0  0  0  0
  -25.3733  -31.3716   26.1467 C   0  0  0  0  0  0
  -27.0304  -30.3036   24.6113 C   0  0  0  0  0  0
  -27.6047  -32.4321   25.7485 C   0  0  0  0  0  0
  -27.5583  -37.1810   24.8464 C   0  0  0  0  0  0
  -21.4151  -29.3035   22.3711 N   0  0  0  0  0  0
  -26.4296  -37.3792   23.9408 N   0  0  0  0  0  0
  -24.6729  -31.0745   22.0992 N   0  0  0  0  0  0
  -23.4187  -28.8193   23.3025 O   0  0  0  0  0  0
  -28.3542  -26.6029   20.1298 O   0  0  0  0  0  0
  -26.5601  -34.8927   22.4686 O   0  0  0  0  0  0
  -23.5358  -32.1422   23.7461 O   0  0  0  0  0  0
  -29.2158  -20.5312   20.1822 C   0  0  0  0  0  0
  -29.6815  -21.8097   19.7653 C   0  0  0  0  0  0
  -30.9824  -21.8662   19.1984 C   0  0  0  0  0  0
  -30.0276  -19.3785   20.0166 C   0  0  0  0  0  0
  -31.7433  -20.6742   19.1221 C   0  0  0  0  0  0
  -31.5580  -23.1665   18.6436 C   0  0  0  0  0  0
  -33.1584  -20.6519   18.5719 C   0  0  0  0  0  0
  -28.7527  -23.0475   19.8307 C   0  0  0  0  0  0
  -29.5052  -17.9378   20.2198 C   0  0  0  0  0  0
  -29.2374  -24.2646   20.6806 C   0  0  0  0  0  0
  -30.4021  -16.9803   21.0704 C   0  0  0  0  0  0
  -28.1829  -25.3911   20.9051 C   0  0  0  0  0  0
  -31.2683  -19.4707   19.4988 N   0  0  0  0  0  0
  -29.9800  -15.5538   21.0357 N   0  0  0  0  0  0
  -31.4679  -12.4230   19.1331 H   0  0  0  0  0  0
  -30.3259  -11.3209   19.8472 H   0  0  0  0  0  0
  -29.7427  -11.7694   17.4429 H   0  0  0  0  0  0
  -29.6584  -13.4838   17.7634 H   0  0  0  0  0  0
  -27.8382  -11.3025   18.8358 H   0  0  0  0  0  0
  -27.3664  -12.6154   17.7905 H   0  0  0  0  0  0
  -27.6942  -14.2538   19.5565 H   0  0  0  0  0  0
  -28.6846  -11.9943   21.3635 H   0  0  0  0  0  0
  -28.4621  -13.6452   21.8592 H   0  0  0  0  0  0
  -25.2761   -9.5685   22.4752 H   0  0  0  0  0  0
  -24.0004   -7.4635   22.7469 H   0  0  0  0  0  0
  -21.0840   -8.8772   19.8952 H   0  0  0  0  0  0
  -22.3691  -10.9673   19.6166 H   0  0  0  0  0  0
  -21.2004   -7.6147   23.9716 H   0  0  0  0  0  0
  -21.1484   -6.0522   25.9078 H   0  0  0  0  0  0
  -22.0598   -2.7609   23.2845 H   0  0  0  0  0  0
  -22.4116  -11.9891   22.4792 H   0  0  0  0  0  0
  -21.1122  -13.1259   22.2621 H   0  0  0  0  0  0
  -24.6624  -15.8434   20.5127 H   0  0  0  0  0  0
  -26.2813  -15.6253   20.0804 H   0  0  0  0  0  0
  -26.7126  -32.5521   23.1151 H   0  0  0  0  0  0
  -25.0062  -33.9776   25.0467 H   0  0  0  0  0  0
  -22.6967  -31.3071   21.4086 H   0  0  0  0  0  0
  -23.3749  -35.9647   23.3308 H   0  0  0  0  0  0
  -24.3583  -36.8919   22.2050 H   0  0  0  0  0  0
  -23.7244  -37.6520   23.6647 H   0  0  0  0  0  0
  -26.0568  -31.5913   20.5989 H   0  0  0  0  0  0
  -26.8250  -30.8761   21.9876 H   0  0  0  0  0  0
  -28.1079  -29.0735   21.1731 H   0  0  0  0  0  0
  -26.0492  -25.9615   19.0124 H   0  0  0  0  0  0
  -23.9780  -27.3001   19.0253 H   0  0  0  0  0  0
  -23.7267  -30.5989   19.4045 H   0  0  0  0  0  0
  -22.7413  -29.2443   19.8663 H   0  0  0  0  0  0
  -25.1288  -36.1973   25.0829 H   0  0  0  0  0  0
  -20.9963  -28.3238   24.1428 H   0  0  0  0  0  0
  -20.5674  -26.2278   23.3603 H   0  0  0  0  0  0
  -21.6640  -26.7446   22.1206 H   0  0  0  0  0  0
  -19.6914  -25.6297   21.1235 H   0  0  0  0  0  0
  -19.6690  -27.3197   20.6744 H   0  0  0  0  0  0
  -17.4198  -26.6669   21.4022 H   0  0  0  0  0  0
  -18.0330  -26.0061   22.9014 H   0  0  0  0  0  0
  -19.7932  -30.7252   24.2288 H   0  0  0  0  0  0
  -17.5015  -31.6267   24.5160 H   0  0  0  0  0  0
  -15.5350  -30.2994   23.7641 H   0  0  0  0  0  0
  -15.8664  -28.0825   22.7058 H   0  0  0  0  0  0
  -24.5896  -30.7076   25.7801 H   0  0  0  0  0  0
  -24.8937  -32.2879   26.4921 H   0  0  0  0  0  0
  -25.8077  -30.8874   27.0222 H   0  0  0  0  0  0
  -26.2854  -29.6803   24.1154 H   0  0  0  0  0  0
  -27.4052  -29.7269   25.4579 H   0  0  0  0  0  0
  -27.8701  -30.4348   23.9282 H   0  0  0  0  0  0
  -27.2662  -33.3606   26.2095 H   0  0  0  0  0  0
  -28.3838  -32.6908   25.0302 H   0  0  0  0  0  0
  -28.0738  -31.8428   26.5374 H   0  0  0  0  0  0
  -28.2604  -38.0104   24.7512 H   0  0  0  0  0  0
  -28.1076  -36.2637   24.6288 H   0  0  0  0  0  0
  -27.2303  -37.1458   25.8867 H   0  0  0  0  0  0
  -20.9312  -29.8758   21.6932 H   0  0  0  0  0  0
  -26.0187  -38.2872   24.1406 H   0  0  0  0  0  0
  -28.2109  -20.4220   20.5680 H   0  0  0  0  0  0
  -30.7832  -23.8300   18.2622 H   0  0  0  0  0  0
  -32.2299  -22.9887   17.8046 H   0  0  0  0  0  0
  -32.1198  -23.6927   19.4159 H   0  0  0  0  0  0
  -33.7677  -21.4241   19.0419 H   0  0  0  0  0  0
  -33.1526  -20.8215   17.4952 H   0  0  0  0  0  0
  -33.6451  -19.6932   18.7547 H   0  0  0  0  0  0
  -27.7903  -22.7177   20.2235 H   0  0  0  0  0  0
  -28.5448  -23.3777   18.8126 H   0  0  0  0  0  0
  -29.3672  -17.5081   19.2270 H   0  0  0  0  0  0
  -28.5099  -17.9860   20.6625 H   0  0  0  0  0  0
  -30.1507  -24.7052   20.2885 H   0  0  0  0  0  0
  -29.5075  -23.8708   21.6610 H   0  0  0  0  0  0
  -30.4099  -17.3197   22.1064 H   0  0  0  0  0  0
  -31.4339  -17.0665   20.7268 H   0  0  0  0  0  0
  -28.2406  -25.6982   21.9506 H   0  0  0  0  0  0
  -27.1851  -24.9654   20.7936 H   0  0  0  0  0  0
  -29.0513  -15.3407   21.3688 H   0  0  0  0  0  0
  1 25  1  0  0  0
  1 30  2  0  0  0
  1 84  1  0  0  0
  2  3  1  0  0  0
  2 25  1  0  0  0
  2 85  1  0  0  0
  2 86  1  0  0  0
  3  4  1  0  0  0
  3 87  1  0  0  0
  3 88  1  0  0  0
  4  5  1  0  0  0
  4 89  1  0  0  0
  4 90  1  0  0  0
  5  6  1  0  0  0
  5 26  1  0  0  0
  5 91  1  0  0  0
  6 25  1  0  0  0
  6 92  1  0  0  0
  6 93  1  0  0  0
  7  8  2  0  0  0
  7 26  1  0  0  0
  7 29  1  0  0  0
  8  9  1  0  0  0
  8 22  1  0  0  0
  9 10  1  0  0  0
  9 27  2  0  0  0
 10 11  2  0  0  0
 10 15  1  0  0  0
 11 12  1  0  0  0
 11 94  1  0  0  0
 12 13  2  0  0  0
 12 95  1  0  0  0
 13 14  1  0  0  0
 13 31  1  0  0  0
 14 15  2  0  0  0
 14 96  1  0  0  0
 15 97  1  0  0  0
 16 17  2  0  0  0
 16 21  1  0  0  0
 16 31  1  0  0  0
 17 18  1  0  0  0
 17 98  1  0  0  0
 18 19  2  0  0  0
 18 99  1  0  0  0
 19 20  1  0  0  0
 19 24  1  0  0  0
 20 21  2  0  0  0
 20100  1  0  0  0
 21 23  1  0  0  0
 22 28  1  0  0  0
 22 32  2  0  0  0
 26 27  1  0  0  0
 28101  1  0  0  0
 28102  1  0  0  0
 29103  1  0  0  0
 29104  1  0  0  0
 33 34  1  0  0  0
 33 66  1  0  0  0
 33 70  2  0  0  0
 34 36  1  0  0  0
 34 59  1  0  0  0
 34105  1  0  0  0
 35 44  2  0  0  0
 35 45  1  0  0  0
 35 68  1  0  0  0
 36 56  1  0  0  0
 36106  1  0  0  0
 37 39  1  0  0  0
 37 47  1  0  0  0
 37 66  1  0  0  0
 37107  1  0  0  0
 38 43  2  0  0  0
 38 46  1  0  0  0
 38 47  1  0  0  0
 39 64  1  0  0  0
 39 67  2  0  0  0
 40 52  1  0  0  0
 40 53  2  0  0  0
 40 58  1  0  0  0
 41108  1  0  0  0
 41109  1  0  0  0
 41110  1  0  0  0
 41 48  1  0  0  0
 42 43  1  0  0  0
 42 66  1  0  0  0
 42111  1  0  0  0
 42112  1  0  0  0
 43 44  1  0  0  0
 44113  1  0  0  0
 45 46  2  0  0  0
 45114  1  0  0  0
 46115  1  0  0  0
 47116  1  0  0  0
 47117  1  0  0  0
 48 56  1  0  0  0
 48 65  1  0  0  0
 48118  1  0  0  0
 49 50  1  0  0  0
 49 53  1  0  0  0
 49 64  1  0  0  0
 49119  1  0  0  0
 50 51  1  0  0  0
 50120  1  0  0  0
 50121  1  0  0  0
 51 52  1  0  0  0
 51122  1  0  0  0
 51123  1  0  0  0
 52124  1  0  0  0
 52125  1  0  0  0
 53 54  1  0  0  0
 54 55  2  0  0  0
 54126  1  0  0  0
 55 57  1  0  0  0
 55127  1  0  0  0
 56 69  2  0  0  0
 57 58  2  0  0  0
 57128  1  0  0  0
 58129  1  0  0  0
 59 60  1  0  0  0
 59 61  1  0  0  0
 59 62  1  0  0  0
 60130  1  0  0  0
 60131  1  0  0  0
 60132  1  0  0  0
 61133  1  0  0  0
 61134  1  0  0  0
 61135  1  0  0  0
 62136  1  0  0  0
 62137  1  0  0  0
 62138  1  0  0  0
 63 65  1  0  0  0
 63139  1  0  0  0
 63140  1  0  0  0
 63141  1  0  0  0
 64142  1  0  0  0
 65143  1  0  0  0
 68 82  1  0  0  0
 71 72  2  0  0  0
 71 74  1  0  0  0
 71144  1  0  0  0
 72 73  1  0  0  0
 72 78  1  0  0  0
 73 75  2  0  0  0
 73 76  1  0  0  0
 74 79  1  0  0  0
 74 83  2  0  0  0
 75 77  1  0  0  0
 75 83  1  0  0  0
 76145  1  0  0  0
 76146  1  0  0  0
 76147  1  0  0  0
 77148  1  0  0  0
 77149  1  0  0  0
 77150  1  0  0  0
 78 80  1  0  0  0
 78151  1  0  0  0
 78152  1  0  0  0
 79 81  1  0  0  0
 79153  1  0  0  0
 79154  1  0  0  0
 80 82  1  0  0  0
 80155  1  0  0  0
 80156  1  0  0  0
 81 84  1  0  0  0
 81157  1  0  0  0
 81158  1  0  0  0
 82159  1  0  0  0
 82160  1  0  0  0
 84161  1  0  0  0
M  ISO  4   1 100  68 101  82 101  84 100
M  END
> <chiral flag>
0

> <version>
0

> <s_m_source_file>
/data/baiqing/PycharmProjects/Reinvent-master-3.2/result/LINK_invent/BTK/process_docking_weight1_custom_sum_contain_oxygen_bond_distance_aromatic_linkinvent_7_9_3/rearranged_h_0079.sdf

> <i_m_source_file_index>
58

> <r_mmod_Potential_Energy-OPLS-2005>
-214.171081542969

> <r_mmod_Stretch_Energy-OPLS-2005>
46.6032371520996

> <r_mmod_Bend_Energy-OPLS-2005>
100.961730957031

> <r_mmod_Torsional_Energy-OPLS-2005>
222.687194824219

> <r_mmod_Improper_Torsional_Energy-OPLS-2005>
4.53346395492554

> <r_mmod_Van_der_Waal_Energy-OPLS-2005>
156.217895507812

> <r_mmod_Electrostatic_Energy-OPLS-2005>
-535.457824707031

> <r_mmod_Solvation_Energy-OPLS-2005>
-228.933059692383

> <b_mmod_Minimization_Converged-OPLS-2005>
0

> <r_mmod_RMS_Derivative-OPLS-2005>
0.312020242214203

$$$$
58
                    3D
 Structure written by MMmdl.
161169  0  0  1  0            999 V2000
  -30.5502  -14.9666   20.3952 C   0  0  0  0  0  0
  -30.4352  -12.5970   19.5007 C   0  0  0  0  0  0
  -29.5203  -12.5338   18.2572 C   0  0  0  0  0  0
  -28.0496  -12.3339   18.6685 C   0  0  0  0  0  0
  -27.6269  -13.2603   19.8400 C   0  0  2  0  0  0
  -28.6727  -13.2963   20.9752 C   0  0  0  0  0  0
  -25.2433  -13.8230   20.5748 C   0  0  0  0  0  0
  -24.1771  -13.0432   20.9238 C   0  0  0  0  0  0
  -24.6396  -11.6923   20.8750 C   0  0  0  0  0  0
  -23.9081  -10.4286   21.0410 C   0  0  0  0  0  0
  -24.3621   -9.4197   21.9184 C   0  0  0  0  0  0
  -23.6288   -8.2235   22.0762 C   0  0  0  0  0  0
  -22.4273   -8.0271   21.3559 C   0  0  0  0  0  0
  -21.9913   -9.0240   20.4663 C   0  0  0  0  0  0
  -22.7244  -10.2120   20.3067 C   0  0  0  0  0  0
  -21.6841   -6.0719   22.5273 C   0  0  0  0  0  0
  -21.4016   -6.5634   23.8200 C   0  0  0  0  0  0
  -21.3670   -5.6790   24.9169 C   0  0  0  0  0  0
  -21.6054   -4.3054   24.7226 C   0  0  0  0  0  0
  -21.8824   -3.8134   23.4350 C   0  0  0  0  0  0
  -21.9186   -4.6951   22.3403 C   0  0  0  0  0  0
  -22.7787  -13.5188   21.1873 C   0  0  0  0  0  0
  -22.1667   -4.2139   21.0983 F   0  0  0  0  0  0
  -21.5630   -3.4534   25.7740 F   0  0  0  0  0  0
  -29.9455  -13.7082   20.3700 N   0  0  0  0  0  0
  -26.2882  -12.9491   20.3280 N   0  0  0  0  0  0
  -25.9334  -11.6604   20.5729 N   0  0  0  0  0  0
  -22.0451  -12.8174   22.0438 N   0  0  0  0  0  0
  -25.4055  -15.1966   20.4198 N   0  0  0  0  0  0
  -31.7545  -15.0082   20.1236 O   0  0  0  0  0  0
  -21.6642   -6.8869   21.4237 O   0  0  0  0  0  0
  -22.3474  -14.5484   20.6694 O   0  0  0  0  0  0
  -24.6452  -31.8396   23.1875 C   0  0  0  0  0  0
  -25.9206  -32.4669   23.8274 C   0  0  1  0  0  0
  -27.2174  -27.1124   20.1454 C   0  0  0  0  0  0
  -25.5937  -33.8481   24.2174 N   0  0  0  0  0  0
  -23.4507  -30.4575   21.5326 C   0  0  2  0  0  0
  -24.9022  -28.8845   20.1075 C   0  0  0  0  0  0
  -22.7579  -29.4508   22.4859 C   0  0  0  0  0  0
  -18.0305  -28.1392   22.8468 C   0  0  0  0  0  0
  -24.1482  -36.7256   23.2638 C   0  0  0  0  0  0
  -26.0094  -30.7031   21.3942 C   0  0  0  0  0  0
  -26.0799  -29.3144   20.7322 C   0  0  0  0  0  0
  -27.2371  -28.4436   20.7359 C   0  0  0  0  0  0
  -26.0173  -26.8009   19.4666 C   0  0  0  0  0  0
  -24.8858  -27.6435   19.4568 C   0  0  0  0  0  0
  -23.6788  -29.7863   20.1524 C   0  0  0  0  0  0
  -25.4116  -36.3024   24.0312 C   0  0  1  0  0  0
  -20.5914  -28.3709   23.1234 C   0  0  2  0  0  0
  -20.6778  -26.9411   22.5396 C   0  0  0  0  0  0
  -19.5760  -26.6370   21.5195 C   0  0  0  0  0  0
  -18.1946  -26.7931   22.1610 C   0  0  0  0  0  0
  -19.1557  -28.8877   23.2840 C   0  0  0  0  0  0
  -18.9465  -30.1479   23.8866 C   0  0  0  0  0  0
  -17.6458  -30.6589   24.0556 C   0  0  0  0  0  0
  -25.9072  -34.9401   23.5060 C   0  0  0  0  0  0
  -16.5357  -29.9076   23.6341 C   0  0  0  0  0  0
  -16.7288  -28.6492   23.0368 C   0  0  0  0  0  0
  -26.4520  -31.6567   25.0747 C   0  0  0  0  0  0
  -25.3692  -31.3763   26.1433 C   0  0  0  0  0  0
  -27.0388  -30.2954   24.6378 C   0  0  0  0  0  0
  -27.6041  -32.4354   25.7532 C   0  0  0  0  0  0
  -27.5582  -37.1780   24.8465 C   0  0  0  0  0  0
  -21.4267  -29.3029   22.3607 N   0  0  0  0  0  0
  -26.4287  -37.3733   23.9414 N   0  0  0  0  0  0
  -24.7212  -31.0229   22.0927 N   0  0  0  0  0  0
  -23.4215  -28.8054   23.3015 O   0  0  0  0  0  0
  -28.2524  -26.0994   20.2316 O   0  0  0  0  0  0
  -26.5662  -34.8894   22.4645 O   0  0  0  0  0  0
  -23.5563  -32.1287   23.7073 O   0  0  0  0  0  0
  -30.1490  -22.8154   18.6172 C   0  0  0  0  0  0
  -30.9945  -22.2569   17.6489 C   0  0  0  0  0  0
  -29.4926  -22.0513   19.6124 C   0  0  0  0  0  0
  -31.2179  -20.8760   17.7017 C   0  0  0  0  0  0
  -29.7972  -20.5524   19.5872 C   0  0  0  0  0  0
  -32.1454  -20.1441   16.7442 C   0  0  0  0  0  0
  -33.0751  -23.4896   16.7917 C   0  0  0  0  0  0
  -31.5927  -23.1556   16.5710 C   0  0  0  0  0  0
  -28.6170  -23.1021   20.5179 C   0  0  0  0  0  0
  -29.3567  -19.1621   20.3741 C   0  0  0  0  0  0
  -30.1856  -17.6776   20.0988 C   0  0  0  0  0  0
  -27.9503  -24.5833   19.9683 C   0  0  0  0  0  0
  -30.6376  -20.0994   18.6274 N   0  0  0  0  0  0
  -29.8006  -16.1798   20.4921 N   0  0  0  0  0  0
  -31.4700  -12.7455   19.1895 H   0  0  0  0  0  0
  -30.4222  -11.6471   20.0364 H   0  0  0  0  0  0
  -29.8368  -11.7275   17.5940 H   0  0  0  0  0  0
  -29.6233  -13.4582   17.6864 H   0  0  0  0  0  0
  -27.9326  -11.2912   18.9647 H   0  0  0  0  0  0
  -27.3938  -12.4836   17.8091 H   0  0  0  0  0  0
  -27.5837  -14.2644   19.4169 H   0  0  0  0  0  0
  -28.7617  -12.3207   21.4553 H   0  0  0  0  0  0
  -28.3795  -14.0035   21.7524 H   0  0  0  0  0  0
  -25.2758   -9.5661   22.4768 H   0  0  0  0  0  0
  -23.9990   -7.4630   22.7476 H   0  0  0  0  0  0
  -21.0857   -8.8740   19.8962 H   0  0  0  0  0  0
  -22.3691  -10.9649   19.6180 H   0  0  0  0  0  0
  -21.2006   -7.6137   23.9698 H   0  0  0  0  0  0
  -21.1504   -6.0526   25.9067 H   0  0  0  0  0  0
  -22.0595   -2.7595   23.2845 H   0  0  0  0  0  0
  -22.4060  -11.9844   22.4849 H   0  0  0  0  0  0
  -21.1068  -13.1201   22.2636 H   0  0  0  0  0  0
  -24.6290  -15.8402   20.5276 H   0  0  0  0  0  0
  -26.2433  -15.6425   20.0693 H   0  0  0  0  0  0
  -26.7272  -32.5250   23.0995 H   0  0  0  0  0  0
  -25.0047  -33.9584   25.0296 H   0  0  0  0  0  0
  -22.7546  -31.2833   21.3757 H   0  0  0  0  0  0
  -23.3748  -35.9582   23.3279 H   0  0  0  0  0  0
  -24.3558  -36.8918   22.2056 H   0  0  0  0  0  0
  -23.7231  -37.6440   23.6697 H   0  0  0  0  0  0
  -26.1737  -31.4571   20.6232 H   0  0  0  0  0  0
  -26.8763  -30.7473   22.0422 H   0  0  0  0  0  0
  -28.1310  -28.7646   21.2529 H   0  0  0  0  0  0
  -25.9134  -25.8585   18.9522 H   0  0  0  0  0  0
  -23.9903  -27.3158   18.9461 H   0  0  0  0  0  0
  -23.8152  -30.5587   19.3956 H   0  0  0  0  0  0
  -22.7955  -29.2244   19.8429 H   0  0  0  0  0  0
  -25.1302  -36.1847   25.0803 H   0  0  0  0  0  0
  -20.9996  -28.3274   24.1358 H   0  0  0  0  0  0
  -20.5643  -26.2313   23.3600 H   0  0  0  0  0  0
  -21.6647  -26.7397   22.1208 H   0  0  0  0  0  0
  -19.6921  -25.6264   21.1264 H   0  0  0  0  0  0
  -19.6726  -27.3142   20.6694 H   0  0  0  0  0  0
  -17.4208  -26.6666   21.4026 H   0  0  0  0  0  0
  -18.0378  -26.0082   22.9019 H   0  0  0  0  0  0
  -19.7941  -30.7309   24.2221 H   0  0  0  0  0  0
  -17.5010  -31.6271   24.5146 H   0  0  0  0  0  0
  -15.5359  -30.2966   23.7686 H   0  0  0  0  0  0
  -15.8685  -28.0798   22.7118 H   0  0  0  0  0  0
  -24.5873  -30.7115   25.7742 H   0  0  0  0  0  0
  -24.8875  -32.2944   26.4813 H   0  0  0  0  0  0
  -25.7956  -30.8958   27.0248 H   0  0  0  0  0  0
  -26.3023  -29.6675   24.1355 H   0  0  0  0  0  0
  -27.3926  -29.7272   25.4992 H   0  0  0  0  0  0
  -27.8968  -30.4162   23.9760 H   0  0  0  0  0  0
  -27.2622  -33.3669   26.2057 H   0  0  0  0  0  0
  -28.3875  -32.6899   25.0383 H   0  0  0  0  0  0
  -28.0693  -31.8529   26.5492 H   0  0  0  0  0  0
  -28.2573  -38.0099   24.7518 H   0  0  0  0  0  0
  -28.1109  -36.2631   24.6284 H   0  0  0  0  0  0
  -27.2311  -37.1417   25.8869 H   0  0  0  0  0  0
  -20.9491  -29.8740   21.6776 H   0  0  0  0  0  0
  -26.0158  -38.2804   24.1409 H   0  0  0  0  0  0
  -30.0050  -23.8853   18.5797 H   0  0  0  0  0  0
  -33.1277  -20.0235   17.2042 H   0  0  0  0  0  0
  -32.2836  -20.6664   15.7990 H   0  0  0  0  0  0
  -31.7594  -19.1510   16.5082 H   0  0  0  0  0  0
  -33.4474  -24.1410   15.9994 H   0  0  0  0  0  0
  -33.6975  -22.5950   16.7877 H   0  0  0  0  0  0
  -33.2317  -24.0083   17.7373 H   0  0  0  0  0  0
  -31.0200  -24.0831   16.5283 H   0  0  0  0  0  0
  -31.4553  -22.6975   15.5909 H   0  0  0  0  0  0
  -29.1917  -23.3158   21.4189 H   0  0  0  0  0  0
  -27.7761  -22.5039   20.8708 H   0  0  0  0  0  0
  -28.3025  -19.0076   20.1447 H   0  0  0  0  0  0
  -29.3943  -19.3813   21.4415 H   0  0  0  0  0  0
  -31.2056  -17.8259   20.4549 H   0  0  0  0  0  0
  -30.2874  -17.5967   19.0162 H   0  0  0  0  0  0
  -26.9450  -24.4972   20.3784 H   0  0  0  0  0  0
  -27.7959  -24.4840   18.8936 H   0  0  0  0  0  0
  -28.8225  -16.0379   20.6968 H   0  0  0  0  0  0
  1 25  1  0  0  0
  1 30  2  0  0  0
  1 84  1  0  0  0
  2  3  1  0  0  0
  2 25  1  0  0  0
  2 85  1  0  0  0
  2 86  1  0  0  0
  3  4  1  0  0  0
  3 87  1  0  0  0
  3 88  1  0  0  0
  4  5  1  0  0  0
  4 89  1  0  0  0
  4 90  1  0  0  0
  5  6  1  0  0  0
  5 26  1  0  0  0
  5 91  1  0  0  0
  6 25  1  0  0  0
  6 92  1  0  0  0
  6 93  1  0  0  0
  7  8  2  0  0  0
  7 26  1  0  0  0
  7 29  1  0  0  0
  8  9  1  0  0  0
  8 22  1  0  0  0
  9 10  1  0  0  0
  9 27  2  0  0  0
 10 11  2  0  0  0
 10 15  1  0  0  0
 11 12  1  0  0  0
 11 94  1  0  0  0
 12 13  2  0  0  0
 12 95  1  0  0  0
 13 14  1  0  0  0
 13 31  1  0  0  0
 14 15  2  0  0  0
 14 96  1  0  0  0
 15 97  1  0  0  0
 16 17  2  0  0  0
 16 21  1  0  0  0
 16 31  1  0  0  0
 17 18  1  0  0  0
 17 98  1  0  0  0
 18 19  2  0  0  0
 18 99  1  0  0  0
 19 20  1  0  0  0
 19 24  1  0  0  0
 20 21  2  0  0  0
 20100  1  0  0  0
 21 23  1  0  0  0
 22 28  1  0  0  0
 22 32  2  0  0  0
 26 27  1  0  0  0
 28101  1  0  0  0
 28102  1  0  0  0
 29103  1  0  0  0
 29104  1  0  0  0
 33 34  1  0  0  0
 33 66  1  0  0  0
 33 70  2  0  0  0
 34 36  1  0  0  0
 34 59  1  0  0  0
 34105  1  0  0  0
 35 44  2  0  0  0
 35 45  1  0  0  0
 35 68  1  0  0  0
 36 56  1  0  0  0
 36106  1  0  0  0
 37 39  1  0  0  0
 37 47  1  0  0  0
 37 66  1  0  0  0
 37107  1  0  0  0
 38 43  2  0  0  0
 38 46  1  0  0  0
 38 47  1  0  0  0
 39 64  1  0  0  0
 39 67  2  0  0  0
 40 52  1  0  0  0
 40 53  2  0  0  0
 40 58  1  0  0  0
 41108  1  0  0  0
 41109  1  0  0  0
 41110  1  0  0  0
 41 48  1  0  0  0
 42 43  1  0  0  0
 42 66  1  0  0  0
 42111  1  0  0  0
 42112  1  0  0  0
 43 44  1  0  0  0
 44113  1  0  0  0
 45 46  2  0  0  0
 45114  1  0  0  0
 46115  1  0  0  0
 47116  1  0  0  0
 47117  1  0  0  0
 48 56  1  0  0  0
 48 65  1  0  0  0
 48118  1  0  0  0
 49 50  1  0  0  0
 49 53  1  0  0  0
 49 64  1  0  0  0
 49119  1  0  0  0
 50 51  1  0  0  0
 50120  1  0  0  0
 50121  1  0  0  0
 51 52  1  0  0  0
 51122  1  0  0  0
 51123  1  0  0  0
 52124  1  0  0  0
 52125  1  0  0  0
 53 54  1  0  0  0
 54 55  2  0  0  0
 54126  1  0  0  0
 55 57  1  0  0  0
 55127  1  0  0  0
 56 69  2  0  0  0
 57 58  2  0  0  0
 57128  1  0  0  0
 58129  1  0  0  0
 59 60  1  0  0  0
 59 61  1  0  0  0
 59 62  1  0  0  0
 60130  1  0  0  0
 60131  1  0  0  0
 60132  1  0  0  0
 61133  1  0  0  0
 61134  1  0  0  0
 61135  1  0  0  0
 62136  1  0  0  0
 62137  1  0  0  0
 62138  1  0  0  0
 63 65  1  0  0  0
 63139  1  0  0  0
 63140  1  0  0  0
 63141  1  0  0  0
 64142  1  0  0  0
 65143  1  0  0  0
 68 82  1  0  0  0
 71 72  2  0  0  0
 71 73  1  0  0  0
 71144  1  0  0  0
 72 74  1  0  0  0
 72 78  1  0  0  0
 73 75  2  0  0  0
 73 79  1  0  0  0
 74 76  1  0  0  0
 74 83  2  0  0  0
 75 80  1  0  0  0
 75 83  1  0  0  0
 76145  1  0  0  0
 76146  1  0  0  0
 76147  1  0  0  0
 77 78  1  0  0  0
 77148  1  0  0  0
 77149  1  0  0  0
 77150  1  0  0  0
 78151  1  0  0  0
 78152  1  0  0  0
 79 82  1  0  0  0
 79153  1  0  0  0
 79154  1  0  0  0
 80 81  1  0  0  0
 80155  1  0  0  0
 80156  1  0  0  0
 81 84  1  0  0  0
 81157  1  0  0  0
 81158  1  0  0  0
 82159  1  0  0  0
 82160  1  0  0  0
 84161  1  0  0  0
M  ISO  4   1 100  68 101  82 101  84 100
M  END
> <chiral flag>
0

> <version>
0

> <s_m_source_file>
/data/baiqing/PycharmProjects/Reinvent-master-3.2/result/LINK_invent/BTK/process_docking_weight1_custom_sum_contain_oxygen_bond_distance_aromatic_linkinvent_7_9_3/rearranged_h_0079.sdf

> <i_m_source_file_index>
59

> <r_mmod_Potential_Energy-OPLS-2005>
513.830871582031

> <r_mmod_Stretch_Energy-OPLS-2005>
314.992401123047

> <r_mmod_Bend_Energy-OPLS-2005>
363.146759033203

> <r_mmod_Torsional_Energy-OPLS-2005>
223.195068359375

> <r_mmod_Improper_Torsional_Energy-OPLS-2005>
5.4680004119873

> <r_mmod_Van_der_Waal_Energy-OPLS-2005>
142.590423583984

> <r_mmod_Electrostatic_Energy-OPLS-2005>
-516.879516601562

> <r_mmod_Solvation_Energy-OPLS-2005>
-230.316040039062

> <b_mmod_Minimization_Converged-OPLS-2005>
0

> <r_mmod_RMS_Derivative-OPLS-2005>
2.29875445365906

$$$$
59
                    3D
 Structure written by MMmdl.
157165  0  0  1  0            999 V2000
  -30.6256  -14.7359   20.4465 C   0  0  0  0  0  0
  -30.4328  -12.4506   19.4622 C   0  0  0  0  0  0
  -29.5046  -12.4963   18.2298 C   0  0  0  0  0  0
  -28.0309  -12.3306   18.6499 C   0  0  0  0  0  0
  -27.6419  -13.2335   19.8497 C   0  0  2  0  0  0
  -28.6922  -13.1707   20.9796 C   0  0  0  0  0  0
  -25.2520  -13.8201   20.5690 C   0  0  0  0  0  0
  -24.1814  -13.0442   20.9198 C   0  0  0  0  0  0
  -24.6399  -11.6922   20.8737 C   0  0  0  0  0  0
  -23.9078  -10.4297   21.0402 C   0  0  0  0  0  0
  -24.3625   -9.4217   21.9178 C   0  0  0  0  0  0
  -23.6293   -8.2256   22.0734 C   0  0  0  0  0  0
  -22.4276   -8.0291   21.3533 C   0  0  0  0  0  0
  -21.9912   -9.0261   20.4635 C   0  0  0  0  0  0
  -22.7257  -10.2131   20.3057 C   0  0  0  0  0  0
  -21.6860   -6.0746   22.5277 C   0  0  0  0  0  0
  -21.4014   -6.5637   23.8211 C   0  0  0  0  0  0
  -21.3654   -5.6784   24.9172 C   0  0  0  0  0  0
  -21.6058   -4.3049   24.7220 C   0  0  0  0  0  0
  -21.8816   -3.8151   23.4344 C   0  0  0  0  0  0
  -21.9181   -4.6968   22.3397 C   0  0  0  0  0  0
  -22.7830  -13.5212   21.1861 C   0  0  0  0  0  0
  -22.1647   -4.2147   21.0980 F   0  0  0  0  0  0
  -21.5638   -3.4534   25.7738 F   0  0  0  0  0  0
  -29.9908  -13.5165   20.3876 N   0  0  0  0  0  0
  -26.2956  -12.9401   20.3309 N   0  0  0  0  0  0
  -25.9350  -11.6550   20.5798 N   0  0  0  0  0  0
  -22.0480  -12.8204   22.0416 N   0  0  0  0  0  0
  -25.4199  -15.1925   20.4071 N   0  0  0  0  0  0
  -31.8223  -14.8250   20.1609 O   0  0  0  0  0  0
  -21.6646   -6.8890   21.4239 O   0  0  0  0  0  0
  -22.3518  -14.5510   20.6703 O   0  0  0  0  0  0
  -24.6311  -31.8543   23.2020 C   0  0  0  0  0  0
  -25.9141  -32.4752   23.8356 C   0  0  1  0  0  0
  -27.2270  -27.2641   20.1151 C   0  0  0  0  0  0
  -25.5943  -33.8557   24.2261 N   0  0  0  0  0  0
  -23.4286  -30.4788   21.5435 C   0  0  2  0  0  0
  -24.8748  -28.9248   20.1146 C   0  0  0  0  0  0
  -22.7498  -29.4602   22.4913 C   0  0  0  0  0  0
  -18.0284  -28.1380   22.8482 C   0  0  0  0  0  0
  -24.1480  -36.7279   23.2645 C   0  0  0  0  0  0
  -25.9755  -30.7644   21.3856 C   0  0  0  0  0  0
  -26.0462  -29.3888   20.7244 C   0  0  0  0  0  0
  -27.2188  -28.5676   20.7207 C   0  0  0  0  0  0
  -26.0289  -26.8728   19.4813 C   0  0  0  0  0  0
  -24.8701  -27.6722   19.4869 C   0  0  0  0  0  0
  -23.6484  -29.8138   20.1599 C   0  0  0  0  0  0
  -25.4114  -36.3065   24.0319 C   0  0  1  0  0  0
  -20.5889  -28.3693   23.1256 C   0  0  2  0  0  0
  -20.6764  -26.9408   22.5399 C   0  0  0  0  0  0
  -19.5742  -26.6375   21.5201 C   0  0  0  0  0  0
  -18.1926  -26.7923   22.1616 C   0  0  0  0  0  0
  -19.1538  -28.8854   23.2863 C   0  0  0  0  0  0
  -18.9470  -30.1456   23.8891 C   0  0  0  0  0  0
  -17.6469  -30.6587   24.0562 C   0  0  0  0  0  0
  -25.9061  -34.9435   23.5089 C   0  0  0  0  0  0
  -16.5360  -29.9091   23.6329 C   0  0  0  0  0  0
  -16.7276  -28.6498   23.0365 C   0  0  0  0  0  0
  -26.4506  -31.6608   25.0761 C   0  0  0  0  0  0
  -25.3740  -31.3762   26.1495 C   0  0  0  0  0  0
  -27.0384  -30.3024   24.6290 C   0  0  0  0  0  0
  -27.6043  -32.4381   25.7538 C   0  0  0  0  0  0
  -27.5567  -37.1788   24.8459 C   0  0  0  0  0  0
  -21.4201  -29.3042   22.3657 N   0  0  0  0  0  0
  -26.4279  -37.3768   23.9408 N   0  0  0  0  0  0
  -24.6978  -31.0511   22.0998 N   0  0  0  0  0  0
  -23.4199  -28.8129   23.3008 O   0  0  0  0  0  0
  -28.3420  -26.3933   20.1874 O   0  0  0  0  0  0
  -26.5620  -34.8912   22.4650 O   0  0  0  0  0  0
  -23.5462  -32.1384   23.7305 O   0  0  0  0  0  0
  -27.0558  -21.1903   17.7347 C   0  0  0  0  0  0
  -26.9777  -22.3418   18.4599 C   0  0  0  0  0  0
  -28.5243  -21.0176   19.4055 C   0  0  0  0  0  0
  -25.9243  -23.3856   18.3147 C   0  0  0  0  0  0
  -29.4734  -20.0929   20.2498 C   0  0  0  0  0  0
  -29.2329  -18.4751   20.1129 C   0  0  0  0  0  0
  -28.3237  -23.5848   20.2532 C   0  0  0  0  0  0
  -30.2706  -17.3523   20.6401 C   0  0  0  0  0  0
  -28.4279  -25.0461   19.5169 C   0  0  0  0  0  0
  -28.0213  -22.3315   19.3873 N   0  0  0  0  0  0
  -27.9993  -20.4265   18.3278 N   0  3  0  0  0  0
  -29.8567  -15.8762   20.6119 N   0  0  0  0  0  0
  -31.4717  -12.5797   19.1507 H   0  0  0  0  0  0
  -30.3824  -11.4770   19.9508 H   0  0  0  0  0  0
  -29.7800  -11.7132   17.5238 H   0  0  0  0  0  0
  -29.6353  -13.4428   17.7029 H   0  0  0  0  0  0
  -27.8834  -11.2839   18.9188 H   0  0  0  0  0  0
  -27.3691  -12.5219   17.8033 H   0  0  0  0  0  0
  -27.6329  -14.2572   19.4734 H   0  0  0  0  0  0
  -28.7297  -12.1756   21.4252 H   0  0  0  0  0  0
  -28.4321  -13.8585   21.7872 H   0  0  0  0  0  0
  -25.2749   -9.5715   22.4785 H   0  0  0  0  0  0
  -24.0003   -7.4653   22.7449 H   0  0  0  0  0  0
  -21.0845   -8.8809   19.8932 H   0  0  0  0  0  0
  -22.3714  -10.9686   19.6198 H   0  0  0  0  0  0
  -21.2015   -7.6148   23.9716 H   0  0  0  0  0  0
  -21.1468   -6.0512   25.9069 H   0  0  0  0  0  0
  -22.0596   -2.7613   23.2842 H   0  0  0  0  0  0
  -22.4073  -11.9876   22.4847 H   0  0  0  0  0  0
  -21.1105  -13.1245   22.2608 H   0  0  0  0  0  0
  -24.6491  -15.8446   20.5085 H   0  0  0  0  0  0
  -26.2665  -15.6309   20.0664 H   0  0  0  0  0  0
  -26.7205  -32.5387   23.1098 H   0  0  0  0  0  0
  -25.0104  -33.9691   25.0415 H   0  0  0  0  0  0
  -22.7274  -31.3028   21.3960 H   0  0  0  0  0  0
  -23.3738  -35.9612   23.3313 H   0  0  0  0  0  0
  -24.3574  -36.8905   22.2059 H   0  0  0  0  0  0
  -23.7227  -37.6475   23.6679 H   0  0  0  0  0  0
  -26.1244  -31.5262   20.6195 H   0  0  0  0  0  0
  -26.8499  -30.8067   22.0234 H   0  0  0  0  0  0
  -28.1132  -28.9185   21.2156 H   0  0  0  0  0  0
  -25.9447  -25.9254   18.9887 H   0  0  0  0  0  0
  -23.9721  -27.3054   19.0104 H   0  0  0  0  0  0
  -23.7810  -30.5910   19.4070 H   0  0  0  0  0  0
  -22.7662  -29.2525   19.8469 H   0  0  0  0  0  0
  -25.1293  -36.1917   25.0806 H   0  0  0  0  0  0
  -20.9970  -28.3257   24.1381 H   0  0  0  0  0  0
  -20.5638  -26.2307   23.3611 H   0  0  0  0  0  0
  -21.6636  -26.7414   22.1212 H   0  0  0  0  0  0
  -19.6904  -25.6282   21.1245 H   0  0  0  0  0  0
  -19.6678  -27.3168   20.6723 H   0  0  0  0  0  0
  -17.4189  -26.6667   21.4025 H   0  0  0  0  0  0
  -18.0329  -26.0064   22.9013 H   0  0  0  0  0  0
  -19.7947  -30.7259   24.2257 H   0  0  0  0  0  0
  -17.5035  -31.6263   24.5166 H   0  0  0  0  0  0
  -15.5362  -30.3001   23.7657 H   0  0  0  0  0  0
  -15.8665  -28.0814   22.7107 H   0  0  0  0  0  0
  -24.5879  -30.7150   25.7833 H   0  0  0  0  0  0
  -24.8978  -32.2937   26.4959 H   0  0  0  0  0  0
  -25.8065  -30.8908   27.0257 H   0  0  0  0  0  0
  -26.2995  -29.6752   24.1286 H   0  0  0  0  0  0
  -27.4018  -29.7312   25.4846 H   0  0  0  0  0  0
  -27.8899  -30.4294   23.9601 H   0  0  0  0  0  0
  -27.2615  -33.3667   26.2121 H   0  0  0  0  0  0
  -28.3855  -32.6980   25.0381 H   0  0  0  0  0  0
  -28.0731  -31.8531   26.5460 H   0  0  0  0  0  0
  -28.2574  -38.0090   24.7518 H   0  0  0  0  0  0
  -28.1070  -36.2620   24.6283 H   0  0  0  0  0  0
  -27.2296  -37.1452   25.8864 H   0  0  0  0  0  0
  -20.9389  -29.8809   21.6895 H   0  0  0  0  0  0
  -26.0152  -38.2833   24.1434 H   0  0  0  0  0  0
  -26.4635  -20.8366   16.9006 H   0  0  0  0  0  0
  -25.0026  -22.9226   17.9607 H   0  0  0  0  0  0
  -26.2081  -24.1324   17.5737 H   0  0  0  0  0  0
  -25.6983  -23.8385   19.2782 H   0  0  0  0  0  0
  -29.3745  -20.4081   21.2888 H   0  0  0  0  0  0
  -30.4860  -20.3460   19.9351 H   0  0  0  0  0  0
  -29.1205  -18.2422   19.0535 H   0  0  0  0  0  0
  -28.2603  -18.2643   20.5575 H   0  0  0  0  0  0
  -27.5300  -23.6288   20.9986 H   0  0  0  0  0  0
  -29.2397  -23.3864   20.8091 H   0  0  0  0  0  0
  -30.5317  -17.5836   21.6729 H   0  0  0  0  0  0
  -31.2024  -17.4581   20.0819 H   0  0  0  0  0  0
  -27.8326  -25.0758   18.6152 H   0  0  0  0  0  0
  -29.4333  -25.0547   19.0947 H   0  0  0  0  0  0
  -28.2246  -19.4837   18.0367 H   0  0  0  0  0  0
  -28.8778  -15.6940   20.7764 H   0  0  0  0  0  0
  1 25  1  0  0  0
  1 30  2  0  0  0
  1 82  1  0  0  0
  2  3  1  0  0  0
  2 25  1  0  0  0
  2 83  1  0  0  0
  2 84  1  0  0  0
  3  4  1  0  0  0
  3 85  1  0  0  0
  3 86  1  0  0  0
  4  5  1  0  0  0
  4 87  1  0  0  0
  4 88  1  0  0  0
  5  6  1  0  0  0
  5 26  1  0  0  0
  5 89  1  0  0  0
  6 25  1  0  0  0
  6 90  1  0  0  0
  6 91  1  0  0  0
  7  8  2  0  0  0
  7 26  1  0  0  0
  7 29  1  0  0  0
  8  9  1  0  0  0
  8 22  1  0  0  0
  9 10  1  0  0  0
  9 27  2  0  0  0
 10 11  2  0  0  0
 10 15  1  0  0  0
 11 12  1  0  0  0
 11 92  1  0  0  0
 12 13  2  0  0  0
 12 93  1  0  0  0
 13 14  1  0  0  0
 13 31  1  0  0  0
 14 15  2  0  0  0
 14 94  1  0  0  0
 15 95  1  0  0  0
 16 17  2  0  0  0
 16 21  1  0  0  0
 16 31  1  0  0  0
 17 18  1  0  0  0
 17 96  1  0  0  0
 18 19  2  0  0  0
 18 97  1  0  0  0
 19 20  1  0  0  0
 19 24  1  0  0  0
 20 21  2  0  0  0
 20 98  1  0  0  0
 21 23  1  0  0  0
 22 28  1  0  0  0
 22 32  2  0  0  0
 26 27  1  0  0  0
 28 99  1  0  0  0
 28100  1  0  0  0
 29101  1  0  0  0
 29102  1  0  0  0
 33 34  1  0  0  0
 33 66  1  0  0  0
 33 70  2  0  0  0
 34 36  1  0  0  0
 34 59  1  0  0  0
 34103  1  0  0  0
 35 44  2  0  0  0
 35 45  1  0  0  0
 35 68  1  0  0  0
 36 56  1  0  0  0
 36104  1  0  0  0
 37 39  1  0  0  0
 37 47  1  0  0  0
 37 66  1  0  0  0
 37105  1  0  0  0
 38 43  2  0  0  0
 38 46  1  0  0  0
 38 47  1  0  0  0
 39 64  1  0  0  0
 39 67  2  0  0  0
 40 52  1  0  0  0
 40 53  2  0  0  0
 40 58  1  0  0  0
 41106  1  0  0  0
 41107  1  0  0  0
 41108  1  0  0  0
 41 48  1  0  0  0
 42 43  1  0  0  0
 42 66  1  0  0  0
 42109  1  0  0  0
 42110  1  0  0  0
 43 44  1  0  0  0
 44111  1  0  0  0
 45 46  2  0  0  0
 45112  1  0  0  0
 46113  1  0  0  0
 47114  1  0  0  0
 47115  1  0  0  0
 48 56  1  0  0  0
 48 65  1  0  0  0
 48116  1  0  0  0
 49 50  1  0  0  0
 49 53  1  0  0  0
 49 64  1  0  0  0
 49117  1  0  0  0
 50 51  1  0  0  0
 50118  1  0  0  0
 50119  1  0  0  0
 51 52  1  0  0  0
 51120  1  0  0  0
 51121  1  0  0  0
 52122  1  0  0  0
 52123  1  0  0  0
 53 54  1  0  0  0
 54 55  2  0  0  0
 54124  1  0  0  0
 55 57  1  0  0  0
 55125  1  0  0  0
 56 69  2  0  0  0
 57 58  2  0  0  0
 57126  1  0  0  0
 58127  1  0  0  0
 59 60  1  0  0  0
 59 61  1  0  0  0
 59 62  1  0  0  0
 60128  1  0  0  0
 60129  1  0  0  0
 60130  1  0  0  0
 61131  1  0  0  0
 61132  1  0  0  0
 61133  1  0  0  0
 62134  1  0  0  0
 62135  1  0  0  0
 62136  1  0  0  0
 63 65  1  0  0  0
 63137  1  0  0  0
 63138  1  0  0  0
 63139  1  0  0  0
 64140  1  0  0  0
 65141  1  0  0  0
 68 79  1  0  0  0
 71 72  2  0  0  0
 71 81  1  0  0  0
 71142  1  0  0  0
 72 74  1  0  0  0
 72 80  1  0  0  0
 73 75  1  0  0  0
 73 80  1  0  0  0
 73 81  2  0  0  0
 74143  1  0  0  0
 74144  1  0  0  0
 74145  1  0  0  0
 75 76  1  0  0  0
 75146  1  0  0  0
 75147  1  0  0  0
 76 78  1  0  0  0
 76148  1  0  0  0
 76149  1  0  0  0
 77 79  1  0  0  0
 77 80  1  0  0  0
 77150  1  0  0  0
 77151  1  0  0  0
 78 82  1  0  0  0
 78152  1  0  0  0
 78153  1  0  0  0
 79154  1  0  0  0
 79155  1  0  0  0
 81156  1  0  0  0
 82157  1  0  0  0
M  CHG  1  81   1
M  ISO  4   1 100  68 101  79 101  82 100
M  END
> <chiral flag>
0

> <version>
0

> <s_m_source_file>
/data/baiqing/PycharmProjects/Reinvent-master-3.2/result/LINK_invent/BTK/process_docking_weight1_custom_sum_contain_oxygen_bond_distance_aromatic_linkinvent_7_9_3/rearranged_h_0079.sdf

> <i_m_source_file_index>
60

> <r_mmod_Potential_Energy-OPLS-2005>
127.737342834473

> <r_mmod_Stretch_Energy-OPLS-2005>
139.675323486328

> <r_mmod_Bend_Energy-OPLS-2005>
215.163619995117

> <r_mmod_Torsional_Energy-OPLS-2005>
228.621276855469

> <r_mmod_Improper_Torsional_Energy-OPLS-2005>
5.56483459472656

> <r_mmod_Van_der_Waal_Energy-OPLS-2005>
123.298393249512

> <r_mmod_Electrostatic_Energy-OPLS-2005>
-224.129928588867

> <r_mmod_Solvation_Energy-OPLS-2005>
-442.987457275391

> <b_mmod_Minimization_Converged-OPLS-2005>
0

> <r_mmod_RMS_Derivative-OPLS-2005>
2.16315007209778

$$$$
60
                    3D
 Structure written by MMmdl.
169177  0  0  1  0            999 V2000
  -30.5357  -14.9813   20.4459 C   0  0  0  0  0  0
  -30.4388  -12.6117   19.5151 C   0  0  0  0  0  0
  -29.5305  -12.5302   18.2660 C   0  0  0  0  0  0
  -28.0601  -12.3156   18.6744 C   0  0  0  0  0  0
  -27.6226  -13.2506   19.8322 C   0  0  2  0  0  0
  -28.6592  -13.3002   20.9744 C   0  0  0  0  0  0
  -25.2429  -13.8212   20.5746 C   0  0  0  0  0  0
  -24.1755  -13.0443   20.9266 C   0  0  0  0  0  0
  -24.6361  -11.6926   20.8751 C   0  0  0  0  0  0
  -23.9052  -10.4298   21.0418 C   0  0  0  0  0  0
  -24.3607   -9.4210   21.9186 C   0  0  0  0  0  0
  -23.6297   -8.2243   22.0750 C   0  0  0  0  0  0
  -22.4273   -8.0281   21.3554 C   0  0  0  0  0  0
  -21.9898   -9.0252   20.4656 C   0  0  0  0  0  0
  -22.7216  -10.2138   20.3078 C   0  0  0  0  0  0
  -21.6844   -6.0743   22.5297 C   0  0  0  0  0  0
  -21.3999   -6.5641   23.8229 C   0  0  0  0  0  0
  -21.3665   -5.6791   24.9191 C   0  0  0  0  0  0
  -21.6044   -4.3056   24.7227 C   0  0  0  0  0  0
  -21.8815   -3.8155   23.4341 C   0  0  0  0  0  0
  -21.9182   -4.6975   22.3404 C   0  0  0  0  0  0
  -22.7774  -13.5239   21.1910 C   0  0  0  0  0  0
  -22.1657   -4.2159   21.0986 F   0  0  0  0  0  0
  -21.5625   -3.4541   25.7740 F   0  0  0  0  0  0
  -29.9329  -13.7216   20.3777 N   0  0  0  0  0  0
  -26.2831  -12.9437   20.3190 N   0  0  0  0  0  0
  -25.9287  -11.6568   20.5706 N   0  0  0  0  0  0
  -22.0397  -12.8244   22.0446 N   0  0  0  0  0  0
  -25.4089  -15.1956   20.4229 N   0  0  0  0  0  0
  -31.7422  -15.0230   20.1905 O   0  0  0  0  0  0
  -21.6633   -6.8881   21.4264 O   0  0  0  0  0  0
  -22.3486  -14.5547   20.6740 O   0  0  0  0  0  0
  -24.6455  -31.8401   23.1896 C   0  0  0  0  0  0
  -25.9240  -32.4695   23.8252 C   0  0  1  0  0  0
  -27.2268  -27.1055   20.1959 C   0  0  0  0  0  0
  -25.5975  -33.8499   24.2166 N   0  0  0  0  0  0
  -23.4535  -30.4554   21.5323 C   0  0  2  0  0  0
  -24.9115  -28.8755   20.1222 C   0  0  0  0  0  0
  -22.7584  -29.4499   22.4848 C   0  0  0  0  0  0
  -18.0296  -28.1408   22.8471 C   0  0  0  0  0  0
  -24.1482  -36.7246   23.2642 C   0  0  0  0  0  0
  -26.0118  -30.7118   21.3940 C   0  0  0  0  0  0
  -26.0876  -29.3179   20.7413 C   0  0  0  0  0  0
  -27.2484  -28.4522   20.7543 C   0  0  0  0  0  0
  -26.0270  -26.7708   19.5363 C   0  0  0  0  0  0
  -24.8957  -27.6159   19.5026 C   0  0  0  0  0  0
  -23.6898  -29.7820   20.1539 C   0  0  0  0  0  0
  -25.4133  -36.3024   24.0285 C   0  0  1  0  0  0
  -20.5905  -28.3720   23.1233 C   0  0  2  0  0  0
  -20.6784  -26.9421   22.5415 C   0  0  0  0  0  0
  -19.5752  -26.6381   21.5227 C   0  0  0  0  0  0
  -18.1926  -26.7936   22.1624 C   0  0  0  0  0  0
  -19.1548  -28.8890   23.2834 C   0  0  0  0  0  0
  -18.9472  -30.1485   23.8852 C   0  0  0  0  0  0
  -17.6465  -30.6598   24.0564 C   0  0  0  0  0  0
  -25.9089  -34.9398   23.5035 C   0  0  0  0  0  0
  -16.5362  -29.9089   23.6360 C   0  0  0  0  0  0
  -16.7280  -28.6507   23.0364 C   0  0  0  0  0  0
  -26.4575  -31.6592   25.0712 C   0  0  0  0  0  0
  -25.3770  -31.3825   26.1415 C   0  0  0  0  0  0
  -27.0458  -30.2955   24.6401 C   0  0  0  0  0  0
  -27.6066  -32.4396   25.7507 C   0  0  0  0  0  0
  -27.5571  -37.1780   24.8454 C   0  0  0  0  0  0
  -21.4272  -29.3025   22.3589 N   0  0  0  0  0  0
  -26.4283  -37.3737   23.9390 N   0  0  0  0  0  0
  -24.7229  -31.0237   22.0935 N   0  0  0  0  0  0
  -23.4189  -28.8042   23.3028 O   0  0  0  0  0  0
  -28.2789  -26.1107   20.2242 O   0  0  0  0  0  0
  -26.5665  -34.8897   22.4609 O   0  0  0  0  0  0
  -23.5579  -32.1263   23.7128 O   0  0  0  0  0  0
  -27.9692  -20.3967   18.8305 C   0  0  0  0  0  0
  -27.9031  -19.2194   18.1414 C   0  0  0  0  0  0
  -29.1561  -18.8553   19.9793 C   0  0  0  0  0  0
  -31.5172  -18.0860   20.6153 C   0  0  0  0  0  0
  -24.8457  -20.8103   17.5516 C   0  0  0  0  0  0
  -25.0795  -21.7315   15.2207 C   0  0  0  0  0  0
  -27.2408  -18.8633   16.8465 C   0  0  0  0  0  0
  -26.8285  -20.1043   16.0264 C   0  0  0  0  0  0
  -28.8555  -23.2032   20.0699 C   0  0  0  0  0  0
  -28.9655  -21.6207   20.7577 C   0  0  0  0  0  0
  -28.0527  -24.6024   20.6222 C   0  0  0  0  0  0
  -30.0293  -17.7506   20.8049 C   0  0  2  0  0  0
  -25.3441  -20.5173   16.1237 C   0  0  0  0  0  0
  -28.7886  -20.2566   19.9231 N   0  0  0  0  0  0
  -28.6246  -18.3247   18.8723 N   0  3  0  0  0  0
  -29.7590  -16.1769   20.6049 N   0  0  0  0  0  0
  -31.4741  -12.7736   19.2086 H   0  0  0  0  0  0
  -30.4308  -11.6677   20.0638 H   0  0  0  0  0  0
  -29.8620  -11.7201   17.6135 H   0  0  0  0  0  0
  -29.6234  -13.4512   17.6885 H   0  0  0  0  0  0
  -27.9588  -11.2756   18.9876 H   0  0  0  0  0  0
  -27.4044  -12.4409   17.8095 H   0  0  0  0  0  0
  -27.5765  -14.2470   19.3941 H   0  0  0  0  0  0
  -28.7518  -12.3308   21.4657 H   0  0  0  0  0  0
  -28.3413  -14.0058   21.7433 H   0  0  0  0  0  0
  -25.2760   -9.5677   22.4758 H   0  0  0  0  0  0
  -24.0006   -7.4624   22.7457 H   0  0  0  0  0  0
  -21.0819   -8.8779   19.8968 H   0  0  0  0  0  0
  -22.3678  -10.9680   19.6193 H   0  0  0  0  0  0
  -21.1991   -7.6149   23.9734 H   0  0  0  0  0  0
  -21.1492   -6.0523   25.9094 H   0  0  0  0  0  0
  -22.0582   -2.7619   23.2847 H   0  0  0  0  0  0
  -22.3999  -11.9912   22.4866 H   0  0  0  0  0  0
  -21.1018  -13.1292   22.2632 H   0  0  0  0  0  0
  -24.6287  -15.8359   20.5326 H   0  0  0  0  0  0
  -26.2355  -15.6427   20.0552 H   0  0  0  0  0  0
  -26.7294  -32.5318   23.0979 H   0  0  0  0  0  0
  -25.0080  -33.9607   25.0282 H   0  0  0  0  0  0
  -22.7547  -31.2794   21.3738 H   0  0  0  0  0  0
  -23.3749  -35.9579   23.3299 H   0  0  0  0  0  0
  -24.3557  -36.8919   22.2063 H   0  0  0  0  0  0
  -23.7252  -37.6435   23.6714 H   0  0  0  0  0  0
  -26.1701  -31.4707   20.6254 H   0  0  0  0  0  0
  -26.8770  -30.7634   22.0436 H   0  0  0  0  0  0
  -28.1456  -28.7929   21.2520 H   0  0  0  0  0  0
  -25.9529  -25.8062   19.0597 H   0  0  0  0  0  0
  -23.9995  -27.2661   19.0098 H   0  0  0  0  0  0
  -23.8320  -30.5568   19.3977 H   0  0  0  0  0  0
  -22.8073  -29.2221   19.8371 H   0  0  0  0  0  0
  -25.1332  -36.1823   25.0772 H   0  0  0  0  0  0
  -20.9978  -28.3338   24.1361 H   0  0  0  0  0  0
  -20.5710  -26.2319   23.3625 H   0  0  0  0  0  0
  -21.6642  -26.7451   22.1186 H   0  0  0  0  0  0
  -19.6894  -25.6279   21.1272 H   0  0  0  0  0  0
  -19.6698  -27.3185   20.6740 H   0  0  0  0  0  0
  -17.4203  -26.6703   21.4026 H   0  0  0  0  0  0
  -18.0303  -26.0090   22.9015 H   0  0  0  0  0  0
  -19.7952  -30.7329   24.2177 H   0  0  0  0  0  0
  -17.5024  -31.6272   24.5183 H   0  0  0  0  0  0
  -15.5351  -30.2982   23.7724 H   0  0  0  0  0  0
  -15.8668  -28.0846   22.7086 H   0  0  0  0  0  0
  -24.5879  -30.7257   25.7746 H   0  0  0  0  0  0
  -24.9067  -32.3042   26.4835 H   0  0  0  0  0  0
  -25.8052  -30.8974   27.0194 H   0  0  0  0  0  0
  -26.3104  -29.6627   24.1427 H   0  0  0  0  0  0
  -27.3998  -29.7334   25.5058 H   0  0  0  0  0  0
  -27.9037  -30.4097   23.9775 H   0  0  0  0  0  0
  -27.2589  -33.3681   26.2040 H   0  0  0  0  0  0
  -28.3909  -32.7013   25.0390 H   0  0  0  0  0  0
  -28.0705  -31.8583   26.5489 H   0  0  0  0  0  0
  -28.2585  -38.0076   24.7507 H   0  0  0  0  0  0
  -28.1061  -36.2609   24.6274 H   0  0  0  0  0  0
  -27.2268  -37.1424   25.8847 H   0  0  0  0  0  0
  -20.9475  -29.8734   21.6770 H   0  0  0  0  0  0
  -26.0138  -38.2790   24.1436 H   0  0  0  0  0  0
  -27.5055  -21.3390   18.5838 H   0  0  0  0  0  0
  -31.7133  -19.1326   20.8491 H   0  0  0  0  0  0
  -31.8285  -17.9206   19.5827 H   0  0  0  0  0  0
  -32.1545  -17.4861   21.2638 H   0  0  0  0  0  0
  -23.7673  -20.9732   17.5521 H   0  0  0  0  0  0
  -25.3021  -21.7111   17.9631 H   0  0  0  0  0  0
  -25.0379  -19.9818   18.2347 H   0  0  0  0  0  0
  -24.0182  -21.9800   15.1906 H   0  0  0  0  0  0
  -25.4078  -21.5482   14.1960 H   0  0  0  0  0  0
  -25.6162  -22.6108   15.5843 H   0  0  0  0  0  0
  -26.3846  -18.2168   17.0385 H   0  0  0  0  0  0
  -27.9470  -18.2696   16.2635 H   0  0  0  0  0  0
  -27.0061  -19.8596   14.9791 H   0  0  0  0  0  0
  -27.4941  -20.9453   16.2216 H   0  0  0  0  0  0
  -28.5710  -23.1064   19.0249 H   0  0  0  0  0  0
  -29.8948  -23.5208   19.9977 H   0  0  0  0  0  0
  -28.2465  -21.5540   21.5727 H   0  0  0  0  0  0
  -29.9344  -21.5392   21.2537 H   0  0  0  0  0  0
  -28.2192  -24.6085   21.6994 H   0  0  0  0  0  0
  -26.9853  -24.3961   20.5281 H   0  0  0  0  0  0
  -29.7729  -17.9626   21.8446 H   0  0  0  0  0  0
  -24.7556  -19.6796   15.7420 H   0  0  0  0  0  0
  -28.7891  -17.3630   18.6006 H   0  0  0  0  0  0
  -28.7858  -15.9505   20.7365 H   0  0  0  0  0  0
  1 25  1  0  0  0
  1 30  2  0  0  0
  1 86  1  0  0  0
  2  3  1  0  0  0
  2 25  1  0  0  0
  2 87  1  0  0  0
  2 88  1  0  0  0
  3  4  1  0  0  0
  3 89  1  0  0  0
  3 90  1  0  0  0
  4  5  1  0  0  0
  4 91  1  0  0  0
  4 92  1  0  0  0
  5  6  1  0  0  0
  5 26  1  0  0  0
  5 93  1  0  0  0
  6 25  1  0  0  0
  6 94  1  0  0  0
  6 95  1  0  0  0
  7  8  2  0  0  0
  7 26  1  0  0  0
  7 29  1  0  0  0
  8  9  1  0  0  0
  8 22  1  0  0  0
  9 10  1  0  0  0
  9 27  2  0  0  0
 10 11  2  0  0  0
 10 15  1  0  0  0
 11 12  1  0  0  0
 11 96  1  0  0  0
 12 13  2  0  0  0
 12 97  1  0  0  0
 13 14  1  0  0  0
 13 31  1  0  0  0
 14 15  2  0  0  0
 14 98  1  0  0  0
 15 99  1  0  0  0
 16 17  2  0  0  0
 16 21  1  0  0  0
 16 31  1  0  0  0
 17 18  1  0  0  0
 17100  1  0  0  0
 18 19  2  0  0  0
 18101  1  0  0  0
 19 20  1  0  0  0
 19 24  1  0  0  0
 20 21  2  0  0  0
 20102  1  0  0  0
 21 23  1  0  0  0
 22 28  1  0  0  0
 22 32  2  0  0  0
 26 27  1  0  0  0
 28103  1  0  0  0
 28104  1  0  0  0
 29105  1  0  0  0
 29106  1  0  0  0
 33 34  1  0  0  0
 33 66  1  0  0  0
 33 70  2  0  0  0
 34 36  1  0  0  0
 34 59  1  0  0  0
 34107  1  0  0  0
 35 44  2  0  0  0
 35 45  1  0  0  0
 35 68  1  0  0  0
 36 56  1  0  0  0
 36108  1  0  0  0
 37 39  1  0  0  0
 37 47  1  0  0  0
 37 66  1  0  0  0
 37109  1  0  0  0
 38 43  2  0  0  0
 38 46  1  0  0  0
 38 47  1  0  0  0
 39 64  1  0  0  0
 39 67  2  0  0  0
 40 52  1  0  0  0
 40 53  2  0  0  0
 40 58  1  0  0  0
 41110  1  0  0  0
 41111  1  0  0  0
 41112  1  0  0  0
 41 48  1  0  0  0
 42 43  1  0  0  0
 42 66  1  0  0  0
 42113  1  0  0  0
 42114  1  0  0  0
 43 44  1  0  0  0
 44115  1  0  0  0
 45 46  2  0  0  0
 45116  1  0  0  0
 46117  1  0  0  0
 47118  1  0  0  0
 47119  1  0  0  0
 48 56  1  0  0  0
 48 65  1  0  0  0
 48120  1  0  0  0
 49 50  1  0  0  0
 49 53  1  0  0  0
 49 64  1  0  0  0
 49121  1  0  0  0
 50 51  1  0  0  0
 50122  1  0  0  0
 50123  1  0  0  0
 51 52  1  0  0  0
 51124  1  0  0  0
 51125  1  0  0  0
 52126  1  0  0  0
 52127  1  0  0  0
 53 54  1  0  0  0
 54 55  2  0  0  0
 54128  1  0  0  0
 55 57  1  0  0  0
 55129  1  0  0  0
 56 69  2  0  0  0
 57 58  2  0  0  0
 57130  1  0  0  0
 58131  1  0  0  0
 59 60  1  0  0  0
 59 61  1  0  0  0
 59 62  1  0  0  0
 60132  1  0  0  0
 60133  1  0  0  0
 60134  1  0  0  0
 61135  1  0  0  0
 61136  1  0  0  0
 61137  1  0  0  0
 62138  1  0  0  0
 62139  1  0  0  0
 62140  1  0  0  0
 63 65  1  0  0  0
 63141  1  0  0  0
 63142  1  0  0  0
 63143  1  0  0  0
 64144  1  0  0  0
 65145  1  0  0  0
 68 81  1  0  0  0
 71 72  2  0  0  0
 71 84  1  0  0  0
 71146  1  0  0  0
 72 77  1  0  0  0
 72 85  1  0  0  0
 73 82  1  0  0  0
 73 84  1  0  0  0
 73 85  2  0  0  0
 74147  1  0  0  0
 74148  1  0  0  0
 74149  1  0  0  0
 74 82  1  0  0  0
 75150  1  0  0  0
 75151  1  0  0  0
 75152  1  0  0  0
 75 83  1  0  0  0
 76 83  1  0  0  0
 76153  1  0  0  0
 76154  1  0  0  0
 76155  1  0  0  0
 77 78  1  0  0  0
 77156  1  0  0  0
 77157  1  0  0  0
 78 83  1  0  0  0
 78158  1  0  0  0
 78159  1  0  0  0
 79 80  1  0  0  0
 79 81  1  0  0  0
 79160  1  0  0  0
 79161  1  0  0  0
 80 84  1  0  0  0
 80162  1  0  0  0
 80163  1  0  0  0
 81164  1  0  0  0
 81165  1  0  0  0
 82 86  1  0  0  0
 82166  1  0  0  0
 83167  1  0  0  0
 85168  1  0  0  0
 86169  1  0  0  0
M  CHG  1  85   1
M  ISO  4   1 100  68 101  81 101  86 100
M  END
> <chiral flag>
0

> <version>
0

> <s_m_source_file>
/data/baiqing/PycharmProjects/Reinvent-master-3.2/result/LINK_invent/BTK/process_docking_weight1_custom_sum_contain_oxygen_bond_distance_aromatic_linkinvent_7_9_3/rearranged_h_0079.sdf

> <i_m_source_file_index>
61

> <r_mmod_Potential_Energy-OPLS-2005>
594.96142578125

> <r_mmod_Stretch_Energy-OPLS-2005>
322.579742431641

> <r_mmod_Bend_Energy-OPLS-2005>
346.859161376953

> <r_mmod_Torsional_Energy-OPLS-2005>
255.195327758789

> <r_mmod_Improper_Torsional_Energy-OPLS-2005>
4.67858076095581

> <r_mmod_Van_der_Waal_Energy-OPLS-2005>
105.834114074707

> <r_mmod_Electrostatic_Energy-OPLS-2005>
-232.810424804688

> <r_mmod_Solvation_Energy-OPLS-2005>
-424.757568359375

> <b_mmod_Minimization_Converged-OPLS-2005>
0

> <r_mmod_RMS_Derivative-OPLS-2005>
3.60115623474121

$$$$
61
                    3D
 Structure written by MMmdl.
163171  0  0  1  0            999 V2000
  -30.6770  -14.5087   20.5562 C   0  0  0  0  0  0
  -30.4257  -12.3294   19.4216 C   0  0  0  0  0  0
  -29.4956  -12.5117   18.2040 C   0  0  0  0  0  0
  -28.0165  -12.3664   18.6166 C   0  0  0  0  0  0
  -27.6585  -13.2076   19.8717 C   0  0  2  0  0  0
  -28.7027  -13.0008   20.9918 C   0  0  0  0  0  0
  -25.2570  -13.8152   20.5685 C   0  0  0  0  0  0
  -24.1830  -13.0426   20.9185 C   0  0  0  0  0  0
  -24.6389  -11.6898   20.8726 C   0  0  0  0  0  0
  -23.9054  -10.4283   21.0391 C   0  0  0  0  0  0
  -24.3614   -9.4205   21.9171 C   0  0  0  0  0  0
  -23.6295   -8.2236   22.0746 C   0  0  0  0  0  0
  -22.4270   -8.0271   21.3543 C   0  0  0  0  0  0
  -21.9903   -9.0239   20.4640 C   0  0  0  0  0  0
  -22.7226  -10.2119   20.3046 C   0  0  0  0  0  0
  -21.6843   -6.0732   22.5277 C   0  0  0  0  0  0
  -21.4010   -6.5635   23.8211 C   0  0  0  0  0  0
  -21.3667   -5.6790   24.9173 C   0  0  0  0  0  0
  -21.6048   -4.3054   24.7224 C   0  0  0  0  0  0
  -21.8820   -3.8145   23.4344 C   0  0  0  0  0  0
  -21.9194   -4.6962   22.3401 C   0  0  0  0  0  0
  -22.7857  -13.5225   21.1856 C   0  0  0  0  0  0
  -22.1659   -4.2148   21.0981 F   0  0  0  0  0  0
  -21.5637   -3.4539   25.7738 F   0  0  0  0  0  0
  -30.0269  -13.3186   20.4342 N   0  0  0  0  0  0
  -26.3007  -12.9326   20.3349 N   0  0  0  0  0  0
  -25.9318  -11.6484   20.5760 N   0  0  0  0  0  0
  -22.0498  -12.8218   22.0413 N   0  0  0  0  0  0
  -25.4258  -15.1868   20.4106 N   0  0  0  0  0  0
  -31.8156  -14.6952   20.1200 O   0  0  0  0  0  0
  -21.6639   -6.8870   21.4239 O   0  0  0  0  0  0
  -22.3546  -14.5531   20.6698 O   0  0  0  0  0  0
  -24.6160  -31.8643   23.2066 C   0  0  0  0  0  0
  -25.9048  -32.4797   23.8365 C   0  0  1  0  0  0
  -27.2375  -27.4083   20.0895 C   0  0  0  0  0  0
  -25.5881  -33.8601   24.2295 N   0  0  0  0  0  0
  -23.4051  -30.4879   21.5468 C   0  0  2  0  0  0
  -24.8502  -28.9465   20.1144 C   0  0  0  0  0  0
  -22.7421  -29.4650   22.4970 C   0  0  0  0  0  0
  -18.0276  -28.1377   22.8491 C   0  0  0  0  0  0
  -24.1488  -36.7324   23.2641 C   0  0  0  0  0  0
  -25.9360  -30.8189   21.3647 C   0  0  0  0  0  0
  -26.0092  -29.4503   20.7135 C   0  0  0  0  0  0
  -27.2010  -28.6876   20.6999 C   0  0  0  0  0  0
  -26.0507  -26.9163   19.4974 C   0  0  0  0  0  0
  -24.8661  -27.6792   19.5058 C   0  0  0  0  0  0
  -23.6151  -29.8204   20.1608 C   0  0  0  0  0  0
  -25.4107  -36.3103   24.0334 C   0  0  1  0  0  0
  -20.5867  -28.3667   23.1323 C   0  0  2  0  0  0
  -20.6770  -26.9403   22.5426 C   0  0  0  0  0  0
  -19.5746  -26.6389   21.5225 C   0  0  0  0  0  0
  -18.1924  -26.7921   22.1631 C   0  0  0  0  0  0
  -19.1523  -28.8841   23.2899 C   0  0  0  0  0  0
  -18.9448  -30.1443   23.8915 C   0  0  0  0  0  0
  -17.6449  -30.6580   24.0574 C   0  0  0  0  0  0
  -25.9031  -34.9466   23.5122 C   0  0  0  0  0  0
  -16.5345  -29.9087   23.6327 C   0  0  0  0  0  0
  -16.7261  -28.6506   23.0342 C   0  0  0  0  0  0
  -26.4467  -31.6573   25.0704 C   0  0  0  0  0  0
  -25.3734  -31.3706   26.1458 C   0  0  0  0  0  0
  -27.0284  -30.2999   24.6102 C   0  0  0  0  0  0
  -27.6037  -32.4291   25.7469 C   0  0  0  0  0  0
  -27.5580  -37.1817   24.8464 C   0  0  0  0  0  0
  -21.4145  -29.3032   22.3727 N   0  0  0  0  0  0
  -26.4290  -37.3784   23.9409 N   0  0  0  0  0  0
  -24.6707  -31.0730   22.0971 N   0  0  0  0  0  0
  -23.4196  -28.8194   23.3013 O   0  0  0  0  0  0
  -28.4295  -26.7026   20.1048 O   0  0  0  0  0  0
  -26.5614  -34.8929   22.4698 O   0  0  0  0  0  0
  -23.5356  -32.1406   23.7450 O   0  0  0  0  0  0
  -27.4597  -21.4532   21.4002 C   0  0  0  0  0  0
  -27.1850  -20.1926   21.9408 C   0  0  0  0  0  0
  -28.4897  -21.5361   20.4533 C   0  0  0  0  0  0
  -28.8740  -19.2510   20.6980 C   0  0  0  0  0  0
  -26.0708  -19.9866   22.9434 C   0  0  0  0  0  0
  -28.5802  -17.2295   19.1844 C   0  0  0  0  0  0
  -30.1952  -17.3472   22.6703 C   0  0  0  0  0  0
  -28.8018  -22.8429   19.6977 C   0  0  0  0  0  0
  -28.2819  -24.1834   20.3139 C   0  0  0  0  0  0
  -28.5769  -25.4325   19.4346 C   0  0  0  0  0  0
  -29.5319  -17.9424   20.1639 C   0  0  2  0  0  0
  -30.2761  -16.9650   21.1804 C   0  0  2  0  0  0
  -27.8770  -19.1032   21.5673 N   0  0  0  0  0  0
  -29.1930  -20.4211   20.1172 N   0  0  0  0  0  0
  -29.9284  -15.5236   21.0435 N   0  0  0  0  0  0
  -31.4693  -12.4380   19.1222 H   0  0  0  0  0  0
  -30.3353  -11.3206   19.8264 H   0  0  0  0  0  0
  -29.7422  -11.7853   17.4285 H   0  0  0  0  0  0
  -29.6574  -13.4960   17.7613 H   0  0  0  0  0  0
  -27.8307  -11.3100   18.8141 H   0  0  0  0  0  0
  -27.3654  -12.6381   17.7849 H   0  0  0  0  0  0
  -27.6954  -14.2538   19.5694 H   0  0  0  0  0  0
  -28.6891  -11.9660   21.3372 H   0  0  0  0  0  0
  -28.4638  -13.6022   21.8697 H   0  0  0  0  0  0
  -25.2755   -9.5690   22.4742 H   0  0  0  0  0  0
  -24.0007   -7.4634   22.7466 H   0  0  0  0  0  0
  -21.0829   -8.8748   19.8949 H   0  0  0  0  0  0
  -22.3671  -10.9656   19.6160 H   0  0  0  0  0  0
  -21.1985   -7.6140   23.9714 H   0  0  0  0  0  0
  -21.1497   -6.0518   25.9078 H   0  0  0  0  0  0
  -22.0594   -2.7608   23.2842 H   0  0  0  0  0  0
  -22.4115  -11.9882   22.4803 H   0  0  0  0  0  0
  -21.1115  -13.1239   22.2608 H   0  0  0  0  0  0
  -24.6570  -15.8383   20.5246 H   0  0  0  0  0  0
  -26.2776  -15.6313   20.0972 H   0  0  0  0  0  0
  -26.7108  -32.5490   23.1112 H   0  0  0  0  0  0
  -24.9997  -33.9764   25.0418 H   0  0  0  0  0  0
  -22.6935  -31.3037   21.4066 H   0  0  0  0  0  0
  -23.3742  -35.9665   23.3299 H   0  0  0  0  0  0
  -24.3582  -36.8952   22.2056 H   0  0  0  0  0  0
  -23.7254  -37.6538   23.6657 H   0  0  0  0  0  0
  -26.0550  -31.5822   20.5945 H   0  0  0  0  0  0
  -26.8227  -30.8695   21.9851 H   0  0  0  0  0  0
  -28.0969  -29.0786   21.1620 H   0  0  0  0  0  0
  -26.0140  -25.9439   19.0302 H   0  0  0  0  0  0
  -23.9725  -27.2849   19.0424 H   0  0  0  0  0  0
  -23.7265  -30.5959   19.4013 H   0  0  0  0  0  0
  -22.7384  -29.2438   19.8623 H   0  0  0  0  0  0
  -25.1284  -36.1961   25.0824 H   0  0  0  0  0  0
  -20.9939  -28.3209   24.1450 H   0  0  0  0  0  0
  -20.5687  -26.2269   23.3609 H   0  0  0  0  0  0
  -21.6638  -26.7453   22.1207 H   0  0  0  0  0  0
  -19.6907  -25.6308   21.1235 H   0  0  0  0  0  0
  -19.6672  -27.3226   20.6776 H   0  0  0  0  0  0
  -17.4197  -26.6670   21.4028 H   0  0  0  0  0  0
  -18.0309  -26.0062   22.9023 H   0  0  0  0  0  0
  -19.7925  -30.7252   24.2291 H   0  0  0  0  0  0
  -17.5012  -31.6265   24.5165 H   0  0  0  0  0  0
  -15.5348  -30.3004   23.7642 H   0  0  0  0  0  0
  -15.8657  -28.0843   22.7038 H   0  0  0  0  0  0
  -24.5874  -30.7077   25.7816 H   0  0  0  0  0  0
  -24.8972  -32.2882   26.4915 H   0  0  0  0  0  0
  -25.8090  -30.8859   27.0203 H   0  0  0  0  0  0
  -26.2825  -29.6775   24.1140 H   0  0  0  0  0  0
  -27.4020  -29.7215   25.4564 H   0  0  0  0  0  0
  -27.8680  -30.4306   23.9273 H   0  0  0  0  0  0
  -27.2636  -33.3578   26.2067 H   0  0  0  0  0  0
  -28.3839  -32.6867   25.0294 H   0  0  0  0  0  0
  -28.0704  -31.8394   26.5373 H   0  0  0  0  0  0
  -28.2600  -38.0111   24.7497 H   0  0  0  0  0  0
  -28.1065  -36.2641   24.6281 H   0  0  0  0  0  0
  -27.2302  -37.1471   25.8869 H   0  0  0  0  0  0
  -20.9291  -29.8767   21.6966 H   0  0  0  0  0  0
  -26.0177  -38.2867   24.1384 H   0  0  0  0  0  0
  -26.8674  -22.3113   21.6854 H   0  0  0  0  0  0
  -25.8971  -20.8931   23.5229 H   0  0  0  0  0  0
  -26.3142  -19.1849   23.6412 H   0  0  0  0  0  0
  -25.1448  -19.7267   22.4301 H   0  0  0  0  0  0
  -28.2408  -17.9192   18.4116 H   0  0  0  0  0  0
  -27.6981  -16.8595   19.7026 H   0  0  0  0  0  0
  -29.0642  -16.3925   18.6808 H   0  0  0  0  0  0
  -30.5242  -18.3737   22.8359 H   0  0  0  0  0  0
  -30.8330  -16.7046   23.2782 H   0  0  0  0  0  0
  -29.1785  -17.2539   23.0535 H   0  0  0  0  0  0
  -28.3883  -22.7354   18.6945 H   0  0  0  0  0  0
  -29.8826  -22.9102   19.5691 H   0  0  0  0  0  0
  -28.7395  -24.3148   21.2949 H   0  0  0  0  0  0
  -27.2066  -24.1335   20.4765 H   0  0  0  0  0  0
  -28.0250  -25.3947   18.4948 H   0  0  0  0  0  0
  -29.6237  -25.3897   19.1334 H   0  0  0  0  0  0
  -30.3381  -18.3048   19.5232 H   0  0  0  0  0  0
  -31.3362  -17.0577   20.9402 H   0  0  0  0  0  0
  -28.9955  -15.2663   21.3253 H   0  0  0  0  0  0
  1 25  1  0  0  0
  1 30  2  0  0  0
  1 85  1  0  0  0
  2  3  1  0  0  0
  2 25  1  0  0  0
  2 86  1  0  0  0
  2 87  1  0  0  0
  3  4  1  0  0  0
  3 88  1  0  0  0
  3 89  1  0  0  0
  4  5  1  0  0  0
  4 90  1  0  0  0
  4 91  1  0  0  0
  5  6  1  0  0  0
  5 26  1  0  0  0
  5 92  1  0  0  0
  6 25  1  0  0  0
  6 93  1  0  0  0
  6 94  1  0  0  0
  7  8  2  0  0  0
  7 26  1  0  0  0
  7 29  1  0  0  0
  8  9  1  0  0  0
  8 22  1  0  0  0
  9 10  1  0  0  0
  9 27  2  0  0  0
 10 11  2  0  0  0
 10 15  1  0  0  0
 11 12  1  0  0  0
 11 95  1  0  0  0
 12 13  2  0  0  0
 12 96  1  0  0  0
 13 14  1  0  0  0
 13 31  1  0  0  0
 14 15  2  0  0  0
 14 97  1  0  0  0
 15 98  1  0  0  0
 16 17  2  0  0  0
 16 21  1  0  0  0
 16 31  1  0  0  0
 17 18  1  0  0  0
 17 99  1  0  0  0
 18 19  2  0  0  0
 18100  1  0  0  0
 19 20  1  0  0  0
 19 24  1  0  0  0
 20 21  2  0  0  0
 20101  1  0  0  0
 21 23  1  0  0  0
 22 28  1  0  0  0
 22 32  2  0  0  0
 26 27  1  0  0  0
 28102  1  0  0  0
 28103  1  0  0  0
 29104  1  0  0  0
 29105  1  0  0  0
 33 34  1  0  0  0
 33 66  1  0  0  0
 33 70  2  0  0  0
 34 36  1  0  0  0
 34 59  1  0  0  0
 34106  1  0  0  0
 35 44  2  0  0  0
 35 45  1  0  0  0
 35 68  1  0  0  0
 36 56  1  0  0  0
 36107  1  0  0  0
 37 39  1  0  0  0
 37 47  1  0  0  0
 37 66  1  0  0  0
 37108  1  0  0  0
 38 43  2  0  0  0
 38 46  1  0  0  0
 38 47  1  0  0  0
 39 64  1  0  0  0
 39 67  2  0  0  0
 40 52  1  0  0  0
 40 53  2  0  0  0
 40 58  1  0  0  0
 41109  1  0  0  0
 41110  1  0  0  0
 41111  1  0  0  0
 41 48  1  0  0  0
 42 43  1  0  0  0
 42 66  1  0  0  0
 42112  1  0  0  0
 42113  1  0  0  0
 43 44  1  0  0  0
 44114  1  0  0  0
 45 46  2  0  0  0
 45115  1  0  0  0
 46116  1  0  0  0
 47117  1  0  0  0
 47118  1  0  0  0
 48 56  1  0  0  0
 48 65  1  0  0  0
 48119  1  0  0  0
 49 50  1  0  0  0
 49 53  1  0  0  0
 49 64  1  0  0  0
 49120  1  0  0  0
 50 51  1  0  0  0
 50121  1  0  0  0
 50122  1  0  0  0
 51 52  1  0  0  0
 51123  1  0  0  0
 51124  1  0  0  0
 52125  1  0  0  0
 52126  1  0  0  0
 53 54  1  0  0  0
 54 55  2  0  0  0
 54127  1  0  0  0
 55 57  1  0  0  0
 55128  1  0  0  0
 56 69  2  0  0  0
 57 58  2  0  0  0
 57129  1  0  0  0
 58130  1  0  0  0
 59 60  1  0  0  0
 59 61  1  0  0  0
 59 62  1  0  0  0
 60131  1  0  0  0
 60132  1  0  0  0
 60133  1  0  0  0
 61134  1  0  0  0
 61135  1  0  0  0
 61136  1  0  0  0
 62137  1  0  0  0
 62138  1  0  0  0
 62139  1  0  0  0
 63 65  1  0  0  0
 63140  1  0  0  0
 63141  1  0  0  0
 63142  1  0  0  0
 64143  1  0  0  0
 65144  1  0  0  0
 68 80  1  0  0  0
 71 72  2  0  0  0
 71 73  1  0  0  0
 71145  1  0  0  0
 72 75  1  0  0  0
 72 83  1  0  0  0
 73 78  1  0  0  0
 73 84  2  0  0  0
 74 81  1  0  0  0
 74 83  2  0  0  0
 74 84  1  0  0  0
 75146  1  0  0  0
 75147  1  0  0  0
 75148  1  0  0  0
 76149  1  0  0  0
 76150  1  0  0  0
 76151  1  0  0  0
 76 81  1  0  0  0
 77152  1  0  0  0
 77153  1  0  0  0
 77154  1  0  0  0
 77 82  1  0  0  0
 78 79  1  0  0  0
 78155  1  0  0  0
 78156  1  0  0  0
 79 80  1  0  0  0
 79157  1  0  0  0
 79158  1  0  0  0
 80159  1  0  0  0
 80160  1  0  0  0
 81 82  1  0  0  0
 81161  1  0  0  0
 82 85  1  0  0  0
 82162  1  0  0  0
 85163  1  0  0  0
M  ISO  4   1 100  68 101  80 101  85 100
M  END
> <chiral flag>
0

> <version>
0

> <s_m_source_file>
/data/baiqing/PycharmProjects/Reinvent-master-3.2/result/LINK_invent/BTK/process_docking_weight1_custom_sum_contain_oxygen_bond_distance_aromatic_linkinvent_7_9_3/rearranged_h_0079.sdf

> <i_m_source_file_index>
62

> <r_mmod_Potential_Energy-OPLS-2005>
-445.097564697266

> <r_mmod_Stretch_Energy-OPLS-2005>
48.88037109375

> <r_mmod_Bend_Energy-OPLS-2005>
129.265487670898

> <r_mmod_Torsional_Energy-OPLS-2005>
182.084686279297

> <r_mmod_Improper_Torsional_Energy-OPLS-2005>
4.78701639175415

> <r_mmod_Van_der_Waal_Energy-OPLS-2005>
154.493743896484

> <r_mmod_Electrostatic_Energy-OPLS-2005>
-762.007568359375

> <r_mmod_Solvation_Energy-OPLS-2005>
-219.430694580078

> <b_mmod_Minimization_Converged-OPLS-2005>
0

> <r_mmod_RMS_Derivative-OPLS-2005>
1.6607483625412

$$$$
62
                    3D
 Structure written by MMmdl.
165172  0  0  1  0            999 V2000
  -30.7003  -14.4886   20.6552 C   0  0  0  0  0  0
  -30.4292  -12.3468   19.4188 C   0  0  0  0  0  0
  -29.4945  -12.5251   18.2057 C   0  0  0  0  0  0
  -28.0178  -12.3631   18.6174 C   0  0  0  0  0  0
  -27.6599  -13.2062   19.8686 C   0  0  2  0  0  0
  -28.6967  -12.9899   20.9891 C   0  0  0  0  0  0
  -25.2599  -13.8162   20.5669 C   0  0  0  0  0  0
  -24.1852  -13.0443   20.9176 C   0  0  0  0  0  0
  -24.6397  -11.6908   20.8724 C   0  0  0  0  0  0
  -23.9058  -10.4295   21.0392 C   0  0  0  0  0  0
  -24.3614   -9.4213   21.9174 C   0  0  0  0  0  0
  -23.6295   -8.2248   22.0751 C   0  0  0  0  0  0
  -22.4276   -8.0286   21.3544 C   0  0  0  0  0  0
  -21.9906   -9.0254   20.4642 C   0  0  0  0  0  0
  -22.7230  -10.2136   20.3044 C   0  0  0  0  0  0
  -21.6852   -6.0741   22.5288 C   0  0  0  0  0  0
  -21.4015   -6.5641   23.8221 C   0  0  0  0  0  0
  -21.3660   -5.6788   24.9181 C   0  0  0  0  0  0
  -21.6041   -4.3052   24.7228 C   0  0  0  0  0  0
  -21.8822   -3.8149   23.4348 C   0  0  0  0  0  0
  -21.9195   -4.6968   22.3407 C   0  0  0  0  0  0
  -22.7875  -13.5242   21.1839 C   0  0  0  0  0  0
  -22.1666   -4.2156   21.0984 F   0  0  0  0  0  0
  -21.5625   -3.4533   25.7736 F   0  0  0  0  0  0
  -30.0252  -13.3200   20.4486 N   0  0  0  0  0  0
  -26.3015  -12.9317   20.3311 N   0  0  0  0  0  0
  -25.9321  -11.6484   20.5739 N   0  0  0  0  0  0
  -22.0512  -12.8240   22.0397 N   0  0  0  0  0  0
  -25.4338  -15.1882   20.4068 N   0  0  0  0  0  0
  -31.7766  -14.7115   20.0927 O   0  0  0  0  0  0
  -21.6639   -6.8888   21.4253 O   0  0  0  0  0  0
  -22.3566  -14.5553   20.6695 O   0  0  0  0  0  0
  -24.6170  -31.8656   23.2071 C   0  0  0  0  0  0
  -25.9044  -32.4803   23.8387 C   0  0  1  0  0  0
  -27.2265  -27.4111   20.1022 C   0  0  0  0  0  0
  -25.5890  -33.8605   24.2304 N   0  0  0  0  0  0
  -23.4050  -30.4903   21.5478 C   0  0  2  0  0  0
  -24.8506  -28.9524   20.1121 C   0  0  0  0  0  0
  -22.7434  -29.4641   22.4961 C   0  0  0  0  0  0
  -18.0283  -28.1378   22.8471 C   0  0  0  0  0  0
  -24.1488  -36.7333   23.2644 C   0  0  0  0  0  0
  -25.9361  -30.8275   21.3600 C   0  0  0  0  0  0
  -26.0139  -29.4602   20.7060 C   0  0  0  0  0  0
  -27.2088  -28.6998   20.6903 C   0  0  0  0  0  0
  -26.0480  -26.9208   19.5042 C   0  0  0  0  0  0
  -24.8643  -27.6838   19.5056 C   0  0  0  0  0  0
  -23.6136  -29.8221   20.1620 C   0  0  0  0  0  0
  -25.4100  -36.3100   24.0334 C   0  0  1  0  0  0
  -20.5874  -28.3662   23.1301 C   0  0  2  0  0  0
  -20.6773  -26.9393   22.5418 C   0  0  0  0  0  0
  -19.5749  -26.6366   21.5221 C   0  0  0  0  0  0
  -18.1923  -26.7912   22.1618 C   0  0  0  0  0  0
  -19.1533  -28.8834   23.2883 C   0  0  0  0  0  0
  -18.9463  -30.1446   23.8890 C   0  0  0  0  0  0
  -17.6458  -30.6572   24.0567 C   0  0  0  0  0  0
  -25.9033  -34.9468   23.5115 C   0  0  0  0  0  0
  -16.5353  -29.9076   23.6335 C   0  0  0  0  0  0
  -16.7273  -28.6508   23.0319 C   0  0  0  0  0  0
  -26.4463  -31.6596   25.0731 C   0  0  0  0  0  0
  -25.3717  -31.3722   26.1480 C   0  0  0  0  0  0
  -27.0312  -30.3038   24.6129 C   0  0  0  0  0  0
  -27.6034  -32.4325   25.7489 C   0  0  0  0  0  0
  -27.5572  -37.1811   24.8455 C   0  0  0  0  0  0
  -21.4153  -29.3030   22.3713 N   0  0  0  0  0  0
  -26.4289  -37.3782   23.9403 N   0  0  0  0  0  0
  -24.6718  -31.0755   22.0969 N   0  0  0  0  0  0
  -23.4203  -28.8179   23.2996 O   0  0  0  0  0  0
  -28.3686  -26.6350   20.0933 O   0  0  0  0  0  0
  -26.5606  -34.8922   22.4688 O   0  0  0  0  0  0
  -23.5350  -32.1404   23.7462 O   0  0  0  0  0  0
  -30.3547  -15.1619   23.0611 C   0  0  0  0  0  0
  -30.5925  -20.3989   21.9778 C   0  0  0  0  0  0
  -28.1590  -20.2640   22.5280 C   0  0  0  0  0  0
  -28.6623  -22.8449   21.0364 C   0  0  0  0  0  0
  -28.5463  -24.0871   20.0948 C   0  0  0  0  0  0
  -28.8877  -21.4316   20.3832 C   0  0  0  0  0  0
  -30.6793  -17.0511   21.4185 C   0  0  0  0  0  0
  -30.1173  -17.9930   20.2996 C   0  0  0  0  0  0
  -28.3014  -25.4181   20.8734 C   0  0  0  0  0  0
  -30.1090  -15.5932   21.5952 C   0  0  1  0  0  0
  -29.1778  -20.2280   21.3686 C   0  0  0  0  0  0
  -28.9800  -18.8939   20.6868 N   0  3  0  0  0  0
  -31.4698  -12.4677   19.1132 H   0  0  0  0  0  0
  -30.3544  -11.3335   19.8165 H   0  0  0  0  0  0
  -29.7463  -11.8038   17.4272 H   0  0  0  0  0  0
  -29.6460  -13.5138   17.7710 H   0  0  0  0  0  0
  -27.8418  -11.3063   18.8230 H   0  0  0  0  0  0
  -27.3624  -12.6242   17.7856 H   0  0  0  0  0  0
  -27.7047  -14.2537   19.5704 H   0  0  0  0  0  0
  -28.6851  -11.9525   21.3253 H   0  0  0  0  0  0
  -28.4197  -13.5766   21.8619 H   0  0  0  0  0  0
  -25.2766   -9.5694   22.4728 H   0  0  0  0  0  0
  -24.0010   -7.4646   22.7469 H   0  0  0  0  0  0
  -21.0840   -8.8773   19.8942 H   0  0  0  0  0  0
  -22.3697  -10.9672   19.6144 H   0  0  0  0  0  0
  -21.2007   -7.6142   23.9736 H   0  0  0  0  0  0
  -21.1473   -6.0508   25.9086 H   0  0  0  0  0  0
  -22.0598   -2.7609   23.2846 H   0  0  0  0  0  0
  -22.4119  -11.9888   22.4767 H   0  0  0  0  0  0
  -21.1131  -13.1269   22.2591 H   0  0  0  0  0  0
  -24.6654  -15.8425   20.5044 H   0  0  0  0  0  0
  -26.2790  -15.6176   20.0535 H   0  0  0  0  0  0
  -26.7125  -32.5508   23.1154 H   0  0  0  0  0  0
  -25.0022  -33.9769   25.0432 H   0  0  0  0  0  0
  -22.6945  -31.3082   21.4085 H   0  0  0  0  0  0
  -23.3727  -35.9689   23.3306 H   0  0  0  0  0  0
  -24.3579  -36.8951   22.2061 H   0  0  0  0  0  0
  -23.7264  -37.6549   23.6663 H   0  0  0  0  0  0
  -26.0473  -31.5929   20.5908 H   0  0  0  0  0  0
  -26.8243  -30.8825   21.9780 H   0  0  0  0  0  0
  -28.1105  -29.0874   21.1450 H   0  0  0  0  0  0
  -26.0461  -25.9447   19.0400 H   0  0  0  0  0  0
  -23.9698  -27.2873   19.0447 H   0  0  0  0  0  0
  -23.7210  -30.5999   19.4049 H   0  0  0  0  0  0
  -22.7350  -29.2471   19.8651 H   0  0  0  0  0  0
  -25.1270  -36.1974   25.0825 H   0  0  0  0  0  0
  -20.9978  -28.3237   24.1417 H   0  0  0  0  0  0
  -20.5686  -26.2271   23.3606 H   0  0  0  0  0  0
  -21.6635  -26.7422   22.1200 H   0  0  0  0  0  0
  -19.6914  -25.6285   21.1232 H   0  0  0  0  0  0
  -19.6691  -27.3201   20.6770 H   0  0  0  0  0  0
  -17.4196  -26.6677   21.4016 H   0  0  0  0  0  0
  -18.0308  -26.0057   22.9015 H   0  0  0  0  0  0
  -19.7948  -30.7277   24.2223 H   0  0  0  0  0  0
  -17.5018  -31.6249   24.5180 H   0  0  0  0  0  0
  -15.5355  -30.2965   23.7666 H   0  0  0  0  0  0
  -15.8675  -28.0847   22.6983 H   0  0  0  0  0  0
  -24.5875  -30.7077   25.7827 H   0  0  0  0  0  0
  -24.8924  -32.2894   26.4925 H   0  0  0  0  0  0
  -25.8055  -30.8893   27.0246 H   0  0  0  0  0  0
  -26.2883  -29.6785   24.1160 H   0  0  0  0  0  0
  -27.4063  -29.7283   25.4601 H   0  0  0  0  0  0
  -27.8709  -30.4351   23.9295 H   0  0  0  0  0  0
  -27.2647  -33.3613   26.2090 H   0  0  0  0  0  0
  -28.3831  -32.6903   25.0311 H   0  0  0  0  0  0
  -28.0720  -31.8439   26.5387 H   0  0  0  0  0  0
  -28.2579  -38.0116   24.7494 H   0  0  0  0  0  0
  -28.1075  -36.2640   24.6278 H   0  0  0  0  0  0
  -27.2301  -37.1479   25.8864 H   0  0  0  0  0  0
  -20.9319  -29.8777   21.6953 H   0  0  0  0  0  0
  -26.0178  -38.2862   24.1391 H   0  0  0  0  0  0
  -29.8098  -15.7983   23.7589 H   0  0  0  0  0  0
  -31.4136  -15.2271   23.3159 H   0  0  0  0  0  0
  -30.0445  -14.1366   23.2610 H   0  0  0  0  0  0
  -30.6983  -21.3610   22.4763 H   0  0  0  0  0  0
  -31.3805  -20.3557   21.2266 H   0  0  0  0  0  0
  -30.8102  -19.6582   22.7436 H   0  0  0  0  0  0
  -28.2732  -21.1528   23.1476 H   0  0  0  0  0  0
  -28.2800  -19.4091   23.1945 H   0  0  0  0  0  0
  -27.1310  -20.2564   22.1615 H   0  0  0  0  0  0
  -27.7489  -22.8102   21.6306 H   0  0  0  0  0  0
  -29.4636  -23.0479   21.7457 H   0  0  0  0  0  0
  -27.7360  -23.9334   19.3829 H   0  0  0  0  0  0
  -29.4571  -24.1778   19.5037 H   0  0  0  0  0  0
  -29.7071  -21.4999   19.6659 H   0  0  0  0  0  0
  -28.0032  -21.2045   19.7866 H   0  0  0  0  0  0
  -30.6028  -17.5630   22.3737 H   0  0  0  0  0  0
  -31.7555  -16.9712   21.2571 H   0  0  0  0  0  0
  -29.7863  -17.3742   19.4648 H   0  0  0  0  0  0
  -30.9196  -18.6040   19.8864 H   0  0  0  0  0  0
  -29.0690  -25.5121   21.6412 H   0  0  0  0  0  0
  -27.3576  -25.3466   21.4182 H   0  0  0  0  0  0
  -29.0340  -15.6493   21.4270 H   0  0  0  0  0  0
  -28.3432  -18.3526   21.2495 H   0  0  0  0  0  0
  -28.4774  -19.0916   19.8353 H   0  0  0  0  0  0
  1 25  1  0  0  0
  1 30  2  0  0  0
  1 80  1  0  0  0
  2  3  1  0  0  0
  2 25  1  0  0  0
  2 83  1  0  0  0
  2 84  1  0  0  0
  3  4  1  0  0  0
  3 85  1  0  0  0
  3 86  1  0  0  0
  4  5  1  0  0  0
  4 87  1  0  0  0
  4 88  1  0  0  0
  5  6  1  0  0  0
  5 26  1  0  0  0
  5 89  1  0  0  0
  6 25  1  0  0  0
  6 90  1  0  0  0
  6 91  1  0  0  0
  7  8  2  0  0  0
  7 26  1  0  0  0
  7 29  1  0  0  0
  8  9  1  0  0  0
  8 22  1  0  0  0
  9 10  1  0  0  0
  9 27  2  0  0  0
 10 11  2  0  0  0
 10 15  1  0  0  0
 11 12  1  0  0  0
 11 92  1  0  0  0
 12 13  2  0  0  0
 12 93  1  0  0  0
 13 14  1  0  0  0
 13 31  1  0  0  0
 14 15  2  0  0  0
 14 94  1  0  0  0
 15 95  1  0  0  0
 16 17  2  0  0  0
 16 21  1  0  0  0
 16 31  1  0  0  0
 17 18  1  0  0  0
 17 96  1  0  0  0
 18 19  2  0  0  0
 18 97  1  0  0  0
 19 20  1  0  0  0
 19 24  1  0  0  0
 20 21  2  0  0  0
 20 98  1  0  0  0
 21 23  1  0  0  0
 22 28  1  0  0  0
 22 32  2  0  0  0
 26 27  1  0  0  0
 28 99  1  0  0  0
 28100  1  0  0  0
 29101  1  0  0  0
 29102  1  0  0  0
 33 34  1  0  0  0
 33 66  1  0  0  0
 33 70  2  0  0  0
 34 36  1  0  0  0
 34 59  1  0  0  0
 34103  1  0  0  0
 35 44  2  0  0  0
 35 45  1  0  0  0
 35 68  1  0  0  0
 36 56  1  0  0  0
 36104  1  0  0  0
 37 39  1  0  0  0
 37 47  1  0  0  0
 37 66  1  0  0  0
 37105  1  0  0  0
 38 43  2  0  0  0
 38 46  1  0  0  0
 38 47  1  0  0  0
 39 64  1  0  0  0
 39 67  2  0  0  0
 40 52  1  0  0  0
 40 53  2  0  0  0
 40 58  1  0  0  0
 41106  1  0  0  0
 41107  1  0  0  0
 41108  1  0  0  0
 41 48  1  0  0  0
 42 43  1  0  0  0
 42 66  1  0  0  0
 42109  1  0  0  0
 42110  1  0  0  0
 43 44  1  0  0  0
 44111  1  0  0  0
 45 46  2  0  0  0
 45112  1  0  0  0
 46113  1  0  0  0
 47114  1  0  0  0
 47115  1  0  0  0
 48 56  1  0  0  0
 48 65  1  0  0  0
 48116  1  0  0  0
 49 50  1  0  0  0
 49 53  1  0  0  0
 49 64  1  0  0  0
 49117  1  0  0  0
 50 51  1  0  0  0
 50118  1  0  0  0
 50119  1  0  0  0
 51 52  1  0  0  0
 51120  1  0  0  0
 51121  1  0  0  0
 52122  1  0  0  0
 52123  1  0  0  0
 53 54  1  0  0  0
 54 55  2  0  0  0
 54124  1  0  0  0
 55 57  1  0  0  0
 55125  1  0  0  0
 56 69  2  0  0  0
 57 58  2  0  0  0
 57126  1  0  0  0
 58127  1  0  0  0
 59 60  1  0  0  0
 59 61  1  0  0  0
 59 62  1  0  0  0
 60128  1  0  0  0
 60129  1  0  0  0
 60130  1  0  0  0
 61131  1  0  0  0
 61132  1  0  0  0
 61133  1  0  0  0
 62134  1  0  0  0
 62135  1  0  0  0
 62136  1  0  0  0
 63 65  1  0  0  0
 63137  1  0  0  0
 63138  1  0  0  0
 63139  1  0  0  0
 64140  1  0  0  0
 65141  1  0  0  0
 68 79  1  0  0  0
 71142  1  0  0  0
 71143  1  0  0  0
 71144  1  0  0  0
 71 80  1  0  0  0
 72145  1  0  0  0
 72146  1  0  0  0
 72147  1  0  0  0
 72 81  1  0  0  0
 73 81  1  0  0  0
 73148  1  0  0  0
 73149  1  0  0  0
 73150  1  0  0  0
 74 75  1  0  0  0
 74 76  1  0  0  0
 74151  1  0  0  0
 74152  1  0  0  0
 75 79  1  0  0  0
 75153  1  0  0  0
 75154  1  0  0  0
 76 81  1  0  0  0
 76155  1  0  0  0
 76156  1  0  0  0
 77 78  1  0  0  0
 77 80  1  0  0  0
 77157  1  0  0  0
 77158  1  0  0  0
 78 82  1  0  0  0
 78159  1  0  0  0
 78160  1  0  0  0
 79161  1  0  0  0
 79162  1  0  0  0
 80163  1  0  0  0
 81 82  1  0  0  0
 82164  1  0  0  0
 82165  1  0  0  0
M  CHG  1  82   1
M  ISO  4   1 100  68 101  79 101  80 100
M  END
> <chiral flag>
0

> <version>
0

> <s_m_source_file>
/data/baiqing/PycharmProjects/Reinvent-master-3.2/result/LINK_invent/BTK/process_docking_weight1_custom_sum_contain_oxygen_bond_distance_aromatic_linkinvent_7_9_3/rearranged_h_0079.sdf

> <i_m_source_file_index>
63

> <r_mmod_Potential_Energy-OPLS-2005>
-85.8300018310547

> <r_mmod_Stretch_Energy-OPLS-2005>
52.0175132751465

> <r_mmod_Bend_Energy-OPLS-2005>
127.211647033691

> <r_mmod_Torsional_Energy-OPLS-2005>
229.490539550781

> <r_mmod_Improper_Torsional_Energy-OPLS-2005>
1.78874611854553

> <r_mmod_Van_der_Waal_Energy-OPLS-2005>
130.030090332031

> <r_mmod_Electrostatic_Energy-OPLS-2005>
-206.822448730469

> <r_mmod_Solvation_Energy-OPLS-2005>
-434.573547363281

> <b_mmod_Minimization_Converged-OPLS-2005>
0

> <r_mmod_RMS_Derivative-OPLS-2005>
1.83504700660706

$$$$
63
                    3D
 Structure written by MMmdl.
167175  0  0  1  0            999 V2000
  -30.7148  -14.5208   20.5755 C   0  0  0  0  0  0
  -30.4191  -12.3427   19.4384 C   0  0  0  0  0  0
  -29.4978  -12.5100   18.2142 C   0  0  0  0  0  0
  -28.0205  -12.3617   18.6271 C   0  0  0  0  0  0
  -27.6551  -13.2196   19.8690 C   0  0  2  0  0  0
  -28.6975  -13.0497   20.9965 C   0  0  0  0  0  0
  -25.2557  -13.8195   20.5712 C   0  0  0  0  0  0
  -24.1823  -13.0445   20.9193 C   0  0  0  0  0  0
  -24.6398  -11.6918   20.8732 C   0  0  0  0  0  0
  -23.9076  -10.4291   21.0387 C   0  0  0  0  0  0
  -24.3620   -9.4204   21.9170 C   0  0  0  0  0  0
  -23.6290   -8.2242   22.0749 C   0  0  0  0  0  0
  -22.4270   -8.0282   21.3543 C   0  0  0  0  0  0
  -21.9912   -9.0256   20.4642 C   0  0  0  0  0  0
  -22.7244  -10.2132   20.3043 C   0  0  0  0  0  0
  -21.6853   -6.0734   22.5275 C   0  0  0  0  0  0
  -21.4013   -6.5636   23.8209 C   0  0  0  0  0  0
  -21.3665   -5.6785   24.9171 C   0  0  0  0  0  0
  -21.6050   -4.3052   24.7220 C   0  0  0  0  0  0
  -21.8817   -3.8145   23.4341 C   0  0  0  0  0  0
  -21.9191   -4.6963   22.3396 C   0  0  0  0  0  0
  -22.7843  -13.5226   21.1852 C   0  0  0  0  0  0
  -22.1655   -4.2150   21.0972 F   0  0  0  0  0  0
  -21.5633   -3.4536   25.7735 F   0  0  0  0  0  0
  -30.0208  -13.3546   20.4335 N   0  0  0  0  0  0
  -26.2992  -12.9383   20.3346 N   0  0  0  0  0  0
  -25.9327  -11.6528   20.5759 N   0  0  0  0  0  0
  -22.0485  -12.8222   22.0414 N   0  0  0  0  0  0
  -25.4266  -15.1922   20.4158 N   0  0  0  0  0  0
  -31.8546  -14.6576   20.1277 O   0  0  0  0  0  0
  -21.6637   -6.8877   21.4235 O   0  0  0  0  0  0
  -22.3522  -14.5531   20.6701 O   0  0  0  0  0  0
  -24.6240  -31.8646   23.2108 C   0  0  0  0  0  0
  -25.9108  -32.4805   23.8405 C   0  0  1  0  0  0
  -27.2205  -27.3736   20.1005 C   0  0  0  0  0  0
  -25.5947  -33.8602   24.2327 N   0  0  0  0  0  0
  -23.4120  -30.4983   21.5501 C   0  0  2  0  0  0
  -24.8567  -28.9704   20.1099 C   0  0  0  0  0  0
  -22.7440  -29.4679   22.4922 C   0  0  0  0  0  0
  -18.0292  -28.1381   22.8488 C   0  0  0  0  0  0
  -24.1491  -36.7308   23.2628 C   0  0  0  0  0  0
  -25.9523  -30.8167   21.3722 C   0  0  0  0  0  0
  -26.0273  -29.4508   20.7117 C   0  0  0  0  0  0
  -27.2134  -28.6639   20.7010 C   0  0  0  0  0  0
  -26.0222  -26.9445   19.4734 C   0  0  0  0  0  0
  -24.8537  -27.7194   19.4844 C   0  0  0  0  0  0
  -23.6236  -29.8443   20.1617 C   0  0  0  0  0  0
  -25.4108  -36.3089   24.0328 C   0  0  1  0  0  0
  -20.5887  -28.3681   23.1285 C   0  0  2  0  0  0
  -20.6781  -26.9404   22.5395 C   0  0  0  0  0  0
  -19.5753  -26.6379   21.5201 C   0  0  0  0  0  0
  -18.1936  -26.7928   22.1618 C   0  0  0  0  0  0
  -19.1537  -28.8846   23.2898 C   0  0  0  0  0  0
  -18.9460  -30.1453   23.8906 C   0  0  0  0  0  0
  -17.6456  -30.6589   24.0557 C   0  0  0  0  0  0
  -25.9041  -34.9459   23.5114 C   0  0  0  0  0  0
  -16.5351  -29.9077   23.6331 C   0  0  0  0  0  0
  -16.7274  -28.6499   23.0344 C   0  0  0  0  0  0
  -26.4497  -31.6592   25.0750 C   0  0  0  0  0  0
  -25.3753  -31.3712   26.1488 C   0  0  0  0  0  0
  -27.0327  -30.3021   24.6179 C   0  0  0  0  0  0
  -27.6088  -32.4290   25.7507 C   0  0  0  0  0  0
  -27.5584  -37.1801   24.8455 C   0  0  0  0  0  0
  -21.4154  -29.3064   22.3679 N   0  0  0  0  0  0
  -26.4282  -37.3786   23.9421 N   0  0  0  0  0  0
  -24.6814  -31.0742   22.1012 N   0  0  0  0  0  0
  -23.4188  -28.8188   23.2954 O   0  0  0  0  0  0
  -28.3403  -26.5344   20.1537 O   0  0  0  0  0  0
  -26.5571  -34.8905   22.4654 O   0  0  0  0  0  0
  -23.5417  -32.1383   23.7498 O   0  0  0  0  0  0
  -27.1753  -22.3120   19.6982 C   0  0  0  0  0  0
  -27.5609  -19.9328   19.6581 C   0  0  0  0  0  0
  -26.6885  -21.0139   19.4796 C   0  0  0  0  0  0
  -28.5129  -22.5134   20.1089 C   0  0  0  0  0  0
  -28.8860  -20.1654   20.0684 C   0  0  0  0  0  0
  -25.2517  -20.7846   19.0601 C   0  0  0  0  0  0
  -31.1901  -19.2350   19.5120 C   0  0  0  0  0  0
  -30.6247  -19.1185   22.5911 C   0  0  0  0  0  0
  -28.4992  -17.9002   22.1298 C   0  0  0  0  0  0
  -29.0652  -23.9595   20.3291 C   0  0  0  0  0  0
  -30.7318  -16.8285   21.5717 C   0  0  0  0  0  0
  -28.0467  -25.1083   19.9915 C   0  0  0  0  0  0
  -29.8348  -18.9331   20.1839 C   0  0  1  0  0  0
  -29.9152  -18.1867   21.5831 C   0  0  0  0  0  0
  -29.3441  -21.4397   20.3094 N   0  0  0  0  0  0
  -30.0688  -15.5695   21.1408 N   0  0  0  0  0  0
  -31.4644  -12.4366   19.1385 H   0  0  0  0  0  0
  -30.3197  -11.3417   19.8622 H   0  0  0  0  0  0
  -29.7488  -11.7728   17.4510 H   0  0  0  0  0  0
  -29.6593  -13.4892   17.7596 H   0  0  0  0  0  0
  -27.8420  -11.3069   18.8407 H   0  0  0  0  0  0
  -27.3691  -12.6152   17.7901 H   0  0  0  0  0  0
  -27.6841  -14.2613   19.5482 H   0  0  0  0  0  0
  -28.6853  -12.0271   21.3769 H   0  0  0  0  0  0
  -28.4540  -13.6852   21.8490 H   0  0  0  0  0  0
  -25.2763   -9.5689   22.4748 H   0  0  0  0  0  0
  -24.0005   -7.4636   22.7470 H   0  0  0  0  0  0
  -21.0848   -8.8772   19.8946 H   0  0  0  0  0  0
  -22.3697  -10.9671   19.6158 H   0  0  0  0  0  0
  -21.1997   -7.6142   23.9720 H   0  0  0  0  0  0
  -21.1497   -6.0511   25.9077 H   0  0  0  0  0  0
  -22.0596   -2.7608   23.2838 H   0  0  0  0  0  0
  -22.4089  -11.9878   22.4797 H   0  0  0  0  0  0
  -21.1103  -13.1251   22.2605 H   0  0  0  0  0  0
  -24.6647  -15.8502   20.5410 H   0  0  0  0  0  0
  -26.2836  -15.6351   20.1105 H   0  0  0  0  0  0
  -26.7197  -32.5485   23.1182 H   0  0  0  0  0  0
  -25.0172  -33.9758   25.0523 H   0  0  0  0  0  0
  -22.7058  -31.3208   21.4164 H   0  0  0  0  0  0
  -23.3745  -35.9645   23.3263 H   0  0  0  0  0  0
  -24.3612  -36.8947   22.2049 H   0  0  0  0  0  0
  -23.7232  -37.6503   23.6657 H   0  0  0  0  0  0
  -26.0810  -31.5852   20.6078 H   0  0  0  0  0  0
  -26.8336  -30.8612   22.0007 H   0  0  0  0  0  0
  -28.1110  -29.0274   21.1826 H   0  0  0  0  0  0
  -25.9417  -25.9946   18.9695 H   0  0  0  0  0  0
  -23.9580  -27.3449   19.0084 H   0  0  0  0  0  0
  -23.7386  -30.6248   19.4086 H   0  0  0  0  0  0
  -22.7447  -29.2734   19.8581 H   0  0  0  0  0  0
  -25.1284  -36.1940   25.0818 H   0  0  0  0  0  0
  -21.0015  -28.3249   24.1391 H   0  0  0  0  0  0
  -20.5686  -26.2273   23.3578 H   0  0  0  0  0  0
  -21.6653  -26.7440   22.1187 H   0  0  0  0  0  0
  -19.6907  -25.6283   21.1242 H   0  0  0  0  0  0
  -19.6707  -27.3182   20.6726 H   0  0  0  0  0  0
  -17.4198  -26.6660   21.4029 H   0  0  0  0  0  0
  -18.0362  -26.0070   22.9019 H   0  0  0  0  0  0
  -19.7932  -30.7278   24.2270 H   0  0  0  0  0  0
  -17.5005  -31.6273   24.5148 H   0  0  0  0  0  0
  -15.5351  -30.2971   23.7672 H   0  0  0  0  0  0
  -15.8671  -28.0829   22.7042 H   0  0  0  0  0  0
  -24.6004  -30.6951   25.7853 H   0  0  0  0  0  0
  -24.8852  -32.2853   26.4846 H   0  0  0  0  0  0
  -25.8115  -30.8991   27.0301 H   0  0  0  0  0  0
  -26.2890  -29.6775   24.1218 H   0  0  0  0  0  0
  -27.4036  -29.7286   25.4683 H   0  0  0  0  0  0
  -27.8756  -30.4302   23.9385 H   0  0  0  0  0  0
  -27.2771  -33.3639   26.2035 H   0  0  0  0  0  0
  -28.3942  -32.6744   25.0347 H   0  0  0  0  0  0
  -28.0687  -31.8406   26.5456 H   0  0  0  0  0  0
  -28.2573  -38.0128   24.7558 H   0  0  0  0  0  0
  -28.1110  -36.2663   24.6216 H   0  0  0  0  0  0
  -27.2322  -37.1389   25.8861 H   0  0  0  0  0  0
  -20.9273  -29.8823   21.6963 H   0  0  0  0  0  0
  -26.0157  -38.2856   24.1440 H   0  0  0  0  0  0
  -26.4961  -23.1350   19.5411 H   0  0  0  0  0  0
  -27.2141  -18.9239   19.4789 H   0  0  0  0  0  0
  -24.8619  -21.6349   18.4992 H   0  0  0  0  0  0
  -24.6268  -20.6395   19.9414 H   0  0  0  0  0  0
  -25.1668  -19.8988   18.4303 H   0  0  0  0  0  0
  -31.0352  -19.6402   18.5112 H   0  0  0  0  0  0
  -31.8033  -18.3437   19.3965 H   0  0  0  0  0  0
  -31.7625  -19.9718   20.0742 H   0  0  0  0  0  0
  -30.6059  -18.7096   23.6019 H   0  0  0  0  0  0
  -30.1524  -20.0996   22.6365 H   0  0  0  0  0  0
  -31.6716  -19.2738   22.3301 H   0  0  0  0  0  0
  -28.5366  -17.3434   23.0670 H   0  0  0  0  0  0
  -27.9046  -17.3188   21.4248 H   0  0  0  0  0  0
  -27.9506  -18.8203   22.3315 H   0  0  0  0  0  0
  -29.9615  -24.0834   19.7200 H   0  0  0  0  0  0
  -29.3807  -24.0492   21.3682 H   0  0  0  0  0  0
  -31.0344  -16.6127   22.5979 H   0  0  0  0  0  0
  -31.6761  -16.9669   21.0476 H   0  0  0  0  0  0
  -27.1721  -24.9049   20.6132 H   0  0  0  0  0  0
  -27.7737  -24.9602   18.9465 H   0  0  0  0  0  0
  -29.3844  -18.1932   19.5205 H   0  0  0  0  0  0
  -29.1184  -15.4143   21.4398 H   0  0  0  0  0  0
  1 25  1  0  0  0
  1 30  2  0  0  0
  1 86  1  0  0  0
  2  3  1  0  0  0
  2 25  1  0  0  0
  2 87  1  0  0  0
  2 88  1  0  0  0
  3  4  1  0  0  0
  3 89  1  0  0  0
  3 90  1  0  0  0
  4  5  1  0  0  0
  4 91  1  0  0  0
  4 92  1  0  0  0
  5  6  1  0  0  0
  5 26  1  0  0  0
  5 93  1  0  0  0
  6 25  1  0  0  0
  6 94  1  0  0  0
  6 95  1  0  0  0
  7  8  2  0  0  0
  7 26  1  0  0  0
  7 29  1  0  0  0
  8  9  1  0  0  0
  8 22  1  0  0  0
  9 10  1  0  0  0
  9 27  2  0  0  0
 10 11  2  0  0  0
 10 15  1  0  0  0
 11 12  1  0  0  0
 11 96  1  0  0  0
 12 13  2  0  0  0
 12 97  1  0  0  0
 13 14  1  0  0  0
 13 31  1  0  0  0
 14 15  2  0  0  0
 14 98  1  0  0  0
 15 99  1  0  0  0
 16 17  2  0  0  0
 16 21  1  0  0  0
 16 31  1  0  0  0
 17 18  1  0  0  0
 17100  1  0  0  0
 18 19  2  0  0  0
 18101  1  0  0  0
 19 20  1  0  0  0
 19 24  1  0  0  0
 20 21  2  0  0  0
 20102  1  0  0  0
 21 23  1  0  0  0
 22 28  1  0  0  0
 22 32  2  0  0  0
 26 27  1  0  0  0
 28103  1  0  0  0
 28104  1  0  0  0
 29105  1  0  0  0
 29106  1  0  0  0
 33 34  1  0  0  0
 33 66  1  0  0  0
 33 70  2  0  0  0
 34 36  1  0  0  0
 34 59  1  0  0  0
 34107  1  0  0  0
 35 44  2  0  0  0
 35 45  1  0  0  0
 35 68  1  0  0  0
 36 56  1  0  0  0
 36108  1  0  0  0
 37 39  1  0  0  0
 37 47  1  0  0  0
 37 66  1  0  0  0
 37109  1  0  0  0
 38 43  2  0  0  0
 38 46  1  0  0  0
 38 47  1  0  0  0
 39 64  1  0  0  0
 39 67  2  0  0  0
 40 52  1  0  0  0
 40 53  2  0  0  0
 40 58  1  0  0  0
 41110  1  0  0  0
 41111  1  0  0  0
 41112  1  0  0  0
 41 48  1  0  0  0
 42 43  1  0  0  0
 42 66  1  0  0  0
 42113  1  0  0  0
 42114  1  0  0  0
 43 44  1  0  0  0
 44115  1  0  0  0
 45 46  2  0  0  0
 45116  1  0  0  0
 46117  1  0  0  0
 47118  1  0  0  0
 47119  1  0  0  0
 48 56  1  0  0  0
 48 65  1  0  0  0
 48120  1  0  0  0
 49 50  1  0  0  0
 49 53  1  0  0  0
 49 64  1  0  0  0
 49121  1  0  0  0
 50 51  1  0  0  0
 50122  1  0  0  0
 50123  1  0  0  0
 51 52  1  0  0  0
 51124  1  0  0  0
 51125  1  0  0  0
 52126  1  0  0  0
 52127  1  0  0  0
 53 54  1  0  0  0
 54 55  2  0  0  0
 54128  1  0  0  0
 55 57  1  0  0  0
 55129  1  0  0  0
 56 69  2  0  0  0
 57 58  2  0  0  0
 57130  1  0  0  0
 58131  1  0  0  0
 59 60  1  0  0  0
 59 61  1  0  0  0
 59 62  1  0  0  0
 60132  1  0  0  0
 60133  1  0  0  0
 60134  1  0  0  0
 61135  1  0  0  0
 61136  1  0  0  0
 61137  1  0  0  0
 62138  1  0  0  0
 62139  1  0  0  0
 62140  1  0  0  0
 63 65  1  0  0  0
 63141  1  0  0  0
 63142  1  0  0  0
 63143  1  0  0  0
 64144  1  0  0  0
 65145  1  0  0  0
 68 82  1  0  0  0
 71 73  2  0  0  0
 71 74  1  0  0  0
 71146  1  0  0  0
 72 73  1  0  0  0
 72 75  2  0  0  0
 72147  1  0  0  0
 73 76  1  0  0  0
 74 80  1  0  0  0
 74 85  2  0  0  0
 75 83  1  0  0  0
 75 85  1  0  0  0
 76148  1  0  0  0
 76149  1  0  0  0
 76150  1  0  0  0
 77151  1  0  0  0
 77152  1  0  0  0
 77153  1  0  0  0
 77 83  1  0  0  0
 78154  1  0  0  0
 78155  1  0  0  0
 78156  1  0  0  0
 78 84  1  0  0  0
 79 84  1  0  0  0
 79157  1  0  0  0
 79158  1  0  0  0
 79159  1  0  0  0
 80 82  1  0  0  0
 80160  1  0  0  0
 80161  1  0  0  0
 81 84  1  0  0  0
 81 86  1  0  0  0
 81162  1  0  0  0
 81163  1  0  0  0
 82164  1  0  0  0
 82165  1  0  0  0
 83 84  1  0  0  0
 83166  1  0  0  0
 86167  1  0  0  0
M  ISO  4   1 100  68 101  82 101  86 100
M  END
> <chiral flag>
0

> <version>
0

> <s_m_source_file>
/data/baiqing/PycharmProjects/Reinvent-master-3.2/result/LINK_invent/BTK/process_docking_weight1_custom_sum_contain_oxygen_bond_distance_aromatic_linkinvent_7_9_3/rearranged_h_0079.sdf

> <i_m_source_file_index>
64

> <r_mmod_Potential_Energy-OPLS-2005>
-120.662399291992

> <r_mmod_Stretch_Energy-OPLS-2005>
63.8277816772461

> <r_mmod_Bend_Energy-OPLS-2005>
139.07746887207

> <r_mmod_Torsional_Energy-OPLS-2005>
211.071594238281

> <r_mmod_Improper_Torsional_Energy-OPLS-2005>
2.6455659866333

> <r_mmod_Van_der_Waal_Energy-OPLS-2005>
167.004455566406

> <r_mmod_Electrostatic_Energy-OPLS-2005>
-521.434387207031

> <r_mmod_Solvation_Energy-OPLS-2005>
-209.598693847656

> <b_mmod_Minimization_Converged-OPLS-2005>
0

> <r_mmod_RMS_Derivative-OPLS-2005>
1.80248272418976

$$$$
64
                    3D
 Structure written by MMmdl.
166174  0  0  1  0            999 V2000
  -30.7132  -14.4495   20.6122 C   0  0  0  0  0  0
  -30.4220  -12.3120   19.4094 C   0  0  0  0  0  0
  -29.4895  -12.5135   18.1984 C   0  0  0  0  0  0
  -28.0120  -12.3702   18.6141 C   0  0  0  0  0  0
  -27.6607  -13.2058   19.8740 C   0  0  2  0  0  0
  -28.7014  -12.9752   20.9913 C   0  0  0  0  0  0
  -25.2584  -13.8158   20.5675 C   0  0  0  0  0  0
  -24.1834  -13.0437   20.9169 C   0  0  0  0  0  0
  -24.6386  -11.6904   20.8727 C   0  0  0  0  0  0
  -23.9054  -10.4291   21.0401 C   0  0  0  0  0  0
  -24.3609   -9.4209   21.9180 C   0  0  0  0  0  0
  -23.6288   -8.2243   22.0752 C   0  0  0  0  0  0
  -22.4270   -8.0279   21.3543 C   0  0  0  0  0  0
  -21.9902   -9.0250   20.4645 C   0  0  0  0  0  0
  -22.7226  -10.2131   20.3052 C   0  0  0  0  0  0
  -21.6852   -6.0733   22.5279 C   0  0  0  0  0  0
  -21.4013   -6.5638   23.8212 C   0  0  0  0  0  0
  -21.3659   -5.6792   24.9175 C   0  0  0  0  0  0
  -21.6044   -4.3055   24.7226 C   0  0  0  0  0  0
  -21.8820   -3.8145   23.4348 C   0  0  0  0  0  0
  -21.9193   -4.6961   22.3403 C   0  0  0  0  0  0
  -22.7859  -13.5237   21.1840 C   0  0  0  0  0  0
  -22.1662   -4.2147   21.0981 F   0  0  0  0  0  0
  -21.5629   -3.4539   25.7739 F   0  0  0  0  0  0
  -30.0315  -13.2858   20.4400 N   0  0  0  0  0  0
  -26.3017  -12.9326   20.3358 N   0  0  0  0  0  0
  -25.9311  -11.6485   20.5754 N   0  0  0  0  0  0
  -22.0502  -12.8231   22.0400 N   0  0  0  0  0  0
  -25.4317  -15.1876   20.4098 N   0  0  0  0  0  0
  -31.8256  -14.6557   20.1199 O   0  0  0  0  0  0
  -21.6638   -6.8875   21.4240 O   0  0  0  0  0  0
  -22.3545  -14.5546   20.6695 O   0  0  0  0  0  0
  -24.6135  -31.8684   23.2098 C   0  0  0  0  0  0
  -25.9032  -32.4824   23.8392 C   0  0  1  0  0  0
  -27.2344  -27.4378   20.1034 C   0  0  0  0  0  0
  -25.5893  -33.8622   24.2327 N   0  0  0  0  0  0
  -23.4015  -30.4900   21.5502 C   0  0  2  0  0  0
  -24.8489  -28.9498   20.1215 C   0  0  0  0  0  0
  -22.7403  -29.4660   22.5002 C   0  0  0  0  0  0
  -18.0271  -28.1375   22.8494 C   0  0  0  0  0  0
  -24.1488  -36.7317   23.2638 C   0  0  0  0  0  0
  -25.9287  -30.8337   21.3625 C   0  0  0  0  0  0
  -26.0073  -29.4646   20.7182 C   0  0  0  0  0  0
  -27.2052  -28.7147   20.7076 C   0  0  0  0  0  0
  -26.0640  -26.9329   19.5030 C   0  0  0  0  0  0
  -24.8703  -27.6811   19.5137 C   0  0  0  0  0  0
  -23.6110  -29.8176   20.1668 C   0  0  0  0  0  0
  -25.4108  -36.3113   24.0337 C   0  0  1  0  0  0
  -20.5859  -28.3662   23.1324 C   0  0  2  0  0  0
  -20.6761  -26.9401   22.5419 C   0  0  0  0  0  0
  -19.5742  -26.6387   21.5213 C   0  0  0  0  0  0
  -18.1918  -26.7923   22.1623 C   0  0  0  0  0  0
  -19.1519  -28.8835   23.2905 C   0  0  0  0  0  0
  -18.9449  -30.1441   23.8916 C   0  0  0  0  0  0
  -17.6452  -30.6584   24.0568 C   0  0  0  0  0  0
  -25.9033  -34.9477   23.5129 C   0  0  0  0  0  0
  -16.5343  -29.9087   23.6325 C   0  0  0  0  0  0
  -16.7260  -28.6503   23.0347 C   0  0  0  0  0  0
  -26.4467  -31.6599   25.0714 C   0  0  0  0  0  0
  -25.3740  -31.3698   26.1469 C   0  0  0  0  0  0
  -27.0295  -30.3045   24.6074 C   0  0  0  0  0  0
  -27.6048  -32.4315   25.7472 C   0  0  0  0  0  0
  -27.5582  -37.1811   24.8465 C   0  0  0  0  0  0
  -21.4133  -29.3031   22.3734 N   0  0  0  0  0  0
  -26.4297  -37.3794   23.9406 N   0  0  0  0  0  0
  -24.6661  -31.0786   22.0996 N   0  0  0  0  0  0
  -23.4176  -28.8210   23.3050 O   0  0  0  0  0  0
  -28.4031  -26.7178   20.0302 O   0  0  0  0  0  0
  -26.5598  -34.8929   22.4693 O   0  0  0  0  0  0
  -23.5329  -32.1434   23.7496 O   0  0  0  0  0  0
  -29.4078  -19.7721   21.3151 C   0  0  0  0  0  0
  -28.4539  -20.6332   20.6936 C   0  0  0  0  0  0
  -29.8047  -18.8065   20.4267 C   0  0  0  0  0  0
  -28.2935  -20.1646   19.4156 C   0  0  0  0  0  0
  -27.4261  -20.6873   18.3096 C   0  0  0  0  0  0
  -32.2407  -18.3828   20.7303 C   0  0  0  0  0  0
  -29.2036  -18.2344   18.0375 C   0  0  0  0  0  0
  -27.7300  -21.8053   21.3421 C   0  0  0  0  0  0
  -28.5319  -23.1284   21.4381 C   0  0  0  0  0  0
  -28.0243  -24.2913   20.5456 C   0  0  0  0  0  0
  -30.6149  -16.7057   21.7120 C   0  0  0  0  0  0
  -28.5701  -25.6712   20.9928 C   0  0  0  0  0  0
  -30.8628  -17.7251   20.5605 C   0  0  1  0  0  0
  -29.0987  -19.0380   19.2504 N   0  0  0  0  0  0
  -30.0623  -15.4093   21.2926 N   0  0  0  0  0  0
  -31.4647  -12.4196   19.1051 H   0  0  0  0  0  0
  -30.3302  -11.2976   19.8004 H   0  0  0  0  0  0
  -29.7281  -11.7931   17.4149 H   0  0  0  0  0  0
  -29.6550  -13.5017   17.7662 H   0  0  0  0  0  0
  -27.8234  -11.3134   18.8072 H   0  0  0  0  0  0
  -27.3594  -12.6475   17.7856 H   0  0  0  0  0  0
  -27.7088  -14.2557   19.5839 H   0  0  0  0  0  0
  -28.6790  -11.9353   21.3205 H   0  0  0  0  0  0
  -28.4572  -13.5617   21.8777 H   0  0  0  0  0  0
  -25.2755   -9.5688   22.4752 H   0  0  0  0  0  0
  -24.0000   -7.4636   22.7471 H   0  0  0  0  0  0
  -21.0833   -8.8766   19.8951 H   0  0  0  0  0  0
  -22.3684  -10.9669   19.6161 H   0  0  0  0  0  0
  -21.2005   -7.6146   23.9715 H   0  0  0  0  0  0
  -21.1480   -6.0523   25.9078 H   0  0  0  0  0  0
  -22.0599   -2.7607   23.2849 H   0  0  0  0  0  0
  -22.4115  -11.9890   22.4785 H   0  0  0  0  0  0
  -21.1122  -13.1260   22.2610 H   0  0  0  0  0  0
  -24.6688  -15.8461   20.5237 H   0  0  0  0  0  0
  -26.2919  -15.6280   20.1079 H   0  0  0  0  0  0
  -26.7103  -32.5545   23.1161 H   0  0  0  0  0  0
  -25.0050  -33.9785   25.0476 H   0  0  0  0  0  0
  -22.6900  -31.3061   21.4088 H   0  0  0  0  0  0
  -23.3743  -35.9657   23.3314 H   0  0  0  0  0  0
  -24.3582  -36.8919   22.2051 H   0  0  0  0  0  0
  -23.7249  -37.6529   23.6646 H   0  0  0  0  0  0
  -26.0368  -31.5955   20.5891 H   0  0  0  0  0  0
  -26.8184  -30.8930   21.9775 H   0  0  0  0  0  0
  -28.1051  -29.1130   21.1556 H   0  0  0  0  0  0
  -26.0805  -25.9684   19.0158 H   0  0  0  0  0  0
  -23.9809  -27.2798   19.0476 H   0  0  0  0  0  0
  -23.7199  -30.5899   19.4044 H   0  0  0  0  0  0
  -22.7352  -29.2361   19.8728 H   0  0  0  0  0  0
  -25.1285  -36.1981   25.0830 H   0  0  0  0  0  0
  -20.9947  -28.3226   24.1446 H   0  0  0  0  0  0
  -20.5671  -26.2268   23.3602 H   0  0  0  0  0  0
  -21.6634  -26.7451   22.1209 H   0  0  0  0  0  0
  -19.6907  -25.6303   21.1229 H   0  0  0  0  0  0
  -19.6682  -27.3209   20.6754 H   0  0  0  0  0  0
  -17.4191  -26.6675   21.4021 H   0  0  0  0  0  0
  -18.0316  -26.0058   22.9011 H   0  0  0  0  0  0
  -19.7926  -30.7247   24.2295 H   0  0  0  0  0  0
  -17.5011  -31.6267   24.5165 H   0  0  0  0  0  0
  -15.5345  -30.2998   23.7639 H   0  0  0  0  0  0
  -15.8658  -28.0832   22.7052 H   0  0  0  0  0  0
  -24.5922  -30.7031   25.7814 H   0  0  0  0  0  0
  -24.8918  -32.2847   26.4921 H   0  0  0  0  0  0
  -25.8103  -30.8875   27.0226 H   0  0  0  0  0  0
  -26.2829  -29.6806   24.1144 H   0  0  0  0  0  0
  -27.4094  -29.7279   25.4518 H   0  0  0  0  0  0
  -27.8650  -30.4371   23.9196 H   0  0  0  0  0  0
  -27.2676  -33.3607   26.2078 H   0  0  0  0  0  0
  -28.3842  -32.6887   25.0286 H   0  0  0  0  0  0
  -28.0734  -31.8420   26.5365 H   0  0  0  0  0  0
  -28.2610  -38.0099   24.7508 H   0  0  0  0  0  0
  -28.1068  -36.2632   24.6296 H   0  0  0  0  0  0
  -27.2299  -37.1471   25.8869 H   0  0  0  0  0  0
  -20.9293  -29.8749   21.6954 H   0  0  0  0  0  0
  -26.0188  -38.2876   24.1400 H   0  0  0  0  0  0
  -29.7830  -19.8609   22.3260 H   0  0  0  0  0  0
  -26.9818  -21.6481   18.5674 H   0  0  0  0  0  0
  -26.6123  -19.9958   18.0905 H   0  0  0  0  0  0
  -28.0008  -20.8386   17.3955 H   0  0  0  0  0  0
  -32.4565  -19.0564   19.9004 H   0  0  0  0  0  0
  -33.0347  -17.6358   20.7570 H   0  0  0  0  0  0
  -32.2960  -18.9626   21.6521 H   0  0  0  0  0  0
  -30.1875  -18.3718   17.5884 H   0  0  0  0  0  0
  -28.4463  -18.5071   17.3045 H   0  0  0  0  0  0
  -29.0642  -17.1800   18.2779 H   0  0  0  0  0  0
  -27.4717  -21.4845   22.3524 H   0  0  0  0  0  0
  -26.7709  -21.9680   20.8504 H   0  0  0  0  0  0
  -29.5938  -22.9485   21.2650 H   0  0  0  0  0  0
  -28.4660  -23.4641   22.4741 H   0  0  0  0  0  0
  -26.9348  -24.3238   20.5654 H   0  0  0  0  0  0
  -28.3085  -24.0952   19.5112 H   0  0  0  0  0  0
  -29.9746  -17.1420   22.4793 H   0  0  0  0  0  0
  -31.5548  -16.4852   22.2215 H   0  0  0  0  0  0
  -29.6431  -25.5840   21.1663 H   0  0  0  0  0  0
  -28.1355  -25.9583   21.9524 H   0  0  0  0  0  0
  -30.9360  -17.1652   19.6298 H   0  0  0  0  0  0
  -29.1362  -15.1801   21.6210 H   0  0  0  0  0  0
  1 25  1  0  0  0
  1 30  2  0  0  0
  1 85  1  0  0  0
  2  3  1  0  0  0
  2 25  1  0  0  0
  2 86  1  0  0  0
  2 87  1  0  0  0
  3  4  1  0  0  0
  3 88  1  0  0  0
  3 89  1  0  0  0
  4  5  1  0  0  0
  4 90  1  0  0  0
  4 91  1  0  0  0
  5  6  1  0  0  0
  5 26  1  0  0  0
  5 92  1  0  0  0
  6 25  1  0  0  0
  6 93  1  0  0  0
  6 94  1  0  0  0
  7  8  2  0  0  0
  7 26  1  0  0  0
  7 29  1  0  0  0
  8  9  1  0  0  0
  8 22  1  0  0  0
  9 10  1  0  0  0
  9 27  2  0  0  0
 10 11  2  0  0  0
 10 15  1  0  0  0
 11 12  1  0  0  0
 11 95  1  0  0  0
 12 13  2  0  0  0
 12 96  1  0  0  0
 13 14  1  0  0  0
 13 31  1  0  0  0
 14 15  2  0  0  0
 14 97  1  0  0  0
 15 98  1  0  0  0
 16 17  2  0  0  0
 16 21  1  0  0  0
 16 31  1  0  0  0
 17 18  1  0  0  0
 17 99  1  0  0  0
 18 19  2  0  0  0
 18100  1  0  0  0
 19 20  1  0  0  0
 19 24  1  0  0  0
 20 21  2  0  0  0
 20101  1  0  0  0
 21 23  1  0  0  0
 22 28  1  0  0  0
 22 32  2  0  0  0
 26 27  1  0  0  0
 28102  1  0  0  0
 28103  1  0  0  0
 29104  1  0  0  0
 29105  1  0  0  0
 33 34  1  0  0  0
 33 66  1  0  0  0
 33 70  2  0  0  0
 34 36  1  0  0  0
 34 59  1  0  0  0
 34106  1  0  0  0
 35 44  2  0  0  0
 35 45  1  0  0  0
 35 68  1  0  0  0
 36 56  1  0  0  0
 36107  1  0  0  0
 37 39  1  0  0  0
 37 47  1  0  0  0
 37 66  1  0  0  0
 37108  1  0  0  0
 38 43  2  0  0  0
 38 46  1  0  0  0
 38 47  1  0  0  0
 39 64  1  0  0  0
 39 67  2  0  0  0
 40 52  1  0  0  0
 40 53  2  0  0  0
 40 58  1  0  0  0
 41109  1  0  0  0
 41110  1  0  0  0
 41111  1  0  0  0
 41 48  1  0  0  0
 42 43  1  0  0  0
 42 66  1  0  0  0
 42112  1  0  0  0
 42113  1  0  0  0
 43 44  1  0  0  0
 44114  1  0  0  0
 45 46  2  0  0  0
 45115  1  0  0  0
 46116  1  0  0  0
 47117  1  0  0  0
 47118  1  0  0  0
 48 56  1  0  0  0
 48 65  1  0  0  0
 48119  1  0  0  0
 49 50  1  0  0  0
 49 53  1  0  0  0
 49 64  1  0  0  0
 49120  1  0  0  0
 50 51  1  0  0  0
 50121  1  0  0  0
 50122  1  0  0  0
 51 52  1  0  0  0
 51123  1  0  0  0
 51124  1  0  0  0
 52125  1  0  0  0
 52126  1  0  0  0
 53 54  1  0  0  0
 54 55  2  0  0  0
 54127  1  0  0  0
 55 57  1  0  0  0
 55128  1  0  0  0
 56 69  2  0  0  0
 57 58  2  0  0  0
 57129  1  0  0  0
 58130  1  0  0  0
 59 60  1  0  0  0
 59 61  1  0  0  0
 59 62  1  0  0  0
 60131  1  0  0  0
 60132  1  0  0  0
 60133  1  0  0  0
 61134  1  0  0  0
 61135  1  0  0  0
 61136  1  0  0  0
 62137  1  0  0  0
 62138  1  0  0  0
 62139  1  0  0  0
 63 65  1  0  0  0
 63140  1  0  0  0
 63141  1  0  0  0
 63142  1  0  0  0
 64143  1  0  0  0
 65144  1  0  0  0
 68 82  1  0  0  0
 71 72  1  0  0  0
 71 73  2  0  0  0
 71145  1  0  0  0
 72 74  2  0  0  0
 72 78  1  0  0  0
 73 83  1  0  0  0
 73 84  1  0  0  0
 74 75  1  0  0  0
 74 84  1  0  0  0
 75146  1  0  0  0
 75147  1  0  0  0
 75148  1  0  0  0
 76149  1  0  0  0
 76150  1  0  0  0
 76151  1  0  0  0
 76 83  1  0  0  0
 77 84  1  0  0  0
 77152  1  0  0  0
 77153  1  0  0  0
 77154  1  0  0  0
 78 79  1  0  0  0
 78155  1  0  0  0
 78156  1  0  0  0
 79 80  1  0  0  0
 79157  1  0  0  0
 79158  1  0  0  0
 80 82  1  0  0  0
 80159  1  0  0  0
 80160  1  0  0  0
 81 83  1  0  0  0
 81 85  1  0  0  0
 81161  1  0  0  0
 81162  1  0  0  0
 82163  1  0  0  0
 82164  1  0  0  0
 83165  1  0  0  0
 85166  1  0  0  0
M  ISO  4   1 100  68 101  82 101  85 100
M  END
> <chiral flag>
0

> <version>
0

> <s_m_source_file>
/data/baiqing/PycharmProjects/Reinvent-master-3.2/result/LINK_invent/BTK/process_docking_weight1_custom_sum_contain_oxygen_bond_distance_aromatic_linkinvent_7_9_3/rearranged_h_0079.sdf

> <i_m_source_file_index>
65

> <r_mmod_Potential_Energy-OPLS-2005>
-121.385536193848

> <r_mmod_Stretch_Energy-OPLS-2005>
35.5656967163086

> <r_mmod_Bend_Energy-OPLS-2005>
101.773529052734

> <r_mmod_Torsional_Energy-OPLS-2005>
257.933837890625

> <r_mmod_Improper_Torsional_Energy-OPLS-2005>
2.50351810455322

> <r_mmod_Van_der_Waal_Energy-OPLS-2005>
122.036605834961

> <r_mmod_Electrostatic_Energy-OPLS-2005>
-449.517303466797

> <r_mmod_Solvation_Energy-OPLS-2005>
-201.635330200195

> <b_mmod_Minimization_Converged-OPLS-2005>
0

> <r_mmod_RMS_Derivative-OPLS-2005>
0.311005532741547

$$$$
65
                    3D
 Structure written by MMmdl.
163171  0  0  1  0            999 V2000
  -30.6521  -14.5677   20.5300 C   0  0  0  0  0  0
  -30.4503  -12.3682   19.4070 C   0  0  0  0  0  0
  -29.5062  -12.5392   18.2002 C   0  0  0  0  0  0
  -28.0230  -12.4155   18.6098 C   0  0  0  0  0  0
  -27.6673  -13.2348   19.8781 C   0  0  2  0  0  0
  -28.7198  -13.0189   20.9911 C   0  0  0  0  0  0
  -25.2642  -13.8255   20.5720 C   0  0  0  0  0  0
  -24.1925  -13.0461   20.9245 C   0  0  0  0  0  0
  -24.6544  -11.6967   20.8813 C   0  0  0  0  0  0
  -23.9231  -10.4303   21.0455 C   0  0  0  0  0  0
  -24.3757   -9.4180   21.9196 C   0  0  0  0  0  0
  -23.6381   -8.2234   22.0752 C   0  0  0  0  0  0
  -22.4334   -8.0320   21.3572 C   0  0  0  0  0  0
  -22.0033   -9.0324   20.4664 C   0  0  0  0  0  0
  -22.7433  -10.2167   20.3080 C   0  0  0  0  0  0
  -21.6840   -6.0778   22.5304 C   0  0  0  0  0  0
  -21.3973   -6.5653   23.8245 C   0  0  0  0  0  0
  -21.3669   -5.6794   24.9210 C   0  0  0  0  0  0
  -21.6059   -4.3052   24.7233 C   0  0  0  0  0  0
  -21.8831   -3.8171   23.4332 C   0  0  0  0  0  0
  -21.9192   -4.7010   22.3406 C   0  0  0  0  0  0
  -22.7940  -13.5228   21.1868 C   0  0  0  0  0  0
  -22.1668   -4.2211   21.0986 F   0  0  0  0  0  0
  -21.5647   -3.4520   25.7715 F   0  0  0  0  0  0
  -30.0427  -13.3481   20.4278 N   0  0  0  0  0  0
  -26.3097  -12.9470   20.3399 N   0  0  0  0  0  0
  -25.9460  -11.6611   20.5802 N   0  0  0  0  0  0
  -22.0549  -12.8224   22.0425 N   0  0  0  0  0  0
  -25.4319  -15.1974   20.4131 N   0  0  0  0  0  0
  -31.7926  -14.7791   20.1121 O   0  0  0  0  0  0
  -21.6655   -6.8940   21.4274 O   0  0  0  0  0  0
  -22.3615  -14.5493   20.6679 O   0  0  0  0  0  0
  -24.6188  -31.8634   23.2061 C   0  0  0  0  0  0
  -25.9086  -32.4763   23.8332 C   0  0  1  0  0  0
  -27.2094  -27.3450   20.1230 C   0  0  0  0  0  0
  -25.5946  -33.8562   24.2273 N   0  0  0  0  0  0
  -23.4064  -30.4901   21.5492 C   0  0  2  0  0  0
  -24.8492  -28.9459   20.1076 C   0  0  0  0  0  0
  -22.7407  -29.4654   22.4975 C   0  0  0  0  0  0
  -18.0275  -28.1372   22.8490 C   0  0  0  0  0  0
  -24.1493  -36.7239   23.2633 C   0  0  0  0  0  0
  -25.9449  -30.7964   21.3754 C   0  0  0  0  0  0
  -26.0139  -29.4269   20.7176 C   0  0  0  0  0  0
  -27.1978  -28.6379   20.7199 C   0  0  0  0  0  0
  -26.0374  -26.9175   19.4655 C   0  0  0  0  0  0
  -24.8601  -27.6945   19.4708 C   0  0  0  0  0  0
  -23.6139  -29.8252   20.1622 C   0  0  0  0  0  0
  -25.4123  -36.3057   24.0327 C   0  0  1  0  0  0
  -20.5874  -28.3678   23.1295 C   0  0  2  0  0  0
  -20.6781  -26.9409   22.5430 C   0  0  0  0  0  0
  -19.5773  -26.6379   21.5222 C   0  0  0  0  0  0
  -18.1934  -26.7924   22.1595 C   0  0  0  0  0  0
  -19.1525  -28.8843   23.2883 C   0  0  0  0  0  0
  -18.9449  -30.1455   23.8888 C   0  0  0  0  0  0
  -17.6458  -30.6578   24.0563 C   0  0  0  0  0  0
  -25.9063  -34.9441   23.5087 C   0  0  0  0  0  0
  -16.5352  -29.9066   23.6350 C   0  0  0  0  0  0
  -16.7265  -28.6479   23.0369 C   0  0  0  0  0  0
  -26.4485  -31.6541   25.0662 C   0  0  0  0  0  0
  -25.3726  -31.3698   26.1390 C   0  0  0  0  0  0
  -27.0303  -30.2954   24.6103 C   0  0  0  0  0  0
  -27.6057  -32.4276   25.7393 C   0  0  0  0  0  0
  -27.5581  -37.1767   24.8470 C   0  0  0  0  0  0
  -21.4144  -29.3003   22.3661 N   0  0  0  0  0  0
  -26.4297  -37.3755   23.9428 N   0  0  0  0  0  0
  -24.6749  -31.0670   22.0994 N   0  0  0  0  0  0
  -23.4150  -28.8235   23.3074 O   0  0  0  0  0  0
  -28.3460  -26.5337   20.1446 O   0  0  0  0  0  0
  -26.5614  -34.8922   22.4649 O   0  0  0  0  0  0
  -23.5380  -32.1422   23.7425 O   0  0  0  0  0  0
  -30.5730  -22.4425   21.7844 C   0  0  0  0  0  0
  -31.3888  -21.4924   22.3483 C   0  0  0  0  0  0
  -30.1269  -20.5028   20.7762 C   0  0  0  0  0  0
  -32.3981  -21.5913   23.4548 C   0  0  0  0  0  0
  -26.9749  -24.7070   21.3380 C   0  0  0  0  0  0
  -29.4938  -19.4038   19.9241 C   0  0  0  0  0  0
  -30.0679  -17.9270   19.8731 C   0  0  0  0  0  0
  -28.8578  -24.0570   19.6970 C   0  0  0  0  0  0
  -28.7388  -22.5004   20.0155 C   0  0  0  0  0  0
  -29.9763  -17.0266   21.1485 C   0  0  0  0  0  0
  -28.3062  -25.1549   20.6887 C   0  0  1  0  0  0
  -29.8154  -21.8334   20.8159 N   0  0  0  0  0  0
  -31.0862  -20.3197   21.6967 N   0  3  0  0  0  0
  -29.8330  -15.5580   20.9615 N   0  0  0  0  0  0
  -31.4827  -12.5196   19.0834 H   0  0  0  0  0  0
  -30.4008  -11.3484   19.7896 H   0  0  0  0  0  0
  -29.7324  -11.8028   17.4288 H   0  0  0  0  0  0
  -29.6883  -13.5128   17.7447 H   0  0  0  0  0  0
  -27.8132  -11.3615   18.7787 H   0  0  0  0  0  0
  -27.3872  -12.7237   17.7808 H   0  0  0  0  0  0
  -27.6962  -14.2881   19.5968 H   0  0  0  0  0  0
  -28.7141  -11.9886   21.3436 H   0  0  0  0  0  0
  -28.4841  -13.6258   21.8667 H   0  0  0  0  0  0
  -25.2914   -9.5572   22.4795 H   0  0  0  0  0  0
  -24.0070   -7.4585   22.7435 H   0  0  0  0  0  0
  -21.0959   -8.8914   19.8969 H   0  0  0  0  0  0
  -22.3960  -10.9733   19.6177 H   0  0  0  0  0  0
  -21.1911   -7.6143   23.9770 H   0  0  0  0  0  0
  -21.1491   -6.0501   25.9118 H   0  0  0  0  0  0
  -22.0594   -2.7638   23.2819 H   0  0  0  0  0  0
  -22.4104  -11.9881   22.4857 H   0  0  0  0  0  0
  -21.1140  -13.1245   22.2530 H   0  0  0  0  0  0
  -24.6696  -15.8551   20.5346 H   0  0  0  0  0  0
  -26.2733  -15.6354   20.0600 H   0  0  0  0  0  0
  -26.7133  -32.5402   23.1049 H   0  0  0  0  0  0
  -25.0112  -33.9739   25.0436 H   0  0  0  0  0  0
  -22.6986  -31.3120   21.4185 H   0  0  0  0  0  0
  -23.3780  -35.9540   23.3290 H   0  0  0  0  0  0
  -24.3585  -36.8843   22.2041 H   0  0  0  0  0  0
  -23.7224  -37.6444   23.6640 H   0  0  0  0  0  0
  -26.0878  -31.5653   20.6149 H   0  0  0  0  0  0
  -26.8225  -30.8310   22.0079 H   0  0  0  0  0  0
  -28.0903  -29.0027   21.2073 H   0  0  0  0  0  0
  -26.0187  -25.9655   18.9546 H   0  0  0  0  0  0
  -23.9718  -27.3280   18.9751 H   0  0  0  0  0  0
  -23.7193  -30.6039   19.4076 H   0  0  0  0  0  0
  -22.7299  -29.2563   19.8682 H   0  0  0  0  0  0
  -25.1321  -36.1880   25.0817 H   0  0  0  0  0  0
  -20.9982  -28.3264   24.1414 H   0  0  0  0  0  0
  -20.5707  -26.2283   23.3623 H   0  0  0  0  0  0
  -21.6652  -26.7462   22.1234 H   0  0  0  0  0  0
  -19.6949  -25.6295   21.1229 H   0  0  0  0  0  0
  -19.6735  -27.3207   20.6774 H   0  0  0  0  0  0
  -17.4250  -26.6728   21.3946 H   0  0  0  0  0  0
  -18.0291  -26.0046   22.8948 H   0  0  0  0  0  0
  -19.7939  -30.7275   24.2234 H   0  0  0  0  0  0
  -17.5016  -31.6267   24.5160 H   0  0  0  0  0  0
  -15.5348  -30.2955   23.7711 H   0  0  0  0  0  0
  -15.8654  -28.0792   22.7100 H   0  0  0  0  0  0
  -24.5989  -30.6910   25.7786 H   0  0  0  0  0  0
  -24.8771  -32.2835   26.4670 H   0  0  0  0  0  0
  -25.8057  -30.9042   27.0244 H   0  0  0  0  0  0
  -26.2845  -29.6692   24.1168 H   0  0  0  0  0  0
  -27.4063  -29.7217   25.4589 H   0  0  0  0  0  0
  -27.8702  -30.4245   23.9267 H   0  0  0  0  0  0
  -27.2701  -33.3606   26.1943 H   0  0  0  0  0  0
  -28.3837  -32.6785   25.0166 H   0  0  0  0  0  0
  -28.0744  -31.8397   26.5299 H   0  0  0  0  0  0
  -28.2629  -38.0043   24.7525 H   0  0  0  0  0  0
  -28.1062  -36.2578   24.6296 H   0  0  0  0  0  0
  -27.2298  -37.1409   25.8877 H   0  0  0  0  0  0
  -20.9326  -29.8588   21.6756 H   0  0  0  0  0  0
  -26.0155  -38.2819   24.1469 H   0  0  0  0  0  0
  -30.4730  -23.4931   22.0146 H   0  0  0  0  0  0
  -31.9022  -21.5739   24.4259 H   0  0  0  0  0  0
  -32.9690  -22.5198   23.3768 H   0  0  0  0  0  0
  -33.0999  -20.7578   23.4319 H   0  0  0  0  0  0
  -27.1081  -23.7862   21.9049 H   0  0  0  0  0  0
  -26.2101  -24.4938   20.5932 H   0  0  0  0  0  0
  -26.5837  -25.4491   22.0362 H   0  0  0  0  0  0
  -29.5276  -19.8014   18.9099 H   0  0  0  0  0  0
  -28.4426  -19.3881   20.2094 H   0  0  0  0  0  0
  -31.0934  -17.9386   19.5066 H   0  0  0  0  0  0
  -29.5056  -17.4185   19.0873 H   0  0  0  0  0  0
  -28.3128  -24.2103   18.7654 H   0  0  0  0  0  0
  -29.8942  -24.2880   19.4473 H   0  0  0  0  0  0
  -28.7169  -21.9804   19.0590 H   0  0  0  0  0  0
  -27.7878  -22.2501   20.4827 H   0  0  0  0  0  0
  -29.0536  -17.3180   21.6509 H   0  0  0  0  0  0
  -30.7917  -17.2243   21.8435 H   0  0  0  0  0  0
  -29.0150  -25.2030   21.5166 H   0  0  0  0  0  0
  -31.5103  -19.4251   21.9082 H   0  0  0  0  0  0
  -28.9367  -15.2077   21.2706 H   0  0  0  0  0  0
  1 25  1  0  0  0
  1 30  2  0  0  0
  1 84  1  0  0  0
  2  3  1  0  0  0
  2 25  1  0  0  0
  2 85  1  0  0  0
  2 86  1  0  0  0
  3  4  1  0  0  0
  3 87  1  0  0  0
  3 88  1  0  0  0
  4  5  1  0  0  0
  4 89  1  0  0  0
  4 90  1  0  0  0
  5  6  1  0  0  0
  5 26  1  0  0  0
  5 91  1  0  0  0
  6 25  1  0  0  0
  6 92  1  0  0  0
  6 93  1  0  0  0
  7  8  2  0  0  0
  7 26  1  0  0  0
  7 29  1  0  0  0
  8  9  1  0  0  0
  8 22  1  0  0  0
  9 10  1  0  0  0
  9 27  2  0  0  0
 10 11  2  0  0  0
 10 15  1  0  0  0
 11 12  1  0  0  0
 11 94  1  0  0  0
 12 13  2  0  0  0
 12 95  1  0  0  0
 13 14  1  0  0  0
 13 31  1  0  0  0
 14 15  2  0  0  0
 14 96  1  0  0  0
 15 97  1  0  0  0
 16 17  2  0  0  0
 16 21  1  0  0  0
 16 31  1  0  0  0
 17 18  1  0  0  0
 17 98  1  0  0  0
 18 19  2  0  0  0
 18 99  1  0  0  0
 19 20  1  0  0  0
 19 24  1  0  0  0
 20 21  2  0  0  0
 20100  1  0  0  0
 21 23  1  0  0  0
 22 28  1  0  0  0
 22 32  2  0  0  0
 26 27  1  0  0  0
 28101  1  0  0  0
 28102  1  0  0  0
 29103  1  0  0  0
 29104  1  0  0  0
 33 34  1  0  0  0
 33 66  1  0  0  0
 33 70  2  0  0  0
 34 36  1  0  0  0
 34 59  1  0  0  0
 34105  1  0  0  0
 35 44  2  0  0  0
 35 45  1  0  0  0
 35 68  1  0  0  0
 36 56  1  0  0  0
 36106  1  0  0  0
 37 39  1  0  0  0
 37 47  1  0  0  0
 37 66  1  0  0  0
 37107  1  0  0  0
 38 43  2  0  0  0
 38 46  1  0  0  0
 38 47  1  0  0  0
 39 64  1  0  0  0
 39 67  2  0  0  0
 40 52  1  0  0  0
 40 53  2  0  0  0
 40 58  1  0  0  0
 41108  1  0  0  0
 41109  1  0  0  0
 41110  1  0  0  0
 41 48  1  0  0  0
 42 43  1  0  0  0
 42 66  1  0  0  0
 42111  1  0  0  0
 42112  1  0  0  0
 43 44  1  0  0  0
 44113  1  0  0  0
 45 46  2  0  0  0
 45114  1  0  0  0
 46115  1  0  0  0
 47116  1  0  0  0
 47117  1  0  0  0
 48 56  1  0  0  0
 48 65  1  0  0  0
 48118  1  0  0  0
 49 50  1  0  0  0
 49 53  1  0  0  0
 49 64  1  0  0  0
 49119  1  0  0  0
 50 51  1  0  0  0
 50120  1  0  0  0
 50121  1  0  0  0
 51 52  1  0  0  0
 51122  1  0  0  0
 51123  1  0  0  0
 52124  1  0  0  0
 52125  1  0  0  0
 53 54  1  0  0  0
 54 55  2  0  0  0
 54126  1  0  0  0
 55 57  1  0  0  0
 55127  1  0  0  0
 56 69  2  0  0  0
 57 58  2  0  0  0
 57128  1  0  0  0
 58129  1  0  0  0
 59 60  1  0  0  0
 59 61  1  0  0  0
 59 62  1  0  0  0
 60130  1  0  0  0
 60131  1  0  0  0
 60132  1  0  0  0
 61133  1  0  0  0
 61134  1  0  0  0
 61135  1  0  0  0
 62136  1  0  0  0
 62137  1  0  0  0
 62138  1  0  0  0
 63 65  1  0  0  0
 63139  1  0  0  0
 63140  1  0  0  0
 63141  1  0  0  0
 64142  1  0  0  0
 65143  1  0  0  0
 68 81  1  0  0  0
 71 72  2  0  0  0
 71 82  1  0  0  0
 71144  1  0  0  0
 72 74  1  0  0  0
 72 83  1  0  0  0
 73 76  1  0  0  0
 73 82  1  0  0  0
 73 83  2  0  0  0
 74145  1  0  0  0
 74146  1  0  0  0
 74147  1  0  0  0
 75148  1  0  0  0
 75149  1  0  0  0
 75150  1  0  0  0
 75 81  1  0  0  0
 76 77  1  0  0  0
 76151  1  0  0  0
 76152  1  0  0  0
 77 80  1  0  0  0
 77153  1  0  0  0
 77154  1  0  0  0
 78 79  1  0  0  0
 78 81  1  0  0  0
 78155  1  0  0  0
 78156  1  0  0  0
 79 82  1  0  0  0
 79157  1  0  0  0
 79158  1  0  0  0
 80 84  1  0  0  0
 80159  1  0  0  0
 80160  1  0  0  0
 81161  1  0  0  0
 83162  1  0  0  0
 84163  1  0  0  0
M  CHG  1  83   1
M  ISO  4   1 100  68 101  81 101  84 100
M  END
> <chiral flag>
0

> <version>
0

> <s_m_source_file>
/data/baiqing/PycharmProjects/Reinvent-master-3.2/result/LINK_invent/BTK/process_docking_weight1_custom_sum_contain_oxygen_bond_distance_aromatic_linkinvent_7_9_3/rearranged_h_0079.sdf

> <i_m_source_file_index>
66

> <r_mmod_Potential_Energy-OPLS-2005>
-10.951247215271

> <r_mmod_Stretch_Energy-OPLS-2005>
63.3321075439453

> <r_mmod_Bend_Energy-OPLS-2005>
155.04931640625

> <r_mmod_Torsional_Energy-OPLS-2005>
248.111907958984

> <r_mmod_Improper_Torsional_Energy-OPLS-2005>
4.54129076004028

> <r_mmod_Van_der_Waal_Energy-OPLS-2005>
120.019897460938

> <r_mmod_Electrostatic_Energy-OPLS-2005>
-218.163360595703

> <r_mmod_Solvation_Energy-OPLS-2005>
-415.962219238281

> <b_mmod_Minimization_Converged-OPLS-2005>
0

> <r_mmod_RMS_Derivative-OPLS-2005>
6.04400825500488

$$$$
66
                    3D
 Structure written by MMmdl.
164172  0  0  1  0            999 V2000
  -30.7265  -14.4825   20.5196 C   0  0  0  0  0  0
  -30.4124  -12.2990   19.4448 C   0  0  0  0  0  0
  -29.4936  -12.4843   18.2210 C   0  0  0  0  0  0
  -28.0133  -12.3584   18.6260 C   0  0  0  0  0  0
  -27.6564  -13.2141   19.8721 C   0  0  2  0  0  0
  -28.6990  -13.0445   21.0000 C   0  0  0  0  0  0
  -25.2563  -13.8196   20.5701 C   0  0  0  0  0  0
  -24.1808  -13.0467   20.9194 C   0  0  0  0  0  0
  -24.6363  -11.6928   20.8743 C   0  0  0  0  0  0
  -23.9027  -10.4309   21.0386 C   0  0  0  0  0  0
  -24.3584   -9.4240   21.9165 C   0  0  0  0  0  0
  -23.6290   -8.2256   22.0732 C   0  0  0  0  0  0
  -22.4284   -8.0276   21.3516 C   0  0  0  0  0  0
  -21.9900   -9.0240   20.4623 C   0  0  0  0  0  0
  -22.7197  -10.2141   20.3043 C   0  0  0  0  0  0
  -21.6868   -6.0733   22.5263 C   0  0  0  0  0  0
  -21.4009   -6.5629   23.8202 C   0  0  0  0  0  0
  -21.3673   -5.6790   24.9161 C   0  0  0  0  0  0
  -21.6047   -4.3044   24.7221 C   0  0  0  0  0  0
  -21.8824   -3.8140   23.4339 C   0  0  0  0  0  0
  -21.9201   -4.6956   22.3397 C   0  0  0  0  0  0
  -22.7828  -13.5249   21.1882 C   0  0  0  0  0  0
  -22.1668   -4.2148   21.0973 F   0  0  0  0  0  0
  -21.5647   -3.4532   25.7734 F   0  0  0  0  0  0
  -30.0299  -13.3181   20.4347 N   0  0  0  0  0  0
  -26.2994  -12.9362   20.3362 N   0  0  0  0  0  0
  -25.9285  -11.6525   20.5770 N   0  0  0  0  0  0
  -22.0460  -12.8225   22.0431 N   0  0  0  0  0  0
  -25.4327  -15.1910   20.4071 N   0  0  0  0  0  0
  -31.8876  -14.5868   20.1195 O   0  0  0  0  0  0
  -21.6651   -6.8864   21.4227 O   0  0  0  0  0  0
  -22.3503  -14.5560   20.6736 O   0  0  0  0  0  0
  -24.6164  -31.8659   23.2141 C   0  0  0  0  0  0
  -25.9066  -32.4821   23.8393 C   0  0  1  0  0  0
  -27.2340  -27.4301   20.0770 C   0  0  0  0  0  0
  -25.5903  -33.8617   24.2333 N   0  0  0  0  0  0
  -23.4007  -30.4934   21.5565 C   0  0  2  0  0  0
  -24.8466  -28.9655   20.1154 C   0  0  0  0  0  0
  -22.7366  -29.4663   22.5013 C   0  0  0  0  0  0
  -18.0249  -28.1359   22.8514 C   0  0  0  0  0  0
  -24.1487  -36.7324   23.2634 C   0  0  0  0  0  0
  -25.9315  -30.8347   21.3625 C   0  0  0  0  0  0
  -26.0100  -29.4691   20.7093 C   0  0  0  0  0  0
  -27.2058  -28.7079   20.6896 C   0  0  0  0  0  0
  -26.0425  -26.9554   19.4727 C   0  0  0  0  0  0
  -24.8601  -27.7090   19.4913 C   0  0  0  0  0  0
  -23.6048  -29.8242   20.1711 C   0  0  0  0  0  0
  -25.4100  -36.3115   24.0343 C   0  0  1  0  0  0
  -20.5841  -28.3632   23.1349 C   0  0  2  0  0  0
  -20.6755  -26.9382   22.5406 C   0  0  0  0  0  0
  -19.5732  -26.6387   21.5191 C   0  0  0  0  0  0
  -18.1912  -26.7924   22.1609 C   0  0  0  0  0  0
  -19.1505  -28.8803   23.2946 C   0  0  0  0  0  0
  -18.9426  -30.1418   23.8943 C   0  0  0  0  0  0
  -17.6430  -30.6586   24.0538 C   0  0  0  0  0  0
  -25.9009  -34.9478   23.5126 C   0  0  0  0  0  0
  -16.5320  -29.9062   23.6342 C   0  0  0  0  0  0
  -16.7240  -28.6472   23.0386 C   0  0  0  0  0  0
  -26.4477  -31.6623   25.0735 C   0  0  0  0  0  0
  -25.3731  -31.3698   26.1470 C   0  0  0  0  0  0
  -27.0322  -30.3085   24.6123 C   0  0  0  0  0  0
  -27.6071  -32.4322   25.7481 C   0  0  0  0  0  0
  -27.5582  -37.1812   24.8458 C   0  0  0  0  0  0
  -21.4083  -29.3044   22.3771 N   0  0  0  0  0  0
  -26.4297  -37.3806   23.9412 N   0  0  0  0  0  0
  -24.6689  -31.0760   22.1038 N   0  0  0  0  0  0
  -23.4146  -28.8183   23.3032 O   0  0  0  0  0  0
  -28.4077  -26.6895   20.0784 O   0  0  0  0  0  0
  -26.5545  -34.8926   22.4666 O   0  0  0  0  0  0
  -23.5376  -32.1385   23.7564 O   0  0  0  0  0  0
  -32.9290  -20.8748   21.5804 C   0  0  0  0  0  0
  -32.3417  -21.7206   20.6300 C   0  0  0  0  0  0
  -32.2994  -19.6536   21.8936 C   0  0  0  0  0  0
  -31.1479  -21.3177   20.0165 C   0  0  0  0  0  0
  -31.0715  -19.3318   21.2597 C   0  0  0  0  0  0
  -32.9789  -18.7220   22.8848 C   0  0  0  0  0  0
  -28.8368  -18.3115   21.9259 C   0  0  0  0  0  0
  -30.5364  -22.1764   18.9168 C   0  0  0  0  0  0
  -29.3154  -23.0197   19.3408 C   0  0  0  0  0  0
  -29.5946  -24.4862   19.7590 C   0  0  0  0  0  0
  -30.4681  -16.9590   20.4677 C   0  0  0  0  0  0
  -28.2962  -25.3137   19.6818 C   0  0  0  0  0  0
  -30.3059  -18.0252   21.5772 C   0  0  1  0  0  0
  -30.5272  -20.1515   20.3226 N   0  0  0  0  0  0
  -30.0250  -15.5891   20.8314 N   0  0  0  0  0  0
  -31.4569  -12.3817   19.1354 H   0  0  0  0  0  0
  -30.3053  -11.2990   19.8701 H   0  0  0  0  0  0
  -29.7313  -11.7443   17.4562 H   0  0  0  0  0  0
  -29.6762  -13.4629   17.7746 H   0  0  0  0  0  0
  -27.8082  -11.3038   18.8222 H   0  0  0  0  0  0
  -27.3725  -12.6409   17.7907 H   0  0  0  0  0  0
  -27.6941  -14.2563   19.5545 H   0  0  0  0  0  0
  -28.6700  -12.0271   21.3957 H   0  0  0  0  0  0
  -28.4681  -13.7030   21.8395 H   0  0  0  0  0  0
  -25.2713   -9.5758   22.4750 H   0  0  0  0  0  0
  -24.0030   -7.4653   22.7435 H   0  0  0  0  0  0
  -21.0849   -8.8716   19.8913 H   0  0  0  0  0  0
  -22.3610  -10.9669   19.6163 H   0  0  0  0  0  0
  -21.1981   -7.6135   23.9706 H   0  0  0  0  0  0
  -21.1497   -6.0506   25.9068 H   0  0  0  0  0  0
  -22.0601   -2.7605   23.2836 H   0  0  0  0  0  0
  -22.4075  -11.9875   22.4800 H   0  0  0  0  0  0
  -21.1055  -13.1199   22.2609 H   0  0  0  0  0  0
  -24.6754  -15.8557   20.5204 H   0  0  0  0  0  0
  -26.2867  -15.6208   20.0736 H   0  0  0  0  0  0
  -26.7126  -32.5557   23.1139 H   0  0  0  0  0  0
  -25.0090  -33.9747   25.0512 H   0  0  0  0  0  0
  -22.6924  -31.3133   21.4219 H   0  0  0  0  0  0
  -23.3747  -35.9654   23.3279 H   0  0  0  0  0  0
  -24.3567  -36.8947   22.2048 H   0  0  0  0  0  0
  -23.7237  -37.6530   23.6634 H   0  0  0  0  0  0
  -26.0349  -31.6009   20.5909 H   0  0  0  0  0  0
  -26.8221  -30.8945   21.9763 H   0  0  0  0  0  0
  -28.1063  -29.0953   21.1478 H   0  0  0  0  0  0
  -25.9857  -26.0043   18.9650 H   0  0  0  0  0  0
  -23.9703  -27.3182   19.0162 H   0  0  0  0  0  0
  -23.6890  -30.5948   19.4042 H   0  0  0  0  0  0
  -22.7329  -29.2275   19.8949 H   0  0  0  0  0  0
  -25.1294  -36.1952   25.0839 H   0  0  0  0  0  0
  -20.9938  -28.3184   24.1461 H   0  0  0  0  0  0
  -20.5639  -26.2223   23.3574 H   0  0  0  0  0  0
  -21.6637  -26.7436   22.1206 H   0  0  0  0  0  0
  -19.6872  -25.6287   21.1239 H   0  0  0  0  0  0
  -19.6693  -27.3183   20.6712 H   0  0  0  0  0  0
  -17.4180  -26.6670   21.4016 H   0  0  0  0  0  0
  -18.0325  -26.0049   22.8986 H   0  0  0  0  0  0
  -19.7896  -30.7232   24.2367 H   0  0  0  0  0  0
  -17.4970  -31.6290   24.5088 H   0  0  0  0  0  0
  -15.5322  -30.2937   23.7680 H   0  0  0  0  0  0
  -15.8650  -28.0764   22.7129 H   0  0  0  0  0  0
  -24.5911  -30.7053   25.7766 H   0  0  0  0  0  0
  -24.8915  -32.2847   26.4943 H   0  0  0  0  0  0
  -25.8069  -30.8822   27.0210 H   0  0  0  0  0  0
  -26.2878  -29.6819   24.1206 H   0  0  0  0  0  0
  -27.4116  -29.7364   25.4594 H   0  0  0  0  0  0
  -27.8685  -30.4419   23.9257 H   0  0  0  0  0  0
  -27.2733  -33.3620   26.2087 H   0  0  0  0  0  0
  -28.3860  -32.6877   25.0286 H   0  0  0  0  0  0
  -28.0751  -31.8415   26.5361 H   0  0  0  0  0  0
  -28.2610  -38.0109   24.7544 H   0  0  0  0  0  0
  -28.1076  -36.2650   24.6240 H   0  0  0  0  0  0
  -27.2297  -37.1419   25.8860 H   0  0  0  0  0  0
  -20.9180  -29.8761   21.7034 H   0  0  0  0  0  0
  -26.0182  -38.2881   24.1403 H   0  0  0  0  0  0
  -33.8598  -21.1544   22.0515 H   0  0  0  0  0  0
  -32.8159  -22.6549   20.3567 H   0  0  0  0  0  0
  -33.9687  -19.0911   23.1620 H   0  0  0  0  0  0
  -33.1169  -17.7365   22.4404 H   0  0  0  0  0  0
  -32.3901  -18.6156   23.7968 H   0  0  0  0  0  0
  -28.7732  -19.0331   22.7404 H   0  0  0  0  0  0
  -28.3121  -17.4106   22.2388 H   0  0  0  0  0  0
  -28.3060  -18.7329   21.0716 H   0  0  0  0  0  0
  -30.2264  -21.4978   18.1204 H   0  0  0  0  0  0
  -31.3012  -22.8123   18.4687 H   0  0  0  0  0  0
  -28.7279  -22.4956   20.0964 H   0  0  0  0  0  0
  -28.6694  -23.0638   18.4640 H   0  0  0  0  0  0
  -30.3342  -24.9266   19.0888 H   0  0  0  0  0  0
  -30.0197  -24.5161   20.7616 H   0  0  0  0  0  0
  -31.5214  -16.9649   20.1808 H   0  0  0  0  0  0
  -29.9263  -17.2787   19.5776 H   0  0  0  0  0  0
  -27.5297  -24.8213   20.2836 H   0  0  0  0  0  0
  -27.9687  -25.2801   18.6422 H   0  0  0  0  0  0
  -30.7301  -17.5979   22.4834 H   0  0  0  0  0  0
  -29.0671  -15.4652   21.1257 H   0  0  0  0  0  0
  1 25  1  0  0  0
  1 30  2  0  0  0
  1 85  1  0  0  0
  2  3  1  0  0  0
  2 25  1  0  0  0
  2 86  1  0  0  0
  2 87  1  0  0  0
  3  4  1  0  0  0
  3 88  1  0  0  0
  3 89  1  0  0  0
  4  5  1  0  0  0
  4 90  1  0  0  0
  4 91  1  0  0  0
  5  6  1  0  0  0
  5 26  1  0  0  0
  5 92  1  0  0  0
  6 25  1  0  0  0
  6 93  1  0  0  0
  6 94  1  0  0  0
  7  8  2  0  0  0
  7 26  1  0  0  0
  7 29  1  0  0  0
  8  9  1  0  0  0
  8 22  1  0  0  0
  9 10  1  0  0  0
  9 27  2  0  0  0
 10 11  2  0  0  0
 10 15  1  0  0  0
 11 12  1  0  0  0
 11 95  1  0  0  0
 12 13  2  0  0  0
 12 96  1  0  0  0
 13 14  1  0  0  0
 13 31  1  0  0  0
 14 15  2  0  0  0
 14 97  1  0  0  0
 15 98  1  0  0  0
 16 17  2  0  0  0
 16 21  1  0  0  0
 16 31  1  0  0  0
 17 18  1  0  0  0
 17 99  1  0  0  0
 18 19  2  0  0  0
 18100  1  0  0  0
 19 20  1  0  0  0
 19 24  1  0  0  0
 20 21  2  0  0  0
 20101  1  0  0  0
 21 23  1  0  0  0
 22 28  1  0  0  0
 22 32  2  0  0  0
 26 27  1  0  0  0
 28102  1  0  0  0
 28103  1  0  0  0
 29104  1  0  0  0
 29105  1  0  0  0
 33 34  1  0  0  0
 33 66  1  0  0  0
 33 70  2  0  0  0
 34 36  1  0  0  0
 34 59  1  0  0  0
 34106  1  0  0  0
 35 44  2  0  0  0
 35 45  1  0  0  0
 35 68  1  0  0  0
 36 56  1  0  0  0
 36107  1  0  0  0
 37 39  1  0  0  0
 37 47  1  0  0  0
 37 66  1  0  0  0
 37108  1  0  0  0
 38 43  2  0  0  0
 38 46  1  0  0  0
 38 47  1  0  0  0
 39 64  1  0  0  0
 39 67  2  0  0  0
 40 52  1  0  0  0
 40 53  2  0  0  0
 40 58  1  0  0  0
 41109  1  0  0  0
 41110  1  0  0  0
 41111  1  0  0  0
 41 48  1  0  0  0
 42 43  1  0  0  0
 42 66  1  0  0  0
 42112  1  0  0  0
 42113  1  0  0  0
 43 44  1  0  0  0
 44114  1  0  0  0
 45 46  2  0  0  0
 45115  1  0  0  0
 46116  1  0  0  0
 47117  1  0  0  0
 47118  1  0  0  0
 48 56  1  0  0  0
 48 65  1  0  0  0
 48119  1  0  0  0
 49 50  1  0  0  0
 49 53  1  0  0  0
 49 64  1  0  0  0
 49120  1  0  0  0
 50 51  1  0  0  0
 50121  1  0  0  0
 50122  1  0  0  0
 51 52  1  0  0  0
 51123  1  0  0  0
 51124  1  0  0  0
 52125  1  0  0  0
 52126  1  0  0  0
 53 54  1  0  0  0
 54 55  2  0  0  0
 54127  1  0  0  0
 55 57  1  0  0  0
 55128  1  0  0  0
 56 69  2  0  0  0
 57 58  2  0  0  0
 57129  1  0  0  0
 58130  1  0  0  0
 59 60  1  0  0  0
 59 61  1  0  0  0
 59 62  1  0  0  0
 60131  1  0  0  0
 60132  1  0  0  0
 60133  1  0  0  0
 61134  1  0  0  0
 61135  1  0  0  0
 61136  1  0  0  0
 62137  1  0  0  0
 62138  1  0  0  0
 62139  1  0  0  0
 63 65  1  0  0  0
 63140  1  0  0  0
 63141  1  0  0  0
 63142  1  0  0  0
 64143  1  0  0  0
 65144  1  0  0  0
 68 82  1  0  0  0
 71 72  2  0  0  0
 71 73  1  0  0  0
 71145  1  0  0  0
 72 74  1  0  0  0
 72146  1  0  0  0
 73 75  2  0  0  0
 73 76  1  0  0  0
 74 78  1  0  0  0
 74 84  2  0  0  0
 75 83  1  0  0  0
 75 84  1  0  0  0
 76147  1  0  0  0
 76148  1  0  0  0
 76149  1  0  0  0
 77150  1  0  0  0
 77151  1  0  0  0
 77152  1  0  0  0
 77 83  1  0  0  0
 78 79  1  0  0  0
 78153  1  0  0  0
 78154  1  0  0  0
 79 80  1  0  0  0
 79155  1  0  0  0
 79156  1  0  0  0
 80 82  1  0  0  0
 80157  1  0  0  0
 80158  1  0  0  0
 81 83  1  0  0  0
 81 85  1  0  0  0
 81159  1  0  0  0
 81160  1  0  0  0
 82161  1  0  0  0
 82162  1  0  0  0
 83163  1  0  0  0
 85164  1  0  0  0
M  ISO  4   1 100  68 101  82 101  85 100
M  END
> <chiral flag>
0

> <version>
0

> <s_m_source_file>
/data/baiqing/PycharmProjects/Reinvent-master-3.2/result/LINK_invent/BTK/process_docking_weight1_custom_sum_contain_oxygen_bond_distance_aromatic_linkinvent_7_9_3/rearranged_h_0079.sdf

> <i_m_source_file_index>
67

> <r_mmod_Potential_Energy-OPLS-2005>
-226.91242980957

> <r_mmod_Stretch_Energy-OPLS-2005>
39.5048217773438

> <r_mmod_Bend_Energy-OPLS-2005>
102.62622833252

> <r_mmod_Torsional_Energy-OPLS-2005>
193.708343505859

> <r_mmod_Improper_Torsional_Energy-OPLS-2005>
6.02120351791382

> <r_mmod_Van_der_Waal_Energy-OPLS-2005>
163.984756469727

> <r_mmod_Electrostatic_Energy-OPLS-2005>
-534.99609375

> <r_mmod_Solvation_Energy-OPLS-2005>
-215.274658203125

> <b_mmod_Minimization_Converged-OPLS-2005>
0

> <r_mmod_RMS_Derivative-OPLS-2005>
3.40791058540344

$$$$
67
                    3D
 Structure written by MMmdl.
174182  0  0  1  0            999 V2000
  -30.5676  -14.7741   20.4574 C   0  0  0  0  0  0
  -30.4360  -12.4780   19.4507 C   0  0  0  0  0  0
  -29.5024  -12.5022   18.2207 C   0  0  0  0  0  0
  -28.0297  -12.3199   18.6418 C   0  0  0  0  0  0
  -27.6319  -13.2266   19.8369 C   0  0  2  0  0  0
  -28.6797  -13.1654   20.9659 C   0  0  0  0  0  0
  -25.2491  -13.8188   20.5707 C   0  0  0  0  0  0
  -24.1775  -13.0426   20.9220 C   0  0  0  0  0  0
  -24.6367  -11.6914   20.8736 C   0  0  0  0  0  0
  -23.9053  -10.4291   21.0408 C   0  0  0  0  0  0
  -24.3612   -9.4213   21.9189 C   0  0  0  0  0  0
  -23.6293   -8.2241   22.0751 C   0  0  0  0  0  0
  -22.4286   -8.0276   21.3537 C   0  0  0  0  0  0
  -21.9915   -9.0244   20.4655 C   0  0  0  0  0  0
  -22.7226  -10.2130   20.3062 C   0  0  0  0  0  0
  -21.6842   -6.0738   22.5278 C   0  0  0  0  0  0
  -21.4018   -6.5646   23.8212 C   0  0  0  0  0  0
  -21.3657   -5.6798   24.9175 C   0  0  0  0  0  0
  -21.6037   -4.3056   24.7229 C   0  0  0  0  0  0
  -21.8819   -3.8149   23.4352 C   0  0  0  0  0  0
  -21.9201   -4.6968   22.3405 C   0  0  0  0  0  0
  -22.7820  -13.5241   21.1882 C   0  0  0  0  0  0
  -22.1663   -4.2156   21.0974 F   0  0  0  0  0  0
  -21.5629   -3.4538   25.7738 F   0  0  0  0  0  0
  -29.9681  -13.5374   20.3710 N   0  0  0  0  0  0
  -26.2878  -12.9366   20.3222 N   0  0  0  0  0  0
  -25.9284  -11.6519   20.5728 N   0  0  0  0  0  0
  -22.0465  -12.8203   22.0444 N   0  0  0  0  0  0
  -25.4192  -15.1892   20.4113 N   0  0  0  0  0  0
  -31.7756  -14.8848   20.2272 O   0  0  0  0  0  0
  -21.6636   -6.8887   21.4243 O   0  0  0  0  0  0
  -22.3497  -14.5521   20.6733 O   0  0  0  0  0  0
  -24.6276  -31.8570   23.1996 C   0  0  0  0  0  0
  -25.9126  -32.4749   23.8315 C   0  0  1  0  0  0
  -27.1944  -27.2707   20.1458 C   0  0  0  0  0  0
  -25.5962  -33.8553   24.2237 N   0  0  0  0  0  0
  -23.4209  -30.4865   21.5377 C   0  0  2  0  0  0
  -24.8655  -28.9400   20.1007 C   0  0  0  0  0  0
  -22.7484  -29.4616   22.4851 C   0  0  0  0  0  0
  -18.0297  -28.1391   22.8437 C   0  0  0  0  0  0
  -24.1502  -36.7292   23.2628 C   0  0  0  0  0  0
  -25.9651  -30.7847   21.3703 C   0  0  0  0  0  0
  -26.0391  -29.4062   20.7122 C   0  0  0  0  0  0
  -27.2117  -28.5847   20.7181 C   0  0  0  0  0  0
  -26.0078  -26.8705   19.4972 C   0  0  0  0  0  0
  -24.8536  -27.6828   19.4791 C   0  0  0  0  0  0
  -23.6367  -29.8265   20.1492 C   0  0  0  0  0  0
  -25.4133  -36.3041   24.0289 C   0  0  1  0  0  0
  -20.5892  -28.3703   23.1225 C   0  0  2  0  0  0
  -20.6797  -26.9424   22.5383 C   0  0  0  0  0  0
  -19.5781  -26.6374   21.5182 C   0  0  0  0  0  0
  -18.1946  -26.7931   22.1588 C   0  0  0  0  0  0
  -19.1549  -28.8870   23.2825 C   0  0  0  0  0  0
  -18.9488  -30.1472   23.8851 C   0  0  0  0  0  0
  -17.6486  -30.6584   24.0555 C   0  0  0  0  0  0
  -25.9071  -34.9423   23.5050 C   0  0  0  0  0  0
  -16.5370  -29.9088   23.6334 C   0  0  0  0  0  0
  -16.7282  -28.6517   23.0326 C   0  0  0  0  0  0
  -26.4513  -31.6579   25.0696 C   0  0  0  0  0  0
  -25.3751  -31.3757   26.1434 C   0  0  0  0  0  0
  -27.0359  -30.2984   24.6203 C   0  0  0  0  0  0
  -27.6041  -32.4354   25.7508 C   0  0  0  0  0  0
  -27.5585  -37.1795   24.8444 C   0  0  0  0  0  0
  -21.4191  -29.3051   22.3621 N   0  0  0  0  0  0
  -26.4290  -37.3756   23.9384 N   0  0  0  0  0  0
  -24.6901  -31.0596   22.0937 N   0  0  0  0  0  0
  -23.4194  -28.8147   23.2938 O   0  0  0  0  0  0
  -28.2697  -26.3610   20.1812 O   0  0  0  0  0  0
  -26.5633  -34.8900   22.4609 O   0  0  0  0  0  0
  -23.5448  -32.1375   23.7338 O   0  0  0  0  0  0
  -27.4876  -18.7819   19.9687 C   0  0  0  0  0  0
  -26.3829  -19.6544   19.9440 C   0  0  0  0  0  0
  -28.6015  -19.4943   20.3299 C   0  0  0  0  0  0
  -26.7681  -20.8972   20.3260 C   0  0  0  0  0  0
  -25.8653  -22.0733   20.5606 C   0  0  0  0  0  0
  -24.9342  -19.7526   17.2003 C   0  0  0  0  0  0
  -23.5173  -17.9688   18.2920 C   0  0  0  0  0  0
  -31.0425  -19.6194   21.0848 C   0  0  0  0  0  0
  -30.4516  -18.4775   18.9588 C   0  0  0  0  0  0
  -28.5582  -23.6292   20.0146 C   0  0  0  0  0  0
  -28.8733  -22.2274   20.8082 C   0  0  0  0  0  0
  -30.0622  -17.2799   21.1824 C   0  0  0  0  0  0
  -28.0319  -24.9855   20.7494 C   0  0  0  0  0  0
  -24.8638  -18.7004   18.3193 C   0  0  0  0  0  0
  -29.9823  -18.7281   20.4012 C   0  0  0  0  0  0
  -28.1711  -20.9063   20.4542 N   0  0  0  0  0  0
  -25.0652  -19.3115   19.6276 N   0  0  0  0  0  0
  -29.7532  -15.8894   20.6181 N   0  0  0  0  0  0
  -31.4691  -12.6373   19.1376 H   0  0  0  0  0  0
  -30.4125  -11.5050   19.9439 H   0  0  0  0  0  0
  -29.7871  -11.7205   17.5157 H   0  0  0  0  0  0
  -29.6151  -13.4490   17.6900 H   0  0  0  0  0  0
  -27.8922  -11.2726   18.9130 H   0  0  0  0  0  0
  -27.3678  -12.5011   17.7934 H   0  0  0  0  0  0
  -27.6214  -14.2444   19.4459 H   0  0  0  0  0  0
  -28.7295  -12.1668   21.4004 H   0  0  0  0  0  0
  -28.4103  -13.8411   21.7796 H   0  0  0  0  0  0
  -25.2759   -9.5686   22.4766 H   0  0  0  0  0  0
  -24.0005   -7.4634   22.7452 H   0  0  0  0  0  0
  -21.0855   -8.8766   19.8948 H   0  0  0  0  0  0
  -22.3690  -10.9676   19.6171 H   0  0  0  0  0  0
  -21.2003   -7.6150   23.9724 H   0  0  0  0  0  0
  -21.1477   -6.0522   25.9080 H   0  0  0  0  0  0
  -22.0600   -2.7620   23.2841 H   0  0  0  0  0  0
  -22.4092  -11.9865   22.4814 H   0  0  0  0  0  0
  -21.1083  -13.1232   22.2659 H   0  0  0  0  0  0
  -24.6518  -15.8443   20.5216 H   0  0  0  0  0  0
  -26.2608  -15.6332   20.0694 H   0  0  0  0  0  0
  -26.7201  -32.5409   23.1073 H   0  0  0  0  0  0
  -25.0072  -33.9686   25.0372 H   0  0  0  0  0  0
  -22.7138  -31.3091   21.3968 H   0  0  0  0  0  0
  -23.3730  -35.9653   23.3257 H   0  0  0  0  0  0
  -24.3575  -36.8970   22.2040 H   0  0  0  0  0  0
  -23.7313  -37.6494   23.6711 H   0  0  0  0  0  0
  -26.0974  -31.5542   20.6058 H   0  0  0  0  0  0
  -26.8426  -30.8304   22.0034 H   0  0  0  0  0  0
  -28.1126  -28.9269   21.2044 H   0  0  0  0  0  0
  -25.9660  -25.9056   19.0081 H   0  0  0  0  0  0
  -23.9537  -27.3306   18.9882 H   0  0  0  0  0  0
  -23.7545  -30.6033   19.3933 H   0  0  0  0  0  0
  -22.7579  -29.2547   19.8445 H   0  0  0  0  0  0
  -25.1325  -36.1840   25.0783 H   0  0  0  0  0  0
  -21.0004  -28.3319   24.1343 H   0  0  0  0  0  0
  -20.5697  -26.2328   23.3595 H   0  0  0  0  0  0
  -21.6670  -26.7459   22.1191 H   0  0  0  0  0  0
  -19.6959  -25.6276   21.1241 H   0  0  0  0  0  0
  -19.6743  -27.3166   20.6680 H   0  0  0  0  0  0
  -17.4220  -26.6640   21.3971 H   0  0  0  0  0  0
  -18.0379  -26.0095   22.9014 H   0  0  0  0  0  0
  -19.7961  -30.7279   24.2219 H   0  0  0  0  0  0
  -17.5034  -31.6264   24.5168 H   0  0  0  0  0  0
  -15.5361  -30.2971   23.7698 H   0  0  0  0  0  0
  -15.8676  -28.0829   22.7052 H   0  0  0  0  0  0
  -24.5931  -30.7103   25.7776 H   0  0  0  0  0  0
  -24.8955  -32.2939   26.4813 H   0  0  0  0  0  0
  -25.8058  -30.8971   27.0236 H   0  0  0  0  0  0
  -26.2932  -29.6740   24.1225 H   0  0  0  0  0  0
  -27.3991  -29.7249   25.4737 H   0  0  0  0  0  0
  -27.8831  -30.4182   23.9453 H   0  0  0  0  0  0
  -27.2594  -33.3650   26.2050 H   0  0  0  0  0  0
  -28.3887  -32.6940   25.0390 H   0  0  0  0  0  0
  -28.0680  -31.8530   26.5477 H   0  0  0  0  0  0
  -28.2549  -38.0144   24.7510 H   0  0  0  0  0  0
  -28.1123  -36.2649   24.6227 H   0  0  0  0  0  0
  -27.2285  -37.1400   25.8848 H   0  0  0  0  0  0
  -20.9402  -29.8742   21.6808 H   0  0  0  0  0  0
  -26.0125  -38.2798   24.1449 H   0  0  0  0  0  0
  -27.4764  -17.7267   19.7395 H   0  0  0  0  0  0
  -25.5997  -22.5553   19.6195 H   0  0  0  0  0  0
  -26.2925  -22.8050   21.2368 H   0  0  0  0  0  0
  -24.9337  -21.7476   21.0283 H   0  0  0  0  0  0
  -24.8340  -19.2902   16.2172 H   0  0  0  0  0  0
  -25.8871  -20.2816   17.2051 H   0  0  0  0  0  0
  -24.1411  -20.4963   17.2925 H   0  0  0  0  0  0
  -23.3699  -17.4568   17.3408 H   0  0  0  0  0  0
  -22.6759  -18.6520   18.4272 H   0  0  0  0  0  0
  -23.4596  -17.2115   19.0748 H   0  0  0  0  0  0
  -31.3062  -20.4809   20.4734 H   0  0  0  0  0  0
  -31.9837  -19.0894   21.2474 H   0  0  0  0  0  0
  -30.7017  -19.9737   22.0580 H   0  0  0  0  0  0
  -30.5225  -19.4109   18.4000 H   0  0  0  0  0  0
  -29.7543  -17.8357   18.4227 H   0  0  0  0  0  0
  -31.4302  -17.9994   18.9287 H   0  0  0  0  0  0
  -27.9169  -23.4208   19.1586 H   0  0  0  0  0  0
  -29.5098  -23.9120   19.5651 H   0  0  0  0  0  0
  -28.7065  -22.3916   21.8742 H   0  0  0  0  0  0
  -29.9431  -22.0715   20.7270 H   0  0  0  0  0  0
  -29.4712  -17.3773   22.0920 H   0  0  0  0  0  0
  -31.0826  -17.1590   21.5471 H   0  0  0  0  0  0
  -28.4708  -25.0146   21.7481 H   0  0  0  0  0  0
  -26.9677  -24.8592   20.9476 H   0  0  0  0  0  0
  -25.6506  -17.9651   18.1483 H   0  0  0  0  0  0
  -24.3972  -20.0512   19.8302 H   0  0  0  0  0  0
  -28.7705  -15.6686   20.5995 H   0  0  0  0  0  0
  1 25  1  0  0  0
  1 30  2  0  0  0
  1 88  1  0  0  0
  2  3  1  0  0  0
  2 25  1  0  0  0
  2 89  1  0  0  0
  2 90  1  0  0  0
  3  4  1  0  0  0
  3 91  1  0  0  0
  3 92  1  0  0  0
  4  5  1  0  0  0
  4 93  1  0  0  0
  4 94  1  0  0  0
  5  6  1  0  0  0
  5 26  1  0  0  0
  5 95  1  0  0  0
  6 25  1  0  0  0
  6 96  1  0  0  0
  6 97  1  0  0  0
  7  8  2  0  0  0
  7 26  1  0  0  0
  7 29  1  0  0  0
  8  9  1  0  0  0
  8 22  1  0  0  0
  9 10  1  0  0  0
  9 27  2  0  0  0
 10 11  2  0  0  0
 10 15  1  0  0  0
 11 12  1  0  0  0
 11 98  1  0  0  0
 12 13  2  0  0  0
 12 99  1  0  0  0
 13 14  1  0  0  0
 13 31  1  0  0  0
 14 15  2  0  0  0
 14100  1  0  0  0
 15101  1  0  0  0
 16 17  2  0  0  0
 16 21  1  0  0  0
 16 31  1  0  0  0
 17 18  1  0  0  0
 17102  1  0  0  0
 18 19  2  0  0  0
 18103  1  0  0  0
 19 20  1  0  0  0
 19 24  1  0  0  0
 20 21  2  0  0  0
 20104  1  0  0  0
 21 23  1  0  0  0
 22 28  1  0  0  0
 22 32  2  0  0  0
 26 27  1  0  0  0
 28105  1  0  0  0
 28106  1  0  0  0
 29107  1  0  0  0
 29108  1  0  0  0
 33 34  1  0  0  0
 33 66  1  0  0  0
 33 70  2  0  0  0
 34 36  1  0  0  0
 34 59  1  0  0  0
 34109  1  0  0  0
 35 44  2  0  0  0
 35 45  1  0  0  0
 35 68  1  0  0  0
 36 56  1  0  0  0
 36110  1  0  0  0
 37 39  1  0  0  0
 37 47  1  0  0  0
 37 66  1  0  0  0
 37111  1  0  0  0
 38 43  2  0  0  0
 38 46  1  0  0  0
 38 47  1  0  0  0
 39 64  1  0  0  0
 39 67  2  0  0  0
 40 52  1  0  0  0
 40 53  2  0  0  0
 40 58  1  0  0  0
 41112  1  0  0  0
 41113  1  0  0  0
 41114  1  0  0  0
 41 48  1  0  0  0
 42 43  1  0  0  0
 42 66  1  0  0  0
 42115  1  0  0  0
 42116  1  0  0  0
 43 44  1  0  0  0
 44117  1  0  0  0
 45 46  2  0  0  0
 45118  1  0  0  0
 46119  1  0  0  0
 47120  1  0  0  0
 47121  1  0  0  0
 48 56  1  0  0  0
 48 65  1  0  0  0
 48122  1  0  0  0
 49 50  1  0  0  0
 49 53  1  0  0  0
 49 64  1  0  0  0
 49123  1  0  0  0
 50 51  1  0  0  0
 50124  1  0  0  0
 50125  1  0  0  0
 51 52  1  0  0  0
 51126  1  0  0  0
 51127  1  0  0  0
 52128  1  0  0  0
 52129  1  0  0  0
 53 54  1  0  0  0
 54 55  2  0  0  0
 54130  1  0  0  0
 55 57  1  0  0  0
 55131  1  0  0  0
 56 69  2  0  0  0
 57 58  2  0  0  0
 57132  1  0  0  0
 58133  1  0  0  0
 59 60  1  0  0  0
 59 61  1  0  0  0
 59 62  1  0  0  0
 60134  1  0  0  0
 60135  1  0  0  0
 60136  1  0  0  0
 61137  1  0  0  0
 61138  1  0  0  0
 61139  1  0  0  0
 62140  1  0  0  0
 62141  1  0  0  0
 62142  1  0  0  0
 63 65  1  0  0  0
 63143  1  0  0  0
 63144  1  0  0  0
 63145  1  0  0  0
 64146  1  0  0  0
 65147  1  0  0  0
 68 83  1  0  0  0
 71 72  1  0  0  0
 71 73  2  0  0  0
 71148  1  0  0  0
 72 74  2  0  0  0
 72 87  1  0  0  0
 73 85  1  0  0  0
 73 86  1  0  0  0
 74 75  1  0  0  0
 74 86  1  0  0  0
 75149  1  0  0  0
 75150  1  0  0  0
 75151  1  0  0  0
 76152  1  0  0  0
 76153  1  0  0  0
 76154  1  0  0  0
 76 84  1  0  0  0
 77 84  1  0  0  0
 77155  1  0  0  0
 77156  1  0  0  0
 77157  1  0  0  0
 78158  1  0  0  0
 78159  1  0  0  0
 78160  1  0  0  0
 78 85  1  0  0  0
 79 85  1  0  0  0
 79161  1  0  0  0
 79162  1  0  0  0
 79163  1  0  0  0
 80 81  1  0  0  0
 80 83  1  0  0  0
 80164  1  0  0  0
 80165  1  0  0  0
 81 86  1  0  0  0
 81166  1  0  0  0
 81167  1  0  0  0
 82 85  1  0  0  0
 82 88  1  0  0  0
 82168  1  0  0  0
 82169  1  0  0  0
 83170  1  0  0  0
 83171  1  0  0  0
 84 87  1  0  0  0
 84172  1  0  0  0
 87173  1  0  0  0
 88174  1  0  0  0
M  ISO  4   1 100  68 101  83 101  88 100
M  END
> <chiral flag>
0

> <version>
0

> <s_m_source_file>
/data/baiqing/PycharmProjects/Reinvent-master-3.2/result/LINK_invent/BTK/process_docking_weight1_custom_sum_contain_oxygen_bond_distance_aromatic_linkinvent_7_9_3/rearranged_h_0079.sdf

> <i_m_source_file_index>
68

> <r_mmod_Potential_Energy-OPLS-2005>
161.416793823242

> <r_mmod_Stretch_Energy-OPLS-2005>
154.14794921875

> <r_mmod_Bend_Energy-OPLS-2005>
243.126190185547

> <r_mmod_Torsional_Energy-OPLS-2005>
303.143646240234

> <r_mmod_Improper_Torsional_Energy-OPLS-2005>
10.1623849868774

> <r_mmod_Van_der_Waal_Energy-OPLS-2005>
109.12223815918

> <r_mmod_Electrostatic_Energy-OPLS-2005>
-551.208679199219

> <r_mmod_Solvation_Energy-OPLS-2005>
-202.884506225586

> <b_mmod_Minimization_Converged-OPLS-2005>
0

> <r_mmod_RMS_Derivative-OPLS-2005>
4.34772777557373

$$$$
68
                    3D
 Structure written by MMmdl.
179186  0  0  1  0            999 V2000
  -30.7022  -14.4837   20.6233 C   0  0  0  0  0  0
  -30.4358  -12.3336   19.4248 C   0  0  0  0  0  0
  -29.5021  -12.5077   18.2111 C   0  0  0  0  0  0
  -28.0252  -12.3481   18.6239 C   0  0  0  0  0  0
  -27.6592  -13.1987   19.8683 C   0  0  2  0  0  0
  -28.6968  -12.9958   20.9937 C   0  0  0  0  0  0
  -25.2572  -13.8151   20.5604 C   0  0  0  0  0  0
  -24.1814  -13.0441   20.9107 C   0  0  0  0  0  0
  -24.6356  -11.6907   20.8696 C   0  0  0  0  0  0
  -23.9017  -10.4297   21.0386 C   0  0  0  0  0  0
  -24.3588   -9.4218   21.9174 C   0  0  0  0  0  0
  -23.6253   -8.2251   22.0760 C   0  0  0  0  0  0
  -22.4239   -8.0284   21.3552 C   0  0  0  0  0  0
  -21.9871   -9.0248   20.4661 C   0  0  0  0  0  0
  -22.7179  -10.2122   20.3057 C   0  0  0  0  0  0
  -21.6852   -6.0736   22.5260 C   0  0  0  0  0  0
  -21.4029   -6.5653   23.8191 C   0  0  0  0  0  0
  -21.3669   -5.6811   24.9154 C   0  0  0  0  0  0
  -21.6027   -4.3072   24.7203 C   0  0  0  0  0  0
  -21.8834   -3.8153   23.4331 C   0  0  0  0  0  0
  -21.9187   -4.6961   22.3380 C   0  0  0  0  0  0
  -22.7822  -13.5250   21.1714 C   0  0  0  0  0  0
  -22.1639   -4.2141   21.0962 F   0  0  0  0  0  0
  -21.5625   -3.4576   25.7721 F   0  0  0  0  0  0
  -30.0331  -13.3070   20.4544 N   0  0  0  0  0  0
  -26.2994  -12.9295   20.3305 N   0  0  0  0  0  0
  -25.9285  -11.6471   20.5729 N   0  0  0  0  0  0
  -22.0459  -12.8324   22.0336 N   0  0  0  0  0  0
  -25.4255  -15.1866   20.3998 N   0  0  0  0  0  0
  -31.7981  -14.7128   20.1036 O   0  0  0  0  0  0
  -21.6632   -6.8869   21.4225 O   0  0  0  0  0  0
  -22.3517  -14.5554   20.6530 O   0  0  0  0  0  0
  -24.6118  -31.8688   23.2154 C   0  0  0  0  0  0
  -25.8998  -32.4847   23.8420 C   0  0  1  0  0  0
  -27.2257  -27.4670   20.0643 C   0  0  0  0  0  0
  -25.5884  -33.8646   24.2384 N   0  0  0  0  0  0
  -23.3989  -30.4948   21.5567 C   0  0  2  0  0  0
  -24.8339  -28.9641   20.1159 C   0  0  0  0  0  0
  -22.7438  -29.4620   22.5011 C   0  0  0  0  0  0
  -18.0284  -28.1395   22.8461 C   0  0  0  0  0  0
  -24.1482  -36.7315   23.2634 C   0  0  0  0  0  0
  -25.9239  -30.8425   21.3599 C   0  0  0  0  0  0
  -25.9951  -29.4796   20.7062 C   0  0  0  0  0  0
  -27.1920  -28.7373   20.6771 C   0  0  0  0  0  0
  -26.0439  -26.9469   19.4909 C   0  0  0  0  0  0
  -24.8478  -27.6965   19.5106 C   0  0  0  0  0  0
  -23.6001  -29.8350   20.1688 C   0  0  0  0  0  0
  -25.4099  -36.3140   24.0369 C   0  0  1  0  0  0
  -20.5861  -28.3646   23.1343 C   0  0  2  0  0  0
  -20.6769  -26.9379   22.5430 C   0  0  0  0  0  0
  -19.5711  -26.6375   21.5242 C   0  0  0  0  0  0
  -18.1878  -26.7939   22.1620 C   0  0  0  0  0  0
  -19.1543  -28.8838   23.2887 C   0  0  0  0  0  0
  -18.9474  -30.1449   23.8882 C   0  0  0  0  0  0
  -17.6481  -30.6600   24.0545 C   0  0  0  0  0  0
  -25.9037  -34.9495   23.5189 C   0  0  0  0  0  0
  -16.5357  -29.9090   23.6324 C   0  0  0  0  0  0
  -16.7271  -28.6509   23.0323 C   0  0  0  0  0  0
  -26.4441  -31.6607   25.0718 C   0  0  0  0  0  0
  -25.3740  -31.3645   26.1503 C   0  0  0  0  0  0
  -27.0257  -30.3082   24.6008 C   0  0  0  0  0  0
  -27.6067  -32.4290   25.7451 C   0  0  0  0  0  0
  -27.5583  -37.1818   24.8482 C   0  0  0  0  0  0
  -21.4172  -29.2989   22.3767 N   0  0  0  0  0  0
  -26.4284  -37.3803   23.9428 N   0  0  0  0  0  0
  -24.6626  -31.0826   22.1039 N   0  0  0  0  0  0
  -23.4219  -28.8163   23.3048 O   0  0  0  0  0  0
  -28.4403  -26.8222   20.0268 O   0  0  0  0  0  0
  -26.5605  -34.8930   22.4739 O   0  0  0  0  0  0
  -23.5343  -32.1402   23.7606 O   0  0  0  0  0  0
  -24.7252  -23.6993   24.0713 C   0  0  0  0  0  0
  -27.4069  -19.9393   21.2312 C   0  0  0  0  0  0
  -28.6793  -20.5556   24.1668 C   0  0  0  0  0  0
  -30.5624  -21.5904   22.9544 C   0  0  0  0  0  0
  -30.1804  -15.6101   22.7397 C   0  0  0  0  0  0
  -26.2557  -23.6019   23.9585 C   0  0  0  0  0  0
  -29.7988  -17.9220   20.5850 C   0  0  0  0  0  0
  -28.0625  -24.7347   21.1931 C   0  0  0  0  0  0
  -26.7277  -22.5413   22.9385 C   0  0  0  0  0  0
  -29.5766  -18.7960   21.8551 C   0  0  0  0  0  0
  -28.5455  -23.2803   21.2790 C   0  0  0  0  0  0
  -29.2168  -16.4801   20.6065 C   0  0  0  0  0  0
  -28.4826  -25.4094   19.8783 C   0  0  0  0  0  0
  -28.8835  -20.1787   21.6241 C   0  0  2  0  0  0
  -28.2634  -22.5755   22.6363 C   0  0  1  0  0  0
  -29.0593  -21.2132   22.8162 C   0  0  0  0  0  0
  -30.0261  -15.4530   21.2955 N   0  0  0  0  0  0
  -31.4772  -12.4563   19.1164 H   0  0  0  0  0  0
  -30.3577  -11.3194   19.8230 H   0  0  0  0  0  0
  -29.7525  -11.7780   17.4391 H   0  0  0  0  0  0
  -29.6520  -13.4925   17.7679 H   0  0  0  0  0  0
  -27.8512  -11.2915   18.8338 H   0  0  0  0  0  0
  -27.3729  -12.5990   17.7870 H   0  0  0  0  0  0
  -27.6979  -14.2405   19.5543 H   0  0  0  0  0  0
  -28.6847  -11.9655   21.3514 H   0  0  0  0  0  0
  -28.4277  -13.6025   21.8586 H   0  0  0  0  0  0
  -25.2753   -9.5685   22.4723 H   0  0  0  0  0  0
  -23.9954   -7.4656   22.7503 H   0  0  0  0  0  0
  -21.0796   -8.8750   19.8991 H   0  0  0  0  0  0
  -22.3627  -10.9637   19.6155 H   0  0  0  0  0  0
  -21.2063   -7.6168   23.9679 H   0  0  0  0  0  0
  -21.1471   -6.0546   25.9049 H   0  0  0  0  0  0
  -22.0618   -2.7618   23.2813 H   0  0  0  0  0  0
  -22.4077  -12.0038   22.4831 H   0  0  0  0  0  0
  -21.1035  -13.1325   22.2457 H   0  0  0  0  0  0
  -24.6562  -15.8356   20.5307 H   0  0  0  0  0  0
  -26.2763  -15.6372   20.0910 H   0  0  0  0  0  0
  -26.7043  -32.5539   23.1147 H   0  0  0  0  0  0
  -25.0097  -33.9766   25.0589 H   0  0  0  0  0  0
  -22.6859  -31.3099   21.4220 H   0  0  0  0  0  0
  -23.3767  -35.9622   23.3324 H   0  0  0  0  0  0
  -24.3575  -36.8901   22.2041 H   0  0  0  0  0  0
  -23.7203  -37.6517   23.6634 H   0  0  0  0  0  0
  -26.0448  -31.6048   20.5907 H   0  0  0  0  0  0
  -26.8111  -30.8952   21.9762 H   0  0  0  0  0  0
  -28.0939  -29.1311   21.1216 H   0  0  0  0  0  0
  -26.0209  -25.9867   18.9983 H   0  0  0  0  0  0
  -23.9521  -27.2963   19.0532 H   0  0  0  0  0  0
  -23.7222  -30.6174   19.4204 H   0  0  0  0  0  0
  -22.7207  -29.2681   19.8608 H   0  0  0  0  0  0
  -25.1262  -36.2014   25.0856 H   0  0  0  0  0  0
  -20.9911  -28.3188   24.1499 H   0  0  0  0  0  0
  -20.5715  -26.2214   23.3601 H   0  0  0  0  0  0
  -21.6617  -26.7461   22.1160 H   0  0  0  0  0  0
  -19.6840  -25.6303   21.1241 H   0  0  0  0  0  0
  -19.6658  -27.3205   20.6788 H   0  0  0  0  0  0
  -17.4169  -26.6745   21.3994 H   0  0  0  0  0  0
  -18.0184  -26.0149   22.9055 H   0  0  0  0  0  0
  -19.7979  -30.7260   24.2203 H   0  0  0  0  0  0
  -17.5074  -31.6267   24.5174 H   0  0  0  0  0  0
  -15.5340  -30.2991   23.7687 H   0  0  0  0  0  0
  -15.8685  -28.0862   22.6976 H   0  0  0  0  0  0
  -24.5992  -30.6874   25.7911 H   0  0  0  0  0  0
  -24.8794  -32.2724   26.4956 H   0  0  0  0  0  0
  -25.8139  -30.8908   27.0279 H   0  0  0  0  0  0
  -26.2719  -29.6887   24.1153 H   0  0  0  0  0  0
  -27.4134  -29.7259   25.4367 H   0  0  0  0  0  0
  -27.8511  -30.4487   23.9040 H   0  0  0  0  0  0
  -27.2753  -33.3605   26.2015 H   0  0  0  0  0  0
  -28.3872  -32.6773   25.0274 H   0  0  0  0  0  0
  -28.0724  -31.8421   26.5378 H   0  0  0  0  0  0
  -28.2621  -38.0096   24.7569 H   0  0  0  0  0  0
  -28.1062  -36.2643   24.6271 H   0  0  0  0  0  0
  -27.2329  -37.1447   25.8895 H   0  0  0  0  0  0
  -20.9371  -29.8866   21.7112 H   0  0  0  0  0  0
  -26.0221  -38.2885   24.1435 H   0  0  0  0  0  0
  -24.4300  -24.3963   24.8567 H   0  0  0  0  0  0
  -24.2785  -22.7368   24.3047 H   0  0  0  0  0  0
  -24.2809  -24.0557   23.1393 H   0  0  0  0  0  0
  -27.3031  -19.2235   20.4157 H   0  0  0  0  0  0
  -26.9232  -20.8474   20.8788 H   0  0  0  0  0  0
  -26.8279  -19.5584   22.0730 H   0  0  0  0  0  0
  -29.4224  -19.8167   24.4673 H   0  0  0  0  0  0
  -27.7271  -20.0289   24.1347 H   0  0  0  0  0  0
  -28.6262  -21.2892   24.9738 H   0  0  0  0  0  0
  -31.0008  -21.9508   22.0257 H   0  0  0  0  0  0
  -31.1847  -20.7548   23.2687 H   0  0  0  0  0  0
  -30.7159  -22.3692   23.7061 H   0  0  0  0  0  0
  -29.2048  -15.6898   23.2215 H   0  0  0  0  0  0
  -30.7494  -16.5130   22.9635 H   0  0  0  0  0  0
  -30.7036  -14.7671   23.1960 H   0  0  0  0  0  0
  -26.6754  -23.3622   24.9358 H   0  0  0  0  0  0
  -26.6362  -24.5871   23.6885 H   0  0  0  0  0  0
  -30.8650  -17.8756   20.3622 H   0  0  0  0  0  0
  -29.3692  -18.4427   19.7268 H   0  0  0  0  0  0
  -28.4752  -25.3039   22.0306 H   0  0  0  0  0  0
  -26.9794  -24.7903   21.2966 H   0  0  0  0  0  0
  -26.4098  -21.5703   23.3024 H   0  0  0  0  0  0
  -26.1659  -22.6791   22.0120 H   0  0  0  0  0  0
  -30.5611  -18.9486   22.2950 H   0  0  0  0  0  0
  -29.0093  -18.2460   22.6026 H   0  0  0  0  0  0
  -29.6159  -23.2991   21.0951 H   0  0  0  0  0  0
  -28.1192  -22.7246   20.4448 H   0  0  0  0  0  0
  -29.1013  -16.1645   19.5669 H   0  0  0  0  0  0
  -28.2064  -16.4788   21.0144 H   0  0  0  0  0  0
  -27.9194  -25.0377   19.0218 H   0  0  0  0  0  0
  -29.5236  -25.1665   19.6641 H   0  0  0  0  0  0
  -29.3732  -20.6183   20.7526 H   0  0  0  0  0  0
  -28.6832  -23.2380   23.3996 H   0  0  0  0  0  0
  1 25  1  0  0  0
  1 30  2  0  0  0
  1 87  1  0  0  0
  2  3  1  0  0  0
  2 25  1  0  0  0
  2 88  1  0  0  0
  2 89  1  0  0  0
  3  4  1  0  0  0
  3 90  1  0  0  0
  3 91  1  0  0  0
  4  5  1  0  0  0
  4 92  1  0  0  0
  4 93  1  0  0  0
  5  6  1  0  0  0
  5 26  1  0  0  0
  5 94  1  0  0  0
  6 25  1  0  0  0
  6 95  1  0  0  0
  6 96  1  0  0  0
  7  8  2  0  0  0
  7 26  1  0  0  0
  7 29  1  0  0  0
  8  9  1  0  0  0
  8 22  1  0  0  0
  9 10  1  0  0  0
  9 27  2  0  0  0
 10 11  2  0  0  0
 10 15  1  0  0  0
 11 12  1  0  0  0
 11 97  1  0  0  0
 12 13  2  0  0  0
 12 98  1  0  0  0
 13 14  1  0  0  0
 13 31  1  0  0  0
 14 15  2  0  0  0
 14 99  1  0  0  0
 15100  1  0  0  0
 16 17  2  0  0  0
 16 21  1  0  0  0
 16 31  1  0  0  0
 17 18  1  0  0  0
 17101  1  0  0  0
 18 19  2  0  0  0
 18102  1  0  0  0
 19 20  1  0  0  0
 19 24  1  0  0  0
 20 21  2  0  0  0
 20103  1  0  0  0
 21 23  1  0  0  0
 22 28  1  0  0  0
 22 32  2  0  0  0
 26 27  1  0  0  0
 28104  1  0  0  0
 28105  1  0  0  0
 29106  1  0  0  0
 29107  1  0  0  0
 33 34  1  0  0  0
 33 66  1  0  0  0
 33 70  2  0  0  0
 34 36  1  0  0  0
 34 59  1  0  0  0
 34108  1  0  0  0
 35 44  2  0  0  0
 35 45  1  0  0  0
 35 68  1  0  0  0
 36 56  1  0  0  0
 36109  1  0  0  0
 37 39  1  0  0  0
 37 47  1  0  0  0
 37 66  1  0  0  0
 37110  1  0  0  0
 38 43  2  0  0  0
 38 46  1  0  0  0
 38 47  1  0  0  0
 39 64  1  0  0  0
 39 67  2  0  0  0
 40 52  1  0  0  0
 40 53  2  0  0  0
 40 58  1  0  0  0
 41111  1  0  0  0
 41112  1  0  0  0
 41113  1  0  0  0
 41 48  1  0  0  0
 42 43  1  0  0  0
 42 66  1  0  0  0
 42114  1  0  0  0
 42115  1  0  0  0
 43 44  1  0  0  0
 44116  1  0  0  0
 45 46  2  0  0  0
 45117  1  0  0  0
 46118  1  0  0  0
 47119  1  0  0  0
 47120  1  0  0  0
 48 56  1  0  0  0
 48 65  1  0  0  0
 48121  1  0  0  0
 49 50  1  0  0  0
 49 53  1  0  0  0
 49 64  1  0  0  0
 49122  1  0  0  0
 50 51  1  0  0  0
 50123  1  0  0  0
 50124  1  0  0  0
 51 52  1  0  0  0
 51125  1  0  0  0
 51126  1  0  0  0
 52127  1  0  0  0
 52128  1  0  0  0
 53 54  1  0  0  0
 54 55  2  0  0  0
 54129  1  0  0  0
 55 57  1  0  0  0
 55130  1  0  0  0
 56 69  2  0  0  0
 57 58  2  0  0  0
 57131  1  0  0  0
 58132  1  0  0  0
 59 60  1  0  0  0
 59 61  1  0  0  0
 59 62  1  0  0  0
 60133  1  0  0  0
 60134  1  0  0  0
 60135  1  0  0  0
 61136  1  0  0  0
 61137  1  0  0  0
 61138  1  0  0  0
 62139  1  0  0  0
 62140  1  0  0  0
 62141  1  0  0  0
 63 65  1  0  0  0
 63142  1  0  0  0
 63143  1  0  0  0
 63144  1  0  0  0
 64145  1  0  0  0
 65146  1  0  0  0
 68 83  1  0  0  0
 71 76  1  0  0  0
 71147  1  0  0  0
 71148  1  0  0  0
 71149  1  0  0  0
 72150  1  0  0  0
 72151  1  0  0  0
 72152  1  0  0  0
 72 84  1  0  0  0
 73153  1  0  0  0
 73154  1  0  0  0
 73155  1  0  0  0
 73 86  1  0  0  0
 74 86  1  0  0  0
 74156  1  0  0  0
 74157  1  0  0  0
 74158  1  0  0  0
 75 87  1  0  0  0
 75159  1  0  0  0
 75160  1  0  0  0
 75161  1  0  0  0
 76 79  1  0  0  0
 76162  1  0  0  0
 76163  1  0  0  0
 77 80  1  0  0  0
 77 82  1  0  0  0
 77164  1  0  0  0
 77165  1  0  0  0
 78 81  1  0  0  0
 78 83  1  0  0  0
 78166  1  0  0  0
 78167  1  0  0  0
 79168  1  0  0  0
 79169  1  0  0  0
 79 85  1  0  0  0
 80 84  1  0  0  0
 80170  1  0  0  0
 80171  1  0  0  0
 81 85  1  0  0  0
 81172  1  0  0  0
 81173  1  0  0  0
 82 87  1  0  0  0
 82174  1  0  0  0
 82175  1  0  0  0
 83176  1  0  0  0
 83177  1  0  0  0
 84 86  1  0  0  0
 84178  1  0  0  0
 85 86  1  0  0  0
 85179  1  0  0  0
M  ISO  4   1 100  68 101  83 101  87 100
M  END
> <chiral flag>
0

> <version>
0

> <s_m_source_file>
/data/baiqing/PycharmProjects/Reinvent-master-3.2/result/LINK_invent/BTK/process_docking_weight1_custom_sum_contain_oxygen_bond_distance_aromatic_linkinvent_7_9_3/rearranged_h_0079.sdf

> <i_m_source_file_index>
69

> <r_mmod_Potential_Energy-OPLS-2005>
207.154022216797

> <r_mmod_Stretch_Energy-OPLS-2005>
47.1775856018066

> <r_mmod_Bend_Energy-OPLS-2005>
123.904884338379

> <r_mmod_Torsional_Energy-OPLS-2005>
361.500701904297

> <r_mmod_Improper_Torsional_Energy-OPLS-2005>
3.00732111930847

> <r_mmod_Van_der_Waal_Energy-OPLS-2005>
140.195495605469

> <r_mmod_Electrostatic_Energy-OPLS-2005>
-315.365264892578

> <r_mmod_Solvation_Energy-OPLS-2005>
-166.344863891602

> <b_mmod_Minimization_Converged-OPLS-2005>
0

> <r_mmod_RMS_Derivative-OPLS-2005>
6.63476371765137

$$$$
69
                    3D
 Structure written by MMmdl.
179187  0  0  1  0            999 V2000
  -30.6105  -14.7124   20.4514 C   0  0  0  0  0  0
  -30.4381  -12.4353   19.4553 C   0  0  0  0  0  0
  -29.5067  -12.4962   18.2247 C   0  0  0  0  0  0
  -28.0332  -12.3275   18.6457 C   0  0  0  0  0  0
  -27.6437  -13.2272   19.8494 C   0  0  2  0  0  0
  -28.6929  -13.1424   20.9788 C   0  0  0  0  0  0
  -25.2519  -13.8181   20.5711 C   0  0  0  0  0  0
  -24.1812  -13.0433   20.9235 C   0  0  0  0  0  0
  -24.6397  -11.6914   20.8772 C   0  0  0  0  0  0
  -23.9070  -10.4289   21.0419 C   0  0  0  0  0  0
  -24.3622   -9.4201   21.9195 C   0  0  0  0  0  0
  -23.6285   -8.2239   22.0759 C   0  0  0  0  0  0
  -22.4267   -8.0282   21.3541 C   0  0  0  0  0  0
  -21.9910   -9.0265   20.4650 C   0  0  0  0  0  0
  -22.7245  -10.2139   20.3061 C   0  0  0  0  0  0
  -21.6845   -6.0732   22.5275 C   0  0  0  0  0  0
  -21.4004   -6.5641   23.8208 C   0  0  0  0  0  0
  -21.3659   -5.6796   24.9179 C   0  0  0  0  0  0
  -21.6053   -4.3058   24.7230 C   0  0  0  0  0  0
  -21.8816   -3.8146   23.4349 C   0  0  0  0  0  0
  -21.9184   -4.6959   22.3405 C   0  0  0  0  0  0
  -22.7830  -13.5212   21.1888 C   0  0  0  0  0  0
  -22.1663   -4.2151   21.0977 F   0  0  0  0  0  0
  -21.5629   -3.4542   25.7743 F   0  0  0  0  0  0
  -29.9954  -13.4864   20.3942 N   0  0  0  0  0  0
  -26.2955  -12.9396   20.3290 N   0  0  0  0  0  0
  -25.9329  -11.6540   20.5767 N   0  0  0  0  0  0
  -22.0468  -12.8204   22.0447 N   0  0  0  0  0  0
  -25.4127  -15.1899   20.4068 N   0  0  0  0  0  0
  -31.8023  -14.8311   20.1594 O   0  0  0  0  0  0
  -21.6629   -6.8880   21.4239 O   0  0  0  0  0  0
  -22.3516  -14.5514   20.6728 O   0  0  0  0  0  0
  -24.6268  -31.8525   23.2017 C   0  0  0  0  0  0
  -25.9104  -32.4734   23.8359 C   0  0  1  0  0  0
  -27.2208  -27.3008   20.1053 C   0  0  0  0  0  0
  -25.5887  -33.8537   24.2247 N   0  0  0  0  0  0
  -23.4208  -30.4771   21.5450 C   0  0  2  0  0  0
  -24.8660  -28.9295   20.1109 C   0  0  0  0  0  0
  -22.7456  -29.4583   22.4934 C   0  0  0  0  0  0
  -18.0267  -28.1332   22.8465 C   0  0  0  0  0  0
  -24.1475  -36.7325   23.2639 C   0  0  0  0  0  0
  -25.9626  -30.7798   21.3724 C   0  0  0  0  0  0
  -26.0386  -29.4073   20.7105 C   0  0  0  0  0  0
  -27.2218  -28.6061   20.6921 C   0  0  0  0  0  0
  -26.0217  -26.8725   19.4942 C   0  0  0  0  0  0
  -24.8589  -27.6684   19.4966 C   0  0  0  0  0  0
  -23.6339  -29.8101   20.1620 C   0  0  0  0  0  0
  -25.4098  -36.3065   24.0313 C   0  0  1  0  0  0
  -20.5866  -28.3651   23.1263 C   0  0  2  0  0  0
  -20.6741  -26.9367   22.5403 C   0  0  0  0  0  0
  -19.5737  -26.6345   21.5175 C   0  0  0  0  0  0
  -18.1910  -26.7874   22.1590 C   0  0  0  0  0  0
  -19.1524  -28.8808   23.2853 C   0  0  0  0  0  0
  -18.9464  -30.1403   23.8883 C   0  0  0  0  0  0
  -17.6461  -30.6554   24.0531 C   0  0  0  0  0  0
  -25.9033  -34.9421   23.5096 C   0  0  0  0  0  0
  -16.5343  -29.9049   23.6306 C   0  0  0  0  0  0
  -16.7257  -28.6455   23.0351 C   0  0  0  0  0  0
  -26.4498  -31.6566   25.0746 C   0  0  0  0  0  0
  -25.3739  -31.3689   26.1492 C   0  0  0  0  0  0
  -27.0361  -30.2970   24.6262 C   0  0  0  0  0  0
  -27.6049  -32.4330   25.7520 C   0  0  0  0  0  0
  -27.5578  -37.1794   24.8451 C   0  0  0  0  0  0
  -21.4173  -29.3012   22.3673 N   0  0  0  0  0  0
  -26.4279  -37.3761   23.9404 N   0  0  0  0  0  0
  -24.6899  -31.0529   22.0977 N   0  0  0  0  0  0
  -23.4159  -28.8094   23.2997 O   0  0  0  0  0  0
  -28.3368  -26.4429   20.1112 O   0  0  0  0  0  0
  -26.5646  -34.8894   22.4695 O   0  0  0  0  0  0
  -23.5425  -32.1357   23.7318 O   0  0  0  0  0  0
  -27.8096  -21.1412   22.3786 C   0  0  0  0  0  0
  -28.0060  -22.3176   21.6534 C   0  0  0  0  0  0
  -28.2701  -19.9008   21.8912 C   0  0  0  0  0  0
  -28.6601  -22.2593   20.4188 C   0  0  0  0  0  0
  -28.9297  -19.8321   20.6295 C   0  0  0  0  0  0
  -29.1896  -19.2202   27.0902 C   0  0  0  0  0  0
  -30.0111  -18.6451   18.6071 C   0  0  0  0  0  0
  -27.8921  -17.7865   19.5075 C   0  0  0  0  0  0
  -29.2251  -16.3024   24.4614 C   0  0  0  0  0  0
  -27.1998  -17.4134   25.4309 C   0  0  0  0  0  0
  -27.9815  -18.7118   22.7967 C   0  0  0  0  0  0
  -28.8945  -23.6101   19.6330 C   0  0  0  0  0  0
  -29.5102  -17.9039   26.3583 C   0  0  0  0  0  0
  -28.8678  -18.7662   24.0566 C   0  0  0  0  0  0
  -30.1375  -17.3035   20.7356 C   0  0  0  0  0  0
  -28.1031  -24.9689   20.0618 C   0  0  0  0  0  0
  -29.2435  -18.4096   19.9301 C   0  0  0  0  0  0
  -28.6887  -17.6111   25.0734 C   0  0  0  0  0  0
  -29.0888  -21.0288   19.9234 N   0  0  0  0  0  0
  -29.8052  -15.8164   20.6338 N   0  0  0  0  0  0
  -31.4755  -12.5700   19.1450 H   0  0  0  0  0  0
  -30.3917  -11.4542   19.9329 H   0  0  0  0  0  0
  -29.7791  -11.7186   17.5095 H   0  0  0  0  0  0
  -29.6377  -13.4495   17.7080 H   0  0  0  0  0  0
  -27.8886  -11.2797   18.9128 H   0  0  0  0  0  0
  -27.3710  -12.5179   17.7995 H   0  0  0  0  0  0
  -27.6424  -14.2500   19.4737 H   0  0  0  0  0  0
  -28.7244  -12.1401   21.4082 H   0  0  0  0  0  0
  -28.4387  -13.8156   21.7980 H   0  0  0  0  0  0
  -25.2756   -9.5666   22.4784 H   0  0  0  0  0  0
  -23.9991   -7.4619   22.7478 H   0  0  0  0  0  0
  -21.0841   -8.8789   19.8959 H   0  0  0  0  0  0
  -22.3708  -10.9683   19.6187 H   0  0  0  0  0  0
  -21.1997   -7.6146   23.9710 H   0  0  0  0  0  0
  -21.1489   -6.0525   25.9069 H   0  0  0  0  0  0
  -22.0595   -2.7613   23.2848 H   0  0  0  0  0  0
  -22.4075  -11.9873   22.4857 H   0  0  0  0  0  0
  -21.1074  -13.1225   22.2623 H   0  0  0  0  0  0
  -24.6278  -15.8236   20.4986 H   0  0  0  0  0  0
  -26.2286  -15.6303   20.0061 H   0  0  0  0  0  0
  -26.7179  -32.5399   23.1118 H   0  0  0  0  0  0
  -24.9925  -33.9668   25.0321 H   0  0  0  0  0  0
  -22.7168  -31.2993   21.4005 H   0  0  0  0  0  0
  -23.3709  -35.9688   23.3284 H   0  0  0  0  0  0
  -24.3545  -36.8987   22.2055 H   0  0  0  0  0  0
  -23.7276  -37.6533   23.6712 H   0  0  0  0  0  0
  -26.0939  -31.5464   20.6073 H   0  0  0  0  0  0
  -26.8408  -30.8279   22.0064 H   0  0  0  0  0  0
  -28.1272  -28.9687   21.1594 H   0  0  0  0  0  0
  -25.9668  -25.9079   19.0096 H   0  0  0  0  0  0
  -23.9558  -27.2972   19.0303 H   0  0  0  0  0  0
  -23.7476  -30.5848   19.4015 H   0  0  0  0  0  0
  -22.7533  -29.2368   19.8659 H   0  0  0  0  0  0
  -25.1268  -36.1914   25.0800 H   0  0  0  0  0  0
  -20.9954  -28.3221   24.1386 H   0  0  0  0  0  0
  -20.5558  -26.2259   23.3596 H   0  0  0  0  0  0
  -21.6613  -26.7329   22.1245 H   0  0  0  0  0  0
  -19.6895  -25.6259   21.1199 H   0  0  0  0  0  0
  -19.6682  -27.3127   20.6671 H   0  0  0  0  0  0
  -17.4168  -26.6588   21.3997 H   0  0  0  0  0  0
  -18.0351  -26.0001   22.8975 H   0  0  0  0  0  0
  -19.7951  -30.7184   24.2277 H   0  0  0  0  0  0
  -17.5027  -31.6250   24.5115 H   0  0  0  0  0  0
  -15.5342  -30.2935   23.7663 H   0  0  0  0  0  0
  -15.8644  -28.0753   22.7109 H   0  0  0  0  0  0
  -24.5944  -30.6998   25.7860 H   0  0  0  0  0  0
  -24.8908  -32.2827   26.4955 H   0  0  0  0  0  0
  -25.8071  -30.8883   27.0270 H   0  0  0  0  0  0
  -26.2973  -29.6668   24.1311 H   0  0  0  0  0  0
  -27.4043  -29.7281   25.4818 H   0  0  0  0  0  0
  -27.8830  -30.4224   23.9515 H   0  0  0  0  0  0
  -27.2682  -33.3657   26.2085 H   0  0  0  0  0  0
  -28.3883  -32.6852   25.0357 H   0  0  0  0  0  0
  -28.0720  -31.8475   26.5460 H   0  0  0  0  0  0
  -28.2561  -38.0112   24.7511 H   0  0  0  0  0  0
  -28.1099  -36.2642   24.6261 H   0  0  0  0  0  0
  -27.2298  -37.1450   25.8849 H   0  0  0  0  0  0
  -20.9353  -29.8823   21.6972 H   0  0  0  0  0  0
  -26.0147  -38.2830   24.1413 H   0  0  0  0  0  0
  -27.2945  -21.1923   23.3271 H   0  0  0  0  0  0
  -27.6493  -23.2519   22.0614 H   0  0  0  0  0  0
  -29.6887  -19.2521   28.0595 H   0  0  0  0  0  0
  -28.1229  -19.3452   27.2699 H   0  0  0  0  0  0
  -29.5397  -20.0898   26.5312 H   0  0  0  0  0  0
  -29.4453  -19.2637   17.9085 H   0  0  0  0  0  0
  -30.2208  -17.7048   18.0976 H   0  0  0  0  0  0
  -30.9666  -19.1404   18.7801 H   0  0  0  0  0  0
  -27.3266  -18.4778   18.8826 H   0  0  0  0  0  0
  -27.2523  -17.5432   20.3510 H   0  0  0  0  0  0
  -28.0304  -16.8742   18.9277 H   0  0  0  0  0  0
  -29.1523  -15.4763   25.1702 H   0  0  0  0  0  0
  -30.2736  -16.3983   24.1746 H   0  0  0  0  0  0
  -28.6670  -16.0093   23.5729 H   0  0  0  0  0  0
  -27.0807  -16.7377   26.2791 H   0  0  0  0  0  0
  -26.6431  -16.9791   24.6004 H   0  0  0  0  0  0
  -26.7111  -18.3540   25.6844 H   0  0  0  0  0  0
  -28.0705  -17.7557   22.2981 H   0  0  0  0  0  0
  -26.9297  -18.7690   23.0780 H   0  0  0  0  0  0
  -28.6690  -23.3741   18.5904 H   0  0  0  0  0  0
  -29.9691  -23.8030   19.6592 H   0  0  0  0  0  0
  -29.3661  -17.0837   27.0632 H   0  0  0  0  0  0
  -30.5749  -17.8983   26.1232 H   0  0  0  0  0  0
  -28.6608  -19.7122   24.5518 H   0  0  0  0  0  0
  -29.9151  -18.8207   23.7579 H   0  0  0  0  0  0
  -30.1325  -17.5343   21.7961 H   0  0  0  0  0  0
  -31.1885  -17.4423   20.4802 H   0  0  0  0  0  0
  -28.4612  -25.2875   19.0813 H   0  0  0  0  0  0
  -28.6626  -24.9919   20.9963 H   0  0  0  0  0  0
  -28.8364  -15.5913   20.7944 H   0  0  0  0  0  0
  1 25  1  0  0  0
  1 30  2  0  0  0
  1 90  1  0  0  0
  2  3  1  0  0  0
  2 25  1  0  0  0
  2 91  1  0  0  0
  2 92  1  0  0  0
  3  4  1  0  0  0
  3 93  1  0  0  0
  3 94  1  0  0  0
  4  5  1  0  0  0
  4 95  1  0  0  0
  4 96  1  0  0  0
  5  6  1  0  0  0
  5 26  1  0  0  0
  5 97  1  0  0  0
  6 25  1  0  0  0
  6 98  1  0  0  0
  6 99  1  0  0  0
  7  8  2  0  0  0
  7 26  1  0  0  0
  7 29  1  0  0  0
  8  9  1  0  0  0
  8 22  1  0  0  0
  9 10  1  0  0  0
  9 27  2  0  0  0
 10 11  2  0  0  0
 10 15  1  0  0  0
 11 12  1  0  0  0
 11100  1  0  0  0
 12 13  2  0  0  0
 12101  1  0  0  0
 13 14  1  0  0  0
 13 31  1  0  0  0
 14 15  2  0  0  0
 14102  1  0  0  0
 15103  1  0  0  0
 16 17  2  0  0  0
 16 21  1  0  0  0
 16 31  1  0  0  0
 17 18  1  0  0  0
 17104  1  0  0  0
 18 19  2  0  0  0
 18105  1  0  0  0
 19 20  1  0  0  0
 19 24  1  0  0  0
 20 21  2  0  0  0
 20106  1  0  0  0
 21 23  1  0  0  0
 22 28  1  0  0  0
 22 32  2  0  0  0
 26 27  1  0  0  0
 28107  1  0  0  0
 28108  1  0  0  0
 29109  1  0  0  0
 29110  1  0  0  0
 33 34  1  0  0  0
 33 66  1  0  0  0
 33 70  2  0  0  0
 34 36  1  0  0  0
 34 59  1  0  0  0
 34111  1  0  0  0
 35 44  2  0  0  0
 35 45  1  0  0  0
 35 68  1  0  0  0
 36 56  1  0  0  0
 36112  1  0  0  0
 37 39  1  0  0  0
 37 47  1  0  0  0
 37 66  1  0  0  0
 37113  1  0  0  0
 38 43  2  0  0  0
 38 46  1  0  0  0
 38 47  1  0  0  0
 39 64  1  0  0  0
 39 67  2  0  0  0
 40 52  1  0  0  0
 40 53  2  0  0  0
 40 58  1  0  0  0
 41114  1  0  0  0
 41115  1  0  0  0
 41116  1  0  0  0
 41 48  1  0  0  0
 42 43  1  0  0  0
 42 66  1  0  0  0
 42117  1  0  0  0
 42118  1  0  0  0
 43 44  1  0  0  0
 44119  1  0  0  0
 45 46  2  0  0  0
 45120  1  0  0  0
 46121  1  0  0  0
 47122  1  0  0  0
 47123  1  0  0  0
 48 56  1  0  0  0
 48 65  1  0  0  0
 48124  1  0  0  0
 49 50  1  0  0  0
 49 53  1  0  0  0
 49 64  1  0  0  0
 49125  1  0  0  0
 50 51  1  0  0  0
 50126  1  0  0  0
 50127  1  0  0  0
 51 52  1  0  0  0
 51128  1  0  0  0
 51129  1  0  0  0
 52130  1  0  0  0
 52131  1  0  0  0
 53 54  1  0  0  0
 54 55  2  0  0  0
 54132  1  0  0  0
 55 57  1  0  0  0
 55133  1  0  0  0
 56 69  2  0  0  0
 57 58  2  0  0  0
 57134  1  0  0  0
 58135  1  0  0  0
 59 60  1  0  0  0
 59 61  1  0  0  0
 59 62  1  0  0  0
 60136  1  0  0  0
 60137  1  0  0  0
 60138  1  0  0  0
 61139  1  0  0  0
 61140  1  0  0  0
 61141  1  0  0  0
 62142  1  0  0  0
 62143  1  0  0  0
 62144  1  0  0  0
 63 65  1  0  0  0
 63145  1  0  0  0
 63146  1  0  0  0
 63147  1  0  0  0
 64148  1  0  0  0
 65149  1  0  0  0
 68 86  1  0  0  0
 71 72  2  0  0  0
 71 73  1  0  0  0
 71150  1  0  0  0
 72 74  1  0  0  0
 72151  1  0  0  0
 73 75  2  0  0  0
 73 81  1  0  0  0
 74 82  1  0  0  0
 74 89  2  0  0  0
 75 87  1  0  0  0
 75 89  1  0  0  0
 76 83  1  0  0  0
 76152  1  0  0  0
 76153  1  0  0  0
 76154  1  0  0  0
 77155  1  0  0  0
 77156  1  0  0  0
 77157  1  0  0  0
 77 87  1  0  0  0
 78 87  1  0  0  0
 78158  1  0  0  0
 78159  1  0  0  0
 78160  1  0  0  0
 79161  1  0  0  0
 79162  1  0  0  0
 79163  1  0  0  0
 79 88  1  0  0  0
 80 88  1  0  0  0
 80164  1  0  0  0
 80165  1  0  0  0
 80166  1  0  0  0
 81 84  1  0  0  0
 81167  1  0  0  0
 81168  1  0  0  0
 82 86  1  0  0  0
 82169  1  0  0  0
 82170  1  0  0  0
 83 88  1  0  0  0
 83171  1  0  0  0
 83172  1  0  0  0
 84 88  1  0  0  0
 84173  1  0  0  0
 84174  1  0  0  0
 85 87  1  0  0  0
 85 90  1  0  0  0
 85175  1  0  0  0
 85176  1  0  0  0
 86177  1  0  0  0
 86178  1  0  0  0
 90179  1  0  0  0
M  ISO  4   1 100  68 101  86 101  90 100
M  END
> <chiral flag>
0

> <version>
0

> <s_m_source_file>
/data/baiqing/PycharmProjects/Reinvent-master-3.2/result/LINK_invent/BTK/process_docking_weight1_custom_sum_contain_oxygen_bond_distance_aromatic_linkinvent_7_9_3/rearranged_h_0079.sdf

> <i_m_source_file_index>
70

> <r_mmod_Potential_Energy-OPLS-2005>
227.928207397461

> <r_mmod_Stretch_Energy-OPLS-2005>
123.777099609375

> <r_mmod_Bend_Energy-OPLS-2005>
393.431762695312

> <r_mmod_Torsional_Energy-OPLS-2005>
249.819046020508

> <r_mmod_Improper_Torsional_Energy-OPLS-2005>
6.13367033004761

> <r_mmod_Van_der_Waal_Energy-OPLS-2005>
151.70751953125

> <r_mmod_Electrostatic_Energy-OPLS-2005>
-561.517028808594

> <r_mmod_Solvation_Energy-OPLS-2005>
-203.273300170898

> <b_mmod_Minimization_Converged-OPLS-2005>
0

> <r_mmod_RMS_Derivative-OPLS-2005>
3.34876728057861

$$$$
70
                    3D
 Structure written by MMmdl.
166174  0  0  1  0            999 V2000
  -30.6439  -14.6364   20.5163 C   0  0  0  0  0  0
  -30.4472  -12.3974   19.4475 C   0  0  0  0  0  0
  -29.5141  -12.5013   18.2216 C   0  0  0  0  0  0
  -28.0356  -12.3437   18.6351 C   0  0  0  0  0  0
  -27.6581  -13.2129   19.8642 C   0  0  2  0  0  0
  -28.7063  -13.0708   20.9904 C   0  0  0  0  0  0
  -25.2594  -13.8126   20.5717 C   0  0  0  0  0  0
  -24.1848  -13.0400   20.9214 C   0  0  0  0  0  0
  -24.6403  -11.6882   20.8737 C   0  0  0  0  0  0
  -23.9057  -10.4276   21.0395 C   0  0  0  0  0  0
  -24.3598   -9.4208   21.9193 C   0  0  0  0  0  0
  -23.6266   -8.2251   22.0764 C   0  0  0  0  0  0
  -22.4256   -8.0285   21.3553 C   0  0  0  0  0  0
  -21.9886   -9.0263   20.4664 C   0  0  0  0  0  0
  -22.7213  -10.2143   20.3058 C   0  0  0  0  0  0
  -21.6847   -6.0725   22.5277 C   0  0  0  0  0  0
  -21.4005   -6.5631   23.8211 C   0  0  0  0  0  0
  -21.3662   -5.6795   24.9181 C   0  0  0  0  0  0
  -21.6031   -4.3050   24.7230 C   0  0  0  0  0  0
  -21.8827   -3.8140   23.4357 C   0  0  0  0  0  0
  -21.9193   -4.6952   22.3407 C   0  0  0  0  0  0
  -22.7870  -13.5221   21.1846 C   0  0  0  0  0  0
  -22.1657   -4.2130   21.0982 F   0  0  0  0  0  0
  -21.5633   -3.4537   25.7748 F   0  0  0  0  0  0
  -30.0186  -13.4188   20.4243 N   0  0  0  0  0  0
  -26.3026  -12.9312   20.3344 N   0  0  0  0  0  0
  -25.9332  -11.6466   20.5739 N   0  0  0  0  0  0
  -22.0454  -12.8258   22.0399 N   0  0  0  0  0  0
  -25.4293  -15.1842   20.4191 N   0  0  0  0  0  0
  -31.8058  -14.7942   20.1328 O   0  0  0  0  0  0
  -21.6638   -6.8867   21.4237 O   0  0  0  0  0  0
  -22.3564  -14.5520   20.6674 O   0  0  0  0  0  0
  -24.6255  -31.8612   23.2038 C   0  0  0  0  0  0
  -25.9103  -32.4782   23.8358 C   0  0  1  0  0  0
  -27.2237  -27.3216   20.1308 C   0  0  0  0  0  0
  -25.5934  -33.8586   24.2281 N   0  0  0  0  0  0
  -23.4179  -30.4839   21.5471 C   0  0  2  0  0  0
  -24.8626  -28.9311   20.1225 C   0  0  0  0  0  0
  -22.7466  -29.4635   22.4962 C   0  0  0  0  0  0
  -18.0290  -28.1382   22.8483 C   0  0  0  0  0  0
  -24.1489  -36.7288   23.2642 C   0  0  0  0  0  0
  -25.9570  -30.7914   21.3740 C   0  0  0  0  0  0
  -26.0296  -29.4152   20.7262 C   0  0  0  0  0  0
  -27.2138  -28.6224   20.7188 C   0  0  0  0  0  0
  -26.0416  -26.8899   19.4976 C   0  0  0  0  0  0
  -24.8696  -27.6714   19.5010 C   0  0  0  0  0  0
  -23.6311  -29.8134   20.1645 C   0  0  0  0  0  0
  -25.4114  -36.3081   24.0330 C   0  0  1  0  0  0
  -20.5886  -28.3681   23.1289 C   0  0  2  0  0  0
  -20.6781  -26.9407   22.5416 C   0  0  0  0  0  0
  -19.5758  -26.6376   21.5218 C   0  0  0  0  0  0
  -18.1933  -26.7930   22.1619 C   0  0  0  0  0  0
  -19.1541  -28.8851   23.2883 C   0  0  0  0  0  0
  -18.9456  -30.1454   23.8890 C   0  0  0  0  0  0
  -17.6463  -30.6582   24.0559 C   0  0  0  0  0  0
  -25.9052  -34.9453   23.5101 C   0  0  0  0  0  0
  -16.5348  -29.9085   23.6335 C   0  0  0  0  0  0
  -16.7276  -28.6500   23.0350 C   0  0  0  0  0  0
  -26.4486  -31.6595   25.0734 C   0  0  0  0  0  0
  -25.3720  -31.3738   26.1465 C   0  0  0  0  0  0
  -27.0338  -30.3020   24.6198 C   0  0  0  0  0  0
  -27.6044  -32.4347   25.7503 C   0  0  0  0  0  0
  -27.5574  -37.1802   24.8466 C   0  0  0  0  0  0
  -21.4186  -29.3039   22.3687 N   0  0  0  0  0  0
  -26.4283  -37.3779   23.9412 N   0  0  0  0  0  0
  -24.6851  -31.0630   22.0981 N   0  0  0  0  0  0
  -23.4195  -28.8187   23.3048 O   0  0  0  0  0  0
  -28.3741  -26.5293   20.0751 O   0  0  0  0  0  0
  -26.5616  -34.8916   22.4667 O   0  0  0  0  0  0
  -23.5419  -32.1402   23.7375 O   0  0  0  0  0  0
  -28.9071  -20.4975   21.3182 C   0  0  0  0  0  0
  -29.0596  -21.6994   18.9030 C   0  0  0  0  0  0
  -29.2538  -19.7150   20.1692 C   0  0  0  0  0  0
  -28.6331  -22.4677   20.0306 C   0  0  0  0  0  0
  -28.7689  -19.8840   22.6989 C   0  0  0  0  0  0
  -29.1174  -22.2803   17.5003 C   0  0  0  0  0  0
  -25.4677  -22.4808   20.3614 C   0  0  0  0  0  0
  -27.7742  -17.6527   20.0080 C   0  0  0  0  0  0
  -26.3532  -23.7199   20.0309 C   0  0  0  0  0  0
  -30.1585  -17.1855   20.9452 C   0  0  0  0  0  0
  -28.4389  -25.1641   20.6559 C   0  0  0  0  0  0
  -29.2332  -18.1331   20.0539 C   0  0  1  0  0  0
  -27.9066  -23.8778   19.8707 C   0  0  1  0  0  0
  -29.3632  -20.3689   18.9792 N   0  0  0  0  0  0
  -28.6206  -21.8417   21.2465 N   0  0  0  0  0  0
  -29.8628  -15.7007   20.8793 N   0  0  0  0  0  0
  -30.3988  -11.4002   19.8875 H   0  0  0  0  0  0
  -31.4849  -12.5332   19.1359 H   0  0  0  0  0  0
  -29.7801  -11.7423   17.4844 H   0  0  0  0  0  0
  -29.6592  -13.4666   17.7345 H   0  0  0  0  0  0
  -27.8683  -11.2910   18.8626 H   0  0  0  0  0  0
  -27.3840  -12.5781   17.7926 H   0  0  0  0  0  0
  -27.6751  -14.2472   19.5233 H   0  0  0  0  0  0
  -28.7241  -12.0479   21.3709 H   0  0  0  0  0  0
  -28.4553  -13.7025   21.8435 H   0  0  0  0  0  0
  -25.2731   -9.5679   22.4788 H   0  0  0  0  0  0
  -23.9972   -7.4620   22.7470 H   0  0  0  0  0  0
  -21.0822   -8.8761   19.8959 H   0  0  0  0  0  0
  -22.3641  -10.9690   19.6178 H   0  0  0  0  0  0
  -21.1990   -7.6138   23.9694 H   0  0  0  0  0  0
  -21.1475   -6.0540   25.9082 H   0  0  0  0  0  0
  -22.0605   -2.7596   23.2877 H   0  0  0  0  0  0
  -22.3987  -11.9922   22.4869 H   0  0  0  0  0  0
  -21.1062  -13.1329   22.2484 H   0  0  0  0  0  0
  -24.6744  -15.8461   20.5617 H   0  0  0  0  0  0
  -26.2794  -15.6223   20.0929 H   0  0  0  0  0  0
  -26.7185  -32.5448   23.1121 H   0  0  0  0  0  0
  -25.0117  -33.9736   25.0449 H   0  0  0  0  0  0
  -22.7117  -31.3049   21.4042 H   0  0  0  0  0  0
  -23.3750  -35.9621   23.3307 H   0  0  0  0  0  0
  -24.3575  -36.8907   22.2055 H   0  0  0  0  0  0
  -23.7240  -37.6491   23.6664 H   0  0  0  0  0  0
  -26.0871  -31.5513   20.6023 H   0  0  0  0  0  0
  -26.8380  -30.8426   22.0019 H   0  0  0  0  0  0
  -28.1170  -28.9997   21.1766 H   0  0  0  0  0  0
  -26.0212  -25.9507   18.9708 H   0  0  0  0  0  0
  -23.9783  -27.2984   19.0150 H   0  0  0  0  0  0
  -23.7494  -30.5876   19.4050 H   0  0  0  0  0  0
  -22.7497  -29.2429   19.8650 H   0  0  0  0  0  0
  -25.1294  -36.1935   25.0820 H   0  0  0  0  0  0
  -20.9976  -28.3260   24.1409 H   0  0  0  0  0  0
  -20.5693  -26.2291   23.3613 H   0  0  0  0  0  0
  -21.6649  -26.7448   22.1199 H   0  0  0  0  0  0
  -19.6918  -25.6289   21.1249 H   0  0  0  0  0  0
  -19.6698  -27.3188   20.6751 H   0  0  0  0  0  0
  -17.4213  -26.6691   21.4012 H   0  0  0  0  0  0
  -18.0309  -26.0070   22.9006 H   0  0  0  0  0  0
  -19.7934  -30.7277   24.2250 H   0  0  0  0  0  0
  -17.5011  -31.6268   24.5158 H   0  0  0  0  0  0
  -15.5348  -30.2978   23.7659 H   0  0  0  0  0  0
  -15.8678  -28.0822   22.7062 H   0  0  0  0  0  0
  -24.5909  -30.7071   25.7803 H   0  0  0  0  0  0
  -24.8889  -32.2899   26.4875 H   0  0  0  0  0  0
  -25.8038  -30.8941   27.0256 H   0  0  0  0  0  0
  -26.2917  -29.6769   24.1226 H   0  0  0  0  0  0
  -27.4037  -29.7286   25.4707 H   0  0  0  0  0  0
  -27.8778  -30.4305   23.9420 H   0  0  0  0  0  0
  -27.2652  -33.3660   26.2059 H   0  0  0  0  0  0
  -28.3856  -32.6901   25.0330 H   0  0  0  0  0  0
  -28.0714  -31.8498   26.5439 H   0  0  0  0  0  0
  -28.2597  -38.0097   24.7517 H   0  0  0  0  0  0
  -28.1064  -36.2627   24.6284 H   0  0  0  0  0  0
  -27.2293  -37.1445   25.8871 H   0  0  0  0  0  0
  -20.9371  -29.8747   21.6879 H   0  0  0  0  0  0
  -26.0163  -38.2853   24.1418 H   0  0  0  0  0  0
  -28.1027  -19.0239   22.6912 H   0  0  0  0  0  0
  -28.3629  -20.5988   23.4147 H   0  0  0  0  0  0
  -29.7438  -19.5633   23.0650 H   0  0  0  0  0  0
  -28.1326  -22.6189   17.1773 H   0  0  0  0  0  0
  -29.4686  -21.5471   16.7737 H   0  0  0  0  0  0
  -29.8002  -23.1284   17.4697 H   0  0  0  0  0  0
  -26.0290  -21.5439   20.4013 H   0  0  0  0  0  0
  -24.6728  -22.3426   19.6241 H   0  0  0  0  0  0
  -24.9497  -22.5754   21.3201 H   0  0  0  0  0  0
  -27.2726  -17.7835   20.9654 H   0  0  0  0  0  0
  -27.7101  -16.6032   19.7293 H   0  0  0  0  0  0
  -27.2060  -18.2097   19.2623 H   0  0  0  0  0  0
  -26.4412  -23.1621   19.0963 H   0  0  0  0  0  0
  -26.6368  -23.5549   21.0693 H   0  0  0  0  0  0
  -31.2045  -17.3716   20.6959 H   0  0  0  0  0  0
  -30.0548  -17.4652   21.9925 H   0  0  0  0  0  0
  -29.5092  -25.0052   20.7942 H   0  0  0  0  0  0
  -28.0350  -25.1869   21.6691 H   0  0  0  0  0  0
  -29.5997  -17.9399   19.0447 H   0  0  0  0  0  0
  -28.1048  -24.1881   18.8449 H   0  0  0  0  0  0
  -28.9257  -15.4438   21.1515 H   0  0  0  0  0  0
  1 25  1  0  0  0
  1 30  2  0  0  0
  1 86  1  0  0  0
  2  3  1  0  0  0
  2 25  1  0  0  0
  2 87  1  0  0  0
  2 88  1  0  0  0
  3  4  1  0  0  0
  3 89  1  0  0  0
  3 90  1  0  0  0
  4  5  1  0  0  0
  4 91  1  0  0  0
  4 92  1  0  0  0
  5  6  1  0  0  0
  5 26  1  0  0  0
  5 93  1  0  0  0
  6 25  1  0  0  0
  6 94  1  0  0  0
  6 95  1  0  0  0
  7  8  2  0  0  0
  7 26  1  0  0  0
  7 29  1  0  0  0
  8  9  1  0  0  0
  8 22  1  0  0  0
  9 10  1  0  0  0
  9 27  2  0  0  0
 10 11  2  0  0  0
 10 15  1  0  0  0
 11 12  1  0  0  0
 11 96  1  0  0  0
 12 13  2  0  0  0
 12 97  1  0  0  0
 13 14  1  0  0  0
 13 31  1  0  0  0
 14 15  2  0  0  0
 14 98  1  0  0  0
 15 99  1  0  0  0
 16 17  2  0  0  0
 16 21  1  0  0  0
 16 31  1  0  0  0
 17 18  1  0  0  0
 17100  1  0  0  0
 18 19  2  0  0  0
 18101  1  0  0  0
 19 20  1  0  0  0
 19 24  1  0  0  0
 20 21  2  0  0  0
 20102  1  0  0  0
 21 23  1  0  0  0
 22 28  1  0  0  0
 22 32  2  0  0  0
 26 27  1  0  0  0
 28103  1  0  0  0
 28104  1  0  0  0
 29105  1  0  0  0
 29106  1  0  0  0
 33 34  1  0  0  0
 33 66  1  0  0  0
 33 70  2  0  0  0
 34 36  1  0  0  0
 34 59  1  0  0  0
 34107  1  0  0  0
 35 44  2  0  0  0
 35 45  1  0  0  0
 35 68  1  0  0  0
 36 56  1  0  0  0
 36108  1  0  0  0
 37 39  1  0  0  0
 37 47  1  0  0  0
 37 66  1  0  0  0
 37109  1  0  0  0
 38 43  2  0  0  0
 38 46  1  0  0  0
 38 47  1  0  0  0
 39 64  1  0  0  0
 39 67  2  0  0  0
 40 52  1  0  0  0
 40 53  2  0  0  0
 40 58  1  0  0  0
 41110  1  0  0  0
 41111  1  0  0  0
 41112  1  0  0  0
 41 48  1  0  0  0
 42 43  1  0  0  0
 42 66  1  0  0  0
 42113  1  0  0  0
 42114  1  0  0  0
 43 44  1  0  0  0
 44115  1  0  0  0
 45 46  2  0  0  0
 45116  1  0  0  0
 46117  1  0  0  0
 47118  1  0  0  0
 47119  1  0  0  0
 48 56  1  0  0  0
 48 65  1  0  0  0
 48120  1  0  0  0
 49 50  1  0  0  0
 49 53  1  0  0  0
 49 64  1  0  0  0
 49121  1  0  0  0
 50 51  1  0  0  0
 50122  1  0  0  0
 50123  1  0  0  0
 51 52  1  0  0  0
 51124  1  0  0  0
 51125  1  0  0  0
 52126  1  0  0  0
 52127  1  0  0  0
 53 54  1  0  0  0
 54 55  2  0  0  0
 54128  1  0  0  0
 55 57  1  0  0  0
 55129  1  0  0  0
 56 69  2  0  0  0
 57 58  2  0  0  0
 57130  1  0  0  0
 58131  1  0  0  0
 59 60  1  0  0  0
 59 61  1  0  0  0
 59 62  1  0  0  0
 60132  1  0  0  0
 60133  1  0  0  0
 60134  1  0  0  0
 61135  1  0  0  0
 61136  1  0  0  0
 61137  1  0  0  0
 62138  1  0  0  0
 62139  1  0  0  0
 62140  1  0  0  0
 63 65  1  0  0  0
 63141  1  0  0  0
 63142  1  0  0  0
 63143  1  0  0  0
 64144  1  0  0  0
 65145  1  0  0  0
 68 81  1  0  0  0
 71 73  2  0  0  0
 71 75  1  0  0  0
 71 85  1  0  0  0
 72 74  1  0  0  0
 72 76  1  0  0  0
 72 84  2  0  0  0
 73 82  1  0  0  0
 73 84  1  0  0  0
 74 83  1  0  0  0
 74 85  2  0  0  0
 75146  1  0  0  0
 75147  1  0  0  0
 75148  1  0  0  0
 76149  1  0  0  0
 76150  1  0  0  0
 76151  1  0  0  0
 77 79  1  0  0  0
 77152  1  0  0  0
 77153  1  0  0  0
 77154  1  0  0  0
 78155  1  0  0  0
 78156  1  0  0  0
 78157  1  0  0  0
 78 82  1  0  0  0
 79158  1  0  0  0
 79159  1  0  0  0
 79 83  1  0  0  0
 80 82  1  0  0  0
 80 86  1  0  0  0
 80160  1  0  0  0
 80161  1  0  0  0
 81 83  1  0  0  0
 81162  1  0  0  0
 81163  1  0  0  0
 82164  1  0  0  0
 83165  1  0  0  0
 86166  1  0  0  0
M  ISO  4   1 100  68 101  81 101  86 100
M  END
> <chiral flag>
0

> <version>
0

> <s_m_source_file>
/data/baiqing/PycharmProjects/Reinvent-master-3.2/result/LINK_invent/BTK/process_docking_weight1_custom_sum_contain_oxygen_bond_distance_aromatic_linkinvent_7_9_3/rearranged_h_0079.sdf

> <i_m_source_file_index>
71

> <r_mmod_Potential_Energy-OPLS-2005>
349.592651367188

> <r_mmod_Stretch_Energy-OPLS-2005>
93.7217025756836

> <r_mmod_Bend_Energy-OPLS-2005>
396.420562744141

> <r_mmod_Torsional_Energy-OPLS-2005>
224.404998779297

> <r_mmod_Improper_Torsional_Energy-OPLS-2005>
7.31488943099976

> <r_mmod_Van_der_Waal_Energy-OPLS-2005>
152.786224365234

> <r_mmod_Electrostatic_Energy-OPLS-2005>
-350.140441894531

> <r_mmod_Solvation_Energy-OPLS-2005>
-217.303695678711

> <b_mmod_Minimization_Converged-OPLS-2005>
0

> <r_mmod_RMS_Derivative-OPLS-2005>
2.60396575927734

$$$$
71
                    3D
 Structure written by MMmdl.
152160  0  0  1  0            999 V2000
  -30.4310  -15.2087   20.3829 C   0  0  0  0  0  0
  -30.4463  -12.7644   19.5227 C   0  0  0  0  0  0
  -29.5364  -12.5734   18.2826 C   0  0  0  0  0  0
  -28.0823  -12.2999   18.7094 C   0  0  0  0  0  0
  -27.6166  -13.2656   19.8274 C   0  0  2  0  0  0
  -28.6522  -13.4018   20.9643 C   0  0  0  0  0  0
  -25.2396  -13.8222   20.5714 C   0  0  0  0  0  0
  -24.1746  -13.0428   20.9250 C   0  0  0  0  0  0
  -24.6387  -11.6916   20.8755 C   0  0  0  0  0  0
  -23.9078  -10.4282   21.0400 C   0  0  0  0  0  0
  -24.3624   -9.4199   21.9180 C   0  0  0  0  0  0
  -23.6290   -8.2241   22.0754 C   0  0  0  0  0  0
  -22.4276   -8.0274   21.3539 C   0  0  0  0  0  0
  -21.9914   -9.0250   20.4645 C   0  0  0  0  0  0
  -22.7247  -10.2127   20.3051 C   0  0  0  0  0  0
  -21.6853   -6.0725   22.5270 C   0  0  0  0  0  0
  -21.4017   -6.5631   23.8202 C   0  0  0  0  0  0
  -21.3661   -5.6788   24.9166 C   0  0  0  0  0  0
  -21.6046   -4.3049   24.7223 C   0  0  0  0  0  0
  -21.8819   -3.8135   23.4343 C   0  0  0  0  0  0
  -21.9195   -4.6952   22.3396 C   0  0  0  0  0  0
  -22.7762  -13.5182   21.1901 C   0  0  0  0  0  0
  -22.1662   -4.2135   21.0974 F   0  0  0  0  0  0
  -21.5633   -3.4532   25.7736 F   0  0  0  0  0  0
  -29.8948  -13.8951   20.3484 N   0  0  0  0  0  0
  -26.2825  -12.9485   20.3208 N   0  0  0  0  0  0
  -25.9324  -11.6599   20.5717 N   0  0  0  0  0  0
  -22.0423  -12.8172   22.0462 N   0  0  0  0  0  0
  -25.4002  -15.1954   20.4083 N   0  0  0  0  0  0
  -31.6521  -15.2490   20.1644 O   0  0  0  0  0  0
  -21.6642   -6.8869   21.4232 O   0  0  0  0  0  0
  -22.3444  -14.5485   20.6736 O   0  0  0  0  0  0
  -24.6591  -31.8268   23.1728 C   0  0  0  0  0  0
  -25.9292  -32.4602   23.8181 C   0  0  1  0  0  0
  -27.2224  -26.9685   20.1824 C   0  0  0  0  0  0
  -25.5978  -33.8413   24.2102 N   0  0  0  0  0  0
  -23.4727  -30.4388   21.5201 C   0  0  2  0  0  0
  -24.9255  -28.8303   20.1147 C   0  0  0  0  0  0
  -22.7651  -29.4456   22.4785 C   0  0  0  0  0  0
  -18.0324  -28.1396   22.8468 C   0  0  0  0  0  0
  -24.1490  -36.7211   23.2647 C   0  0  0  0  0  0
  -26.0385  -30.6468   21.3970 C   0  0  0  0  0  0
  -26.1083  -29.2399   20.7428 C   0  0  0  0  0  0
  -27.2539  -28.3302   20.7499 C   0  0  0  0  0  0
  -26.0090  -26.6980   19.5114 C   0  0  0  0  0  0
  -24.8980  -27.5782   19.4807 C   0  0  0  0  0  0
  -23.7113  -29.7547   20.1467 C   0  0  0  0  0  0
  -25.4127  -36.2972   24.0302 C   0  0  1  0  0  0
  -20.5945  -28.3744   23.1186 C   0  0  2  0  0  0
  -20.6798  -26.9427   22.5396 C   0  0  0  0  0  0
  -19.5773  -26.6374   21.5205 C   0  0  0  0  0  0
  -18.1955  -26.7930   22.1614 C   0  0  0  0  0  0
  -19.1584  -28.8889   23.2814 C   0  0  0  0  0  0
  -18.9497  -30.1481   23.8845 C   0  0  0  0  0  0
  -17.6492  -30.6591   24.0551 C   0  0  0  0  0  0
  -25.9089  -34.9358   23.5023 C   0  0  0  0  0  0
  -16.5384  -29.9080   23.6336 C   0  0  0  0  0  0
  -16.7306  -28.6499   23.0355 C   0  0  0  0  0  0
  -26.4566  -31.6533   25.0693 C   0  0  0  0  0  0
  -25.3699  -31.3770   26.1354 C   0  0  0  0  0  0
  -27.0466  -30.2905   24.6403 C   0  0  0  0  0  0
  -27.6052  -32.4356   25.7491 C   0  0  0  0  0  0
  -27.5570  -37.1762   24.8470 C   0  0  0  0  0  0
  -21.4326  -29.3045   22.3538 N   0  0  0  0  0  0
  -26.4279  -37.3704   23.9411 N   0  0  0  0  0  0
  -24.7443  -30.9975   22.0838 N   0  0  0  0  0  0
  -23.4216  -28.8012   23.3003 O   0  0  0  0  0  0
  -28.2528  -25.9043   20.2323 O   0  0  0  0  0  0
  -26.5695  -34.8890   22.4613 O   0  0  0  0  0  0
  -23.5673  -32.1217   23.6853 O   0  0  0  0  0  0
  -28.1551  -20.2221   20.0426 C   0  0  0  0  0  0
  -28.3258  -18.7518   20.1027 C   0  0  0  0  0  0
  -29.1873  -21.2060   20.2960 C   0  0  0  0  0  0
  -30.3691  -20.3896   20.6173 C   0  0  0  0  0  0
  -29.5466  -18.0108   20.3901 C   0  0  0  0  0  0
  -31.6534  -21.1027   21.0004 C   0  0  0  0  0  0
  -29.8300  -23.2223   18.7493 C   0  0  0  0  0  0
  -28.0237  -24.2843   20.2654 C   0  0  0  0  0  0
  -29.1830  -22.9483   20.1167 C   0  0  1  0  0  0
  -30.5250  -18.9696   20.6436 N   0  0  0  0  0  0
  -29.5744  -16.4049   20.4485 N   0  0  0  0  0  0
  -31.4676  -12.9686   19.1985 H   0  0  0  0  0  0
  -30.5011  -11.8459   20.1085 H   0  0  0  0  0  0
  -29.9065  -11.7592   17.6582 H   0  0  0  0  0  0
  -29.5722  -13.4735   17.6665 H   0  0  0  0  0  0
  -28.0340  -11.2721   19.0724 H   0  0  0  0  0  0
  -27.4136  -12.3522   17.8498 H   0  0  0  0  0  0
  -27.5430  -14.2405   19.3445 H   0  0  0  0  0  0
  -28.8026  -12.4539   21.4832 H   0  0  0  0  0  0
  -28.3014  -14.1128   21.7142 H   0  0  0  0  0  0
  -25.2765   -9.5676   22.4761 H   0  0  0  0  0  0
  -23.9989   -7.4636   22.7483 H   0  0  0  0  0  0
  -21.0842   -8.8764   19.8958 H   0  0  0  0  0  0
  -22.3691  -10.9662   19.6161 H   0  0  0  0  0  0
  -21.2006   -7.6137   23.9696 H   0  0  0  0  0  0
  -21.1490   -6.0520   25.9069 H   0  0  0  0  0  0
  -22.0599   -2.7594   23.2845 H   0  0  0  0  0  0
  -22.4049  -11.9836   22.4848 H   0  0  0  0  0  0
  -21.1040  -13.1186   22.2679 H   0  0  0  0  0  0
  -24.6132  -15.8303   20.4894 H   0  0  0  0  0  0
  -26.2127  -15.6288   19.9922 H   0  0  0  0  0  0
  -26.7350  -32.5158   23.0888 H   0  0  0  0  0  0
  -25.0086  -33.9492   25.0224 H   0  0  0  0  0  0
  -22.7842  -31.2687   21.3502 H   0  0  0  0  0  0
  -23.3766  -35.9529   23.3283 H   0  0  0  0  0  0
  -24.3574  -36.8882   22.2071 H   0  0  0  0  0  0
  -23.7238  -37.6386   23.6717 H   0  0  0  0  0  0
  -26.2143  -31.3910   20.6196 H   0  0  0  0  0  0
  -26.8995  -30.7029   22.0510 H   0  0  0  0  0  0
  -28.1537  -28.6432   21.2607 H   0  0  0  0  0  0
  -25.8880  -25.7454   19.0182 H   0  0  0  0  0  0
  -23.9982  -27.2587   18.9732 H   0  0  0  0  0  0
  -23.8659  -30.5221   19.3870 H   0  0  0  0  0  0
  -22.8219  -29.2062   19.8306 H   0  0  0  0  0  0
  -25.1322  -36.1771   25.0792 H   0  0  0  0  0  0
  -21.0038  -28.3351   24.1306 H   0  0  0  0  0  0
  -20.5685  -26.2358   23.3637 H   0  0  0  0  0  0
  -21.6663  -26.7404   22.1197 H   0  0  0  0  0  0
  -19.6933  -25.6275   21.1261 H   0  0  0  0  0  0
  -19.6711  -27.3164   20.6713 H   0  0  0  0  0  0
  -17.4225  -26.6679   21.4019 H   0  0  0  0  0  0
  -18.0342  -26.0088   22.9018 H   0  0  0  0  0  0
  -19.7977  -30.7298   24.2211 H   0  0  0  0  0  0
  -17.5048  -31.6269   24.5156 H   0  0  0  0  0  0
  -15.5379  -30.2959   23.7698 H   0  0  0  0  0  0
  -15.8706  -28.0803   22.7090 H   0  0  0  0  0  0
  -24.5891  -30.7112   25.7662 H   0  0  0  0  0  0
  -24.8875  -32.2965   26.4676 H   0  0  0  0  0  0
  -25.7936  -30.9005   27.0202 H   0  0  0  0  0  0
  -26.3124  -29.6578   24.1405 H   0  0  0  0  0  0
  -27.4003  -29.7277   25.5051 H   0  0  0  0  0  0
  -27.9059  -30.4097   23.9805 H   0  0  0  0  0  0
  -27.2610  -33.3710   26.1918 H   0  0  0  0  0  0
  -28.3927  -32.6843   25.0362 H   0  0  0  0  0  0
  -28.0640  -31.8585   26.5532 H   0  0  0  0  0  0
  -28.2563  -38.0085   24.7518 H   0  0  0  0  0  0
  -28.1096  -36.2609   24.6287 H   0  0  0  0  0  0
  -27.2293  -37.1382   25.8876 H   0  0  0  0  0  0
  -20.9576  -29.8747   21.6684 H   0  0  0  0  0  0
  -26.0133  -38.2760   24.1432 H   0  0  0  0  0  0
  -27.1770  -20.5941   19.7739 H   0  0  0  0  0  0
  -27.4389  -18.1697   19.8964 H   0  0  0  0  0  0
  -31.4854  -21.7563   21.8559 H   0  0  0  0  0  0
  -32.0371  -21.7031   20.1780 H   0  0  0  0  0  0
  -32.4385  -20.3990   21.2803 H   0  0  0  0  0  0
  -30.8048  -22.7499   18.6461 H   0  0  0  0  0  0
  -29.9762  -24.2919   18.5899 H   0  0  0  0  0  0
  -29.1991  -22.8557   17.9386 H   0  0  0  0  0  0
  -27.4991  -24.1128   21.2058 H   0  0  0  0  0  0
  -27.2736  -24.0852   19.5014 H   0  0  0  0  0  0
  -29.9210  -23.2396   20.8633 H   0  0  0  0  0  0
  -28.6301  -16.0654   20.5270 H   0  0  0  0  0  0
  1 25  1  0  0  0
  1 30  2  0  0  0
  1 81  1  0  0  0
  2  3  1  0  0  0
  2 25  1  0  0  0
  2 82  1  0  0  0
  2 83  1  0  0  0
  3  4  1  0  0  0
  3 84  1  0  0  0
  3 85  1  0  0  0
  4  5  1  0  0  0
  4 86  1  0  0  0
  4 87  1  0  0  0
  5  6  1  0  0  0
  5 26  1  0  0  0
  5 88  1  0  0  0
  6 25  1  0  0  0
  6 89  1  0  0  0
  6 90  1  0  0  0
  7  8  2  0  0  0
  7 26  1  0  0  0
  7 29  1  0  0  0
  8  9  1  0  0  0
  8 22  1  0  0  0
  9 10  1  0  0  0
  9 27  2  0  0  0
 10 11  2  0  0  0
 10 15  1  0  0  0
 11 12  1  0  0  0
 11 91  1  0  0  0
 12 13  2  0  0  0
 12 92  1  0  0  0
 13 14  1  0  0  0
 13 31  1  0  0  0
 14 15  2  0  0  0
 14 93  1  0  0  0
 15 94  1  0  0  0
 16 17  2  0  0  0
 16 21  1  0  0  0
 16 31  1  0  0  0
 17 18  1  0  0  0
 17 95  1  0  0  0
 18 19  2  0  0  0
 18 96  1  0  0  0
 19 20  1  0  0  0
 19 24  1  0  0  0
 20 21  2  0  0  0
 20 97  1  0  0  0
 21 23  1  0  0  0
 22 28  1  0  0  0
 22 32  2  0  0  0
 26 27  1  0  0  0
 28 98  1  0  0  0
 28 99  1  0  0  0
 29100  1  0  0  0
 29101  1  0  0  0
 33 34  1  0  0  0
 33 66  1  0  0  0
 33 70  2  0  0  0
 34 36  1  0  0  0
 34 59  1  0  0  0
 34102  1  0  0  0
 35 44  2  0  0  0
 35 45  1  0  0  0
 35 68  1  0  0  0
 36 56  1  0  0  0
 36103  1  0  0  0
 37 39  1  0  0  0
 37 47  1  0  0  0
 37 66  1  0  0  0
 37104  1  0  0  0
 38 43  2  0  0  0
 38 46  1  0  0  0
 38 47  1  0  0  0
 39 64  1  0  0  0
 39 67  2  0  0  0
 40 52  1  0  0  0
 40 53  2  0  0  0
 40 58  1  0  0  0
 41105  1  0  0  0
 41106  1  0  0  0
 41107  1  0  0  0
 41 48  1  0  0  0
 42 43  1  0  0  0
 42 66  1  0  0  0
 42108  1  0  0  0
 42109  1  0  0  0
 43 44  1  0  0  0
 44110  1  0  0  0
 45 46  2  0  0  0
 45111  1  0  0  0
 46112  1  0  0  0
 47113  1  0  0  0
 47114  1  0  0  0
 48 56  1  0  0  0
 48 65  1  0  0  0
 48115  1  0  0  0
 49 50  1  0  0  0
 49 53  1  0  0  0
 49 64  1  0  0  0
 49116  1  0  0  0
 50 51  1  0  0  0
 50117  1  0  0  0
 50118  1  0  0  0
 51 52  1  0  0  0
 51119  1  0  0  0
 51120  1  0  0  0
 52121  1  0  0  0
 52122  1  0  0  0
 53 54  1  0  0  0
 54 55  2  0  0  0
 54123  1  0  0  0
 55 57  1  0  0  0
 55124  1  0  0  0
 56 69  2  0  0  0
 57 58  2  0  0  0
 57125  1  0  0  0
 58126  1  0  0  0
 59 60  1  0  0  0
 59 61  1  0  0  0
 59 62  1  0  0  0
 60127  1  0  0  0
 60128  1  0  0  0
 60129  1  0  0  0
 61130  1  0  0  0
 61131  1  0  0  0
 61132  1  0  0  0
 62133  1  0  0  0
 62134  1  0  0  0
 62135  1  0  0  0
 63 65  1  0  0  0
 63136  1  0  0  0
 63137  1  0  0  0
 63138  1  0  0  0
 64139  1  0  0  0
 65140  1  0  0  0
 68 78  1  0  0  0
 71 72  2  0  0  0
 71 73  1  0  0  0
 71141  1  0  0  0
 72 75  1  0  0  0
 72142  1  0  0  0
 73 74  2  0  0  0
 73 79  1  0  0  0
 74 76  1  0  0  0
 74 80  1  0  0  0
 75 80  2  0  0  0
 75 81  1  0  0  0
 76143  1  0  0  0
 76144  1  0  0  0
 76145  1  0  0  0
 77146  1  0  0  0
 77147  1  0  0  0
 77148  1  0  0  0
 77 79  1  0  0  0
 78 79  1  0  0  0
 78149  1  0  0  0
 78150  1  0  0  0
 79151  1  0  0  0
 81152  1  0  0  0
M  ISO  4   1 100  68 101  78 101  81 100
M  END
> <chiral flag>
0

> <version>
0

> <s_m_source_file>
/data/baiqing/PycharmProjects/Reinvent-master-3.2/result/LINK_invent/BTK/process_docking_weight1_custom_sum_contain_oxygen_bond_distance_aromatic_linkinvent_7_9_3/rearranged_h_0079.sdf

> <i_m_source_file_index>
72

> <r_mmod_Potential_Energy-OPLS-2005>
904.858642578125

> <r_mmod_Stretch_Energy-OPLS-2005>
470.871765136719

> <r_mmod_Bend_Energy-OPLS-2005>
422.052947998047

> <r_mmod_Torsional_Energy-OPLS-2005>
216.380722045898

> <r_mmod_Improper_Torsional_Energy-OPLS-2005>
5.63370132446289

> <r_mmod_Van_der_Waal_Energy-OPLS-2005>
129.971099853516

> <r_mmod_Electrostatic_Energy-OPLS-2005>
-504.405395507812

> <r_mmod_Solvation_Energy-OPLS-2005>
-232.804946899414

> <b_mmod_Minimization_Converged-OPLS-2005>
0

> <r_mmod_RMS_Derivative-OPLS-2005>
1.35878264904022

$$$$
72
                    3D
 Structure written by MMmdl.
175183  0  0  1  0            999 V2000
  -30.7191  -14.5144   20.3702 C   0  0  0  0  0  0
  -30.4099  -12.2846   19.4515 C   0  0  0  0  0  0
  -29.5024  -12.4524   18.2174 C   0  0  0  0  0  0
  -28.0207  -12.3358   18.6261 C   0  0  0  0  0  0
  -27.6533  -13.2213   19.8494 C   0  0  2  0  0  0
  -28.7040  -13.1061   20.9779 C   0  0  0  0  0  0
  -25.2585  -13.8190   20.5682 C   0  0  0  0  0  0
  -24.1869  -13.0443   20.9213 C   0  0  0  0  0  0
  -24.6452  -11.6917   20.8744 C   0  0  0  0  0  0
  -23.9131  -10.4285   21.0419 C   0  0  0  0  0  0
  -24.3664   -9.4201   21.9210 C   0  0  0  0  0  0
  -23.6319   -8.2240   22.0787 C   0  0  0  0  0  0
  -22.4298   -8.0299   21.3565 C   0  0  0  0  0  0
  -21.9957   -9.0281   20.4672 C   0  0  0  0  0  0
  -22.7299  -10.2140   20.3086 C   0  0  0  0  0  0
  -21.6853   -6.0780   22.5293 C   0  0  0  0  0  0
  -21.4013   -6.5674   23.8229 C   0  0  0  0  0  0
  -21.3656   -5.6806   24.9181 C   0  0  0  0  0  0
  -21.6021   -4.3069   24.7204 C   0  0  0  0  0  0
  -21.8815   -3.8200   23.4323 C   0  0  0  0  0  0
  -21.9192   -4.7020   22.3404 C   0  0  0  0  0  0
  -22.7879  -13.5226   21.1837 C   0  0  0  0  0  0
  -22.1654   -4.2215   21.0967 F   0  0  0  0  0  0
  -21.5630   -3.4539   25.7725 F   0  0  0  0  0  0
  -30.0324  -13.3420   20.3961 N   0  0  0  0  0  0
  -26.3025  -12.9387   20.3292 N   0  0  0  0  0  0
  -25.9390  -11.6535   20.5773 N   0  0  0  0  0  0
  -22.0519  -12.8219   22.0372 N   0  0  0  0  0  0
  -25.4240  -15.1923   20.4094 N   0  0  0  0  0  0
  -31.9397  -14.5662   20.2248 O   0  0  0  0  0  0
  -21.6637   -6.8915   21.4258 O   0  0  0  0  0  0
  -22.3548  -14.5519   20.6685 O   0  0  0  0  0  0
  -24.6050  -31.8674   23.2181 C   0  0  0  0  0  0
  -25.8959  -32.4815   23.8429 C   0  0  1  0  0  0
  -27.2425  -27.4766   20.0731 C   0  0  0  0  0  0
  -25.5867  -33.8636   24.2366 N   0  0  0  0  0  0
  -23.3900  -30.4908   21.5535 C   0  0  2  0  0  0
  -24.8374  -28.9664   20.1093 C   0  0  0  0  0  0
  -22.7322  -29.4626   22.5004 C   0  0  0  0  0  0
  -18.0234  -28.1296   22.8482 C   0  0  0  0  0  0
  -24.1481  -36.7364   23.2626 C   0  0  0  0  0  0
  -25.9072  -30.8475   21.3527 C   0  0  0  0  0  0
  -25.9911  -29.4804   20.7102 C   0  0  0  0  0  0
  -27.1911  -28.7374   20.6990 C   0  0  0  0  0  0
  -26.0657  -26.9617   19.4762 C   0  0  0  0  0  0
  -24.8694  -27.7039   19.4928 C   0  0  0  0  0  0
  -23.5906  -29.8203   20.1679 C   0  0  0  0  0  0
  -25.4088  -36.3134   24.0318 C   0  0  1  0  0  0
  -20.5818  -28.3611   23.1294 C   0  0  2  0  0  0
  -20.6725  -26.9336   22.5395 C   0  0  0  0  0  0
  -19.5733  -26.6319   21.5165 C   0  0  0  0  0  0
  -18.1913  -26.7860   22.1588 C   0  0  0  0  0  0
  -19.1476  -28.8777   23.2903 C   0  0  0  0  0  0
  -18.9418  -30.1404   23.8894 C   0  0  0  0  0  0
  -17.6423  -30.6533   24.0548 C   0  0  0  0  0  0
  -25.8991  -34.9479   23.5134 C   0  0  0  0  0  0
  -16.5315  -29.9019   23.6337 C   0  0  0  0  0  0
  -16.7245  -28.6435   23.0357 C   0  0  0  0  0  0
  -26.4447  -31.6567   25.0722 C   0  0  0  0  0  0
  -25.3758  -31.3577   26.1484 C   0  0  0  0  0  0
  -27.0276  -30.3043   24.6033 C   0  0  0  0  0  0
  -27.6073  -32.4252   25.7447 C   0  0  0  0  0  0
  -27.5577  -37.1810   24.8427 C   0  0  0  0  0  0
  -21.4055  -29.2996   22.3738 N   0  0  0  0  0  0
  -26.4295  -37.3799   23.9394 N   0  0  0  0  0  0
  -24.6539  -31.0799   22.1051 N   0  0  0  0  0  0
  -23.4108  -28.8134   23.2996 O   0  0  0  0  0  0
  -28.4452  -26.8087   20.0629 O   0  0  0  0  0  0
  -26.5519  -34.8916   22.4668 O   0  0  0  0  0  0
  -23.5258  -32.1420   23.7604 O   0  0  0  0  0  0
  -29.5386  -21.3623   19.6176 C   0  0  0  0  0  0
  -30.4659  -22.0615   17.1662 C   0  0  0  0  0  0
  -30.2690  -23.0340   18.1831 C   0  0  0  0  0  0
  -29.7425  -20.3726   18.6121 C   0  0  0  0  0  0
  -28.9928  -21.0481   20.9981 C   0  0  0  0  0  0
  -29.9455  -22.5685   14.7307 C   0  0  0  0  0  0
  -28.3079  -18.4411   17.8621 C   0  0  0  0  0  0
  -31.6915  -18.1990   17.7303 C   0  0  0  0  0  0
  -31.4499  -18.1610   20.2020 C   0  0  0  0  0  0
  -31.0352  -22.4039   15.7951 C   0  0  0  0  0  0
  -30.6203  -24.5075   17.9734 C   0  0  0  0  0  0
  -30.1565  -25.5017   19.0680 C   0  0  0  0  0  0
  -30.3556  -16.3564   18.7693 C   0  0  0  0  0  0
  -28.6392  -25.7374   19.1448 C   0  0  0  0  0  0
  -29.4383  -18.8610   18.8294 C   0  0  1  0  0  0
  -30.6983  -17.8942   18.8830 C   0  0  0  0  0  0
  -29.8152  -22.6714   19.4072 N   0  0  0  0  0  0
  -30.1764  -20.7509   17.3786 N   0  0  0  0  0  0
  -29.9833  -15.5803   19.9823 N   0  0  0  0  0  0
  -31.4601  -12.3385   19.1629 H   0  0  0  0  0  0
  -30.2737  -11.3028   19.9090 H   0  0  0  0  0  0
  -29.7436  -11.6964   17.4696 H   0  0  0  0  0  0
  -29.6861  -13.4192   17.7457 H   0  0  0  0  0  0
  -27.8253  -11.2863   18.8524 H   0  0  0  0  0  0
  -27.3816  -12.5844   17.7788 H   0  0  0  0  0  0
  -27.6584  -14.2503   19.4908 H   0  0  0  0  0  0
  -28.6686  -12.1183   21.4411 H   0  0  0  0  0  0
  -28.4952  -13.8290   21.7687 H   0  0  0  0  0  0
  -25.2799   -9.5647   22.4772 H   0  0  0  0  0  0
  -24.0031   -7.4620   22.7494 H   0  0  0  0  0  0
  -21.0906   -8.8794   19.8951 H   0  0  0  0  0  0
  -22.3791  -10.9684   19.6176 H   0  0  0  0  0  0
  -21.1999   -7.6174   23.9748 H   0  0  0  0  0  0
  -21.1473   -6.0536   25.9070 H   0  0  0  0  0  0
  -22.0604   -2.7668   23.2805 H   0  0  0  0  0  0
  -22.4146  -11.9857   22.4720 H   0  0  0  0  0  0
  -21.1154  -13.1250   22.2578 H   0  0  0  0  0  0
  -24.6532  -15.8405   20.5252 H   0  0  0  0  0  0
  -26.2710  -15.6387   20.0859 H   0  0  0  0  0  0
  -26.7001  -32.5554   23.1173 H   0  0  0  0  0  0
  -25.0128  -33.9851   25.0599 H   0  0  0  0  0  0
  -22.6768  -31.3056   21.4128 H   0  0  0  0  0  0
  -23.3734  -35.9691   23.3271 H   0  0  0  0  0  0
  -24.3602  -36.9029   22.2046 H   0  0  0  0  0  0
  -23.7211  -37.6561   23.6665 H   0  0  0  0  0  0
  -25.9827  -31.6044   20.5732 H   0  0  0  0  0  0
  -26.8053  -30.9225   21.9492 H   0  0  0  0  0  0
  -28.0860  -29.1419   21.1551 H   0  0  0  0  0  0
  -26.0590  -25.9984   18.9924 H   0  0  0  0  0  0
  -23.9813  -27.3034   19.0232 H   0  0  0  0  0  0
  -23.6650  -30.5863   19.3952 H   0  0  0  0  0  0
  -22.7250  -29.2177   19.8942 H   0  0  0  0  0  0
  -25.1227  -36.2007   25.0791 H   0  0  0  0  0  0
  -20.9973  -28.3170   24.1383 H   0  0  0  0  0  0
  -20.5541  -26.2214   23.3585 H   0  0  0  0  0  0
  -21.6606  -26.7301   22.1225 H   0  0  0  0  0  0
  -19.6894  -25.6213   21.1222 H   0  0  0  0  0  0
  -19.6697  -27.3124   20.6689 H   0  0  0  0  0  0
  -17.4177  -26.6631   21.3982 H   0  0  0  0  0  0
  -18.0337  -25.9915   22.8914 H   0  0  0  0  0  0
  -19.7886  -30.7231   24.2247 H   0  0  0  0  0  0
  -17.4953  -31.6225   24.5132 H   0  0  0  0  0  0
  -15.5315  -30.2899   23.7643 H   0  0  0  0  0  0
  -15.8654  -28.0751   22.7050 H   0  0  0  0  0  0
  -24.6003  -30.6808   25.7836 H   0  0  0  0  0  0
  -24.8838  -32.2673   26.4957 H   0  0  0  0  0  0
  -25.8175  -30.8772   27.0232 H   0  0  0  0  0  0
  -26.2793  -29.6769   24.1173 H   0  0  0  0  0  0
  -27.4155  -29.7282   25.4455 H   0  0  0  0  0  0
  -27.8569  -30.4379   23.9083 H   0  0  0  0  0  0
  -27.2787  -33.3590   26.2014 H   0  0  0  0  0  0
  -28.3920  -32.6737   25.0281 H   0  0  0  0  0  0
  -28.0688  -31.8352   26.5386 H   0  0  0  0  0  0
  -28.2527  -38.0176   24.7600 H   0  0  0  0  0  0
  -28.1163  -36.2729   24.6123 H   0  0  0  0  0  0
  -27.2343  -37.1310   25.8839 H   0  0  0  0  0  0
  -20.9188  -29.8863   21.7107 H   0  0  0  0  0  0
  -26.0197  -38.2870   24.1464 H   0  0  0  0  0  0
  -29.7483  -20.5280   21.5807 H   0  0  0  0  0  0
  -28.0983  -20.4270   20.9399 H   0  0  0  0  0  0
  -28.7218  -21.9606   21.5323 H   0  0  0  0  0  0
  -30.3828  -22.7775   13.7532 H   0  0  0  0  0  0
  -29.2731  -23.3906   14.9796 H   0  0  0  0  0  0
  -29.3495  -21.6590   14.6475 H   0  0  0  0  0  0
  -27.4872  -19.1578   17.9036 H   0  0  0  0  0  0
  -27.8756  -17.4756   18.1228 H   0  0  0  0  0  0
  -28.6393  -18.3967   16.8252 H   0  0  0  0  0  0
  -32.5245  -17.4962   17.7024 H   0  0  0  0  0  0
  -32.1556  -19.1800   17.8312 H   0  0  0  0  0  0
  -31.1970  -18.1595   16.7570 H   0  0  0  0  0  0
  -32.3579  -17.5611   20.2728 H   0  0  0  0  0  0
  -30.8318  -17.9290   21.0696 H   0  0  0  0  0  0
  -31.7444  -19.2076   20.2894 H   0  0  0  0  0  0
  -31.7212  -21.6118   15.4915 H   0  0  0  0  0  0
  -31.6456  -23.3054   15.8371 H   0  0  0  0  0  0
  -30.2274  -24.8243   17.0064 H   0  0  0  0  0  0
  -31.7038  -24.5705   17.8791 H   0  0  0  0  0  0
  -30.6264  -26.4630   18.8630 H   0  0  0  0  0  0
  -30.5322  -25.1936   20.0434 H   0  0  0  0  0  0
  -31.2004  -15.8503   18.2978 H   0  0  0  0  0  0
  -29.5761  -16.1871   18.0324 H   0  0  0  0  0  0
  -28.1124  -24.8462   19.4875 H   0  0  0  0  0  0
  -28.2494  -25.9997   18.1597 H   0  0  0  0  0  0
  -28.9804  -18.7545   19.8109 H   0  0  0  0  0  0
  -28.9967  -15.5219   20.1789 H   0  0  0  0  0  0
  1 25  1  0  0  0
  1 30  2  0  0  0
  1 89  1  0  0  0
  2  3  1  0  0  0
  2 25  1  0  0  0
  2 90  1  0  0  0
  2 91  1  0  0  0
  3  4  1  0  0  0
  3 92  1  0  0  0
  3 93  1  0  0  0
  4  5  1  0  0  0
  4 94  1  0  0  0
  4 95  1  0  0  0
  5  6  1  0  0  0
  5 26  1  0  0  0
  5 96  1  0  0  0
  6 25  1  0  0  0
  6 97  1  0  0  0
  6 98  1  0  0  0
  7  8  2  0  0  0
  7 26  1  0  0  0
  7 29  1  0  0  0
  8  9  1  0  0  0
  8 22  1  0  0  0
  9 10  1  0  0  0
  9 27  2  0  0  0
 10 11  2  0  0  0
 10 15  1  0  0  0
 11 12  1  0  0  0
 11 99  1  0  0  0
 12 13  2  0  0  0
 12100  1  0  0  0
 13 14  1  0  0  0
 13 31  1  0  0  0
 14 15  2  0  0  0
 14101  1  0  0  0
 15102  1  0  0  0
 16 17  2  0  0  0
 16 21  1  0  0  0
 16 31  1  0  0  0
 17 18  1  0  0  0
 17103  1  0  0  0
 18 19  2  0  0  0
 18104  1  0  0  0
 19 20  1  0  0  0
 19 24  1  0  0  0
 20 21  2  0  0  0
 20105  1  0  0  0
 21 23  1  0  0  0
 22 28  1  0  0  0
 22 32  2  0  0  0
 26 27  1  0  0  0
 28106  1  0  0  0
 28107  1  0  0  0
 29108  1  0  0  0
 29109  1  0  0  0
 33 34  1  0  0  0
 33 66  1  0  0  0
 33 70  2  0  0  0
 34 36  1  0  0  0
 34 59  1  0  0  0
 34110  1  0  0  0
 35 44  2  0  0  0
 35 45  1  0  0  0
 35 68  1  0  0  0
 36 56  1  0  0  0
 36111  1  0  0  0
 37 39  1  0  0  0
 37 47  1  0  0  0
 37 66  1  0  0  0
 37112  1  0  0  0
 38 43  2  0  0  0
 38 46  1  0  0  0
 38 47  1  0  0  0
 39 64  1  0  0  0
 39 67  2  0  0  0
 40 52  1  0  0  0
 40 53  2  0  0  0
 40 58  1  0  0  0
 41113  1  0  0  0
 41114  1  0  0  0
 41115  1  0  0  0
 41 48  1  0  0  0
 42 43  1  0  0  0
 42 66  1  0  0  0
 42116  1  0  0  0
 42117  1  0  0  0
 43 44  1  0  0  0
 44118  1  0  0  0
 45 46  2  0  0  0
 45119  1  0  0  0
 46120  1  0  0  0
 47121  1  0  0  0
 47122  1  0  0  0
 48 56  1  0  0  0
 48 65  1  0  0  0
 48123  1  0  0  0
 49 50  1  0  0  0
 49 53  1  0  0  0
 49 64  1  0  0  0
 49124  1  0  0  0
 50 51  1  0  0  0
 50125  1  0  0  0
 50126  1  0  0  0
 51 52  1  0  0  0
 51127  1  0  0  0
 51128  1  0  0  0
 52129  1  0  0  0
 52130  1  0  0  0
 53 54  1  0  0  0
 54 55  2  0  0  0
 54131  1  0  0  0
 55 57  1  0  0  0
 55132  1  0  0  0
 56 69  2  0  0  0
 57 58  2  0  0  0
 57133  1  0  0  0
 58134  1  0  0  0
 59 60  1  0  0  0
 59 61  1  0  0  0
 59 62  1  0  0  0
 60135  1  0  0  0
 60136  1  0  0  0
 60137  1  0  0  0
 61138  1  0  0  0
 61139  1  0  0  0
 61140  1  0  0  0
 62141  1  0  0  0
 62142  1  0  0  0
 62143  1  0  0  0
 63 65  1  0  0  0
 63144  1  0  0  0
 63145  1  0  0  0
 63146  1  0  0  0
 64147  1  0  0  0
 65148  1  0  0  0
 68 84  1  0  0  0
 71 74  2  0  0  0
 71 75  1  0  0  0
 71 87  1  0  0  0
 72 73  1  0  0  0
 72 80  1  0  0  0
 72 88  2  0  0  0
 73 81  1  0  0  0
 73 87  2  0  0  0
 74 85  1  0  0  0
 74 88  1  0  0  0
 75149  1  0  0  0
 75150  1  0  0  0
 75151  1  0  0  0
 76 80  1  0  0  0
 76152  1  0  0  0
 76153  1  0  0  0
 76154  1  0  0  0
 77155  1  0  0  0
 77156  1  0  0  0
 77157  1  0  0  0
 77 85  1  0  0  0
 78158  1  0  0  0
 78159  1  0  0  0
 78160  1  0  0  0
 78 86  1  0  0  0
 79 86  1  0  0  0
 79161  1  0  0  0
 79162  1  0  0  0
 79163  1  0  0  0
 80164  1  0  0  0
 80165  1  0  0  0
 81 82  1  0  0  0
 81166  1  0  0  0
 81167  1  0  0  0
 82 84  1  0  0  0
 82168  1  0  0  0
 82169  1  0  0  0
 83 86  1  0  0  0
 83 89  1  0  0  0
 83170  1  0  0  0
 83171  1  0  0  0
 84172  1  0  0  0
 84173  1  0  0  0
 85 86  1  0  0  0
 85174  1  0  0  0
 89175  1  0  0  0
M  ISO  4   1 100  68 101  84 101  89 100
M  END
> <chiral flag>
0

> <version>
0

> <s_m_source_file>
/data/baiqing/PycharmProjects/Reinvent-master-3.2/result/LINK_invent/BTK/process_docking_weight1_custom_sum_contain_oxygen_bond_distance_aromatic_linkinvent_7_9_3/rearranged_h_0079.sdf

> <i_m_source_file_index>
73

> <r_mmod_Potential_Energy-OPLS-2005>
43.5100555419922

> <r_mmod_Stretch_Energy-OPLS-2005>
48.9182510375977

> <r_mmod_Bend_Energy-OPLS-2005>
130.714141845703

> <r_mmod_Torsional_Energy-OPLS-2005>
254.196060180664

> <r_mmod_Improper_Torsional_Energy-OPLS-2005>
19.3119621276855

> <r_mmod_Van_der_Waal_Energy-OPLS-2005>
166.997207641602

> <r_mmod_Electrostatic_Energy-OPLS-2005>
-394.425689697266

> <r_mmod_Solvation_Energy-OPLS-2005>
-213.194305419922

> <b_mmod_Minimization_Converged-OPLS-2005>
0

> <r_mmod_RMS_Derivative-OPLS-2005>
5.92641162872314

$$$$
73
                    3D
 Structure written by MMmdl.
159167  0  0  1  0            999 V2000
  -30.6128  -14.5084   20.6165 C   0  0  0  0  0  0
  -30.4362  -12.3475   19.4223 C   0  0  0  0  0  0
  -29.4969  -12.5533   18.2109 C   0  0  0  0  0  0
  -28.0242  -12.3689   18.6201 C   0  0  0  0  0  0
  -27.6614  -13.1925   19.8792 C   0  0  2  0  0  0
  -28.6954  -12.9353   20.9963 C   0  0  0  0  0  0
  -25.2646  -13.8141   20.5731 C   0  0  0  0  0  0
  -24.1864  -13.0410   20.9199 C   0  0  0  0  0  0
  -24.6390  -11.6880   20.8741 C   0  0  0  0  0  0
  -23.9044  -10.4273   21.0418 C   0  0  0  0  0  0
  -24.3604   -9.4195   21.9185 C   0  0  0  0  0  0
  -23.6290   -8.2230   22.0737 C   0  0  0  0  0  0
  -22.4267   -8.0283   21.3528 C   0  0  0  0  0  0
  -21.9899   -9.0256   20.4621 C   0  0  0  0  0  0
  -22.7229  -10.2132   20.3039 C   0  0  0  0  0  0
  -21.6846   -6.0738   22.5275 C   0  0  0  0  0  0
  -21.4035   -6.5649   23.8216 C   0  0  0  0  0  0
  -21.3655   -5.6800   24.9179 C   0  0  0  0  0  0
  -21.6037   -4.3064   24.7239 C   0  0  0  0  0  0
  -21.8814   -3.8150   23.4365 C   0  0  0  0  0  0
  -21.9212   -4.6965   22.3414 C   0  0  0  0  0  0
  -22.7886  -13.5206   21.1850 C   0  0  0  0  0  0
  -22.1667   -4.2149   21.0996 F   0  0  0  0  0  0
  -21.5608   -3.4535   25.7750 F   0  0  0  0  0  0
  -30.0236  -13.2926   20.4665 N   0  0  0  0  0  0
  -26.3017  -12.9241   20.3345 N   0  0  0  0  0  0
  -25.9303  -11.6416   20.5747 N   0  0  0  0  0  0
  -22.0547  -12.8170   22.0436 N   0  0  0  0  0  0
  -25.4450  -15.1840   20.4163 N   0  0  0  0  0  0
  -31.7068  -14.8027   20.1221 O   0  0  0  0  0  0
  -21.6630   -6.8867   21.4231 O   0  0  0  0  0  0
  -22.3558  -14.5498   20.6724 O   0  0  0  0  0  0
  -24.6131  -31.8732   23.2116 C   0  0  0  0  0  0
  -25.9046  -32.4843   23.8423 C   0  0  1  0  0  0
  -27.2477  -27.4553   20.1042 C   0  0  0  0  0  0
  -25.5893  -33.8646   24.2373 N   0  0  0  0  0  0
  -23.3989  -30.4941   21.5515 C   0  0  2  0  0  0
  -24.8486  -28.9454   20.1324 C   0  0  0  0  0  0
  -22.7395  -29.4730   22.5063 C   0  0  0  0  0  0
  -18.0275  -28.1404   22.8500 C   0  0  0  0  0  0
  -24.1491  -36.7324   23.2652 C   0  0  0  0  0  0
  -25.9250  -30.8423   21.3598 C   0  0  0  0  0  0
  -26.0031  -29.4685   20.7272 C   0  0  0  0  0  0
  -27.2056  -28.7273   20.7146 C   0  0  0  0  0  0
  -26.0796  -26.9395   19.5036 C   0  0  0  0  0  0
  -24.8792  -27.6770   19.5187 C   0  0  0  0  0  0
  -23.6110  -29.8121   20.1700 C   0  0  0  0  0  0
  -25.4098  -36.3146   24.0374 C   0  0  1  0  0  0
  -20.5858  -28.3734   23.1360 C   0  0  2  0  0  0
  -20.6785  -26.9469   22.5514 C   0  0  0  0  0  0
  -19.5802  -26.6365   21.5287 C   0  0  0  0  0  0
  -18.1958  -26.7921   22.1667 C   0  0  0  0  0  0
  -19.1510  -28.8891   23.2886 C   0  0  0  0  0  0
  -18.9436  -30.1501   23.8885 C   0  0  0  0  0  0
  -17.6443  -30.6632   24.0565 C   0  0  0  0  0  0
  -25.9028  -34.9508   23.5173 C   0  0  0  0  0  0
  -16.5338  -29.9125   23.6331 C   0  0  0  0  0  0
  -16.7265  -28.6531   23.0365 C   0  0  0  0  0  0
  -26.4448  -31.6609   25.0747 C   0  0  0  0  0  0
  -25.3716  -31.3690   26.1497 C   0  0  0  0  0  0
  -27.0297  -30.3077   24.6094 C   0  0  0  0  0  0
  -27.6058  -32.4299   25.7467 C   0  0  0  0  0  0
  -27.5588  -37.1819   24.8481 C   0  0  0  0  0  0
  -21.4142  -29.3072   22.3755 N   0  0  0  0  0  0
  -26.4302  -37.3804   23.9426 N   0  0  0  0  0  0
  -24.6629  -31.0870   22.0978 N   0  0  0  0  0  0
  -23.4193  -28.8347   23.3151 O   0  0  0  0  0  0
  -28.4398  -26.7783   19.9828 O   0  0  0  0  0  0
  -26.5602  -34.8946   22.4754 O   0  0  0  0  0  0
  -23.5332  -32.1471   23.7541 O   0  0  0  0  0  0
  -28.4974  -19.8522   19.2302 C   0  0  0  0  0  0
  -28.5462  -19.0037   20.3620 C   0  0  0  0  0  0
  -27.2823  -21.3495   20.4644 C   0  0  0  0  0  0
  -24.9784  -22.3279   21.0206 C   0  0  0  0  0  0
  -28.9152  -17.5191   20.2310 C   0  0  0  0  0  0
  -28.3241  -24.3704   20.5087 C   0  0  0  0  0  0
  -27.0477  -23.8484   21.1996 C   0  0  0  0  0  0
  -29.8349  -16.8770   21.3086 C   0  0  0  0  0  0
  -28.7536  -25.7851   20.9585 C   0  0  0  0  0  0
  -26.4063  -22.6183   20.5074 C   0  0  1  0  0  0
  -27.8389  -21.0360   19.2851 N   0  0  0  0  0  0
  -27.9911  -19.4172   21.5320 N   0  0  0  0  0  0
  -27.3859  -20.6185   21.5898 N   0  0  0  0  0  0
  -29.8102  -15.4055   21.2296 N   0  0  0  0  0  0
  -31.4771  -12.4947   19.1283 H   0  0  0  0  0  0
  -30.3737  -11.3248   19.8058 H   0  0  0  0  0  0
  -29.7552  -11.8729   17.4000 H   0  0  0  0  0  0
  -29.6343  -13.5615   17.8153 H   0  0  0  0  0  0
  -27.8659  -11.3097   18.8201 H   0  0  0  0  0  0
  -27.3620  -12.6261   17.7919 H   0  0  0  0  0  0
  -27.7109  -14.2452   19.5966 H   0  0  0  0  0  0
  -28.6934  -11.8850   21.2914 H   0  0  0  0  0  0
  -28.4280  -13.4737   21.9060 H   0  0  0  0  0  0
  -25.2726   -9.5694   22.4776 H   0  0  0  0  0  0
  -24.0001   -7.4614   22.7445 H   0  0  0  0  0  0
  -21.0816   -8.8800   19.8909 H   0  0  0  0  0  0
  -22.3694  -10.9701   19.6173 H   0  0  0  0  0  0
  -21.2039   -7.6158   23.9723 H   0  0  0  0  0  0
  -21.1462   -6.0532   25.9081 H   0  0  0  0  0  0
  -22.0598   -2.7618   23.2877 H   0  0  0  0  0  0
  -22.4122  -11.9750   22.4697 H   0  0  0  0  0  0
  -21.1183  -13.1227   22.2672 H   0  0  0  0  0  0
  -24.6944  -15.8593   20.5239 H   0  0  0  0  0  0
  -26.3007  -15.6007   20.0800 H   0  0  0  0  0  0
  -26.7167  -32.5588   23.1240 H   0  0  0  0  0  0
  -25.0035  -33.9809   25.0512 H   0  0  0  0  0  0
  -22.6831  -31.3059   21.4020 H   0  0  0  0  0  0
  -23.3755  -35.9655   23.3321 H   0  0  0  0  0  0
  -24.3597  -36.8914   22.2062 H   0  0  0  0  0  0
  -23.7219  -37.6536   23.6621 H   0  0  0  0  0  0
  -26.0344  -31.5959   20.5792 H   0  0  0  0  0  0
  -26.8160  -30.9125   21.9690 H   0  0  0  0  0  0
  -28.1055  -29.1409   21.1475 H   0  0  0  0  0  0
  -26.1115  -25.9799   19.0036 H   0  0  0  0  0  0
  -23.9914  -27.2772   19.0454 H   0  0  0  0  0  0
  -23.7298  -30.5764   19.4018 H   0  0  0  0  0  0
  -22.7354  -29.2301   19.8734 H   0  0  0  0  0  0
  -25.1259  -36.2031   25.0857 H   0  0  0  0  0  0
  -20.9878  -28.3374   24.1509 H   0  0  0  0  0  0
  -20.5718  -26.2369   23.3739 H   0  0  0  0  0  0
  -21.6664  -26.7579   22.1294 H   0  0  0  0  0  0
  -19.7050  -25.6253   21.1418 H   0  0  0  0  0  0
  -19.6732  -27.3107   20.6762 H   0  0  0  0  0  0
  -17.4233  -26.6638   21.4069 H   0  0  0  0  0  0
  -18.0361  -26.0085   22.9074 H   0  0  0  0  0  0
  -19.7901  -30.7340   24.2240 H   0  0  0  0  0  0
  -17.5000  -31.6313   24.5183 H   0  0  0  0  0  0
  -15.5342  -30.3049   23.7637 H   0  0  0  0  0  0
  -15.8665  -28.0853   22.7113 H   0  0  0  0  0  0
  -24.5852  -30.7094   25.7792 H   0  0  0  0  0  0
  -24.8934  -32.2833   26.5015 H   0  0  0  0  0  0
  -25.8048  -30.8767   27.0218 H   0  0  0  0  0  0
  -26.2856  -29.6816   24.1153 H   0  0  0  0  0  0
  -27.4126  -29.7304   25.4521 H   0  0  0  0  0  0
  -27.8648  -30.4441   23.9228 H   0  0  0  0  0  0
  -27.2734  -33.3587   26.2110 H   0  0  0  0  0  0
  -28.3788  -32.6878   25.0220 H   0  0  0  0  0  0
  -28.0817  -31.8383   26.5298 H   0  0  0  0  0  0
  -28.2627  -38.0096   24.7512 H   0  0  0  0  0  0
  -28.1065  -36.2636   24.6304 H   0  0  0  0  0  0
  -27.2338  -37.1480   25.8897 H   0  0  0  0  0  0
  -20.9411  -29.8711   21.6847 H   0  0  0  0  0  0
  -26.0220  -38.2918   24.1330 H   0  0  0  0  0  0
  -28.8851  -19.5540   18.2651 H   0  0  0  0  0  0
  -24.3608  -23.2258   20.9791 H   0  0  0  0  0  0
  -24.9814  -21.9717   22.0517 H   0  0  0  0  0  0
  -24.4807  -21.5773   20.4077 H   0  0  0  0  0  0
  -29.3506  -17.3563   19.2463 H   0  0  0  0  0  0
  -27.9564  -17.0005   20.2217 H   0  0  0  0  0  0
  -29.1241  -23.6621   20.7196 H   0  0  0  0  0  0
  -28.2101  -24.3668   19.4238 H   0  0  0  0  0  0
  -26.3251  -24.6657   21.2245 H   0  0  0  0  0  0
  -27.2598  -23.6087   22.2434 H   0  0  0  0  0  0
  -30.8508  -17.2723   21.3096 H   0  0  0  0  0  0
  -29.4111  -17.1273   22.2824 H   0  0  0  0  0  0
  -29.8410  -25.7928   21.0545 H   0  0  0  0  0  0
  -28.3654  -26.0363   21.9475 H   0  0  0  0  0  0
  -26.2594  -22.9144   19.4676 H   0  0  0  0  0  0
  -28.9718  -14.9873   21.6063 H   0  0  0  0  0  0
  1 25  1  0  0  0
  1 30  2  0  0  0
  1 84  1  0  0  0
  2  3  1  0  0  0
  2 25  1  0  0  0
  2 85  1  0  0  0
  2 86  1  0  0  0
  3  4  1  0  0  0
  3 87  1  0  0  0
  3 88  1  0  0  0
  4  5  1  0  0  0
  4 89  1  0  0  0
  4 90  1  0  0  0
  5  6  1  0  0  0
  5 26  1  0  0  0
  5 91  1  0  0  0
  6 25  1  0  0  0
  6 92  1  0  0  0
  6 93  1  0  0  0
  7  8  2  0  0  0
  7 26  1  0  0  0
  7 29  1  0  0  0
  8  9  1  0  0  0
  8 22  1  0  0  0
  9 10  1  0  0  0
  9 27  2  0  0  0
 10 11  2  0  0  0
 10 15  1  0  0  0
 11 12  1  0  0  0
 11 94  1  0  0  0
 12 13  2  0  0  0
 12 95  1  0  0  0
 13 14  1  0  0  0
 13 31  1  0  0  0
 14 15  2  0  0  0
 14 96  1  0  0  0
 15 97  1  0  0  0
 16 17  2  0  0  0
 16 21  1  0  0  0
 16 31  1  0  0  0
 17 18  1  0  0  0
 17 98  1  0  0  0
 18 19  2  0  0  0
 18 99  1  0  0  0
 19 20  1  0  0  0
 19 24  1  0  0  0
 20 21  2  0  0  0
 20100  1  0  0  0
 21 23  1  0  0  0
 22 28  1  0  0  0
 22 32  2  0  0  0
 26 27  1  0  0  0
 28101  1  0  0  0
 28102  1  0  0  0
 29103  1  0  0  0
 29104  1  0  0  0
 33 34  1  0  0  0
 33 66  1  0  0  0
 33 70  2  0  0  0
 34 36  1  0  0  0
 34 59  1  0  0  0
 34105  1  0  0  0
 35 44  2  0  0  0
 35 45  1  0  0  0
 35 68  1  0  0  0
 36 56  1  0  0  0
 36106  1  0  0  0
 37 39  1  0  0  0
 37 47  1  0  0  0
 37 66  1  0  0  0
 37107  1  0  0  0
 38 43  2  0  0  0
 38 46  1  0  0  0
 38 47  1  0  0  0
 39 64  1  0  0  0
 39 67  2  0  0  0
 40 52  1  0  0  0
 40 53  2  0  0  0
 40 58  1  0  0  0
 41108  1  0  0  0
 41109  1  0  0  0
 41110  1  0  0  0
 41 48  1  0  0  0
 42 43  1  0  0  0
 42 66  1  0  0  0
 42111  1  0  0  0
 42112  1  0  0  0
 43 44  1  0  0  0
 44113  1  0  0  0
 45 46  2  0  0  0
 45114  1  0  0  0
 46115  1  0  0  0
 47116  1  0  0  0
 47117  1  0  0  0
 48 56  1  0  0  0
 48 65  1  0  0  0
 48118  1  0  0  0
 49 50  1  0  0  0
 49 53  1  0  0  0
 49 64  1  0  0  0
 49119  1  0  0  0
 50 51  1  0  0  0
 50120  1  0  0  0
 50121  1  0  0  0
 51 52  1  0  0  0
 51122  1  0  0  0
 51123  1  0  0  0
 52124  1  0  0  0
 52125  1  0  0  0
 53 54  1  0  0  0
 54 55  2  0  0  0
 54126  1  0  0  0
 55 57  1  0  0  0
 55127  1  0  0  0
 56 69  2  0  0  0
 57 58  2  0  0  0
 57128  1  0  0  0
 58129  1  0  0  0
 59 60  1  0  0  0
 59 61  1  0  0  0
 59 62  1  0  0  0
 60130  1  0  0  0
 60131  1  0  0  0
 60132  1  0  0  0
 61133  1  0  0  0
 61134  1  0  0  0
 61135  1  0  0  0
 62136  1  0  0  0
 62137  1  0  0  0
 62138  1  0  0  0
 63 65  1  0  0  0
 63139  1  0  0  0
 63140  1  0  0  0
 63141  1  0  0  0
 64142  1  0  0  0
 65143  1  0  0  0
 68 79  1  0  0  0
 71 72  2  0  0  0
 71 81  1  0  0  0
 71144  1  0  0  0
 72 75  1  0  0  0
 72 82  1  0  0  0
 73 80  1  0  0  0
 73 81  2  0  0  0
 73 83  1  0  0  0
 74145  1  0  0  0
 74146  1  0  0  0
 74147  1  0  0  0
 74 80  1  0  0  0
 75 78  1  0  0  0
 75148  1  0  0  0
 75149  1  0  0  0
 76 77  1  0  0  0
 76 79  1  0  0  0
 76150  1  0  0  0
 76151  1  0  0  0
 77 80  1  0  0  0
 77152  1  0  0  0
 77153  1  0  0  0
 78 84  1  0  0  0
 78154  1  0  0  0
 78155  1  0  0  0
 79156  1  0  0  0
 79157  1  0  0  0
 80158  1  0  0  0
 82 83  2  0  0  0
 84159  1  0  0  0
M  ISO  4   1 100  68 101  79 101  84 100
M  END
> <chiral flag>
0

> <version>
0

> <s_m_source_file>
/data/baiqing/PycharmProjects/Reinvent-master-3.2/result/LINK_invent/BTK/process_docking_weight1_custom_sum_contain_oxygen_bond_distance_aromatic_linkinvent_7_9_3/rearranged_h_0079.sdf

> <i_m_source_file_index>
74

> <r_mmod_Potential_Energy-OPLS-2005>
-79.506233215332

> <r_mmod_Stretch_Energy-OPLS-2005>
40.0454216003418

> <r_mmod_Bend_Energy-OPLS-2005>
115.03832244873

> <r_mmod_Torsional_Energy-OPLS-2005>
217.505004882812

> <r_mmod_Improper_Torsional_Energy-OPLS-2005>
6.21736907958984

> <r_mmod_Van_der_Waal_Energy-OPLS-2005>
148.285568237305

> <r_mmod_Electrostatic_Energy-OPLS-2005>
-389.80419921875

> <r_mmod_Solvation_Energy-OPLS-2005>
-233.290069580078

> <b_mmod_Minimization_Converged-OPLS-2005>
0

> <r_mmod_RMS_Derivative-OPLS-2005>
5.86219882965088

$$$$
74
                    3D
 Structure written by MMmdl.
165173  0  0  1  0            999 V2000
  -30.7767  -14.4051   20.6832 C   0  0  0  0  0  0
  -30.4181  -12.3120   19.4120 C   0  0  0  0  0  0
  -29.4875  -12.5278   18.2032 C   0  0  0  0  0  0
  -28.0113  -12.3781   18.6120 C   0  0  0  0  0  0
  -27.6637  -13.2082   19.8747 C   0  0  2  0  0  0
  -28.7000  -12.9814   20.9960 C   0  0  0  0  0  0
  -25.2580  -13.8181   20.5659 C   0  0  0  0  0  0
  -24.1837  -13.0454   20.9158 C   0  0  0  0  0  0
  -24.6389  -11.6923   20.8730 C   0  0  0  0  0  0
  -23.9066  -10.4305   21.0403 C   0  0  0  0  0  0
  -24.3630   -9.4222   21.9181 C   0  0  0  0  0  0
  -23.6310   -8.2254   22.0759 C   0  0  0  0  0  0
  -22.4285   -8.0289   21.3563 C   0  0  0  0  0  0
  -21.9919   -9.0252   20.4656 C   0  0  0  0  0  0
  -22.7242  -10.2135   20.3059 C   0  0  0  0  0  0
  -21.6854   -6.0744   22.5294 C   0  0  0  0  0  0
  -21.4007   -6.5640   23.8231 C   0  0  0  0  0  0
  -21.3660   -5.6786   24.9187 C   0  0  0  0  0  0
  -21.6053   -4.3053   24.7233 C   0  0  0  0  0  0
  -21.8817   -3.8155   23.4351 C   0  0  0  0  0  0
  -21.9192   -4.6978   22.3410 C   0  0  0  0  0  0
  -22.7857  -13.5254   21.1834 C   0  0  0  0  0  0
  -22.1656   -4.2165   21.0986 F   0  0  0  0  0  0
  -21.5646   -3.4529   25.7743 F   0  0  0  0  0  0
  -30.0487  -13.2693   20.4682 N   0  0  0  0  0  0
  -26.3037  -12.9359   20.3360 N   0  0  0  0  0  0
  -25.9320  -11.6514   20.5758 N   0  0  0  0  0  0
  -22.0501  -12.8249   22.0408 N   0  0  0  0  0  0
  -25.4289  -15.1899   20.4051 N   0  0  0  0  0  0
  -31.7648  -14.6938   19.9999 O   0  0  0  0  0  0
  -21.6653   -6.8890   21.4258 O   0  0  0  0  0  0
  -22.3534  -14.5555   20.6690 O   0  0  0  0  0  0
  -24.6161  -31.8664   23.2102 C   0  0  0  0  0  0
  -25.9049  -32.4815   23.8400 C   0  0  1  0  0  0
  -27.2392  -27.4248   20.0889 C   0  0  0  0  0  0
  -25.5901  -33.8618   24.2325 N   0  0  0  0  0  0
  -23.4032  -30.4904   21.5510 C   0  0  2  0  0  0
  -24.8471  -28.9534   20.1182 C   0  0  0  0  0  0
  -22.7411  -29.4647   22.4985 C   0  0  0  0  0  0
  -18.0267  -28.1374   22.8496 C   0  0  0  0  0  0
  -24.1475  -36.7317   23.2633 C   0  0  0  0  0  0
  -25.9316  -30.8312   21.3607 C   0  0  0  0  0  0
  -26.0079  -29.4635   20.7096 C   0  0  0  0  0  0
  -27.2019  -28.7071   20.6895 C   0  0  0  0  0  0
  -26.0478  -26.9216   19.5126 C   0  0  0  0  0  0
  -24.8618  -27.6814   19.5205 C   0  0  0  0  0  0
  -23.6117  -29.8244   20.1652 C   0  0  0  0  0  0
  -25.4089  -36.3108   24.0336 C   0  0  1  0  0  0
  -20.5858  -28.3657   23.1321 C   0  0  2  0  0  0
  -20.6746  -26.9390   22.5422 C   0  0  0  0  0  0
  -19.5727  -26.6381   21.5214 C   0  0  0  0  0  0
  -18.1907  -26.7924   22.1625 C   0  0  0  0  0  0
  -19.1517  -28.8832   23.2911 C   0  0  0  0  0  0
  -18.9445  -30.1436   23.8921 C   0  0  0  0  0  0
  -17.6447  -30.6582   24.0567 C   0  0  0  0  0  0
  -25.9034  -34.9473   23.5125 C   0  0  0  0  0  0
  -16.5338  -29.9083   23.6325 C   0  0  0  0  0  0
  -16.7256  -28.6502   23.0349 C   0  0  0  0  0  0
  -26.4481  -31.6605   25.0735 C   0  0  0  0  0  0
  -25.3766  -31.3711   26.1503 C   0  0  0  0  0  0
  -27.0303  -30.3050   24.6097 C   0  0  0  0  0  0
  -27.6055  -32.4330   25.7497 C   0  0  0  0  0  0
  -27.5582  -37.1788   24.8447 C   0  0  0  0  0  0
  -21.4140  -29.3032   22.3740 N   0  0  0  0  0  0
  -26.4268  -37.3801   23.9434 N   0  0  0  0  0  0
  -24.6688  -31.0766   22.0997 N   0  0  0  0  0  0
  -23.4182  -28.8179   23.3028 O   0  0  0  0  0  0
  -28.4441  -26.7435   20.0908 O   0  0  0  0  0  0
  -26.5594  -34.8927   22.4690 O   0  0  0  0  0  0
  -23.5353  -32.1413   23.7498 O   0  0  0  0  0  0
  -28.6424  -20.7423   21.4338 C   0  0  0  0  0  0
  -29.8817  -19.6940   19.9717 C   0  0  0  0  0  0
  -29.5784  -20.9712   20.3803 C   0  0  0  0  0  0
  -31.6836  -22.1334   19.7848 C   0  0  0  0  0  0
  -29.6540  -22.5338   18.4113 C   0  0  0  0  0  0
  -30.3733  -14.8218   23.0424 C   0  0  0  0  0  0
  -28.5104  -24.2966   20.5900 C   0  0  0  0  0  0
  -29.8356  -23.5062   20.7916 C   0  0  0  0  0  0
  -29.2100  -17.3356   20.7402 C   0  0  0  0  0  0
  -30.4180  -16.7271   21.4905 C   0  0  0  0  0  0
  -28.5760  -25.4272   19.5257 C   0  0  0  0  0  0
  -30.1489  -22.2899   19.8512 C   0  0  0  0  0  0
  -28.4255  -19.4517   21.6684 N   0  0  0  0  0  0
  -29.1971  -18.7991   20.7713 N   0  0  0  0  0  0
  -30.3243  -15.2554   21.6399 N   0  0  0  0  0  0
  -31.4602  -12.4128   19.1026 H   0  0  0  0  0  0
  -30.3235  -11.2933   19.7899 H   0  0  0  0  0  0
  -29.7293  -11.8178   17.4117 H   0  0  0  0  0  0
  -29.6533  -13.5221   17.7853 H   0  0  0  0  0  0
  -27.8194  -11.3204   18.7936 H   0  0  0  0  0  0
  -27.3611  -12.6661   17.7849 H   0  0  0  0  0  0
  -27.7135  -14.2602   19.5909 H   0  0  0  0  0  0
  -28.6608  -11.9510   21.3510 H   0  0  0  0  0  0
  -28.4250  -13.5912   21.8547 H   0  0  0  0  0  0
  -25.2777   -9.5711   22.4740 H   0  0  0  0  0  0
  -24.0039   -7.4644   22.7462 H   0  0  0  0  0  0
  -21.0863   -8.8755   19.8950 H   0  0  0  0  0  0
  -22.3697  -10.9666   19.6164 H   0  0  0  0  0  0
  -21.1984   -7.6143   23.9750 H   0  0  0  0  0  0
  -21.1489   -6.0507   25.9097 H   0  0  0  0  0  0
  -22.0600   -2.7622   23.2841 H   0  0  0  0  0  0
  -22.4096  -11.9895   22.4773 H   0  0  0  0  0  0
  -21.1133  -13.1317   22.2636 H   0  0  0  0  0  0
  -24.6652  -15.8472   20.5202 H   0  0  0  0  0  0
  -26.2866  -15.6324   20.1029 H   0  0  0  0  0  0
  -26.7119  -32.5524   23.1165 H   0  0  0  0  0  0
  -25.0072  -33.9777   25.0481 H   0  0  0  0  0  0
  -22.6935  -31.3084   21.4134 H   0  0  0  0  0  0
  -23.3745  -35.9641   23.3261 H   0  0  0  0  0  0
  -24.3589  -36.8973   22.2060 H   0  0  0  0  0  0
  -23.7207  -37.6500   23.6675 H   0  0  0  0  0  0
  -26.0403  -31.5957   20.5902 H   0  0  0  0  0  0
  -26.8216  -30.8881   21.9753 H   0  0  0  0  0  0
  -28.1016  -29.1061   21.1359 H   0  0  0  0  0  0
  -25.9997  -25.9461   19.0546 H   0  0  0  0  0  0
  -23.9649  -27.2781   19.0695 H   0  0  0  0  0  0
  -23.7267  -30.6018   19.4090 H   0  0  0  0  0  0
  -22.7339  -29.2496   19.8643 H   0  0  0  0  0  0
  -25.1257  -36.1955   25.0825 H   0  0  0  0  0  0
  -20.9951  -28.3209   24.1441 H   0  0  0  0  0  0
  -20.5631  -26.2261   23.3609 H   0  0  0  0  0  0
  -21.6618  -26.7416   22.1220 H   0  0  0  0  0  0
  -19.6881  -25.6296   21.1233 H   0  0  0  0  0  0
  -19.6671  -27.3201   20.6753 H   0  0  0  0  0  0
  -17.4177  -26.6683   21.4028 H   0  0  0  0  0  0
  -18.0304  -26.0058   22.9013 H   0  0  0  0  0  0
  -19.7921  -30.7246   24.2302 H   0  0  0  0  0  0
  -17.5001  -31.6266   24.5160 H   0  0  0  0  0  0
  -15.5339  -30.2995   23.7636 H   0  0  0  0  0  0
  -15.8656  -28.0828   22.7051 H   0  0  0  0  0  0
  -24.5923  -30.7065   25.7864 H   0  0  0  0  0  0
  -24.8984  -32.2869   26.4990 H   0  0  0  0  0  0
  -25.8148  -30.8868   27.0240 H   0  0  0  0  0  0
  -26.2832  -29.6819   24.1166 H   0  0  0  0  0  0
  -27.4095  -29.7280   25.4540 H   0  0  0  0  0  0
  -27.8661  -30.4379   23.9222 H   0  0  0  0  0  0
  -27.2659  -33.3607   26.2117 H   0  0  0  0  0  0
  -28.3848  -32.6929   25.0321 H   0  0  0  0  0  0
  -28.0746  -31.8437   26.5386 H   0  0  0  0  0  0
  -28.2536  -38.0147   24.7589 H   0  0  0  0  0  0
  -28.1136  -36.2688   24.6132 H   0  0  0  0  0  0
  -27.2330  -37.1267   25.8852 H   0  0  0  0  0  0
  -20.9284  -29.8798   21.7009 H   0  0  0  0  0  0
  -26.0148  -38.2857   24.1516 H   0  0  0  0  0  0
  -28.1359  -21.4730   22.0490 H   0  0  0  0  0  0
  -30.5470  -19.3481   19.1927 H   0  0  0  0  0  0
  -31.9822  -21.3485   19.0887 H   0  0  0  0  0  0
  -32.1014  -21.8795   20.7600 H   0  0  0  0  0  0
  -32.1711  -23.0490   19.4485 H   0  0  0  0  0  0
  -29.9304  -21.7132   17.7483 H   0  0  0  0  0  0
  -30.0919  -23.4376   17.9880 H   0  0  0  0  0  0
  -28.5702  -22.6333   18.3600 H   0  0  0  0  0  0
  -31.2076  -15.2915   23.5651 H   0  0  0  0  0  0
  -30.5009  -13.7422   23.1507 H   0  0  0  0  0  0
  -29.4532  -15.1002   23.5572 H   0  0  0  0  0  0
  -28.2493  -24.7550   21.5445 H   0  0  0  0  0  0
  -27.6904  -23.6111   20.3753 H   0  0  0  0  0  0
  -29.8943  -23.1713   21.8283 H   0  0  0  0  0  0
  -30.6413  -24.2382   20.7203 H   0  0  0  0  0  0
  -28.2829  -16.9729   21.1860 H   0  0  0  0  0  0
  -29.2027  -17.0133   19.6982 H   0  0  0  0  0  0
  -30.4813  -17.1992   22.4725 H   0  0  0  0  0  0
  -31.3400  -17.0087   20.9801 H   0  0  0  0  0  0
  -27.9035  -25.2261   18.6942 H   0  0  0  0  0  0
  -29.5602  -25.4197   19.0586 H   0  0  0  0  0  0
  1 25  1  0  0  0
  1 30  2  0  0  0
  1 85  1  0  0  0
  2  3  1  0  0  0
  2 25  1  0  0  0
  2 86  1  0  0  0
  2 87  1  0  0  0
  3  4  1  0  0  0
  3 88  1  0  0  0
  3 89  1  0  0  0
  4  5  1  0  0  0
  4 90  1  0  0  0
  4 91  1  0  0  0
  5  6  1  0  0  0
  5 26  1  0  0  0
  5 92  1  0  0  0
  6 25  1  0  0  0
  6 93  1  0  0  0
  6 94  1  0  0  0
  7  8  2  0  0  0
  7 26  1  0  0  0
  7 29  1  0  0  0
  8  9  1  0  0  0
  8 22  1  0  0  0
  9 10  1  0  0  0
  9 27  2  0  0  0
 10 11  2  0  0  0
 10 15  1  0  0  0
 11 12  1  0  0  0
 11 95  1  0  0  0
 12 13  2  0  0  0
 12 96  1  0  0  0
 13 14  1  0  0  0
 13 31  1  0  0  0
 14 15  2  0  0  0
 14 97  1  0  0  0
 15 98  1  0  0  0
 16 17  2  0  0  0
 16 21  1  0  0  0
 16 31  1  0  0  0
 17 18  1  0  0  0
 17 99  1  0  0  0
 18 19  2  0  0  0
 18100  1  0  0  0
 19 20  1  0  0  0
 19 24  1  0  0  0
 20 21  2  0  0  0
 20101  1  0  0  0
 21 23  1  0  0  0
 22 28  1  0  0  0
 22 32  2  0  0  0
 26 27  1  0  0  0
 28102  1  0  0  0
 28103  1  0  0  0
 29104  1  0  0  0
 29105  1  0  0  0
 33 34  1  0  0  0
 33 66  1  0  0  0
 33 70  2  0  0  0
 34 36  1  0  0  0
 34 59  1  0  0  0
 34106  1  0  0  0
 35 44  2  0  0  0
 35 45  1  0  0  0
 35 68  1  0  0  0
 36 56  1  0  0  0
 36107  1  0  0  0
 37 39  1  0  0  0
 37 47  1  0  0  0
 37 66  1  0  0  0
 37108  1  0  0  0
 38 43  2  0  0  0
 38 46  1  0  0  0
 38 47  1  0  0  0
 39 64  1  0  0  0
 39 67  2  0  0  0
 40 52  1  0  0  0
 40 53  2  0  0  0
 40 58  1  0  0  0
 41109  1  0  0  0
 41110  1  0  0  0
 41111  1  0  0  0
 41 48  1  0  0  0
 42 43  1  0  0  0
 42 66  1  0  0  0
 42112  1  0  0  0
 42113  1  0  0  0
 43 44  1  0  0  0
 44114  1  0  0  0
 45 46  2  0  0  0
 45115  1  0  0  0
 46116  1  0  0  0
 47117  1  0  0  0
 47118  1  0  0  0
 48 56  1  0  0  0
 48 65  1  0  0  0
 48119  1  0  0  0
 49 50  1  0  0  0
 49 53  1  0  0  0
 49 64  1  0  0  0
 49120  1  0  0  0
 50 51  1  0  0  0
 50121  1  0  0  0
 50122  1  0  0  0
 51 52  1  0  0  0
 51123  1  0  0  0
 51124  1  0  0  0
 52125  1  0  0  0
 52126  1  0  0  0
 53 54  1  0  0  0
 54 55  2  0  0  0
 54127  1  0  0  0
 55 57  1  0  0  0
 55128  1  0  0  0
 56 69  2  0  0  0
 57 58  2  0  0  0
 57129  1  0  0  0
 58130  1  0  0  0
 59 60  1  0  0  0
 59 61  1  0  0  0
 59 62  1  0  0  0
 60131  1  0  0  0
 60132  1  0  0  0
 60133  1  0  0  0
 61134  1  0  0  0
 61135  1  0  0  0
 61136  1  0  0  0
 62137  1  0  0  0
 62138  1  0  0  0
 62139  1  0  0  0
 63 65  1  0  0  0
 63140  1  0  0  0
 63141  1  0  0  0
 63142  1  0  0  0
 64143  1  0  0  0
 65144  1  0  0  0
 68 81  1  0  0  0
 71 73  1  0  0  0
 71 83  2  0  0  0
 71145  1  0  0  0
 72 73  2  0  0  0
 72 84  1  0  0  0
 72146  1  0  0  0
 73 82  1  0  0  0
 74147  1  0  0  0
 74148  1  0  0  0
 74149  1  0  0  0
 74 82  1  0  0  0
 75 82  1  0  0  0
 75150  1  0  0  0
 75151  1  0  0  0
 75152  1  0  0  0
 76 85  1  0  0  0
 76153  1  0  0  0
 76154  1  0  0  0
 76155  1  0  0  0
 77 78  1  0  0  0
 77 81  1  0  0  0
 77156  1  0  0  0
 77157  1  0  0  0
 78 82  1  0  0  0
 78158  1  0  0  0
 78159  1  0  0  0
 79 80  1  0  0  0
 79 84  1  0  0  0
 79160  1  0  0  0
 79161  1  0  0  0
 80 85  1  0  0  0
 80162  1  0  0  0
 80163  1  0  0  0
 81164  1  0  0  0
 81165  1  0  0  0
 83 84  1  0  0  0
M  ISO  4   1 100  68 101  81 101  85 100
M  END
> <chiral flag>
0

> <version>
0

> <s_m_source_file>
/data/baiqing/PycharmProjects/Reinvent-master-3.2/result/LINK_invent/BTK/process_docking_weight1_custom_sum_contain_oxygen_bond_distance_aromatic_linkinvent_7_9_3/rearranged_h_0079.sdf

> <i_m_source_file_index>
75

> <r_mmod_Potential_Energy-OPLS-2005>
79.3528671264648

> <r_mmod_Stretch_Energy-OPLS-2005>
41.6412620544434

> <r_mmod_Bend_Energy-OPLS-2005>
116.73551940918

> <r_mmod_Torsional_Energy-OPLS-2005>
291.336059570312

> <r_mmod_Improper_Torsional_Energy-OPLS-2005>
4.24889135360718

> <r_mmod_Van_der_Waal_Energy-OPLS-2005>
134.930618286133

> <r_mmod_Electrostatic_Energy-OPLS-2005>
-320.186218261719

> <r_mmod_Solvation_Energy-OPLS-2005>
-199.429748535156

> <b_mmod_Minimization_Converged-OPLS-2005>
0

> <r_mmod_RMS_Derivative-OPLS-2005>
1.8959413766861

$$$$
75
                    3D
 Structure written by MMmdl.
156164  0  0  1  0            999 V2000
  -30.6631  -14.5118   20.5533 C   0  0  0  0  0  0
  -30.4300  -12.3275   19.4231 C   0  0  0  0  0  0
  -29.4990  -12.5174   18.2065 C   0  0  0  0  0  0
  -28.0186  -12.3742   18.6137 C   0  0  0  0  0  0
  -27.6597  -13.2075   19.8716 C   0  0  2  0  0  0
  -28.7016  -12.9933   20.9925 C   0  0  0  0  0  0
  -25.2586  -13.8146   20.5655 C   0  0  0  0  0  0
  -24.1843  -13.0422   20.9149 C   0  0  0  0  0  0
  -24.6399  -11.6889   20.8704 C   0  0  0  0  0  0
  -23.9061  -10.4276   21.0379 C   0  0  0  0  0  0
  -24.3614   -9.4205   21.9174 C   0  0  0  0  0  0
  -23.6288   -8.2243   22.0758 C   0  0  0  0  0  0
  -22.4275   -8.0277   21.3543 C   0  0  0  0  0  0
  -21.9897   -9.0251   20.4644 C   0  0  0  0  0  0
  -22.7216  -10.2131   20.3037 C   0  0  0  0  0  0
  -21.6860   -6.0725   22.5269 C   0  0  0  0  0  0
  -21.4022   -6.5630   23.8198 C   0  0  0  0  0  0
  -21.3665   -5.6788   24.9164 C   0  0  0  0  0  0
  -21.6048   -4.3045   24.7217 C   0  0  0  0  0  0
  -21.8824   -3.8135   23.4339 C   0  0  0  0  0  0
  -21.9200   -4.6957   22.3396 C   0  0  0  0  0  0
  -22.7871  -13.5225   21.1835 C   0  0  0  0  0  0
  -22.1666   -4.2140   21.0970 F   0  0  0  0  0  0
  -21.5640   -3.4538   25.7738 F   0  0  0  0  0  0
  -30.0287  -13.3122   20.4401 N   0  0  0  0  0  0
  -26.3014  -12.9312   20.3326 N   0  0  0  0  0  0
  -25.9324  -11.6465   20.5709 N   0  0  0  0  0  0
  -22.0530  -12.8218   22.0405 N   0  0  0  0  0  0
  -25.4324  -15.1867   20.4071 N   0  0  0  0  0  0
  -31.8033  -14.7091   20.1224 O   0  0  0  0  0  0
  -21.6641   -6.8873   21.4232 O   0  0  0  0  0  0
  -22.3558  -14.5534   20.6682 O   0  0  0  0  0  0
  -24.6168  -31.8652   23.2059 C   0  0  0  0  0  0
  -25.9045  -32.4804   23.8368 C   0  0  1  0  0  0
  -27.2422  -27.3971   20.0957 C   0  0  0  0  0  0
  -25.5895  -33.8607   24.2305 N   0  0  0  0  0  0
  -23.4077  -30.4860   21.5469 C   0  0  2  0  0  0
  -24.8546  -28.9456   20.1123 C   0  0  0  0  0  0
  -22.7428  -29.4640   22.4973 C   0  0  0  0  0  0
  -18.0270  -28.1366   22.8494 C   0  0  0  0  0  0
  -24.1486  -36.7304   23.2642 C   0  0  0  0  0  0
  -25.9395  -30.8174   21.3657 C   0  0  0  0  0  0
  -26.0144  -29.4485   20.7110 C   0  0  0  0  0  0
  -27.2047  -28.6812   20.7001 C   0  0  0  0  0  0
  -26.0541  -26.9106   19.5022 C   0  0  0  0  0  0
  -24.8709  -27.6775   19.5054 C   0  0  0  0  0  0
  -23.6182  -29.8165   20.1619 C   0  0  0  0  0  0
  -25.4110  -36.3107   24.0340 C   0  0  1  0  0  0
  -20.5866  -28.3665   23.1311 C   0  0  2  0  0  0
  -20.6757  -26.9393   22.5423 C   0  0  0  0  0  0
  -19.5737  -26.6371   21.5221 C   0  0  0  0  0  0
  -18.1915  -26.7914   22.1625 C   0  0  0  0  0  0
  -19.1520  -28.8830   23.2901 C   0  0  0  0  0  0
  -18.9447  -30.1434   23.8914 C   0  0  0  0  0  0
  -17.6449  -30.6576   24.0557 C   0  0  0  0  0  0
  -25.9039  -34.9472   23.5126 C   0  0  0  0  0  0
  -16.5340  -29.9080   23.6315 C   0  0  0  0  0  0
  -16.7259  -28.6489   23.0354 C   0  0  0  0  0  0
  -26.4463  -31.6599   25.0714 C   0  0  0  0  0  0
  -25.3726  -31.3704   26.1459 C   0  0  0  0  0  0
  -27.0301  -30.3034   24.6117 C   0  0  0  0  0  0
  -27.6032  -32.4335   25.7475 C   0  0  0  0  0  0
  -27.5579  -37.1810   24.8468 C   0  0  0  0  0  0
  -21.4154  -29.3027   22.3713 N   0  0  0  0  0  0
  -26.4295  -37.3790   23.9404 N   0  0  0  0  0  0
  -24.6728  -31.0720   22.0973 N   0  0  0  0  0  0
  -23.4186  -28.8192   23.3033 O   0  0  0  0  0  0
  -28.4276  -26.6732   20.1429 O   0  0  0  0  0  0
  -26.5612  -34.8931   22.4694 O   0  0  0  0  0  0
  -23.5352  -32.1422   23.7430 O   0  0  0  0  0  0
  -29.0666  -21.1540   21.4584 C   0  0  0  0  0  0
  -29.4018  -20.3103   19.4759 C   0  0  0  0  0  0
  -29.2887  -21.5326   20.1002 C   0  0  0  0  0  0
  -30.9360  -23.1833   19.2557 C   0  0  0  0  0  0
  -28.7388  -24.1267   20.2149 C   0  0  0  0  0  0
  -29.2228  -17.8352   20.2074 C   0  0  0  0  0  0
  -30.1959  -16.9732   21.0722 C   0  0  0  0  0  0
  -28.6374  -25.4565   19.3842 C   0  0  0  0  0  0
  -29.4309  -22.9261   19.4644 C   0  0  2  0  0  0
  -29.0476  -19.8331   21.6395 N   0  0  0  0  0  0
  -29.2729  -19.2972   20.4162 N   0  0  0  0  0  0
  -29.8946  -15.5213   21.0142 N   0  0  0  0  0  0
  -31.4725  -12.4414   19.1210 H   0  0  0  0  0  0
  -30.3468  -11.3149   19.8193 H   0  0  0  0  0  0
  -29.7430  -11.7963   17.4257 H   0  0  0  0  0  0
  -29.6647  -13.5046   17.7716 H   0  0  0  0  0  0
  -27.8241  -11.3182   18.7985 H   0  0  0  0  0  0
  -27.3739  -12.6600   17.7816 H   0  0  0  0  0  0
  -27.6967  -14.2544   19.5697 H   0  0  0  0  0  0
  -28.6895  -11.9566   21.3330 H   0  0  0  0  0  0
  -28.4619  -13.5940   21.8718 H   0  0  0  0  0  0
  -25.2766   -9.5691   22.4734 H   0  0  0  0  0  0
  -24.0012   -7.4632   22.7474 H   0  0  0  0  0  0
  -21.0835   -8.8742   19.8942 H   0  0  0  0  0  0
  -22.3668  -10.9665   19.6138 H   0  0  0  0  0  0
  -21.2010   -7.6137   23.9692 H   0  0  0  0  0  0
  -21.1492   -6.0522   25.9066 H   0  0  0  0  0  0
  -22.0605   -2.7599   23.2832 H   0  0  0  0  0  0
  -22.4144  -11.9854   22.4746 H   0  0  0  0  0  0
  -21.1156  -13.1242   22.2615 H   0  0  0  0  0  0
  -24.6688  -15.8448   20.5136 H   0  0  0  0  0  0
  -26.2817  -15.6216   20.0696 H   0  0  0  0  0  0
  -26.7119  -32.5501   23.1130 H   0  0  0  0  0  0
  -25.0036  -33.9762   25.0446 H   0  0  0  0  0  0
  -22.6974  -31.3033   21.4047 H   0  0  0  0  0  0
  -23.3749  -35.9637   23.3331 H   0  0  0  0  0  0
  -24.3572  -36.8892   22.2050 H   0  0  0  0  0  0
  -23.7239  -37.6516   23.6644 H   0  0  0  0  0  0
  -26.0628  -31.5833   20.5991 H   0  0  0  0  0  0
  -26.8232  -30.8658   21.9907 H   0  0  0  0  0  0
  -28.0998  -29.0697   21.1658 H   0  0  0  0  0  0
  -26.0073  -25.9322   19.0501 H   0  0  0  0  0  0
  -23.9766  -27.2798   19.0467 H   0  0  0  0  0  0
  -23.7286  -30.5918   19.4021 H   0  0  0  0  0  0
  -22.7411  -29.2388   19.8645 H   0  0  0  0  0  0
  -25.1292  -36.1972   25.0833 H   0  0  0  0  0  0
  -20.9955  -28.3228   24.1433 H   0  0  0  0  0  0
  -20.5650  -26.2274   23.3620 H   0  0  0  0  0  0
  -21.6629  -26.7420   22.1223 H   0  0  0  0  0  0
  -19.6897  -25.6285   21.1246 H   0  0  0  0  0  0
  -19.6675  -27.3189   20.6757 H   0  0  0  0  0  0
  -17.4191  -26.6672   21.4024 H   0  0  0  0  0  0
  -18.0300  -26.0046   22.9010 H   0  0  0  0  0  0
  -19.7926  -30.7239   24.2306 H   0  0  0  0  0  0
  -17.5005  -31.6263   24.5147 H   0  0  0  0  0  0
  -15.5344  -30.2989   23.7618 H   0  0  0  0  0  0
  -15.8663  -28.0807   22.7075 H   0  0  0  0  0  0
  -24.5902  -30.7050   25.7796 H   0  0  0  0  0  0
  -24.8910  -32.2856   26.4920 H   0  0  0  0  0  0
  -25.8072  -30.8867   27.0214 H   0  0  0  0  0  0
  -26.2849  -29.6797   24.1163 H   0  0  0  0  0  0
  -27.4048  -29.7272   25.4587 H   0  0  0  0  0  0
  -27.8700  -30.4345   23.9290 H   0  0  0  0  0  0
  -27.2640  -33.3636   26.2056 H   0  0  0  0  0  0
  -28.3829  -32.6902   25.0293 H   0  0  0  0  0  0
  -28.0717  -31.8467   26.5385 H   0  0  0  0  0  0
  -28.2616  -38.0089   24.7501 H   0  0  0  0  0  0
  -28.1059  -36.2623   24.6319 H   0  0  0  0  0  0
  -27.2297  -37.1492   25.8871 H   0  0  0  0  0  0
  -20.9318  -29.8745   21.6931 H   0  0  0  0  0  0
  -26.0191  -38.2876   24.1385 H   0  0  0  0  0  0
  -28.9279  -21.7976   22.3158 H   0  0  0  0  0  0
  -29.5679  -20.0760   18.4330 H   0  0  0  0  0  0
  -31.3910  -22.3867   18.6631 H   0  0  0  0  0  0
  -31.4657  -23.2280   20.2092 H   0  0  0  0  0  0
  -31.1384  -24.1131   18.7263 H   0  0  0  0  0  0
  -27.7274  -23.8361   20.5019 H   0  0  0  0  0  0
  -29.2686  -24.3195   21.1486 H   0  0  0  0  0  0
  -28.1940  -17.5231   20.3947 H   0  0  0  0  0  0
  -29.4118  -17.6334   19.1518 H   0  0  0  0  0  0
  -30.1192  -17.2774   22.1165 H   0  0  0  0  0  0
  -31.2270  -17.1733   20.7769 H   0  0  0  0  0  0
  -27.9499  -25.3365   18.5495 H   0  0  0  0  0  0
  -29.5955  -25.6306   18.9007 H   0  0  0  0  0  0
  -28.9748  -22.8943   18.4743 H   0  0  0  0  0  0
  -28.9739  -15.2463   21.3243 H   0  0  0  0  0  0
  1 25  1  0  0  0
  1 30  2  0  0  0
  1 82  1  0  0  0
  2  3  1  0  0  0
  2 25  1  0  0  0
  2 83  1  0  0  0
  2 84  1  0  0  0
  3  4  1  0  0  0
  3 85  1  0  0  0
  3 86  1  0  0  0
  4  5  1  0  0  0
  4 87  1  0  0  0
  4 88  1  0  0  0
  5  6  1  0  0  0
  5 26  1  0  0  0
  5 89  1  0  0  0
  6 25  1  0  0  0
  6 90  1  0  0  0
  6 91  1  0  0  0
  7  8  2  0  0  0
  7 26  1  0  0  0
  7 29  1  0  0  0
  8  9  1  0  0  0
  8 22  1  0  0  0
  9 10  1  0  0  0
  9 27  2  0  0  0
 10 11  2  0  0  0
 10 15  1  0  0  0
 11 12  1  0  0  0
 11 92  1  0  0  0
 12 13  2  0  0  0
 12 93  1  0  0  0
 13 14  1  0  0  0
 13 31  1  0  0  0
 14 15  2  0  0  0
 14 94  1  0  0  0
 15 95  1  0  0  0
 16 17  2  0  0  0
 16 21  1  0  0  0
 16 31  1  0  0  0
 17 18  1  0  0  0
 17 96  1  0  0  0
 18 19  2  0  0  0
 18 97  1  0  0  0
 19 20  1  0  0  0
 19 24  1  0  0  0
 20 21  2  0  0  0
 20 98  1  0  0  0
 21 23  1  0  0  0
 22 28  1  0  0  0
 22 32  2  0  0  0
 26 27  1  0  0  0
 28 99  1  0  0  0
 28100  1  0  0  0
 29101  1  0  0  0
 29102  1  0  0  0
 33 34  1  0  0  0
 33 66  1  0  0  0
 33 70  2  0  0  0
 34 36  1  0  0  0
 34 59  1  0  0  0
 34103  1  0  0  0
 35 44  2  0  0  0
 35 45  1  0  0  0
 35 68  1  0  0  0
 36 56  1  0  0  0
 36104  1  0  0  0
 37 39  1  0  0  0
 37 47  1  0  0  0
 37 66  1  0  0  0
 37105  1  0  0  0
 38 43  2  0  0  0
 38 46  1  0  0  0
 38 47  1  0  0  0
 39 64  1  0  0  0
 39 67  2  0  0  0
 40 52  1  0  0  0
 40 53  2  0  0  0
 40 58  1  0  0  0
 41106  1  0  0  0
 41107  1  0  0  0
 41108  1  0  0  0
 41 48  1  0  0  0
 42 43  1  0  0  0
 42 66  1  0  0  0
 42109  1  0  0  0
 42110  1  0  0  0
 43 44  1  0  0  0
 44111  1  0  0  0
 45 46  2  0  0  0
 45112  1  0  0  0
 46113  1  0  0  0
 47114  1  0  0  0
 47115  1  0  0  0
 48 56  1  0  0  0
 48 65  1  0  0  0
 48116  1  0  0  0
 49 50  1  0  0  0
 49 53  1  0  0  0
 49 64  1  0  0  0
 49117  1  0  0  0
 50 51  1  0  0  0
 50118  1  0  0  0
 50119  1  0  0  0
 51 52  1  0  0  0
 51120  1  0  0  0
 51121  1  0  0  0
 52122  1  0  0  0
 52123  1  0  0  0
 53 54  1  0  0  0
 54 55  2  0  0  0
 54124  1  0  0  0
 55 57  1  0  0  0
 55125  1  0  0  0
 56 69  2  0  0  0
 57 58  2  0  0  0
 57126  1  0  0  0
 58127  1  0  0  0
 59 60  1  0  0  0
 59 61  1  0  0  0
 59 62  1  0  0  0
 60128  1  0  0  0
 60129  1  0  0  0
 60130  1  0  0  0
 61131  1  0  0  0
 61132  1  0  0  0
 61133  1  0  0  0
 62134  1  0  0  0
 62135  1  0  0  0
 62136  1  0  0  0
 63 65  1  0  0  0
 63137  1  0  0  0
 63138  1  0  0  0
 63139  1  0  0  0
 64140  1  0  0  0
 65141  1  0  0  0
 68 78  1  0  0  0
 71 73  1  0  0  0
 71 80  2  0  0  0
 71142  1  0  0  0
 72 73  2  0  0  0
 72 81  1  0  0  0
 72143  1  0  0  0
 73 79  1  0  0  0
 74144  1  0  0  0
 74145  1  0  0  0
 74146  1  0  0  0
 74 79  1  0  0  0
 75 78  1  0  0  0
 75 79  1  0  0  0
 75147  1  0  0  0
 75148  1  0  0  0
 76 77  1  0  0  0
 76 81  1  0  0  0
 76149  1  0  0  0
 76150  1  0  0  0
 77 82  1  0  0  0
 77151  1  0  0  0
 77152  1  0  0  0
 78153  1  0  0  0
 78154  1  0  0  0
 79155  1  0  0  0
 80 81  1  0  0  0
 82156  1  0  0  0
M  ISO  4   1 100  68 101  78 101  82 100
M  END
> <chiral flag>
0

> <version>
0

> <s_m_source_file>
/data/baiqing/PycharmProjects/Reinvent-master-3.2/result/LINK_invent/BTK/process_docking_weight1_custom_sum_contain_oxygen_bond_distance_aromatic_linkinvent_7_9_3/rearranged_h_0079.sdf

> <i_m_source_file_index>
76

> <r_mmod_Potential_Energy-OPLS-2005>
-67.5259399414062

> <r_mmod_Stretch_Energy-OPLS-2005>
45.8867301940918

> <r_mmod_Bend_Energy-OPLS-2005>
117.592735290527

> <r_mmod_Torsional_Energy-OPLS-2005>
205.014663696289

> <r_mmod_Improper_Torsional_Energy-OPLS-2005>
4.26317024230957

> <r_mmod_Van_der_Waal_Energy-OPLS-2005>
124.303489685059

> <r_mmod_Electrostatic_Energy-OPLS-2005>
-358.423065185547

> <r_mmod_Solvation_Energy-OPLS-2005>
-224.754760742188

> <b_mmod_Minimization_Converged-OPLS-2005>
0

> <r_mmod_RMS_Derivative-OPLS-2005>
2.1939070224762

$$$$
76
                    3D
 Structure written by MMmdl.
163171  0  0  1  0            999 V2000
  -30.6950  -14.4469   20.5783 C   0  0  0  0  0  0
  -30.4247  -12.2932   19.4194 C   0  0  0  0  0  0
  -29.4928  -12.5070   18.2067 C   0  0  0  0  0  0
  -28.0133  -12.3731   18.6162 C   0  0  0  0  0  0
  -27.6624  -13.2019   19.8798 C   0  0  2  0  0  0
  -28.7026  -12.9608   21.0008 C   0  0  0  0  0  0
  -25.2564  -13.8143   20.5619 C   0  0  0  0  0  0
  -24.1834  -13.0416   20.9164 C   0  0  0  0  0  0
  -24.6372  -11.6884   20.8697 C   0  0  0  0  0  0
  -23.9055  -10.4270   21.0352 C   0  0  0  0  0  0
  -24.3605   -9.4188   21.9135 C   0  0  0  0  0  0
  -23.6288   -8.2231   22.0710 C   0  0  0  0  0  0
  -22.4271   -8.0270   21.3510 C   0  0  0  0  0  0
  -21.9897   -9.0236   20.4623 C   0  0  0  0  0  0
  -22.7219  -10.2124   20.3028 C   0  0  0  0  0  0
  -21.6876   -6.0712   22.5272 C   0  0  0  0  0  0
  -21.4039   -6.5618   23.8216 C   0  0  0  0  0  0
  -21.3649   -5.6766   24.9179 C   0  0  0  0  0  0
  -21.6038   -4.3021   24.7224 C   0  0  0  0  0  0
  -21.8836   -3.8127   23.4361 C   0  0  0  0  0  0
  -21.9205   -4.6939   22.3412 C   0  0  0  0  0  0
  -22.7860  -13.5204   21.1850 C   0  0  0  0  0  0
  -22.1652   -4.2118   21.0973 F   0  0  0  0  0  0
  -21.5627   -3.4504   25.7742 F   0  0  0  0  0  0
  -30.0418  -13.2611   20.4577 N   0  0  0  0  0  0
  -26.3026  -12.9313   20.3377 N   0  0  0  0  0  0
  -25.9297  -11.6474   20.5776 N   0  0  0  0  0  0
  -22.0569  -12.8168   22.0433 N   0  0  0  0  0  0
  -25.4216  -15.1860   20.3945 N   0  0  0  0  0  0
  -31.7956  -14.6791   20.0712 O   0  0  0  0  0  0
  -21.6652   -6.8849   21.4234 O   0  0  0  0  0  0
  -22.3519  -14.5509   20.6706 O   0  0  0  0  0  0
  -24.6157  -31.8702   23.2062 C   0  0  0  0  0  0
  -25.9047  -32.4856   23.8385 C   0  0  1  0  0  0
  -27.2385  -27.4553   20.0875 C   0  0  0  0  0  0
  -25.5907  -33.8648   24.2339 N   0  0  0  0  0  0
  -23.4036  -30.4911   21.5480 C   0  0  2  0  0  0
  -24.8510  -28.9567   20.1108 C   0  0  0  0  0  0
  -22.7419  -29.4673   22.4976 C   0  0  0  0  0  0
  -18.0282  -28.1388   22.8491 C   0  0  0  0  0  0
  -24.1466  -36.7316   23.2628 C   0  0  0  0  0  0
  -25.9285  -30.8419   21.3545 C   0  0  0  0  0  0
  -26.0089  -29.4765   20.7030 C   0  0  0  0  0  0
  -27.2088  -28.7329   20.6847 C   0  0  0  0  0  0
  -26.0660  -26.9427   19.4896 C   0  0  0  0  0  0
  -24.8723  -27.6908   19.4970 C   0  0  0  0  0  0
  -23.6116  -29.8206   20.1625 C   0  0  0  0  0  0
  -25.4095  -36.3130   24.0328 C   0  0  1  0  0  0
  -20.5878  -28.3682   23.1309 C   0  0  2  0  0  0
  -20.6774  -26.9415   22.5411 C   0  0  0  0  0  0
  -19.5748  -26.6403   21.5212 C   0  0  0  0  0  0
  -18.1935  -26.7940   22.1624 C   0  0  0  0  0  0
  -19.1531  -28.8849   23.2901 C   0  0  0  0  0  0
  -18.9445  -30.1458   23.8921 C   0  0  0  0  0  0
  -17.6442  -30.6600   24.0577 C   0  0  0  0  0  0
  -25.9007  -34.9495   23.5125 C   0  0  0  0  0  0
  -16.5343  -29.9099   23.6321 C   0  0  0  0  0  0
  -16.7271  -28.6514   23.0354 C   0  0  0  0  0  0
  -26.4460  -31.6633   25.0724 C   0  0  0  0  0  0
  -25.3712  -31.3747   26.1464 C   0  0  0  0  0  0
  -27.0276  -30.3085   24.6084 C   0  0  0  0  0  0
  -27.6068  -32.4329   25.7476 C   0  0  0  0  0  0
  -27.5583  -37.1828   24.8463 C   0  0  0  0  0  0
  -21.4151  -29.3042   22.3710 N   0  0  0  0  0  0
  -26.4294  -37.3811   23.9398 N   0  0  0  0  0  0
  -24.6682  -31.0805   22.0959 N   0  0  0  0  0  0
  -23.4183  -28.8220   23.3019 O   0  0  0  0  0  0
  -28.3947  -26.7112   20.0984 O   0  0  0  0  0  0
  -26.5556  -34.8942   22.4680 O   0  0  0  0  0  0
  -23.5352  -32.1426   23.7467 O   0  0  0  0  0  0
  -29.1907  -20.1937   22.0406 C   0  0  0  0  0  0
  -28.9003  -19.1265   21.1585 C   0  0  0  0  0  0
  -28.2057  -21.6888   20.5714 C   0  0  0  0  0  0
  -28.0261  -20.6362   19.6272 C   0  0  0  0  0  0
  -25.8900  -20.4528   18.2597 C   0  0  0  0  0  0
  -28.1537  -20.1306   17.1350 C   0  0  0  0  0  0
  -29.0330  -17.6691   21.5958 C   0  0  0  0  0  0
  -27.5373  -23.0594   20.4465 C   0  0  0  0  0  0
  -28.4253  -24.2263   19.9578 C   0  0  0  0  0  0
  -30.1416  -16.8609   20.8928 C   0  0  0  0  0  0
  -28.2938  -25.4900   20.8420 C   0  0  0  0  0  0
  -27.3770  -20.8468   18.2568 C   0  0  0  0  0  0
  -28.8370  -21.4702   21.7539 N   0  0  0  0  0  0
  -28.3467  -19.3522   19.9419 N   0  0  0  0  0  0
  -29.9656  -15.4243   21.1355 N   0  0  0  0  0  0
  -31.4707  -12.3976   19.1232 H   0  0  0  0  0  0
  -30.3269  -11.2768   19.8046 H   0  0  0  0  0  0
  -29.7242  -11.7914   17.4163 H   0  0  0  0  0  0
  -29.6648  -13.4968   17.7816 H   0  0  0  0  0  0
  -27.8089  -11.3176   18.7941 H   0  0  0  0  0  0
  -27.3703  -12.6705   17.7854 H   0  0  0  0  0  0
  -27.7124  -14.2527   19.5913 H   0  0  0  0  0  0
  -28.6677  -11.9212   21.3279 H   0  0  0  0  0  0
  -28.4632  -13.5491   21.8877 H   0  0  0  0  0  0
  -25.2745   -9.5693   22.4710 H   0  0  0  0  0  0
  -24.0003   -7.4604   22.7401 H   0  0  0  0  0  0
  -21.0842   -8.8777   19.8913 H   0  0  0  0  0  0
  -22.3655  -10.9668   19.6161 H   0  0  0  0  0  0
  -21.2052   -7.6119   23.9728 H   0  0  0  0  0  0
  -21.1437   -6.0475   25.9075 H   0  0  0  0  0  0
  -22.0627   -2.7600   23.2874 H   0  0  0  0  0  0
  -22.4276  -11.9841   22.4763 H   0  0  0  0  0  0
  -21.1171  -13.1099   22.2691 H   0  0  0  0  0  0
  -24.6290  -15.8172   20.4469 H   0  0  0  0  0  0
  -26.2437  -15.6190   19.9919 H   0  0  0  0  0  0
  -26.7173  -32.5587   23.1199 H   0  0  0  0  0  0
  -25.0212  -33.9817   25.0593 H   0  0  0  0  0  0
  -22.6917  -31.3071   21.4068 H   0  0  0  0  0  0
  -23.3730  -35.9649   23.3300 H   0  0  0  0  0  0
  -24.3554  -36.8904   22.2041 H   0  0  0  0  0  0
  -23.7209  -37.6527   23.6608 H   0  0  0  0  0  0
  -26.0304  -31.6036   20.5806 H   0  0  0  0  0  0
  -26.8200  -30.9061   21.9636 H   0  0  0  0  0  0
  -28.1071  -29.1279   21.1380 H   0  0  0  0  0  0
  -26.0765  -25.9718   19.0159 H   0  0  0  0  0  0
  -23.9840  -27.2861   19.0320 H   0  0  0  0  0  0
  -23.7181  -30.5923   19.3983 H   0  0  0  0  0  0
  -22.7381  -29.2358   19.8679 H   0  0  0  0  0  0
  -25.1283  -36.2000   25.0824 H   0  0  0  0  0  0
  -20.9978  -28.3246   24.1424 H   0  0  0  0  0  0
  -20.5675  -26.2285   23.3595 H   0  0  0  0  0  0
  -21.6653  -26.7466   22.1215 H   0  0  0  0  0  0
  -19.6883  -25.6309   21.1251 H   0  0  0  0  0  0
  -19.6687  -27.3203   20.6727 H   0  0  0  0  0  0
  -17.4210  -26.6722   21.4017 H   0  0  0  0  0  0
  -18.0306  -26.0084   22.9007 H   0  0  0  0  0  0
  -19.7908  -30.7285   24.2308 H   0  0  0  0  0  0
  -17.4983  -31.6270   24.5185 H   0  0  0  0  0  0
  -15.5335  -30.3010   23.7614 H   0  0  0  0  0  0
  -15.8673  -28.0834   22.7050 H   0  0  0  0  0  0
  -24.5904  -30.7089   25.7775 H   0  0  0  0  0  0
  -24.8895  -32.2915   26.4886 H   0  0  0  0  0  0
  -25.8074  -30.8940   27.0233 H   0  0  0  0  0  0
  -26.2830  -29.6891   24.1096 H   0  0  0  0  0  0
  -27.3982  -29.7288   25.4544 H   0  0  0  0  0  0
  -27.8672  -30.4399   23.9255 H   0  0  0  0  0  0
  -27.2743  -33.3629   26.2092 H   0  0  0  0  0  0
  -28.3870  -32.6897   25.0295 H   0  0  0  0  0  0
  -28.0742  -31.8430   26.5367 H   0  0  0  0  0  0
  -28.2645  -38.0091   24.7524 H   0  0  0  0  0  0
  -28.1057  -36.2643   24.6295 H   0  0  0  0  0  0
  -27.2304  -37.1484   25.8867 H   0  0  0  0  0  0
  -20.9301  -29.8765   21.6949 H   0  0  0  0  0  0
  -26.0186  -38.2891   24.1398 H   0  0  0  0  0  0
  -29.6269  -20.0123   23.0126 H   0  0  0  0  0  0
  -25.3311  -21.0250   19.0036 H   0  0  0  0  0  0
  -25.7582  -19.3961   18.4950 H   0  0  0  0  0  0
  -25.4328  -20.6414   17.2867 H   0  0  0  0  0  0
  -29.2016  -20.4312   17.1190 H   0  0  0  0  0  0
  -27.7333  -20.3593   16.1566 H   0  0  0  0  0  0
  -28.1230  -19.0477   17.2595 H   0  0  0  0  0  0
  -28.0633  -17.2032   21.4153 H   0  0  0  0  0  0
  -29.1815  -17.6264   22.6756 H   0  0  0  0  0  0
  -27.1355  -23.2903   21.4340 H   0  0  0  0  0  0
  -26.6547  -22.9901   19.8140 H   0  0  0  0  0  0
  -28.1525  -24.4561   18.9273 H   0  0  0  0  0  0
  -29.4721  -23.9259   19.9161 H   0  0  0  0  0  0
  -31.1299  -17.1911   21.2150 H   0  0  0  0  0  0
  -30.0862  -17.0367   19.8179 H   0  0  0  0  0  0
  -29.0844  -25.4812   21.5917 H   0  0  0  0  0  0
  -27.3679  -25.4750   21.4218 H   0  0  0  0  0  0
  -27.4406  -21.9084   18.0173 H   0  0  0  0  0  0
  -29.0897  -15.1341   21.5425 H   0  0  0  0  0  0
  1 25  1  0  0  0
  1 30  2  0  0  0
  1 85  1  0  0  0
  2  3  1  0  0  0
  2 25  1  0  0  0
  2 86  1  0  0  0
  2 87  1  0  0  0
  3  4  1  0  0  0
  3 88  1  0  0  0
  3 89  1  0  0  0
  4  5  1  0  0  0
  4 90  1  0  0  0
  4 91  1  0  0  0
  5  6  1  0  0  0
  5 26  1  0  0  0
  5 92  1  0  0  0
  6 25  1  0  0  0
  6 93  1  0  0  0
  6 94  1  0  0  0
  7  8  2  0  0  0
  7 26  1  0  0  0
  7 29  1  0  0  0
  8  9  1  0  0  0
  8 22  1  0  0  0
  9 10  1  0  0  0
  9 27  2  0  0  0
 10 11  2  0  0  0
 10 15  1  0  0  0
 11 12  1  0  0  0
 11 95  1  0  0  0
 12 13  2  0  0  0
 12 96  1  0  0  0
 13 14  1  0  0  0
 13 31  1  0  0  0
 14 15  2  0  0  0
 14 97  1  0  0  0
 15 98  1  0  0  0
 16 17  2  0  0  0
 16 21  1  0  0  0
 16 31  1  0  0  0
 17 18  1  0  0  0
 17 99  1  0  0  0
 18 19  2  0  0  0
 18100  1  0  0  0
 19 20  1  0  0  0
 19 24  1  0  0  0
 20 21  2  0  0  0
 20101  1  0  0  0
 21 23  1  0  0  0
 22 28  1  0  0  0
 22 32  2  0  0  0
 26 27  1  0  0  0
 28102  1  0  0  0
 28103  1  0  0  0
 29104  1  0  0  0
 29105  1  0  0  0
 33 34  1  0  0  0
 33 66  1  0  0  0
 33 70  2  0  0  0
 34 36  1  0  0  0
 34 59  1  0  0  0
 34106  1  0  0  0
 35 44  2  0  0  0
 35 45  1  0  0  0
 35 68  1  0  0  0
 36 56  1  0  0  0
 36107  1  0  0  0
 37 39  1  0  0  0
 37 47  1  0  0  0
 37 66  1  0  0  0
 37108  1  0  0  0
 38 43  2  0  0  0
 38 46  1  0  0  0
 38 47  1  0  0  0
 39 64  1  0  0  0
 39 67  2  0  0  0
 40 52  1  0  0  0
 40 53  2  0  0  0
 40 58  1  0  0  0
 41109  1  0  0  0
 41110  1  0  0  0
 41111  1  0  0  0
 41 48  1  0  0  0
 42 43  1  0  0  0
 42 66  1  0  0  0
 42112  1  0  0  0
 42113  1  0  0  0
 43 44  1  0  0  0
 44114  1  0  0  0
 45 46  2  0  0  0
 45115  1  0  0  0
 46116  1  0  0  0
 47117  1  0  0  0
 47118  1  0  0  0
 48 56  1  0  0  0
 48 65  1  0  0  0
 48119  1  0  0  0
 49 50  1  0  0  0
 49 53  1  0  0  0
 49 64  1  0  0  0
 49120  1  0  0  0
 50 51  1  0  0  0
 50121  1  0  0  0
 50122  1  0  0  0
 51 52  1  0  0  0
 51123  1  0  0  0
 51124  1  0  0  0
 52125  1  0  0  0
 52126  1  0  0  0
 53 54  1  0  0  0
 54 55  2  0  0  0
 54127  1  0  0  0
 55 57  1  0  0  0
 55128  1  0  0  0
 56 69  2  0  0  0
 57 58  2  0  0  0
 57129  1  0  0  0
 58130  1  0  0  0
 59 60  1  0  0  0
 59 61  1  0  0  0
 59 62  1  0  0  0
 60131  1  0  0  0
 60132  1  0  0  0
 60133  1  0  0  0
 61134  1  0  0  0
 61135  1  0  0  0
 61136  1  0  0  0
 62137  1  0  0  0
 62138  1  0  0  0
 62139  1  0  0  0
 63 65  1  0  0  0
 63140  1  0  0  0
 63141  1  0  0  0
 63142  1  0  0  0
 64143  1  0  0  0
 65144  1  0  0  0
 68 81  1  0  0  0
 71 72  2  0  0  0
 71 83  1  0  0  0
 71145  1  0  0  0
 72 77  1  0  0  0
 72 84  1  0  0  0
 73 74  1  0  0  0
 73 78  1  0  0  0
 73 83  2  0  0  0
 74 82  1  0  0  0
 74 84  2  0  0  0
 75146  1  0  0  0
 75147  1  0  0  0
 75148  1  0  0  0
 75 82  1  0  0  0
 76 82  1  0  0  0
 76149  1  0  0  0
 76150  1  0  0  0
 76151  1  0  0  0
 77 80  1  0  0  0
 77152  1  0  0  0
 77153  1  0  0  0
 78 79  1  0  0  0
 78154  1  0  0  0
 78155  1  0  0  0
 79 81  1  0  0  0
 79156  1  0  0  0
 79157  1  0  0  0
 80 85  1  0  0  0
 80158  1  0  0  0
 80159  1  0  0  0
 81160  1  0  0  0
 81161  1  0  0  0
 82162  1  0  0  0
 85163  1  0  0  0
M  ISO  4   1 100  68 101  81 101  85 100
M  END
> <chiral flag>
0

> <version>
0

> <s_m_source_file>
/data/baiqing/PycharmProjects/Reinvent-master-3.2/result/LINK_invent/BTK/process_docking_weight1_custom_sum_contain_oxygen_bond_distance_aromatic_linkinvent_7_9_3/rearranged_h_0079.sdf

> <i_m_source_file_index>
77

> <r_mmod_Potential_Energy-OPLS-2005>
-32.7144012451172

> <r_mmod_Stretch_Energy-OPLS-2005>
37.6930809020996

> <r_mmod_Bend_Energy-OPLS-2005>
91.5983276367188

> <r_mmod_Torsional_Energy-OPLS-2005>
226.954574584961

> <r_mmod_Improper_Torsional_Energy-OPLS-2005>
7.08164119720459

> <r_mmod_Van_der_Waal_Energy-OPLS-2005>
153.821731567383

> <r_mmod_Electrostatic_Energy-OPLS-2005>
-343.341583251953

> <r_mmod_Solvation_Energy-OPLS-2005>
-216.794158935547

> <b_mmod_Minimization_Converged-OPLS-2005>
0

> <r_mmod_RMS_Derivative-OPLS-2005>
3.61606121063232

$$$$
77
                    3D
 Structure written by MMmdl.
182190  0  0  1  0            999 V2000
  -30.7267  -14.5078   20.6495 C   0  0  0  0  0  0
  -30.4148  -12.3512   19.4449 C   0  0  0  0  0  0
  -29.5015  -12.5160   18.2140 C   0  0  0  0  0  0
  -28.0242  -12.3397   18.6103 C   0  0  0  0  0  0
  -27.6482  -13.1978   19.8434 C   0  0  2  0  0  0
  -28.6767  -13.0204   20.9768 C   0  0  0  0  0  0
  -25.2510  -13.8093   20.5536 C   0  0  0  0  0  0
  -24.1808  -13.0398   20.9170 C   0  0  0  0  0  0
  -24.6360  -11.6841   20.8745 C   0  0  0  0  0  0
  -23.9042  -10.4253   21.0411 C   0  0  0  0  0  0
  -24.3599   -9.4181   21.9193 C   0  0  0  0  0  0
  -23.6270   -8.2221   22.0761 C   0  0  0  0  0  0
  -22.4249   -8.0266   21.3542 C   0  0  0  0  0  0
  -21.9883   -9.0251   20.4646 C   0  0  0  0  0  0
  -22.7218  -10.2118   20.3056 C   0  0  0  0  0  0
  -21.6844   -6.0723   22.5281 C   0  0  0  0  0  0
  -21.3999   -6.5643   23.8218 C   0  0  0  0  0  0
  -21.3661   -5.6784   24.9189 C   0  0  0  0  0  0
  -21.6044   -4.3059   24.7223 C   0  0  0  0  0  0
  -21.8814   -3.8146   23.4366 C   0  0  0  0  0  0
  -21.9180   -4.6948   22.3410 C   0  0  0  0  0  0
  -22.7850  -13.5212   21.1867 C   0  0  0  0  0  0
  -22.1653   -4.2147   21.0983 F   0  0  0  0  0  0
  -21.5637   -3.4537   25.7747 F   0  0  0  0  0  0
  -30.0131  -13.3502   20.4632 N   0  0  0  0  0  0
  -26.2923  -12.9242   20.3128 N   0  0  0  0  0  0
  -25.9272  -11.6434   20.5674 N   0  0  0  0  0  0
  -22.0478  -12.8226   22.0441 N   0  0  0  0  0  0
  -25.4156  -15.1793   20.3814 N   0  0  0  0  0  0
  -31.7801  -14.6608   20.0228 O   0  0  0  0  0  0
  -21.6618   -6.8871   21.4233 O   0  0  0  0  0  0
  -22.3546  -14.5532   20.6723 O   0  0  0  0  0  0
  -24.6212  -31.8612   23.2041 C   0  0  0  0  0  0
  -25.9081  -32.4810   23.8347 C   0  0  1  0  0  0
  -27.1931  -27.3525   20.1330 C   0  0  0  0  0  0
  -25.5932  -33.8623   24.2310 N   0  0  0  0  0  0
  -23.4132  -30.4932   21.5469 C   0  0  2  0  0  0
  -24.8522  -28.9569   20.1041 C   0  0  0  0  0  0
  -22.7453  -29.4674   22.4942 C   0  0  0  0  0  0
  -18.0295  -28.1402   22.8487 C   0  0  0  0  0  0
  -24.1492  -36.7304   23.2641 C   0  0  0  0  0  0
  -25.9514  -30.8067   21.3655 C   0  0  0  0  0  0
  -26.0168  -29.4374   20.7147 C   0  0  0  0  0  0
  -27.1919  -28.6433   20.7258 C   0  0  0  0  0  0
  -26.0113  -26.9151   19.4834 C   0  0  0  0  0  0
  -24.8519  -27.7047   19.4757 C   0  0  0  0  0  0
  -23.6177  -29.8293   20.1581 C   0  0  0  0  0  0
  -25.4116  -36.3141   24.0338 C   0  0  1  0  0  0
  -20.5897  -28.3729   23.1295 C   0  0  2  0  0  0
  -20.6799  -26.9451   22.5411 C   0  0  0  0  0  0
  -19.5756  -26.6400   21.5222 C   0  0  0  0  0  0
  -18.1936  -26.7957   22.1621 C   0  0  0  0  0  0
  -19.1546  -28.8878   23.2907 C   0  0  0  0  0  0
  -18.9469  -30.1474   23.8926 C   0  0  0  0  0  0
  -17.6482  -30.6627   24.0577 C   0  0  0  0  0  0
  -25.9013  -34.9505   23.5102 C   0  0  0  0  0  0
  -16.5366  -29.9133   23.6339 C   0  0  0  0  0  0
  -16.7276  -28.6538   23.0365 C   0  0  0  0  0  0
  -26.4480  -31.6618   25.0717 C   0  0  0  0  0  0
  -25.3739  -31.3734   26.1467 C   0  0  0  0  0  0
  -27.0284  -30.3066   24.6072 C   0  0  0  0  0  0
  -27.6041  -32.4350   25.7488 C   0  0  0  0  0  0
  -27.5605  -37.1809   24.8481 C   0  0  0  0  0  0
  -21.4174  -29.3094   22.3666 N   0  0  0  0  0  0
  -26.4322  -37.3829   23.9427 N   0  0  0  0  0  0
  -24.6837  -31.0661   22.0977 N   0  0  0  0  0  0
  -23.4194  -28.8210   23.3004 O   0  0  0  0  0  0
  -28.3043  -26.5200   20.2420 O   0  0  0  0  0  0
  -26.5613  -34.8958   22.4697 O   0  0  0  0  0  0
  -23.5378  -32.1429   23.7378 O   0  0  0  0  0  0
  -29.2496  -19.2174   21.1818 C   0  0  0  0  0  0
  -29.3735  -17.9793   20.5849 C   0  0  0  0  0  0
  -30.0971  -19.5650   19.1527 C   0  0  0  0  0  0
  -27.8706  -16.6536   22.0382 C   0  0  0  0  0  0
  -32.2943  -20.2173   18.1737 C   0  0  0  0  0  0
  -30.2220  -21.4599   17.4331 C   0  0  0  0  0  0
  -30.5875  -19.1190   16.7186 C   0  0  0  0  0  0
  -30.1261  -15.1645   23.0724 C   0  0  0  0  0  0
  -31.5420  -16.6434   21.7706 C   0  0  0  0  0  0
  -29.0976  -24.1970   22.3778 C   0  0  0  0  0  0
  -30.5204  -24.6234   20.3913 C   0  0  0  0  0  0
  -28.8673  -22.6304   20.3721 C   0  0  0  0  0  0
  -30.0060  -21.5978   20.6786 C   0  0  0  0  0  0
  -28.0425  -25.0827   20.2245 C   0  0  0  0  0  0
  -29.0638  -16.5576   21.0618 C   0  0  2  0  0  0
  -30.7821  -20.0982   17.9010 C   0  0  0  0  0  0
  -30.3050  -15.7005   21.6173 C   0  0  0  0  0  0
  -29.1311  -24.1269   20.8351 C   0  0  0  0  0  0
  -29.7587  -20.1699   20.3203 N   0  0  0  0  0  0
  -29.8828  -18.2532   19.3428 N   0  3  0  0  0  0
  -31.4622  -12.4372   19.1489 H   0  0  0  0  0  0
  -30.3178  -11.3448   19.8569 H   0  0  0  0  0  0
  -29.7718  -11.7903   17.4469 H   0  0  0  0  0  0
  -29.6513  -13.5016   17.7715 H   0  0  0  0  0  0
  -27.8611  -11.2840   18.8311 H   0  0  0  0  0  0
  -27.3732  -12.5752   17.7672 H   0  0  0  0  0  0
  -27.6711  -14.2308   19.5074 H   0  0  0  0  0  0
  -28.6677  -11.9918   21.3376 H   0  0  0  0  0  0
  -28.3628  -13.6234   21.8131 H   0  0  0  0  0  0
  -25.2752   -9.5654   22.4772 H   0  0  0  0  0  0
  -23.9982   -7.4601   22.7474 H   0  0  0  0  0  0
  -21.0839   -8.8762   19.8963 H   0  0  0  0  0  0
  -22.3694  -10.9651   19.6177 H   0  0  0  0  0  0
  -21.1984   -7.6143   23.9721 H   0  0  0  0  0  0
  -21.1494   -6.0526   25.9090 H   0  0  0  0  0  0
  -22.0590   -2.7602   23.2855 H   0  0  0  0  0  0
  -22.4074  -11.9868   22.4809 H   0  0  0  0  0  0
  -21.1121  -13.1289   22.2647 H   0  0  0  0  0  0
  -24.6413  -15.8243   20.4885 H   0  0  0  0  0  0
  -26.2479  -15.6149   20.0099 H   0  0  0  0  0  0
  -26.7154  -32.5466   23.1080 H   0  0  0  0  0  0
  -25.0125  -33.9788   25.0481 H   0  0  0  0  0  0
  -22.7060  -31.3157   21.4039 H   0  0  0  0  0  0
  -23.3787  -35.9614   23.3316 H   0  0  0  0  0  0
  -24.3587  -36.8896   22.2067 H   0  0  0  0  0  0
  -23.7209  -37.6488   23.6624 H   0  0  0  0  0  0
  -26.0639  -31.5592   20.5865 H   0  0  0  0  0  0
  -26.8404  -30.8604   21.9814 H   0  0  0  0  0  0
  -28.0865  -28.9878   21.2296 H   0  0  0  0  0  0
  -25.9513  -25.9477   19.0037 H   0  0  0  0  0  0
  -23.9551  -27.3392   18.9978 H   0  0  0  0  0  0
  -23.7346  -30.6042   19.3974 H   0  0  0  0  0  0
  -22.7330  -29.2607   19.8559 H   0  0  0  0  0  0
  -25.1293  -36.2013   25.0835 H   0  0  0  0  0  0
  -20.9995  -28.3315   24.1422 H   0  0  0  0  0  0
  -20.5753  -26.2326   23.3619 H   0  0  0  0  0  0
  -21.6673  -26.7526   22.1168 H   0  0  0  0  0  0
  -19.6943  -25.6307   21.1271 H   0  0  0  0  0  0
  -19.6716  -27.3212   20.6759 H   0  0  0  0  0  0
  -17.4219  -26.6735   21.4015 H   0  0  0  0  0  0
  -18.0332  -26.0108   22.9015 H   0  0  0  0  0  0
  -19.7964  -30.7282   24.2302 H   0  0  0  0  0  0
  -17.5058  -31.6316   24.5185 H   0  0  0  0  0  0
  -15.5380  -30.3070   23.7657 H   0  0  0  0  0  0
  -15.8663  -28.0876   22.7089 H   0  0  0  0  0  0
  -24.5901  -30.7084   25.7805 H   0  0  0  0  0  0
  -24.8945  -32.2903   26.4923 H   0  0  0  0  0  0
  -25.8118  -30.8909   27.0211 H   0  0  0  0  0  0
  -26.2803  -29.6859   24.1126 H   0  0  0  0  0  0
  -27.4069  -29.7272   25.4489 H   0  0  0  0  0  0
  -27.8636  -30.4397   23.9196 H   0  0  0  0  0  0
  -27.2630  -33.3634   26.2072 H   0  0  0  0  0  0
  -28.3850  -32.6927   25.0328 H   0  0  0  0  0  0
  -28.0688  -31.8473   26.5403 H   0  0  0  0  0  0
  -28.2611  -38.0108   24.7560 H   0  0  0  0  0  0
  -28.1091  -36.2652   24.6259 H   0  0  0  0  0  0
  -27.2313  -37.1418   25.8869 H   0  0  0  0  0  0
  -20.9334  -29.8798   21.6873 H   0  0  0  0  0  0
  -26.0202  -38.2895   24.1453 H   0  0  0  0  0  0
  -28.8935  -19.4801   22.1688 H   0  0  0  0  0  0
  -27.0387  -17.1880   21.5792 H   0  0  0  0  0  0
  -28.1419  -17.1935   22.9451 H   0  0  0  0  0  0
  -27.4856  -15.6773   22.3270 H   0  0  0  0  0  0
  -32.5085  -20.8879   19.0059 H   0  0  0  0  0  0
  -32.8291  -20.5971   17.3011 H   0  0  0  0  0  0
  -32.7193  -19.2454   18.4256 H   0  0  0  0  0  0
  -30.4755  -22.2788   18.1030 H   0  0  0  0  0  0
  -29.1363  -21.4278   17.3154 H   0  0  0  0  0  0
  -30.6387  -21.7425   16.4660 H   0  0  0  0  0  0
  -31.0157  -18.1374   16.9147 H   0  0  0  0  0  0
  -31.0745  -19.4907   15.8165 H   0  0  0  0  0  0
  -29.5311  -18.9873   16.4788 H   0  0  0  0  0  0
  -30.2316  -15.9640   23.8043 H   0  0  0  0  0  0
  -30.8821  -14.4190   23.3136 H   0  0  0  0  0  0
  -29.1678  -14.7122   23.3014 H   0  0  0  0  0  0
  -31.3264  -17.4824   22.4343 H   0  0  0  0  0  0
  -31.8774  -17.0627   20.8214 H   0  0  0  0  0  0
  -32.3962  -16.1160   22.1979 H   0  0  0  0  0  0
  -29.8778  -23.5825   22.8319 H   0  0  0  0  0  0
  -28.1384  -23.8585   22.7758 H   0  0  0  0  0  0
  -29.2556  -25.2182   22.7273 H   0  0  0  0  0  0
  -31.3302  -24.0366   20.8282 H   0  0  0  0  0  0
  -30.6745  -25.6490   20.7337 H   0  0  0  0  0  0
  -30.6171  -24.6151   19.3030 H   0  0  0  0  0  0
  -27.9467  -22.2673   20.8280 H   0  0  0  0  0  0
  -28.6647  -22.6238   19.3036 H   0  0  0  0  0  0
  -30.2229  -21.6009   21.7475 H   0  0  0  0  0  0
  -30.9406  -21.8905   20.2056 H   0  0  0  0  0  0
  -27.8818  -24.8015   19.1825 H   0  0  0  0  0  0
  -27.1051  -24.8894   20.7486 H   0  0  0  0  0  0
  -28.6819  -16.0426   20.1792 H   0  0  0  0  0  0
  -30.1055  -17.5577   18.6424 H   0  0  0  0  0  0
  1 25  1  0  0  0
  1 30  2  0  0  0
  1 87  1  0  0  0
  2  3  1  0  0  0
  2 25  1  0  0  0
  2 91  1  0  0  0
  2 92  1  0  0  0
  3  4  1  0  0  0
  3 93  1  0  0  0
  3 94  1  0  0  0
  4  5  1  0  0  0
  4 95  1  0  0  0
  4 96  1  0  0  0
  5  6  1  0  0  0
  5 26  1  0  0  0
  5 97  1  0  0  0
  6 25  1  0  0  0
  6 98  1  0  0  0
  6 99  1  0  0  0
  7  8  2  0  0  0
  7 26  1  0  0  0
  7 29  1  0  0  0
  8  9  1  0  0  0
  8 22  1  0  0  0
  9 10  1  0  0  0
  9 27  2  0  0  0
 10 11  2  0  0  0
 10 15  1  0  0  0
 11 12  1  0  0  0
 11100  1  0  0  0
 12 13  2  0  0  0
 12101  1  0  0  0
 13 14  1  0  0  0
 13 31  1  0  0  0
 14 15  2  0  0  0
 14102  1  0  0  0
 15103  1  0  0  0
 16 17  2  0  0  0
 16 21  1  0  0  0
 16 31  1  0  0  0
 17 18  1  0  0  0
 17104  1  0  0  0
 18 19  2  0  0  0
 18105  1  0  0  0
 19 20  1  0  0  0
 19 24  1  0  0  0
 20 21  2  0  0  0
 20106  1  0  0  0
 21 23  1  0  0  0
 22 28  1  0  0  0
 22 32  2  0  0  0
 26 27  1  0  0  0
 28107  1  0  0  0
 28108  1  0  0  0
 29109  1  0  0  0
 29110  1  0  0  0
 33 34  1  0  0  0
 33 66  1  0  0  0
 33 70  2  0  0  0
 34 36  1  0  0  0
 34 59  1  0  0  0
 34111  1  0  0  0
 35 44  2  0  0  0
 35 45  1  0  0  0
 35 68  1  0  0  0
 36 56  1  0  0  0
 36112  1  0  0  0
 37 39  1  0  0  0
 37 47  1  0  0  0
 37 66  1  0  0  0
 37113  1  0  0  0
 38 43  2  0  0  0
 38 46  1  0  0  0
 38 47  1  0  0  0
 39 64  1  0  0  0
 39 67  2  0  0  0
 40 52  1  0  0  0
 40 53  2  0  0  0
 40 58  1  0  0  0
 41114  1  0  0  0
 41115  1  0  0  0
 41116  1  0  0  0
 41 48  1  0  0  0
 42 43  1  0  0  0
 42 66  1  0  0  0
 42117  1  0  0  0
 42118  1  0  0  0
 43 44  1  0  0  0
 44119  1  0  0  0
 45 46  2  0  0  0
 45120  1  0  0  0
 46121  1  0  0  0
 47122  1  0  0  0
 47123  1  0  0  0
 48 56  1  0  0  0
 48 65  1  0  0  0
 48124  1  0  0  0
 49 50  1  0  0  0
 49 53  1  0  0  0
 49 64  1  0  0  0
 49125  1  0  0  0
 50 51  1  0  0  0
 50126  1  0  0  0
 50127  1  0  0  0
 51 52  1  0  0  0
 51128  1  0  0  0
 51129  1  0  0  0
 52130  1  0  0  0
 52131  1  0  0  0
 53 54  1  0  0  0
 54 55  2  0  0  0
 54132  1  0  0  0
 55 57  1  0  0  0
 55133  1  0  0  0
 56 69  2  0  0  0
 57 58  2  0  0  0
 57134  1  0  0  0
 58135  1  0  0  0
 59 60  1  0  0  0
 59 61  1  0  0  0
 59 62  1  0  0  0
 60136  1  0  0  0
 60137  1  0  0  0
 60138  1  0  0  0
 61139  1  0  0  0
 61140  1  0  0  0
 61141  1  0  0  0
 62142  1  0  0  0
 62143  1  0  0  0
 62144  1  0  0  0
 63 65  1  0  0  0
 63145  1  0  0  0
 63146  1  0  0  0
 63147  1  0  0  0
 64148  1  0  0  0
 65149  1  0  0  0
 68 84  1  0  0  0
 71 72  2  0  0  0
 71 89  1  0  0  0
 71150  1  0  0  0
 72 85  1  0  0  0
 72 90  1  0  0  0
 73 86  1  0  0  0
 73 89  1  0  0  0
 73 90  2  0  0  0
 74151  1  0  0  0
 74152  1  0  0  0
 74153  1  0  0  0
 74 85  1  0  0  0
 75154  1  0  0  0
 75155  1  0  0  0
 75156  1  0  0  0
 75 86  1  0  0  0
 76 86  1  0  0  0
 76157  1  0  0  0
 76158  1  0  0  0
 76159  1  0  0  0
 77 86  1  0  0  0
 77160  1  0  0  0
 77161  1  0  0  0
 77162  1  0  0  0
 78163  1  0  0  0
 78164  1  0  0  0
 78165  1  0  0  0
 78 87  1  0  0  0
 79 87  1  0  0  0
 79166  1  0  0  0
 79167  1  0  0  0
 79168  1  0  0  0
 80169  1  0  0  0
 80170  1  0  0  0
 80171  1  0  0  0
 80 88  1  0  0  0
 81 88  1  0  0  0
 81172  1  0  0  0
 81173  1  0  0  0
 81174  1  0  0  0
 82 83  1  0  0  0
 82 88  1  0  0  0
 82175  1  0  0  0
 82176  1  0  0  0
 83 89  1  0  0  0
 83177  1  0  0  0
 83178  1  0  0  0
 84 88  1  0  0  0
 84179  1  0  0  0
 84180  1  0  0  0
 85 87  1  0  0  0
 85181  1  0  0  0
 90182  1  0  0  0
M  CHG  1  90   1
M  ISO  4   1 100  68 101  84 101  87 100
M  END
> <chiral flag>
0

> <version>
0

> <s_m_source_file>
/data/baiqing/PycharmProjects/Reinvent-master-3.2/result/LINK_invent/BTK/process_docking_weight1_custom_sum_contain_oxygen_bond_distance_aromatic_linkinvent_7_9_3/rearranged_h_0079.sdf

> <i_m_source_file_index>
78

> <r_mmod_Potential_Energy-OPLS-2005>
105.237854003906

> <r_mmod_Stretch_Energy-OPLS-2005>
70.6029510498047

> <r_mmod_Bend_Energy-OPLS-2005>
146.249557495117

> <r_mmod_Torsional_Energy-OPLS-2005>
246.655014038086

> <r_mmod_Improper_Torsional_Energy-OPLS-2005>
3.06997799873352

> <r_mmod_Van_der_Waal_Energy-OPLS-2005>
151.296920776367

> <r_mmod_Electrostatic_Energy-OPLS-2005>
-181.75276184082

> <r_mmod_Solvation_Energy-OPLS-2005>
-362.043151855469

> <b_mmod_Minimization_Converged-OPLS-2005>
0

> <r_mmod_RMS_Derivative-OPLS-2005>
7.76542901992798

$$$$
78
                    3D
 Structure written by MMmdl.
157165  0  0  1  0            999 V2000
  -30.4945  -14.9834   20.4268 C   0  0  0  0  0  0
  -30.4443  -12.6175   19.4808 C   0  0  0  0  0  0
  -29.5208  -12.5439   18.2423 C   0  0  0  0  0  0
  -28.0526  -12.3228   18.6580 C   0  0  0  0  0  0
  -27.6238  -13.2469   19.8267 C   0  0  2  0  0  0
  -28.6679  -13.2689   20.9605 C   0  0  0  0  0  0
  -25.2442  -13.8198   20.5671 C   0  0  0  0  0  0
  -24.1773  -13.0418   20.9218 C   0  0  0  0  0  0
  -24.6390  -11.6900   20.8726 C   0  0  0  0  0  0
  -23.9075  -10.4277   21.0394 C   0  0  0  0  0  0
  -24.3630   -9.4196   21.9172 C   0  0  0  0  0  0
  -23.6299   -8.2236   22.0756 C   0  0  0  0  0  0
  -22.4278   -8.0274   21.3547 C   0  0  0  0  0  0
  -21.9909   -9.0240   20.4643 C   0  0  0  0  0  0
  -22.7243  -10.2117   20.3046 C   0  0  0  0  0  0
  -21.6863   -6.0726   22.5281 C   0  0  0  0  0  0
  -21.4017   -6.5631   23.8209 C   0  0  0  0  0  0
  -21.3664   -5.6786   24.9171 C   0  0  0  0  0  0
  -21.6047   -4.3049   24.7226 C   0  0  0  0  0  0
  -21.8818   -3.8137   23.4350 C   0  0  0  0  0  0
  -21.9198   -4.6952   22.3404 C   0  0  0  0  0  0
  -22.7791  -13.5179   21.1893 C   0  0  0  0  0  0
  -22.1663   -4.2130   21.0983 F   0  0  0  0  0  0
  -21.5632   -3.4539   25.7744 F   0  0  0  0  0  0
  -29.9335  -13.7074   20.3582 N   0  0  0  0  0  0
  -26.2852  -12.9424   20.3164 N   0  0  0  0  0  0
  -25.9315  -11.6553   20.5681 N   0  0  0  0  0  0
  -22.0458  -12.8153   22.0451 N   0  0  0  0  0  0
  -25.4074  -15.1942   20.4111 N   0  0  0  0  0  0
  -31.7113  -15.0720   20.2265 O   0  0  0  0  0  0
  -21.6646   -6.8869   21.4244 O   0  0  0  0  0  0
  -22.3461  -14.5477   20.6732 O   0  0  0  0  0  0
  -24.6443  -31.8419   23.1862 C   0  0  0  0  0  0
  -25.9210  -32.4678   23.8249 C   0  0  1  0  0  0
  -27.2161  -27.1118   20.1672 C   0  0  0  0  0  0
  -25.5957  -33.8488   24.2164 N   0  0  0  0  0  0
  -23.4500  -30.4595   21.5315 C   0  0  2  0  0  0
  -24.9013  -28.8782   20.1150 C   0  0  0  0  0  0
  -22.7569  -29.4533   22.4843 C   0  0  0  0  0  0
  -18.0297  -28.1409   22.8465 C   0  0  0  0  0  0
  -24.1501  -36.7252   23.2642 C   0  0  0  0  0  0
  -26.0078  -30.7084   21.3890 C   0  0  0  0  0  0
  -26.0793  -29.3163   20.7342 C   0  0  0  0  0  0
  -27.2392  -28.4505   20.7380 C   0  0  0  0  0  0
  -26.0146  -26.7796   19.5073 C   0  0  0  0  0  0
  -24.8832  -27.6243   19.4847 C   0  0  0  0  0  0
  -23.6807  -29.7852   20.1521 C   0  0  0  0  0  0
  -25.4133  -36.3019   24.0303 C   0  0  1  0  0  0
  -20.5915  -28.3735   23.1232 C   0  0  2  0  0  0
  -20.6791  -26.9433   22.5412 C   0  0  0  0  0  0
  -19.5769  -26.6384   21.5218 C   0  0  0  0  0  0
  -18.1946  -26.7946   22.1618 C   0  0  0  0  0  0
  -19.1558  -28.8888   23.2843 C   0  0  0  0  0  0
  -18.9477  -30.1479   23.8873 C   0  0  0  0  0  0
  -17.6478  -30.6607   24.0561 C   0  0  0  0  0  0
  -25.9080  -34.9394   23.5045 C   0  0  0  0  0  0
  -16.5363  -29.9099   23.6342 C   0  0  0  0  0  0
  -16.7283  -28.6523   23.0351 C   0  0  0  0  0  0
  -26.4535  -31.6551   25.0698 C   0  0  0  0  0  0
  -25.3711  -31.3750   26.1381 C   0  0  0  0  0  0
  -27.0404  -30.2936   24.6305 C   0  0  0  0  0  0
  -27.6048  -32.4326   25.7502 C   0  0  0  0  0  0
  -27.5577  -37.1779   24.8456 C   0  0  0  0  0  0
  -21.4258  -29.3055   22.3595 N   0  0  0  0  0  0
  -26.4291  -37.3735   23.9401 N   0  0  0  0  0  0
  -24.7208  -31.0253   22.0907 N   0  0  0  0  0  0
  -23.4198  -28.8077   23.2999 O   0  0  0  0  0  0
  -28.2725  -26.1249   20.1874 O   0  0  0  0  0  0
  -26.5668  -34.8895   22.4621 O   0  0  0  0  0  0
  -23.5560  -32.1303   23.7069 O   0  0  0  0  0  0
  -30.2428  -20.9380   18.4594 C   0  0  0  0  0  0
  -29.6351  -20.3880   19.6180 C   0  0  0  0  0  0
  -30.9484  -20.1464   17.5433 C   0  0  0  0  0  0
  -29.8692  -18.8736   19.7320 C   0  0  0  0  0  0
  -31.6109  -20.7560   16.3278 C   0  0  0  0  0  0
  -30.6288  -17.9403   22.0129 C   0  0  0  0  0  0
  -28.8656  -21.6016   20.4515 C   0  0  0  0  0  0
  -28.8784  -23.2484   19.9373 C   0  0  0  0  0  0
  -28.0373  -24.6065   20.5173 C   0  0  0  0  0  0
  -29.6626  -17.6955   20.8463 C   0  0  2  0  0  0
  -31.0739  -18.8193   17.6834 N   0  0  0  0  0  0
  -30.5494  -18.2262   18.7476 N   0  0  0  0  0  0
  -29.6390  -16.1198   20.5391 N   0  0  0  0  0  0
  -31.4720  -12.8033   19.1653 H   0  0  0  0  0  0
  -30.4589  -11.6647   20.0119 H   0  0  0  0  0  0
  -29.8452  -11.7472   17.5715 H   0  0  0  0  0  0
  -29.6036  -13.4728   17.6754 H   0  0  0  0  0  0
  -27.9439  -11.2768   18.9497 H   0  0  0  0  0  0
  -27.3940  -12.4691   17.8005 H   0  0  0  0  0  0
  -27.5830  -14.2511   19.4035 H   0  0  0  0  0  0
  -28.7687  -12.2842   21.4197 H   0  0  0  0  0  0
  -28.3589  -13.9506   21.7543 H   0  0  0  0  0  0
  -25.2784   -9.5666   22.4729 H   0  0  0  0  0  0
  -24.0010   -7.4625   22.7472 H   0  0  0  0  0  0
  -21.0843   -8.8754   19.8942 H   0  0  0  0  0  0
  -22.3714  -10.9646   19.6138 H   0  0  0  0  0  0
  -21.2012   -7.6136   23.9704 H   0  0  0  0  0  0
  -21.1491   -6.0519   25.9073 H   0  0  0  0  0  0
  -22.0601   -2.7595   23.2860 H   0  0  0  0  0  0
  -22.4123  -11.9838   22.4842 H   0  0  0  0  0  0
  -21.1057  -13.1139   22.2651 H   0  0  0  0  0  0
  -24.6241  -15.8319   20.5127 H   0  0  0  0  0  0
  -26.2273  -15.6404   20.0229 H   0  0  0  0  0  0
  -26.7271  -32.5281   23.0970 H   0  0  0  0  0  0
  -25.0069  -33.9603   25.0288 H   0  0  0  0  0  0
  -22.7547  -31.2867   21.3732 H   0  0  0  0  0  0
  -23.3769  -35.9582   23.3290 H   0  0  0  0  0  0
  -24.3577  -36.8910   22.2061 H   0  0  0  0  0  0
  -23.7265  -37.6440   23.6700 H   0  0  0  0  0  0
  -26.1634  -31.4606   20.6143 H   0  0  0  0  0  0
  -26.8778  -30.7614   22.0323 H   0  0  0  0  0  0
  -28.1389  -28.7823   21.2381 H   0  0  0  0  0  0
  -25.9325  -25.8234   19.0117 H   0  0  0  0  0  0
  -23.9867  -27.2867   18.9838 H   0  0  0  0  0  0
  -23.8246  -30.5595   19.3978 H   0  0  0  0  0  0
  -22.7957  -29.2298   19.8363 H   0  0  0  0  0  0
  -25.1333  -36.1829   25.0800 H   0  0  0  0  0  0
  -20.9998  -28.3339   24.1356 H   0  0  0  0  0  0
  -20.5705  -26.2344   23.3635 H   0  0  0  0  0  0
  -21.6660  -26.7455   22.1202 H   0  0  0  0  0  0
  -19.6942  -25.6288   21.1269 H   0  0  0  0  0  0
  -19.6723  -27.3182   20.6744 H   0  0  0  0  0  0
  -17.4217  -26.6679   21.4020 H   0  0  0  0  0  0
  -18.0346  -26.0101   22.9032 H   0  0  0  0  0  0
  -19.7950  -30.7301   24.2239 H   0  0  0  0  0  0
  -17.5028  -31.6284   24.5172 H   0  0  0  0  0  0
  -15.5362  -30.2999   23.7692 H   0  0  0  0  0  0
  -15.8676  -28.0846   22.7074 H   0  0  0  0  0  0
  -24.5901  -30.7094   25.7692 H   0  0  0  0  0  0
  -24.8897  -32.2941   26.4730 H   0  0  0  0  0  0
  -25.7983  -30.8965   27.0201 H   0  0  0  0  0  0
  -26.3031  -29.6644   24.1310 H   0  0  0  0  0  0
  -27.3996  -29.7251   25.4895 H   0  0  0  0  0  0
  -27.8948  -30.4162   23.9645 H   0  0  0  0  0  0
  -27.2622  -33.3638   26.2025 H   0  0  0  0  0  0
  -28.3898  -32.6862   25.0366 H   0  0  0  0  0  0
  -28.0671  -31.8484   26.5469 H   0  0  0  0  0  0
  -28.2566  -38.0099   24.7504 H   0  0  0  0  0  0
  -28.1097  -36.2620   24.6287 H   0  0  0  0  0  0
  -27.2278  -37.1428   25.8853 H   0  0  0  0  0  0
  -20.9469  -29.8763   21.6768 H   0  0  0  0  0  0
  -26.0147  -38.2796   24.1417 H   0  0  0  0  0  0
  -30.2025  -21.9904   18.2379 H   0  0  0  0  0  0
  -31.8347  -21.8098   16.4905 H   0  0  0  0  0  0
  -30.9548  -20.6728   15.4624 H   0  0  0  0  0  0
  -32.5492  -20.2490   16.1000 H   0  0  0  0  0  0
  -30.5117  -18.9505   22.4062 H   0  0  0  0  0  0
  -31.6644  -17.8256   21.6949 H   0  0  0  0  0  0
  -30.4487  -17.2448   22.8324 H   0  0  0  0  0  0
  -29.2553  -21.5739   21.4687 H   0  0  0  0  0  0
  -27.8242  -21.2901   20.5438 H   0  0  0  0  0  0
  -28.5850  -23.2265   18.8871 H   0  0  0  0  0  0
  -29.9276  -23.5441   19.9374 H   0  0  0  0  0  0
  -28.1455  -24.5681   21.6012 H   0  0  0  0  0  0
  -26.9806  -24.3931   20.3629 H   0  0  0  0  0  0
  -28.6621  -17.8952   21.2330 H   0  0  0  0  0  0
  -28.6825  -15.8053   20.5042 H   0  0  0  0  0  0
  1 25  1  0  0  0
  1 30  2  0  0  0
  1 83  1  0  0  0
  2  3  1  0  0  0
  2 25  1  0  0  0
  2 84  1  0  0  0
  2 85  1  0  0  0
  3  4  1  0  0  0
  3 86  1  0  0  0
  3 87  1  0  0  0
  4  5  1  0  0  0
  4 88  1  0  0  0
  4 89  1  0  0  0
  5  6  1  0  0  0
  5 26  1  0  0  0
  5 90  1  0  0  0
  6 25  1  0  0  0
  6 91  1  0  0  0
  6 92  1  0  0  0
  7  8  2  0  0  0
  7 26  1  0  0  0
  7 29  1  0  0  0
  8  9  1  0  0  0
  8 22  1  0  0  0
  9 10  1  0  0  0
  9 27  2  0  0  0
 10 11  2  0  0  0
 10 15  1  0  0  0
 11 12  1  0  0  0
 11 93  1  0  0  0
 12 13  2  0  0  0
 12 94  1  0  0  0
 13 14  1  0  0  0
 13 31  1  0  0  0
 14 15  2  0  0  0
 14 95  1  0  0  0
 15 96  1  0  0  0
 16 17  2  0  0  0
 16 21  1  0  0  0
 16 31  1  0  0  0
 17 18  1  0  0  0
 17 97  1  0  0  0
 18 19  2  0  0  0
 18 98  1  0  0  0
 19 20  1  0  0  0
 19 24  1  0  0  0
 20 21  2  0  0  0
 20 99  1  0  0  0
 21 23  1  0  0  0
 22 28  1  0  0  0
 22 32  2  0  0  0
 26 27  1  0  0  0
 28100  1  0  0  0
 28101  1  0  0  0
 29102  1  0  0  0
 29103  1  0  0  0
 33 34  1  0  0  0
 33 66  1  0  0  0
 33 70  2  0  0  0
 34 36  1  0  0  0
 34 59  1  0  0  0
 34104  1  0  0  0
 35 44  2  0  0  0
 35 45  1  0  0  0
 35 68  1  0  0  0
 36 56  1  0  0  0
 36105  1  0  0  0
 37 39  1  0  0  0
 37 47  1  0  0  0
 37 66  1  0  0  0
 37106  1  0  0  0
 38 43  2  0  0  0
 38 46  1  0  0  0
 38 47  1  0  0  0
 39 64  1  0  0  0
 39 67  2  0  0  0
 40 52  1  0  0  0
 40 53  2  0  0  0
 40 58  1  0  0  0
 41107  1  0  0  0
 41108  1  0  0  0
 41109  1  0  0  0
 41 48  1  0  0  0
 42 43  1  0  0  0
 42 66  1  0  0  0
 42110  1  0  0  0
 42111  1  0  0  0
 43 44  1  0  0  0
 44112  1  0  0  0
 45 46  2  0  0  0
 45113  1  0  0  0
 46114  1  0  0  0
 47115  1  0  0  0
 47116  1  0  0  0
 48 56  1  0  0  0
 48 65  1  0  0  0
 48117  1  0  0  0
 49 50  1  0  0  0
 49 53  1  0  0  0
 49 64  1  0  0  0
 49118  1  0  0  0
 50 51  1  0  0  0
 50119  1  0  0  0
 50120  1  0  0  0
 51 52  1  0  0  0
 51121  1  0  0  0
 51122  1  0  0  0
 52123  1  0  0  0
 52124  1  0  0  0
 53 54  1  0  0  0
 54 55  2  0  0  0
 54125  1  0  0  0
 55 57  1  0  0  0
 55126  1  0  0  0
 56 69  2  0  0  0
 57 58  2  0  0  0
 57127  1  0  0  0
 58128  1  0  0  0
 59 60  1  0  0  0
 59 61  1  0  0  0
 59 62  1  0  0  0
 60129  1  0  0  0
 60130  1  0  0  0
 60131  1  0  0  0
 61132  1  0  0  0
 61133  1  0  0  0
 61134  1  0  0  0
 62135  1  0  0  0
 62136  1  0  0  0
 62137  1  0  0  0
 63 65  1  0  0  0
 63138  1  0  0  0
 63139  1  0  0  0
 63140  1  0  0  0
 64141  1  0  0  0
 65142  1  0  0  0
 68 79  1  0  0  0
 71 72  2  0  0  0
 71 73  1  0  0  0
 71143  1  0  0  0
 72 74  1  0  0  0
 72 77  1  0  0  0
 73 75  1  0  0  0
 73 81  2  0  0  0
 74 80  1  0  0  0
 74 82  2  0  0  0
 75144  1  0  0  0
 75145  1  0  0  0
 75146  1  0  0  0
 76147  1  0  0  0
 76148  1  0  0  0
 76149  1  0  0  0
 76 80  1  0  0  0
 77 78  1  0  0  0
 77150  1  0  0  0
 77151  1  0  0  0
 78 79  1  0  0  0
 78152  1  0  0  0
 78153  1  0  0  0
 79154  1  0  0  0
 79155  1  0  0  0
 80 83  1  0  0  0
 80156  1  0  0  0
 81 82  1  0  0  0
 83157  1  0  0  0
M  ISO  4   1 100  68 101  79 101  83 100
M  END
> <chiral flag>
0

> <version>
0

> <s_m_source_file>
/data/baiqing/PycharmProjects/Reinvent-master-3.2/result/LINK_invent/BTK/process_docking_weight1_custom_sum_contain_oxygen_bond_distance_aromatic_linkinvent_7_9_3/rearranged_h_0079.sdf

> <i_m_source_file_index>
79

> <r_mmod_Potential_Energy-OPLS-2005>
601.473693847656

> <r_mmod_Stretch_Energy-OPLS-2005>
315.624969482422

> <r_mmod_Bend_Energy-OPLS-2005>
351.726806640625

> <r_mmod_Torsional_Energy-OPLS-2005>
211.55615234375

> <r_mmod_Improper_Torsional_Energy-OPLS-2005>
4.39474201202393

> <r_mmod_Van_der_Waal_Energy-OPLS-2005>
132.681182861328

> <r_mmod_Electrostatic_Energy-OPLS-2005>
-382.54541015625

> <r_mmod_Solvation_Energy-OPLS-2005>
-248.735733032227

> <b_mmod_Minimization_Converged-OPLS-2005>
0

> <r_mmod_RMS_Derivative-OPLS-2005>
1.81314718723297

$$$$
79
                    3D
 Structure written by MMmdl.
171179  0  0  1  0            999 V2000
  -30.6728  -14.3753   20.7521 C   0  0  0  0  0  0
  -30.4515  -12.3243   19.3747 C   0  0  0  0  0  0
  -29.4928  -12.5330   18.1819 C   0  0  0  0  0  0
  -28.0109  -12.3798   18.5967 C   0  0  0  0  0  0
  -27.6767  -13.1669   19.8884 C   0  0  2  0  0  0
  -28.7148  -12.7834   20.9699 C   0  0  0  0  0  0
  -25.2642  -13.8052   20.5487 C   0  0  0  0  0  0
  -24.1882  -13.0423   20.9162 C   0  0  0  0  0  0
  -24.6383  -11.6887   20.8735 C   0  0  0  0  0  0
  -23.9010  -10.4276   21.0390 C   0  0  0  0  0  0
  -24.3555   -9.4167   21.9168 C   0  0  0  0  0  0
  -23.6255   -8.2183   22.0699 C   0  0  0  0  0  0
  -22.4270   -8.0213   21.3465 C   0  0  0  0  0  0
  -21.9882   -9.0197   20.4603 C   0  0  0  0  0  0
  -22.7167  -10.2101   20.3049 C   0  0  0  0  0  0
  -21.6849   -6.0702   22.5282 C   0  0  0  0  0  0
  -21.3990   -6.5620   23.8213 C   0  0  0  0  0  0
  -21.3657   -5.6782   24.9193 C   0  0  0  0  0  0
  -21.6053   -4.3040   24.7244 C   0  0  0  0  0  0
  -21.8822   -3.8131   23.4362 C   0  0  0  0  0  0
  -21.9197   -4.6938   22.3424 C   0  0  0  0  0  0
  -22.7922  -13.5241   21.1842 C   0  0  0  0  0  0
  -22.1690   -4.2123   21.0993 F   0  0  0  0  0  0
  -21.5636   -3.4539   25.7760 F   0  0  0  0  0  0
  -30.0285  -13.2103   20.4733 N   0  0  0  0  0  0
  -26.3085  -12.9174   20.3385 N   0  0  0  0  0  0
  -25.9279  -11.6382   20.5725 N   0  0  0  0  0  0
  -22.0598  -12.8220   22.0423 N   0  0  0  0  0  0
  -25.4383  -15.1687   20.3438 N   0  0  0  0  0  0
  -31.7414  -14.6841   20.2115 O   0  0  0  0  0  0
  -21.6621   -6.8817   21.4225 O   0  0  0  0  0  0
  -22.3562  -14.5541   20.6680 O   0  0  0  0  0  0
  -24.6099  -31.8687   23.2199 C   0  0  0  0  0  0
  -25.8992  -32.4866   23.8447 C   0  0  1  0  0  0
  -27.2400  -27.4947   20.0745 C   0  0  0  0  0  0
  -25.5860  -33.8658   24.2404 N   0  0  0  0  0  0
  -23.3980  -30.4953   21.5560 C   0  0  2  0  0  0
  -24.8419  -28.9708   20.1156 C   0  0  0  0  0  0
  -22.7379  -29.4651   22.5017 C   0  0  0  0  0  0
  -18.0228  -28.1357   22.8493 C   0  0  0  0  0  0
  -24.1476  -36.7348   23.2640 C   0  0  0  0  0  0
  -25.9176  -30.8593   21.3567 C   0  0  0  0  0  0
  -25.9971  -29.4929   20.7107 C   0  0  0  0  0  0
  -27.1992  -28.7592   20.6944 C   0  0  0  0  0  0
  -26.0757  -26.9778   19.4690 C   0  0  0  0  0  0
  -24.8711  -27.7079   19.4943 C   0  0  0  0  0  0
  -23.6048  -29.8334   20.1656 C   0  0  0  0  0  0
  -25.4090  -36.3159   24.0369 C   0  0  1  0  0  0
  -20.5810  -28.3642   23.1335 C   0  0  2  0  0  0
  -20.6725  -26.9398   22.5424 C   0  0  0  0  0  0
  -19.5729  -26.6330   21.5220 C   0  0  0  0  0  0
  -18.1903  -26.7884   22.1635 C   0  0  0  0  0  0
  -19.1477  -28.8824   23.2914 C   0  0  0  0  0  0
  -18.9422  -30.1413   23.8918 C   0  0  0  0  0  0
  -17.6427  -30.6586   24.0539 C   0  0  0  0  0  0
  -25.9009  -34.9505   23.5168 C   0  0  0  0  0  0
  -16.5327  -29.9081   23.6355 C   0  0  0  0  0  0
  -16.7225  -28.6498   23.0353 C   0  0  0  0  0  0
  -26.4451  -31.6619   25.0732 C   0  0  0  0  0  0
  -25.3767  -31.3630   26.1505 C   0  0  0  0  0  0
  -27.0272  -30.3105   24.5999 C   0  0  0  0  0  0
  -27.6064  -32.4267   25.7466 C   0  0  0  0  0  0
  -27.5577  -37.1845   24.8476 C   0  0  0  0  0  0
  -21.4076  -29.3055   22.3779 N   0  0  0  0  0  0
  -26.4303  -37.3820   23.9402 N   0  0  0  0  0  0
  -24.6619  -31.0853   22.1060 N   0  0  0  0  0  0
  -23.4159  -28.8174   23.3021 O   0  0  0  0  0  0
  -28.4082  -26.7803   20.0082 O   0  0  0  0  0  0
  -26.5579  -34.8919   22.4750 O   0  0  0  0  0  0
  -23.5308  -32.1330   23.7675 O   0  0  0  0  0  0
  -27.6371  -20.1066   24.6831 C   0  0  0  0  0  0
  -27.0843  -21.7241   23.3882 C   0  0  0  0  0  0
  -26.4868  -20.5849   22.8943 C   0  0  0  0  0  0
  -25.5810  -20.4033   21.7132 C   0  0  0  0  0  0
  -28.7493  -16.2624   24.2260 C   0  0  0  0  0  0
  -29.6225  -18.0008   22.6274 C   0  0  0  0  0  0
  -26.9225  -23.1300   22.8994 C   0  0  0  0  0  0
  -28.1839  -23.7556   22.2845 C   0  0  0  0  0  0
  -27.7934  -24.8199   21.2493 C   0  0  0  0  0  0
  -27.1324  -17.3494   22.5864 C   0  0  0  0  0  0
  -26.4306  -18.1650   23.6916 C   0  0  0  0  0  0
  -28.8532  -15.7855   21.7263 C   0  0  0  0  0  0
  -28.7206  -26.0376   21.1797 C   0  0  0  0  0  0
  -28.5994  -16.8638   22.8106 C   0  0  0  0  0  0
  -27.8207  -21.4150   24.5313 N   0  0  0  0  0  0
  -26.8481  -19.5527   23.7545 N   0  0  0  0  0  0
  -30.1699  -15.1209   21.7631 N   0  0  0  0  0  0
  -31.4795  -12.5153   19.0611 H   0  0  0  0  0  0
  -30.4404  -11.2803   19.7032 H   0  0  0  0  0  0
  -29.7318  -11.8280   17.3843 H   0  0  0  0  0  0
  -29.6445  -13.5263   17.7657 H   0  0  0  0  0  0
  -27.8153  -11.3191   18.7590 H   0  0  0  0  0  0
  -27.3532  -12.6894   17.7857 H   0  0  0  0  0  0
  -27.7693  -14.2282   19.6562 H   0  0  0  0  0  0
  -28.7163  -11.7002   21.0812 H   0  0  0  0  0  0
  -28.4770  -13.1076   21.9792 H   0  0  0  0  0  0
  -25.2689   -9.5676   22.4731 H   0  0  0  0  0  0
  -23.9978   -7.4592   22.7443 H   0  0  0  0  0  0
  -21.0791   -8.8700   19.8935 H   0  0  0  0  0  0
  -22.3581  -10.9623   19.6148 H   0  0  0  0  0  0
  -21.1953   -7.6129   23.9720 H   0  0  0  0  0  0
  -21.1488   -6.0500   25.9086 H   0  0  0  0  0  0
  -22.0603   -2.7596   23.2885 H   0  0  0  0  0  0
  -22.4236  -11.9802   22.4665 H   0  0  0  0  0  0
  -21.1222  -13.1182   22.2683 H   0  0  0  0  0  0
  -24.6608  -15.8186   20.3563 H   0  0  0  0  0  0
  -26.2712  -15.5618   19.9231 H   0  0  0  0  0  0
  -26.7054  -32.5602   23.1217 H   0  0  0  0  0  0
  -25.0044  -33.9801   25.0570 H   0  0  0  0  0  0
  -22.6878  -31.3141   21.4276 H   0  0  0  0  0  0
  -23.3722  -35.9694   23.3336 H   0  0  0  0  0  0
  -24.3551  -36.8910   22.2040 H   0  0  0  0  0  0
  -23.7230  -37.6576   23.6609 H   0  0  0  0  0  0
  -26.0000  -31.6225   20.5806 H   0  0  0  0  0  0
  -26.8150  -30.9285   21.9598 H   0  0  0  0  0  0
  -28.0970  -29.1719   21.1352 H   0  0  0  0  0  0
  -26.1026  -26.0146   18.9797 H   0  0  0  0  0  0
  -23.9805  -27.3091   19.0262 H   0  0  0  0  0  0
  -23.7097  -30.6125   19.4081 H   0  0  0  0  0  0
  -22.7293  -29.2529   19.8729 H   0  0  0  0  0  0
  -25.1254  -36.2062   25.0865 H   0  0  0  0  0  0
  -20.9886  -28.3194   24.1461 H   0  0  0  0  0  0
  -20.5599  -26.2270   23.3607 H   0  0  0  0  0  0
  -21.6607  -26.7444   22.1261 H   0  0  0  0  0  0
  -19.6856  -25.6209   21.1338 H   0  0  0  0  0  0
  -19.6669  -27.3102   20.6708 H   0  0  0  0  0  0
  -17.4156  -26.6568   21.4061 H   0  0  0  0  0  0
  -18.0356  -26.0026   22.9051 H   0  0  0  0  0  0
  -19.7893  -30.7205   24.2322 H   0  0  0  0  0  0
  -17.4995  -31.6296   24.5077 H   0  0  0  0  0  0
  -15.5326  -30.3002   23.7683 H   0  0  0  0  0  0
  -15.8591  -28.0858   22.7062 H   0  0  0  0  0  0
  -24.5961  -30.6968   25.7832 H   0  0  0  0  0  0
  -24.8937  -32.2738   26.5037 H   0  0  0  0  0  0
  -25.8156  -30.8737   27.0206 H   0  0  0  0  0  0
  -26.2786  -29.6875   24.1112 H   0  0  0  0  0  0
  -27.4178  -29.7301   25.4363 H   0  0  0  0  0  0
  -27.8534  -30.4473   23.9021 H   0  0  0  0  0  0
  -27.2758  -33.3541   26.2114 H   0  0  0  0  0  0
  -28.3837  -32.6835   25.0275 H   0  0  0  0  0  0
  -28.0767  -31.8332   26.5299 H   0  0  0  0  0  0
  -28.2661  -38.0088   24.7482 H   0  0  0  0  0  0
  -28.1008  -36.2621   24.6365 H   0  0  0  0  0  0
  -27.2282  -37.1589   25.8880 H   0  0  0  0  0  0
  -20.9214  -29.8851   21.7076 H   0  0  0  0  0  0
  -26.0213  -38.2909   24.1380 H   0  0  0  0  0  0
  -28.0722  -19.5329   25.4890 H   0  0  0  0  0  0
  -26.1575  -20.2630   20.7987 H   0  0  0  0  0  0
  -24.9295  -21.2679   21.5777 H   0  0  0  0  0  0
  -24.9301  -19.5376   21.8162 H   0  0  0  0  0  0
  -27.9085  -15.6140   24.4910 H   0  0  0  0  0  0
  -28.8027  -17.0527   24.9746 H   0  0  0  0  0  0
  -29.6647  -15.6769   24.3253 H   0  0  0  0  0  0
  -29.3394  -18.8998   23.1635 H   0  0  0  0  0  0
  -29.7273  -18.2806   21.5785 H   0  0  0  0  0  0
  -30.6125  -17.7287   23.0011 H   0  0  0  0  0  0
  -26.5840  -23.7622   23.7193 H   0  0  0  0  0  0
  -26.1216  -23.1586   22.1584 H   0  0  0  0  0  0
  -28.7944  -23.0000   21.7833 H   0  0  0  0  0  0
  -28.8069  -24.1727   23.0776 H   0  0  0  0  0  0
  -26.7913  -25.1894   21.4657 H   0  0  0  0  0  0
  -27.7439  -24.3551   20.2641 H   0  0  0  0  0  0
  -27.0530  -17.8780   21.6313 H   0  0  0  0  0  0
  -26.4963  -16.4718   22.4642 H   0  0  0  0  0  0
  -26.5315  -17.7094   24.6773 H   0  0  0  0  0  0
  -25.3606  -18.1553   23.4981 H   0  0  0  0  0  0
  -28.0499  -15.0689   21.8339 H   0  0  0  0  0  0
  -28.7202  -16.2296   20.7375 H   0  0  0  0  0  0
  -29.7579  -25.7182   21.1103 H   0  0  0  0  0  0
  -28.6283  -26.6530   22.0787 H   0  0  0  0  0  0
  -30.8722  -15.6919   22.2063 H   0  0  0  0  0  0
  1 25  1  0  0  0
  1 30  2  0  0  0
  1 87  1  0  0  0
  2  3  1  0  0  0
  2 25  1  0  0  0
  2 88  1  0  0  0
  2 89  1  0  0  0
  3  4  1  0  0  0
  3 90  1  0  0  0
  3 91  1  0  0  0
  4  5  1  0  0  0
  4 92  1  0  0  0
  4 93  1  0  0  0
  5  6  1  0  0  0
  5 26  1  0  0  0
  5 94  1  0  0  0
  6 25  1  0  0  0
  6 95  1  0  0  0
  6 96  1  0  0  0
  7  8  2  0  0  0
  7 26  1  0  0  0
  7 29  1  0  0  0
  8  9  1  0  0  0
  8 22  1  0  0  0
  9 10  1  0  0  0
  9 27  2  0  0  0
 10 11  2  0  0  0
 10 15  1  0  0  0
 11 12  1  0  0  0
 11 97  1  0  0  0
 12 13  2  0  0  0
 12 98  1  0  0  0
 13 14  1  0  0  0
 13 31  1  0  0  0
 14 15  2  0  0  0
 14 99  1  0  0  0
 15100  1  0  0  0
 16 17  2  0  0  0
 16 21  1  0  0  0
 16 31  1  0  0  0
 17 18  1  0  0  0
 17101  1  0  0  0
 18 19  2  0  0  0
 18102  1  0  0  0
 19 20  1  0  0  0
 19 24  1  0  0  0
 20 21  2  0  0  0
 20103  1  0  0  0
 21 23  1  0  0  0
 22 28  1  0  0  0
 22 32  2  0  0  0
 26 27  1  0  0  0
 28104  1  0  0  0
 28105  1  0  0  0
 29106  1  0  0  0
 29107  1  0  0  0
 33 34  1  0  0  0
 33 66  1  0  0  0
 33 70  2  0  0  0
 34 36  1  0  0  0
 34 59  1  0  0  0
 34108  1  0  0  0
 35 44  2  0  0  0
 35 45  1  0  0  0
 35 68  1  0  0  0
 36 56  1  0  0  0
 36109  1  0  0  0
 37 39  1  0  0  0
 37 47  1  0  0  0
 37 66  1  0  0  0
 37110  1  0  0  0
 38 43  2  0  0  0
 38 46  1  0  0  0
 38 47  1  0  0  0
 39 64  1  0  0  0
 39 67  2  0  0  0
 40 52  1  0  0  0
 40 53  2  0  0  0
 40 58  1  0  0  0
 41111  1  0  0  0
 41112  1  0  0  0
 41113  1  0  0  0
 41 48  1  0  0  0
 42 43  1  0  0  0
 42 66  1  0  0  0
 42114  1  0  0  0
 42115  1  0  0  0
 43 44  1  0  0  0
 44116  1  0  0  0
 45 46  2  0  0  0
 45117  1  0  0  0
 46118  1  0  0  0
 47119  1  0  0  0
 47120  1  0  0  0
 48 56  1  0  0  0
 48 65  1  0  0  0
 48121  1  0  0  0
 49 50  1  0  0  0
 49 53  1  0  0  0
 49 64  1  0  0  0
 49122  1  0  0  0
 50 51  1  0  0  0
 50123  1  0  0  0
 50124  1  0  0  0
 51 52  1  0  0  0
 51125  1  0  0  0
 51126  1  0  0  0
 52127  1  0  0  0
 52128  1  0  0  0
 53 54  1  0  0  0
 54 55  2  0  0  0
 54129  1  0  0  0
 55 57  1  0  0  0
 55130  1  0  0  0
 56 69  2  0  0  0
 57 58  2  0  0  0
 57131  1  0  0  0
 58132  1  0  0  0
 59 60  1  0  0  0
 59 61  1  0  0  0
 59 62  1  0  0  0
 60133  1  0  0  0
 60134  1  0  0  0
 60135  1  0  0  0
 61136  1  0  0  0
 61137  1  0  0  0
 61138  1  0  0  0
 62139  1  0  0  0
 62140  1  0  0  0
 62141  1  0  0  0
 63 65  1  0  0  0
 63142  1  0  0  0
 63143  1  0  0  0
 63144  1  0  0  0
 64145  1  0  0  0
 65146  1  0  0  0
 68 83  1  0  0  0
 71 85  2  0  0  0
 71 86  1  0  0  0
 71147  1  0  0  0
 72 73  2  0  0  0
 72 77  1  0  0  0
 72 85  1  0  0  0
 73 74  1  0  0  0
 73 86  1  0  0  0
 74148  1  0  0  0
 74149  1  0  0  0
 74150  1  0  0  0
 75151  1  0  0  0
 75152  1  0  0  0
 75153  1  0  0  0
 75 84  1  0  0  0
 76 84  1  0  0  0
 76154  1  0  0  0
 76155  1  0  0  0
 76156  1  0  0  0
 77 78  1  0  0  0
 77157  1  0  0  0
 77158  1  0  0  0
 78 79  1  0  0  0
 78159  1  0  0  0
 78160  1  0  0  0
 79 83  1  0  0  0
 79161  1  0  0  0
 79162  1  0  0  0
 80 81  1  0  0  0
 80 84  1  0  0  0
 80163  1  0  0  0
 80164  1  0  0  0
 81 86  1  0  0  0
 81165  1  0  0  0
 81166  1  0  0  0
 82 84  1  0  0  0
 82 87  1  0  0  0
 82167  1  0  0  0
 82168  1  0  0  0
 83169  1  0  0  0
 83170  1  0  0  0
 87171  1  0  0  0
M  ISO  4   1 100  68 101  83 101  87 100
M  END
> <chiral flag>
0

> <version>
0

> <s_m_source_file>
/data/baiqing/PycharmProjects/Reinvent-master-3.2/result/LINK_invent/BTK/process_docking_weight1_custom_sum_contain_oxygen_bond_distance_aromatic_linkinvent_7_9_3/rearranged_h_0079.sdf

> <i_m_source_file_index>
80

> <r_mmod_Potential_Energy-OPLS-2005>
-23.9759292602539

> <r_mmod_Stretch_Energy-OPLS-2005>
33.6487731933594

> <r_mmod_Bend_Energy-OPLS-2005>
122.880851745605

> <r_mmod_Torsional_Energy-OPLS-2005>
308.863830566406

> <r_mmod_Improper_Torsional_Energy-OPLS-2005>
7.47905588150024

> <r_mmod_Van_der_Waal_Energy-OPLS-2005>
135.475616455078

> <r_mmod_Electrostatic_Energy-OPLS-2005>
-438.902954101562

> <r_mmod_Solvation_Energy-OPLS-2005>
-208.295333862305

> <b_mmod_Minimization_Converged-OPLS-2005>
0

> <r_mmod_RMS_Derivative-OPLS-2005>
7.19078588485718

$$$$
80
                    3D
 Structure written by MMmdl.
164172  0  0  1  0            999 V2000
  -30.6795  -14.6220   20.4401 C   0  0  0  0  0  0
  -30.4138  -12.3709   19.4663 C   0  0  0  0  0  0
  -29.5011  -12.4793   18.2275 C   0  0  0  0  0  0
  -28.0241  -12.3335   18.6397 C   0  0  0  0  0  0
  -27.6437  -13.2265   19.8522 C   0  0  2  0  0  0
  -28.6893  -13.1453   20.9866 C   0  0  0  0  0  0
  -25.2519  -13.8201   20.5698 C   0  0  0  0  0  0
  -24.1803  -13.0448   20.9196 C   0  0  0  0  0  0
  -24.6389  -11.6923   20.8753 C   0  0  0  0  0  0
  -23.9065  -10.4293   21.0408 C   0  0  0  0  0  0
  -24.3616   -9.4204   21.9186 C   0  0  0  0  0  0
  -23.6288   -8.2245   22.0756 C   0  0  0  0  0  0
  -22.4273   -8.0283   21.3542 C   0  0  0  0  0  0
  -21.9906   -9.0257   20.4643 C   0  0  0  0  0  0
  -22.7237  -10.2135   20.3052 C   0  0  0  0  0  0
  -21.6856   -6.0734   22.5275 C   0  0  0  0  0  0
  -21.4016   -6.5639   23.8208 C   0  0  0  0  0  0
  -21.3659   -5.6788   24.9173 C   0  0  0  0  0  0
  -21.6045   -4.3049   24.7221 C   0  0  0  0  0  0
  -21.8822   -3.8143   23.4342 C   0  0  0  0  0  0
  -21.9189   -4.6959   22.3399 C   0  0  0  0  0  0
  -22.7823  -13.5225   21.1853 C   0  0  0  0  0  0
  -22.1662   -4.2142   21.0974 F   0  0  0  0  0  0
  -21.5626   -3.4536   25.7737 F   0  0  0  0  0  0
  -30.0028  -13.4350   20.4024 N   0  0  0  0  0  0
  -26.2951  -12.9400   20.3309 N   0  0  0  0  0  0
  -25.9320  -11.6544   20.5771 N   0  0  0  0  0  0
  -22.0472  -12.8217   22.0415 N   0  0  0  0  0  0
  -25.4212  -15.1928   20.4124 N   0  0  0  0  0  0
  -31.8802  -14.6668   20.1669 O   0  0  0  0  0  0
  -21.6639   -6.8877   21.4236 O   0  0  0  0  0  0
  -22.3496  -14.5531   20.6701 O   0  0  0  0  0  0
  -24.6237  -31.8613   23.2059 C   0  0  0  0  0  0
  -25.9107  -32.4786   23.8361 C   0  0  1  0  0  0
  -27.2133  -27.3383   20.1209 C   0  0  0  0  0  0
  -25.5916  -33.8581   24.2278 N   0  0  0  0  0  0
  -23.4162  -30.4865   21.5475 C   0  0  2  0  0  0
  -24.8630  -28.9491   20.1073 C   0  0  0  0  0  0
  -22.7466  -29.4623   22.4938 C   0  0  0  0  0  0
  -18.0288  -28.1356   22.8485 C   0  0  0  0  0  0
  -24.1497  -36.7310   23.2637 C   0  0  0  0  0  0
  -25.9548  -30.7978   21.3762 C   0  0  0  0  0  0
  -26.0305  -29.4280   20.7165 C   0  0  0  0  0  0
  -27.2141  -28.6341   20.7156 C   0  0  0  0  0  0
  -26.0360  -26.9178   19.4654 C   0  0  0  0  0  0
  -24.8668  -27.6984   19.4704 C   0  0  0  0  0  0
  -23.6301  -29.8261   20.1604 C   0  0  0  0  0  0
  -25.4117  -36.3088   24.0323 C   0  0  1  0  0  0
  -20.5882  -28.3671   23.1270 C   0  0  2  0  0  0
  -20.6777  -26.9395   22.5400 C   0  0  0  0  0  0
  -19.5759  -26.6359   21.5196 C   0  0  0  0  0  0
  -18.1936  -26.7900   22.1608 C   0  0  0  0  0  0
  -19.1537  -28.8826   23.2882 C   0  0  0  0  0  0
  -18.9462  -30.1424   23.8902 C   0  0  0  0  0  0
  -17.6467  -30.6574   24.0543 C   0  0  0  0  0  0
  -25.9043  -34.9451   23.5103 C   0  0  0  0  0  0
  -16.5357  -29.9064   23.6321 C   0  0  0  0  0  0
  -16.7275  -28.6473   23.0355 C   0  0  0  0  0  0
  -26.4496  -31.6586   25.0725 C   0  0  0  0  0  0
  -25.3736  -31.3708   26.1455 C   0  0  0  0  0  0
  -27.0347  -30.3007   24.6178 C   0  0  0  0  0  0
  -27.6051  -32.4319   25.7502 C   0  0  0  0  0  0
  -27.5589  -37.1810   24.8459 C   0  0  0  0  0  0
  -21.4178  -29.3042   22.3681 N   0  0  0  0  0  0
  -26.4299  -37.3775   23.9400 N   0  0  0  0  0  0
  -24.6836  -31.0635   22.1005 N   0  0  0  0  0  0
  -23.4199  -28.8165   23.3013 O   0  0  0  0  0  0
  -28.3004  -26.4621   20.1725 O   0  0  0  0  0  0
  -26.5613  -34.8911   22.4670 O   0  0  0  0  0  0
  -23.5407  -32.1406   23.7405 O   0  0  0  0  0  0
  -30.1382  -20.9084   20.1721 C   0  0  0  0  0  0
  -30.6787  -19.6105   20.0076 C   0  0  0  0  0  0
  -28.7988  -21.0646   20.5891 C   0  0  0  0  0  0
  -29.8949  -18.4557   20.2406 C   0  0  0  0  0  0
  -28.0892  -19.8427   20.8325 C   0  0  0  0  0  0
  -26.6230  -19.4792   22.8656 C   0  0  0  0  0  0
  -29.0266  -16.6414   17.6957 C   0  0  0  0  0  0
  -28.1515  -22.4803   20.8174 C   0  0  0  0  0  0
  -26.6631  -19.8184   21.3703 C   0  0  0  0  0  0
  -30.4175  -16.9226   18.2875 C   0  0  0  0  0  0
  -28.8013  -23.8330   20.2921 C   0  0  0  0  0  0
  -28.0016  -25.1291   20.7388 C   0  0  0  0  0  0
  -30.4607  -17.0546   19.8338 C   0  0  2  0  0  0
  -28.6121  -18.5919   20.6459 N   0  0  0  0  0  0
  -29.9569  -15.7828   20.4584 N   0  0  0  0  0  0
  -31.4611  -12.4503   19.1690 H   0  0  0  0  0  0
  -30.3128  -11.3929   19.9388 H   0  0  0  0  0  0
  -29.7623  -11.7097   17.4996 H   0  0  0  0  0  0
  -29.6574  -13.4375   17.7298 H   0  0  0  0  0  0
  -27.8593  -11.2851   18.8905 H   0  0  0  0  0  0
  -27.3710  -12.5483   17.7929 H   0  0  0  0  0  0
  -27.6407  -14.2507   19.4844 H   0  0  0  0  0  0
  -28.6916  -12.1569   21.4469 H   0  0  0  0  0  0
  -28.4517  -13.8550   21.7806 H   0  0  0  0  0  0
  -25.2766   -9.5679   22.4760 H   0  0  0  0  0  0
  -23.9992   -7.4634   22.7484 H   0  0  0  0  0  0
  -21.0835   -8.8776   19.8951 H   0  0  0  0  0  0
  -22.3700  -10.9673   19.6157 H   0  0  0  0  0  0
  -21.2019   -7.6147   23.9708 H   0  0  0  0  0  0
  -21.1479   -6.0523   25.9073 H   0  0  0  0  0  0
  -22.0604   -2.7605   23.2845 H   0  0  0  0  0  0
  -22.4096  -11.9871   22.4788 H   0  0  0  0  0  0
  -21.1096  -13.1237   22.2641 H   0  0  0  0  0  0
  -24.6549  -15.8463   20.5295 H   0  0  0  0  0  0
  -26.2767  -15.6388   20.1067 H   0  0  0  0  0  0
  -26.7181  -32.5468   23.1117 H   0  0  0  0  0  0
  -25.0068  -33.9720   25.0428 H   0  0  0  0  0  0
  -22.7087  -31.3066   21.4093 H   0  0  0  0  0  0
  -23.3744  -35.9657   23.3294 H   0  0  0  0  0  0
  -24.3588  -36.8933   22.2054 H   0  0  0  0  0  0
  -23.7261  -37.6511   23.6663 H   0  0  0  0  0  0
  -26.0844  -31.5660   20.6124 H   0  0  0  0  0  0
  -26.8337  -30.8421   22.0073 H   0  0  0  0  0  0
  -28.1083  -28.9930   21.2057 H   0  0  0  0  0  0
  -26.0055  -25.9611   18.9617 H   0  0  0  0  0  0
  -23.9758  -27.3297   18.9817 H   0  0  0  0  0  0
  -23.7495  -30.6046   19.4057 H   0  0  0  0  0  0
  -22.7506  -29.2539   19.8597 H   0  0  0  0  0  0
  -25.1298  -36.1949   25.0814 H   0  0  0  0  0  0
  -20.9974  -28.3247   24.1391 H   0  0  0  0  0  0
  -20.5660  -26.2282   23.3602 H   0  0  0  0  0  0
  -21.6651  -26.7423   22.1203 H   0  0  0  0  0  0
  -19.6913  -25.6269   21.1229 H   0  0  0  0  0  0
  -19.6684  -27.3168   20.6725 H   0  0  0  0  0  0
  -17.4205  -26.6647   21.4017 H   0  0  0  0  0  0
  -18.0349  -26.0026   22.8992 H   0  0  0  0  0  0
  -19.7947  -30.7230   24.2274 H   0  0  0  0  0  0
  -17.5030  -31.6258   24.5146 H   0  0  0  0  0  0
  -15.5357  -30.2968   23.7638 H   0  0  0  0  0  0
  -15.8676  -28.0786   22.7069 H   0  0  0  0  0  0
  -24.5918  -30.7050   25.7783 H   0  0  0  0  0  0
  -24.8932  -32.2877   26.4887 H   0  0  0  0  0  0
  -25.8078  -30.8886   27.0225 H   0  0  0  0  0  0
  -26.2926  -29.6744   24.1220 H   0  0  0  0  0  0
  -27.4057  -29.7279   25.4684 H   0  0  0  0  0  0
  -27.8787  -30.4280   23.9394 H   0  0  0  0  0  0
  -27.2646  -33.3614   26.2085 H   0  0  0  0  0  0
  -28.3871  -32.6885   25.0344 H   0  0  0  0  0  0
  -28.0708  -31.8441   26.5421 H   0  0  0  0  0  0
  -28.2590  -38.0122   24.7511 H   0  0  0  0  0  0
  -28.1096  -36.2646   24.6281 H   0  0  0  0  0  0
  -27.2298  -37.1458   25.8857 H   0  0  0  0  0  0
  -20.9339  -29.8794   21.6927 H   0  0  0  0  0  0
  -26.0181  -38.2849   24.1397 H   0  0  0  0  0  0
  -30.7534  -21.7735   19.9707 H   0  0  0  0  0  0
  -31.6946  -19.5064   19.6511 H   0  0  0  0  0  0
  -25.5983  -19.4718   23.2354 H   0  0  0  0  0  0
  -27.1868  -20.2098   23.4459 H   0  0  0  0  0  0
  -27.0535  -18.4951   23.0552 H   0  0  0  0  0  0
  -29.0626  -16.6609   16.6064 H   0  0  0  0  0  0
  -28.2965  -17.3862   18.0132 H   0  0  0  0  0  0
  -28.6550  -15.6613   17.9883 H   0  0  0  0  0  0
  -27.9922  -22.5752   21.8918 H   0  0  0  0  0  0
  -27.1570  -22.4497   20.3741 H   0  0  0  0  0  0
  -26.0903  -19.0742   20.8144 H   0  0  0  0  0  0
  -26.1436  -20.7593   21.2021 H   0  0  0  0  0  0
  -30.8216  -17.8295   17.8364 H   0  0  0  0  0  0
  -31.0916  -16.1278   17.9678 H   0  0  0  0  0  0
  -28.8503  -23.8036   19.2029 H   0  0  0  0  0  0
  -29.8291  -23.9172   20.6445 H   0  0  0  0  0  0
  -28.1259  -25.2311   21.8169 H   0  0  0  0  0  0
  -26.9474  -24.8803   20.6218 H   0  0  0  0  0  0
  -31.5127  -17.1312   20.1163 H   0  0  0  0  0  0
  -28.9708  -15.7467   20.6625 H   0  0  0  0  0  0
  1 25  1  0  0  0
  1 30  2  0  0  0
  1 85  1  0  0  0
  2  3  1  0  0  0
  2 25  1  0  0  0
  2 86  1  0  0  0
  2 87  1  0  0  0
  3  4  1  0  0  0
  3 88  1  0  0  0
  3 89  1  0  0  0
  4  5  1  0  0  0
  4 90  1  0  0  0
  4 91  1  0  0  0
  5  6  1  0  0  0
  5 26  1  0  0  0
  5 92  1  0  0  0
  6 25  1  0  0  0
  6 93  1  0  0  0
  6 94  1  0  0  0
  7  8  2  0  0  0
  7 26  1  0  0  0
  7 29  1  0  0  0
  8  9  1  0  0  0
  8 22  1  0  0  0
  9 10  1  0  0  0
  9 27  2  0  0  0
 10 11  2  0  0  0
 10 15  1  0  0  0
 11 12  1  0  0  0
 11 95  1  0  0  0
 12 13  2  0  0  0
 12 96  1  0  0  0
 13 14  1  0  0  0
 13 31  1  0  0  0
 14 15  2  0  0  0
 14 97  1  0  0  0
 15 98  1  0  0  0
 16 17  2  0  0  0
 16 21  1  0  0  0
 16 31  1  0  0  0
 17 18  1  0  0  0
 17 99  1  0  0  0
 18 19  2  0  0  0
 18100  1  0  0  0
 19 20  1  0  0  0
 19 24  1  0  0  0
 20 21  2  0  0  0
 20101  1  0  0  0
 21 23  1  0  0  0
 22 28  1  0  0  0
 22 32  2  0  0  0
 26 27  1  0  0  0
 28102  1  0  0  0
 28103  1  0  0  0
 29104  1  0  0  0
 29105  1  0  0  0
 33 34  1  0  0  0
 33 66  1  0  0  0
 33 70  2  0  0  0
 34 36  1  0  0  0
 34 59  1  0  0  0
 34106  1  0  0  0
 35 44  2  0  0  0
 35 45  1  0  0  0
 35 68  1  0  0  0
 36 56  1  0  0  0
 36107  1  0  0  0
 37 39  1  0  0  0
 37 47  1  0  0  0
 37 66  1  0  0  0
 37108  1  0  0  0
 38 43  2  0  0  0
 38 46  1  0  0  0
 38 47  1  0  0  0
 39 64  1  0  0  0
 39 67  2  0  0  0
 40 52  1  0  0  0
 40 53  2  0  0  0
 40 58  1  0  0  0
 41109  1  0  0  0
 41110  1  0  0  0
 41111  1  0  0  0
 41 48  1  0  0  0
 42 43  1  0  0  0
 42 66  1  0  0  0
 42112  1  0  0  0
 42113  1  0  0  0
 43 44  1  0  0  0
 44114  1  0  0  0
 45 46  2  0  0  0
 45115  1  0  0  0
 46116  1  0  0  0
 47117  1  0  0  0
 47118  1  0  0  0
 48 56  1  0  0  0
 48 65  1  0  0  0
 48119  1  0  0  0
 49 50  1  0  0  0
 49 53  1  0  0  0
 49 64  1  0  0  0
 49120  1  0  0  0
 50 51  1  0  0  0
 50121  1  0  0  0
 50122  1  0  0  0
 51 52  1  0  0  0
 51123  1  0  0  0
 51124  1  0  0  0
 52125  1  0  0  0
 52126  1  0  0  0
 53 54  1  0  0  0
 54 55  2  0  0  0
 54127  1  0  0  0
 55 57  1  0  0  0
 55128  1  0  0  0
 56 69  2  0  0  0
 57 58  2  0  0  0
 57129  1  0  0  0
 58130  1  0  0  0
 59 60  1  0  0  0
 59 61  1  0  0  0
 59 62  1  0  0  0
 60131  1  0  0  0
 60132  1  0  0  0
 60133  1  0  0  0
 61134  1  0  0  0
 61135  1  0  0  0
 61136  1  0  0  0
 62137  1  0  0  0
 62138  1  0  0  0
 62139  1  0  0  0
 63 65  1  0  0  0
 63140  1  0  0  0
 63141  1  0  0  0
 63142  1  0  0  0
 64143  1  0  0  0
 65144  1  0  0  0
 68 82  1  0  0  0
 71 72  2  0  0  0
 71 73  1  0  0  0
 71145  1  0  0  0
 72 74  1  0  0  0
 72146  1  0  0  0
 73 75  2  0  0  0
 73 78  1  0  0  0
 74 83  1  0  0  0
 74 84  2  0  0  0
 75 79  1  0  0  0
 75 84  1  0  0  0
 76 79  1  0  0  0
 76147  1  0  0  0
 76148  1  0  0  0
 76149  1  0  0  0
 77 80  1  0  0  0
 77150  1  0  0  0
 77151  1  0  0  0
 77152  1  0  0  0
 78 81  1  0  0  0
 78153  1  0  0  0
 78154  1  0  0  0
 79155  1  0  0  0
 79156  1  0  0  0
 80157  1  0  0  0
 80158  1  0  0  0
 80 83  1  0  0  0
 81 82  1  0  0  0
 81159  1  0  0  0
 81160  1  0  0  0
 82161  1  0  0  0
 82162  1  0  0  0
 83 85  1  0  0  0
 83163  1  0  0  0
 85164  1  0  0  0
M  ISO  4   1 100  68 101  82 101  85 100
M  END
> <chiral flag>
0

> <version>
0

> <s_m_source_file>
/data/baiqing/PycharmProjects/Reinvent-master-3.2/result/LINK_invent/BTK/process_docking_weight1_custom_sum_contain_oxygen_bond_distance_aromatic_linkinvent_7_9_3/rearranged_h_0079.sdf

> <i_m_source_file_index>
81

> <r_mmod_Potential_Energy-OPLS-2005>
-201.260726928711

> <r_mmod_Stretch_Energy-OPLS-2005>
70.8674850463867

> <r_mmod_Bend_Energy-OPLS-2005>
138.856048583984

> <r_mmod_Torsional_Energy-OPLS-2005>
224.017639160156

> <r_mmod_Improper_Torsional_Energy-OPLS-2005>
9.67734622955322

> <r_mmod_Van_der_Waal_Energy-OPLS-2005>
143.38069152832

> <r_mmod_Electrostatic_Energy-OPLS-2005>
-638.8603515625

> <r_mmod_Solvation_Energy-OPLS-2005>
-201.135330200195

> <b_mmod_Minimization_Converged-OPLS-2005>
0

> <r_mmod_RMS_Derivative-OPLS-2005>
1.45761966705322

$$$$
81
                    3D
 Structure written by MMmdl.
154162  0  0  1  0            999 V2000
  -30.5444  -14.8806   20.4383 C   0  0  0  0  0  0
  -30.4402  -12.5538   19.4797 C   0  0  0  0  0  0
  -29.5143  -12.5463   18.2414 C   0  0  0  0  0  0
  -28.0383  -12.3553   18.6453 C   0  0  0  0  0  0
  -27.6299  -13.2535   19.8453 C   0  0  2  0  0  0
  -28.6759  -13.2283   20.9794 C   0  0  0  0  0  0
  -25.2434  -13.8237   20.5671 C   0  0  0  0  0  0
  -24.1774  -13.0451   20.9227 C   0  0  0  0  0  0
  -24.6401  -11.6929   20.8766 C   0  0  0  0  0  0
  -23.9092  -10.4291   21.0413 C   0  0  0  0  0  0
  -24.3633   -9.4210   21.9194 C   0  0  0  0  0  0
  -23.6303   -8.2253   22.0754 C   0  0  0  0  0  0
  -22.4278   -8.0308   21.3562 C   0  0  0  0  0  0
  -21.9930   -9.0276   20.4655 C   0  0  0  0  0  0
  -22.7270  -10.2143   20.3059 C   0  0  0  0  0  0
  -21.6852   -6.0745   22.5288 C   0  0  0  0  0  0
  -21.4017   -6.5643   23.8227 C   0  0  0  0  0  0
  -21.3655   -5.6789   24.9193 C   0  0  0  0  0  0
  -21.6038   -4.3052   24.7228 C   0  0  0  0  0  0
  -21.8828   -3.8154   23.4351 C   0  0  0  0  0  0
  -21.9201   -4.6975   22.3414 C   0  0  0  0  0  0
  -22.7788  -13.5207   21.1900 C   0  0  0  0  0  0
  -22.1671   -4.2171   21.0990 F   0  0  0  0  0  0
  -21.5630   -3.4539   25.7739 F   0  0  0  0  0  0
  -29.9623  -13.6236   20.3955 N   0  0  0  0  0  0
  -26.2877  -12.9487   20.3260 N   0  0  0  0  0  0
  -25.9341  -11.6607   20.5765 N   0  0  0  0  0  0
  -22.0413  -12.8191   22.0440 N   0  0  0  0  0  0
  -25.4055  -15.1975   20.4025 N   0  0  0  0  0  0
  -31.7366  -14.9840   20.1324 O   0  0  0  0  0  0
  -21.6649   -6.8902   21.4246 O   0  0  0  0  0  0
  -22.3465  -14.5524   20.6771 O   0  0  0  0  0  0
  -24.6455  -31.8512   23.1947 C   0  0  0  0  0  0
  -25.9245  -32.4723   23.8326 C   0  0  1  0  0  0
  -27.1802  -27.1440   20.1199 C   0  0  0  0  0  0
  -25.6000  -33.8538   24.2256 N   0  0  0  0  0  0
  -23.4427  -30.4781   21.5473 C   0  0  2  0  0  0
  -24.8801  -28.9200   20.1062 C   0  0  0  0  0  0
  -22.7544  -29.4606   22.4898 C   0  0  0  0  0  0
  -18.0308  -28.1426   22.8517 C   0  0  0  0  0  0
  -24.1502  -36.7248   23.2634 C   0  0  0  0  0  0
  -26.0048  -30.7163   21.4028 C   0  0  0  0  0  0
  -26.0635  -29.3378   20.7262 C   0  0  0  0  0  0
  -27.2173  -28.4647   20.7225 C   0  0  0  0  0  0
  -25.9724  -26.8482   19.4426 C   0  0  0  0  0  0
  -24.8455  -27.6883   19.4500 C   0  0  0  0  0  0
  -23.6642  -29.8275   20.1594 C   0  0  0  0  0  0
  -25.4135  -36.3044   24.0315 C   0  0  1  0  0  0
  -20.5913  -28.3756   23.1237 C   0  0  2  0  0  0
  -20.6771  -26.9476   22.5382 C   0  0  0  0  0  0
  -19.5714  -26.6386   21.5242 C   0  0  0  0  0  0
  -18.1963  -26.7910   22.1787 C   0  0  0  0  0  0
  -19.1578  -28.8920   23.2821 C   0  0  0  0  0  0
  -18.9506  -30.1500   23.8876 C   0  0  0  0  0  0
  -17.6505  -30.6615   24.0571 C   0  0  0  0  0  0
  -25.9094  -34.9414   23.5089 C   0  0  0  0  0  0
  -16.5385  -29.9127   23.6356 C   0  0  0  0  0  0
  -16.7293  -28.6526   23.0425 C   0  0  0  0  0  0
  -26.4553  -31.6591   25.0780 C   0  0  0  0  0  0
  -25.3717  -31.3761   26.1455 C   0  0  0  0  0  0
  -27.0449  -30.2987   24.6400 C   0  0  0  0  0  0
  -27.6084  -32.4361   25.7560 C   0  0  0  0  0  0
  -27.5582  -37.1790   24.8482 C   0  0  0  0  0  0
  -21.4244  -29.3103   22.3625 N   0  0  0  0  0  0
  -26.4311  -37.3743   23.9400 N   0  0  0  0  0  0
  -24.7184  -31.0343   22.1017 N   0  0  0  0  0  0
  -23.4198  -28.8130   23.3031 O   0  0  0  0  0  0
  -28.1924  -26.1181   20.2091 O   0  0  0  0  0  0
  -26.5647  -34.8883   22.4652 O   0  0  0  0  0  0
  -23.5587  -32.1432   23.7151 O   0  0  0  0  0  0
  -29.2412  -21.4282   21.4526 C   0  0  0  0  0  0
  -29.0110  -20.3491   20.5206 C   0  0  0  0  0  0
  -28.2354  -22.1169   19.0793 C   0  0  0  0  0  0
  -28.4556  -23.1992   20.0219 C   0  0  0  0  0  0
  -27.5904  -22.3614   17.7225 C   0  0  0  0  0  0
  -28.9749  -18.5630   22.4451 C   0  0  0  0  0  0
  -27.7837  -24.6849   19.7966 C   0  0  0  0  0  0
  -29.9547  -17.5437   20.2839 C   0  0  0  0  0  0
  -28.9872  -18.7441   20.9116 C   0  0  1  0  0  0
  -28.9792  -22.7805   21.2244 N   0  0  0  0  0  0
  -28.5061  -20.7721   19.3170 N   0  0  0  0  0  0
  -29.7325  -16.0189   20.6070 N   0  0  0  0  0  0
  -31.4740  -12.7121   19.1634 H   0  0  0  0  0  0
  -30.4309  -11.5889   19.9861 H   0  0  0  0  0  0
  -29.8147  -11.7672   17.5394 H   0  0  0  0  0  0
  -29.6218  -13.4930   17.7084 H   0  0  0  0  0  0
  -27.8894  -11.3052   18.8940 H   0  0  0  0  0  0
  -27.3880  -12.5612   17.7920 H   0  0  0  0  0  0
  -27.6026  -14.2713   19.4566 H   0  0  0  0  0  0
  -28.7476  -12.2351   21.4253 H   0  0  0  0  0  0
  -28.3901  -13.9076   21.7852 H   0  0  0  0  0  0
  -25.2779   -9.5681   22.4775 H   0  0  0  0  0  0
  -24.0021   -7.4624   22.7441 H   0  0  0  0  0  0
  -21.0889   -8.8810   19.8938 H   0  0  0  0  0  0
  -22.3757  -10.9689   19.6169 H   0  0  0  0  0  0
  -21.2005   -7.6152   23.9751 H   0  0  0  0  0  0
  -21.1459   -6.0511   25.9101 H   0  0  0  0  0  0
  -22.0599   -2.7617   23.2848 H   0  0  0  0  0  0
  -22.4030  -11.9843   22.4831 H   0  0  0  0  0  0
  -21.1013  -13.1205   22.2643 H   0  0  0  0  0  0
  -24.6222  -15.8375   20.4943 H   0  0  0  0  0  0
  -26.2342  -15.6380   20.0249 H   0  0  0  0  0  0
  -26.7327  -32.5300   23.1062 H   0  0  0  0  0  0
  -25.0166  -33.9696   25.0414 H   0  0  0  0  0  0
  -22.7405  -31.3052   21.4069 H   0  0  0  0  0  0
  -23.3786  -35.9567   23.3318 H   0  0  0  0  0  0
  -24.3569  -36.8863   22.2043 H   0  0  0  0  0  0
  -23.7244  -37.6439   23.6668 H   0  0  0  0  0  0
  -26.1847  -31.4812   20.6462 H   0  0  0  0  0  0
  -26.8658  -30.7382   22.0613 H   0  0  0  0  0  0
  -28.1145  -28.7693   21.2413 H   0  0  0  0  0  0
  -25.8233  -25.9234   18.9053 H   0  0  0  0  0  0
  -23.9424  -27.3684   18.9489 H   0  0  0  0  0  0
  -23.8083  -30.6194   19.4244 H   0  0  0  0  0  0
  -22.7735  -29.2902   19.8329 H   0  0  0  0  0  0
  -25.1328  -36.1887   25.0811 H   0  0  0  0  0  0
  -20.9979  -28.3371   24.1371 H   0  0  0  0  0  0
  -21.6623  -26.7483   22.1172 H   0  0  0  0  0  0
  -20.5691  -26.2386   23.3621 H   0  0  0  0  0  0
  -19.6877  -25.6275   21.1346 H   0  0  0  0  0  0
  -19.6561  -27.3133   20.6710 H   0  0  0  0  0  0
  -17.4113  -26.6435   21.4372 H   0  0  0  0  0  0
  -18.0584  -26.0162   22.9342 H   0  0  0  0  0  0
  -19.7992  -30.7326   24.2261 H   0  0  0  0  0  0
  -17.5081  -31.6316   24.5164 H   0  0  0  0  0  0
  -15.5393  -30.3044   23.7713 H   0  0  0  0  0  0
  -15.8673  -28.0806   22.7223 H   0  0  0  0  0  0
  -24.5879  -30.7154   25.7736 H   0  0  0  0  0  0
  -24.8925  -32.2934   26.4884 H   0  0  0  0  0  0
  -25.7960  -30.8894   27.0250 H   0  0  0  0  0  0
  -26.3102  -29.6680   24.1382 H   0  0  0  0  0  0
  -27.4029  -29.7303   25.4996 H   0  0  0  0  0  0
  -27.9020  -30.4236   23.9777 H   0  0  0  0  0  0
  -27.2698  -33.3684   26.2099 H   0  0  0  0  0  0
  -28.3906  -32.6907   25.0393 H   0  0  0  0  0  0
  -28.0769  -31.8531   26.5509 H   0  0  0  0  0  0
  -28.2636  -38.0047   24.7483 H   0  0  0  0  0  0
  -28.1045  -36.2579   24.6402 H   0  0  0  0  0  0
  -27.2274  -37.1527   25.8876 H   0  0  0  0  0  0
  -20.9450  -29.8838   21.6820 H   0  0  0  0  0  0
  -26.0197  -38.2827   24.1365 H   0  0  0  0  0  0
  -29.5676  -21.1933   22.4561 H   0  0  0  0  0  0
  -27.2273  -21.4283   17.2883 H   0  0  0  0  0  0
  -28.3126  -22.7959   17.0312 H   0  0  0  0  0  0
  -26.7298  -23.0265   17.7859 H   0  0  0  0  0  0
  -28.2152  -19.1851   22.9207 H   0  0  0  0  0  0
  -29.9424  -18.8089   22.8855 H   0  0  0  0  0  0
  -28.7448  -17.5322   22.7214 H   0  0  0  0  0  0
  -26.7903  -24.5143   20.2102 H   0  0  0  0  0  0
  -27.6705  -24.7777   18.7201 H   0  0  0  0  0  0
  -29.8851  -17.6263   19.1979 H   0  0  0  0  0  0
  -30.9920  -17.7812   20.5216 H   0  0  0  0  0  0
  -27.9848  -18.4498   20.5979 H   0  0  0  0  0  0
  -28.7827  -15.7769   20.8426 H   0  0  0  0  0  0
  1 25  1  0  0  0
  1 30  2  0  0  0
  1 82  1  0  0  0
  2  3  1  0  0  0
  2 25  1  0  0  0
  2 83  1  0  0  0
  2 84  1  0  0  0
  3  4  1  0  0  0
  3 85  1  0  0  0
  3 86  1  0  0  0
  4  5  1  0  0  0
  4 87  1  0  0  0
  4 88  1  0  0  0
  5  6  1  0  0  0
  5 26  1  0  0  0
  5 89  1  0  0  0
  6 25  1  0  0  0
  6 90  1  0  0  0
  6 91  1  0  0  0
  7  8  2  0  0  0
  7 26  1  0  0  0
  7 29  1  0  0  0
  8  9  1  0  0  0
  8 22  1  0  0  0
  9 10  1  0  0  0
  9 27  2  0  0  0
 10 11  2  0  0  0
 10 15  1  0  0  0
 11 12  1  0  0  0
 11 92  1  0  0  0
 12 13  2  0  0  0
 12 93  1  0  0  0
 13 14  1  0  0  0
 13 31  1  0  0  0
 14 15  2  0  0  0
 14 94  1  0  0  0
 15 95  1  0  0  0
 16 17  2  0  0  0
 16 21  1  0  0  0
 16 31  1  0  0  0
 17 18  1  0  0  0
 17 96  1  0  0  0
 18 19  2  0  0  0
 18 97  1  0  0  0
 19 20  1  0  0  0
 19 24  1  0  0  0
 20 21  2  0  0  0
 20 98  1  0  0  0
 21 23  1  0  0  0
 22 28  1  0  0  0
 22 32  2  0  0  0
 26 27  1  0  0  0
 28 99  1  0  0  0
 28100  1  0  0  0
 29101  1  0  0  0
 29102  1  0  0  0
 33 34  1  0  0  0
 33 66  1  0  0  0
 33 70  2  0  0  0
 34 36  1  0  0  0
 34 59  1  0  0  0
 34103  1  0  0  0
 35 44  2  0  0  0
 35 45  1  0  0  0
 35 68  1  0  0  0
 36 56  1  0  0  0
 36104  1  0  0  0
 37 39  1  0  0  0
 37 47  1  0  0  0
 37 66  1  0  0  0
 37105  1  0  0  0
 38 43  2  0  0  0
 38 46  1  0  0  0
 38 47  1  0  0  0
 39 64  1  0  0  0
 39 67  2  0  0  0
 40 52  1  0  0  0
 40 53  2  0  0  0
 40 58  1  0  0  0
 41106  1  0  0  0
 41107  1  0  0  0
 41108  1  0  0  0
 41 48  1  0  0  0
 42 43  1  0  0  0
 42 66  1  0  0  0
 42109  1  0  0  0
 42110  1  0  0  0
 43 44  1  0  0  0
 44111  1  0  0  0
 45 46  2  0  0  0
 45112  1  0  0  0
 46113  1  0  0  0
 47114  1  0  0  0
 47115  1  0  0  0
 48 56  1  0  0  0
 48 65  1  0  0  0
 48116  1  0  0  0
 49 50  1  0  0  0
 49 53  1  0  0  0
 49 64  1  0  0  0
 49117  1  0  0  0
 50 51  1  0  0  0
 50118  1  0  0  0
 50119  1  0  0  0
 51 52  1  0  0  0
 51120  1  0  0  0
 51121  1  0  0  0
 52122  1  0  0  0
 52123  1  0  0  0
 53 54  1  0  0  0
 54 55  2  0  0  0
 54124  1  0  0  0
 55 57  1  0  0  0
 55125  1  0  0  0
 56 69  2  0  0  0
 57 58  2  0  0  0
 57126  1  0  0  0
 58127  1  0  0  0
 59 60  1  0  0  0
 59 61  1  0  0  0
 59 62  1  0  0  0
 60128  1  0  0  0
 60129  1  0  0  0
 60130  1  0  0  0
 61131  1  0  0  0
 61132  1  0  0  0
 61133  1  0  0  0
 62134  1  0  0  0
 62135  1  0  0  0
 62136  1  0  0  0
 63 65  1  0  0  0
 63137  1  0  0  0
 63138  1  0  0  0
 63139  1  0  0  0
 64140  1  0  0  0
 65141  1  0  0  0
 68 77  1  0  0  0
 71 72  2  0  0  0
 71 80  1  0  0  0
 71142  1  0  0  0
 72 79  1  0  0  0
 72 81  1  0  0  0
 73 74  1  0  0  0
 73 75  1  0  0  0
 73 81  2  0  0  0
 74 77  1  0  0  0
 74 80  2  0  0  0
 75143  1  0  0  0
 75144  1  0  0  0
 75145  1  0  0  0
 76146  1  0  0  0
 76147  1  0  0  0
 76148  1  0  0  0
 76 79  1  0  0  0
 77149  1  0  0  0
 77150  1  0  0  0
 78 79  1  0  0  0
 78 82  1  0  0  0
 78151  1  0  0  0
 78152  1  0  0  0
 79153  1  0  0  0
 82154  1  0  0  0
M  ISO  4   1 100  68 101  77 101  82 100
M  END
> <chiral flag>
0

> <version>
0

> <s_m_source_file>
/data/baiqing/PycharmProjects/Reinvent-master-3.2/result/LINK_invent/BTK/process_docking_weight1_custom_sum_contain_oxygen_bond_distance_aromatic_linkinvent_7_9_3/rearranged_h_0079.sdf

> <i_m_source_file_index>
82

> <r_mmod_Potential_Energy-OPLS-2005>
479.769226074219

> <r_mmod_Stretch_Energy-OPLS-2005>
215.765899658203

> <r_mmod_Bend_Energy-OPLS-2005>
252.421203613281

> <r_mmod_Torsional_Energy-OPLS-2005>
213.511169433594

> <r_mmod_Improper_Torsional_Energy-OPLS-2005>
9.71566200256348

> <r_mmod_Van_der_Waal_Energy-OPLS-2005>
149.670516967773

> <r_mmod_Electrostatic_Energy-OPLS-2005>
-302.896606445312

> <r_mmod_Solvation_Energy-OPLS-2005>
-232.616302490234

> <b_mmod_Minimization_Converged-OPLS-2005>
0

> <r_mmod_RMS_Derivative-OPLS-2005>
5.16702032089233

$$$$
82
                    3D
 Structure written by MMmdl.
167175  0  0  1  0            999 V2000
  -30.6784  -14.7601   20.4435 C   0  0  0  0  0  0
  -30.4421  -12.4739   19.4640 C   0  0  0  0  0  0
  -29.5074  -12.5017   18.2351 C   0  0  0  0  0  0
  -28.0343  -12.3561   18.6544 C   0  0  0  0  0  0
  -27.6499  -13.2556   19.8578 C   0  0  2  0  0  0
  -28.7125  -13.2099   20.9824 C   0  0  0  0  0  0
  -25.2535  -13.8244   20.5783 C   0  0  0  0  0  0
  -24.1858  -13.0466   20.9279 C   0  0  0  0  0  0
  -24.6482  -11.6939   20.8799 C   0  0  0  0  0  0
  -23.9160  -10.4321   21.0444 C   0  0  0  0  0  0
  -24.3699   -9.4209   21.9208 C   0  0  0  0  0  0
  -23.6354   -8.2263   22.0778 C   0  0  0  0  0  0
  -22.4334   -8.0315   21.3584 C   0  0  0  0  0  0
  -21.9998   -9.0288   20.4660 C   0  0  0  0  0  0
  -22.7340  -10.2146   20.3090 C   0  0  0  0  0  0
  -21.6840   -6.0768   22.5297 C   0  0  0  0  0  0
  -21.3971   -6.5663   23.8222 C   0  0  0  0  0  0
  -21.3664   -5.6823   24.9198 C   0  0  0  0  0  0
  -21.6076   -4.3096   24.7233 C   0  0  0  0  0  0
  -21.8817   -3.8167   23.4346 C   0  0  0  0  0  0
  -21.9194   -4.6982   22.3397 C   0  0  0  0  0  0
  -22.7842  -13.5173   21.1930 C   0  0  0  0  0  0
  -22.1674   -4.2172   21.0968 F   0  0  0  0  0  0
  -21.5647   -3.4575   25.7746 F   0  0  0  0  0  0
  -30.0170  -13.5505   20.3931 N   0  0  0  0  0  0
  -26.3033  -12.9520   20.3404 N   0  0  0  0  0  0
  -25.9422  -11.6638   20.5817 N   0  0  0  0  0  0
  -22.0501  -12.8115   22.0432 N   0  0  0  0  0  0
  -25.4181  -15.1993   20.4160 N   0  0  0  0  0  0
  -31.8549  -14.8258   20.0835 O   0  0  0  0  0  0
  -21.6649   -6.8942   21.4283 O   0  0  0  0  0  0
  -22.3502  -14.5498   20.6809 O   0  0  0  0  0  0
  -24.6286  -31.8563   23.2000 C   0  0  0  0  0  0
  -25.9124  -32.4745   23.8316 C   0  0  1  0  0  0
  -27.2155  -27.2641   20.1231 C   0  0  0  0  0  0
  -25.5943  -33.8553   24.2233 N   0  0  0  0  0  0
  -23.4232  -30.4845   21.5406 C   0  0  2  0  0  0
  -24.8697  -28.9389   20.1012 C   0  0  0  0  0  0
  -22.7502  -29.4596   22.4852 C   0  0  0  0  0  0
  -18.0292  -28.1420   22.8447 C   0  0  0  0  0  0
  -24.1508  -36.7270   23.2636 C   0  0  0  0  0  0
  -25.9707  -30.7710   21.3809 C   0  0  0  0  0  0
  -26.0413  -29.3963   20.7171 C   0  0  0  0  0  0
  -27.2133  -28.5726   20.7157 C   0  0  0  0  0  0
  -26.0143  -26.8734   19.4845 C   0  0  0  0  0  0
  -24.8647  -27.6882   19.4685 C   0  0  0  0  0  0
  -23.6428  -29.8320   20.1500 C   0  0  0  0  0  0
  -25.4143  -36.3055   24.0305 C   0  0  1  0  0  0
  -20.5896  -28.3713   23.1264 C   0  0  2  0  0  0
  -20.6795  -26.9432   22.5417 C   0  0  0  0  0  0
  -19.5775  -26.6405   21.5217 C   0  0  0  0  0  0
  -18.1939  -26.7961   22.1600 C   0  0  0  0  0  0
  -19.1550  -28.8886   23.2847 C   0  0  0  0  0  0
  -18.9466  -30.1483   23.8865 C   0  0  0  0  0  0
  -17.6467  -30.6603   24.0567 C   0  0  0  0  0  0
  -25.9092  -34.9431   23.5070 C   0  0  0  0  0  0
  -16.5356  -29.9100   23.6342 C   0  0  0  0  0  0
  -16.7281  -28.6548   23.0306 C   0  0  0  0  0  0
  -26.4527  -31.6552   25.0681 C   0  0  0  0  0  0
  -25.3772  -31.3620   26.1391 C   0  0  0  0  0  0
  -27.0377  -30.2978   24.6154 C   0  0  0  0  0  0
  -27.6078  -32.4288   25.7473 C   0  0  0  0  0  0
  -27.5584  -37.1794   24.8448 C   0  0  0  0  0  0
  -21.4210  -29.3044   22.3633 N   0  0  0  0  0  0
  -26.4294  -37.3768   23.9402 N   0  0  0  0  0  0
  -24.6919  -31.0570   22.0951 N   0  0  0  0  0  0
  -23.4235  -28.8121   23.2925 O   0  0  0  0  0  0
  -28.3292  -26.3856   20.1943 O   0  0  0  0  0  0
  -26.5685  -34.8910   22.4655 O   0  0  0  0  0  0
  -23.5454  -32.1350   23.7347 O   0  0  0  0  0  0
  -31.2893  -22.2558   21.8578 C   0  0  0  0  0  0
  -30.4139  -21.4079   21.1400 C   0  0  0  0  0  0
  -30.8132  -19.9691   21.0685 C   0  0  0  0  0  0
  -32.4822  -21.8004   22.3977 C   0  0  0  0  0  0
  -32.1600  -19.6907   21.5094 C   0  0  0  0  0  0
  -33.3822  -22.7111   23.1968 C   0  0  0  0  0  0
  -32.8245  -17.3178   22.3051 C   0  0  0  0  0  0
  -28.4702  -24.8157   18.3429 C   0  0  0  0  0  0
  -29.1772  -22.2306   20.5345 C   0  0  0  0  0  0
  -29.8449  -18.7233   20.7987 C   0  0  0  0  0  0
  -32.9971  -18.4314   21.2652 C   0  0  0  0  0  0
  -29.2061  -23.8819   20.6371 C   0  0  0  0  0  0
  -30.2542  -17.3228   20.0628 C   0  0  0  0  0  0
  -28.2253  -24.9148   19.8642 C   0  0  1  0  0  0
  -32.9184  -20.5638   22.1955 N   0  0  0  0  0  0
  -29.9612  -15.9284   20.6493 N   0  0  0  0  0  0
  -31.4771  -12.5875   19.1346 H   0  0  0  0  0  0
  -30.3976  -11.5089   19.9677 H   0  0  0  0  0  0
  -29.7664  -11.6895   17.5538 H   0  0  0  0  0  0
  -29.6492  -13.4242   17.6700 H   0  0  0  0  0  0
  -27.8747  -11.3119   18.9178 H   0  0  0  0  0  0
  -27.3777  -12.5582   17.8067 H   0  0  0  0  0  0
  -27.6354  -14.2766   19.4714 H   0  0  0  0  0  0
  -28.7518  -12.2139   21.4242 H   0  0  0  0  0  0
  -28.4600  -13.8934   21.7944 H   0  0  0  0  0  0
  -25.2853   -9.5600   22.4807 H   0  0  0  0  0  0
  -24.0030   -7.4599   22.7464 H   0  0  0  0  0  0
  -21.0967   -8.8803   19.8902 H   0  0  0  0  0  0
  -22.3850  -10.9701   19.6196 H   0  0  0  0  0  0
  -21.1918   -7.6160   23.9735 H   0  0  0  0  0  0
  -21.1495   -6.0554   25.9118 H   0  0  0  0  0  0
  -22.0585   -2.7620   23.2848 H   0  0  0  0  0  0
  -22.4149  -11.9731   22.4736 H   0  0  0  0  0  0
  -21.1103  -13.1055   22.2662 H   0  0  0  0  0  0
  -24.6567  -15.8567   20.5381 H   0  0  0  0  0  0
  -26.2497  -15.6215   20.0249 H   0  0  0  0  0  0
  -26.7166  -32.5406   23.1038 H   0  0  0  0  0  0
  -25.0026  -33.9696   25.0328 H   0  0  0  0  0  0
  -22.7157  -31.3054   21.4056 H   0  0  0  0  0  0
  -23.3782  -35.9585   23.3263 H   0  0  0  0  0  0
  -24.3565  -36.8954   22.2051 H   0  0  0  0  0  0
  -23.7266  -37.6451   23.6709 H   0  0  0  0  0  0
  -26.1256  -31.5375   20.6202 H   0  0  0  0  0  0
  -26.8413  -30.8056   22.0223 H   0  0  0  0  0  0
  -28.1110  -28.9250   21.2050 H   0  0  0  0  0  0
  -25.9244  -25.9196   18.9917 H   0  0  0  0  0  0
  -23.9679  -27.3439   18.9711 H   0  0  0  0  0  0
  -23.7790  -30.6214   19.4089 H   0  0  0  0  0  0
  -22.7559  -29.2829   19.8273 H   0  0  0  0  0  0
  -25.1348  -36.1862   25.0795 H   0  0  0  0  0  0
  -20.9993  -28.3320   24.1385 H   0  0  0  0  0  0
  -20.5742  -26.2318   23.3617 H   0  0  0  0  0  0
  -21.6653  -26.7477   22.1191 H   0  0  0  0  0  0
  -19.6945  -25.6318   21.1239 H   0  0  0  0  0  0
  -19.6733  -27.3237   20.6762 H   0  0  0  0  0  0
  -17.4222  -26.6684   21.3988 H   0  0  0  0  0  0
  -18.0325  -26.0123   22.9015 H   0  0  0  0  0  0
  -19.7933  -30.7314   24.2220 H   0  0  0  0  0  0
  -17.5015  -31.6270   24.5177 H   0  0  0  0  0  0
  -15.5363  -30.2997   23.7694 H   0  0  0  0  0  0
  -15.8670  -28.0906   22.6972 H   0  0  0  0  0  0
  -24.5995  -30.6942   25.7660 H   0  0  0  0  0  0
  -24.8924  -32.2749   26.4856 H   0  0  0  0  0  0
  -25.8127  -30.8744   27.0123 H   0  0  0  0  0  0
  -26.2920  -29.6709   24.1250 H   0  0  0  0  0  0
  -27.4125  -29.7258   25.4650 H   0  0  0  0  0  0
  -27.8793  -30.4230   23.9336 H   0  0  0  0  0  0
  -27.2670  -33.3563   26.2088 H   0  0  0  0  0  0
  -28.3894  -32.6885   25.0314 H   0  0  0  0  0  0
  -28.0757  -31.8383   26.5367 H   0  0  0  0  0  0
  -28.2575  -38.0120   24.7548 H   0  0  0  0  0  0
  -28.1117  -36.2654   24.6235 H   0  0  0  0  0  0
  -27.2285  -37.1393   25.8843 H   0  0  0  0  0  0
  -20.9391  -29.8749   21.6818 H   0  0  0  0  0  0
  -26.0152  -38.2815   24.1458 H   0  0  0  0  0  0
  -31.0918  -23.2987   22.0323 H   0  0  0  0  0  0
  -32.9312  -23.6936   23.3209 H   0  0  0  0  0  0
  -34.3327  -22.8341   22.6809 H   0  0  0  0  0  0
  -33.5715  -22.2963   24.1878 H   0  0  0  0  0  0
  -33.5334  -16.5088   22.1139 H   0  0  0  0  0  0
  -31.8218  -16.9023   22.2740 H   0  0  0  0  0  0
  -32.9985  -17.6834   23.3182 H   0  0  0  0  0  0
  -28.3199  -23.8003   17.9765 H   0  0  0  0  0  0
  -29.4901  -25.1089   18.0867 H   0  0  0  0  0  0
  -27.8059  -25.4643   17.7730 H   0  0  0  0  0  0
  -28.2699  -21.8657   21.0159 H   0  0  0  0  0  0
  -29.0922  -21.9587   19.4843 H   0  0  0  0  0  0
  -28.9936  -19.1382   20.2588 H   0  0  0  0  0  0
  -29.4440  -18.4614   21.7778 H   0  0  0  0  0  0
  -34.0467  -18.7301   21.3428 H   0  0  0  0  0  0
  -32.9719  -18.0898   20.2337 H   0  0  0  0  0  0
  -30.2005  -24.2031   20.3328 H   0  0  0  0  0  0
  -29.1301  -24.1358   21.6943 H   0  0  0  0  0  0
  -31.2134  -17.3677   19.5620 H   0  0  0  0  0  0
  -29.5896  -17.3042   19.1980 H   0  0  0  0  0  0
  -27.2113  -24.5828   20.0915 H   0  0  0  0  0  0
  -29.0197  -15.7839   20.9836 H   0  0  0  0  0  0
  1 25  1  0  0  0
  1 30  2  0  0  0
  1 86  1  0  0  0
  2  3  1  0  0  0
  2 25  1  0  0  0
  2 87  1  0  0  0
  2 88  1  0  0  0
  3  4  1  0  0  0
  3 89  1  0  0  0
  3 90  1  0  0  0
  4  5  1  0  0  0
  4 91  1  0  0  0
  4 92  1  0  0  0
  5  6  1  0  0  0
  5 26  1  0  0  0
  5 93  1  0  0  0
  6 25  1  0  0  0
  6 94  1  0  0  0
  6 95  1  0  0  0
  7  8  2  0  0  0
  7 26  1  0  0  0
  7 29  1  0  0  0
  8  9  1  0  0  0
  8 22  1  0  0  0
  9 10  1  0  0  0
  9 27  2  0  0  0
 10 11  2  0  0  0
 10 15  1  0  0  0
 11 12  1  0  0  0
 11 96  1  0  0  0
 12 13  2  0  0  0
 12 97  1  0  0  0
 13 14  1  0  0  0
 13 31  1  0  0  0
 14 15  2  0  0  0
 14 98  1  0  0  0
 15 99  1  0  0  0
 16 17  2  0  0  0
 16 21  1  0  0  0
 16 31  1  0  0  0
 17 18  1  0  0  0
 17100  1  0  0  0
 18 19  2  0  0  0
 18101  1  0  0  0
 19 20  1  0  0  0
 19 24  1  0  0  0
 20 21  2  0  0  0
 20102  1  0  0  0
 21 23  1  0  0  0
 22 28  1  0  0  0
 22 32  2  0  0  0
 26 27  1  0  0  0
 28103  1  0  0  0
 28104  1  0  0  0
 29105  1  0  0  0
 29106  1  0  0  0
 33 34  1  0  0  0
 33 66  1  0  0  0
 33 70  2  0  0  0
 34 36  1  0  0  0
 34 59  1  0  0  0
 34107  1  0  0  0
 35 44  2  0  0  0
 35 45  1  0  0  0
 35 68  1  0  0  0
 36 56  1  0  0  0
 36108  1  0  0  0
 37 39  1  0  0  0
 37 47  1  0  0  0
 37 66  1  0  0  0
 37109  1  0  0  0
 38 43  2  0  0  0
 38 46  1  0  0  0
 38 47  1  0  0  0
 39 64  1  0  0  0
 39 67  2  0  0  0
 40 52  1  0  0  0
 40 53  2  0  0  0
 40 58  1  0  0  0
 41110  1  0  0  0
 41111  1  0  0  0
 41112  1  0  0  0
 41 48  1  0  0  0
 42 43  1  0  0  0
 42 66  1  0  0  0
 42113  1  0  0  0
 42114  1  0  0  0
 43 44  1  0  0  0
 44115  1  0  0  0
 45 46  2  0  0  0
 45116  1  0  0  0
 46117  1  0  0  0
 47118  1  0  0  0
 47119  1  0  0  0
 48 56  1  0  0  0
 48 65  1  0  0  0
 48120  1  0  0  0
 49 50  1  0  0  0
 49 53  1  0  0  0
 49 64  1  0  0  0
 49121  1  0  0  0
 50 51  1  0  0  0
 50122  1  0  0  0
 50123  1  0  0  0
 51 52  1  0  0  0
 51124  1  0  0  0
 51125  1  0  0  0
 52126  1  0  0  0
 52127  1  0  0  0
 53 54  1  0  0  0
 54 55  2  0  0  0
 54128  1  0  0  0
 55 57  1  0  0  0
 55129  1  0  0  0
 56 69  2  0  0  0
 57 58  2  0  0  0
 57130  1  0  0  0
 58131  1  0  0  0
 59 60  1  0  0  0
 59 61  1  0  0  0
 59 62  1  0  0  0
 60132  1  0  0  0
 60133  1  0  0  0
 60134  1  0  0  0
 61135  1  0  0  0
 61136  1  0  0  0
 61137  1  0  0  0
 62138  1  0  0  0
 62139  1  0  0  0
 62140  1  0  0  0
 63 65  1  0  0  0
 63141  1  0  0  0
 63142  1  0  0  0
 63143  1  0  0  0
 64144  1  0  0  0
 65145  1  0  0  0
 68 84  1  0  0  0
 71 72  2  0  0  0
 71 74  1  0  0  0
 71146  1  0  0  0
 72 73  1  0  0  0
 72 79  1  0  0  0
 73 75  2  0  0  0
 73 80  1  0  0  0
 74 76  1  0  0  0
 74 85  2  0  0  0
 75 81  1  0  0  0
 75 85  1  0  0  0
 76147  1  0  0  0
 76148  1  0  0  0
 76149  1  0  0  0
 77 81  1  0  0  0
 77150  1  0  0  0
 77151  1  0  0  0
 77152  1  0  0  0
 78153  1  0  0  0
 78154  1  0  0  0
 78155  1  0  0  0
 78 84  1  0  0  0
 79 82  1  0  0  0
 79156  1  0  0  0
 79157  1  0  0  0
 80 83  1  0  0  0
 80158  1  0  0  0
 80159  1  0  0  0
 81160  1  0  0  0
 81161  1  0  0  0
 82 84  1  0  0  0
 82162  1  0  0  0
 82163  1  0  0  0
 83 86  1  0  0  0
 83164  1  0  0  0
 83165  1  0  0  0
 84166  1  0  0  0
 86167  1  0  0  0
M  ISO  4   1 100  68 101  84 101  86 100
M  END
> <chiral flag>
0

> <version>
0

> <s_m_source_file>
/data/baiqing/PycharmProjects/Reinvent-master-3.2/result/LINK_invent/BTK/process_docking_weight1_custom_sum_contain_oxygen_bond_distance_aromatic_linkinvent_7_9_3/rearranged_h_0079.sdf

> <i_m_source_file_index>
83

> <r_mmod_Potential_Energy-OPLS-2005>
68.9272613525391

> <r_mmod_Stretch_Energy-OPLS-2005>
161.814910888672

> <r_mmod_Bend_Energy-OPLS-2005>
238.670593261719

> <r_mmod_Torsional_Energy-OPLS-2005>
247.193725585938

> <r_mmod_Improper_Torsional_Energy-OPLS-2005>
8.14814472198486

> <r_mmod_Van_der_Waal_Energy-OPLS-2005>
154.614242553711

> <r_mmod_Electrostatic_Energy-OPLS-2005>
-607.096740722656

> <r_mmod_Solvation_Energy-OPLS-2005>
-222.398651123047

> <b_mmod_Minimization_Converged-OPLS-2005>
0

> <r_mmod_RMS_Derivative-OPLS-2005>
5.65330028533936

$$$$
83
                    3D
 Structure written by MMmdl.
166174  0  0  1  0            999 V2000
  -30.7596  -14.4416   20.5280 C   0  0  0  0  0  0
  -30.4167  -12.2876   19.4115 C   0  0  0  0  0  0
  -29.4924  -12.4954   18.1965 C   0  0  0  0  0  0
  -28.0115  -12.3705   18.6132 C   0  0  0  0  0  0
  -27.6621  -13.2062   19.8770 C   0  0  2  0  0  0
  -28.7161  -12.9793   20.9854 C   0  0  0  0  0  0
  -25.2575  -13.8102   20.5649 C   0  0  0  0  0  0
  -24.1869  -13.0393   20.9250 C   0  0  0  0  0  0
  -24.6428  -11.6866   20.8818 C   0  0  0  0  0  0
  -23.9070  -10.4273   21.0453 C   0  0  0  0  0  0
  -24.3607   -9.4188   21.9230 C   0  0  0  0  0  0
  -23.6289   -8.2224   22.0778 C   0  0  0  0  0  0
  -22.4278   -8.0264   21.3553 C   0  0  0  0  0  0
  -21.9914   -9.0247   20.4668 C   0  0  0  0  0  0
  -22.7235  -10.2132   20.3101 C   0  0  0  0  0  0
  -21.6841   -6.0721   22.5269 C   0  0  0  0  0  0
  -21.4003   -6.5633   23.8197 C   0  0  0  0  0  0
  -21.3676   -5.6797   24.9167 C   0  0  0  0  0  0
  -21.6044   -4.3056   24.7224 C   0  0  0  0  0  0
  -21.8816   -3.8141   23.4347 C   0  0  0  0  0  0
  -21.9189   -4.6954   22.3401 C   0  0  0  0  0  0
  -22.7881  -13.5232   21.1841 C   0  0  0  0  0  0
  -22.1662   -4.2130   21.0979 F   0  0  0  0  0  0
  -21.5641   -3.4545   25.7744 F   0  0  0  0  0  0
  -30.0322  -13.2963   20.4101 N   0  0  0  0  0  0
  -26.3051  -12.9294   20.3412 N   0  0  0  0  0  0
  -25.9359  -11.6452   20.5821 N   0  0  0  0  0  0
  -22.0476  -12.8272   22.0388 N   0  0  0  0  0  0
  -25.4099  -15.1801   20.3695 N   0  0  0  0  0  0
  -31.9432  -14.5088   20.2121 O   0  0  0  0  0  0
  -21.6647   -6.8862   21.4229 O   0  0  0  0  0  0
  -22.3649  -14.5565   20.6660 O   0  0  0  0  0  0
  -24.6131  -31.8710   23.2119 C   0  0  0  0  0  0
  -25.9028  -32.4839   23.8399 C   0  0  1  0  0  0
  -27.2261  -27.4312   20.0775 C   0  0  0  0  0  0
  -25.5883  -33.8638   24.2320 N   0  0  0  0  0  0
  -23.3976  -30.4971   21.5542 C   0  0  2  0  0  0
  -24.8381  -28.9644   20.1136 C   0  0  0  0  0  0
  -22.7401  -29.4670   22.5002 C   0  0  0  0  0  0
  -18.0270  -28.1350   22.8513 C   0  0  0  0  0  0
  -24.1489  -36.7309   23.2627 C   0  0  0  0  0  0
  -25.9264  -30.8293   21.3676 C   0  0  0  0  0  0
  -25.9986  -29.4655   20.7128 C   0  0  0  0  0  0
  -27.1889  -28.7029   20.6993 C   0  0  0  0  0  0
  -26.0432  -26.9581   19.4630 C   0  0  0  0  0  0
  -24.8548  -27.7069   19.4916 C   0  0  0  0  0  0
  -23.6034  -29.8333   20.1653 C   0  0  0  0  0  0
  -25.4117  -36.3115   24.0324 C   0  0  1  0  0  0
  -20.5863  -28.3647   23.1367 C   0  0  2  0  0  0
  -20.6766  -26.9392   22.5459 C   0  0  0  0  0  0
  -19.5748  -26.6391   21.5229 C   0  0  0  0  0  0
  -18.1911  -26.7931   22.1603 C   0  0  0  0  0  0
  -19.1525  -28.8814   23.2932 C   0  0  0  0  0  0
  -18.9437  -30.1460   23.8864 C   0  0  0  0  0  0
  -17.6438  -30.6618   24.0474 C   0  0  0  0  0  0
  -25.9056  -34.9483   23.5131 C   0  0  0  0  0  0
  -16.5346  -29.9081   23.6299 C   0  0  0  0  0  0
  -16.7254  -28.6467   23.0392 C   0  0  0  0  0  0
  -26.4458  -31.6606   25.0725 C   0  0  0  0  0  0
  -25.3715  -31.3698   26.1460 C   0  0  0  0  0  0
  -27.0280  -30.3043   24.6112 C   0  0  0  0  0  0
  -27.6055  -32.4318   25.7464 C   0  0  0  0  0  0
  -27.5590  -37.1806   24.8455 C   0  0  0  0  0  0
  -21.4121  -29.3090   22.3834 N   0  0  0  0  0  0
  -26.4316  -37.3792   23.9398 N   0  0  0  0  0  0
  -24.6636  -31.0808   22.1029 N   0  0  0  0  0  0
  -23.4200  -28.8173   23.2991 O   0  0  0  0  0  0
  -28.4232  -26.7336   20.1011 O   0  0  0  0  0  0
  -26.5610  -34.8933   22.4700 O   0  0  0  0  0  0
  -23.5335  -32.1479   23.7507 O   0  0  0  0  0  0
  -27.9579  -19.6937   20.6158 C   0  0  0  0  0  0
  -27.4563  -18.4041   20.6092 C   0  0  0  0  0  0
  -25.8010  -19.8267   21.1171 C   0  0  0  0  0  0
  -24.4423  -20.3099   21.5036 C   0  0  0  0  0  0
  -29.8732  -17.2495   22.2233 C   0  0  0  0  0  0
  -28.5534  -25.2269   18.1484 C   0  0  0  0  0  0
  -28.0617  -17.0321   20.3548 C   0  0  0  0  0  0
  -27.9017  -22.8434   20.2425 C   0  0  0  0  0  0
  -27.6634  -24.3603   20.4718 C   0  0  0  0  0  0
  -26.9533  -22.0139   21.1413 C   0  0  0  0  0  0
  -29.1449  -16.3045   21.2440 C   0  0  1  0  0  0
  -28.5609  -25.3591   19.6845 C   0  0  2  0  0  0
  -26.9182  -20.5471   20.9235 N   0  0  0  0  0  0
  -26.1220  -18.5481   20.9037 N   0  3  0  0  0  0
  -30.1013  -15.5995   20.3817 N   0  0  0  0  0  0
  -31.4609  -12.3640   19.1055 H   0  0  0  0  0  0
  -30.2981  -11.2816   19.8160 H   0  0  0  0  0  0
  -29.7270  -11.7713   17.4139 H   0  0  0  0  0  0
  -29.6709  -13.4791   17.7599 H   0  0  0  0  0  0
  -27.8192  -11.3137   18.7994 H   0  0  0  0  0  0
  -27.3626  -12.6519   17.7847 H   0  0  0  0  0  0
  -27.7015  -14.2543   19.5846 H   0  0  0  0  0  0
  -28.7008  -11.9369   21.3064 H   0  0  0  0  0  0
  -28.4938  -13.5328   21.8932 H   0  0  0  0  0  0
  -25.2741   -9.5649   22.4817 H   0  0  0  0  0  0
  -23.9977   -7.4611   22.7499 H   0  0  0  0  0  0
  -21.0852   -8.8787   19.8979 H   0  0  0  0  0  0
  -22.3703  -10.9686   19.6226 H   0  0  0  0  0  0
  -21.1991   -7.6137   23.9683 H   0  0  0  0  0  0
  -21.1516   -6.0540   25.9067 H   0  0  0  0  0  0
  -22.0587   -2.7599   23.2850 H   0  0  0  0  0  0
  -22.4031  -11.9914   22.4788 H   0  0  0  0  0  0
  -21.1110  -13.1374   22.2562 H   0  0  0  0  0  0
  -24.5126  -15.6248   20.2110 H   0  0  0  0  0  0
  -26.0749  -15.4151   19.6441 H   0  0  0  0  0  0
  -26.7092  -32.5541   23.1149 H   0  0  0  0  0  0
  -25.0011  -33.9797   25.0451 H   0  0  0  0  0  0
  -22.6871  -31.3159   21.4179 H   0  0  0  0  0  0
  -23.3764  -35.9636   23.3314 H   0  0  0  0  0  0
  -24.3582  -36.8918   22.2040 H   0  0  0  0  0  0
  -23.7233  -37.6519   23.6638 H   0  0  0  0  0  0
  -26.0429  -31.5968   20.5999 H   0  0  0  0  0  0
  -26.8119  -30.8765   21.9890 H   0  0  0  0  0  0
  -28.0852  -29.0825   21.1705 H   0  0  0  0  0  0
  -25.9993  -26.0187   18.9424 H   0  0  0  0  0  0
  -23.9636  -27.3180   19.0172 H   0  0  0  0  0  0
  -23.7137  -30.6089   19.4064 H   0  0  0  0  0  0
  -22.7258  -29.2541   19.8700 H   0  0  0  0  0  0
  -25.1297  -36.1997   25.0820 H   0  0  0  0  0  0
  -20.9937  -28.3179   24.1502 H   0  0  0  0  0  0
  -20.5572  -26.2290   23.3654 H   0  0  0  0  0  0
  -21.6637  -26.7337   22.1297 H   0  0  0  0  0  0
  -19.6700  -27.3231   20.6778 H   0  0  0  0  0  0
  -19.6887  -25.6325   21.1226 H   0  0  0  0  0  0
  -17.4256  -26.6812   21.3905 H   0  0  0  0  0  0
  -18.0213  -25.9992   22.8870 H   0  0  0  0  0  0
  -19.7914  -30.7288   24.2252 H   0  0  0  0  0  0
  -17.5002  -31.6332   24.4997 H   0  0  0  0  0  0
  -15.5352  -30.2971   23.7652 H   0  0  0  0  0  0
  -15.8618  -28.0797   22.7155 H   0  0  0  0  0  0
  -24.5898  -30.7041   25.7757 H   0  0  0  0  0  0
  -24.8890  -32.2851   26.4909 H   0  0  0  0  0  0
  -25.8055  -30.8846   27.0211 H   0  0  0  0  0  0
  -26.2815  -29.6811   24.1161 H   0  0  0  0  0  0
  -27.4024  -29.7274   25.4579 H   0  0  0  0  0  0
  -27.8675  -30.4354   23.9275 H   0  0  0  0  0  0
  -27.2697  -33.3609   26.2082 H   0  0  0  0  0  0
  -28.3823  -32.6893   25.0247 H   0  0  0  0  0  0
  -28.0763  -31.8418   26.5333 H   0  0  0  0  0  0
  -28.2599  -38.0102   24.7527 H   0  0  0  0  0  0
  -28.1087  -36.2646   24.6268 H   0  0  0  0  0  0
  -27.2301  -37.1435   25.8848 H   0  0  0  0  0  0
  -20.9246  -29.9000   21.7239 H   0  0  0  0  0  0
  -26.0210  -38.2885   24.1392 H   0  0  0  0  0  0
  -28.9613  -20.0539   20.4387 H   0  0  0  0  0  0
  -23.8483  -19.4638   21.8531 H   0  0  0  0  0  0
  -23.9788  -20.7526   20.6235 H   0  0  0  0  0  0
  -24.5444  -21.0482   22.2964 H   0  0  0  0  0  0
  -29.1624  -17.7821   22.8551 H   0  0  0  0  0  0
  -30.5365  -16.6945   22.8861 H   0  0  0  0  0  0
  -30.4680  -17.9994   21.7029 H   0  0  0  0  0  0
  -28.9047  -24.2438   17.8406 H   0  0  0  0  0  0
  -29.2239  -25.9589   17.6935 H   0  0  0  0  0  0
  -27.5702  -25.3655   17.7058 H   0  0  0  0  0  0
  -27.5171  -16.8038   21.2696 H   0  0  0  0  0  0
  -28.9266  -17.5784   19.9782 H   0  0  0  0  0  0
  -28.9394  -22.5890   20.4594 H   0  0  0  0  0  0
  -27.7171  -22.5897   19.1962 H   0  0  0  0  0  0
  -27.8021  -24.5702   21.5335 H   0  0  0  0  0  0
  -26.6111  -24.5515   20.2859 H   0  0  0  0  0  0
  -25.9428  -22.3892   20.9891 H   0  0  0  0  0  0
  -27.1879  -22.1777   22.1929 H   0  0  0  0  0  0
  -28.7082  -15.5454   21.8932 H   0  0  0  0  0  0
  -29.5828  -25.1189   19.9779 H   0  0  0  0  0  0
  -25.4710  -17.7753   20.9974 H   0  0  0  0  0  0
  -30.7155  -16.2490   19.9133 H   0  0  0  0  0  0
  1 25  1  0  0  0
  1 30  2  0  0  0
  1 85  1  0  0  0
  2  3  1  0  0  0
  2 25  1  0  0  0
  2 86  1  0  0  0
  2 87  1  0  0  0
  3  4  1  0  0  0
  3 88  1  0  0  0
  3 89  1  0  0  0
  4  5  1  0  0  0
  4 90  1  0  0  0
  4 91  1  0  0  0
  5  6  1  0  0  0
  5 26  1  0  0  0
  5 92  1  0  0  0
  6 25  1  0  0  0
  6 93  1  0  0  0
  6 94  1  0  0  0
  7  8  2  0  0  0
  7 26  1  0  0  0
  7 29  1  0  0  0
  8  9  1  0  0  0
  8 22  1  0  0  0
  9 10  1  0  0  0
  9 27  2  0  0  0
 10 11  2  0  0  0
 10 15  1  0  0  0
 11 12  1  0  0  0
 11 95  1  0  0  0
 12 13  2  0  0  0
 12 96  1  0  0  0
 13 14  1  0  0  0
 13 31  1  0  0  0
 14 15  2  0  0  0
 14 97  1  0  0  0
 15 98  1  0  0  0
 16 17  2  0  0  0
 16 21  1  0  0  0
 16 31  1  0  0  0
 17 18  1  0  0  0
 17 99  1  0  0  0
 18 19  2  0  0  0
 18100  1  0  0  0
 19 20  1  0  0  0
 19 24  1  0  0  0
 20 21  2  0  0  0
 20101  1  0  0  0
 21 23  1  0  0  0
 22 28  1  0  0  0
 22 32  2  0  0  0
 26 27  1  0  0  0
 28102  1  0  0  0
 28103  1  0  0  0
 29104  1  0  0  0
 29105  1  0  0  0
 33 34  1  0  0  0
 33 66  1  0  0  0
 33 70  2  0  0  0
 34 36  1  0  0  0
 34 59  1  0  0  0
 34106  1  0  0  0
 35 44  2  0  0  0
 35 45  1  0  0  0
 35 68  1  0  0  0
 36 56  1  0  0  0
 36107  1  0  0  0
 37 39  1  0  0  0
 37 47  1  0  0  0
 37 66  1  0  0  0
 37108  1  0  0  0
 38 43  2  0  0  0
 38 46  1  0  0  0
 38 47  1  0  0  0
 39 64  1  0  0  0
 39 67  2  0  0  0
 40 52  1  0  0  0
 40 53  2  0  0  0
 40 58  1  0  0  0
 41109  1  0  0  0
 41110  1  0  0  0
 41111  1  0  0  0
 41 48  1  0  0  0
 42 43  1  0  0  0
 42 66  1  0  0  0
 42112  1  0  0  0
 42113  1  0  0  0
 43 44  1  0  0  0
 44114  1  0  0  0
 45 46  2  0  0  0
 45115  1  0  0  0
 46116  1  0  0  0
 47117  1  0  0  0
 47118  1  0  0  0
 48 56  1  0  0  0
 48 65  1  0  0  0
 48119  1  0  0  0
 49 50  1  0  0  0
 49 53  1  0  0  0
 49 64  1  0  0  0
 49120  1  0  0  0
 50 51  1  0  0  0
 50121  1  0  0  0
 50122  1  0  0  0
 51 52  1  0  0  0
 51123  1  0  0  0
 51124  1  0  0  0
 52125  1  0  0  0
 52126  1  0  0  0
 53 54  1  0  0  0
 54 55  2  0  0  0
 54127  1  0  0  0
 55 57  1  0  0  0
 55128  1  0  0  0
 56 69  2  0  0  0
 57 58  2  0  0  0
 57129  1  0  0  0
 58130  1  0  0  0
 59 60  1  0  0  0
 59 61  1  0  0  0
 59 62  1  0  0  0
 60131  1  0  0  0
 60132  1  0  0  0
 60133  1  0  0  0
 61134  1  0  0  0
 61135  1  0  0  0
 61136  1  0  0  0
 62137  1  0  0  0
 62138  1  0  0  0
 62139  1  0  0  0
 63 65  1  0  0  0
 63140  1  0  0  0
 63141  1  0  0  0
 63142  1  0  0  0
 64143  1  0  0  0
 65144  1  0  0  0
 68 82  1  0  0  0
 71 72  2  0  0  0
 71 83  1  0  0  0
 71145  1  0  0  0
 72 77  1  0  0  0
 72 84  1  0  0  0
 73 74  1  0  0  0
 73 83  1  0  0  0
 73 84  2  0  0  0
 74146  1  0  0  0
 74147  1  0  0  0
 74148  1  0  0  0
 75149  1  0  0  0
 75150  1  0  0  0
 75151  1  0  0  0
 75 81  1  0  0  0
 76152  1  0  0  0
 76153  1  0  0  0
 76154  1  0  0  0
 76 82  1  0  0  0
 77 81  1  0  0  0
 77155  1  0  0  0
 77156  1  0  0  0
 78 79  1  0  0  0
 78 80  1  0  0  0
 78157  1  0  0  0
 78158  1  0  0  0
 79 82  1  0  0  0
 79159  1  0  0  0
 79160  1  0  0  0
 80 83  1  0  0  0
 80161  1  0  0  0
 80162  1  0  0  0
 81 85  1  0  0  0
 81163  1  0  0  0
 82164  1  0  0  0
 84165  1  0  0  0
 85166  1  0  0  0
M  CHG  1  84   1
M  ISO  4   1 100  68 101  82 101  85 100
M  END
> <chiral flag>
0

> <version>
0

> <s_m_source_file>
/data/baiqing/PycharmProjects/Reinvent-master-3.2/result/LINK_invent/BTK/process_docking_weight1_custom_sum_contain_oxygen_bond_distance_aromatic_linkinvent_7_9_3/rearranged_h_0079.sdf

> <i_m_source_file_index>
84

> <r_mmod_Potential_Energy-OPLS-2005>
264.470977783203

> <r_mmod_Stretch_Energy-OPLS-2005>
40.1919364929199

> <r_mmod_Bend_Energy-OPLS-2005>
384.368957519531

> <r_mmod_Torsional_Energy-OPLS-2005>
264.414001464844

> <r_mmod_Improper_Torsional_Energy-OPLS-2005>
29.8959045410156

> <r_mmod_Van_der_Waal_Energy-OPLS-2005>
147.382736206055

> <r_mmod_Electrostatic_Energy-OPLS-2005>
-217.026062011719

> <r_mmod_Solvation_Energy-OPLS-2005>
-405.288269042969

> <b_mmod_Minimization_Converged-OPLS-2005>
0

> <r_mmod_RMS_Derivative-OPLS-2005>
4.76434850692749

$$$$
84
                    3D
 Structure written by MMmdl.
164172  0  0  1  0            999 V2000
  -30.6913  -14.5120   20.5510 C   0  0  0  0  0  0
  -30.4219  -12.3274   19.4331 C   0  0  0  0  0  0
  -29.4967  -12.5070   18.2120 C   0  0  0  0  0  0
  -28.0186  -12.3603   18.6232 C   0  0  0  0  0  0
  -27.6574  -13.2111   19.8703 C   0  0  2  0  0  0
  -28.6998  -13.0234   20.9960 C   0  0  0  0  0  0
  -25.2575  -13.8170   20.5683 C   0  0  0  0  0  0
  -24.1833  -13.0441   20.9181 C   0  0  0  0  0  0
  -24.6391  -11.6909   20.8737 C   0  0  0  0  0  0
  -23.9060  -10.4293   21.0406 C   0  0  0  0  0  0
  -24.3614   -9.4209   21.9183 C   0  0  0  0  0  0
  -23.6292   -8.2243   22.0752 C   0  0  0  0  0  0
  -22.4274   -8.0281   21.3543 C   0  0  0  0  0  0
  -21.9906   -9.0254   20.4647 C   0  0  0  0  0  0
  -22.7233  -10.2135   20.3056 C   0  0  0  0  0  0
  -21.6854   -6.0738   22.5281 C   0  0  0  0  0  0
  -21.4013   -6.5641   23.8215 C   0  0  0  0  0  0
  -21.3658   -5.6790   24.9175 C   0  0  0  0  0  0
  -21.6045   -4.3054   24.7222 C   0  0  0  0  0  0
  -21.8820   -3.8148   23.4343 C   0  0  0  0  0  0
  -21.9192   -4.6966   22.3401 C   0  0  0  0  0  0
  -22.7855  -13.5240   21.1843 C   0  0  0  0  0  0
  -22.1663   -4.2153   21.0977 F   0  0  0  0  0  0
  -21.5626   -3.4536   25.7734 F   0  0  0  0  0  0
  -30.0264  -13.3283   20.4380 N   0  0  0  0  0  0
  -26.3006  -12.9345   20.3348 N   0  0  0  0  0  0
  -25.9320  -11.6502   20.5760 N   0  0  0  0  0  0
  -22.0491  -12.8239   22.0402 N   0  0  0  0  0  0
  -25.4290  -15.1890   20.4097 N   0  0  0  0  0  0
  -31.8320  -14.6710   20.1105 O   0  0  0  0  0  0
  -21.6637   -6.8882   21.4244 O   0  0  0  0  0  0
  -22.3544  -14.5545   20.6688 O   0  0  0  0  0  0
  -24.6170  -31.8665   23.2087 C   0  0  0  0  0  0
  -25.9052  -32.4816   23.8389 C   0  0  1  0  0  0
  -27.2273  -27.4107   20.1075 C   0  0  0  0  0  0
  -25.5901  -33.8614   24.2321 N   0  0  0  0  0  0
  -23.4068  -30.4903   21.5491 C   0  0  2  0  0  0
  -24.8545  -28.9565   20.1109 C   0  0  0  0  0  0
  -22.7425  -29.4654   22.4971 C   0  0  0  0  0  0
  -18.0278  -28.1381   22.8496 C   0  0  0  0  0  0
  -24.1486  -36.7315   23.2639 C   0  0  0  0  0  0
  -25.9383  -30.8264   21.3654 C   0  0  0  0  0  0
  -26.0168  -29.4600   20.7106 C   0  0  0  0  0  0
  -27.2106  -28.6959   20.7034 C   0  0  0  0  0  0
  -26.0532  -26.9340   19.4885 C   0  0  0  0  0  0
  -24.8690  -27.6943   19.4933 C   0  0  0  0  0  0
  -23.6167  -29.8248   20.1631 C   0  0  0  0  0  0
  -25.4108  -36.3108   24.0337 C   0  0  1  0  0  0
  -20.5872  -28.3672   23.1311 C   0  0  2  0  0  0
  -20.6770  -26.9406   22.5418 C   0  0  0  0  0  0
  -19.5747  -26.6387   21.5216 C   0  0  0  0  0  0
  -18.1926  -26.7927   22.1626 C   0  0  0  0  0  0
  -19.1528  -28.8842   23.2902 C   0  0  0  0  0  0
  -18.9454  -30.1447   23.8914 C   0  0  0  0  0  0
  -17.6457  -30.6586   24.0567 C   0  0  0  0  0  0
  -25.9036  -34.9473   23.5127 C   0  0  0  0  0  0
  -16.5348  -29.9089   23.6327 C   0  0  0  0  0  0
  -16.7267  -28.6505   23.0350 C   0  0  0  0  0  0
  -26.4473  -31.6599   25.0722 C   0  0  0  0  0  0
  -25.3735  -31.3711   26.1469 C   0  0  0  0  0  0
  -27.0307  -30.3039   24.6109 C   0  0  0  0  0  0
  -27.6048  -32.4318   25.7485 C   0  0  0  0  0  0
  -27.5581  -37.1813   24.8465 C   0  0  0  0  0  0
  -21.4149  -29.3035   22.3710 N   0  0  0  0  0  0
  -26.4295  -37.3792   23.9407 N   0  0  0  0  0  0
  -24.6724  -31.0752   22.0995 N   0  0  0  0  0  0
  -23.4186  -28.8196   23.3021 O   0  0  0  0  0  0
  -28.3481  -26.6027   20.1356 O   0  0  0  0  0  0
  -26.5599  -34.8926   22.4688 O   0  0  0  0  0  0
  -23.5356  -32.1422   23.7469 O   0  0  0  0  0  0
  -29.1768  -20.5633   20.2241 C   0  0  0  0  0  0
  -29.6598  -21.8421   19.8291 C   0  0  0  0  0  0
  -30.9752  -21.8976   19.2972 C   0  0  0  0  0  0
  -29.9887  -19.4084   20.0760 C   0  0  0  0  0  0
  -31.7327  -20.7034   19.2345 C   0  0  0  0  0  0
  -31.5694  -23.1977   18.7612 C   0  0  0  0  0  0
  -33.1602  -20.6760   18.7187 C   0  0  0  0  0  0
  -29.0329  -17.4049   18.8716 C   0  0  0  0  0  0
  -28.7388  -23.0851   19.8819 C   0  0  0  0  0  0
  -29.2132  -24.2806   20.7652 C   0  0  0  0  0  0
  -30.3908  -16.9868   21.0235 C   0  0  0  0  0  0
  -28.1772  -25.4266   20.9622 C   0  0  0  0  0  0
  -29.4414  -17.9672   20.2457 C   0  0  1  0  0  0
  -31.2435  -19.5005   19.5915 N   0  0  0  0  0  0
  -29.9739  -15.5573   21.0217 N   0  0  0  0  0  0
  -31.4667  -12.4247   19.1331 H   0  0  0  0  0  0
  -30.3244  -11.3224   19.8459 H   0  0  0  0  0  0
  -29.7451  -11.7776   17.4402 H   0  0  0  0  0  0
  -29.6589  -13.4904   17.7676 H   0  0  0  0  0  0
  -27.8373  -11.3049   18.8302 H   0  0  0  0  0  0
  -27.3672  -12.6214   17.7883 H   0  0  0  0  0  0
  -27.6908  -14.2535   19.5557 H   0  0  0  0  0  0
  -28.6832  -11.9968   21.3646 H   0  0  0  0  0  0
  -28.4598  -13.6491   21.8568 H   0  0  0  0  0  0
  -25.2760   -9.5685   22.4755 H   0  0  0  0  0  0
  -24.0002   -7.4633   22.7471 H   0  0  0  0  0  0
  -21.0837   -8.8775   19.8953 H   0  0  0  0  0  0
  -22.3695  -10.9673   19.6163 H   0  0  0  0  0  0
  -21.2008   -7.6149   23.9723 H   0  0  0  0  0  0
  -21.1480   -6.0517   25.9079 H   0  0  0  0  0  0
  -22.0601   -2.7610   23.2839 H   0  0  0  0  0  0
  -22.4096  -11.9899   22.4796 H   0  0  0  0  0  0
  -21.1113  -13.1277   22.2608 H   0  0  0  0  0  0
  -24.6599  -15.8419   20.5151 H   0  0  0  0  0  0
  -26.2786  -15.6289   20.0805 H   0  0  0  0  0  0
  -26.7124  -32.5524   23.1154 H   0  0  0  0  0  0
  -25.0054  -33.9772   25.0468 H   0  0  0  0  0  0
  -22.6966  -31.3082   21.4102 H   0  0  0  0  0  0
  -23.3742  -35.9655   23.3314 H   0  0  0  0  0  0
  -24.3579  -36.8916   22.2051 H   0  0  0  0  0  0
  -23.7247  -37.6528   23.6644 H   0  0  0  0  0  0
  -26.0535  -31.5925   20.5974 H   0  0  0  0  0  0
  -26.8249  -30.8789   21.9858 H   0  0  0  0  0  0
  -28.1054  -29.0747   21.1772 H   0  0  0  0  0  0
  -26.0503  -25.9629   19.0137 H   0  0  0  0  0  0
  -23.9775  -27.3023   19.0232 H   0  0  0  0  0  0
  -23.7254  -30.6012   19.4047 H   0  0  0  0  0  0
  -22.7404  -29.2458   19.8662 H   0  0  0  0  0  0
  -25.1285  -36.1975   25.0831 H   0  0  0  0  0  0
  -20.9969  -28.3241   24.1430 H   0  0  0  0  0  0
  -20.5683  -26.2277   23.3605 H   0  0  0  0  0  0
  -21.6640  -26.7454   22.1204 H   0  0  0  0  0  0
  -19.6908  -25.6302   21.1237 H   0  0  0  0  0  0
  -19.6687  -27.3207   20.6753 H   0  0  0  0  0  0
  -17.4198  -26.6682   21.4025 H   0  0  0  0  0  0
  -18.0324  -26.0065   22.9018 H   0  0  0  0  0  0
  -19.7931  -30.7259   24.2290 H   0  0  0  0  0  0
  -17.5013  -31.6269   24.5165 H   0  0  0  0  0  0
  -15.5350  -30.2996   23.7642 H   0  0  0  0  0  0
  -15.8667  -28.0830   22.7055 H   0  0  0  0  0  0
  -24.5900  -30.7069   25.7805 H   0  0  0  0  0  0
  -24.8937  -32.2870   26.4928 H   0  0  0  0  0  0
  -25.8082  -30.8868   27.0222 H   0  0  0  0  0  0
  -26.2857  -29.6800   24.1155 H   0  0  0  0  0  0
  -27.4066  -29.7275   25.4573 H   0  0  0  0  0  0
  -27.8696  -30.4356   23.9271 H   0  0  0  0  0  0
  -27.2667  -33.3606   26.2094 H   0  0  0  0  0  0
  -28.3841  -32.6899   25.0302 H   0  0  0  0  0  0
  -28.0736  -31.8424   26.5375 H   0  0  0  0  0  0
  -28.2609  -38.0100   24.7501 H   0  0  0  0  0  0
  -28.1065  -36.2631   24.6304 H   0  0  0  0  0  0
  -27.2298  -37.1483   25.8869 H   0  0  0  0  0  0
  -20.9309  -29.8752   21.6929 H   0  0  0  0  0  0
  -26.0185  -38.2873   24.1397 H   0  0  0  0  0  0
  -28.1599  -20.4550   20.5769 H   0  0  0  0  0  0
  -32.1244  -23.7152   19.5441 H   0  0  0  0  0  0
  -30.8063  -23.8709   18.3734 H   0  0  0  0  0  0
  -32.2511  -23.0181   17.9305 H   0  0  0  0  0  0
  -33.7475  -21.4855   19.1521 H   0  0  0  0  0  0
  -33.1739  -20.7777   17.6336 H   0  0  0  0  0  0
  -33.6584  -19.7396   18.9723 H   0  0  0  0  0  0
  -28.3378  -18.0789   18.3705 H   0  0  0  0  0  0
  -28.5398  -16.4379   18.9538 H   0  0  0  0  0  0
  -29.9016  -17.2847   18.2240 H   0  0  0  0  0  0
  -27.7612  -22.7607   20.2398 H   0  0  0  0  0  0
  -28.5664  -23.4321   18.8628 H   0  0  0  0  0  0
  -30.1514  -24.7062   20.4179 H   0  0  0  0  0  0
  -29.4330  -23.8689   21.7509 H   0  0  0  0  0  0
  -30.4796  -17.3208   22.0576 H   0  0  0  0  0  0
  -31.3953  -17.0688   20.6065 H   0  0  0  0  0  0
  -28.2585  -25.7750   21.9930 H   0  0  0  0  0  0
  -27.1722  -25.0090   20.8857 H   0  0  0  0  0  0
  -28.5278  -18.0532   20.8358 H   0  0  0  0  0  0
  -29.0407  -15.3507   21.3445 H   0  0  0  0  0  0
  1 25  1  0  0  0
  1 30  2  0  0  0
  1 85  1  0  0  0
  2  3  1  0  0  0
  2 25  1  0  0  0
  2 86  1  0  0  0
  2 87  1  0  0  0
  3  4  1  0  0  0
  3 88  1  0  0  0
  3 89  1  0  0  0
  4  5  1  0  0  0
  4 90  1  0  0  0
  4 91  1  0  0  0
  5  6  1  0  0  0
  5 26  1  0  0  0
  5 92  1  0  0  0
  6 25  1  0  0  0
  6 93  1  0  0  0
  6 94  1  0  0  0
  7  8  2  0  0  0
  7 26  1  0  0  0
  7 29  1  0  0  0
  8  9  1  0  0  0
  8 22  1  0  0  0
  9 10  1  0  0  0
  9 27  2  0  0  0
 10 11  2  0  0  0
 10 15  1  0  0  0
 11 12  1  0  0  0
 11 95  1  0  0  0
 12 13  2  0  0  0
 12 96  1  0  0  0
 13 14  1  0  0  0
 13 31  1  0  0  0
 14 15  2  0  0  0
 14 97  1  0  0  0
 15 98  1  0  0  0
 16 17  2  0  0  0
 16 21  1  0  0  0
 16 31  1  0  0  0
 17 18  1  0  0  0
 17 99  1  0  0  0
 18 19  2  0  0  0
 18100  1  0  0  0
 19 20  1  0  0  0
 19 24  1  0  0  0
 20 21  2  0  0  0
 20101  1  0  0  0
 21 23  1  0  0  0
 22 28  1  0  0  0
 22 32  2  0  0  0
 26 27  1  0  0  0
 28102  1  0  0  0
 28103  1  0  0  0
 29104  1  0  0  0
 29105  1  0  0  0
 33 34  1  0  0  0
 33 66  1  0  0  0
 33 70  2  0  0  0
 34 36  1  0  0  0
 34 59  1  0  0  0
 34106  1  0  0  0
 35 44  2  0  0  0
 35 45  1  0  0  0
 35 68  1  0  0  0
 36 56  1  0  0  0
 36107  1  0  0  0
 37 39  1  0  0  0
 37 47  1  0  0  0
 37 66  1  0  0  0
 37108  1  0  0  0
 38 43  2  0  0  0
 38 46  1  0  0  0
 38 47  1  0  0  0
 39 64  1  0  0  0
 39 67  2  0  0  0
 40 52  1  0  0  0
 40 53  2  0  0  0
 40 58  1  0  0  0
 41109  1  0  0  0
 41110  1  0  0  0
 41111  1  0  0  0
 41 48  1  0  0  0
 42 43  1  0  0  0
 42 66  1  0  0  0
 42112  1  0  0  0
 42113  1  0  0  0
 43 44  1  0  0  0
 44114  1  0  0  0
 45 46  2  0  0  0
 45115  1  0  0  0
 46116  1  0  0  0
 47117  1  0  0  0
 47118  1  0  0  0
 48 56  1  0  0  0
 48 65  1  0  0  0
 48119  1  0  0  0
 49 50  1  0  0  0
 49 53  1  0  0  0
 49 64  1  0  0  0
 49120  1  0  0  0
 50 51  1  0  0  0
 50121  1  0  0  0
 50122  1  0  0  0
 51 52  1  0  0  0
 51123  1  0  0  0
 51124  1  0  0  0
 52125  1  0  0  0
 52126  1  0  0  0
 53 54  1  0  0  0
 54 55  2  0  0  0
 54127  1  0  0  0
 55 57  1  0  0  0
 55128  1  0  0  0
 56 69  2  0  0  0
 57 58  2  0  0  0
 57129  1  0  0  0
 58130  1  0  0  0
 59 60  1  0  0  0
 59 61  1  0  0  0
 59 62  1  0  0  0
 60131  1  0  0  0
 60132  1  0  0  0
 60133  1  0  0  0
 61134  1  0  0  0
 61135  1  0  0  0
 61136  1  0  0  0
 62137  1  0  0  0
 62138  1  0  0  0
 62139  1  0  0  0
 63 65  1  0  0  0
 63140  1  0  0  0
 63141  1  0  0  0
 63142  1  0  0  0
 64143  1  0  0  0
 65144  1  0  0  0
 68 82  1  0  0  0
 71 72  2  0  0  0
 71 74  1  0  0  0
 71145  1  0  0  0
 72 73  1  0  0  0
 72 79  1  0  0  0
 73 75  2  0  0  0
 73 76  1  0  0  0
 74 83  1  0  0  0
 74 84  2  0  0  0
 75 77  1  0  0  0
 75 84  1  0  0  0
 76146  1  0  0  0
 76147  1  0  0  0
 76148  1  0  0  0
 77149  1  0  0  0
 77150  1  0  0  0
 77151  1  0  0  0
 78152  1  0  0  0
 78153  1  0  0  0
 78154  1  0  0  0
 78 83  1  0  0  0
 79 80  1  0  0  0
 79155  1  0  0  0
 79156  1  0  0  0
 80 82  1  0  0  0
 80157  1  0  0  0
 80158  1  0  0  0
 81 83  1  0  0  0
 81 85  1  0  0  0
 81159  1  0  0  0
 81160  1  0  0  0
 82161  1  0  0  0
 82162  1  0  0  0
 83163  1  0  0  0
 85164  1  0  0  0
M  ISO  4   1 100  68 101  82 101  85 100
M  END
> <chiral flag>
0

> <version>
0

> <s_m_source_file>
/data/baiqing/PycharmProjects/Reinvent-master-3.2/result/LINK_invent/BTK/process_docking_weight1_custom_sum_contain_oxygen_bond_distance_aromatic_linkinvent_7_9_3/rearranged_h_0079.sdf

> <i_m_source_file_index>
85

> <r_mmod_Potential_Energy-OPLS-2005>
-241.462753295898

> <r_mmod_Stretch_Energy-OPLS-2005>
47.0963859558105

> <r_mmod_Bend_Energy-OPLS-2005>
101.741973876953

> <r_mmod_Torsional_Energy-OPLS-2005>
223.338195800781

> <r_mmod_Improper_Torsional_Energy-OPLS-2005>
4.78470325469971

> <r_mmod_Van_der_Waal_Energy-OPLS-2005>
154.507675170898

> <r_mmod_Electrostatic_Energy-OPLS-2005>
-568.8857421875

> <r_mmod_Solvation_Energy-OPLS-2005>
-223.463775634766

> <b_mmod_Minimization_Converged-OPLS-2005>
0

> <r_mmod_RMS_Derivative-OPLS-2005>
0.498629152774811

$$$$
85
                    3D
 Structure written by MMmdl.
151159  0  0  1  0            999 V2000
  -30.5497  -14.8985   20.4250 C   0  0  0  0  0  0
  -30.4375  -12.5550   19.4909 C   0  0  0  0  0  0
  -29.5175  -12.5185   18.2494 C   0  0  0  0  0  0
  -28.0493  -12.3117   18.6685 C   0  0  0  0  0  0
  -27.6301  -13.2414   19.8375 C   0  0  2  0  0  0
  -28.6713  -13.2510   20.9756 C   0  0  0  0  0  0
  -25.2463  -13.8205   20.5691 C   0  0  0  0  0  0
  -24.1777  -13.0438   20.9218 C   0  0  0  0  0  0
  -24.6380  -11.6922   20.8746 C   0  0  0  0  0  0
  -23.9066  -10.4295   21.0412 C   0  0  0  0  0  0
  -24.3619   -9.4211   21.9189 C   0  0  0  0  0  0
  -23.6293   -8.2246   22.0758 C   0  0  0  0  0  0
  -22.4276   -8.0281   21.3547 C   0  0  0  0  0  0
  -21.9913   -9.0253   20.4650 C   0  0  0  0  0  0
  -22.7239  -10.2134   20.3058 C   0  0  0  0  0  0
  -21.6856   -6.0735   22.5282 C   0  0  0  0  0  0
  -21.4015   -6.5638   23.8212 C   0  0  0  0  0  0
  -21.3657   -5.6792   24.9176 C   0  0  0  0  0  0
  -21.6043   -4.3054   24.7228 C   0  0  0  0  0  0
  -21.8819   -3.8146   23.4350 C   0  0  0  0  0  0
  -21.9192   -4.6962   22.3404 C   0  0  0  0  0  0
  -22.7798  -13.5217   21.1876 C   0  0  0  0  0  0
  -22.1662   -4.2147   21.0983 F   0  0  0  0  0  0
  -21.5626   -3.4539   25.7742 F   0  0  0  0  0  0
  -29.9514  -13.6465   20.3781 N   0  0  0  0  0  0
  -26.2879  -12.9424   20.3230 N   0  0  0  0  0  0
  -25.9310  -11.6562   20.5737 N   0  0  0  0  0  0
  -22.0443  -12.8202   22.0431 N   0  0  0  0  0  0
  -25.4124  -15.1931   20.4102 N   0  0  0  0  0  0
  -31.7547  -14.9700   20.1634 O   0  0  0  0  0  0
  -21.6639   -6.8877   21.4242 O   0  0  0  0  0  0
  -22.3483  -14.5518   20.6719 O   0  0  0  0  0  0
  -24.6391  -31.8457   23.1891 C   0  0  0  0  0  0
  -25.9182  -32.4697   23.8261 C   0  0  1  0  0  0
  -27.2204  -27.1671   20.1491 C   0  0  0  0  0  0
  -25.5948  -33.8503   24.2186 N   0  0  0  0  0  0
  -23.4406  -30.4628   21.5344 C   0  0  2  0  0  0
  -24.8879  -28.8827   20.1160 C   0  0  0  0  0  0
  -22.7534  -29.4550   22.4882 C   0  0  0  0  0  0
  -18.0291  -28.1388   22.8469 C   0  0  0  0  0  0
  -24.1492  -36.7264   23.2642 C   0  0  0  0  0  0
  -25.9908  -30.7275   21.3815 C   0  0  0  0  0  0
  -26.0609  -29.3370   20.7315 C   0  0  0  0  0  0
  -27.2267  -28.4920   20.7335 C   0  0  0  0  0  0
  -26.0230  -26.7949   19.5052 C   0  0  0  0  0  0
  -24.8767  -27.6223   19.4938 C   0  0  0  0  0  0
  -23.6650  -29.7856   20.1549 C   0  0  0  0  0  0
  -25.4124  -36.3033   24.0312 C   0  0  1  0  0  0
  -20.5901  -28.3711   23.1247 C   0  0  2  0  0  0
  -20.6786  -26.9418   22.5410 C   0  0  0  0  0  0
  -19.5765  -26.6379   21.5212 C   0  0  0  0  0  0
  -18.1938  -26.7927   22.1613 C   0  0  0  0  0  0
  -19.1546  -28.8865   23.2849 C   0  0  0  0  0  0
  -18.9471  -30.1461   23.8879 C   0  0  0  0  0  0
  -17.6473  -30.6590   24.0556 C   0  0  0  0  0  0
  -25.9074  -34.9409   23.5059 C   0  0  0  0  0  0
  -16.5359  -29.9086   23.6338 C   0  0  0  0  0  0
  -16.7279  -28.6502   23.0357 C   0  0  0  0  0  0
  -26.4519  -31.6562   25.0697 C   0  0  0  0  0  0
  -25.3715  -31.3748   26.1406 C   0  0  0  0  0  0
  -27.0389  -30.2960   24.6262 C   0  0  0  0  0  0
  -27.6047  -32.4334   25.7488 C   0  0  0  0  0  0
  -27.5570  -37.1783   24.8460 C   0  0  0  0  0  0
  -21.4231  -29.3043   22.3625 N   0  0  0  0  0  0
  -26.4284  -37.3744   23.9404 N   0  0  0  0  0  0
  -24.7098  -31.0333   22.0910 N   0  0  0  0  0  0
  -23.4192  -28.8092   23.3019 O   0  0  0  0  0  0
  -28.3353  -26.2715   20.1358 O   0  0  0  0  0  0
  -26.5659  -34.8909   22.4636 O   0  0  0  0  0  0
  -23.5524  -32.1326   23.7138 O   0  0  0  0  0  0
  -29.4341  -22.8452   19.2371 C   0  0  0  0  0  0
  -28.9886  -21.9351   20.2561 C   0  0  0  0  0  0
  -27.8677  -23.8964   21.1366 C   0  0  0  0  0  0
  -28.3546  -24.8080   20.1281 C   0  0  0  0  0  0
  -27.0170  -24.4267   22.2706 C   0  0  0  0  0  0
  -29.7047  -20.4716   20.5052 C   0  0  0  0  0  0
  -29.1443  -18.9059   20.3448 C   0  0  0  0  0  0
  -30.1731  -17.5914   20.5421 C   0  0  0  0  0  0
  -29.1463  -24.2055   19.1812 N   0  0  0  0  0  0
  -28.1732  -22.5280   21.1992 N   0  0  0  0  0  0
  -29.7691  -16.0733   20.5568 N   0  0  0  0  0  0
  -31.4731  -12.7089   19.1822 H   0  0  0  0  0  0
  -30.4208  -11.5991   20.0163 H   0  0  0  0  0  0
  -29.8295  -11.7243   17.5696 H   0  0  0  0  0  0
  -29.6129  -13.4531   17.6945 H   0  0  0  0  0  0
  -27.9399  -11.2696   18.9710 H   0  0  0  0  0  0
  -27.3867  -12.4504   17.8134 H   0  0  0  0  0  0
  -27.5995  -14.2467   19.4161 H   0  0  0  0  0  0
  -28.7463  -12.2718   21.4509 H   0  0  0  0  0  0
  -28.3794  -13.9540   21.7579 H   0  0  0  0  0  0
  -25.2761   -9.5691   22.4770 H   0  0  0  0  0  0
  -24.0000   -7.4640   22.7483 H   0  0  0  0  0  0
  -21.0842   -8.8771   19.8959 H   0  0  0  0  0  0
  -22.3692  -10.9673   19.6171 H   0  0  0  0  0  0
  -21.2008   -7.6147   23.9716 H   0  0  0  0  0  0
  -21.1478   -6.0523   25.9078 H   0  0  0  0  0  0
  -22.0598   -2.7608   23.2852 H   0  0  0  0  0  0
  -22.4057  -11.9868   22.4823 H   0  0  0  0  0  0
  -21.1065  -13.1236   22.2645 H   0  0  0  0  0  0
  -24.6376  -15.8400   20.5087 H   0  0  0  0  0  0
  -26.2507  -15.6352   20.0560 H   0  0  0  0  0  0
  -26.7241  -32.5310   23.0986 H   0  0  0  0  0  0
  -25.0067  -33.9615   25.0315 H   0  0  0  0  0  0
  -22.7423  -31.2875   21.3786 H   0  0  0  0  0  0
  -23.3746  -35.9602   23.3302 H   0  0  0  0  0  0
  -24.3569  -36.8907   22.2055 H   0  0  0  0  0  0
  -23.7260  -37.6464   23.6687 H   0  0  0  0  0  0
  -26.1388  -31.4798   20.6049 H   0  0  0  0  0  0
  -26.8638  -30.7818   22.0199 H   0  0  0  0  0  0
  -28.1314  -28.8397   21.2131 H   0  0  0  0  0  0
  -25.9636  -25.8317   19.0183 H   0  0  0  0  0  0
  -23.9780  -27.2710   19.0051 H   0  0  0  0  0  0
  -23.8013  -30.5573   19.3960 H   0  0  0  0  0  0
  -22.7799  -29.2266   19.8471 H   0  0  0  0  0  0
  -25.1312  -36.1861   25.0803 H   0  0  0  0  0  0
  -20.9980  -28.3308   24.1373 H   0  0  0  0  0  0
  -20.5691  -26.2320   23.3620 H   0  0  0  0  0  0
  -21.6654  -26.7447   22.1200 H   0  0  0  0  0  0
  -19.6935  -25.6288   21.1251 H   0  0  0  0  0  0
  -19.6710  -27.3183   20.6734 H   0  0  0  0  0  0
  -17.4212  -26.6665   21.4008 H   0  0  0  0  0  0
  -18.0333  -26.0073   22.9012 H   0  0  0  0  0  0
  -19.7951  -30.7265   24.2249 H   0  0  0  0  0  0
  -17.5035  -31.6271   24.5155 H   0  0  0  0  0  0
  -15.5362  -30.2981   23.7685 H   0  0  0  0  0  0
  -15.8673  -28.0820   22.7090 H   0  0  0  0  0  0
  -24.5904  -30.7084   25.7729 H   0  0  0  0  0  0
  -24.8895  -32.2929   26.4769 H   0  0  0  0  0  0
  -25.8007  -30.8966   27.0222 H   0  0  0  0  0  0
  -26.3005  -29.6664   24.1284 H   0  0  0  0  0  0
  -27.4024  -29.7275   25.4832 H   0  0  0  0  0  0
  -27.8896  -30.4192   23.9557 H   0  0  0  0  0  0
  -27.2636  -33.3659   26.1998 H   0  0  0  0  0  0
  -28.3894  -32.6857   25.0342 H   0  0  0  0  0  0
  -28.0673  -31.8508   26.5463 H   0  0  0  0  0  0
  -28.2579  -38.0086   24.7507 H   0  0  0  0  0  0
  -28.1074  -36.2613   24.6294 H   0  0  0  0  0  0
  -27.2284  -37.1450   25.8863 H   0  0  0  0  0  0
  -20.9436  -29.8757   21.6807 H   0  0  0  0  0  0
  -26.0150  -38.2810   24.1415 H   0  0  0  0  0  0
  -30.1266  -22.4959   18.4847 H   0  0  0  0  0  0
  -27.5558  -25.2018   22.8159 H   0  0  0  0  0  0
  -26.7436  -23.6394   22.9733 H   0  0  0  0  0  0
  -26.0986  -24.8618   21.8780 H   0  0  0  0  0  0
  -30.0942  -20.5384   21.5205 H   0  0  0  0  0  0
  -30.6008  -20.5112   19.8849 H   0  0  0  0  0  0
  -28.7051  -18.8224   19.3507 H   0  0  0  0  0  0
  -28.3095  -18.7897   21.0357 H   0  0  0  0  0  0
  -30.6928  -17.7489   21.4878 H   0  0  0  0  0  0
  -30.9547  -17.6849   19.7866 H   0  0  0  0  0  0
  -28.7875  -15.8970   20.7128 H   0  0  0  0  0  0
  1 25  1  0  0  0
  1 30  2  0  0  0
  1 81  1  0  0  0
  2  3  1  0  0  0
  2 25  1  0  0  0
  2 82  1  0  0  0
  2 83  1  0  0  0
  3  4  1  0  0  0
  3 84  1  0  0  0
  3 85  1  0  0  0
  4  5  1  0  0  0
  4 86  1  0  0  0
  4 87  1  0  0  0
  5  6  1  0  0  0
  5 26  1  0  0  0
  5 88  1  0  0  0
  6 25  1  0  0  0
  6 89  1  0  0  0
  6 90  1  0  0  0
  7  8  2  0  0  0
  7 26  1  0  0  0
  7 29  1  0  0  0
  8  9  1  0  0  0
  8 22  1  0  0  0
  9 10  1  0  0  0
  9 27  2  0  0  0
 10 11  2  0  0  0
 10 15  1  0  0  0
 11 12  1  0  0  0
 11 91  1  0  0  0
 12 13  2  0  0  0
 12 92  1  0  0  0
 13 14  1  0  0  0
 13 31  1  0  0  0
 14 15  2  0  0  0
 14 93  1  0  0  0
 15 94  1  0  0  0
 16 17  2  0  0  0
 16 21  1  0  0  0
 16 31  1  0  0  0
 17 18  1  0  0  0
 17 95  1  0  0  0
 18 19  2  0  0  0
 18 96  1  0  0  0
 19 20  1  0  0  0
 19 24  1  0  0  0
 20 21  2  0  0  0
 20 97  1  0  0  0
 21 23  1  0  0  0
 22 28  1  0  0  0
 22 32  2  0  0  0
 26 27  1  0  0  0
 28 98  1  0  0  0
 28 99  1  0  0  0
 29100  1  0  0  0
 29101  1  0  0  0
 33 34  1  0  0  0
 33 66  1  0  0  0
 33 70  2  0  0  0
 34 36  1  0  0  0
 34 59  1  0  0  0
 34102  1  0  0  0
 35 44  2  0  0  0
 35 45  1  0  0  0
 35 68  1  0  0  0
 36 56  1  0  0  0
 36103  1  0  0  0
 37 39  1  0  0  0
 37 47  1  0  0  0
 37 66  1  0  0  0
 37104  1  0  0  0
 38 43  2  0  0  0
 38 46  1  0  0  0
 38 47  1  0  0  0
 39 64  1  0  0  0
 39 67  2  0  0  0
 40 52  1  0  0  0
 40 53  2  0  0  0
 40 58  1  0  0  0
 41105  1  0  0  0
 41106  1  0  0  0
 41107  1  0  0  0
 41 48  1  0  0  0
 42 43  1  0  0  0
 42 66  1  0  0  0
 42108  1  0  0  0
 42109  1  0  0  0
 43 44  1  0  0  0
 44110  1  0  0  0
 45 46  2  0  0  0
 45111  1  0  0  0
 46112  1  0  0  0
 47113  1  0  0  0
 47114  1  0  0  0
 48 56  1  0  0  0
 48 65  1  0  0  0
 48115  1  0  0  0
 49 50  1  0  0  0
 49 53  1  0  0  0
 49 64  1  0  0  0
 49116  1  0  0  0
 50 51  1  0  0  0
 50117  1  0  0  0
 50118  1  0  0  0
 51 52  1  0  0  0
 51119  1  0  0  0
 51120  1  0  0  0
 52121  1  0  0  0
 52122  1  0  0  0
 53 54  1  0  0  0
 54 55  2  0  0  0
 54123  1  0  0  0
 55 57  1  0  0  0
 55124  1  0  0  0
 56 69  2  0  0  0
 57 58  2  0  0  0
 57125  1  0  0  0
 58126  1  0  0  0
 59 60  1  0  0  0
 59 61  1  0  0  0
 59 62  1  0  0  0
 60127  1  0  0  0
 60128  1  0  0  0
 60129  1  0  0  0
 61130  1  0  0  0
 61131  1  0  0  0
 61132  1  0  0  0
 62133  1  0  0  0
 62134  1  0  0  0
 62135  1  0  0  0
 63 65  1  0  0  0
 63136  1  0  0  0
 63137  1  0  0  0
 63138  1  0  0  0
 64139  1  0  0  0
 65140  1  0  0  0
 68 74  1  0  0  0
 71 72  2  0  0  0
 71 79  1  0  0  0
 71141  1  0  0  0
 72 76  1  0  0  0
 72 80  1  0  0  0
 73 74  1  0  0  0
 73 75  1  0  0  0
 73 80  2  0  0  0
 74 79  2  0  0  0
 75142  1  0  0  0
 75143  1  0  0  0
 75144  1  0  0  0
 76 77  1  0  0  0
 76145  1  0  0  0
 76146  1  0  0  0
 77 78  1  0  0  0
 77147  1  0  0  0
 77148  1  0  0  0
 78 81  1  0  0  0
 78149  1  0  0  0
 78150  1  0  0  0
 81151  1  0  0  0
M  ISO  4   1 100  68 101  74 101  81 100
M  END
> <chiral flag>
0

> <version>
0

> <s_m_source_file>
/data/baiqing/PycharmProjects/Reinvent-master-3.2/result/LINK_invent/BTK/process_docking_weight1_custom_sum_contain_oxygen_bond_distance_aromatic_linkinvent_7_9_3/rearranged_h_0079.sdf

> <i_m_source_file_index>
86

> <r_mmod_Potential_Energy-OPLS-2005>
417.151458740234

> <r_mmod_Stretch_Energy-OPLS-2005>
207.020751953125

> <r_mmod_Bend_Energy-OPLS-2005>
240.485122680664

> <r_mmod_Torsional_Energy-OPLS-2005>
211.204299926758

> <r_mmod_Improper_Torsional_Energy-OPLS-2005>
8.49455451965332

> <r_mmod_Van_der_Waal_Energy-OPLS-2005>
127.514236450195

> <r_mmod_Electrostatic_Energy-OPLS-2005>
-309.912628173828

> <r_mmod_Solvation_Energy-OPLS-2005>
-221.74089050293

> <b_mmod_Minimization_Converged-OPLS-2005>
0

> <r_mmod_RMS_Derivative-OPLS-2005>
1.0360119342804

$$$$
86
                    3D
 Structure written by MMmdl.
155163  0  0  1  0            999 V2000
  -30.7043  -14.5438   20.5448 C   0  0  0  0  0  0
  -30.4390  -12.3275   19.4346 C   0  0  0  0  0  0
  -29.4981  -12.4651   18.2175 C   0  0  0  0  0  0
  -28.0279  -12.3095   18.6531 C   0  0  0  0  0  0
  -27.6669  -13.2024   19.8677 C   0  0  2  0  0  0
  -28.7147  -13.0429   20.9984 C   0  0  0  0  0  0
  -25.2673  -13.8124   20.5664 C   0  0  0  0  0  0
  -24.1922  -13.0418   20.9170 C   0  0  0  0  0  0
  -24.6461  -11.6874   20.8748 C   0  0  0  0  0  0
  -23.9118  -10.4296   21.0461 C   0  0  0  0  0  0
  -24.3672   -9.4190   21.9248 C   0  0  0  0  0  0
  -23.6327   -8.2225   22.0778 C   0  0  0  0  0  0
  -22.4315   -8.0334   21.3557 C   0  0  0  0  0  0
  -21.9968   -9.0318   20.4663 C   0  0  0  0  0  0
  -22.7294  -10.2192   20.3093 C   0  0  0  0  0  0
  -21.6870   -6.0775   22.5279 C   0  0  0  0  0  0
  -21.4029   -6.5664   23.8214 C   0  0  0  0  0  0
  -21.3636   -5.6808   24.9172 C   0  0  0  0  0  0
  -21.6005   -4.3074   24.7222 C   0  0  0  0  0  0
  -21.8793   -3.8183   23.4338 C   0  0  0  0  0  0
  -21.9185   -4.7000   22.3398 C   0  0  0  0  0  0
  -22.7934  -13.5229   21.1770 C   0  0  0  0  0  0
  -22.1666   -4.2190   21.0979 F   0  0  0  0  0  0
  -21.5606   -3.4562   25.7735 F   0  0  0  0  0  0
  -30.0490  -13.3404   20.4388 N   0  0  0  0  0  0
  -26.3105  -12.9292   20.3350 N   0  0  0  0  0  0
  -25.9398  -11.6447   20.5809 N   0  0  0  0  0  0
  -22.0566  -12.8324   22.0362 N   0  0  0  0  0  0
  -25.4419  -15.1844   20.4095 N   0  0  0  0  0  0
  -31.8266  -14.7404   20.0815 O   0  0  0  0  0  0
  -21.6619   -6.8979   21.4286 O   0  0  0  0  0  0
  -22.3632  -14.5502   20.6553 O   0  0  0  0  0  0
  -24.6180  -31.8640   23.2098 C   0  0  0  0  0  0
  -25.9059  -32.4797   23.8380 C   0  0  1  0  0  0
  -27.2378  -27.3714   20.0948 C   0  0  0  0  0  0
  -25.5911  -33.8611   24.2302 N   0  0  0  0  0  0
  -23.4060  -30.4907   21.5519 C   0  0  2  0  0  0
  -24.8512  -28.9485   20.1117 C   0  0  0  0  0  0
  -22.7402  -29.4660   22.4989 C   0  0  0  0  0  0
  -18.0264  -28.1392   22.8492 C   0  0  0  0  0  0
  -24.1478  -36.7297   23.2635 C   0  0  0  0  0  0
  -25.9413  -30.8089   21.3729 C   0  0  0  0  0  0
  -26.0146  -29.4403   20.7125 C   0  0  0  0  0  0
  -27.2019  -28.6611   20.7002 C   0  0  0  0  0  0
  -26.0453  -26.9114   19.4840 C   0  0  0  0  0  0
  -24.8657  -27.6861   19.4950 C   0  0  0  0  0  0
  -23.6142  -29.8232   20.1659 C   0  0  0  0  0  0
  -25.4101  -36.3104   24.0330 C   0  0  1  0  0  0
  -20.5861  -28.3695   23.1290 C   0  0  2  0  0  0
  -20.6754  -26.9426   22.5415 C   0  0  0  0  0  0
  -19.5739  -26.6394   21.5202 C   0  0  0  0  0  0
  -18.1916  -26.7942   22.1619 C   0  0  0  0  0  0
  -19.1525  -28.8858   23.2895 C   0  0  0  0  0  0
  -18.9462  -30.1452   23.8922 C   0  0  0  0  0  0
  -17.6473  -30.6599   24.0577 C   0  0  0  0  0  0
  -25.9044  -34.9470   23.5123 C   0  0  0  0  0  0
  -16.5353  -29.9104   23.6342 C   0  0  0  0  0  0
  -16.7254  -28.6517   23.0361 C   0  0  0  0  0  0
  -26.4491  -31.6606   25.0741 C   0  0  0  0  0  0
  -25.3751  -31.3753   26.1498 C   0  0  0  0  0  0
  -27.0306  -30.3024   24.6174 C   0  0  0  0  0  0
  -27.6071  -32.4348   25.7472 C   0  0  0  0  0  0
  -27.5584  -37.1785   24.8466 C   0  0  0  0  0  0
  -21.4139  -29.3048   22.3691 N   0  0  0  0  0  0
  -26.4278  -37.3796   23.9437 N   0  0  0  0  0  0
  -24.6731  -31.0672   22.1032 N   0  0  0  0  0  0
  -23.4152  -28.8207   23.3056 O   0  0  0  0  0  0
  -28.4198  -26.6270   20.1574 O   0  0  0  0  0  0
  -26.5616  -34.8921   22.4692 O   0  0  0  0  0  0
  -23.5370  -32.1438   23.7459 O   0  0  0  0  0  0
  -29.6530  -19.3901   20.3015 C   0  0  0  0  0  0
  -30.4885  -20.4802   20.1667 C   0  0  0  0  0  0
  -31.9636  -20.5699   19.8832 C   0  0  0  0  0  0
  -29.8542  -17.8929   20.0383 C   0  0  0  0  0  0
  -29.1636  -24.1942   20.5514 C   0  0  0  0  0  0
  -29.8810  -22.9963   19.8240 C   0  0  0  0  0  0
  -30.3152  -16.9975   21.2397 C   0  0  0  0  0  0
  -28.5807  -25.2933   19.5830 C   0  0  0  0  0  0
  -28.3820  -19.8840   20.6013 N   0  0  0  0  0  0
  -28.3827  -21.1858   20.5542 N   0  0  0  0  0  0
  -29.6393  -21.5946   20.2555 N   0  0  0  0  0  0
  -29.9772  -15.5560   21.0731 N   0  0  0  0  0  0
  -31.4793  -12.4233   19.1161 H   0  0  0  0  0  0
  -30.3572  -11.3220   19.8546 H   0  0  0  0  0  0
  -29.7297  -11.7192   17.4548 H   0  0  0  0  0  0
  -29.6678  -13.4335   17.7459 H   0  0  0  0  0  0
  -27.8719  -11.2647   18.9265 H   0  0  0  0  0  0
  -27.3619  -12.4928   17.8110 H   0  0  0  0  0  0
  -27.6916  -14.2311   19.5077 H   0  0  0  0  0  0
  -28.6904  -12.0278   21.3979 H   0  0  0  0  0  0
  -28.4633  -13.6897   21.8416 H   0  0  0  0  0  0
  -25.2833   -9.5602   22.4856 H   0  0  0  0  0  0
  -23.9971   -7.4592   22.7498 H   0  0  0  0  0  0
  -21.0866   -8.8850   19.9039 H   0  0  0  0  0  0
  -22.3745  -10.9758   19.6215 H   0  0  0  0  0  0
  -21.2052   -7.6180   23.9731 H   0  0  0  0  0  0
  -21.1483   -6.0553   25.9059 H   0  0  0  0  0  0
  -22.0610   -2.7661   23.2802 H   0  0  0  0  0  0
  -22.4201  -12.0023   22.4805 H   0  0  0  0  0  0
  -21.1240  -13.1487   22.2504 H   0  0  0  0  0  0
  -24.6898  -15.8553   20.5201 H   0  0  0  0  0  0
  -26.2877  -15.6144   20.0608 H   0  0  0  0  0  0
  -26.7126  -32.5486   23.1125 H   0  0  0  0  0  0
  -25.0045  -33.9760   25.0444 H   0  0  0  0  0  0
  -22.6987  -31.3125   21.4175 H   0  0  0  0  0  0
  -23.3743  -35.9628   23.3308 H   0  0  0  0  0  0
  -24.3575  -36.8907   22.2049 H   0  0  0  0  0  0
  -23.7207  -37.6497   23.6645 H   0  0  0  0  0  0
  -26.0622  -31.5764   20.6077 H   0  0  0  0  0  0
  -26.8242  -30.8564   21.9980 H   0  0  0  0  0  0
  -28.0939  -29.0417   21.1758 H   0  0  0  0  0  0
  -25.9782  -25.9501   19.0029 H   0  0  0  0  0  0
  -23.9673  -27.3019   19.0287 H   0  0  0  0  0  0
  -23.7199  -30.6033   19.4114 H   0  0  0  0  0  0
  -22.7341  -29.2497   19.8703 H   0  0  0  0  0  0
  -25.1269  -36.1964   25.0816 H   0  0  0  0  0  0
  -20.9945  -28.3272   24.1414 H   0  0  0  0  0  0
  -20.5621  -26.2324   23.3614 H   0  0  0  0  0  0
  -21.6626  -26.7454   22.1233 H   0  0  0  0  0  0
  -19.6910  -25.6301   21.1238 H   0  0  0  0  0  0
  -19.6671  -27.3197   20.6720 H   0  0  0  0  0  0
  -17.4180  -26.6680   21.4024 H   0  0  0  0  0  0
  -18.0344  -26.0074   22.9011 H   0  0  0  0  0  0
  -19.7936  -30.7248   24.2309 H   0  0  0  0  0  0
  -17.5033  -31.6279   24.5183 H   0  0  0  0  0  0
  -15.5359  -30.3025   23.7654 H   0  0  0  0  0  0
  -15.8650  -28.0832   22.7097 H   0  0  0  0  0  0
  -24.5887  -30.7142   25.7853 H   0  0  0  0  0  0
  -24.8986  -32.2927   26.4964 H   0  0  0  0  0  0
  -25.8087  -30.8904   27.0250 H   0  0  0  0  0  0
  -26.2852  -29.6789   24.1219 H   0  0  0  0  0  0
  -27.4029  -29.7278   25.4669 H   0  0  0  0  0  0
  -27.8726  -30.4315   23.9362 H   0  0  0  0  0  0
  -27.2677  -33.3607   26.2123 H   0  0  0  0  0  0
  -28.3799  -32.6984   25.0244 H   0  0  0  0  0  0
  -28.0836  -31.8451   26.5310 H   0  0  0  0  0  0
  -28.2606  -38.0083   24.7544 H   0  0  0  0  0  0
  -28.1069  -36.2623   24.6237 H   0  0  0  0  0  0
  -27.2325  -37.1383   25.8874 H   0  0  0  0  0  0
  -20.9316  -29.8754   21.6895 H   0  0  0  0  0  0
  -26.0167  -38.2867   24.1493 H   0  0  0  0  0  0
  -32.4483  -19.5982   19.9756 H   0  0  0  0  0  0
  -32.4613  -21.2366   20.5881 H   0  0  0  0  0  0
  -32.1600  -20.9500   18.8812 H   0  0  0  0  0  0
  -30.5330  -17.7780   19.1889 H   0  0  0  0  0  0
  -28.9162  -17.4848   19.6526 H   0  0  0  0  0  0
  -29.9140  -24.6649   21.1884 H   0  0  0  0  0  0
  -28.3838  -23.8445   21.2276 H   0  0  0  0  0  0
  -30.9547  -23.1781   19.8445 H   0  0  0  0  0  0
  -29.6200  -23.0261   18.7673 H   0  0  0  0  0  0
  -31.3842  -17.1417   21.4164 H   0  0  0  0  0  0
  -29.8263  -17.3176   22.1680 H   0  0  0  0  0  0
  -27.6837  -24.8814   19.1304 H   0  0  0  0  0  0
  -29.2787  -25.4232   18.7513 H   0  0  0  0  0  0
  -29.0657  -15.2943   21.4093 H   0  0  0  0  0  0
  1 25  1  0  0  0
  1 30  2  0  0  0
  1 82  1  0  0  0
  2  3  1  0  0  0
  2 25  1  0  0  0
  2 83  1  0  0  0
  2 84  1  0  0  0
  3  4  1  0  0  0
  3 85  1  0  0  0
  3 86  1  0  0  0
  4  5  1  0  0  0
  4 87  1  0  0  0
  4 88  1  0  0  0
  5  6  1  0  0  0
  5 26  1  0  0  0
  5 89  1  0  0  0
  6 25  1  0  0  0
  6 90  1  0  0  0
  6 91  1  0  0  0
  7  8  2  0  0  0
  7 26  1  0  0  0
  7 29  1  0  0  0
  8  9  1  0  0  0
  8 22  1  0  0  0
  9 10  1  0  0  0
  9 27  2  0  0  0
 10 11  2  0  0  0
 10 15  1  0  0  0
 11 12  1  0  0  0
 11 92  1  0  0  0
 12 13  2  0  0  0
 12 93  1  0  0  0
 13 14  1  0  0  0
 13 31  1  0  0  0
 14 15  2  0  0  0
 14 94  1  0  0  0
 15 95  1  0  0  0
 16 17  2  0  0  0
 16 21  1  0  0  0
 16 31  1  0  0  0
 17 18  1  0  0  0
 17 96  1  0  0  0
 18 19  2  0  0  0
 18 97  1  0  0  0
 19 20  1  0  0  0
 19 24  1  0  0  0
 20 21  2  0  0  0
 20 98  1  0  0  0
 21 23  1  0  0  0
 22 28  1  0  0  0
 22 32  2  0  0  0
 26 27  1  0  0  0
 28 99  1  0  0  0
 28100  1  0  0  0
 29101  1  0  0  0
 29102  1  0  0  0
 33 34  1  0  0  0
 33 66  1  0  0  0
 33 70  2  0  0  0
 34 36  1  0  0  0
 34 59  1  0  0  0
 34103  1  0  0  0
 35 44  2  0  0  0
 35 45  1  0  0  0
 35 68  1  0  0  0
 36 56  1  0  0  0
 36104  1  0  0  0
 37 39  1  0  0  0
 37 47  1  0  0  0
 37 66  1  0  0  0
 37105  1  0  0  0
 38 43  2  0  0  0
 38 46  1  0  0  0
 38 47  1  0  0  0
 39 64  1  0  0  0
 39 67  2  0  0  0
 40 52  1  0  0  0
 40 53  2  0  0  0
 40 58  1  0  0  0
 41106  1  0  0  0
 41107  1  0  0  0
 41108  1  0  0  0
 41 48  1  0  0  0
 42 43  1  0  0  0
 42 66  1  0  0  0
 42109  1  0  0  0
 42110  1  0  0  0
 43 44  1  0  0  0
 44111  1  0  0  0
 45 46  2  0  0  0
 45112  1  0  0  0
 46113  1  0  0  0
 47114  1  0  0  0
 47115  1  0  0  0
 48 56  1  0  0  0
 48 65  1  0  0  0
 48116  1  0  0  0
 49 50  1  0  0  0
 49 53  1  0  0  0
 49 64  1  0  0  0
 49117  1  0  0  0
 50 51  1  0  0  0
 50118  1  0  0  0
 50119  1  0  0  0
 51 52  1  0  0  0
 51120  1  0  0  0
 51121  1  0  0  0
 52122  1  0  0  0
 52123  1  0  0  0
 53 54  1  0  0  0
 54 55  2  0  0  0
 54124  1  0  0  0
 55 57  1  0  0  0
 55125  1  0  0  0
 56 69  2  0  0  0
 57 58  2  0  0  0
 57126  1  0  0  0
 58127  1  0  0  0
 59 60  1  0  0  0
 59 61  1  0  0  0
 59 62  1  0  0  0
 60128  1  0  0  0
 60129  1  0  0  0
 60130  1  0  0  0
 61131  1  0  0  0
 61132  1  0  0  0
 61133  1  0  0  0
 62134  1  0  0  0
 62135  1  0  0  0
 62136  1  0  0  0
 63 65  1  0  0  0
 63137  1  0  0  0
 63138  1  0  0  0
 63139  1  0  0  0
 64140  1  0  0  0
 65141  1  0  0  0
 68 78  1  0  0  0
 71 72  2  0  0  0
 71 74  1  0  0  0
 71 79  1  0  0  0
 72 73  1  0  0  0
 72 81  1  0  0  0
 73142  1  0  0  0
 73143  1  0  0  0
 73144  1  0  0  0
 74 77  1  0  0  0
 74145  1  0  0  0
 74146  1  0  0  0
 75 76  1  0  0  0
 75 78  1  0  0  0
 75147  1  0  0  0
 75148  1  0  0  0
 76 81  1  0  0  0
 76149  1  0  0  0
 76150  1  0  0  0
 77 82  1  0  0  0
 77151  1  0  0  0
 77152  1  0  0  0
 78153  1  0  0  0
 78154  1  0  0  0
 79 80  2  0  0  0
 80 81  1  0  0  0
 82155  1  0  0  0
M  ISO  4   1 100  68 101  78 101  82 100
M  END
> <chiral flag>
0

> <version>
0

> <s_m_source_file>
/data/baiqing/PycharmProjects/Reinvent-master-3.2/result/LINK_invent/BTK/process_docking_weight1_custom_sum_contain_oxygen_bond_distance_aromatic_linkinvent_7_9_3/rearranged_h_0079.sdf

> <i_m_source_file_index>
87

> <r_mmod_Potential_Energy-OPLS-2005>
-45.919548034668

> <r_mmod_Stretch_Energy-OPLS-2005>
55.8427391052246

> <r_mmod_Bend_Energy-OPLS-2005>
131.032073974609

> <r_mmod_Torsional_Energy-OPLS-2005>
216.19660949707

> <r_mmod_Improper_Torsional_Energy-OPLS-2005>
5.18714094161987

> <r_mmod_Van_der_Waal_Energy-OPLS-2005>
120.690170288086

> <r_mmod_Electrostatic_Energy-OPLS-2005>
-381.887573242188

> <r_mmod_Solvation_Energy-OPLS-2005>
-218.022430419922

> <b_mmod_Minimization_Converged-OPLS-2005>
0

> <r_mmod_RMS_Derivative-OPLS-2005>
6.82274103164673

$$$$
87
                    3D
 Structure written by MMmdl.
164172  0  0  1  0            999 V2000
  -30.5473  -14.9767   20.4218 C   0  0  0  0  0  0
  -30.4374  -12.6121   19.4947 C   0  0  0  0  0  0
  -29.5183  -12.5305   18.2546 C   0  0  0  0  0  0
  -28.0545  -12.3091   18.6788 C   0  0  0  0  0  0
  -27.6256  -13.2511   19.8340 C   0  0  2  0  0  0
  -28.6697  -13.3029   20.9688 C   0  0  0  0  0  0
  -25.2450  -13.8221   20.5723 C   0  0  0  0  0  0
  -24.1771  -13.0439   20.9234 C   0  0  0  0  0  0
  -24.6394  -11.6927   20.8759 C   0  0  0  0  0  0
  -23.9079  -10.4294   21.0411 C   0  0  0  0  0  0
  -24.3623   -9.4206   21.9188 C   0  0  0  0  0  0
  -23.6295   -8.2241   22.0757 C   0  0  0  0  0  0
  -22.4279   -8.0281   21.3545 C   0  0  0  0  0  0
  -21.9917   -9.0255   20.4646 C   0  0  0  0  0  0
  -22.7251  -10.2134   20.3057 C   0  0  0  0  0  0
  -21.6854   -6.0734   22.5278 C   0  0  0  0  0  0
  -21.4018   -6.5640   23.8209 C   0  0  0  0  0  0
  -21.3658   -5.6795   24.9173 C   0  0  0  0  0  0
  -21.6042   -4.3057   24.7227 C   0  0  0  0  0  0
  -21.8818   -3.8147   23.4350 C   0  0  0  0  0  0
  -21.9194   -4.6962   22.3404 C   0  0  0  0  0  0
  -22.7789  -13.5204   21.1882 C   0  0  0  0  0  0
  -22.1661   -4.2146   21.0981 F   0  0  0  0  0  0
  -21.5626   -3.4540   25.7742 F   0  0  0  0  0  0
  -29.9374  -13.7220   20.3586 N   0  0  0  0  0  0
  -26.2869  -12.9458   20.3244 N   0  0  0  0  0  0
  -25.9325  -11.6584   20.5745 N   0  0  0  0  0  0
  -22.0441  -12.8191   22.0439 N   0  0  0  0  0  0
  -25.4108  -15.1949   20.4146 N   0  0  0  0  0  0
  -31.7607  -15.0118   20.1938 O   0  0  0  0  0  0
  -21.6642   -6.8878   21.4240 O   0  0  0  0  0  0
  -22.3472  -14.5508   20.6728 O   0  0  0  0  0  0
  -24.6457  -31.8422   23.1870 C   0  0  0  0  0  0
  -25.9221  -32.4684   23.8266 C   0  0  1  0  0  0
  -27.2146  -27.1093   20.1654 C   0  0  0  0  0  0
  -25.5959  -33.8490   24.2179 N   0  0  0  0  0  0
  -23.4515  -30.4597   21.5327 C   0  0  2  0  0  0
  -24.9029  -28.8821   20.1127 C   0  0  0  0  0  0
  -22.7583  -29.4528   22.4851 C   0  0  0  0  0  0
  -18.0308  -28.1388   22.8472 C   0  0  0  0  0  0
  -24.1491  -36.7250   23.2643 C   0  0  0  0  0  0
  -26.0091  -30.7071   21.3910 C   0  0  0  0  0  0
  -26.0807  -29.3148   20.7357 C   0  0  0  0  0  0
  -27.2401  -28.4457   20.7425 C   0  0  0  0  0  0
  -26.0158  -26.7911   19.4908 C   0  0  0  0  0  0
  -24.8842  -27.6350   19.4721 C   0  0  0  0  0  0
  -23.6809  -29.7879   20.1532 C   0  0  0  0  0  0
  -25.4122  -36.3024   24.0313 C   0  0  1  0  0  0
  -20.5919  -28.3721   23.1225 C   0  0  2  0  0  0
  -20.6785  -26.9418   22.5400 C   0  0  0  0  0  0
  -19.5760  -26.6377   21.5206 C   0  0  0  0  0  0
  -18.1942  -26.7926   22.1619 C   0  0  0  0  0  0
  -19.1563  -28.8873   23.2839 C   0  0  0  0  0  0
  -18.9483  -30.1468   23.8869 C   0  0  0  0  0  0
  -17.6479  -30.6588   24.0552 C   0  0  0  0  0  0
  -25.9075  -34.9399   23.5055 C   0  0  0  0  0  0
  -16.5370  -29.9076   23.6335 C   0  0  0  0  0  0
  -16.7294  -28.6493   23.0357 C   0  0  0  0  0  0
  -26.4534  -31.6560   25.0720 C   0  0  0  0  0  0
  -25.3705  -31.3751   26.1405 C   0  0  0  0  0  0
  -27.0407  -30.2951   24.6323 C   0  0  0  0  0  0
  -27.6057  -32.4334   25.7506 C   0  0  0  0  0  0
  -27.5574  -37.1777   24.8465 C   0  0  0  0  0  0
  -21.4273  -29.3045   22.3599 N   0  0  0  0  0  0
  -26.4285  -37.3739   23.9409 N   0  0  0  0  0  0
  -24.7219  -31.0247   22.0921 N   0  0  0  0  0  0
  -23.4211  -28.8078   23.3014 O   0  0  0  0  0  0
  -28.2526  -26.0988   20.2000 O   0  0  0  0  0  0
  -26.5671  -34.8903   22.4640 O   0  0  0  0  0  0
  -23.5569  -32.1311   23.7074 O   0  0  0  0  0  0
  -30.3996  -22.9409   21.6206 C   0  0  0  0  0  0
  -29.6317  -22.1216   20.7625 C   0  0  0  0  0  0
  -30.1610  -20.6929   20.5820 C   0  0  0  0  0  0
  -31.6371  -22.5338   22.1147 C   0  0  0  0  0  0
  -31.5695  -20.6298   20.8176 C   0  0  0  0  0  0
  -33.4157  -24.3293   22.3341 C   0  0  0  0  0  0
  -33.6070  -20.5510   19.2713 C   0  0  0  0  0  0
  -28.4664  -23.0530   20.0852 C   0  0  0  0  0  0
  -29.5147  -19.1913   20.2276 C   0  0  0  0  0  0
  -32.4330  -23.4074   23.0670 C   0  0  0  0  0  0
  -32.5150  -19.7510   20.0031 C   0  0  0  0  0  0
  -30.2632  -17.7050   20.7021 C   0  0  0  0  0  0
  -27.9401  -24.6094   20.5961 C   0  0  0  0  0  0
  -32.2420  -21.4379   21.6562 N   0  0  0  0  0  0
  -29.7999  -16.1923   20.5395 N   0  0  0  0  0  0
  -31.4686  -12.7740   19.1773 H   0  0  0  0  0  0
  -30.4389  -11.6684   20.0416 H   0  0  0  0  0  0
  -29.8426  -11.7259   17.5930 H   0  0  0  0  0  0
  -29.5970  -13.4538   17.6787 H   0  0  0  0  0  0
  -27.9609  -11.2709   18.9993 H   0  0  0  0  0  0
  -27.3874  -12.4251   17.8238 H   0  0  0  0  0  0
  -27.5813  -14.2475   19.3934 H   0  0  0  0  0  0
  -28.7679  -12.3350   21.4622 H   0  0  0  0  0  0
  -28.3655  -14.0155   21.7371 H   0  0  0  0  0  0
  -25.2765   -9.5684   22.4770 H   0  0  0  0  0  0
  -24.0001   -7.4636   22.7482 H   0  0  0  0  0  0
  -21.0845   -8.8778   19.8953 H   0  0  0  0  0  0
  -22.3706  -10.9675   19.6168 H   0  0  0  0  0  0
  -21.2013   -7.6150   23.9713 H   0  0  0  0  0  0
  -21.1479   -6.0526   25.9076 H   0  0  0  0  0  0
  -22.0598   -2.7608   23.2852 H   0  0  0  0  0  0
  -22.4065  -11.9853   22.4826 H   0  0  0  0  0  0
  -21.1054  -13.1206   22.2646 H   0  0  0  0  0  0
  -24.6397  -15.8449   20.5244 H   0  0  0  0  0  0
  -26.2524  -15.6369   20.0692 H   0  0  0  0  0  0
  -26.7286  -32.5288   23.0992 H   0  0  0  0  0  0
  -25.0057  -33.9595   25.0291 H   0  0  0  0  0  0
  -22.7557  -31.2864   21.3752 H   0  0  0  0  0  0
  -23.3763  -35.9575   23.3290 H   0  0  0  0  0  0
  -24.3572  -36.8906   22.2063 H   0  0  0  0  0  0
  -23.7243  -37.6434   23.6697 H   0  0  0  0  0  0
  -26.1658  -31.4600   20.6175 H   0  0  0  0  0  0
  -26.8787  -30.7601   22.0343 H   0  0  0  0  0  0
  -28.1384  -28.7721   21.2475 H   0  0  0  0  0  0
  -25.9311  -25.8436   18.9791 H   0  0  0  0  0  0
  -23.9895  -27.3034   18.9627 H   0  0  0  0  0  0
  -23.8203  -30.5616   19.3973 H   0  0  0  0  0  0
  -22.7960  -29.2298   19.8417 H   0  0  0  0  0  0
  -25.1307  -36.1849   25.0805 H   0  0  0  0  0  0
  -21.0008  -28.3320   24.1348 H   0  0  0  0  0  0
  -20.5671  -26.2334   23.3620 H   0  0  0  0  0  0
  -21.6650  -26.7414   22.1200 H   0  0  0  0  0  0
  -19.6918  -25.6283   21.1247 H   0  0  0  0  0  0
  -19.6698  -27.3176   20.6725 H   0  0  0  0  0  0
  -17.4206  -26.6676   21.4028 H   0  0  0  0  0  0
  -18.0344  -26.0070   22.9019 H   0  0  0  0  0  0
  -19.7963  -30.7279   24.2236 H   0  0  0  0  0  0
  -17.5037  -31.6268   24.5157 H   0  0  0  0  0  0
  -15.5367  -30.2964   23.7680 H   0  0  0  0  0  0
  -15.8695  -28.0802   22.7086 H   0  0  0  0  0  0
  -24.5908  -30.7077   25.7719 H   0  0  0  0  0  0
  -24.8864  -32.2927   26.4757 H   0  0  0  0  0  0
  -25.7976  -30.8976   27.0234 H   0  0  0  0  0  0
  -26.3034  -29.6660   24.1324 H   0  0  0  0  0  0
  -27.3997  -29.7269   25.4913 H   0  0  0  0  0  0
  -27.8949  -30.4174   23.9663 H   0  0  0  0  0  0
  -27.2657  -33.3673   26.1994 H   0  0  0  0  0  0
  -28.3913  -32.6833   25.0364 H   0  0  0  0  0  0
  -28.0670  -31.8517   26.5497 H   0  0  0  0  0  0
  -28.2571  -38.0091   24.7512 H   0  0  0  0  0  0
  -28.1090  -36.2616   24.6289 H   0  0  0  0  0  0
  -27.2287  -37.1415   25.8867 H   0  0  0  0  0  0
  -20.9496  -29.8770   21.6780 H   0  0  0  0  0  0
  -26.0153  -38.2805   24.1421 H   0  0  0  0  0  0
  -30.0739  -23.9358   21.8846 H   0  0  0  0  0  0
  -33.9768  -24.9404   23.0409 H   0  0  0  0  0  0
  -32.8891  -24.9998   21.6550 H   0  0  0  0  0  0
  -34.1296  -23.7505   21.7481 H   0  0  0  0  0  0
  -34.2242  -19.8913   18.6620 H   0  0  0  0  0  0
  -34.2677  -21.0649   19.9698 H   0  0  0  0  0  0
  -33.1660  -21.2999   18.6131 H   0  0  0  0  0  0
  -27.5847  -22.4134   20.1220 H   0  0  0  0  0  0
  -28.7006  -23.1222   19.0229 H   0  0  0  0  0  0
  -29.3689  -19.1636   19.1474 H   0  0  0  0  0  0
  -28.5087  -19.1960   20.6471 H   0  0  0  0  0  0
  -32.9742  -22.7707   23.7680 H   0  0  0  0  0  0
  -31.7451  -24.0028   23.6687 H   0  0  0  0  0  0
  -31.9645  -19.2568   19.2053 H   0  0  0  0  0  0
  -32.9692  -18.9942   20.6438 H   0  0  0  0  0  0
  -30.4567  -17.8057   21.7707 H   0  0  0  0  0  0
  -31.2460  -17.6357   20.2581 H   0  0  0  0  0  0
  -27.9762  -24.6021   21.6852 H   0  0  0  0  0  0
  -26.8702  -24.5244   20.4221 H   0  0  0  0  0  0
  -28.8045  -16.0494   20.6270 H   0  0  0  0  0  0
  1 25  1  0  0  0
  1 30  2  0  0  0
  1 85  1  0  0  0
  2  3  1  0  0  0
  2 25  1  0  0  0
  2 86  1  0  0  0
  2 87  1  0  0  0
  3  4  1  0  0  0
  3 88  1  0  0  0
  3 89  1  0  0  0
  4  5  1  0  0  0
  4 90  1  0  0  0
  4 91  1  0  0  0
  5  6  1  0  0  0
  5 26  1  0  0  0
  5 92  1  0  0  0
  6 25  1  0  0  0
  6 93  1  0  0  0
  6 94  1  0  0  0
  7  8  2  0  0  0
  7 26  1  0  0  0
  7 29  1  0  0  0
  8  9  1  0  0  0
  8 22  1  0  0  0
  9 10  1  0  0  0
  9 27  2  0  0  0
 10 11  2  0  0  0
 10 15  1  0  0  0
 11 12  1  0  0  0
 11 95  1  0  0  0
 12 13  2  0  0  0
 12 96  1  0  0  0
 13 14  1  0  0  0
 13 31  1  0  0  0
 14 15  2  0  0  0
 14 97  1  0  0  0
 15 98  1  0  0  0
 16 17  2  0  0  0
 16 21  1  0  0  0
 16 31  1  0  0  0
 17 18  1  0  0  0
 17 99  1  0  0  0
 18 19  2  0  0  0
 18100  1  0  0  0
 19 20  1  0  0  0
 19 24  1  0  0  0
 20 21  2  0  0  0
 20101  1  0  0  0
 21 23  1  0  0  0
 22 28  1  0  0  0
 22 32  2  0  0  0
 26 27  1  0  0  0
 28102  1  0  0  0
 28103  1  0  0  0
 29104  1  0  0  0
 29105  1  0  0  0
 33 34  1  0  0  0
 33 66  1  0  0  0
 33 70  2  0  0  0
 34 36  1  0  0  0
 34 59  1  0  0  0
 34106  1  0  0  0
 35 44  2  0  0  0
 35 45  1  0  0  0
 35 68  1  0  0  0
 36 56  1  0  0  0
 36107  1  0  0  0
 37 39  1  0  0  0
 37 47  1  0  0  0
 37 66  1  0  0  0
 37108  1  0  0  0
 38 43  2  0  0  0
 38 46  1  0  0  0
 38 47  1  0  0  0
 39 64  1  0  0  0
 39 67  2  0  0  0
 40 52  1  0  0  0
 40 53  2  0  0  0
 40 58  1  0  0  0
 41109  1  0  0  0
 41110  1  0  0  0
 41111  1  0  0  0
 41 48  1  0  0  0
 42 43  1  0  0  0
 42 66  1  0  0  0
 42112  1  0  0  0
 42113  1  0  0  0
 43 44  1  0  0  0
 44114  1  0  0  0
 45 46  2  0  0  0
 45115  1  0  0  0
 46116  1  0  0  0
 47117  1  0  0  0
 47118  1  0  0  0
 48 56  1  0  0  0
 48 65  1  0  0  0
 48119  1  0  0  0
 49 50  1  0  0  0
 49 53  1  0  0  0
 49 64  1  0  0  0
 49120  1  0  0  0
 50 51  1  0  0  0
 50121  1  0  0  0
 50122  1  0  0  0
 51 52  1  0  0  0
 51123  1  0  0  0
 51124  1  0  0  0
 52125  1  0  0  0
 52126  1  0  0  0
 53 54  1  0  0  0
 54 55  2  0  0  0
 54127  1  0  0  0
 55 57  1  0  0  0
 55128  1  0  0  0
 56 69  2  0  0  0
 57 58  2  0  0  0
 57129  1  0  0  0
 58130  1  0  0  0
 59 60  1  0  0  0
 59 61  1  0  0  0
 59 62  1  0  0  0
 60131  1  0  0  0
 60132  1  0  0  0
 60133  1  0  0  0
 61134  1  0  0  0
 61135  1  0  0  0
 61136  1  0  0  0
 62137  1  0  0  0
 62138  1  0  0  0
 62139  1  0  0  0
 63 65  1  0  0  0
 63140  1  0  0  0
 63141  1  0  0  0
 63142  1  0  0  0
 64143  1  0  0  0
 65144  1  0  0  0
 68 83  1  0  0  0
 71 72  2  0  0  0
 71 74  1  0  0  0
 71145  1  0  0  0
 72 73  1  0  0  0
 72 78  1  0  0  0
 73 75  2  0  0  0
 73 79  1  0  0  0
 74 80  1  0  0  0
 74 84  2  0  0  0
 75 81  1  0  0  0
 75 84  1  0  0  0
 76 80  1  0  0  0
 76146  1  0  0  0
 76147  1  0  0  0
 76148  1  0  0  0
 77 81  1  0  0  0
 77149  1  0  0  0
 77150  1  0  0  0
 77151  1  0  0  0
 78 83  1  0  0  0
 78152  1  0  0  0
 78153  1  0  0  0
 79 82  1  0  0  0
 79154  1  0  0  0
 79155  1  0  0  0
 80156  1  0  0  0
 80157  1  0  0  0
 81158  1  0  0  0
 81159  1  0  0  0
 82 85  1  0  0  0
 82160  1  0  0  0
 82161  1  0  0  0
 83162  1  0  0  0
 83163  1  0  0  0
 85164  1  0  0  0
M  ISO  4   1 100  68 101  83 101  85 100
M  END
> <chiral flag>
0

> <version>
0

> <s_m_source_file>
/data/baiqing/PycharmProjects/Reinvent-master-3.2/result/LINK_invent/BTK/process_docking_weight1_custom_sum_contain_oxygen_bond_distance_aromatic_linkinvent_7_9_3/rearranged_h_0079.sdf

> <i_m_source_file_index>
88

> <r_mmod_Potential_Energy-OPLS-2005>
562.491271972656

> <r_mmod_Stretch_Energy-OPLS-2005>
330.454376220703

> <r_mmod_Bend_Energy-OPLS-2005>
353.838989257812

> <r_mmod_Torsional_Energy-OPLS-2005>
295.726257324219

> <r_mmod_Improper_Torsional_Energy-OPLS-2005>
5.95104789733887

> <r_mmod_Van_der_Waal_Energy-OPLS-2005>
149.583480834961

> <r_mmod_Electrostatic_Energy-OPLS-2005>
-563.090026855469

> <r_mmod_Solvation_Energy-OPLS-2005>
-226.001983642578

> <b_mmod_Minimization_Converged-OPLS-2005>
0

> <r_mmod_RMS_Derivative-OPLS-2005>
0.85625946521759

$$$$
88
                    3D
 Structure written by MMmdl.
178186  0  0  1  0            999 V2000
  -30.7012  -14.4540   20.5432 C   0  0  0  0  0  0
  -30.4150  -12.2851   19.4240 C   0  0  0  0  0  0
  -29.4915  -12.4848   18.2064 C   0  0  0  0  0  0
  -28.0145  -12.3369   18.6226 C   0  0  0  0  0  0
  -27.6545  -13.1881   19.8695 C   0  0  2  0  0  0
  -28.6974  -12.9872   20.9943 C   0  0  0  0  0  0
  -25.2462  -13.8043   20.5664 C   0  0  0  0  0  0
  -24.1756  -13.0328   20.9208 C   0  0  0  0  0  0
  -24.6348  -11.6825   20.8764 C   0  0  0  0  0  0
  -23.9039  -10.4231   21.0441 C   0  0  0  0  0  0
  -24.3607   -9.4161   21.9216 C   0  0  0  0  0  0
  -23.6266   -8.2211   22.0780 C   0  0  0  0  0  0
  -22.4250   -8.0270   21.3569 C   0  0  0  0  0  0
  -21.9892   -9.0243   20.4668 C   0  0  0  0  0  0
  -22.7224  -10.2103   20.3077 C   0  0  0  0  0  0
  -21.6844   -6.0724   22.5289 C   0  0  0  0  0  0
  -21.4007   -6.5630   23.8217 C   0  0  0  0  0  0
  -21.3650   -5.6789   24.9180 C   0  0  0  0  0  0
  -21.6047   -4.3057   24.7240 C   0  0  0  0  0  0
  -21.8810   -3.8143   23.4358 C   0  0  0  0  0  0
  -21.9184   -4.6952   22.3409 C   0  0  0  0  0  0
  -22.7790  -13.5164   21.1874 C   0  0  0  0  0  0
  -22.1651   -4.2137   21.0988 F   0  0  0  0  0  0
  -21.5621   -3.4534   25.7749 F   0  0  0  0  0  0
  -30.0335  -13.2756   20.4403 N   0  0  0  0  0  0
  -26.2944  -12.9246   20.3346 N   0  0  0  0  0  0
  -25.9268  -11.6409   20.5788 N   0  0  0  0  0  0
  -22.0426  -12.8188   22.0450 N   0  0  0  0  0  0
  -25.3831  -15.1754   20.4039 N   0  0  0  0  0  0
  -31.8307  -14.6347   20.0817 O   0  0  0  0  0  0
  -21.6629   -6.8865   21.4247 O   0  0  0  0  0  0
  -22.3491  -14.5486   20.6733 O   0  0  0  0  0  0
  -24.6123  -31.8692   23.2099 C   0  0  0  0  0  0
  -25.9028  -32.4824   23.8386 C   0  0  1  0  0  0
  -27.2357  -27.4650   20.0998 C   0  0  0  0  0  0
  -25.5893  -33.8622   24.2302 N   0  0  0  0  0  0
  -23.3985  -30.4903   21.5503 C   0  0  2  0  0  0
  -24.8431  -28.9576   20.1141 C   0  0  0  0  0  0
  -22.7394  -29.4665   22.5025 C   0  0  0  0  0  0
  -18.0257  -28.1375   22.8516 C   0  0  0  0  0  0
  -24.1475  -36.7341   23.2649 C   0  0  0  0  0  0
  -25.9220  -30.8468   21.3552 C   0  0  0  0  0  0
  -26.0011  -29.4832   20.7029 C   0  0  0  0  0  0
  -27.2029  -28.7465   20.6843 C   0  0  0  0  0  0
  -26.0683  -26.9412   19.5075 C   0  0  0  0  0  0
  -24.8704  -27.6843   19.5131 C   0  0  0  0  0  0
  -23.6010  -29.8169   20.1658 C   0  0  0  0  0  0
  -25.4096  -36.3117   24.0332 C   0  0  1  0  0  0
  -20.5843  -28.3661   23.1342 C   0  0  2  0  0  0
  -20.6763  -26.9410   22.5424 C   0  0  0  0  0  0
  -19.5739  -26.6399   21.5226 C   0  0  0  0  0  0
  -18.1912  -26.7931   22.1630 C   0  0  0  0  0  0
  -19.1502  -28.8837   23.2925 C   0  0  0  0  0  0
  -18.9445  -30.1450   23.8923 C   0  0  0  0  0  0
  -17.6447  -30.6594   24.0567 C   0  0  0  0  0  0
  -25.9036  -34.9486   23.5113 C   0  0  0  0  0  0
  -16.5333  -29.9099   23.6334 C   0  0  0  0  0  0
  -16.7244  -28.6509   23.0369 C   0  0  0  0  0  0
  -26.4471  -31.6596   25.0708 C   0  0  0  0  0  0
  -25.3747  -31.3702   26.1468 C   0  0  0  0  0  0
  -27.0304  -30.3026   24.6098 C   0  0  0  0  0  0
  -27.6050  -32.4328   25.7437 C   0  0  0  0  0  0
  -27.5567  -37.1810   24.8465 C   0  0  0  0  0  0
  -21.4127  -29.3025   22.3735 N   0  0  0  0  0  0
  -26.4280  -37.3809   23.9421 N   0  0  0  0  0  0
  -24.6626  -31.0821   22.0977 N   0  0  0  0  0  0
  -23.4195  -28.8234   23.3064 O   0  0  0  0  0  0
  -28.3893  -26.7208   20.1060 O   0  0  0  0  0  0
  -26.5624  -34.8959   22.4677 O   0  0  0  0  0  0
  -23.5319  -32.1421   23.7519 O   0  0  0  0  0  0
  -29.7940  -21.2824   19.4408 C   0  0  0  0  0  0
  -29.8855  -20.0925   21.2920 C   0  0  0  0  0  0
  -29.3117  -20.0361   19.1063 C   0  0  0  0  0  0
  -29.3636  -19.2514   20.3383 C   0  0  0  0  0  0
  -28.8069  -26.4687   22.4817 C   0  0  0  0  0  0
  -29.7187  -18.6081   17.0335 C   0  0  0  0  0  0
  -29.0655  -20.9637   16.7439 C   0  0  0  0  0  0
  -27.3413  -19.4214   17.5681 C   0  0  0  0  0  0
  -27.9231  -17.1757   19.8172 C   0  0  0  0  0  0
  -28.3545  -17.7885   22.1383 C   0  0  0  0  0  0
  -29.6335  -23.5436   21.8174 C   0  0  0  0  0  0
  -29.4890  -24.6750   20.7739 C   0  0  0  0  0  0
  -30.6841  -22.4678   21.4819 C   0  0  0  0  0  0
  -30.2635  -16.9054   20.7409 C   0  0  0  0  0  0
  -28.4537  -25.7534   21.1616 C   0  0  2  0  0  0
  -28.8550  -19.7272   17.6571 C   0  0  0  0  0  0
  -28.9875  -17.7989   20.7214 C   0  0  0  0  0  0
  -30.1339  -21.3302   20.7642 N   0  0  0  0  0  0
  -29.9743  -15.4831   20.9993 N   0  0  0  0  0  0
  -31.4618  -12.3696   19.1296 H   0  0  0  0  0  0
  -30.3029  -11.2775   19.8258 H   0  0  0  0  0  0
  -29.7341  -11.7553   17.4329 H   0  0  0  0  0  0
  -29.6599  -13.4679   17.7639 H   0  0  0  0  0  0
  -27.8340  -11.2815   18.8341 H   0  0  0  0  0  0
  -27.3617  -12.5965   17.7886 H   0  0  0  0  0  0
  -27.6934  -14.2209   19.5403 H   0  0  0  0  0  0
  -28.6667  -11.9583   21.3581 H   0  0  0  0  0  0
  -28.4637  -13.6056   21.8607 H   0  0  0  0  0  0
  -25.2750   -9.5626   22.4783 H   0  0  0  0  0  0
  -23.9968   -7.4597   22.7494 H   0  0  0  0  0  0
  -21.0816   -8.8778   19.8969 H   0  0  0  0  0  0
  -22.3714  -10.9657   19.6188 H   0  0  0  0  0  0
  -21.2008   -7.6137   23.9711 H   0  0  0  0  0  0
  -21.1480   -6.0530   25.9083 H   0  0  0  0  0  0
  -22.0600   -2.7603   23.2873 H   0  0  0  0  0  0
  -22.4037  -11.9851   22.4839 H   0  0  0  0  0  0
  -21.1064  -13.1270   22.2697 H   0  0  0  0  0  0
  -24.5914  -15.7954   20.5273 H   0  0  0  0  0  0
  -26.2029  -15.6469   20.0516 H   0  0  0  0  0  0
  -26.7097  -32.5569   23.1159 H   0  0  0  0  0  0
  -24.9953  -33.9782   25.0378 H   0  0  0  0  0  0
  -22.6850  -31.3044   21.4101 H   0  0  0  0  0  0
  -23.3728  -35.9690   23.3322 H   0  0  0  0  0  0
  -24.3557  -36.8959   22.2065 H   0  0  0  0  0  0
  -23.7247  -37.6555   23.6660 H   0  0  0  0  0  0
  -26.0327  -31.6175   20.5903 H   0  0  0  0  0  0
  -26.8079  -30.8966   21.9747 H   0  0  0  0  0  0
  -28.1004  -29.1506   21.1342 H   0  0  0  0  0  0
  -26.0881  -25.9611   19.0501 H   0  0  0  0  0  0
  -23.9801  -27.2737   19.0573 H   0  0  0  0  0  0
  -23.6939  -30.5863   19.3984 H   0  0  0  0  0  0
  -22.7269  -29.2272   19.8830 H   0  0  0  0  0  0
  -25.1272  -36.1979   25.0829 H   0  0  0  0  0  0
  -20.9933  -28.3243   24.1462 H   0  0  0  0  0  0
  -20.5702  -26.2285   23.3618 H   0  0  0  0  0  0
  -21.6638  -26.7489   22.1185 H   0  0  0  0  0  0
  -19.6921  -25.6328   21.1231 H   0  0  0  0  0  0
  -19.6660  -27.3234   20.6779 H   0  0  0  0  0  0
  -17.4182  -26.6685   21.4020 H   0  0  0  0  0  0
  -18.0295  -26.0051   22.9001 H   0  0  0  0  0  0
  -19.7921  -30.7257   24.2302 H   0  0  0  0  0  0
  -17.5005  -31.6286   24.5174 H   0  0  0  0  0  0
  -15.5334  -30.3012   23.7684 H   0  0  0  0  0  0
  -15.8631  -28.0848   22.7087 H   0  0  0  0  0  0
  -24.5871  -30.7138   25.7756 H   0  0  0  0  0  0
  -24.9025  -32.2871   26.5007 H   0  0  0  0  0  0
  -25.8085  -30.8758   27.0170 H   0  0  0  0  0  0
  -26.2840  -29.6756   24.1206 H   0  0  0  0  0  0
  -27.4114  -29.7304   25.4575 H   0  0  0  0  0  0
  -27.8655  -30.4351   23.9215 H   0  0  0  0  0  0
  -27.2664  -33.3615   26.2042 H   0  0  0  0  0  0
  -28.3812  -32.6905   25.0216 H   0  0  0  0  0  0
  -28.0757  -31.8436   26.5317 H   0  0  0  0  0  0
  -28.2586  -38.0103   24.7497 H   0  0  0  0  0  0
  -28.1043  -36.2631   24.6267 H   0  0  0  0  0  0
  -27.2298  -37.1446   25.8873 H   0  0  0  0  0  0
  -20.9315  -29.8711   21.6914 H   0  0  0  0  0  0
  -26.0173  -38.2897   24.1393 H   0  0  0  0  0  0
  -29.9316  -22.1752   18.8479 H   0  0  0  0  0  0
  -30.1028  -19.9170   22.3368 H   0  0  0  0  0  0
  -28.0665  -27.2222   22.7472 H   0  0  0  0  0  0
  -29.7737  -26.9678   22.4113 H   0  0  0  0  0  0
  -28.8369  -25.7770   23.3227 H   0  0  0  0  0  0
  -30.7538  -18.9309   16.9206 H   0  0  0  0  0  0
  -29.3539  -18.3326   16.0423 H   0  0  0  0  0  0
  -29.7628  -17.6992   17.6252 H   0  0  0  0  0  0
  -30.1158  -21.2575   16.6927 H   0  0  0  0  0  0
  -28.4905  -21.8271   17.0807 H   0  0  0  0  0  0
  -28.7503  -20.7635   15.7192 H   0  0  0  0  0  0
  -27.0960  -18.3762   17.7133 H   0  0  0  0  0  0
  -26.9461  -19.6470   16.5777 H   0  0  0  0  0  0
  -26.7646  -20.0158   18.2788 H   0  0  0  0  0  0
  -27.0130  -17.7735   19.7889 H   0  0  0  0  0  0
  -27.6430  -16.2152   20.2191 H   0  0  0  0  0  0
  -28.2644  -16.9685   18.8109 H   0  0  0  0  0  0
  -27.5018  -18.4682   22.1914 H   0  0  0  0  0  0
  -29.0613  -18.0833   22.9138 H   0  0  0  0  0  0
  -27.9916  -16.8015   22.4217 H   0  0  0  0  0  0
  -28.6633  -23.0784   22.0039 H   0  0  0  0  0  0
  -29.9434  -23.9829   22.7633 H   0  0  0  0  0  0
  -29.2005  -24.2441   19.8149 H   0  0  0  0  0  0
  -30.4587  -25.1492   20.6173 H   0  0  0  0  0  0
  -31.1159  -22.0923   22.4111 H   0  0  0  0  0  0
  -31.5132  -22.8841   20.9094 H   0  0  0  0  0  0
  -30.9645  -17.2666   21.4945 H   0  0  0  0  0  0
  -30.7767  -17.0010   19.7811 H   0  0  0  0  0  0
  -27.4864  -25.2593   21.2750 H   0  0  0  0  0  0
  -29.0600  -15.2628   21.3601 H   0  0  0  0  0  0
  1 25  1  0  0  0
  1 30  2  0  0  0
  1 89  1  0  0  0
  2  3  1  0  0  0
  2 25  1  0  0  0
  2 90  1  0  0  0
  2 91  1  0  0  0
  3  4  1  0  0  0
  3 92  1  0  0  0
  3 93  1  0  0  0
  4  5  1  0  0  0
  4 94  1  0  0  0
  4 95  1  0  0  0
  5  6  1  0  0  0
  5 26  1  0  0  0
  5 96  1  0  0  0
  6 25  1  0  0  0
  6 97  1  0  0  0
  6 98  1  0  0  0
  7  8  2  0  0  0
  7 26  1  0  0  0
  7 29  1  0  0  0
  8  9  1  0  0  0
  8 22  1  0  0  0
  9 10  1  0  0  0
  9 27  2  0  0  0
 10 11  2  0  0  0
 10 15  1  0  0  0
 11 12  1  0  0  0
 11 99  1  0  0  0
 12 13  2  0  0  0
 12100  1  0  0  0
 13 14  1  0  0  0
 13 31  1  0  0  0
 14 15  2  0  0  0
 14101  1  0  0  0
 15102  1  0  0  0
 16 17  2  0  0  0
 16 21  1  0  0  0
 16 31  1  0  0  0
 17 18  1  0  0  0
 17103  1  0  0  0
 18 19  2  0  0  0
 18104  1  0  0  0
 19 20  1  0  0  0
 19 24  1  0  0  0
 20 21  2  0  0  0
 20105  1  0  0  0
 21 23  1  0  0  0
 22 28  1  0  0  0
 22 32  2  0  0  0
 26 27  1  0  0  0
 28106  1  0  0  0
 28107  1  0  0  0
 29108  1  0  0  0
 29109  1  0  0  0
 33 34  1  0  0  0
 33 66  1  0  0  0
 33 70  2  0  0  0
 34 36  1  0  0  0
 34 59  1  0  0  0
 34110  1  0  0  0
 35 44  2  0  0  0
 35 45  1  0  0  0
 35 68  1  0  0  0
 36 56  1  0  0  0
 36111  1  0  0  0
 37 39  1  0  0  0
 37 47  1  0  0  0
 37 66  1  0  0  0
 37112  1  0  0  0
 38 43  2  0  0  0
 38 46  1  0  0  0
 38 47  1  0  0  0
 39 64  1  0  0  0
 39 67  2  0  0  0
 40 52  1  0  0  0
 40 53  2  0  0  0
 40 58  1  0  0  0
 41113  1  0  0  0
 41114  1  0  0  0
 41115  1  0  0  0
 41 48  1  0  0  0
 42 43  1  0  0  0
 42 66  1  0  0  0
 42116  1  0  0  0
 42117  1  0  0  0
 43 44  1  0  0  0
 44118  1  0  0  0
 45 46  2  0  0  0
 45119  1  0  0  0
 46120  1  0  0  0
 47121  1  0  0  0
 47122  1  0  0  0
 48 56  1  0  0  0
 48 65  1  0  0  0
 48123  1  0  0  0
 49 50  1  0  0  0
 49 53  1  0  0  0
 49 64  1  0  0  0
 49124  1  0  0  0
 50 51  1  0  0  0
 50125  1  0  0  0
 50126  1  0  0  0
 51 52  1  0  0  0
 51127  1  0  0  0
 51128  1  0  0  0
 52129  1  0  0  0
 52130  1  0  0  0
 53 54  1  0  0  0
 54 55  2  0  0  0
 54131  1  0  0  0
 55 57  1  0  0  0
 55132  1  0  0  0
 56 69  2  0  0  0
 57 58  2  0  0  0
 57133  1  0  0  0
 58134  1  0  0  0
 59 60  1  0  0  0
 59 61  1  0  0  0
 59 62  1  0  0  0
 60135  1  0  0  0
 60136  1  0  0  0
 60137  1  0  0  0
 61138  1  0  0  0
 61139  1  0  0  0
 61140  1  0  0  0
 62141  1  0  0  0
 62142  1  0  0  0
 62143  1  0  0  0
 63 65  1  0  0  0
 63144  1  0  0  0
 63145  1  0  0  0
 63146  1  0  0  0
 64147  1  0  0  0
 65148  1  0  0  0
 68 85  1  0  0  0
 71 73  2  0  0  0
 71 88  1  0  0  0
 71149  1  0  0  0
 72 74  2  0  0  0
 72 88  1  0  0  0
 72150  1  0  0  0
 73 74  1  0  0  0
 73 86  1  0  0  0
 74 87  1  0  0  0
 75151  1  0  0  0
 75152  1  0  0  0
 75153  1  0  0  0
 75 85  1  0  0  0
 76154  1  0  0  0
 76155  1  0  0  0
 76156  1  0  0  0
 76 86  1  0  0  0
 77 86  1  0  0  0
 77157  1  0  0  0
 77158  1  0  0  0
 77159  1  0  0  0
 78 86  1  0  0  0
 78160  1  0  0  0
 78161  1  0  0  0
 78162  1  0  0  0
 79163  1  0  0  0
 79164  1  0  0  0
 79165  1  0  0  0
 79 87  1  0  0  0
 80 87  1  0  0  0
 80166  1  0  0  0
 80167  1  0  0  0
 80168  1  0  0  0
 81 82  1  0  0  0
 81 83  1  0  0  0
 81169  1  0  0  0
 81170  1  0  0  0
 82 85  1  0  0  0
 82171  1  0  0  0
 82172  1  0  0  0
 83 88  1  0  0  0
 83173  1  0  0  0
 83174  1  0  0  0
 84 87  1  0  0  0
 84 89  1  0  0  0
 84175  1  0  0  0
 84176  1  0  0  0
 85177  1  0  0  0
 89178  1  0  0  0
M  ISO  4   1 100  68 101  85 101  89 100
M  END
> <chiral flag>
0

> <version>
0

> <s_m_source_file>
/data/baiqing/PycharmProjects/Reinvent-master-3.2/result/LINK_invent/BTK/process_docking_weight1_custom_sum_contain_oxygen_bond_distance_aromatic_linkinvent_7_9_3/rearranged_h_0079.sdf

> <i_m_source_file_index>
89

> <r_mmod_Potential_Energy-OPLS-2005>
-103.158882141113

> <r_mmod_Stretch_Energy-OPLS-2005>
43.4841117858887

> <r_mmod_Bend_Energy-OPLS-2005>
126.849540710449

> <r_mmod_Torsional_Energy-OPLS-2005>
263.961303710938

> <r_mmod_Improper_Torsional_Energy-OPLS-2005>
5.21547842025757

> <r_mmod_Van_der_Waal_Energy-OPLS-2005>
149.571563720703

> <r_mmod_Electrostatic_Energy-OPLS-2005>
-514.936706542969

> <r_mmod_Solvation_Energy-OPLS-2005>
-189.247650146484

> <b_mmod_Minimization_Converged-OPLS-2005>
0

> <r_mmod_RMS_Derivative-OPLS-2005>
3.65971755981445

$$$$
89
                    3D
 Structure written by MMmdl.
159167  0  0  1  0            999 V2000
  -30.5400  -14.9313   20.4143 C   0  0  0  0  0  0
  -30.4377  -12.5702   19.5085 C   0  0  0  0  0  0
  -29.5230  -12.5315   18.2619 C   0  0  0  0  0  0
  -28.0537  -12.3237   18.6741 C   0  0  0  0  0  0
  -27.6326  -13.2491   19.8460 C   0  0  2  0  0  0
  -28.6728  -13.2629   20.9873 C   0  0  0  0  0  0
  -25.2463  -13.8221   20.5716 C   0  0  0  0  0  0
  -24.1778  -13.0441   20.9222 C   0  0  0  0  0  0
  -24.6396  -11.6927   20.8751 C   0  0  0  0  0  0
  -23.9079  -10.4295   21.0405 C   0  0  0  0  0  0
  -24.3627   -9.4210   21.9183 C   0  0  0  0  0  0
  -23.6301   -8.2245   22.0754 C   0  0  0  0  0  0
  -22.4282   -8.0283   21.3545 C   0  0  0  0  0  0
  -21.9920   -9.0257   20.4645 C   0  0  0  0  0  0
  -22.7250  -10.2136   20.3054 C   0  0  0  0  0  0
  -21.6856   -6.0739   22.5279 C   0  0  0  0  0  0
  -21.4016   -6.5640   23.8213 C   0  0  0  0  0  0
  -21.3661   -5.6793   24.9174 C   0  0  0  0  0  0
  -21.6045   -4.3056   24.7224 C   0  0  0  0  0  0
  -21.8818   -3.8147   23.4344 C   0  0  0  0  0  0
  -21.9194   -4.6965   22.3402 C   0  0  0  0  0  0
  -22.7795  -13.5208   21.1879 C   0  0  0  0  0  0
  -22.1662   -4.2150   21.0978 F   0  0  0  0  0  0
  -21.5629   -3.4539   25.7736 F   0  0  0  0  0  0
  -29.9549  -13.6666   20.3971 N   0  0  0  0  0  0
  -26.2897  -12.9457   20.3275 N   0  0  0  0  0  0
  -25.9331  -11.6584   20.5751 N   0  0  0  0  0  0
  -22.0453  -12.8191   22.0436 N   0  0  0  0  0  0
  -25.4123  -15.1949   20.4139 N   0  0  0  0  0  0
  -31.7323  -15.0057   20.0979 O   0  0  0  0  0  0
  -21.6644   -6.8882   21.4240 O   0  0  0  0  0  0
  -22.3472  -14.5512   20.6727 O   0  0  0  0  0  0
  -24.6429  -31.8436   23.1878 C   0  0  0  0  0  0
  -25.9201  -32.4691   23.8268 C   0  0  1  0  0  0
  -27.2132  -27.1269   20.1479 C   0  0  0  0  0  0
  -25.5947  -33.8499   24.2182 N   0  0  0  0  0  0
  -23.4469  -30.4632   21.5331 C   0  0  2  0  0  0
  -24.8963  -28.8912   20.1053 C   0  0  0  0  0  0
  -22.7565  -29.4544   22.4854 C   0  0  0  0  0  0
  -18.0308  -28.1402   22.8480 C   0  0  0  0  0  0
  -24.1491  -36.7253   23.2645 C   0  0  0  0  0  0
  -26.0032  -30.7122   21.3905 C   0  0  0  0  0  0
  -26.0717  -29.3232   20.7314 C   0  0  0  0  0  0
  -27.2272  -28.4547   20.7413 C   0  0  0  0  0  0
  -26.0187  -26.8097   19.4621 C   0  0  0  0  0  0
  -24.8837  -27.6487   19.4552 C   0  0  0  0  0  0
  -23.6731  -29.7938   20.1512 C   0  0  0  0  0  0
  -25.4125  -36.3033   24.0316 C   0  0  1  0  0  0
  -20.5919  -28.3725   23.1235 C   0  0  2  0  0  0
  -20.6791  -26.9428   22.5405 C   0  0  0  0  0  0
  -19.5764  -26.6383   21.5215 C   0  0  0  0  0  0
  -18.1944  -26.7941   22.1625 C   0  0  0  0  0  0
  -19.1565  -28.8880   23.2850 C   0  0  0  0  0  0
  -18.9482  -30.1478   23.8875 C   0  0  0  0  0  0
  -17.6479  -30.6597   24.0564 C   0  0  0  0  0  0
  -25.9074  -34.9407   23.5060 C   0  0  0  0  0  0
  -16.5369  -29.9092   23.6338 C   0  0  0  0  0  0
  -16.7291  -28.6511   23.0355 C   0  0  0  0  0  0
  -26.4519  -31.6565   25.0716 C   0  0  0  0  0  0
  -25.3694  -31.3761   26.1403 C   0  0  0  0  0  0
  -27.0391  -30.2959   24.6311 C   0  0  0  0  0  0
  -27.6047  -32.4332   25.7498 C   0  0  0  0  0  0
  -27.5576  -37.1784   24.8470 C   0  0  0  0  0  0
  -21.4257  -29.3050   22.3602 N   0  0  0  0  0  0
  -26.4289  -37.3745   23.9409 N   0  0  0  0  0  0
  -24.7173  -31.0282   22.0918 N   0  0  0  0  0  0
  -23.4205  -28.8092   23.3007 O   0  0  0  0  0  0
  -28.2652  -26.1409   20.2579 O   0  0  0  0  0  0
  -26.5668  -34.8907   22.4645 O   0  0  0  0  0  0
  -23.5546  -32.1322   23.7089 O   0  0  0  0  0  0
  -28.1224  -20.4479   22.1138 C   0  0  0  0  0  0
  -28.8285  -20.3188   20.9446 C   0  0  0  0  0  0
  -29.1780  -18.8197   20.9809 C   0  0  0  0  0  0
  -27.9290  -17.7977   24.8073 C   0  0  0  0  0  0
  -29.6535  -17.7735   18.6808 C   0  0  0  0  0  0
  -28.9241  -21.6939   20.0353 C   0  0  0  0  0  0
  -28.7597  -23.2727   20.6542 C   0  0  0  0  0  0
  -27.3083  -18.9406   23.9861 C   0  0  0  0  0  0
  -28.1373  -24.6315   19.8651 C   0  0  0  0  0  0
  -29.9508  -17.6244   20.1783 C   0  0  2  0  0  0
  -28.6457  -18.2769   22.0700 N   0  0  0  0  0  0
  -28.0349  -19.2463   22.7623 N   0  0  0  0  0  0
  -29.7515  -16.1005   20.5646 N   0  0  0  0  0  0
  -31.4749  -12.7166   19.2036 H   0  0  0  0  0  0
  -30.4167  -11.6139   20.0334 H   0  0  0  0  0  0
  -29.8382  -11.7378   17.5834 H   0  0  0  0  0  0
  -29.6197  -13.4660   17.7072 H   0  0  0  0  0  0
  -27.9412  -11.2803   18.9711 H   0  0  0  0  0  0
  -27.3940  -12.4696   17.8180 H   0  0  0  0  0  0
  -27.6013  -14.2555   19.4274 H   0  0  0  0  0  0
  -28.7501  -12.2836   21.4619 H   0  0  0  0  0  0
  -28.3760  -13.9632   21.7697 H   0  0  0  0  0  0
  -25.2771   -9.5687   22.4762 H   0  0  0  0  0  0
  -24.0009   -7.4636   22.7473 H   0  0  0  0  0  0
  -21.0853   -8.8775   19.8949 H   0  0  0  0  0  0
  -22.3708  -10.9674   19.6165 H   0  0  0  0  0  0
  -21.2009   -7.6150   23.9716 H   0  0  0  0  0  0
  -21.1484   -6.0524   25.9078 H   0  0  0  0  0  0
  -22.0597   -2.7610   23.2843 H   0  0  0  0  0  0
  -22.4085  -11.9857   22.4819 H   0  0  0  0  0  0
  -21.1069  -13.1200   22.2646 H   0  0  0  0  0  0
  -24.6450  -15.8469   20.5341 H   0  0  0  0  0  0
  -26.2616  -15.6408   20.0923 H   0  0  0  0  0  0
  -26.7262  -32.5290   23.0992 H   0  0  0  0  0  0
  -25.0063  -33.9614   25.0307 H   0  0  0  0  0  0
  -22.7505  -31.2902   21.3791 H   0  0  0  0  0  0
  -23.3760  -35.9580   23.3300 H   0  0  0  0  0  0
  -24.3582  -36.8891   22.2063 H   0  0  0  0  0  0
  -23.7233  -37.6442   23.6685 H   0  0  0  0  0  0
  -26.1637  -31.4661   20.6186 H   0  0  0  0  0  0
  -26.8720  -30.7601   22.0350 H   0  0  0  0  0  0
  -28.1175  -28.7763   21.2635 H   0  0  0  0  0  0
  -25.9170  -25.8752   18.9346 H   0  0  0  0  0  0
  -23.9899  -27.3178   18.9441 H   0  0  0  0  0  0
  -23.8091  -30.5692   19.3964 H   0  0  0  0  0  0
  -22.7877  -29.2364   19.8399 H   0  0  0  0  0  0
  -25.1313  -36.1864   25.0806 H   0  0  0  0  0  0
  -21.0017  -28.3316   24.1355 H   0  0  0  0  0  0
  -20.5690  -26.2338   23.3626 H   0  0  0  0  0  0
  -21.6656  -26.7437   22.1202 H   0  0  0  0  0  0
  -19.6928  -25.6288   21.1260 H   0  0  0  0  0  0
  -19.6702  -27.3182   20.6738 H   0  0  0  0  0  0
  -17.4216  -26.6687   21.4028 H   0  0  0  0  0  0
  -18.0345  -26.0091   22.9030 H   0  0  0  0  0  0
  -19.7957  -30.7303   24.2231 H   0  0  0  0  0  0
  -17.5033  -31.6275   24.5172 H   0  0  0  0  0  0
  -15.5368  -30.2990   23.7675 H   0  0  0  0  0  0
  -15.8690  -28.0824   22.7081 H   0  0  0  0  0  0
  -24.5891  -30.7090   25.7719 H   0  0  0  0  0  0
  -24.8861  -32.2944   26.4748 H   0  0  0  0  0  0
  -25.7967  -30.8989   27.0231 H   0  0  0  0  0  0
  -26.3015  -29.6671   24.1313 H   0  0  0  0  0  0
  -27.3994  -29.7270   25.4893 H   0  0  0  0  0  0
  -27.8927  -30.4197   23.9642 H   0  0  0  0  0  0
  -27.2646  -33.3662   26.2005 H   0  0  0  0  0  0
  -28.3892  -32.6838   25.0344 H   0  0  0  0  0  0
  -28.0676  -31.8501   26.5470 H   0  0  0  0  0  0
  -28.2586  -38.0087   24.7517 H   0  0  0  0  0  0
  -28.1075  -36.2615   24.6295 H   0  0  0  0  0  0
  -27.2297  -37.1432   25.8873 H   0  0  0  0  0  0
  -20.9471  -29.8757   21.6773 H   0  0  0  0  0  0
  -26.0158  -38.2813   24.1408 H   0  0  0  0  0  0
  -27.6352  -21.3127   22.5405 H   0  0  0  0  0  0
  -27.3810  -17.6509   25.7382 H   0  0  0  0  0  0
  -28.9664  -18.0138   25.0629 H   0  0  0  0  0  0
  -27.9050  -16.8540   24.2612 H   0  0  0  0  0  0
  -29.9264  -18.7691   18.3298 H   0  0  0  0  0  0
  -28.5921  -17.6305   18.4763 H   0  0  0  0  0  0
  -30.2133  -17.0507   18.0866 H   0  0  0  0  0  0
  -28.1567  -21.6142   19.2646 H   0  0  0  0  0  0
  -29.8529  -21.6756   19.4644 H   0  0  0  0  0  0
  -29.7436  -23.5500   21.0321 H   0  0  0  0  0  0
  -28.1500  -23.1998   21.5524 H   0  0  0  0  0  0
  -27.2662  -19.8453   24.5941 H   0  0  0  0  0  0
  -26.2794  -18.6964   23.7186 H   0  0  0  0  0  0
  -28.5150  -24.5891   18.8435 H   0  0  0  0  0  0
  -27.0803  -24.3954   19.7755 H   0  0  0  0  0  0
  -31.0195  -17.8028   20.3049 H   0  0  0  0  0  0
  -28.8197  -15.9198   20.9059 H   0  0  0  0  0  0
  1 25  1  0  0  0
  1 30  2  0  0  0
  1 83  1  0  0  0
  2  3  1  0  0  0
  2 25  1  0  0  0
  2 84  1  0  0  0
  2 85  1  0  0  0
  3  4  1  0  0  0
  3 86  1  0  0  0
  3 87  1  0  0  0
  4  5  1  0  0  0
  4 88  1  0  0  0
  4 89  1  0  0  0
  5  6  1  0  0  0
  5 26  1  0  0  0
  5 90  1  0  0  0
  6 25  1  0  0  0
  6 91  1  0  0  0
  6 92  1  0  0  0
  7  8  2  0  0  0
  7 26  1  0  0  0
  7 29  1  0  0  0
  8  9  1  0  0  0
  8 22  1  0  0  0
  9 10  1  0  0  0
  9 27  2  0  0  0
 10 11  2  0  0  0
 10 15  1  0  0  0
 11 12  1  0  0  0
 11 93  1  0  0  0
 12 13  2  0  0  0
 12 94  1  0  0  0
 13 14  1  0  0  0
 13 31  1  0  0  0
 14 15  2  0  0  0
 14 95  1  0  0  0
 15 96  1  0  0  0
 16 17  2  0  0  0
 16 21  1  0  0  0
 16 31  1  0  0  0
 17 18  1  0  0  0
 17 97  1  0  0  0
 18 19  2  0  0  0
 18 98  1  0  0  0
 19 20  1  0  0  0
 19 24  1  0  0  0
 20 21  2  0  0  0
 20 99  1  0  0  0
 21 23  1  0  0  0
 22 28  1  0  0  0
 22 32  2  0  0  0
 26 27  1  0  0  0
 28100  1  0  0  0
 28101  1  0  0  0
 29102  1  0  0  0
 29103  1  0  0  0
 33 34  1  0  0  0
 33 66  1  0  0  0
 33 70  2  0  0  0
 34 36  1  0  0  0
 34 59  1  0  0  0
 34104  1  0  0  0
 35 44  2  0  0  0
 35 45  1  0  0  0
 35 68  1  0  0  0
 36 56  1  0  0  0
 36105  1  0  0  0
 37 39  1  0  0  0
 37 47  1  0  0  0
 37 66  1  0  0  0
 37106  1  0  0  0
 38 43  2  0  0  0
 38 46  1  0  0  0
 38 47  1  0  0  0
 39 64  1  0  0  0
 39 67  2  0  0  0
 40 52  1  0  0  0
 40 53  2  0  0  0
 40 58  1  0  0  0
 41107  1  0  0  0
 41108  1  0  0  0
 41109  1  0  0  0
 41 48  1  0  0  0
 42 43  1  0  0  0
 42 66  1  0  0  0
 42110  1  0  0  0
 42111  1  0  0  0
 43 44  1  0  0  0
 44112  1  0  0  0
 45 46  2  0  0  0
 45113  1  0  0  0
 46114  1  0  0  0
 47115  1  0  0  0
 47116  1  0  0  0
 48 56  1  0  0  0
 48 65  1  0  0  0
 48117  1  0  0  0
 49 50  1  0  0  0
 49 53  1  0  0  0
 49 64  1  0  0  0
 49118  1  0  0  0
 50 51  1  0  0  0
 50119  1  0  0  0
 50120  1  0  0  0
 51 52  1  0  0  0
 51121  1  0  0  0
 51122  1  0  0  0
 52123  1  0  0  0
 52124  1  0  0  0
 53 54  1  0  0  0
 54 55  2  0  0  0
 54125  1  0  0  0
 55 57  1  0  0  0
 55126  1  0  0  0
 56 69  2  0  0  0
 57 58  2  0  0  0
 57127  1  0  0  0
 58128  1  0  0  0
 59 60  1  0  0  0
 59 61  1  0  0  0
 59 62  1  0  0  0
 60129  1  0  0  0
 60130  1  0  0  0
 60131  1  0  0  0
 61132  1  0  0  0
 61133  1  0  0  0
 61134  1  0  0  0
 62135  1  0  0  0
 62136  1  0  0  0
 62137  1  0  0  0
 63 65  1  0  0  0
 63138  1  0  0  0
 63139  1  0  0  0
 63140  1  0  0  0
 64141  1  0  0  0
 65142  1  0  0  0
 68 79  1  0  0  0
 71 72  2  0  0  0
 71 82  1  0  0  0
 71143  1  0  0  0
 72 73  1  0  0  0
 72 76  1  0  0  0
 73 80  1  0  0  0
 73 81  2  0  0  0
 74 78  1  0  0  0
 74144  1  0  0  0
 74145  1  0  0  0
 74146  1  0  0  0
 75147  1  0  0  0
 75148  1  0  0  0
 75149  1  0  0  0
 75 80  1  0  0  0
 76 77  1  0  0  0
 76150  1  0  0  0
 76151  1  0  0  0
 77 79  1  0  0  0
 77152  1  0  0  0
 77153  1  0  0  0
 78 82  1  0  0  0
 78154  1  0  0  0
 78155  1  0  0  0
 79156  1  0  0  0
 79157  1  0  0  0
 80 83  1  0  0  0
 80158  1  0  0  0
 81 82  1  0  0  0
 83159  1  0  0  0
M  ISO  4   1 100  68 101  79 101  83 100
M  END
> <chiral flag>
0

> <version>
0

> <s_m_source_file>
/data/baiqing/PycharmProjects/Reinvent-master-3.2/result/LINK_invent/BTK/process_docking_weight1_custom_sum_contain_oxygen_bond_distance_aromatic_linkinvent_7_9_3/rearranged_h_0079.sdf

> <i_m_source_file_index>
90

> <r_mmod_Potential_Energy-OPLS-2005>
411.749816894531

> <r_mmod_Stretch_Energy-OPLS-2005>
277.028839111328

> <r_mmod_Bend_Energy-OPLS-2005>
287.482177734375

> <r_mmod_Torsional_Energy-OPLS-2005>
215.830184936523

> <r_mmod_Improper_Torsional_Energy-OPLS-2005>
5.42635202407837

> <r_mmod_Van_der_Waal_Energy-OPLS-2005>
111.262710571289

> <r_mmod_Electrostatic_Energy-OPLS-2005>
-464.594848632812

> <r_mmod_Solvation_Energy-OPLS-2005>
-211.121566772461

> <b_mmod_Minimization_Converged-OPLS-2005>
0

> <r_mmod_RMS_Derivative-OPLS-2005>
0.499666720628738

$$$$
90
                    3D
 Structure written by MMmdl.
158166  0  0  1  0            999 V2000
  -30.6804  -14.5325   20.5453 C   0  0  0  0  0  0
  -30.4266  -12.3360   19.4390 C   0  0  0  0  0  0
  -29.5007  -12.5001   18.2157 C   0  0  0  0  0  0
  -28.0221  -12.3546   18.6271 C   0  0  0  0  0  0
  -27.6580  -13.2111   19.8697 C   0  0  2  0  0  0
  -28.7000  -13.0301   20.9964 C   0  0  0  0  0  0
  -25.2576  -13.8161   20.5679 C   0  0  0  0  0  0
  -24.1834  -13.0438   20.9175 C   0  0  0  0  0  0
  -24.6391  -11.6906   20.8733 C   0  0  0  0  0  0
  -23.9058  -10.4296   21.0405 C   0  0  0  0  0  0
  -24.3614   -9.4212   21.9180 C   0  0  0  0  0  0
  -23.6296   -8.2245   22.0750 C   0  0  0  0  0  0
  -22.4279   -8.0280   21.3540 C   0  0  0  0  0  0
  -21.9912   -9.0251   20.4637 C   0  0  0  0  0  0
  -22.7234  -10.2133   20.3051 C   0  0  0  0  0  0
  -21.6856   -6.0738   22.5281 C   0  0  0  0  0  0
  -21.4013   -6.5640   23.8214 C   0  0  0  0  0  0
  -21.3658   -5.6791   24.9176 C   0  0  0  0  0  0
  -21.6052   -4.3056   24.7228 C   0  0  0  0  0  0
  -21.8818   -3.8149   23.4348 C   0  0  0  0  0  0
  -21.9192   -4.6965   22.3404 C   0  0  0  0  0  0
  -22.7857  -13.5231   21.1849 C   0  0  0  0  0  0
  -22.1659   -4.2151   21.0983 F   0  0  0  0  0  0
  -21.5633   -3.4538   25.7741 F   0  0  0  0  0  0
  -30.0237  -13.3425   20.4367 N   0  0  0  0  0  0
  -26.3009  -12.9336   20.3337 N   0  0  0  0  0  0
  -25.9318  -11.6496   20.5762 N   0  0  0  0  0  0
  -22.0498  -12.8217   22.0397 N   0  0  0  0  0  0
  -25.4306  -15.1880   20.4100 N   0  0  0  0  0  0
  -31.8283  -14.6930   20.1227 O   0  0  0  0  0  0
  -21.6641   -6.8878   21.4242 O   0  0  0  0  0  0
  -22.3545  -14.5547   20.6711 O   0  0  0  0  0  0
  -24.6215  -31.8657   23.2079 C   0  0  0  0  0  0
  -25.9088  -32.4808   23.8388 C   0  0  1  0  0  0
  -27.2201  -27.3727   20.0996 C   0  0  0  0  0  0
  -25.5924  -33.8607   24.2318 N   0  0  0  0  0  0
  -23.4109  -30.4926   21.5510 C   0  0  2  0  0  0
  -24.8542  -28.9604   20.1102 C   0  0  0  0  0  0
  -22.7446  -29.4658   22.4964 C   0  0  0  0  0  0
  -18.0284  -28.1377   22.8488 C   0  0  0  0  0  0
  -24.1489  -36.7308   23.2638 C   0  0  0  0  0  0
  -25.9492  -30.8123   21.3720 C   0  0  0  0  0  0
  -26.0221  -29.4455   20.7122 C   0  0  0  0  0  0
  -27.2085  -28.6620   20.7008 C   0  0  0  0  0  0
  -26.0276  -26.9334   19.4727 C   0  0  0  0  0  0
  -24.8561  -27.7068   19.4843 C   0  0  0  0  0  0
  -23.6204  -29.8338   20.1636 C   0  0  0  0  0  0
  -25.4112  -36.3103   24.0335 C   0  0  1  0  0  0
  -20.5879  -28.3680   23.1295 C   0  0  2  0  0  0
  -20.6775  -26.9413   22.5409 C   0  0  0  0  0  0
  -19.5749  -26.6386   21.5211 C   0  0  0  0  0  0
  -18.1928  -26.7921   22.1623 C   0  0  0  0  0  0
  -19.1534  -28.8846   23.2888 C   0  0  0  0  0  0
  -18.9457  -30.1448   23.8904 C   0  0  0  0  0  0
  -17.6458  -30.6583   24.0564 C   0  0  0  0  0  0
  -25.9045  -34.9468   23.5123 C   0  0  0  0  0  0
  -16.5351  -29.9085   23.6325 C   0  0  0  0  0  0
  -16.7271  -28.6500   23.0349 C   0  0  0  0  0  0
  -26.4487  -31.6595   25.0733 C   0  0  0  0  0  0
  -25.3732  -31.3715   26.1466 C   0  0  0  0  0  0
  -27.0327  -30.3027   24.6150 C   0  0  0  0  0  0
  -27.6054  -32.4319   25.7501 C   0  0  0  0  0  0
  -27.5583  -37.1811   24.8465 C   0  0  0  0  0  0
  -21.4168  -29.3044   22.3701 N   0  0  0  0  0  0
  -26.4296  -37.3789   23.9406 N   0  0  0  0  0  0
  -24.6793  -31.0716   22.1009 N   0  0  0  0  0  0
  -23.4197  -28.8192   23.3017 O   0  0  0  0  0  0
  -28.3505  -26.5539   20.1489 O   0  0  0  0  0  0
  -26.5608  -34.8925   22.4685 O   0  0  0  0  0  0
  -23.5392  -32.1439   23.7436 O   0  0  0  0  0  0
  -30.5399  -21.7755   18.5194 C   0  0  0  0  0  0
  -30.1385  -20.3604   20.0173 C   0  0  0  0  0  0
  -30.4322  -22.9340   17.5792 C   0  0  0  0  0  0
  -29.5660  -19.5647   21.1775 C   0  0  0  0  0  0
  -29.2234  -18.0507   20.9069 C   0  0  0  0  0  0
  -29.2396  -24.1091   20.3551 C   0  0  0  0  0  0
  -28.8014  -22.5991   20.1865 C   0  0  0  0  0  0
  -30.3856  -17.0079   21.0270 C   0  0  0  0  0  0
  -28.1186  -25.1240   19.9602 C   0  0  0  0  0  0
  -31.3657  -20.7542   18.2793 N   0  0  0  0  0  0
  -31.1190  -19.8423   19.2675 N   0  0  0  0  0  0
  -29.7992  -21.6407   19.6473 N   0  0  0  0  0  0
  -29.9482  -15.5866   20.9804 N   0  0  0  0  0  0
  -31.4717  -12.4384   19.1403 H   0  0  0  0  0  0
  -30.3357  -11.3332   19.8597 H   0  0  0  0  0  0
  -29.7502  -11.7629   17.4515 H   0  0  0  0  0  0
  -29.6609  -13.4785   17.7597 H   0  0  0  0  0  0
  -27.8413  -11.3003   18.8406 H   0  0  0  0  0  0
  -27.3717  -12.6097   17.7899 H   0  0  0  0  0  0
  -27.6901  -14.2527   19.5496 H   0  0  0  0  0  0
  -28.6888  -12.0035   21.3657 H   0  0  0  0  0  0
  -28.4599  -13.6555   21.8571 H   0  0  0  0  0  0
  -25.2759   -9.5693   22.4752 H   0  0  0  0  0  0
  -24.0007   -7.4639   22.7468 H   0  0  0  0  0  0
  -21.0847   -8.8771   19.8937 H   0  0  0  0  0  0
  -22.3695  -10.9674   19.6163 H   0  0  0  0  0  0
  -21.2002   -7.6149   23.9719 H   0  0  0  0  0  0
  -21.1482   -6.0522   25.9079 H   0  0  0  0  0  0
  -22.0598   -2.7611   23.2851 H   0  0  0  0  0  0
  -22.4116  -11.9877   22.4781 H   0  0  0  0  0  0
  -21.1114  -13.1236   22.2598 H   0  0  0  0  0  0
  -24.6656  -15.8450   20.5201 H   0  0  0  0  0  0
  -26.2834  -15.6255   20.0847 H   0  0  0  0  0  0
  -26.7158  -32.5496   23.1145 H   0  0  0  0  0  0
  -25.0079  -33.9762   25.0467 H   0  0  0  0  0  0
  -22.7017  -31.3118   21.4142 H   0  0  0  0  0  0
  -23.3748  -35.9645   23.3308 H   0  0  0  0  0  0
  -24.3582  -36.8916   22.2050 H   0  0  0  0  0  0
  -23.7246  -37.6517   23.6647 H   0  0  0  0  0  0
  -26.0757  -31.5789   20.6060 H   0  0  0  0  0  0
  -26.8324  -30.8582   21.9979 H   0  0  0  0  0  0
  -28.1049  -29.0298   21.1803 H   0  0  0  0  0  0
  -25.9637  -25.9806   18.9698 H   0  0  0  0  0  0
  -23.9620  -27.3298   19.0073 H   0  0  0  0  0  0
  -23.7335  -30.6136   19.4096 H   0  0  0  0  0  0
  -22.7411  -29.2608   19.8629 H   0  0  0  0  0  0
  -25.1287  -36.1967   25.0828 H   0  0  0  0  0  0
  -20.9972  -28.3252   24.1413 H   0  0  0  0  0  0
  -20.5681  -26.2292   23.3602 H   0  0  0  0  0  0
  -21.6644  -26.7450   22.1199 H   0  0  0  0  0  0
  -19.6915  -25.6299   21.1233 H   0  0  0  0  0  0
  -19.6683  -27.3201   20.6741 H   0  0  0  0  0  0
  -17.4200  -26.6671   21.4025 H   0  0  0  0  0  0
  -18.0331  -26.0063   22.9016 H   0  0  0  0  0  0
  -19.7933  -30.7260   24.2277 H   0  0  0  0  0  0
  -17.5014  -31.6259   24.5166 H   0  0  0  0  0  0
  -15.5352  -30.2988   23.7639 H   0  0  0  0  0  0
  -15.8671  -28.0818   22.7060 H   0  0  0  0  0  0
  -24.5903  -30.7069   25.7796 H   0  0  0  0  0  0
  -24.8926  -32.2876   26.4908 H   0  0  0  0  0  0
  -25.8065  -30.8881   27.0231 H   0  0  0  0  0  0
  -26.2893  -29.6784   24.1178 H   0  0  0  0  0  0
  -27.4053  -29.7268   25.4631 H   0  0  0  0  0  0
  -27.8747  -30.4332   23.9348 H   0  0  0  0  0  0
  -27.2669  -33.3612   26.2094 H   0  0  0  0  0  0
  -28.3854  -32.6891   25.0323 H   0  0  0  0  0  0
  -28.0734  -31.8435   26.5403 H   0  0  0  0  0  0
  -28.2603  -38.0106   24.7509 H   0  0  0  0  0  0
  -28.1077  -36.2637   24.6292 H   0  0  0  0  0  0
  -27.2301  -37.1463   25.8869 H   0  0  0  0  0  0
  -20.9335  -29.8780   21.6930 H   0  0  0  0  0  0
  -26.0185  -38.2871   24.1390 H   0  0  0  0  0  0
  -30.6661  -22.6127   16.5641 H   0  0  0  0  0  0
  -31.1386  -23.7159   17.8555 H   0  0  0  0  0  0
  -29.4223  -23.3429   17.5708 H   0  0  0  0  0  0
  -28.6459  -20.0538   21.4932 H   0  0  0  0  0  0
  -30.2482  -19.6474   22.0239 H   0  0  0  0  0  0
  -28.7255  -17.9558   19.9412 H   0  0  0  0  0  0
  -28.4745  -17.7665   21.6473 H   0  0  0  0  0  0
  -30.1380  -24.3377   19.7884 H   0  0  0  0  0  0
  -29.5178  -24.2733   21.3965 H   0  0  0  0  0  0
  -27.9394  -22.5466   19.5205 H   0  0  0  0  0  0
  -28.4429  -22.2352   21.1481 H   0  0  0  0  0  0
  -30.9145  -17.1612   21.9689 H   0  0  0  0  0  0
  -31.1147  -17.1946   20.2371 H   0  0  0  0  0  0
  -27.2321  -24.8341   20.5274 H   0  0  0  0  0  0
  -27.8931  -24.9575   18.9059 H   0  0  0  0  0  0
  -29.0081  -15.3792   21.2840 H   0  0  0  0  0  0
  1 25  1  0  0  0
  1 30  2  0  0  0
  1 83  1  0  0  0
  2  3  1  0  0  0
  2 25  1  0  0  0
  2 84  1  0  0  0
  2 85  1  0  0  0
  3  4  1  0  0  0
  3 86  1  0  0  0
  3 87  1  0  0  0
  4  5  1  0  0  0
  4 88  1  0  0  0
  4 89  1  0  0  0
  5  6  1  0  0  0
  5 26  1  0  0  0
  5 90  1  0  0  0
  6 25  1  0  0  0
  6 91  1  0  0  0
  6 92  1  0  0  0
  7  8  2  0  0  0
  7 26  1  0  0  0
  7 29  1  0  0  0
  8  9  1  0  0  0
  8 22  1  0  0  0
  9 10  1  0  0  0
  9 27  2  0  0  0
 10 11  2  0  0  0
 10 15  1  0  0  0
 11 12  1  0  0  0
 11 93  1  0  0  0
 12 13  2  0  0  0
 12 94  1  0  0  0
 13 14  1  0  0  0
 13 31  1  0  0  0
 14 15  2  0  0  0
 14 95  1  0  0  0
 15 96  1  0  0  0
 16 17  2  0  0  0
 16 21  1  0  0  0
 16 31  1  0  0  0
 17 18  1  0  0  0
 17 97  1  0  0  0
 18 19  2  0  0  0
 18 98  1  0  0  0
 19 20  1  0  0  0
 19 24  1  0  0  0
 20 21  2  0  0  0
 20 99  1  0  0  0
 21 23  1  0  0  0
 22 28  1  0  0  0
 22 32  2  0  0  0
 26 27  1  0  0  0
 28100  1  0  0  0
 28101  1  0  0  0
 29102  1  0  0  0
 29103  1  0  0  0
 33 34  1  0  0  0
 33 66  1  0  0  0
 33 70  2  0  0  0
 34 36  1  0  0  0
 34 59  1  0  0  0
 34104  1  0  0  0
 35 44  2  0  0  0
 35 45  1  0  0  0
 35 68  1  0  0  0
 36 56  1  0  0  0
 36105  1  0  0  0
 37 39  1  0  0  0
 37 47  1  0  0  0
 37 66  1  0  0  0
 37106  1  0  0  0
 38 43  2  0  0  0
 38 46  1  0  0  0
 38 47  1  0  0  0
 39 64  1  0  0  0
 39 67  2  0  0  0
 40 52  1  0  0  0
 40 53  2  0  0  0
 40 58  1  0  0  0
 41107  1  0  0  0
 41108  1  0  0  0
 41109  1  0  0  0
 41 48  1  0  0  0
 42 43  1  0  0  0
 42 66  1  0  0  0
 42110  1  0  0  0
 42111  1  0  0  0
 43 44  1  0  0  0
 44112  1  0  0  0
 45 46  2  0  0  0
 45113  1  0  0  0
 46114  1  0  0  0
 47115  1  0  0  0
 47116  1  0  0  0
 48 56  1  0  0  0
 48 65  1  0  0  0
 48117  1  0  0  0
 49 50  1  0  0  0
 49 53  1  0  0  0
 49 64  1  0  0  0
 49118  1  0  0  0
 50 51  1  0  0  0
 50119  1  0  0  0
 50120  1  0  0  0
 51 52  1  0  0  0
 51121  1  0  0  0
 51122  1  0  0  0
 52123  1  0  0  0
 52124  1  0  0  0
 53 54  1  0  0  0
 54 55  2  0  0  0
 54125  1  0  0  0
 55 57  1  0  0  0
 55126  1  0  0  0
 56 69  2  0  0  0
 57 58  2  0  0  0
 57127  1  0  0  0
 58128  1  0  0  0
 59 60  1  0  0  0
 59 61  1  0  0  0
 59 62  1  0  0  0
 60129  1  0  0  0
 60130  1  0  0  0
 60131  1  0  0  0
 61132  1  0  0  0
 61133  1  0  0  0
 61134  1  0  0  0
 62135  1  0  0  0
 62136  1  0  0  0
 62137  1  0  0  0
 63 65  1  0  0  0
 63138  1  0  0  0
 63139  1  0  0  0
 63140  1  0  0  0
 64141  1  0  0  0
 65142  1  0  0  0
 68 79  1  0  0  0
 71 73  1  0  0  0
 71 80  2  0  0  0
 71 82  1  0  0  0
 72 74  1  0  0  0
 72 81  2  0  0  0
 72 82  1  0  0  0
 73143  1  0  0  0
 73144  1  0  0  0
 73145  1  0  0  0
 74 75  1  0  0  0
 74146  1  0  0  0
 74147  1  0  0  0
 75 78  1  0  0  0
 75148  1  0  0  0
 75149  1  0  0  0
 76 77  1  0  0  0
 76 79  1  0  0  0
 76150  1  0  0  0
 76151  1  0  0  0
 77 82  1  0  0  0
 77152  1  0  0  0
 77153  1  0  0  0
 78 83  1  0  0  0
 78154  1  0  0  0
 78155  1  0  0  0
 79156  1  0  0  0
 79157  1  0  0  0
 80 81  1  0  0  0
 83158  1  0  0  0
M  ISO  4   1 100  68 101  79 101  83 100
M  END
> <chiral flag>
0

> <version>
0

> <s_m_source_file>
/data/baiqing/PycharmProjects/Reinvent-master-3.2/result/LINK_invent/BTK/process_docking_weight1_custom_sum_contain_oxygen_bond_distance_aromatic_linkinvent_7_9_3/rearranged_h_0079.sdf

> <i_m_source_file_index>
91

> <r_mmod_Potential_Energy-OPLS-2005>
-79.3762435913086

> <r_mmod_Stretch_Energy-OPLS-2005>
54.1762542724609

> <r_mmod_Bend_Energy-OPLS-2005>
124.614311218262

> <r_mmod_Torsional_Energy-OPLS-2005>
220.630035400391

> <r_mmod_Improper_Torsional_Energy-OPLS-2005>
4.48954343795776

> <r_mmod_Van_der_Waal_Energy-OPLS-2005>
132.893188476562

> <r_mmod_Electrostatic_Energy-OPLS-2005>
-388.944671630859

> <r_mmod_Solvation_Energy-OPLS-2005>
-253.274551391602

> <b_mmod_Minimization_Converged-OPLS-2005>
0

> <r_mmod_RMS_Derivative-OPLS-2005>
0.817347943782806

$$$$
91
                    3D
 Structure written by MMmdl.
165173  0  0  1  0            999 V2000
  -30.6812  -14.4702   20.5781 C   0  0  0  0  0  0
  -30.4276  -12.3044   19.4254 C   0  0  0  0  0  0
  -29.4983  -12.5045   18.2089 C   0  0  0  0  0  0
  -28.0176  -12.3661   18.6189 C   0  0  0  0  0  0
  -27.6632  -13.2008   19.8786 C   0  0  2  0  0  0
  -28.7024  -12.9687   20.9992 C   0  0  0  0  0  0
  -25.2595  -13.8139   20.5677 C   0  0  0  0  0  0
  -24.1843  -13.0427   20.9186 C   0  0  0  0  0  0
  -24.6390  -11.6895   20.8742 C   0  0  0  0  0  0
  -23.9053  -10.4287   21.0410 C   0  0  0  0  0  0
  -24.3605   -9.4202   21.9190 C   0  0  0  0  0  0
  -23.6287   -8.2234   22.0757 C   0  0  0  0  0  0
  -22.4269   -8.0280   21.3548 C   0  0  0  0  0  0
  -21.9906   -9.0252   20.4647 C   0  0  0  0  0  0
  -22.7228  -10.2135   20.3057 C   0  0  0  0  0  0
  -21.6843   -6.0741   22.5284 C   0  0  0  0  0  0
  -21.4009   -6.5639   23.8222 C   0  0  0  0  0  0
  -21.3659   -5.6790   24.9180 C   0  0  0  0  0  0
  -21.6045   -4.3054   24.7224 C   0  0  0  0  0  0
  -21.8817   -3.8151   23.4340 C   0  0  0  0  0  0
  -21.9187   -4.6971   22.3400 C   0  0  0  0  0  0
  -22.7864  -13.5240   21.1846 C   0  0  0  0  0  0
  -22.1653   -4.2158   21.0976 F   0  0  0  0  0  0
  -21.5633   -3.4536   25.7733 F   0  0  0  0  0  0
  -30.0348  -13.2804   20.4531 N   0  0  0  0  0  0
  -26.3027  -12.9298   20.3373 N   0  0  0  0  0  0
  -25.9314  -11.6463   20.5767 N   0  0  0  0  0  0
  -22.0484  -12.8251   22.0400 N   0  0  0  0  0  0
  -25.4319  -15.1857   20.4063 N   0  0  0  0  0  0
  -31.7985  -14.6867   20.0992 O   0  0  0  0  0  0
  -21.6627   -6.8884   21.4248 O   0  0  0  0  0  0
  -22.3561  -14.5545   20.6686 O   0  0  0  0  0  0
  -24.6139  -31.8679   23.2084 C   0  0  0  0  0  0
  -25.9035  -32.4819   23.8386 C   0  0  1  0  0  0
  -27.2396  -27.4287   20.0934 C   0  0  0  0  0  0
  -25.5893  -33.8617   24.2324 N   0  0  0  0  0  0
  -23.4017  -30.4892   21.5498 C   0  0  2  0  0  0
  -24.8467  -28.9497   20.1166 C   0  0  0  0  0  0
  -22.7408  -29.4652   22.4999 C   0  0  0  0  0  0
  -18.0271  -28.1371   22.8498 C   0  0  0  0  0  0
  -24.1486  -36.7314   23.2637 C   0  0  0  0  0  0
  -25.9295  -30.8298   21.3613 C   0  0  0  0  0  0
  -26.0051  -29.4621   20.7114 C   0  0  0  0  0  0
  -27.1989  -28.7074   20.6981 C   0  0  0  0  0  0
  -26.0555  -26.9227   19.5067 C   0  0  0  0  0  0
  -24.8669  -27.6794   19.5138 C   0  0  0  0  0  0
  -23.6090  -29.8173   20.1653 C   0  0  0  0  0  0
  -25.4108  -36.3113   24.0337 C   0  0  1  0  0  0
  -20.5863  -28.3652   23.1332 C   0  0  2  0  0  0
  -20.6765  -26.9397   22.5420 C   0  0  0  0  0  0
  -19.5747  -26.6395   21.5206 C   0  0  0  0  0  0
  -18.1921  -26.7922   22.1619 C   0  0  0  0  0  0
  -19.1521  -28.8824   23.2917 C   0  0  0  0  0  0
  -18.9455  -30.1431   23.8928 C   0  0  0  0  0  0
  -17.6459  -30.6580   24.0567 C   0  0  0  0  0  0
  -25.9033  -34.9477   23.5130 C   0  0  0  0  0  0
  -16.5350  -29.9085   23.6325 C   0  0  0  0  0  0
  -16.7263  -28.6499   23.0349 C   0  0  0  0  0  0
  -26.4463  -31.6599   25.0712 C   0  0  0  0  0  0
  -25.3729  -31.3705   26.1459 C   0  0  0  0  0  0
  -27.0285  -30.3042   24.6076 C   0  0  0  0  0  0
  -27.6045  -32.4312   25.7470 C   0  0  0  0  0  0
  -27.5583  -37.1811   24.8465 C   0  0  0  0  0  0
  -21.4136  -29.3028   22.3747 N   0  0  0  0  0  0
  -26.4297  -37.3797   23.9406 N   0  0  0  0  0  0
  -24.6668  -31.0771   22.0985 N   0  0  0  0  0  0
  -23.4181  -28.8199   23.3042 O   0  0  0  0  0  0
  -28.4422  -26.7474   20.1067 O   0  0  0  0  0  0
  -26.5596  -34.8930   22.4691 O   0  0  0  0  0  0
  -23.5336  -32.1433   23.7482 O   0  0  0  0  0  0
  -28.5638  -19.8297   19.6909 C   0  0  0  0  0  0
  -29.7133  -21.3352   21.6662 C   0  0  0  0  0  0
  -28.6590  -21.2249   19.4957 C   0  0  0  0  0  0
  -29.2444  -22.0135   20.5178 C   0  0  0  0  0  0
  -29.0543  -19.2498   20.8774 C   0  0  0  0  0  0
  -24.6027  -22.5601   16.7210 C   0  0  0  0  0  0
  -28.1699  -21.8273   18.1866 C   0  0  0  0  0  0
  -28.9079  -17.7447   21.1361 C   0  0  0  0  0  0
  -26.1303  -22.5889   16.8401 C   0  0  0  0  0  0
  -26.6358  -21.8209   18.0703 C   0  0  0  0  0  0
  -30.2051  -16.9075   20.9887 C   0  0  0  0  0  0
  -28.5825  -25.4609   19.4849 C   0  0  0  0  0  0
  -28.3485  -24.2600   20.4395 C   0  0  0  0  0  0
  -29.6197  -19.9958   21.8522 N   0  0  0  0  0  0
  -29.9422  -15.4610   21.1089 N   0  0  0  0  0  0
  -29.4743  -23.3705   20.3888 O   0  0  0  0  0  0
  -31.4724  -12.4107   19.1290 H   0  0  0  0  0  0
  -30.3335  -11.2908   19.8187 H   0  0  0  0  0  0
  -29.7401  -11.7793   17.4305 H   0  0  0  0  0  0
  -29.6697  -13.4892   17.7712 H   0  0  0  0  0  0
  -27.8257  -11.3092   18.8110 H   0  0  0  0  0  0
  -27.3680  -12.6450   17.7883 H   0  0  0  0  0  0
  -27.7117  -14.2503   19.5883 H   0  0  0  0  0  0
  -28.6784  -11.9284   21.3263 H   0  0  0  0  0  0
  -28.4619  -13.5554   21.8872 H   0  0  0  0  0  0
  -25.2748   -9.5676   22.4772 H   0  0  0  0  0  0
  -23.9995   -7.4621   22.7473 H   0  0  0  0  0  0
  -21.0839   -8.8764   19.8948 H   0  0  0  0  0  0
  -22.3685  -10.9676   19.6167 H   0  0  0  0  0  0
  -21.2000   -7.6145   23.9729 H   0  0  0  0  0  0
  -21.1487   -6.0517   25.9086 H   0  0  0  0  0  0
  -22.0600   -2.7614   23.2834 H   0  0  0  0  0  0
  -22.4064  -11.9902   22.4795 H   0  0  0  0  0  0
  -21.1103  -13.1300   22.2585 H   0  0  0  0  0  0
  -24.6619  -15.8379   20.5070 H   0  0  0  0  0  0
  -26.2750  -15.6209   20.0555 H   0  0  0  0  0  0
  -26.7105  -32.5523   23.1150 H   0  0  0  0  0  0
  -25.0046  -33.9788   25.0470 H   0  0  0  0  0  0
  -22.6900  -31.3054   21.4093 H   0  0  0  0  0  0
  -23.3749  -35.9647   23.3311 H   0  0  0  0  0  0
  -24.3579  -36.8913   22.2050 H   0  0  0  0  0  0
  -23.7237  -37.6524   23.6640 H   0  0  0  0  0  0
  -26.0407  -31.5936   20.5907 H   0  0  0  0  0  0
  -26.8191  -30.8861   21.9773 H   0  0  0  0  0  0
  -28.0957  -29.1046   21.1535 H   0  0  0  0  0  0
  -26.0222  -25.9480   19.0441 H   0  0  0  0  0  0
  -23.9728  -27.2767   19.0577 H   0  0  0  0  0  0
  -23.7159  -30.5894   19.4024 H   0  0  0  0  0  0
  -22.7332  -29.2354   19.8721 H   0  0  0  0  0  0
  -25.1288  -36.1984   25.0833 H   0  0  0  0  0  0
  -20.9950  -28.3204   24.1455 H   0  0  0  0  0  0
  -20.5660  -26.2259   23.3598 H   0  0  0  0  0  0
  -21.6642  -26.7445   22.1218 H   0  0  0  0  0  0
  -19.6917  -25.6318   21.1207 H   0  0  0  0  0  0
  -19.6688  -27.3233   20.6760 H   0  0  0  0  0  0
  -17.4199  -26.6676   21.4015 H   0  0  0  0  0  0
  -18.0327  -26.0048   22.8999 H   0  0  0  0  0  0
  -19.7933  -30.7228   24.2323 H   0  0  0  0  0  0
  -17.5020  -31.6264   24.5164 H   0  0  0  0  0  0
  -15.5355  -30.2997   23.7637 H   0  0  0  0  0  0
  -15.8661  -28.0827   22.7058 H   0  0  0  0  0  0
  -24.5901  -30.7051   25.7797 H   0  0  0  0  0  0
  -24.8915  -32.2861   26.4907 H   0  0  0  0  0  0
  -25.8082  -30.8874   27.0214 H   0  0  0  0  0  0
  -26.2824  -29.6813   24.1121 H   0  0  0  0  0  0
  -27.4056  -29.7262   25.4525 H   0  0  0  0  0  0
  -27.8663  -30.4368   23.9223 H   0  0  0  0  0  0
  -27.2673  -33.3601   26.2081 H   0  0  0  0  0  0
  -28.3838  -32.6884   25.0283 H   0  0  0  0  0  0
  -28.0731  -31.8407   26.5353 H   0  0  0  0  0  0
  -28.2614  -38.0098   24.7513 H   0  0  0  0  0  0
  -28.1070  -36.2631   24.6298 H   0  0  0  0  0  0
  -27.2299  -37.1476   25.8868 H   0  0  0  0  0  0
  -20.9291  -29.8754   21.6978 H   0  0  0  0  0  0
  -26.0189  -38.2880   24.1399 H   0  0  0  0  0  0
  -28.1162  -19.2069   18.9281 H   0  0  0  0  0  0
  -30.1931  -21.8875   22.4608 H   0  0  0  0  0  0
  -24.2697  -23.1164   15.8442 H   0  0  0  0  0  0
  -24.1286  -23.0068   17.5957 H   0  0  0  0  0  0
  -24.2332  -21.5387   16.6251 H   0  0  0  0  0  0
  -28.6030  -21.2583   17.3633 H   0  0  0  0  0  0
  -28.5563  -22.8393   18.0742 H   0  0  0  0  0  0
  -28.1510  -17.3582   20.4526 H   0  0  0  0  0  0
  -28.4967  -17.6083   22.1370 H   0  0  0  0  0  0
  -26.4643  -23.6263   16.8919 H   0  0  0  0  0  0
  -26.5711  -22.1684   15.9353 H   0  0  0  0  0  0
  -26.1979  -22.2610   18.9661 H   0  0  0  0  0  0
  -26.2811  -20.7901   18.0373 H   0  0  0  0  0  0
  -30.9355  -17.2091   21.7408 H   0  0  0  0  0  0
  -30.6518  -17.1163   20.0146 H   0  0  0  0  0  0
  -29.6227  -25.4284   19.1598 H   0  0  0  0  0  0
  -28.0189  -25.3602   18.5578 H   0  0  0  0  0  0
  -27.4074  -23.7648   20.2045 H   0  0  0  0  0  0
  -28.2586  -24.6181   21.4659 H   0  0  0  0  0  0
  -29.0516  -15.1854   21.4948 H   0  0  0  0  0  0
  1 25  1  0  0  0
  1 30  2  0  0  0
  1 85  1  0  0  0
  2  3  1  0  0  0
  2 25  1  0  0  0
  2 87  1  0  0  0
  2 88  1  0  0  0
  3  4  1  0  0  0
  3 89  1  0  0  0
  3 90  1  0  0  0
  4  5  1  0  0  0
  4 91  1  0  0  0
  4 92  1  0  0  0
  5  6  1  0  0  0
  5 26  1  0  0  0
  5 93  1  0  0  0
  6 25  1  0  0  0
  6 94  1  0  0  0
  6 95  1  0  0  0
  7  8  2  0  0  0
  7 26  1  0  0  0
  7 29  1  0  0  0
  8  9  1  0  0  0
  8 22  1  0  0  0
  9 10  1  0  0  0
  9 27  2  0  0  0
 10 11  2  0  0  0
 10 15  1  0  0  0
 11 12  1  0  0  0
 11 96  1  0  0  0
 12 13  2  0  0  0
 12 97  1  0  0  0
 13 14  1  0  0  0
 13 31  1  0  0  0
 14 15  2  0  0  0
 14 98  1  0  0  0
 15 99  1  0  0  0
 16 17  2  0  0  0
 16 21  1  0  0  0
 16 31  1  0  0  0
 17 18  1  0  0  0
 17100  1  0  0  0
 18 19  2  0  0  0
 18101  1  0  0  0
 19 20  1  0  0  0
 19 24  1  0  0  0
 20 21  2  0  0  0
 20102  1  0  0  0
 21 23  1  0  0  0
 22 28  1  0  0  0
 22 32  2  0  0  0
 26 27  1  0  0  0
 28103  1  0  0  0
 28104  1  0  0  0
 29105  1  0  0  0
 29106  1  0  0  0
 33 34  1  0  0  0
 33 66  1  0  0  0
 33 70  2  0  0  0
 34 36  1  0  0  0
 34 59  1  0  0  0
 34107  1  0  0  0
 35 44  2  0  0  0
 35 45  1  0  0  0
 35 68  1  0  0  0
 36 56  1  0  0  0
 36108  1  0  0  0
 37 39  1  0  0  0
 37 47  1  0  0  0
 37 66  1  0  0  0
 37109  1  0  0  0
 38 43  2  0  0  0
 38 46  1  0  0  0
 38 47  1  0  0  0
 39 64  1  0  0  0
 39 67  2  0  0  0
 40 52  1  0  0  0
 40 53  2  0  0  0
 40 58  1  0  0  0
 41110  1  0  0  0
 41111  1  0  0  0
 41112  1  0  0  0
 41 48  1  0  0  0
 42 43  1  0  0  0
 42 66  1  0  0  0
 42113  1  0  0  0
 42114  1  0  0  0
 43 44  1  0  0  0
 44115  1  0  0  0
 45 46  2  0  0  0
 45116  1  0  0  0
 46117  1  0  0  0
 47118  1  0  0  0
 47119  1  0  0  0
 48 56  1  0  0  0
 48 65  1  0  0  0
 48120  1  0  0  0
 49 50  1  0  0  0
 49 53  1  0  0  0
 49 64  1  0  0  0
 49121  1  0  0  0
 50 51  1  0  0  0
 50122  1  0  0  0
 50123  1  0  0  0
 51 52  1  0  0  0
 51124  1  0  0  0
 51125  1  0  0  0
 52126  1  0  0  0
 52127  1  0  0  0
 53 54  1  0  0  0
 54 55  2  0  0  0
 54128  1  0  0  0
 55 57  1  0  0  0
 55129  1  0  0  0
 56 69  2  0  0  0
 57 58  2  0  0  0
 57130  1  0  0  0
 58131  1  0  0  0
 59 60  1  0  0  0
 59 61  1  0  0  0
 59 62  1  0  0  0
 60132  1  0  0  0
 60133  1  0  0  0
 60134  1  0  0  0
 61135  1  0  0  0
 61136  1  0  0  0
 61137  1  0  0  0
 62138  1  0  0  0
 62139  1  0  0  0
 62140  1  0  0  0
 63 65  1  0  0  0
 63141  1  0  0  0
 63142  1  0  0  0
 63143  1  0  0  0
 64144  1  0  0  0
 65145  1  0  0  0
 68 82  1  0  0  0
 71 73  2  0  0  0
 71 75  1  0  0  0
 71146  1  0  0  0
 72 74  2  0  0  0
 72 84  1  0  0  0
 72147  1  0  0  0
 73 74  1  0  0  0
 73 77  1  0  0  0
 74 86  1  0  0  0
 75 78  1  0  0  0
 75 84  2  0  0  0
 76 79  1  0  0  0
 76148  1  0  0  0
 76149  1  0  0  0
 76150  1  0  0  0
 77 80  1  0  0  0
 77151  1  0  0  0
 77152  1  0  0  0
 78 81  1  0  0  0
 78153  1  0  0  0
 78154  1  0  0  0
 79 80  1  0  0  0
 79155  1  0  0  0
 79156  1  0  0  0
 80157  1  0  0  0
 80158  1  0  0  0
 81 85  1  0  0  0
 81159  1  0  0  0
 81160  1  0  0  0
 82 83  1  0  0  0
 82161  1  0  0  0
 82162  1  0  0  0
 83 86  1  0  0  0
 83163  1  0  0  0
 83164  1  0  0  0
 85165  1  0  0  0
M  ISO  4   1 100  68 101  82 101  85 100
M  END
> <chiral flag>
0

> <version>
0

> <s_m_source_file>
/data/baiqing/PycharmProjects/Reinvent-master-3.2/result/LINK_invent/BTK/process_docking_weight1_custom_sum_contain_oxygen_bond_distance_aromatic_linkinvent_7_9_3/rearranged_h_0079.sdf

> <i_m_source_file_index>
92

> <r_mmod_Potential_Energy-OPLS-2005>
-125.9775390625

> <r_mmod_Stretch_Energy-OPLS-2005>
38.092342376709

> <r_mmod_Bend_Energy-OPLS-2005>
107.059181213379

> <r_mmod_Torsional_Energy-OPLS-2005>
215.516067504883

> <r_mmod_Improper_Torsional_Energy-OPLS-2005>
4.69203233718872

> <r_mmod_Van_der_Waal_Energy-OPLS-2005>
144.67497253418

> <r_mmod_Electrostatic_Energy-OPLS-2005>
-420.975891113281

> <r_mmod_Solvation_Energy-OPLS-2005>
-227.598571777344

> <b_mmod_Minimization_Converged-OPLS-2005>
0

> <r_mmod_RMS_Derivative-OPLS-2005>
0.980984330177307

$$$$
92
                    3D
 Structure written by MMmdl.
152160  0  0  1  0            999 V2000
  -30.5286  -14.8756   20.4336 C   0  0  0  0  0  0
  -30.4538  -12.5339   19.4841 C   0  0  0  0  0  0
  -29.5242  -12.5216   18.2467 C   0  0  0  0  0  0
  -28.0522  -12.3188   18.6617 C   0  0  0  0  0  0
  -27.6404  -13.2304   19.8467 C   0  0  2  0  0  0
  -28.6872  -13.1972   20.9820 C   0  0  0  0  0  0
  -25.2522  -13.8177   20.5706 C   0  0  0  0  0  0
  -24.1817  -13.0428   20.9230 C   0  0  0  0  0  0
  -24.6408  -11.6910   20.8765 C   0  0  0  0  0  0
  -23.9080  -10.4289   21.0421 C   0  0  0  0  0  0
  -24.3627   -9.4200   21.9196 C   0  0  0  0  0  0
  -23.6292   -8.2241   22.0765 C   0  0  0  0  0  0
  -22.4274   -8.0287   21.3551 C   0  0  0  0  0  0
  -21.9917   -9.0267   20.4654 C   0  0  0  0  0  0
  -22.7257  -10.2140   20.3063 C   0  0  0  0  0  0
  -21.6849   -6.0742   22.5279 C   0  0  0  0  0  0
  -21.4015   -6.5642   23.8214 C   0  0  0  0  0  0
  -21.3656   -5.6794   24.9175 C   0  0  0  0  0  0
  -21.6042   -4.3057   24.7225 C   0  0  0  0  0  0
  -21.8817   -3.8151   23.4344 C   0  0  0  0  0  0
  -21.9192   -4.6970   22.3402 C   0  0  0  0  0  0
  -22.7840  -13.5223   21.1869 C   0  0  0  0  0  0
  -22.1661   -4.2156   21.0981 F   0  0  0  0  0  0
  -21.5627   -3.4539   25.7735 F   0  0  0  0  0  0
  -29.9737  -13.6031   20.3972 N   0  0  0  0  0  0
  -26.2936  -12.9377   20.3258 N   0  0  0  0  0  0
  -25.9336  -11.6524   20.5745 N   0  0  0  0  0  0
  -22.0469  -12.8224   22.0419 N   0  0  0  0  0  0
  -25.4194  -15.1899   20.4097 N   0  0  0  0  0  0
  -31.7271  -14.9997   20.1513 O   0  0  0  0  0  0
  -21.6632   -6.8889   21.4243 O   0  0  0  0  0  0
  -22.3537  -14.5531   20.6704 O   0  0  0  0  0  0
  -24.6388  -31.8486   23.1897 C   0  0  0  0  0  0
  -25.9179  -32.4718   23.8279 C   0  0  1  0  0  0
  -27.2266  -27.1855   20.1551 C   0  0  0  0  0  0
  -25.5943  -33.8520   24.2212 N   0  0  0  0  0  0
  -23.4402  -30.4657   21.5350 C   0  0  2  0  0  0
  -24.8911  -28.8922   20.1171 C   0  0  0  0  0  0
  -22.7545  -29.4569   22.4888 C   0  0  0  0  0  0
  -18.0309  -28.1383   22.8472 C   0  0  0  0  0  0
  -24.1490  -36.7268   23.2641 C   0  0  0  0  0  0
  -25.9907  -30.7387   21.3785 C   0  0  0  0  0  0
  -26.0660  -29.3505   20.7281 C   0  0  0  0  0  0
  -27.2385  -28.5141   20.7254 C   0  0  0  0  0  0
  -26.0280  -26.8088   19.5152 C   0  0  0  0  0  0
  -24.8817  -27.6325   19.4963 C   0  0  0  0  0  0
  -23.6651  -29.7893   20.1561 C   0  0  0  0  0  0
  -25.4118  -36.3045   24.0324 C   0  0  1  0  0  0
  -20.5914  -28.3706   23.1258 C   0  0  2  0  0  0
  -20.6793  -26.9414   22.5406 C   0  0  0  0  0  0
  -19.5774  -26.6377   21.5203 C   0  0  0  0  0  0
  -18.1951  -26.7927   22.1609 C   0  0  0  0  0  0
  -19.1560  -28.8859   23.2859 C   0  0  0  0  0  0
  -18.9473  -30.1458   23.8881 C   0  0  0  0  0  0
  -17.6468  -30.6576   24.0560 C   0  0  0  0  0  0
  -25.9067  -34.9418   23.5078 C   0  0  0  0  0  0
  -16.5361  -29.9073   23.6323 C   0  0  0  0  0  0
  -16.7295  -28.6494   23.0339 C   0  0  0  0  0  0
  -26.4515  -31.6565   25.0701 C   0  0  0  0  0  0
  -25.3718  -31.3737   26.1411 C   0  0  0  0  0  0
  -27.0374  -30.2972   24.6229 C   0  0  0  0  0  0
  -27.6051  -32.4322   25.7484 C   0  0  0  0  0  0
  -27.5576  -37.1788   24.8463 C   0  0  0  0  0  0
  -21.4240  -29.3051   22.3641 N   0  0  0  0  0  0
  -26.4284  -37.3753   23.9415 N   0  0  0  0  0  0
  -24.7096  -31.0380   22.0905 N   0  0  0  0  0  0
  -23.4215  -28.8124   23.3022 O   0  0  0  0  0  0
  -28.3086  -26.2511   20.1554 O   0  0  0  0  0  0
  -26.5644  -34.8908   22.4650 O   0  0  0  0  0  0
  -23.5518  -32.1336   23.7153 O   0  0  0  0  0  0
  -28.3290  -18.0826   20.2990 C   0  0  0  0  0  0
  -30.3887  -19.7675   20.7202 C   0  0  0  0  0  0
  -28.0854  -19.5045   20.3236 C   0  0  0  0  0  0
  -29.1288  -20.4482   20.5728 C   0  0  0  0  0  0
  -29.6057  -17.4726   20.5014 C   0  0  0  0  0  0
  -26.6582  -19.9907   20.1554 C   0  0  0  0  0  0
  -28.8490  -22.0190   20.9760 C   0  0  0  0  0  0
  -28.7465  -23.3908   20.0425 C   0  0  0  0  0  0
  -28.1255  -24.8112   20.6634 C   0  0  0  0  0  0
  -30.6158  -18.3888   20.6793 N   0  0  0  0  0  0
  -29.6373  -15.9573   20.5770 N   0  0  0  0  0  0
  -31.4880  -12.6969   19.1759 H   0  0  0  0  0  0
  -30.4417  -11.5657   19.9879 H   0  0  0  0  0  0
  -29.8290  -11.7382   17.5513 H   0  0  0  0  0  0
  -29.6239  -13.4645   17.7062 H   0  0  0  0  0  0
  -27.9320  -11.2726   18.9459 H   0  0  0  0  0  0
  -27.3920  -12.4807   17.8088 H   0  0  0  0  0  0
  -27.6201  -14.2423   19.4426 H   0  0  0  0  0  0
  -28.7578  -12.1997   21.4194 H   0  0  0  0  0  0
  -28.4012  -13.8649   21.7959 H   0  0  0  0  0  0
  -25.2773   -9.5664   22.4773 H   0  0  0  0  0  0
  -23.9993   -7.4630   22.7488 H   0  0  0  0  0  0
  -21.0843   -8.8799   19.8960 H   0  0  0  0  0  0
  -22.3730  -10.9685   19.6171 H   0  0  0  0  0  0
  -21.2013   -7.6152   23.9719 H   0  0  0  0  0  0
  -21.1475   -6.0525   25.9078 H   0  0  0  0  0  0
  -22.0596   -2.7612   23.2842 H   0  0  0  0  0  0
  -22.4067  -11.9882   22.4817 H   0  0  0  0  0  0
  -21.1091  -13.1275   22.2606 H   0  0  0  0  0  0
  -24.6415  -15.8328   20.5092 H   0  0  0  0  0  0
  -26.2315  -15.6187   19.9896 H   0  0  0  0  0  0
  -26.7250  -32.5342   23.1016 H   0  0  0  0  0  0
  -25.0072  -33.9635   25.0348 H   0  0  0  0  0  0
  -22.7403  -31.2893   21.3798 H   0  0  0  0  0  0
  -23.3752  -35.9598   23.3288 H   0  0  0  0  0  0
  -24.3573  -36.8909   22.2056 H   0  0  0  0  0  0
  -23.7241  -37.6461   23.6682 H   0  0  0  0  0  0
  -26.1334  -31.4911   20.6018 H   0  0  0  0  0  0
  -26.8660  -30.7955   22.0135 H   0  0  0  0  0  0
  -28.1408  -28.8652   21.2064 H   0  0  0  0  0  0
  -25.9703  -25.8429   19.0332 H   0  0  0  0  0  0
  -23.9849  -27.2768   19.0088 H   0  0  0  0  0  0
  -23.7986  -30.5605   19.3967 H   0  0  0  0  0  0
  -22.7820  -29.2259   19.8493 H   0  0  0  0  0  0
  -25.1300  -36.1877   25.0814 H   0  0  0  0  0  0
  -21.0002  -28.3277   24.1382 H   0  0  0  0  0  0
  -20.5691  -26.2311   23.3617 H   0  0  0  0  0  0
  -21.6661  -26.7428   22.1200 H   0  0  0  0  0  0
  -19.6938  -25.6288   21.1233 H   0  0  0  0  0  0
  -19.6717  -27.3187   20.6738 H   0  0  0  0  0  0
  -17.4226  -26.6693   21.4003 H   0  0  0  0  0  0
  -18.0328  -26.0069   22.9003 H   0  0  0  0  0  0
  -19.7946  -30.7277   24.2253 H   0  0  0  0  0  0
  -17.5015  -31.6248   24.5169 H   0  0  0  0  0  0
  -15.5357  -30.2959   23.7651 H   0  0  0  0  0  0
  -15.8705  -28.0808   22.7052 H   0  0  0  0  0  0
  -24.5893  -30.7089   25.7731 H   0  0  0  0  0  0
  -24.8913  -32.2915   26.4810 H   0  0  0  0  0  0
  -25.8020  -30.8923   27.0204 H   0  0  0  0  0  0
  -26.2974  -29.6703   24.1242 H   0  0  0  0  0  0
  -27.4022  -29.7254   25.4772 H   0  0  0  0  0  0
  -27.8861  -30.4226   23.9503 H   0  0  0  0  0  0
  -27.2646  -33.3631   26.2028 H   0  0  0  0  0  0
  -28.3879  -32.6873   25.0330 H   0  0  0  0  0  0
  -28.0701  -31.8472   26.5427 H   0  0  0  0  0  0
  -28.2584  -38.0094   24.7510 H   0  0  0  0  0  0
  -28.1082  -36.2622   24.6287 H   0  0  0  0  0  0
  -27.2294  -37.1428   25.8866 H   0  0  0  0  0  0
  -20.9442  -29.8773   21.6834 H   0  0  0  0  0  0
  -26.0156  -38.2823   24.1414 H   0  0  0  0  0  0
  -27.4756  -17.4360   20.1509 H   0  0  0  0  0  0
  -31.2642  -20.3528   20.9597 H   0  0  0  0  0  0
  -26.0532  -19.2613   19.6167 H   0  0  0  0  0  0
  -26.6262  -20.9231   19.5923 H   0  0  0  0  0  0
  -26.1992  -20.1588   21.1297 H   0  0  0  0  0  0
  -29.5915  -22.2430   21.7427 H   0  0  0  0  0  0
  -27.9170  -21.9937   21.5407 H   0  0  0  0  0  0
  -29.7477  -23.5980   19.6649 H   0  0  0  0  0  0
  -28.1546  -23.1521   19.1592 H   0  0  0  0  0  0
  -28.5201  -24.8667   21.6781 H   0  0  0  0  0  0
  -27.0592  -24.6425   20.8156 H   0  0  0  0  0  0
  -28.7132  -15.5859   20.7160 H   0  0  0  0  0  0
  1 25  1  0  0  0
  1 30  2  0  0  0
  1 81  1  0  0  0
  2  3  1  0  0  0
  2 25  1  0  0  0
  2 82  1  0  0  0
  2 83  1  0  0  0
  3  4  1  0  0  0
  3 84  1  0  0  0
  3 85  1  0  0  0
  4  5  1  0  0  0
  4 86  1  0  0  0
  4 87  1  0  0  0
  5  6  1  0  0  0
  5 26  1  0  0  0
  5 88  1  0  0  0
  6 25  1  0  0  0
  6 89  1  0  0  0
  6 90  1  0  0  0
  7  8  2  0  0  0
  7 26  1  0  0  0
  7 29  1  0  0  0
  8  9  1  0  0  0
  8 22  1  0  0  0
  9 10  1  0  0  0
  9 27  2  0  0  0
 10 11  2  0  0  0
 10 15  1  0  0  0
 11 12  1  0  0  0
 11 91  1  0  0  0
 12 13  2  0  0  0
 12 92  1  0  0  0
 13 14  1  0  0  0
 13 31  1  0  0  0
 14 15  2  0  0  0
 14 93  1  0  0  0
 15 94  1  0  0  0
 16 17  2  0  0  0
 16 21  1  0  0  0
 16 31  1  0  0  0
 17 18  1  0  0  0
 17 95  1  0  0  0
 18 19  2  0  0  0
 18 96  1  0  0  0
 19 20  1  0  0  0
 19 24  1  0  0  0
 20 21  2  0  0  0
 20 97  1  0  0  0
 21 23  1  0  0  0
 22 28  1  0  0  0
 22 32  2  0  0  0
 26 27  1  0  0  0
 28 98  1  0  0  0
 28 99  1  0  0  0
 29100  1  0  0  0
 29101  1  0  0  0
 33 34  1  0  0  0
 33 66  1  0  0  0
 33 70  2  0  0  0
 34 36  1  0  0  0
 34 59  1  0  0  0
 34102  1  0  0  0
 35 44  2  0  0  0
 35 45  1  0  0  0
 35 68  1  0  0  0
 36 56  1  0  0  0
 36103  1  0  0  0
 37 39  1  0  0  0
 37 47  1  0  0  0
 37 66  1  0  0  0
 37104  1  0  0  0
 38 43  2  0  0  0
 38 46  1  0  0  0
 38 47  1  0  0  0
 39 64  1  0  0  0
 39 67  2  0  0  0
 40 52  1  0  0  0
 40 53  2  0  0  0
 40 58  1  0  0  0
 41105  1  0  0  0
 41106  1  0  0  0
 41107  1  0  0  0
 41 48  1  0  0  0
 42 43  1  0  0  0
 42 66  1  0  0  0
 42108  1  0  0  0
 42109  1  0  0  0
 43 44  1  0  0  0
 44110  1  0  0  0
 45 46  2  0  0  0
 45111  1  0  0  0
 46112  1  0  0  0
 47113  1  0  0  0
 47114  1  0  0  0
 48 56  1  0  0  0
 48 65  1  0  0  0
 48115  1  0  0  0
 49 50  1  0  0  0
 49 53  1  0  0  0
 49 64  1  0  0  0
 49116  1  0  0  0
 50 51  1  0  0  0
 50117  1  0  0  0
 50118  1  0  0  0
 51 52  1  0  0  0
 51119  1  0  0  0
 51120  1  0  0  0
 52121  1  0  0  0
 52122  1  0  0  0
 53 54  1  0  0  0
 54 55  2  0  0  0
 54123  1  0  0  0
 55 57  1  0  0  0
 55124  1  0  0  0
 56 69  2  0  0  0
 57 58  2  0  0  0
 57125  1  0  0  0
 58126  1  0  0  0
 59 60  1  0  0  0
 59 61  1  0  0  0
 59 62  1  0  0  0
 60127  1  0  0  0
 60128  1  0  0  0
 60129  1  0  0  0
 61130  1  0  0  0
 61131  1  0  0  0
 61132  1  0  0  0
 62133  1  0  0  0
 62134  1  0  0  0
 62135  1  0  0  0
 63 65  1  0  0  0
 63136  1  0  0  0
 63137  1  0  0  0
 63138  1  0  0  0
 64139  1  0  0  0
 65140  1  0  0  0
 68 79  1  0  0  0
 71 73  2  0  0  0
 71 75  1  0  0  0
 71141  1  0  0  0
 72 74  2  0  0  0
 72 80  1  0  0  0
 72142  1  0  0  0
 73 74  1  0  0  0
 73 76  1  0  0  0
 74 77  1  0  0  0
 75 80  2  0  0  0
 75 81  1  0  0  0
 76143  1  0  0  0
 76144  1  0  0  0
 76145  1  0  0  0
 77 78  1  0  0  0
 77146  1  0  0  0
 77147  1  0  0  0
 78 79  1  0  0  0
 78148  1  0  0  0
 78149  1  0  0  0
 79150  1  0  0  0
 79151  1  0  0  0
 81152  1  0  0  0
M  ISO  4   1 100  68 101  79 101  81 100
M  END
> <chiral flag>
0

> <version>
0

> <s_m_source_file>
/data/baiqing/PycharmProjects/Reinvent-master-3.2/result/LINK_invent/BTK/process_docking_weight1_custom_sum_contain_oxygen_bond_distance_aromatic_linkinvent_7_9_3/rearranged_h_0079.sdf

> <i_m_source_file_index>
93

> <r_mmod_Potential_Energy-OPLS-2005>
249.827438354492

> <r_mmod_Stretch_Energy-OPLS-2005>
192.020614624023

> <r_mmod_Bend_Energy-OPLS-2005>
249.721664428711

> <r_mmod_Torsional_Energy-OPLS-2005>
233.633682250977

> <r_mmod_Improper_Torsional_Energy-OPLS-2005>
7.98185920715332

> <r_mmod_Van_der_Waal_Energy-OPLS-2005>
129.754959106445

> <r_mmod_Electrostatic_Energy-OPLS-2005>
-471.934051513672

> <r_mmod_Solvation_Energy-OPLS-2005>
-235.305435180664

> <b_mmod_Minimization_Converged-OPLS-2005>
0

> <r_mmod_RMS_Derivative-OPLS-2005>
1.00402128696442

$$$$
93
                    3D
 Structure written by MMmdl.
163171  0  0  1  0            999 V2000
  -30.7171  -14.4399   20.5813 C   0  0  0  0  0  0
  -30.4150  -12.2850   19.4284 C   0  0  0  0  0  0
  -29.4966  -12.5119   18.2106 C   0  0  0  0  0  0
  -28.0179  -12.3691   18.6182 C   0  0  0  0  0  0
  -27.6617  -13.2053   19.8765 C   0  0  2  0  0  0
  -28.6988  -12.9801   21.0009 C   0  0  0  0  0  0
  -25.2583  -13.8150   20.5682 C   0  0  0  0  0  0
  -24.1821  -13.0436   20.9157 C   0  0  0  0  0  0
  -24.6362  -11.6897   20.8707 C   0  0  0  0  0  0
  -23.9035  -10.4293   21.0388 C   0  0  0  0  0  0
  -24.3590   -9.4218   21.9165 C   0  0  0  0  0  0
  -23.6276   -8.2249   22.0750 C   0  0  0  0  0  0
  -22.4255   -8.0287   21.3552 C   0  0  0  0  0  0
  -21.9885   -9.0249   20.4651 C   0  0  0  0  0  0
  -22.7211  -10.2124   20.3046 C   0  0  0  0  0  0
  -21.6859   -6.0730   22.5286 C   0  0  0  0  0  0
  -21.4022   -6.5625   23.8218 C   0  0  0  0  0  0
  -21.3664   -5.6782   24.9179 C   0  0  0  0  0  0
  -21.6042   -4.3049   24.7228 C   0  0  0  0  0  0
  -21.8813   -3.8139   23.4354 C   0  0  0  0  0  0
  -21.9195   -4.6958   22.3413 C   0  0  0  0  0  0
  -22.7855  -13.5259   21.1840 C   0  0  0  0  0  0
  -22.1664   -4.2143   21.0990 F   0  0  0  0  0  0
  -21.5625   -3.4529   25.7741 F   0  0  0  0  0  0
  -30.0393  -13.2665   20.4579 N   0  0  0  0  0  0
  -26.3004  -12.9313   20.3338 N   0  0  0  0  0  0
  -25.9283  -11.6468   20.5711 N   0  0  0  0  0  0
  -22.0487  -12.8253   22.0384 N   0  0  0  0  0  0
  -25.4304  -15.1875   20.4140 N   0  0  0  0  0  0
  -31.8379  -14.6103   20.0949 O   0  0  0  0  0  0
  -21.6641   -6.8873   21.4245 O   0  0  0  0  0  0
  -22.3552  -14.5588   20.6728 O   0  0  0  0  0  0
  -24.6118  -31.8693   23.2126 C   0  0  0  0  0  0
  -25.9026  -32.4823   23.8406 C   0  0  1  0  0  0
  -27.2453  -27.4645   20.0787 C   0  0  0  0  0  0
  -25.5890  -33.8621   24.2337 N   0  0  0  0  0  0
  -23.3987  -30.4917   21.5525 C   0  0  2  0  0  0
  -24.8456  -28.9554   20.1214 C   0  0  0  0  0  0
  -22.7390  -29.4655   22.5011 C   0  0  0  0  0  0
  -18.0268  -28.1373   22.8490 C   0  0  0  0  0  0
  -24.1485  -36.7308   23.2636 C   0  0  0  0  0  0
  -25.9248  -30.8370   21.3667 C   0  0  0  0  0  0
  -26.0022  -29.4704   20.7206 C   0  0  0  0  0  0
  -27.2003  -28.7244   20.7115 C   0  0  0  0  0  0
  -26.0668  -26.9455   19.4972 C   0  0  0  0  0  0
  -24.8687  -27.6858   19.5165 C   0  0  0  0  0  0
  -23.6074  -29.8218   20.1683 C   0  0  0  0  0  0
  -25.4105  -36.3108   24.0337 C   0  0  1  0  0  0
  -20.5854  -28.3654   23.1328 C   0  0  2  0  0  0
  -20.6760  -26.9393   22.5422 C   0  0  0  0  0  0
  -19.5742  -26.6387   21.5211 C   0  0  0  0  0  0
  -18.1918  -26.7922   22.1617 C   0  0  0  0  0  0
  -19.1514  -28.8833   23.2906 C   0  0  0  0  0  0
  -18.9446  -30.1437   23.8915 C   0  0  0  0  0  0
  -17.6448  -30.6580   24.0569 C   0  0  0  0  0  0
  -25.9029  -34.9472   23.5133 C   0  0  0  0  0  0
  -16.5341  -29.9083   23.6323 C   0  0  0  0  0  0
  -16.7256  -28.6502   23.0344 C   0  0  0  0  0  0
  -26.4474  -31.6594   25.0723 C   0  0  0  0  0  0
  -25.3758  -31.3697   26.1486 C   0  0  0  0  0  0
  -27.0295  -30.3036   24.6083 C   0  0  0  0  0  0
  -27.6061  -32.4312   25.7471 C   0  0  0  0  0  0
  -27.5577  -37.1809   24.8467 C   0  0  0  0  0  0
  -21.4126  -29.3021   22.3737 N   0  0  0  0  0  0
  -26.4293  -37.3789   23.9406 N   0  0  0  0  0  0
  -24.6625  -31.0809   22.1020 N   0  0  0  0  0  0
  -23.4169  -28.8202   23.3053 O   0  0  0  0  0  0
  -28.4328  -26.7686   20.0377 O   0  0  0  0  0  0
  -26.5592  -34.8922   22.4695 O   0  0  0  0  0  0
  -23.5318  -32.1440   23.7532 O   0  0  0  0  0  0
  -31.0023  -17.4152   20.0443 C   0  0  0  0  0  0
  -29.6551  -18.9960   21.7685 C   0  0  0  0  0  0
  -30.4517  -19.5520   20.7346 C   0  0  0  0  0  0
  -30.2119  -16.8366   21.0785 C   0  0  0  0  0  0
  -28.8857  -19.8541   22.7546 C   0  0  0  0  0  0
  -32.0806  -22.6065   18.2320 C   0  0  0  0  0  0
  -30.6312  -21.0538   20.5049 C   0  0  0  0  0  0
  -29.9407  -21.5497   19.2082 C   0  0  0  0  0  0
  -28.8995  -24.7461   18.6787 C   0  0  0  0  0  0
  -30.2495  -24.1485   19.1435 C   0  0  0  0  0  0
  -28.8218  -26.2854   18.7504 C   0  0  0  0  0  0
  -30.5730  -22.7760   18.4995 C   0  0  1  0  0  0
  -31.1314  -18.7525   19.8810 N   0  0  0  0  0  0
  -29.5412  -17.6519   21.9342 N   0  0  0  0  0  0
  -30.0458  -15.4260   21.2052 N   0  0  0  0  0  0
  -31.4642  -12.3601   19.1356 H   0  0  0  0  0  0
  -30.2864  -11.2739   19.8169 H   0  0  0  0  0  0
  -29.7360  -11.8050   17.4153 H   0  0  0  0  0  0
  -29.6713  -13.5086   17.7998 H   0  0  0  0  0  0
  -27.8263  -11.3123   18.8100 H   0  0  0  0  0  0
  -27.3725  -12.6484   17.7846 H   0  0  0  0  0  0
  -27.7104  -14.2534   19.5791 H   0  0  0  0  0  0
  -28.6627  -11.9472   21.3504 H   0  0  0  0  0  0
  -28.4558  -13.5860   21.8755 H   0  0  0  0  0  0
  -25.2725   -9.5701   22.4743 H   0  0  0  0  0  0
  -23.9998   -7.4639   22.7454 H   0  0  0  0  0  0
  -21.0826   -8.8757   19.8951 H   0  0  0  0  0  0
  -22.3667  -10.9653   19.6159 H   0  0  0  0  0  0
  -21.2013   -7.6134   23.9726 H   0  0  0  0  0  0
  -21.1493   -6.0509   25.9084 H   0  0  0  0  0  0
  -22.0585   -2.7601   23.2859 H   0  0  0  0  0  0
  -22.4093  -11.9920   22.4788 H   0  0  0  0  0  0
  -21.1109  -13.1293   22.2584 H   0  0  0  0  0  0
  -24.6650  -15.8413   20.5426 H   0  0  0  0  0  0
  -26.2875  -15.6364   20.1167 H   0  0  0  0  0  0
  -26.7092  -32.5544   23.1168 H   0  0  0  0  0  0
  -25.0065  -33.9794   25.0497 H   0  0  0  0  0  0
  -22.6859  -31.3071   21.4141 H   0  0  0  0  0  0
  -23.3738  -35.9651   23.3330 H   0  0  0  0  0  0
  -24.3577  -36.8890   22.2044 H   0  0  0  0  0  0
  -23.7253  -37.6528   23.6632 H   0  0  0  0  0  0
  -26.0382  -31.6016   20.5973 H   0  0  0  0  0  0
  -26.8122  -30.8905   21.9851 H   0  0  0  0  0  0
  -28.0958  -29.1221   21.1681 H   0  0  0  0  0  0
  -26.0739  -25.9724   19.0268 H   0  0  0  0  0  0
  -23.9766  -27.2763   19.0626 H   0  0  0  0  0  0
  -23.7153  -30.5957   19.4074 H   0  0  0  0  0  0
  -22.7320  -29.2406   19.8727 H   0  0  0  0  0  0
  -25.1283  -36.1975   25.0830 H   0  0  0  0  0  0
  -20.9939  -28.3221   24.1449 H   0  0  0  0  0  0
  -20.5661  -26.2258   23.3605 H   0  0  0  0  0  0
  -21.6633  -26.7442   22.1220 H   0  0  0  0  0  0
  -19.6908  -25.6306   21.1222 H   0  0  0  0  0  0
  -19.6686  -27.3215   20.6753 H   0  0  0  0  0  0
  -17.4190  -26.6672   21.4015 H   0  0  0  0  0  0
  -18.0316  -26.0058   22.9007 H   0  0  0  0  0  0
  -19.7924  -30.7247   24.2291 H   0  0  0  0  0  0
  -17.5008  -31.6261   24.5171 H   0  0  0  0  0  0
  -15.5343  -30.2993   23.7642 H   0  0  0  0  0  0
  -15.8655  -28.0828   22.7050 H   0  0  0  0  0  0
  -24.5923  -30.7044   25.7836 H   0  0  0  0  0  0
  -24.8960  -32.2852   26.4957 H   0  0  0  0  0  0
  -25.8133  -30.8856   27.0226 H   0  0  0  0  0  0
  -26.2817  -29.6796   24.1167 H   0  0  0  0  0  0
  -27.4102  -29.7273   25.4527 H   0  0  0  0  0  0
  -27.8646  -30.4355   23.9197 H   0  0  0  0  0  0
  -27.2686  -33.3607   26.2074 H   0  0  0  0  0  0
  -28.3850  -32.6880   25.0277 H   0  0  0  0  0  0
  -28.0749  -31.8419   26.5363 H   0  0  0  0  0  0
  -28.2617  -38.0083   24.7487 H   0  0  0  0  0  0
  -28.1046  -36.2616   24.6322 H   0  0  0  0  0  0
  -27.2293  -37.1502   25.8871 H   0  0  0  0  0  0
  -20.9283  -29.8730   21.6951 H   0  0  0  0  0  0
  -26.0181  -38.2868   24.1404 H   0  0  0  0  0  0
  -31.5194  -16.8302   19.3003 H   0  0  0  0  0  0
  -29.5737  -20.4455   23.3598 H   0  0  0  0  0  0
  -28.2853  -19.2460   23.4311 H   0  0  0  0  0  0
  -28.2134  -20.5331   22.2303 H   0  0  0  0  0  0
  -32.2983  -21.6267   17.8043 H   0  0  0  0  0  0
  -32.6795  -22.7201   19.1348 H   0  0  0  0  0  0
  -32.4342  -23.3515   17.5176 H   0  0  0  0  0  0
  -31.7049  -21.2253   20.4662 H   0  0  0  0  0  0
  -30.2857  -21.6331   21.3601 H   0  0  0  0  0  0
  -28.8798  -21.7178   19.3979 H   0  0  0  0  0  0
  -29.9709  -20.7365   18.4812 H   0  0  0  0  0  0
  -28.0670  -24.2868   19.2115 H   0  0  0  0  0  0
  -28.7521  -24.4888   17.6292 H   0  0  0  0  0  0
  -30.2943  -24.0929   20.2313 H   0  0  0  0  0  0
  -31.0385  -24.8453   18.8583 H   0  0  0  0  0  0
  -28.1557  -26.6456   17.9638 H   0  0  0  0  0  0
  -29.7879  -26.7255   18.5033 H   0  0  0  0  0  0
  -30.1338  -22.7856   17.5015 H   0  0  0  0  0  0
  -29.2219  -15.1329   21.7029 H   0  0  0  0  0  0
  1 25  1  0  0  0
  1 30  2  0  0  0
  1 85  1  0  0  0
  2  3  1  0  0  0
  2 25  1  0  0  0
  2 86  1  0  0  0
  2 87  1  0  0  0
  3  4  1  0  0  0
  3 88  1  0  0  0
  3 89  1  0  0  0
  4  5  1  0  0  0
  4 90  1  0  0  0
  4 91  1  0  0  0
  5  6  1  0  0  0
  5 26  1  0  0  0
  5 92  1  0  0  0
  6 25  1  0  0  0
  6 93  1  0  0  0
  6 94  1  0  0  0
  7  8  2  0  0  0
  7 26  1  0  0  0
  7 29  1  0  0  0
  8  9  1  0  0  0
  8 22  1  0  0  0
  9 10  1  0  0  0
  9 27  2  0  0  0
 10 11  2  0  0  0
 10 15  1  0  0  0
 11 12  1  0  0  0
 11 95  1  0  0  0
 12 13  2  0  0  0
 12 96  1  0  0  0
 13 14  1  0  0  0
 13 31  1  0  0  0
 14 15  2  0  0  0
 14 97  1  0  0  0
 15 98  1  0  0  0
 16 17  2  0  0  0
 16 21  1  0  0  0
 16 31  1  0  0  0
 17 18  1  0  0  0
 17 99  1  0  0  0
 18 19  2  0  0  0
 18100  1  0  0  0
 19 20  1  0  0  0
 19 24  1  0  0  0
 20 21  2  0  0  0
 20101  1  0  0  0
 21 23  1  0  0  0
 22 28  1  0  0  0
 22 32  2  0  0  0
 26 27  1  0  0  0
 28102  1  0  0  0
 28103  1  0  0  0
 29104  1  0  0  0
 29105  1  0  0  0
 33 34  1  0  0  0
 33 66  1  0  0  0
 33 70  2  0  0  0
 34 36  1  0  0  0
 34 59  1  0  0  0
 34106  1  0  0  0
 35 44  2  0  0  0
 35 45  1  0  0  0
 35 68  1  0  0  0
 36 56  1  0  0  0
 36107  1  0  0  0
 37 39  1  0  0  0
 37 47  1  0  0  0
 37 66  1  0  0  0
 37108  1  0  0  0
 38 43  2  0  0  0
 38 46  1  0  0  0
 38 47  1  0  0  0
 39 64  1  0  0  0
 39 67  2  0  0  0
 40 52  1  0  0  0
 40 53  2  0  0  0
 40 58  1  0  0  0
 41109  1  0  0  0
 41110  1  0  0  0
 41111  1  0  0  0
 41 48  1  0  0  0
 42 43  1  0  0  0
 42 66  1  0  0  0
 42112  1  0  0  0
 42113  1  0  0  0
 43 44  1  0  0  0
 44114  1  0  0  0
 45 46  2  0  0  0
 45115  1  0  0  0
 46116  1  0  0  0
 47117  1  0  0  0
 47118  1  0  0  0
 48 56  1  0  0  0
 48 65  1  0  0  0
 48119  1  0  0  0
 49 50  1  0  0  0
 49 53  1  0  0  0
 49 64  1  0  0  0
 49120  1  0  0  0
 50 51  1  0  0  0
 50121  1  0  0  0
 50122  1  0  0  0
 51 52  1  0  0  0
 51123  1  0  0  0
 51124  1  0  0  0
 52125  1  0  0  0
 52126  1  0  0  0
 53 54  1  0  0  0
 54 55  2  0  0  0
 54127  1  0  0  0
 55 57  1  0  0  0
 55128  1  0  0  0
 56 69  2  0  0  0
 57 58  2  0  0  0
 57129  1  0  0  0
 58130  1  0  0  0
 59 60  1  0  0  0
 59 61  1  0  0  0
 59 62  1  0  0  0
 60131  1  0  0  0
 60132  1  0  0  0
 60133  1  0  0  0
 61134  1  0  0  0
 61135  1  0  0  0
 61136  1  0  0  0
 62137  1  0  0  0
 62138  1  0  0  0
 62139  1  0  0  0
 63 65  1  0  0  0
 63140  1  0  0  0
 63141  1  0  0  0
 63142  1  0  0  0
 64143  1  0  0  0
 65144  1  0  0  0
 68 81  1  0  0  0
 71 74  2  0  0  0
 71 83  1  0  0  0
 71145  1  0  0  0
 72 73  1  0  0  0
 72 75  1  0  0  0
 72 84  2  0  0  0
 73 77  1  0  0  0
 73 83  2  0  0  0
 74 84  1  0  0  0
 74 85  1  0  0  0
 75146  1  0  0  0
 75147  1  0  0  0
 75148  1  0  0  0
 76149  1  0  0  0
 76150  1  0  0  0
 76151  1  0  0  0
 76 82  1  0  0  0
 77 78  1  0  0  0
 77152  1  0  0  0
 77153  1  0  0  0
 78 82  1  0  0  0
 78154  1  0  0  0
 78155  1  0  0  0
 79 80  1  0  0  0
 79 81  1  0  0  0
 79156  1  0  0  0
 79157  1  0  0  0
 80 82  1  0  0  0
 80158  1  0  0  0
 80159  1  0  0  0
 81160  1  0  0  0
 81161  1  0  0  0
 82162  1  0  0  0
 85163  1  0  0  0
M  ISO  4   1 100  68 101  81 101  85 100
M  END
> <chiral flag>
0

> <version>
0

> <s_m_source_file>
/data/baiqing/PycharmProjects/Reinvent-master-3.2/result/LINK_invent/BTK/process_docking_weight1_custom_sum_contain_oxygen_bond_distance_aromatic_linkinvent_7_9_3/rearranged_h_0079.sdf

> <i_m_source_file_index>
94

> <r_mmod_Potential_Energy-OPLS-2005>
-24.1197891235352

> <r_mmod_Stretch_Energy-OPLS-2005>
37.5164833068848

> <r_mmod_Bend_Energy-OPLS-2005>
107.288703918457

> <r_mmod_Torsional_Energy-OPLS-2005>
241.549896240234

> <r_mmod_Improper_Torsional_Energy-OPLS-2005>
2.73603177070618

> <r_mmod_Van_der_Waal_Energy-OPLS-2005>
168.955764770508

> <r_mmod_Electrostatic_Energy-OPLS-2005>
-387.266754150391

> <r_mmod_Solvation_Energy-OPLS-2005>
-204.672866821289

> <b_mmod_Minimization_Converged-OPLS-2005>
0

> <r_mmod_RMS_Derivative-OPLS-2005>
2.0196795463562

$$$$
94
                    3D
 Structure written by MMmdl.
163171  0  0  1  0            999 V2000
  -30.5261  -14.9625   20.4254 C   0  0  0  0  0  0
  -30.4447  -12.6012   19.4948 C   0  0  0  0  0  0
  -29.5311  -12.5326   18.2511 C   0  0  0  0  0  0
  -28.0590  -12.3248   18.6605 C   0  0  0  0  0  0
  -27.6264  -13.2519   19.8277 C   0  0  2  0  0  0
  -28.6670  -13.2829   20.9648 C   0  0  0  0  0  0
  -25.2452  -13.8222   20.5686 C   0  0  0  0  0  0
  -24.1780  -13.0442   20.9225 C   0  0  0  0  0  0
  -24.6409  -11.6932   20.8762 C   0  0  0  0  0  0
  -23.9096  -10.4304   21.0419 C   0  0  0  0  0  0
  -24.3641   -9.4209   21.9182 C   0  0  0  0  0  0
  -23.6308   -8.2249   22.0752 C   0  0  0  0  0  0
  -22.4290   -8.0289   21.3545 C   0  0  0  0  0  0
  -21.9932   -9.0265   20.4650 C   0  0  0  0  0  0
  -22.7272  -10.2139   20.3064 C   0  0  0  0  0  0
  -21.6856   -6.0737   22.5274 C   0  0  0  0  0  0
  -21.4017   -6.5637   23.8209 C   0  0  0  0  0  0
  -21.3664   -5.6788   24.9170 C   0  0  0  0  0  0
  -21.6042   -4.3046   24.7218 C   0  0  0  0  0  0
  -21.8814   -3.8142   23.4339 C   0  0  0  0  0  0
  -21.9203   -4.6969   22.3399 C   0  0  0  0  0  0
  -22.7798  -13.5214   21.1866 C   0  0  0  0  0  0
  -22.1661   -4.2155   21.0974 F   0  0  0  0  0  0
  -21.5641   -3.4527   25.7724 F   0  0  0  0  0  0
  -29.9379  -13.7009   20.3622 N   0  0  0  0  0  0
  -26.2869  -12.9460   20.3159 N   0  0  0  0  0  0
  -25.9330  -11.6595   20.5685 N   0  0  0  0  0  0
  -22.0433  -12.8227   22.0434 N   0  0  0  0  0  0
  -25.4114  -15.1955   20.4137 N   0  0  0  0  0  0
  -31.7397  -15.0297   20.2045 O   0  0  0  0  0  0
  -21.6644   -6.8885   21.4243 O   0  0  0  0  0  0
  -22.3489  -14.5517   20.6696 O   0  0  0  0  0  0
  -24.6453  -31.8419   23.1854 C   0  0  0  0  0  0
  -25.9206  -32.4694   23.8265 C   0  0  1  0  0  0
  -27.2173  -27.1155   20.1606 C   0  0  0  0  0  0
  -25.5931  -33.8504   24.2192 N   0  0  0  0  0  0
  -23.4508  -30.4583   21.5319 C   0  0  2  0  0  0
  -24.9000  -28.8803   20.1083 C   0  0  0  0  0  0
  -22.7578  -29.4526   22.4867 C   0  0  0  0  0  0
  -18.0296  -28.1393   22.8473 C   0  0  0  0  0  0
  -24.1472  -36.7274   23.2647 C   0  0  0  0  0  0
  -26.0067  -30.7084   21.3846 C   0  0  0  0  0  0
  -26.0771  -29.3165   20.7306 C   0  0  0  0  0  0
  -27.2348  -28.4496   20.7411 C   0  0  0  0  0  0
  -26.0189  -26.7880   19.4904 C   0  0  0  0  0  0
  -24.8858  -27.6302   19.4709 C   0  0  0  0  0  0
  -23.6770  -29.7843   20.1517 C   0  0  0  0  0  0
  -25.4100  -36.3061   24.0330 C   0  0  1  0  0  0
  -20.5909  -28.3727   23.1235 C   0  0  2  0  0  0
  -20.6784  -26.9429   22.5408 C   0  0  0  0  0  0
  -19.5760  -26.6372   21.5216 C   0  0  0  0  0  0
  -18.1938  -26.7924   22.1623 C   0  0  0  0  0  0
  -19.1554  -28.8877   23.2840 C   0  0  0  0  0  0
  -18.9473  -30.1466   23.8879 C   0  0  0  0  0  0
  -17.6476  -30.6593   24.0552 C   0  0  0  0  0  0
  -25.9059  -34.9428   23.5084 C   0  0  0  0  0  0
  -16.5366  -29.9089   23.6326 C   0  0  0  0  0  0
  -16.7280  -28.6499   23.0357 C   0  0  0  0  0  0
  -26.4499  -31.6558   25.0714 C   0  0  0  0  0  0
  -25.3669  -31.3773   26.1411 C   0  0  0  0  0  0
  -27.0363  -30.2955   24.6285 C   0  0  0  0  0  0
  -27.6029  -32.4312   25.7505 C   0  0  0  0  0  0
  -27.5569  -37.1794   24.8463 C   0  0  0  0  0  0
  -21.4267  -29.3054   22.3621 N   0  0  0  0  0  0
  -26.4274  -37.3769   23.9418 N   0  0  0  0  0  0
  -24.7215  -31.0244   22.0901 N   0  0  0  0  0  0
  -23.4205  -28.8079   23.3032 O   0  0  0  0  0  0
  -28.2627  -26.1201   20.2555 O   0  0  0  0  0  0
  -26.5667  -34.8945   22.4681 O   0  0  0  0  0  0
  -23.5565  -32.1320   23.7054 O   0  0  0  0  0  0
  -28.8877  -21.6488   20.0582 C   0  0  0  0  0  0
  -29.3516  -20.4441   20.8313 C   0  0  0  0  0  0
  -28.4080  -21.2417   18.7789 C   0  0  0  0  0  0
  -29.3722  -19.0538   20.2593 C   0  0  0  0  0  0
  -27.9059  -22.2275   17.7455 C   0  0  0  0  0  0
  -28.5892  -20.9933   23.2048 C   0  0  0  0  0  0
  -31.0268  -21.4348   22.5480 C   0  0  0  0  0  0
  -30.4520  -23.6971   19.9819 C   0  0  0  0  0  0
  -30.0746  -17.6586   20.8449 C   0  0  0  0  0  0
  -28.0269  -24.5909   19.9985 C   0  0  0  0  0  0
  -29.7702  -20.5890   22.3030 C   0  0  0  0  0  0
  -29.0397  -23.2838   20.4275 C   0  0  1  0  0  0
  -28.3753  -19.9512   18.3364 N   0  0  0  0  0  0
  -28.8557  -18.9056   19.0202 N   0  0  0  0  0  0
  -29.7336  -16.1398   20.5480 N   0  0  0  0  0  0
  -31.4814  -12.7650   19.1964 H   0  0  0  0  0  0
  -30.4379  -11.6515   20.0316 H   0  0  0  0  0  0
  -29.8535  -11.7274   17.5884 H   0  0  0  0  0  0
  -29.6275  -13.4580   17.6798 H   0  0  0  0  0  0
  -27.9519  -11.2831   18.9612 H   0  0  0  0  0  0
  -27.4031  -12.4648   17.8004 H   0  0  0  0  0  0
  -27.5865  -14.2533   19.3989 H   0  0  0  0  0  0
  -28.7559  -12.3066   21.4421 H   0  0  0  0  0  0
  -28.3662  -13.9865   21.7440 H   0  0  0  0  0  0
  -25.2792   -9.5676   22.4749 H   0  0  0  0  0  0
  -24.0013   -7.4641   22.7473 H   0  0  0  0  0  0
  -21.0852   -8.8794   19.8967 H   0  0  0  0  0  0
  -22.3733  -10.9675   19.6170 H   0  0  0  0  0  0
  -21.1991   -7.6134   23.9714 H   0  0  0  0  0  0
  -21.1499   -6.0509   25.9072 H   0  0  0  0  0  0
  -22.0593   -2.7605   23.2833 H   0  0  0  0  0  0
  -22.4046  -11.9935   22.4907 H   0  0  0  0  0  0
  -21.1032  -13.1252   22.2571 H   0  0  0  0  0  0
  -24.6381  -15.8415   20.5267 H   0  0  0  0  0  0
  -26.2375  -15.6364   20.0332 H   0  0  0  0  0  0
  -26.7285  -32.5298   23.1006 H   0  0  0  0  0  0
  -25.0015  -33.9595   25.0300 H   0  0  0  0  0  0
  -22.7543  -31.2846   21.3747 H   0  0  0  0  0  0
  -23.3755  -35.9586   23.3290 H   0  0  0  0  0  0
  -24.3565  -36.8918   22.2066 H   0  0  0  0  0  0
  -23.7194  -37.6457   23.6682 H   0  0  0  0  0  0
  -26.1555  -31.4539   20.6020 H   0  0  0  0  0  0
  -26.8823  -30.7691   22.0201 H   0  0  0  0  0  0
  -28.1278  -28.7753   21.2555 H   0  0  0  0  0  0
  -25.9235  -25.8327   18.9969 H   0  0  0  0  0  0
  -23.9919  -27.2900   18.9659 H   0  0  0  0  0  0
  -23.8198  -30.5581   19.3965 H   0  0  0  0  0  0
  -22.7897  -29.2285   19.8413 H   0  0  0  0  0  0
  -25.1281  -36.1917   25.0820 H   0  0  0  0  0  0
  -20.9988  -28.3324   24.1360 H   0  0  0  0  0  0
  -20.5671  -26.2344   23.3634 H   0  0  0  0  0  0
  -21.6652  -26.7426   22.1214 H   0  0  0  0  0  0
  -19.6924  -25.6275   21.1264 H   0  0  0  0  0  0
  -19.6697  -27.3169   20.6738 H   0  0  0  0  0  0
  -17.4205  -26.6657   21.4025 H   0  0  0  0  0  0
  -18.0338  -26.0071   22.9026 H   0  0  0  0  0  0
  -19.7960  -30.7266   24.2243 H   0  0  0  0  0  0
  -17.5041  -31.6273   24.5162 H   0  0  0  0  0  0
  -15.5370  -30.2995   23.7653 H   0  0  0  0  0  0
  -15.8674  -28.0813   22.7091 H   0  0  0  0  0  0
  -24.5833  -30.7126   25.7748 H   0  0  0  0  0  0
  -24.8869  -32.2969   26.4778 H   0  0  0  0  0  0
  -25.7942  -30.8989   27.0233 H   0  0  0  0  0  0
  -26.2996  -29.6687   24.1242 H   0  0  0  0  0  0
  -27.3927  -29.7240   25.4863 H   0  0  0  0  0  0
  -27.8918  -30.4204   23.9643 H   0  0  0  0  0  0
  -27.2620  -33.3623   26.2048 H   0  0  0  0  0  0
  -28.3871  -32.6842   25.0356 H   0  0  0  0  0  0
  -28.0661  -31.8449   26.5453 H   0  0  0  0  0  0
  -28.2591  -38.0088   24.7529 H   0  0  0  0  0  0
  -28.1062  -36.2627   24.6265 H   0  0  0  0  0  0
  -27.2304  -37.1428   25.8870 H   0  0  0  0  0  0
  -20.9482  -29.8783   21.6816 H   0  0  0  0  0  0
  -26.0159  -38.2847   24.1421 H   0  0  0  0  0  0
  -26.9654  -22.6692   18.0715 H   0  0  0  0  0  0
  -27.7213  -21.7415   16.7855 H   0  0  0  0  0  0
  -28.6401  -23.0110   17.5671 H   0  0  0  0  0  0
  -28.2364  -22.0068   23.0212 H   0  0  0  0  0  0
  -28.8641  -20.9316   24.2585 H   0  0  0  0  0  0
  -27.7427  -20.3213   23.0595 H   0  0  0  0  0  0
  -31.8148  -21.1948   21.8335 H   0  0  0  0  0  0
  -31.4286  -21.2346   23.5417 H   0  0  0  0  0  0
  -30.8340  -22.5034   22.5082 H   0  0  0  0  0  0
  -31.2078  -22.9801   20.3008 H   0  0  0  0  0  0
  -30.7259  -24.6680   20.3960 H   0  0  0  0  0  0
  -30.5199  -23.7674   18.8971 H   0  0  0  0  0  0
  -30.0049  -17.6910   21.9282 H   0  0  0  0  0  0
  -31.1382  -17.7752   20.6375 H   0  0  0  0  0  0
  -27.0452  -24.3527   20.4084 H   0  0  0  0  0  0
  -27.8990  -24.5641   18.9201 H   0  0  0  0  0  0
  -30.0483  -19.6069   22.6644 H   0  0  0  0  0  0
  -29.0390  -23.3223   21.5125 H   0  0  0  0  0  0
  -28.7451  -15.9489   20.5960 H   0  0  0  0  0  0
  1 25  1  0  0  0
  1 30  2  0  0  0
  1 85  1  0  0  0
  2  3  1  0  0  0
  2 25  1  0  0  0
  2 86  1  0  0  0
  2 87  1  0  0  0
  3  4  1  0  0  0
  3 88  1  0  0  0
  3 89  1  0  0  0
  4  5  1  0  0  0
  4 90  1  0  0  0
  4 91  1  0  0  0
  5  6  1  0  0  0
  5 26  1  0  0  0
  5 92  1  0  0  0
  6 25  1  0  0  0
  6 93  1  0  0  0
  6 94  1  0  0  0
  7  8  2  0  0  0
  7 26  1  0  0  0
  7 29  1  0  0  0
  8  9  1  0  0  0
  8 22  1  0  0  0
  9 10  1  0  0  0
  9 27  2  0  0  0
 10 11  2  0  0  0
 10 15  1  0  0  0
 11 12  1  0  0  0
 11 95  1  0  0  0
 12 13  2  0  0  0
 12 96  1  0  0  0
 13 14  1  0  0  0
 13 31  1  0  0  0
 14 15  2  0  0  0
 14 97  1  0  0  0
 15 98  1  0  0  0
 16 17  2  0  0  0
 16 21  1  0  0  0
 16 31  1  0  0  0
 17 18  1  0  0  0
 17 99  1  0  0  0
 18 19  2  0  0  0
 18100  1  0  0  0
 19 20  1  0  0  0
 19 24  1  0  0  0
 20 21  2  0  0  0
 20101  1  0  0  0
 21 23  1  0  0  0
 22 28  1  0  0  0
 22 32  2  0  0  0
 26 27  1  0  0  0
 28102  1  0  0  0
 28103  1  0  0  0
 29104  1  0  0  0
 29105  1  0  0  0
 33 34  1  0  0  0
 33 66  1  0  0  0
 33 70  2  0  0  0
 34 36  1  0  0  0
 34 59  1  0  0  0
 34106  1  0  0  0
 35 44  2  0  0  0
 35 45  1  0  0  0
 35 68  1  0  0  0
 36 56  1  0  0  0
 36107  1  0  0  0
 37 39  1  0  0  0
 37 47  1  0  0  0
 37 66  1  0  0  0
 37108  1  0  0  0
 38 43  2  0  0  0
 38 46  1  0  0  0
 38 47  1  0  0  0
 39 64  1  0  0  0
 39 67  2  0  0  0
 40 52  1  0  0  0
 40 53  2  0  0  0
 40 58  1  0  0  0
 41109  1  0  0  0
 41110  1  0  0  0
 41111  1  0  0  0
 41 48  1  0  0  0
 42 43  1  0  0  0
 42 66  1  0  0  0
 42112  1  0  0  0
 42113  1  0  0  0
 43 44  1  0  0  0
 44114  1  0  0  0
 45 46  2  0  0  0
 45115  1  0  0  0
 46116  1  0  0  0
 47117  1  0  0  0
 47118  1  0  0  0
 48 56  1  0  0  0
 48 65  1  0  0  0
 48119  1  0  0  0
 49 50  1  0  0  0
 49 53  1  0  0  0
 49 64  1  0  0  0
 49120  1  0  0  0
 50 51  1  0  0  0
 50121  1  0  0  0
 50122  1  0  0  0
 51 52  1  0  0  0
 51123  1  0  0  0
 51124  1  0  0  0
 52125  1  0  0  0
 52126  1  0  0  0
 53 54  1  0  0  0
 54 55  2  0  0  0
 54127  1  0  0  0
 55 57  1  0  0  0
 55128  1  0  0  0
 56 69  2  0  0  0
 57 58  2  0  0  0
 57129  1  0  0  0
 58130  1  0  0  0
 59 60  1  0  0  0
 59 61  1  0  0  0
 59 62  1  0  0  0
 60131  1  0  0  0
 60132  1  0  0  0
 60133  1  0  0  0
 61134  1  0  0  0
 61135  1  0  0  0
 61136  1  0  0  0
 62137  1  0  0  0
 62138  1  0  0  0
 62139  1  0  0  0
 63 65  1  0  0  0
 63140  1  0  0  0
 63141  1  0  0  0
 63142  1  0  0  0
 64143  1  0  0  0
 65144  1  0  0  0
 68 80  1  0  0  0
 71 72  2  0  0  0
 71 73  1  0  0  0
 71 82  1  0  0  0
 72 74  1  0  0  0
 72 81  1  0  0  0
 73 75  1  0  0  0
 73 83  2  0  0  0
 74 79  1  0  0  0
 74 84  2  0  0  0
 75145  1  0  0  0
 75146  1  0  0  0
 75147  1  0  0  0
 76148  1  0  0  0
 76149  1  0  0  0
 76150  1  0  0  0
 76 81  1  0  0  0
 77 81  1  0  0  0
 77151  1  0  0  0
 77152  1  0  0  0
 77153  1  0  0  0
 78154  1  0  0  0
 78155  1  0  0  0
 78156  1  0  0  0
 78 82  1  0  0  0
 79 85  1  0  0  0
 79157  1  0  0  0
 79158  1  0  0  0
 80 82  1  0  0  0
 80159  1  0  0  0
 80160  1  0  0  0
 81161  1  0  0  0
 82162  1  0  0  0
 83 84  1  0  0  0
 85163  1  0  0  0
M  ISO  4   1 100  68 101  80 101  85 100
M  END
> <chiral flag>
0

> <version>
0

> <s_m_source_file>
/data/baiqing/PycharmProjects/Reinvent-master-3.2/result/LINK_invent/BTK/process_docking_weight1_custom_sum_contain_oxygen_bond_distance_aromatic_linkinvent_7_9_3/rearranged_h_0079.sdf

> <i_m_source_file_index>
95

> <r_mmod_Potential_Energy-OPLS-2005>
491.346343994141

> <r_mmod_Stretch_Energy-OPLS-2005>
295.764556884766

> <r_mmod_Bend_Energy-OPLS-2005>
281.223236083984

> <r_mmod_Torsional_Energy-OPLS-2005>
221.63444519043

> <r_mmod_Improper_Torsional_Energy-OPLS-2005>
5.47945022583008

> <r_mmod_Van_der_Waal_Energy-OPLS-2005>
134.64421081543

> <r_mmod_Electrostatic_Energy-OPLS-2005>
-425.052368164062

> <r_mmod_Solvation_Energy-OPLS-2005>
-232.989974975586

> <b_mmod_Minimization_Converged-OPLS-2005>
0

> <r_mmod_RMS_Derivative-OPLS-2005>
2.74324035644531

$$$$
95
                    3D
 Structure written by MMmdl.
166174  0  0  1  0            999 V2000
  -31.3575  -14.7193   20.7469 C   0  0  0  0  0  0
  -30.8251  -13.1682   19.0037 C   0  0  0  0  0  0
  -29.4973  -12.9756   17.7229 C   0  0  0  0  0  0
  -27.6572  -13.1395   18.1759 C   0  0  0  0  0  0
  -27.2478  -13.7961   19.9165 C   0  0  2  0  0  0
  -28.7473  -14.0721   21.2108 C   0  0  0  0  0  0
  -24.9643  -13.8930   20.6848 C   0  0  0  0  0  0
  -24.0020  -13.0167   20.9862 C   0  0  0  0  0  0
  -24.5720  -11.7150   20.8925 C   0  0  0  0  0  0
  -23.9046  -10.4184   21.0287 C   0  0  0  0  0  0
  -24.3677   -9.4186   21.9107 C   0  0  0  0  0  0
  -23.6380   -8.2196   22.0703 C   0  0  0  0  0  0
  -22.4357   -8.0185   21.3507 C   0  0  0  0  0  0
  -21.9959   -9.0083   20.4562 C   0  0  0  0  0  0
  -22.7250  -10.1951   20.2924 C   0  0  0  0  0  0
  -21.6897   -6.0700   22.5283 C   0  0  0  0  0  0
  -21.4051   -6.5618   23.8204 C   0  0  0  0  0  0
  -21.3666   -5.6774   24.9166 C   0  0  0  0  0  0
  -21.6036   -4.3035   24.7226 C   0  0  0  0  0  0
  -21.8828   -3.8118   23.4354 C   0  0  0  0  0  0
  -21.9214   -4.6931   22.3407 C   0  0  0  0  0  0
  -22.6018  -13.4398   21.2311 C   0  0  0  0  0  0
  -22.1681   -4.2119   21.0987 F   0  0  0  0  0  0
  -21.5627   -3.4528   25.7743 F   0  0  0  0  0  0
  -30.4100  -13.8423   20.5792 N   0  0  0  0  0  0
  -26.0732  -13.1618   20.4281 N   0  0  0  0  0  0
  -25.8597  -11.8111   20.5654 N   0  0  0  0  0  0
  -21.9069  -12.7319   22.1036 N   0  0  0  0  0  0
  -24.9110  -15.2665   20.5739 N   0  0  0  0  0  0
  -32.5278  -14.4486   20.6682 O   0  0  0  0  0  0
  -21.6696   -6.8817   21.4239 O   0  0  0  0  0  0
  -22.1517  -14.4598   20.7072 O   0  0  0  0  0  0
  -24.6873  -31.7990   23.1528 C   0  0  0  0  0  0
  -25.9459  -32.4456   23.8052 C   0  0  1  0  0  0
  -27.1372  -26.6921   20.1313 C   0  0  0  0  0  0
  -25.6038  -33.8282   24.1941 N   0  0  0  0  0  0
  -23.5042  -30.4120   21.5126 C   0  0  2  0  0  0
  -24.9344  -28.7615   20.1040 C   0  0  0  0  0  0
  -22.7762  -29.4321   22.4729 C   0  0  0  0  0  0
  -18.0332  -28.1417   22.8461 C   0  0  0  0  0  0
  -24.1496  -36.7143   23.2652 C   0  0  0  0  0  0
  -26.0876  -30.5216   21.4140 C   0  0  0  0  0  0
  -26.1336  -29.0922   20.7455 C   0  0  0  0  0  0
  -27.2313  -28.0811   20.7287 C   0  0  0  0  0  0
  -25.9107  -26.5745   19.4493 C   0  0  0  0  0  0
  -24.8606  -27.5302   19.4370 C   0  0  0  0  0  0
  -23.7452  -29.7278   20.1412 C   0  0  0  0  0  0
  -25.4149  -36.2886   24.0274 C   0  0  1  0  0  0
  -20.5969  -28.3768   23.1160 C   0  0  2  0  0  0
  -20.6804  -26.9434   22.5407 C   0  0  0  0  0  0
  -19.5776  -26.6370   21.5224 C   0  0  0  0  0  0
  -18.1958  -26.7946   22.1625 C   0  0  0  0  0  0
  -19.1598  -28.8918   23.2791 C   0  0  0  0  0  0
  -18.9505  -30.1503   23.8832 C   0  0  0  0  0  0
  -17.6494  -30.6604   24.0548 C   0  0  0  0  0  0
  -25.9135  -34.9280   23.4939 C   0  0  0  0  0  0
  -16.5383  -29.9086   23.6353 C   0  0  0  0  0  0
  -16.7310  -28.6507   23.0373 C   0  0  0  0  0  0
  -26.4613  -31.6500   25.0686 C   0  0  0  0  0  0
  -25.3669  -31.3834   26.1302 C   0  0  0  0  0  0
  -27.0542  -30.2837   24.6588 C   0  0  0  0  0  0
  -27.6046  -32.4364   25.7514 C   0  0  0  0  0  0
  -27.5554  -37.1734   24.8464 C   0  0  0  0  0  0
  -21.4408  -29.3024   22.3492 N   0  0  0  0  0  0
  -26.4266  -37.3654   23.9407 N   0  0  0  0  0  0
  -24.7853  -30.9433   22.0782 N   0  0  0  0  0  0
  -23.4232  -28.7897   23.3033 O   0  0  0  0  0  0
  -28.0381  -25.4373   20.1288 O   0  0  0  0  0  0
  -26.5767  -34.8858   22.4548 O   0  0  0  0  0  0
  -23.5898  -32.1072   23.6506 O   0  0  0  0  0  0
  -26.5871  -20.2530   19.8427 C   0  0  0  0  0  0
  -27.9931  -20.1973   19.7964 C   0  0  0  0  0  0
  -25.8856  -19.5095   18.8804 C   0  0  0  0  0  0
  -28.4726  -18.7113   19.2547 C   0  0  0  0  0  0
  -24.3792  -19.6118   18.7721 C   0  0  0  0  0  0
  -27.2335  -16.9579   20.6768 C   0  0  0  0  0  0
  -28.9099  -12.2146   19.8754 C   0  0  0  0  0  0
  -28.4085  -15.5953   17.6417 C   0  0  0  0  0  0
  -28.5111  -21.9727   19.8448 C   0  0  0  0  0  0
  -30.4414  -15.8077   18.8748 C   0  0  0  0  0  0
  -27.6844  -23.7232   19.9468 C   0  0  0  0  0  0
  -28.4991  -16.9102   19.8204 C   0  0  1  0  0  0
  -29.0322  -15.0668   19.0435 C   0  0  0  0  0  0
  -26.5307  -18.7853   17.9369 N   0  0  0  0  0  0
  -27.8411  -18.5391   18.0658 N   0  0  0  0  0  0
  -31.1016  -15.8637   20.1642 N   0  0  0  0  0  0
  -31.7124  -13.5862   18.5248 H   0  0  0  0  0  0
  -31.2646  -12.1828   19.1830 H   0  0  0  0  0  0
  -29.6214  -11.9822   17.2880 H   0  0  0  0  0  0
  -29.8037  -13.5491   16.8519 H   0  0  0  0  0  0
  -27.2082  -12.1470   18.0931 H   0  0  0  0  0  0
  -27.0399  -13.6044   17.4084 H   0  0  0  0  0  0
  -26.8849  -14.7555   19.6075 H   0  0  0  0  0  0
  -28.6218  -13.4001   22.0632 H   0  0  0  0  0  0
  -28.7359  -15.0287   21.7205 H   0  0  0  0  0  0
  -25.2733   -9.5808   22.4791 H   0  0  0  0  0  0
  -24.0090   -7.4627   22.7470 H   0  0  0  0  0  0
  -21.0887   -8.8541   19.8899 H   0  0  0  0  0  0
  -22.3608  -10.9495   19.6080 H   0  0  0  0  0  0
  -21.2072   -7.6138   23.9698 H   0  0  0  0  0  0
  -21.1485   -6.0507   25.9057 H   0  0  0  0  0  0
  -22.0614   -2.7586   23.2850 H   0  0  0  0  0  0
  -22.3048  -11.9201   22.5507 H   0  0  0  0  0  0
  -20.9597  -13.0018   22.3289 H   0  0  0  0  0  0
  -24.0371  -15.7662   20.6960 H   0  0  0  0  0  0
  -25.6861  -15.8607   20.3153 H   0  0  0  0  0  0
  -26.7531  -32.4890   23.0746 H   0  0  0  0  0  0
  -25.0126  -33.9314   25.0057 H   0  0  0  0  0  0
  -22.8292  -31.2526   21.3370 H   0  0  0  0  0  0
  -23.3777  -35.9452   23.3264 H   0  0  0  0  0  0
  -24.3557  -36.8859   22.2074 H   0  0  0  0  0  0
  -23.7239  -37.6299   23.6764 H   0  0  0  0  0  0
  -26.3028  -31.2519   20.6332 H   0  0  0  0  0  0
  -26.9376  -30.5721   22.0818 H   0  0  0  0  0  0
  -28.1420  -28.3287   21.2561 H   0  0  0  0  0  0
  -25.7154  -25.6463   18.9329 H   0  0  0  0  0  0
  -23.9511  -27.2766   18.9103 H   0  0  0  0  0  0
  -23.9293  -30.4950   19.3887 H   0  0  0  0  0  0
  -22.8424  -29.2111   19.8119 H   0  0  0  0  0  0
  -25.1361  -36.1637   25.0762 H   0  0  0  0  0  0
  -21.0044  -28.3382   24.1290 H   0  0  0  0  0  0
  -20.5693  -26.2378   23.3657 H   0  0  0  0  0  0
  -21.6662  -26.7398   22.1204 H   0  0  0  0  0  0
  -19.6928  -25.6267   21.1289 H   0  0  0  0  0  0
  -19.6718  -27.3152   20.6731 H   0  0  0  0  0  0
  -17.4229  -26.6697   21.4024 H   0  0  0  0  0  0
  -18.0336  -26.0107   22.9033 H   0  0  0  0  0  0
  -19.7975  -30.7339   24.2177 H   0  0  0  0  0  0
  -17.5040  -31.6280   24.5160 H   0  0  0  0  0  0
  -15.5379  -30.2964   23.7713 H   0  0  0  0  0  0
  -15.8709  -28.0799   22.7132 H   0  0  0  0  0  0
  -24.5876  -30.7156   25.7614 H   0  0  0  0  0  0
  -24.8841  -32.3069   26.4507 H   0  0  0  0  0  0
  -25.7845  -30.9148   27.0226 H   0  0  0  0  0  0
  -26.3255  -29.6446   24.1599 H   0  0  0  0  0  0
  -27.3990  -29.7287   25.5324 H   0  0  0  0  0  0
  -27.9228  -30.3960   24.0098 H   0  0  0  0  0  0
  -27.2573  -33.3736   26.1877 H   0  0  0  0  0  0
  -28.3980  -32.6817   25.0441 H   0  0  0  0  0  0
  -28.0584  -31.8645   26.5621 H   0  0  0  0  0  0
  -28.2549  -38.0051   24.7512 H   0  0  0  0  0  0
  -28.1078  -36.2575   24.6302 H   0  0  0  0  0  0
  -27.2268  -37.1380   25.8867 H   0  0  0  0  0  0
  -20.9705  -29.8698   21.6579 H   0  0  0  0  0  0
  -26.0086  -38.2695   24.1431 H   0  0  0  0  0  0
  -26.0651  -21.0489   20.3551 H   0  0  0  0  0  0
  -24.0778  -20.6501   18.6373 H   0  0  0  0  0  0
  -23.9162  -19.2367   19.6855 H   0  0  0  0  0  0
  -23.9916  -19.0298   17.9363 H   0  0  0  0  0  0
  -26.3765  -17.1132   20.0301 H   0  0  0  0  0  0
  -27.2581  -17.8271   21.3356 H   0  0  0  0  0  0
  -27.0793  -16.1289   21.3535 H   0  0  0  0  0  0
  -28.1842  -11.8352   20.5873 H   0  0  0  0  0  0
  -28.8553  -11.3650   19.1801 H   0  0  0  0  0  0
  -29.6795  -11.7414   20.5070 H   0  0  0  0  0  0
  -28.4790  -15.0048   16.7381 H   0  0  0  0  0  0
  -28.8590  -16.5057   17.2619 H   0  0  0  0  0  0
  -27.3489  -15.8313   17.7492 H   0  0  0  0  0  0
  -29.1687  -22.0451   18.9776 H   0  0  0  0  0  0
  -29.2021  -21.9755   20.6872 H   0  0  0  0  0  0
  -31.0659  -15.4323   18.0664 H   0  0  0  0  0  0
  -30.4048  -16.8545   18.5702 H   0  0  0  0  0  0
  -26.9771  -23.5880   20.7646 H   0  0  0  0  0  0
  -27.0516  -23.7290   19.0591 H   0  0  0  0  0  0
  -29.1846  -17.0662   20.6479 H   0  0  0  0  0  0
  -31.8533  -16.5342   20.2324 H   0  0  0  0  0  0
  1 25  1  0  0  0
  1 30  2  0  0  0
  1 86  1  0  0  0
  2  3  1  0  0  0
  2 25  1  0  0  0
  2 87  1  0  0  0
  2 88  1  0  0  0
  3  4  1  0  0  0
  3 89  1  0  0  0
  3 90  1  0  0  0
  4  5  1  0  0  0
  4 91  1  0  0  0
  4 92  1  0  0  0
  5  6  1  0  0  0
  5 26  1  0  0  0
  5 93  1  0  0  0
  6 25  1  0  0  0
  6 94  1  0  0  0
  6 95  1  0  0  0
  7  8  2  0  0  0
  7 26  1  0  0  0
  7 29  1  0  0  0
  8  9  1  0  0  0
  8 22  1  0  0  0
  9 10  1  0  0  0
  9 27  2  0  0  0
 10 11  2  0  0  0
 10 15  1  0  0  0
 11 12  1  0  0  0
 11 96  1  0  0  0
 12 13  2  0  0  0
 12 97  1  0  0  0
 13 14  1  0  0  0
 13 31  1  0  0  0
 14 15  2  0  0  0
 14 98  1  0  0  0
 15 99  1  0  0  0
 16 17  2  0  0  0
 16 21  1  0  0  0
 16 31  1  0  0  0
 17 18  1  0  0  0
 17100  1  0  0  0
 18 19  2  0  0  0
 18101  1  0  0  0
 19 20  1  0  0  0
 19 24  1  0  0  0
 20 21  2  0  0  0
 20102  1  0  0  0
 21 23  1  0  0  0
 22 28  1  0  0  0
 22 32  2  0  0  0
 26 27  1  0  0  0
 28103  1  0  0  0
 28104  1  0  0  0
 29105  1  0  0  0
 29106  1  0  0  0
 33 34  1  0  0  0
 33 66  1  0  0  0
 33 70  2  0  0  0
 34 36  1  0  0  0
 34 59  1  0  0  0
 34107  1  0  0  0
 35 44  2  0  0  0
 35 45  1  0  0  0
 35 68  1  0  0  0
 36 56  1  0  0  0
 36108  1  0  0  0
 37 39  1  0  0  0
 37 47  1  0  0  0
 37 66  1  0  0  0
 37109  1  0  0  0
 38 43  2  0  0  0
 38 46  1  0  0  0
 38 47  1  0  0  0
 39 64  1  0  0  0
 39 67  2  0  0  0
 40 52  1  0  0  0
 40 53  2  0  0  0
 40 58  1  0  0  0
 41110  1  0  0  0
 41111  1  0  0  0
 41112  1  0  0  0
 41 48  1  0  0  0
 42 43  1  0  0  0
 42 66  1  0  0  0
 42113  1  0  0  0
 42114  1  0  0  0
 43 44  1  0  0  0
 44115  1  0  0  0
 45 46  2  0  0  0
 45116  1  0  0  0
 46117  1  0  0  0
 47118  1  0  0  0
 47119  1  0  0  0
 48 56  1  0  0  0
 48 65  1  0  0  0
 48120  1  0  0  0
 49 50  1  0  0  0
 49 53  1  0  0  0
 49 64  1  0  0  0
 49121  1  0  0  0
 50 51  1  0  0  0
 50122  1  0  0  0
 50123  1  0  0  0
 51 52  1  0  0  0
 51124  1  0  0  0
 51125  1  0  0  0
 52126  1  0  0  0
 52127  1  0  0  0
 53 54  1  0  0  0
 54 55  2  0  0  0
 54128  1  0  0  0
 55 57  1  0  0  0
 55129  1  0  0  0
 56 69  2  0  0  0
 57 58  2  0  0  0
 57130  1  0  0  0
 58131  1  0  0  0
 59 60  1  0  0  0
 59 61  1  0  0  0
 59 62  1  0  0  0
 60132  1  0  0  0
 60133  1  0  0  0
 60134  1  0  0  0
 61135  1  0  0  0
 61136  1  0  0  0
 61137  1  0  0  0
 62138  1  0  0  0
 62139  1  0  0  0
 62140  1  0  0  0
 63 65  1  0  0  0
 63141  1  0  0  0
 63142  1  0  0  0
 63143  1  0  0  0
 64144  1  0  0  0
 65145  1  0  0  0
 68 81  1  0  0  0
 71 72  2  0  0  0
 71 73  1  0  0  0
 71146  1  0  0  0
 72 74  1  0  0  0
 72 79  1  0  0  0
 73 75  1  0  0  0
 73 84  2  0  0  0
 74 82  1  0  0  0
 74 85  2  0  0  0
 75147  1  0  0  0
 75148  1  0  0  0
 75149  1  0  0  0
 76150  1  0  0  0
 76151  1  0  0  0
 76152  1  0  0  0
 76 82  1  0  0  0
 77153  1  0  0  0
 77154  1  0  0  0
 77155  1  0  0  0
 77 83  1  0  0  0
 78 83  1  0  0  0
 78156  1  0  0  0
 78157  1  0  0  0
 78158  1  0  0  0
 79 81  1  0  0  0
 79159  1  0  0  0
 79160  1  0  0  0
 80 83  1  0  0  0
 80 86  1  0  0  0
 80161  1  0  0  0
 80162  1  0  0  0
 81163  1  0  0  0
 81164  1  0  0  0
 82 83  1  0  0  0
 82165  1  0  0  0
 84 85  1  0  0  0
 86166  1  0  0  0
M  ISO  4   1 100  68 101  81 101  86 100
M  END
> <chiral flag>
0

> <version>
0

> <s_m_source_file>
/data/baiqing/PycharmProjects/Reinvent-master-3.2/result/LINK_invent/BTK/process_docking_weight1_custom_sum_contain_oxygen_bond_distance_aromatic_linkinvent_7_9_3/rearranged_h_0079.sdf

> <i_m_source_file_index>
96

> <r_mmod_Potential_Energy-OPLS-2005>
8476.3994140625

> <r_mmod_Stretch_Energy-OPLS-2005>
4650.94775390625

> <r_mmod_Bend_Energy-OPLS-2005>
1007.50390625

> <r_mmod_Torsional_Energy-OPLS-2005>
545.231811523438

> <r_mmod_Improper_Torsional_Energy-OPLS-2005>
59.0307693481445

> <r_mmod_Van_der_Waal_Energy-OPLS-2005>
1759.734375

> <r_mmod_Electrostatic_Energy-OPLS-2005>
-401.700775146484

> <r_mmod_Solvation_Energy-OPLS-2005>
-218.055191040039

> <b_mmod_Minimization_Converged-OPLS-2005>
0

> <r_mmod_RMS_Derivative-OPLS-2005>
2.23476266860962

$$$$
96
                    3D
 Structure written by MMmdl.
167175  0  0  1  0            999 V2000
  -30.6326  -14.6573   20.5889 C   0  0  0  0  0  0
  -30.4241  -12.4336   19.4594 C   0  0  0  0  0  0
  -29.5006  -12.5276   18.2252 C   0  0  0  0  0  0
  -28.0275  -12.3443   18.6384 C   0  0  0  0  0  0
  -27.6430  -13.2181   19.8615 C   0  0  2  0  0  0
  -28.6803  -13.0914   20.9976 C   0  0  0  0  0  0
  -25.2525  -13.8173   20.5713 C   0  0  0  0  0  0
  -24.1794  -13.0443   20.9210 C   0  0  0  0  0  0
  -24.6348  -11.6911   20.8745 C   0  0  0  0  0  0
  -23.9025  -10.4301   21.0403 C   0  0  0  0  0  0
  -24.3590   -9.4230   21.9189 C   0  0  0  0  0  0
  -23.6280   -8.2254   22.0755 C   0  0  0  0  0  0
  -22.4261   -8.0271   21.3543 C   0  0  0  0  0  0
  -21.9885   -9.0246   20.4647 C   0  0  0  0  0  0
  -22.7196  -10.2135   20.3063 C   0  0  0  0  0  0
  -21.6848   -6.0733   22.5282 C   0  0  0  0  0  0
  -21.4018   -6.5640   23.8210 C   0  0  0  0  0  0
  -21.3664   -5.6790   24.9177 C   0  0  0  0  0  0
  -21.6036   -4.3053   24.7227 C   0  0  0  0  0  0
  -21.8813   -3.8145   23.4355 C   0  0  0  0  0  0
  -21.9202   -4.6965   22.3402 C   0  0  0  0  0  0
  -22.7831  -13.5264   21.1844 C   0  0  0  0  0  0
  -22.1663   -4.2160   21.0980 F   0  0  0  0  0  0
  -21.5628   -3.4531   25.7737 F   0  0  0  0  0  0
  -29.9865  -13.4549   20.4349 N   0  0  0  0  0  0
  -26.2918  -12.9349   20.3292 N   0  0  0  0  0  0
  -25.9276  -11.6503   20.5753 N   0  0  0  0  0  0
  -22.0440  -12.8285   22.0386 N   0  0  0  0  0  0
  -25.4271  -15.1887   20.4149 N   0  0  0  0  0  0
  -31.7885  -14.7898   20.1826 O   0  0  0  0  0  0
  -21.6635   -6.8868   21.4232 O   0  0  0  0  0  0
  -22.3560  -14.5585   20.6700 O   0  0  0  0  0  0
  -24.6301  -31.8583   23.2060 C   0  0  0  0  0  0
  -25.9168  -32.4768   23.8365 C   0  0  1  0  0  0
  -27.2151  -27.3250   20.1132 C   0  0  0  0  0  0
  -25.6011  -33.8568   24.2315 N   0  0  0  0  0  0
  -23.4201  -30.4881   21.5442 C   0  0  2  0  0  0
  -24.8660  -28.9537   20.1040 C   0  0  0  0  0  0
  -22.7466  -29.4648   22.4896 C   0  0  0  0  0  0
  -18.0301  -28.1367   22.8469 C   0  0  0  0  0  0
  -24.1490  -36.7276   23.2622 C   0  0  0  0  0  0
  -25.9615  -30.7932   21.3771 C   0  0  0  0  0  0
  -26.0346  -29.4228   20.7200 C   0  0  0  0  0  0
  -27.2114  -28.6172   20.7223 C   0  0  0  0  0  0
  -26.0277  -26.9291   19.4467 C   0  0  0  0  0  0
  -24.8648  -27.7135   19.4557 C   0  0  0  0  0  0
  -23.6351  -29.8315   20.1571 C   0  0  0  0  0  0
  -25.4105  -36.3072   24.0331 C   0  0  1  0  0  0
  -20.5898  -28.3683   23.1252 C   0  0  2  0  0  0
  -20.6795  -26.9409   22.5377 C   0  0  0  0  0  0
  -19.5784  -26.6368   21.5172 C   0  0  0  0  0  0
  -18.1963  -26.7919   22.1585 C   0  0  0  0  0  0
  -19.1547  -28.8842   23.2872 C   0  0  0  0  0  0
  -18.9467  -30.1456   23.8878 C   0  0  0  0  0  0
  -17.6462  -30.6571   24.0541 C   0  0  0  0  0  0
  -25.9028  -34.9436   23.5087 C   0  0  0  0  0  0
  -16.5360  -29.9046   23.6335 C   0  0  0  0  0  0
  -16.7284  -28.6470   23.0343 C   0  0  0  0  0  0
  -26.4567  -31.6564   25.0723 C   0  0  0  0  0  0
  -25.3837  -31.3699   26.1470 C   0  0  0  0  0  0
  -27.0397  -30.2980   24.6172 C   0  0  0  0  0  0
  -27.6129  -32.4275   25.7525 C   0  0  0  0  0  0
  -27.5581  -37.1799   24.8467 C   0  0  0  0  0  0
  -21.4174  -29.3053   22.3645 N   0  0  0  0  0  0
  -26.4290  -37.3764   23.9414 N   0  0  0  0  0  0
  -24.6886  -31.0629   22.0999 N   0  0  0  0  0  0
  -23.4200  -28.8163   23.2946 O   0  0  0  0  0  0
  -28.3060  -26.4434   20.1989 O   0  0  0  0  0  0
  -26.5518  -34.8900   22.4603 O   0  0  0  0  0  0
  -23.5477  -32.1361   23.7406 O   0  0  0  0  0  0
  -28.9519  -20.7121   21.8775 C   0  0  0  0  0  0
  -29.2506  -19.9631   19.6357 C   0  0  0  0  0  0
  -28.9227  -21.0323   20.5099 C   0  0  0  0  0  0
  -29.2895  -19.4017   22.3177 C   0  0  0  0  0  0
  -29.6352  -18.3906   21.3578 C   0  0  0  0  0  0
  -25.5682  -19.8047   25.0758 C   0  0  0  0  0  0
  -31.8391  -17.2494   21.7923 C   0  0  0  0  0  0
  -28.3625  -22.4023   19.9914 C   0  0  0  0  0  0
  -29.2805  -19.1781   23.8341 C   0  0  0  0  0  0
  -26.9973  -20.1309   24.6237 C   0  0  0  0  0  0
  -28.9264  -23.8138   20.4609 C   0  0  0  0  0  0
  -27.8742  -18.8806   24.4031 C   0  0  0  0  0  0
  -28.0134  -25.0113   19.9629 C   0  0  0  0  0  0
  -30.3155  -17.0167   21.7502 C   0  0  2  0  0  0
  -29.6029  -18.7054   20.0385 N   0  0  0  0  0  0
  -29.9047  -15.7053   21.1087 N   0  0  0  0  0  0
  -31.4663  -12.5642   19.1640 H   0  0  0  0  0  0
  -30.3627  -11.4432   19.9122 H   0  0  0  0  0  0
  -29.7808  -11.7744   17.4880 H   0  0  0  0  0  0
  -29.6274  -13.4960   17.7364 H   0  0  0  0  0  0
  -27.8826  -11.2909   18.8838 H   0  0  0  0  0  0
  -27.3667  -12.5601   17.7975 H   0  0  0  0  0  0
  -27.6582  -14.2504   19.5116 H   0  0  0  0  0  0
  -28.7119  -12.0734   21.3910 H   0  0  0  0  0  0
  -28.4095  -13.7269   21.8414 H   0  0  0  0  0  0
  -25.2719   -9.5743   22.4786 H   0  0  0  0  0  0
  -23.9996   -7.4659   22.7485 H   0  0  0  0  0  0
  -21.0818   -8.8767   19.8957 H   0  0  0  0  0  0
  -22.3638  -10.9686   19.6193 H   0  0  0  0  0  0
  -21.2016   -7.6148   23.9721 H   0  0  0  0  0  0
  -21.1476   -6.0518   25.9073 H   0  0  0  0  0  0
  -22.0594   -2.7614   23.2844 H   0  0  0  0  0  0
  -22.4004  -11.9954   22.4826 H   0  0  0  0  0  0
  -21.1076  -13.1371   22.2558 H   0  0  0  0  0  0
  -24.6618  -15.8465   20.5223 H   0  0  0  0  0  0
  -26.2775  -15.6239   20.0814 H   0  0  0  0  0  0
  -26.7225  -32.5458   23.1112 H   0  0  0  0  0  0
  -25.0439  -33.9697   25.0652 H   0  0  0  0  0  0
  -22.7163  -31.3103   21.4025 H   0  0  0  0  0  0
  -23.3744  -35.9620   23.3273 H   0  0  0  0  0  0
  -24.3595  -36.8881   22.2037 H   0  0  0  0  0  0
  -23.7226  -37.6480   23.6613 H   0  0  0  0  0  0
  -26.0926  -31.5582   20.6096 H   0  0  0  0  0  0
  -26.8411  -30.8417   22.0063 H   0  0  0  0  0  0
  -28.1030  -28.9597   21.2316 H   0  0  0  0  0  0
  -25.9593  -25.9934   18.9122 H   0  0  0  0  0  0
  -23.9764  -27.3568   18.9517 H   0  0  0  0  0  0
  -23.7558  -30.6057   19.3981 H   0  0  0  0  0  0
  -22.7568  -29.2599   19.8534 H   0  0  0  0  0  0
  -25.1284  -36.1915   25.0822 H   0  0  0  0  0  0
  -21.0019  -28.3245   24.1358 H   0  0  0  0  0  0
  -20.5692  -26.2275   23.3555 H   0  0  0  0  0  0
  -21.6661  -26.7440   22.1173 H   0  0  0  0  0  0
  -19.6935  -25.6265   21.1230 H   0  0  0  0  0  0
  -19.6734  -27.3141   20.6678 H   0  0  0  0  0  0
  -17.4228  -26.6656   21.3991 H   0  0  0  0  0  0
  -18.0398  -26.0069   22.8998 H   0  0  0  0  0  0
  -19.7942  -30.7285   24.2225 H   0  0  0  0  0  0
  -17.5007  -31.6255   24.5137 H   0  0  0  0  0  0
  -15.5354  -30.2923   23.7677 H   0  0  0  0  0  0
  -15.8694  -28.0772   22.7058 H   0  0  0  0  0  0
  -24.6065  -30.6969   25.7841 H   0  0  0  0  0  0
  -24.9001  -32.2865   26.4835 H   0  0  0  0  0  0
  -25.8230  -30.8967   27.0256 H   0  0  0  0  0  0
  -26.2958  -29.6724   24.1241 H   0  0  0  0  0  0
  -27.4123  -29.7256   25.4671 H   0  0  0  0  0  0
  -27.8820  -30.4220   23.9372 H   0  0  0  0  0  0
  -27.2752  -33.3579   26.2085 H   0  0  0  0  0  0
  -28.4003  -32.6792   25.0417 H   0  0  0  0  0  0
  -28.0725  -31.8396   26.5476 H   0  0  0  0  0  0
  -28.2592  -38.0107   24.7512 H   0  0  0  0  0  0
  -28.1092  -36.2628   24.6294 H   0  0  0  0  0  0
  -27.2301  -37.1452   25.8876 H   0  0  0  0  0  0
  -20.9321  -29.8817   21.6909 H   0  0  0  0  0  0
  -26.0168  -38.2850   24.1389 H   0  0  0  0  0  0
  -28.6860  -21.4757   22.5942 H   0  0  0  0  0  0
  -29.2074  -20.1033   18.5656 H   0  0  0  0  0  0
  -25.0162  -20.7181   25.2996 H   0  0  0  0  0  0
  -25.5551  -19.1867   25.9735 H   0  0  0  0  0  0
  -25.0193  -19.2732   24.2968 H   0  0  0  0  0  0
  -32.0805  -18.0954   22.4387 H   0  0  0  0  0  0
  -32.2245  -17.4816   20.7983 H   0  0  0  0  0  0
  -32.3807  -16.3898   22.1828 H   0  0  0  0  0  0
  -27.3041  -22.3854   20.2554 H   0  0  0  0  0  0
  -28.3817  -22.3798   18.9000 H   0  0  0  0  0  0
  -29.6813  -20.0663   24.3248 H   0  0  0  0  0  0
  -29.9695  -18.3898   24.1271 H   0  0  0  0  0  0
  -27.4708  -20.7707   25.3695 H   0  0  0  0  0  0
  -26.9310  -20.7194   23.7125 H   0  0  0  0  0  0
  -29.9443  -23.9383   20.0926 H   0  0  0  0  0  0
  -28.9844  -23.8468   21.5495 H   0  0  0  0  0  0
  -27.9941  -18.3986   25.3752 H   0  0  0  0  0  0
  -27.3630  -18.1534   23.7707 H   0  0  0  0  0  0
  -27.0363  -24.7871   20.3999 H   0  0  0  0  0  0
  -27.9099  -24.8946   18.8838 H   0  0  0  0  0  0
  -30.0171  -16.8139   22.7755 H   0  0  0  0  0  0
  -28.9362  -15.4817   21.2759 H   0  0  0  0  0  0
  1 25  1  0  0  0
  1 30  2  0  0  0
  1 86  1  0  0  0
  2  3  1  0  0  0
  2 25  1  0  0  0
  2 87  1  0  0  0
  2 88  1  0  0  0
  3  4  1  0  0  0
  3 89  1  0  0  0
  3 90  1  0  0  0
  4  5  1  0  0  0
  4 91  1  0  0  0
  4 92  1  0  0  0
  5  6  1  0  0  0
  5 26  1  0  0  0
  5 93  1  0  0  0
  6 25  1  0  0  0
  6 94  1  0  0  0
  6 95  1  0  0  0
  7  8  2  0  0  0
  7 26  1  0  0  0
  7 29  1  0  0  0
  8  9  1  0  0  0
  8 22  1  0  0  0
  9 10  1  0  0  0
  9 27  2  0  0  0
 10 11  2  0  0  0
 10 15  1  0  0  0
 11 12  1  0  0  0
 11 96  1  0  0  0
 12 13  2  0  0  0
 12 97  1  0  0  0
 13 14  1  0  0  0
 13 31  1  0  0  0
 14 15  2  0  0  0
 14 98  1  0  0  0
 15 99  1  0  0  0
 16 17  2  0  0  0
 16 21  1  0  0  0
 16 31  1  0  0  0
 17 18  1  0  0  0
 17100  1  0  0  0
 18 19  2  0  0  0
 18101  1  0  0  0
 19 20  1  0  0  0
 19 24  1  0  0  0
 20 21  2  0  0  0
 20102  1  0  0  0
 21 23  1  0  0  0
 22 28  1  0  0  0
 22 32  2  0  0  0
 26 27  1  0  0  0
 28103  1  0  0  0
 28104  1  0  0  0
 29105  1  0  0  0
 29106  1  0  0  0
 33 34  1  0  0  0
 33 66  1  0  0  0
 33 70  2  0  0  0
 34 36  1  0  0  0
 34 59  1  0  0  0
 34107  1  0  0  0
 35 44  2  0  0  0
 35 45  1  0  0  0
 35 68  1  0  0  0
 36 56  1  0  0  0
 36108  1  0  0  0
 37 39  1  0  0  0
 37 47  1  0  0  0
 37 66  1  0  0  0
 37109  1  0  0  0
 38 43  2  0  0  0
 38 46  1  0  0  0
 38 47  1  0  0  0
 39 64  1  0  0  0
 39 67  2  0  0  0
 40 52  1  0  0  0
 40 53  2  0  0  0
 40 58  1  0  0  0
 41110  1  0  0  0
 41111  1  0  0  0
 41112  1  0  0  0
 41 48  1  0  0  0
 42 43  1  0  0  0
 42 66  1  0  0  0
 42113  1  0  0  0
 42114  1  0  0  0
 43 44  1  0  0  0
 44115  1  0  0  0
 45 46  2  0  0  0
 45116  1  0  0  0
 46117  1  0  0  0
 47118  1  0  0  0
 47119  1  0  0  0
 48 56  1  0  0  0
 48 65  1  0  0  0
 48120  1  0  0  0
 49 50  1  0  0  0
 49 53  1  0  0  0
 49 64  1  0  0  0
 49121  1  0  0  0
 50 51  1  0  0  0
 50122  1  0  0  0
 50123  1  0  0  0
 51 52  1  0  0  0
 51124  1  0  0  0
 51125  1  0  0  0
 52126  1  0  0  0
 52127  1  0  0  0
 53 54  1  0  0  0
 54 55  2  0  0  0
 54128  1  0  0  0
 55 57  1  0  0  0
 55129  1  0  0  0
 56 69  2  0  0  0
 57 58  2  0  0  0
 57130  1  0  0  0
 58131  1  0  0  0
 59 60  1  0  0  0
 59 61  1  0  0  0
 59 62  1  0  0  0
 60132  1  0  0  0
 60133  1  0  0  0
 60134  1  0  0  0
 61135  1  0  0  0
 61136  1  0  0  0
 61137  1  0  0  0
 62138  1  0  0  0
 62139  1  0  0  0
 62140  1  0  0  0
 63 65  1  0  0  0
 63141  1  0  0  0
 63142  1  0  0  0
 63143  1  0  0  0
 64144  1  0  0  0
 65145  1  0  0  0
 68 83  1  0  0  0
 71 73  2  0  0  0
 71 74  1  0  0  0
 71146  1  0  0  0
 72 73  1  0  0  0
 72 85  2  0  0  0
 72147  1  0  0  0
 73 78  1  0  0  0
 74 75  2  0  0  0
 74 79  1  0  0  0
 75 84  1  0  0  0
 75 85  1  0  0  0
 76 80  1  0  0  0
 76148  1  0  0  0
 76149  1  0  0  0
 76150  1  0  0  0
 77151  1  0  0  0
 77152  1  0  0  0
 77153  1  0  0  0
 77 84  1  0  0  0
 78 81  1  0  0  0
 78154  1  0  0  0
 78155  1  0  0  0
 79 82  1  0  0  0
 79156  1  0  0  0
 79157  1  0  0  0
 80 82  1  0  0  0
 80158  1  0  0  0
 80159  1  0  0  0
 81 83  1  0  0  0
 81160  1  0  0  0
 81161  1  0  0  0
 82162  1  0  0  0
 82163  1  0  0  0
 83164  1  0  0  0
 83165  1  0  0  0
 84 86  1  0  0  0
 84166  1  0  0  0
 86167  1  0  0  0
M  ISO  4   1 100  68 101  83 101  86 100
M  END
> <chiral flag>
0

> <version>
0

> <s_m_source_file>
/data/baiqing/PycharmProjects/Reinvent-master-3.2/result/LINK_invent/BTK/process_docking_weight1_custom_sum_contain_oxygen_bond_distance_aromatic_linkinvent_7_9_3/rearranged_h_0079.sdf

> <i_m_source_file_index>
97

> <r_mmod_Potential_Energy-OPLS-2005>
-152.178665161133

> <r_mmod_Stretch_Energy-OPLS-2005>
81.9213943481445

> <r_mmod_Bend_Energy-OPLS-2005>
161.609954833984

> <r_mmod_Torsional_Energy-OPLS-2005>
202.111450195312

> <r_mmod_Improper_Torsional_Energy-OPLS-2005>
5.11935663223267

> <r_mmod_Van_der_Waal_Energy-OPLS-2005>
153.424057006836

> <r_mmod_Electrostatic_Energy-OPLS-2005>
-593.392517089844

> <r_mmod_Solvation_Energy-OPLS-2005>
-218.546203613281

> <b_mmod_Minimization_Converged-OPLS-2005>
0

> <r_mmod_RMS_Derivative-OPLS-2005>
3.5075945854187

$$$$
97
                    3D
 Structure written by MMmdl.
170178  0  0  1  0            999 V2000
  -30.7202  -14.4846   20.5076 C   0  0  0  0  0  0
  -30.4079  -12.2967   19.4366 C   0  0  0  0  0  0
  -29.4893  -12.4880   18.2135 C   0  0  0  0  0  0
  -28.0086  -12.3586   18.6243 C   0  0  0  0  0  0
  -27.6521  -13.2105   19.8698 C   0  0  2  0  0  0
  -28.6989  -13.0443   20.9957 C   0  0  0  0  0  0
  -25.2547  -13.8126   20.5697 C   0  0  0  0  0  0
  -24.1799  -13.0410   20.9216 C   0  0  0  0  0  0
  -24.6362  -11.6878   20.8757 C   0  0  0  0  0  0
  -23.9018  -10.4249   21.0417 C   0  0  0  0  0  0
  -24.3575   -9.4150   21.9186 C   0  0  0  0  0  0
  -23.6254   -8.2183   22.0748 C   0  0  0  0  0  0
  -22.4240   -8.0232   21.3529 C   0  0  0  0  0  0
  -21.9864   -9.0202   20.4638 C   0  0  0  0  0  0
  -22.7187  -10.2093   20.3063 C   0  0  0  0  0  0
  -21.6818   -6.0703   22.5274 C   0  0  0  0  0  0
  -21.3966   -6.5607   23.8206 C   0  0  0  0  0  0
  -21.3692   -5.6774   24.9185 C   0  0  0  0  0  0
  -21.6068   -4.3037   24.7229 C   0  0  0  0  0  0
  -21.8804   -3.8123   23.4346 C   0  0  0  0  0  0
  -21.9172   -4.6937   22.3399 C   0  0  0  0  0  0
  -22.7828  -13.5208   21.1850 C   0  0  0  0  0  0
  -22.1656   -4.2131   21.0978 F   0  0  0  0  0  0
  -21.5684   -3.4520   25.7737 F   0  0  0  0  0  0
  -30.0270  -13.3180   20.4252 N   0  0  0  0  0  0
  -26.2972  -12.9305   20.3377 N   0  0  0  0  0  0
  -25.9286  -11.6468   20.5778 N   0  0  0  0  0  0
  -22.0491  -12.8185   22.0432 N   0  0  0  0  0  0
  -25.4277  -15.1832   20.4062 N   0  0  0  0  0  0
  -31.8919  -14.5800   20.1356 O   0  0  0  0  0  0
  -21.6614   -6.8832   21.4221 O   0  0  0  0  0  0
  -22.3498  -14.5515   20.6711 O   0  0  0  0  0  0
  -24.6109  -31.8689   23.2097 C   0  0  0  0  0  0
  -25.8995  -32.4838   23.8409 C   0  0  1  0  0  0
  -27.2313  -27.4449   20.0742 C   0  0  0  0  0  0
  -25.5873  -33.8644   24.2341 N   0  0  0  0  0  0
  -23.3981  -30.4937   21.5494 C   0  0  2  0  0  0
  -24.8424  -28.9633   20.1098 C   0  0  0  0  0  0
  -22.7383  -29.4658   22.4957 C   0  0  0  0  0  0
  -18.0276  -28.1382   22.8499 C   0  0  0  0  0  0
  -24.1479  -36.7300   23.2643 C   0  0  0  0  0  0
  -25.9251  -30.8353   21.3627 C   0  0  0  0  0  0
  -26.0002  -29.4703   20.7094 C   0  0  0  0  0  0
  -27.1927  -28.7123   20.6979 C   0  0  0  0  0  0
  -26.0450  -26.9401   19.4911 C   0  0  0  0  0  0
  -24.8587  -27.6958   19.5022 C   0  0  0  0  0  0
  -23.6053  -29.8282   20.1624 C   0  0  0  0  0  0
  -25.4110  -36.3127   24.0342 C   0  0  1  0  0  0
  -20.5868  -28.3656   23.1304 C   0  0  2  0  0  0
  -20.6750  -26.9389   22.5402 C   0  0  0  0  0  0
  -19.5732  -26.6392   21.5191 C   0  0  0  0  0  0
  -18.1920  -26.7928   22.1619 C   0  0  0  0  0  0
  -19.1527  -28.8832   23.2914 C   0  0  0  0  0  0
  -18.9456  -30.1442   23.8914 C   0  0  0  0  0  0
  -17.6460  -30.6584   24.0570 C   0  0  0  0  0  0
  -25.9029  -34.9488   23.5137 C   0  0  0  0  0  0
  -16.5355  -29.9087   23.6334 C   0  0  0  0  0  0
  -16.7266  -28.6509   23.0347 C   0  0  0  0  0  0
  -26.4444  -31.6633   25.0735 C   0  0  0  0  0  0
  -25.3719  -31.3732   26.1487 C   0  0  0  0  0  0
  -27.0263  -30.3091   24.6067 C   0  0  0  0  0  0
  -27.6028  -32.4339   25.7489 C   0  0  0  0  0  0
  -27.5582  -37.1813   24.8466 C   0  0  0  0  0  0
  -21.4110  -29.3030   22.3702 N   0  0  0  0  0  0
  -26.4300  -37.3809   23.9411 N   0  0  0  0  0  0
  -24.6633  -31.0797   22.0993 N   0  0  0  0  0  0
  -23.4150  -28.8178   23.2979 O   0  0  0  0  0  0
  -28.4160  -26.7411   20.0986 O   0  0  0  0  0  0
  -26.5581  -34.8937   22.4690 O   0  0  0  0  0  0
  -23.5296  -32.1427   23.7488 O   0  0  0  0  0  0
  -32.6945  -21.6198   20.5722 C   0  0  0  0  0  0
  -31.9845  -22.7314   20.0952 C   0  0  0  0  0  0
  -32.2784  -20.3268   20.2185 C   0  0  0  0  0  0
  -30.8309  -22.5052   19.3128 C   0  0  0  0  0  0
  -31.1197  -20.1759   19.4173 C   0  0  0  0  0  0
  -32.5181  -24.1236   20.4052 C   0  0  0  0  0  0
  -33.1409  -19.1583   20.6656 C   0  0  0  0  0  0
  -28.6091  -18.6389   20.2564 C   0  0  0  0  0  0
  -29.0642  -16.9524   18.4869 C   0  0  0  0  0  0
  -30.0609  -23.6617   18.6803 C   0  0  0  0  0  0
  -30.7248  -18.8185   18.8019 C   0  0  0  0  0  0
  -29.1435  -24.4468   19.6416 C   0  0  0  0  0  0
  -30.5099  -16.9775   20.5987 C   0  0  0  0  0  0
  -28.7273  -25.8126   19.0549 C   0  0  0  0  0  0
  -29.7350  -17.8538   19.5537 C   0  0  0  0  0  0
  -30.3997  -21.2541   19.0102 N   0  0  0  0  0  0
  -30.0084  -15.5954   20.7911 N   0  0  0  0  0  0
  -31.4552  -12.3653   19.1368 H   0  0  0  0  0  0
  -30.2863  -11.2960   19.8534 H   0  0  0  0  0  0
  -29.7251  -11.7563   17.4402 H   0  0  0  0  0  0
  -29.6646  -13.4708   17.7758 H   0  0  0  0  0  0
  -27.8134  -11.3037   18.8274 H   0  0  0  0  0  0
  -27.3636  -12.6360   17.7886 H   0  0  0  0  0  0
  -27.6797  -14.2470   19.5433 H   0  0  0  0  0  0
  -28.6684  -12.0298   21.3917 H   0  0  0  0  0  0
  -28.4757  -13.6992   21.8393 H   0  0  0  0  0  0
  -25.2726   -9.5612   22.4764 H   0  0  0  0  0  0
  -23.9992   -7.4534   22.7418 H   0  0  0  0  0  0
  -21.0829   -8.8652   19.8899 H   0  0  0  0  0  0
  -22.3621  -10.9621   19.6173 H   0  0  0  0  0  0
  -21.1898   -7.6100   23.9686 H   0  0  0  0  0  0
  -21.1586   -6.0520   25.9093 H   0  0  0  0  0  0
  -22.0565   -2.7583   23.2840 H   0  0  0  0  0  0
  -22.4140  -11.9874   22.4829 H   0  0  0  0  0  0
  -21.1113  -13.1181   22.2648 H   0  0  0  0  0  0
  -24.6496  -15.8311   20.4633 H   0  0  0  0  0  0
  -26.2637  -15.5982   20.0180 H   0  0  0  0  0  0
  -26.7051  -32.5570   23.1176 H   0  0  0  0  0  0
  -25.0069  -33.9830   25.0510 H   0  0  0  0  0  0
  -22.6883  -31.3102   21.4136 H   0  0  0  0  0  0
  -23.3755  -35.9618   23.3313 H   0  0  0  0  0  0
  -24.3575  -36.8890   22.2053 H   0  0  0  0  0  0
  -23.7196  -37.6499   23.6636 H   0  0  0  0  0  0
  -26.0366  -31.6052   20.5964 H   0  0  0  0  0  0
  -26.8108  -30.8879   21.9819 H   0  0  0  0  0  0
  -28.0898  -29.1028   21.1591 H   0  0  0  0  0  0
  -26.0067  -25.9606   19.0389 H   0  0  0  0  0  0
  -23.9645  -27.2939   19.0440 H   0  0  0  0  0  0
  -23.7086  -30.6021   19.4013 H   0  0  0  0  0  0
  -22.7285  -29.2471   19.8709 H   0  0  0  0  0  0
  -25.1287  -36.2013   25.0838 H   0  0  0  0  0  0
  -21.0006  -28.3226   24.1399 H   0  0  0  0  0  0
  -20.5618  -26.2263   23.3578 H   0  0  0  0  0  0
  -21.6628  -26.7400   22.1216 H   0  0  0  0  0  0
  -19.6874  -25.6300   21.1211 H   0  0  0  0  0  0
  -19.6682  -27.3198   20.6714 H   0  0  0  0  0  0
  -17.4181  -26.6675   21.4035 H   0  0  0  0  0  0
  -18.0347  -26.0068   22.9018 H   0  0  0  0  0  0
  -19.7937  -30.7273   24.2265 H   0  0  0  0  0  0
  -17.5017  -31.6262   24.5170 H   0  0  0  0  0  0
  -15.5352  -30.2995   23.7643 H   0  0  0  0  0  0
  -15.8672  -28.0837   22.7033 H   0  0  0  0  0  0
  -24.5913  -30.7039   25.7843 H   0  0  0  0  0  0
  -24.8882  -32.2881   26.4928 H   0  0  0  0  0  0
  -25.8106  -30.8940   27.0249 H   0  0  0  0  0  0
  -26.2799  -29.6888   24.1083 H   0  0  0  0  0  0
  -27.4014  -29.7301   25.4516 H   0  0  0  0  0  0
  -27.8648  -30.4440   23.9224 H   0  0  0  0  0  0
  -27.2668  -33.3647   26.2071 H   0  0  0  0  0  0
  -28.3846  -32.6869   25.0314 H   0  0  0  0  0  0
  -28.0669  -31.8443   26.5400 H   0  0  0  0  0  0
  -28.2614  -38.0103   24.7534 H   0  0  0  0  0  0
  -28.1073  -36.2636   24.6286 H   0  0  0  0  0  0
  -27.2303  -37.1453   25.8872 H   0  0  0  0  0  0
  -20.9211  -29.8801   21.7001 H   0  0  0  0  0  0
  -26.0188  -38.2890   24.1427 H   0  0  0  0  0  0
  -33.5915  -21.7622   21.1580 H   0  0  0  0  0  0
  -33.4644  -24.0742   20.9475 H   0  0  0  0  0  0
  -31.8226  -24.6806   21.0315 H   0  0  0  0  0  0
  -32.7085  -24.6900   19.4915 H   0  0  0  0  0  0
  -32.6553  -18.6056   21.4695 H   0  0  0  0  0  0
  -34.0923  -19.5160   21.0588 H   0  0  0  0  0  0
  -33.3760  -18.4812   19.8443 H   0  0  0  0  0  0
  -28.0376  -19.2234   19.5315 H   0  0  0  0  0  0
  -28.9954  -19.3339   21.0042 H   0  0  0  0  0  0
  -27.9046  -17.9730   20.7568 H   0  0  0  0  0  0
  -28.6213  -17.5361   17.6786 H   0  0  0  0  0  0
  -28.2515  -16.3651   18.9108 H   0  0  0  0  0  0
  -29.7744  -16.2604   18.0362 H   0  0  0  0  0  0
  -29.4817  -23.3041   17.8280 H   0  0  0  0  0  0
  -30.7975  -24.3408   18.2514 H   0  0  0  0  0  0
  -31.6227  -18.2771   18.5051 H   0  0  0  0  0  0
  -30.2818  -19.0787   17.8409 H   0  0  0  0  0  0
  -29.6783  -24.6248   20.5723 H   0  0  0  0  0  0
  -28.2698  -23.8488   19.9042 H   0  0  0  0  0  0
  -30.5276  -17.4787   21.5671 H   0  0  0  0  0  0
  -31.5569  -16.9355   20.3039 H   0  0  0  0  0  0
  -27.9508  -25.6812   18.3018 H   0  0  0  0  0  0
  -29.5733  -26.2565   18.5261 H   0  0  0  0  0  0
  -29.0348  -15.4863   21.0311 H   0  0  0  0  0  0
  1 25  1  0  0  0
  1 30  2  0  0  0
  1 87  1  0  0  0
  2  3  1  0  0  0
  2 25  1  0  0  0
  2 88  1  0  0  0
  2 89  1  0  0  0
  3  4  1  0  0  0
  3 90  1  0  0  0
  3 91  1  0  0  0
  4  5  1  0  0  0
  4 92  1  0  0  0
  4 93  1  0  0  0
  5  6  1  0  0  0
  5 26  1  0  0  0
  5 94  1  0  0  0
  6 25  1  0  0  0
  6 95  1  0  0  0
  6 96  1  0  0  0
  7  8  2  0  0  0
  7 26  1  0  0  0
  7 29  1  0  0  0
  8  9  1  0  0  0
  8 22  1  0  0  0
  9 10  1  0  0  0
  9 27  2  0  0  0
 10 11  2  0  0  0
 10 15  1  0  0  0
 11 12  1  0  0  0
 11 97  1  0  0  0
 12 13  2  0  0  0
 12 98  1  0  0  0
 13 14  1  0  0  0
 13 31  1  0  0  0
 14 15  2  0  0  0
 14 99  1  0  0  0
 15100  1  0  0  0
 16 17  2  0  0  0
 16 21  1  0  0  0
 16 31  1  0  0  0
 17 18  1  0  0  0
 17101  1  0  0  0
 18 19  2  0  0  0
 18102  1  0  0  0
 19 20  1  0  0  0
 19 24  1  0  0  0
 20 21  2  0  0  0
 20103  1  0  0  0
 21 23  1  0  0  0
 22 28  1  0  0  0
 22 32  2  0  0  0
 26 27  1  0  0  0
 28104  1  0  0  0
 28105  1  0  0  0
 29106  1  0  0  0
 29107  1  0  0  0
 33 34  1  0  0  0
 33 66  1  0  0  0
 33 70  2  0  0  0
 34 36  1  0  0  0
 34 59  1  0  0  0
 34108  1  0  0  0
 35 44  2  0  0  0
 35 45  1  0  0  0
 35 68  1  0  0  0
 36 56  1  0  0  0
 36109  1  0  0  0
 37 39  1  0  0  0
 37 47  1  0  0  0
 37 66  1  0  0  0
 37110  1  0  0  0
 38 43  2  0  0  0
 38 46  1  0  0  0
 38 47  1  0  0  0
 39 64  1  0  0  0
 39 67  2  0  0  0
 40 52  1  0  0  0
 40 53  2  0  0  0
 40 58  1  0  0  0
 41111  1  0  0  0
 41112  1  0  0  0
 41113  1  0  0  0
 41 48  1  0  0  0
 42 43  1  0  0  0
 42 66  1  0  0  0
 42114  1  0  0  0
 42115  1  0  0  0
 43 44  1  0  0  0
 44116  1  0  0  0
 45 46  2  0  0  0
 45117  1  0  0  0
 46118  1  0  0  0
 47119  1  0  0  0
 47120  1  0  0  0
 48 56  1  0  0  0
 48 65  1  0  0  0
 48121  1  0  0  0
 49 50  1  0  0  0
 49 53  1  0  0  0
 49 64  1  0  0  0
 49122  1  0  0  0
 50 51  1  0  0  0
 50123  1  0  0  0
 50124  1  0  0  0
 51 52  1  0  0  0
 51125  1  0  0  0
 51126  1  0  0  0
 52127  1  0  0  0
 52128  1  0  0  0
 53 54  1  0  0  0
 54 55  2  0  0  0
 54129  1  0  0  0
 55 57  1  0  0  0
 55130  1  0  0  0
 56 69  2  0  0  0
 57 58  2  0  0  0
 57131  1  0  0  0
 58132  1  0  0  0
 59 60  1  0  0  0
 59 61  1  0  0  0
 59 62  1  0  0  0
 60133  1  0  0  0
 60134  1  0  0  0
 60135  1  0  0  0
 61136  1  0  0  0
 61137  1  0  0  0
 61138  1  0  0  0
 62139  1  0  0  0
 62140  1  0  0  0
 62141  1  0  0  0
 63 65  1  0  0  0
 63142  1  0  0  0
 63143  1  0  0  0
 63144  1  0  0  0
 64145  1  0  0  0
 65146  1  0  0  0
 68 84  1  0  0  0
 71 72  2  0  0  0
 71 73  1  0  0  0
 71147  1  0  0  0
 72 74  1  0  0  0
 72 76  1  0  0  0
 73 75  2  0  0  0
 73 77  1  0  0  0
 74 80  1  0  0  0
 74 86  2  0  0  0
 75 81  1  0  0  0
 75 86  1  0  0  0
 76148  1  0  0  0
 76149  1  0  0  0
 76150  1  0  0  0
 77151  1  0  0  0
 77152  1  0  0  0
 77153  1  0  0  0
 78154  1  0  0  0
 78155  1  0  0  0
 78156  1  0  0  0
 78 85  1  0  0  0
 79 85  1  0  0  0
 79157  1  0  0  0
 79158  1  0  0  0
 79159  1  0  0  0
 80 82  1  0  0  0
 80160  1  0  0  0
 80161  1  0  0  0
 81 85  1  0  0  0
 81162  1  0  0  0
 81163  1  0  0  0
 82 84  1  0  0  0
 82164  1  0  0  0
 82165  1  0  0  0
 83 85  1  0  0  0
 83 87  1  0  0  0
 83166  1  0  0  0
 83167  1  0  0  0
 84168  1  0  0  0
 84169  1  0  0  0
 87170  1  0  0  0
M  ISO  4   1 100  68 101  84 101  87 100
M  END
> <chiral flag>
0

> <version>
0

> <s_m_source_file>
/data/baiqing/PycharmProjects/Reinvent-master-3.2/result/LINK_invent/BTK/process_docking_weight1_custom_sum_contain_oxygen_bond_distance_aromatic_linkinvent_7_9_3/rearranged_h_0079.sdf

> <i_m_source_file_index>
98

> <r_mmod_Potential_Energy-OPLS-2005>
-217.947784423828

> <r_mmod_Stretch_Energy-OPLS-2005>
41.1436386108398

> <r_mmod_Bend_Energy-OPLS-2005>
118.429664611816

> <r_mmod_Torsional_Energy-OPLS-2005>
222.2958984375

> <r_mmod_Improper_Torsional_Energy-OPLS-2005>
6.91123819351196

> <r_mmod_Van_der_Waal_Energy-OPLS-2005>
163.095901489258

> <r_mmod_Electrostatic_Energy-OPLS-2005>
-572.928833007812

> <r_mmod_Solvation_Energy-OPLS-2005>
-214.927032470703

> <b_mmod_Minimization_Converged-OPLS-2005>
0

> <r_mmod_RMS_Derivative-OPLS-2005>
3.87604451179504

$$$$
