0
                    3D
 Structure written by MMmdl.
154162  0  0  1  0            999 V2000
  -30.7140  -14.6236   20.5046 C   0  0  0  0  0  0
  -30.4255  -12.3945   19.4536 C   0  0  0  0  0  0
  -29.4961  -12.4724   18.2244 C   0  0  0  0  0  0
  -28.0306  -12.3024   18.6626 C   0  0  0  0  0  0
  -27.6464  -13.2239   19.8509 C   0  0  2  0  0  0
  -28.6951  -13.1588   20.9847 C   0  0  0  0  0  0
  -25.2522  -13.8188   20.5728 C   0  0  0  0  0  0
  -24.1796  -13.0441   20.9222 C   0  0  0  0  0  0
  -24.6373  -11.6920   20.8769 C   0  0  0  0  0  0
  -23.9053  -10.4293   21.0424 C   0  0  0  0  0  0
  -24.3610   -9.4210   21.9194 C   0  0  0  0  0  0
  -23.6287   -8.2250   22.0755 C   0  0  0  0  0  0
  -22.4269   -8.0282   21.3556 C   0  0  0  0  0  0
  -21.9903   -9.0268   20.4672 C   0  0  0  0  0  0
  -22.7225  -10.2148   20.3083 C   0  0  0  0  0  0
  -21.6849   -6.0739   22.5281 C   0  0  0  0  0  0
  -21.4020   -6.5642   23.8219 C   0  0  0  0  0  0
  -21.3657   -5.6798   24.9181 C   0  0  0  0  0  0
  -21.6039   -4.3058   24.7232 C   0  0  0  0  0  0
  -21.8807   -3.8143   23.4350 C   0  0  0  0  0  0
  -21.9198   -4.6965   22.3410 C   0  0  0  0  0  0
  -22.7824  -13.5244   21.1878 C   0  0  0  0  0  0
  -22.1658   -4.2142   21.0987 F   0  0  0  0  0  0
  -21.5630   -3.4542   25.7748 F   0  0  0  0  0  0
  -30.0108  -13.4541   20.3971 N   0  0  0  0  0  0
  -26.2955  -12.9388   20.3324 N   0  0  0  0  0  0
  -25.9292  -11.6545   20.5784 N   0  0  0  0  0  0
  -22.0450  -12.8272   22.0452 N   0  0  0  0  0  0
  -25.4209  -15.1917   20.4175 N   0  0  0  0  0  0
  -31.8925  -14.6814   20.1467 O   0  0  0  0  0  0
  -21.6629   -6.8878   21.4247 O   0  0  0  0  0  0
  -22.3536  -14.5572   20.6744 O   0  0  0  0  0  0
  -24.6233  -31.8652   23.2103 C   0  0  0  0  0  0
  -25.9102  -32.4817   23.8400 C   0  0  1  0  0  0
  -27.2096  -27.3366   20.1152 C   0  0  0  0  0  0
  -25.5934  -33.8616   24.2326 N   0  0  0  0  0  0
  -23.4123  -30.4950   21.5513 C   0  0  2  0  0  0
  -24.8583  -28.9627   20.1072 C   0  0  0  0  0  0
  -22.7451  -29.4649   22.4952 C   0  0  0  0  0  0
  -18.0280  -28.1353   22.8519 C   0  0  0  0  0  0
  -24.1491  -36.7303   23.2634 C   0  0  0  0  0  0
  -25.9562  -30.8022   21.3807 C   0  0  0  0  0  0
  -26.0279  -29.4333   20.7181 C   0  0  0  0  0  0
  -27.2044  -28.6289   20.7188 C   0  0  0  0  0  0
  -26.0188  -26.9309   19.4608 C   0  0  0  0  0  0
  -24.8562  -27.7160   19.4714 C   0  0  0  0  0  0
  -23.6266  -29.8399   20.1617 C   0  0  0  0  0  0
  -25.4106  -36.3101   24.0335 C   0  0  1  0  0  0
  -20.5884  -28.3665   23.1316 C   0  0  2  0  0  0
  -20.6766  -26.9386   22.5417 C   0  0  0  0  0  0
  -19.5732  -26.6371   21.5225 C   0  0  0  0  0  0
  -18.1920  -26.7903   22.1641 C   0  0  0  0  0  0
  -19.1538  -28.8815   23.2927 C   0  0  0  0  0  0
  -18.9458  -30.1427   23.8933 C   0  0  0  0  0  0
  -17.6458  -30.6582   24.0540 C   0  0  0  0  0  0
  -25.9045  -34.9469   23.5132 C   0  0  0  0  0  0
  -16.5349  -29.9073   23.6303 C   0  0  0  0  0  0
  -16.7265  -28.6466   23.0371 C   0  0  0  0  0  0
  -26.4480  -31.6626   25.0756 C   0  0  0  0  0  0
  -25.3704  -31.3769   26.1483 C   0  0  0  0  0  0
  -27.0308  -30.3045   24.6195 C   0  0  0  0  0  0
  -27.6056  -32.4348   25.7483 C   0  0  0  0  0  0
  -27.5572  -37.1809   24.8455 C   0  0  0  0  0  0
  -21.4171  -29.3043   22.3715 N   0  0  0  0  0  0
  -26.4287  -37.3796   23.9416 N   0  0  0  0  0  0
  -24.6823  -31.0683   22.1049 N   0  0  0  0  0  0
  -23.4191  -28.8147   23.2991 O   0  0  0  0  0  0
  -28.3124  -26.4707   20.1913 O   0  0  0  0  0  0
  -26.5603  -34.8922   22.4686 O   0  0  0  0  0  0
  -23.5417  -32.1450   23.7471 O   0  0  0  0  0  0
  -28.7323  -18.8006   20.8699 C   0  0  0  0  0  0
  -30.1087  -18.4741   20.7937 C   0  0  0  0  0  0
  -30.5364  -20.7493   20.3100 C   0  0  0  0  0  0
  -29.1517  -21.0786   20.3929 C   0  0  0  0  0  0
  -31.5990  -21.7777   19.9636 C   0  0  0  0  0  0
  -28.4914  -22.4503   20.0036 C   0  0  0  0  0  0
  -30.7284  -17.0805   21.1572 C   0  0  0  0  0  0
  -29.0166  -23.8851   20.4390 C   0  0  0  0  0  0
  -28.0418  -25.0379   19.9619 C   0  0  0  0  0  0
  -28.2668  -20.0737   20.6720 N   0  0  0  0  0  0
  -30.9972  -19.4749   20.5163 N   0  0  0  0  0  0
  -30.0567  -15.7669   20.8614 N   0  0  0  0  0  0
  -31.4661  -12.4865   19.1368 H   0  0  0  0  0  0
  -30.3468  -11.4192   19.9353 H   0  0  0  0  0  0
  -29.7620  -11.6951   17.5043 H   0  0  0  0  0  0
  -29.6250  -13.4261   17.7116 H   0  0  0  0  0  0
  -27.9067  -11.2591   18.9602 H   0  0  0  0  0  0
  -27.3538  -12.4576   17.8215 H   0  0  0  0  0  0
  -27.6438  -14.2417   19.4585 H   0  0  0  0  0  0
  -28.7021  -12.1789   21.4614 H   0  0  0  0  0  0
  -28.4447  -13.8763   21.7687 H   0  0  0  0  0  0
  -25.2746   -9.5685   22.4783 H   0  0  0  0  0  0
  -23.9988   -7.4642   22.7463 H   0  0  0  0  0  0
  -21.0832   -8.8812   19.8991 H   0  0  0  0  0  0
  -22.3673  -10.9712   19.6222 H   0  0  0  0  0  0
  -21.2015   -7.6155   23.9722 H   0  0  0  0  0  0
  -21.1488   -6.0527   25.9085 H   0  0  0  0  0  0
  -22.0587   -2.7601   23.2858 H   0  0  0  0  0  0
  -22.4039  -11.9952   22.4887 H   0  0  0  0  0  0
  -21.1086  -13.1351   22.2659 H   0  0  0  0  0  0
  -24.6514  -15.8416   20.5311 H   0  0  0  0  0  0
  -26.2672  -15.6346   20.0823 H   0  0  0  0  0  0
  -26.7142  -32.5475   23.1124 H   0  0  0  0  0  0
  -25.0029  -33.9770   25.0433 H   0  0  0  0  0  0
  -22.7029  -31.3142   21.4123 H   0  0  0  0  0  0
  -23.3760  -35.9630   23.3304 H   0  0  0  0  0  0
  -24.3575  -36.8919   22.2040 H   0  0  0  0  0  0
  -23.7243  -37.6508   23.6661 H   0  0  0  0  0  0
  -26.0835  -31.5696   20.6149 H   0  0  0  0  0  0
  -26.8389  -30.8525   22.0072 H   0  0  0  0  0  0
  -28.0938  -28.9774   21.2259 H   0  0  0  0  0  0
  -25.9442  -25.9883   18.9425 H   0  0  0  0  0  0
  -23.9597  -27.3541   18.9875 H   0  0  0  0  0  0
  -23.7398  -30.6212   19.4089 H   0  0  0  0  0  0
  -22.7472  -29.2699   19.8610 H   0  0  0  0  0  0
  -25.1291  -36.1928   25.0829 H   0  0  0  0  0  0
  -20.9997  -28.3224   24.1432 H   0  0  0  0  0  0
  -20.5670  -26.2258   23.3601 H   0  0  0  0  0  0
  -21.6629  -26.7406   22.1199 H   0  0  0  0  0  0
  -19.6887  -25.6286   21.1243 H   0  0  0  0  0  0
  -19.6674  -27.3179   20.6755 H   0  0  0  0  0  0
  -17.4176  -26.6688   21.4039 H   0  0  0  0  0  0
  -18.0301  -26.0029   22.9020 H   0  0  0  0  0  0
  -19.7932  -30.7245   24.2331 H   0  0  0  0  0  0
  -17.4999  -31.6268   24.5128 H   0  0  0  0  0  0
  -15.5346  -30.2980   23.7620 H   0  0  0  0  0  0
  -15.8661  -28.0779   22.7120 H   0  0  0  0  0  0
  -24.5841  -30.7169   25.7805 H   0  0  0  0  0  0
  -24.8928  -32.2947   26.4933 H   0  0  0  0  0  0
  -25.8011  -30.8895   27.0242 H   0  0  0  0  0  0
  -26.2887  -29.6800   24.1201 H   0  0  0  0  0  0
  -27.3994  -29.7292   25.4706 H   0  0  0  0  0  0
  -27.8769  -30.4336   23.9434 H   0  0  0  0  0  0
  -27.2679  -33.3627   26.2103 H   0  0  0  0  0  0
  -28.3815  -32.6951   25.0273 H   0  0  0  0  0  0
  -28.0781  -31.8442   26.5342 H   0  0  0  0  0  0
  -28.2605  -38.0092   24.7500 H   0  0  0  0  0  0
  -28.1069  -36.2635   24.6290 H   0  0  0  0  0  0
  -27.2306  -37.1445   25.8863 H   0  0  0  0  0  0
  -20.9310  -29.8770   21.6956 H   0  0  0  0  0  0
  -26.0171  -38.2878   24.1437 H   0  0  0  0  0  0
  -28.0003  -18.0445   21.1163 H   0  0  0  0  0  0
  -31.4125  -22.2131   18.9824 H   0  0  0  0  0  0
  -32.5950  -21.3329   19.9374 H   0  0  0  0  0  0
  -31.6179  -22.5755   20.7078 H   0  0  0  0  0  0
  -27.4656  -22.3906   20.3747 H   0  0  0  0  0  0
  -28.3939  -22.4443   18.9190 H   0  0  0  0  0  0
  -30.8945  -17.0986   22.2353 H   0  0  0  0  0  0
  -31.7351  -17.0744   20.7366 H   0  0  0  0  0  0
  -30.0066  -24.0733   20.0279 H   0  0  0  0  0  0
  -29.1104  -23.9216   21.5246 H   0  0  0  0  0  0
  -27.0854  -24.7932   20.4261 H   0  0  0  0  0  0
  -27.9052  -24.9195   18.8862 H   0  0  0  0  0  0
  -29.0665  -15.7019   21.0415 H   0  0  0  0  0  0
  1 25  1  0  0  0
  1 30  2  0  0  0
  1 82  1  0  0  0
  2  3  1  0  0  0
  2 25  1  0  0  0
  2 83  1  0  0  0
  2 84  1  0  0  0
  3  4  1  0  0  0
  3 85  1  0  0  0
  3 86  1  0  0  0
  4  5  1  0  0  0
  4 87  1  0  0  0
  4 88  1  0  0  0
  5  6  1  0  0  0
  5 26  1  0  0  0
  5 89  1  0  0  0
  6 25  1  0  0  0
  6 90  1  0  0  0
  6 91  1  0  0  0
  7  8  2  0  0  0
  7 26  1  0  0  0
  7 29  1  0  0  0
  8  9  1  0  0  0
  8 22  1  0  0  0
  9 10  1  0  0  0
  9 27  2  0  0  0
 10 11  2  0  0  0
 10 15  1  0  0  0
 11 12  1  0  0  0
 11 92  1  0  0  0
 12 13  2  0  0  0
 12 93  1  0  0  0
 13 14  1  0  0  0
 13 31  1  0  0  0
 14 15  2  0  0  0
 14 94  1  0  0  0
 15 95  1  0  0  0
 16 17  2  0  0  0
 16 21  1  0  0  0
 16 31  1  0  0  0
 17 18  1  0  0  0
 17 96  1  0  0  0
 18 19  2  0  0  0
 18 97  1  0  0  0
 19 20  1  0  0  0
 19 24  1  0  0  0
 20 21  2  0  0  0
 20 98  1  0  0  0
 21 23  1  0  0  0
 22 28  1  0  0  0
 22 32  2  0  0  0
 26 27  1  0  0  0
 28 99  1  0  0  0
 28100  1  0  0  0
 29101  1  0  0  0
 29102  1  0  0  0
 33 34  1  0  0  0
 33 66  1  0  0  0
 33 70  2  0  0  0
 34 36  1  0  0  0
 34 59  1  0  0  0
 34103  1  0  0  0
 35 44  2  0  0  0
 35 45  1  0  0  0
 35 68  1  0  0  0
 36 56  1  0  0  0
 36104  1  0  0  0
 37 39  1  0  0  0
 37 47  1  0  0  0
 37 66  1  0  0  0
 37105  1  0  0  0
 38 43  2  0  0  0
 38 46  1  0  0  0
 38 47  1  0  0  0
 39 64  1  0  0  0
 39 67  2  0  0  0
 40 52  1  0  0  0
 40 53  2  0  0  0
 40 58  1  0  0  0
 41106  1  0  0  0
 41107  1  0  0  0
 41108  1  0  0  0
 41 48  1  0  0  0
 42 43  1  0  0  0
 42 66  1  0  0  0
 42109  1  0  0  0
 42110  1  0  0  0
 43 44  1  0  0  0
 44111  1  0  0  0
 45 46  2  0  0  0
 45112  1  0  0  0
 46113  1  0  0  0
 47114  1  0  0  0
 47115  1  0  0  0
 48 56  1  0  0  0
 48 65  1  0  0  0
 48116  1  0  0  0
 49 50  1  0  0  0
 49 53  1  0  0  0
 49 64  1  0  0  0
 49117  1  0  0  0
 50 51  1  0  0  0
 50118  1  0  0  0
 50119  1  0  0  0
 51 52  1  0  0  0
 51120  1  0  0  0
 51121  1  0  0  0
 52122  1  0  0  0
 52123  1  0  0  0
 53 54  1  0  0  0
 54 55  2  0  0  0
 54124  1  0  0  0
 55 57  1  0  0  0
 55125  1  0  0  0
 56 69  2  0  0  0
 57 58  2  0  0  0
 57126  1  0  0  0
 58127  1  0  0  0
 59 60  1  0  0  0
 59 61  1  0  0  0
 59 62  1  0  0  0
 60128  1  0  0  0
 60129  1  0  0  0
 60130  1  0  0  0
 61131  1  0  0  0
 61132  1  0  0  0
 61133  1  0  0  0
 62134  1  0  0  0
 62135  1  0  0  0
 62136  1  0  0  0
 63 65  1  0  0  0
 63137  1  0  0  0
 63138  1  0  0  0
 63139  1  0  0  0
 64140  1  0  0  0
 65141  1  0  0  0
 68 79  1  0  0  0
 71 72  2  0  0  0
 71 80  1  0  0  0
 71142  1  0  0  0
 72 77  1  0  0  0
 72 81  1  0  0  0
 73 74  1  0  0  0
 73 75  1  0  0  0
 73 81  2  0  0  0
 74 76  1  0  0  0
 74 80  2  0  0  0
 75143  1  0  0  0
 75144  1  0  0  0
 75145  1  0  0  0
 76 78  1  0  0  0
 76146  1  0  0  0
 76147  1  0  0  0
 77 82  1  0  0  0
 77148  1  0  0  0
 77149  1  0  0  0
 78 79  1  0  0  0
 78150  1  0  0  0
 78151  1  0  0  0
 79152  1  0  0  0
 79153  1  0  0  0
 82154  1  0  0  0
M  ISO  4   1 100  68 101  79 101  82 100
M  END
> <chiral flag>
0

> <version>
0

> <s_m_source_file>
/data/baiqing/PycharmProjects/Reinvent-master-3.2/result/LINK_invent/BTK/process_docking_weight1_custom_sum_contain_oxygen_bond_distance_aromatic_linkinvent_7_9_3/rearranged_h_0049.sdf

> <i_m_source_file_index>
1

> <r_mmod_Potential_Energy-OPLS-2005>
31.9970054626465

> <r_mmod_Stretch_Energy-OPLS-2005>
74.6576843261719

> <r_mmod_Bend_Energy-OPLS-2005>
153.916458129883

> <r_mmod_Torsional_Energy-OPLS-2005>
197.055068969727

> <r_mmod_Improper_Torsional_Energy-OPLS-2005>
4.45380640029907

> <r_mmod_Van_der_Waal_Energy-OPLS-2005>
157.606689453125

> <r_mmod_Electrostatic_Energy-OPLS-2005>
-379.236053466797

> <r_mmod_Solvation_Energy-OPLS-2005>
-228.44792175293

> <b_mmod_Minimization_Converged-OPLS-2005>
0

> <r_mmod_RMS_Derivative-OPLS-2005>
3.63155817985535

$$$$
1
                    3D
 Structure written by MMmdl.
163171  0  0  1  0            999 V2000
  -30.6937  -14.4551   20.6289 C   0  0  0  0  0  0
  -30.4074  -12.3103   19.4188 C   0  0  0  0  0  0
  -29.4931  -12.5397   18.1983 C   0  0  0  0  0  0
  -28.0100  -12.3974   18.5968 C   0  0  0  0  0  0
  -27.6550  -13.2061   19.8693 C   0  0  2  0  0  0
  -28.6879  -12.9804   20.9947 C   0  0  0  0  0  0
  -25.2548  -13.8148   20.5615 C   0  0  0  0  0  0
  -24.1815  -13.0428   20.9215 C   0  0  0  0  0  0
  -24.6374  -11.6910   20.8734 C   0  0  0  0  0  0
  -23.9036  -10.4291   21.0414 C   0  0  0  0  0  0
  -24.3590   -9.4205   21.9201 C   0  0  0  0  0  0
  -23.6261   -8.2237   22.0772 C   0  0  0  0  0  0
  -22.4255   -8.0271   21.3540 C   0  0  0  0  0  0
  -21.9869   -9.0251   20.4651 C   0  0  0  0  0  0
  -22.7208  -10.2131   20.3062 C   0  0  0  0  0  0
  -21.6857   -6.0717   22.5274 C   0  0  0  0  0  0
  -21.4021   -6.5635   23.8200 C   0  0  0  0  0  0
  -21.3659   -5.6800   24.9166 C   0  0  0  0  0  0
  -21.6030   -4.3061   24.7225 C   0  0  0  0  0  0
  -21.8826   -3.8136   23.4360 C   0  0  0  0  0  0
  -21.9195   -4.6943   22.3408 C   0  0  0  0  0  0
  -22.7855  -13.5252   21.1893 C   0  0  0  0  0  0
  -22.1684   -4.2127   21.0987 F   0  0  0  0  0  0
  -21.5601   -3.4560   25.7740 F   0  0  0  0  0  0
  -30.0227  -13.2821   20.4591 N   0  0  0  0  0  0
  -26.2961  -12.9313   20.3274 N   0  0  0  0  0  0
  -25.9279  -11.6492   20.5704 N   0  0  0  0  0  0
  -22.0459  -12.8251   22.0441 N   0  0  0  0  0  0
  -25.4255  -15.1827   20.3858 N   0  0  0  0  0  0
  -31.7779  -14.6675   20.0732 O   0  0  0  0  0  0
  -21.6640   -6.8861   21.4234 O   0  0  0  0  0  0
  -22.3569  -14.5571   20.6747 O   0  0  0  0  0  0
  -24.6131  -31.8725   23.2113 C   0  0  0  0  0  0
  -25.9042  -32.4849   23.8419 C   0  0  1  0  0  0
  -27.2635  -27.4969   20.0833 C   0  0  0  0  0  0
  -25.5944  -33.8627   24.2390 N   0  0  0  0  0  0
  -23.4007  -30.4907   21.5476 C   0  0  2  0  0  0
  -24.8578  -28.9516   20.1207 C   0  0  0  0  0  0
  -22.7408  -29.4741   22.5030 C   0  0  0  0  0  0
  -18.0345  -28.1324   22.8371 C   0  0  0  0  0  0
  -24.1487  -36.7287   23.2625 C   0  0  0  0  0  0
  -25.9197  -30.8562   21.3511 C   0  0  0  0  0  0
  -26.0112  -29.4898   20.7075 C   0  0  0  0  0  0
  -27.2199  -28.7667   20.6924 C   0  0  0  0  0  0
  -26.1030  -26.9546   19.4999 C   0  0  0  0  0  0
  -24.8943  -27.6790   19.5177 C   0  0  0  0  0  0
  -23.6107  -29.8013   20.1706 C   0  0  0  0  0  0
  -25.4093  -36.3096   24.0352 C   0  0  1  0  0  0
  -20.5900  -28.3680   23.1292 C   0  0  2  0  0  0
  -20.6941  -26.9513   22.5273 C   0  0  0  0  0  0
  -19.5967  -26.6468   21.5053 C   0  0  0  0  0  0
  -18.2062  -26.7950   22.1322 C   0  0  0  0  0  0
  -19.1543  -28.8804   23.2864 C   0  0  0  0  0  0
  -18.9426  -30.1380   23.8900 C   0  0  0  0  0  0
  -17.6401  -30.6477   24.0561 C   0  0  0  0  0  0
  -25.9022  -34.9473   23.5149 C   0  0  0  0  0  0
  -16.5340  -29.8951   23.6236 C   0  0  0  0  0  0
  -16.7307  -28.6390   23.0224 C   0  0  0  0  0  0
  -26.4488  -31.6608   25.0719 C   0  0  0  0  0  0
  -25.3790  -31.3721   26.1505 C   0  0  0  0  0  0
  -27.0327  -30.3073   24.6036 C   0  0  0  0  0  0
  -27.6095  -32.4308   25.7477 C   0  0  0  0  0  0
  -27.5569  -37.1784   24.8466 C   0  0  0  0  0  0
  -21.4134  -29.3133   22.3787 N   0  0  0  0  0  0
  -26.4280  -37.3770   23.9413 N   0  0  0  0  0  0
  -24.6623  -31.0859   22.0959 N   0  0  0  0  0  0
  -23.4220  -28.8269   23.3036 O   0  0  0  0  0  0
  -28.4154  -26.7566   20.1013 O   0  0  0  0  0  0
  -26.5557  -34.8925   22.4692 O   0  0  0  0  0  0
  -23.5345  -32.1462   23.7539 O   0  0  0  0  0  0
  -26.3282  -20.6788   20.4869 C   0  0  0  0  0  0
  -27.4677  -20.0246   20.8933 C   0  0  0  0  0  0
  -27.6696  -22.1294   21.4184 C   0  0  0  0  0  0
  -25.4157  -23.0213   20.7245 C   0  0  0  0  0  0
  -30.1569  -18.6497   20.3862 C   0  0  0  0  0  0
  -27.6983  -18.5266   20.7508 C   0  0  0  0  0  0
  -28.1919  -23.4509   21.9125 C   0  0  0  0  0  0
  -30.1032  -15.6047   21.4878 C   0  0  0  0  0  0
  -28.6481  -24.4287   20.8054 C   0  0  0  0  0  0
  -29.0503  -16.4759   20.7379 C   0  0  0  0  0  0
  -28.4815  -25.8996   21.2392 C   0  0  0  0  0  0
  -28.3275  -20.9657   21.4750 N   0  0  0  0  0  0
  -26.4422  -22.0043   20.8774 N   0  0  0  0  0  0
  -29.0395  -17.9428   21.0598 N   0  3  1  0  0  0
  -31.4579  -12.3937   19.1336 H   0  0  0  0  0  0
  -30.2807  -11.2913   19.7878 H   0  0  0  0  0  0
  -29.7310  -11.8339   17.4021 H   0  0  0  0  0  0
  -29.6735  -13.5342   17.7850 H   0  0  0  0  0  0
  -27.8005  -11.3422   18.7554 H   0  0  0  0  0  0
  -27.3740  -12.7103   17.7688 H   0  0  0  0  0  0
  -27.6970  -14.2527   19.5780 H   0  0  0  0  0  0
  -28.6544  -11.9440   21.3347 H   0  0  0  0  0  0
  -28.4295  -13.5790   21.8665 H   0  0  0  0  0  0
  -25.2731   -9.5704   22.4791 H   0  0  0  0  0  0
  -23.9970   -7.4638   22.7515 H   0  0  0  0  0  0
  -21.0787   -8.8765   19.8974 H   0  0  0  0  0  0
  -22.3653  -10.9660   19.6173 H   0  0  0  0  0  0
  -21.2049   -7.6152   23.9693 H   0  0  0  0  0  0
  -21.1462   -6.0536   25.9062 H   0  0  0  0  0  0
  -22.0598   -2.7597   23.2868 H   0  0  0  0  0  0
  -22.4020  -11.9901   22.4858 H   0  0  0  0  0  0
  -21.1076  -13.1293   22.2635 H   0  0  0  0  0  0
  -24.5993  -15.7714   20.3606 H   0  0  0  0  0  0
  -26.1525  -15.5136   19.7674 H   0  0  0  0  0  0
  -26.7121  -32.5602   23.1209 H   0  0  0  0  0  0
  -25.0229  -33.9766   25.0628 H   0  0  0  0  0  0
  -22.6879  -31.3035   21.3928 H   0  0  0  0  0  0
  -23.3749  -35.9624   23.3293 H   0  0  0  0  0  0
  -24.3580  -36.8853   22.2034 H   0  0  0  0  0  0
  -23.7253  -37.6499   23.6612 H   0  0  0  0  0  0
  -26.0179  -31.6158   20.5741 H   0  0  0  0  0  0
  -26.8113  -30.9300   21.9609 H   0  0  0  0  0  0
  -28.1101  -29.1764   21.1525 H   0  0  0  0  0  0
  -26.1493  -25.9736   19.0475 H   0  0  0  0  0  0
  -24.0064  -27.2483   19.0757 H   0  0  0  0  0  0
  -23.6984  -30.5595   19.3933 H   0  0  0  0  0  0
  -22.7457  -29.1942   19.8927 H   0  0  0  0  0  0
  -25.1250  -36.1960   25.0844 H   0  0  0  0  0  0
  -21.0022  -28.3176   24.1401 H   0  0  0  0  0  0
  -20.6152  -26.2254   23.3354 H   0  0  0  0  0  0
  -21.6796  -26.7862   22.0891 H   0  0  0  0  0  0
  -19.7239  -25.6404   21.1037 H   0  0  0  0  0  0
  -19.6984  -27.3320   20.6622 H   0  0  0  0  0  0
  -17.4497  -26.6954   21.3535 H   0  0  0  0  0  0
  -18.0300  -25.9921   22.8485 H   0  0  0  0  0  0
  -19.7881  -30.7193   24.2352 H   0  0  0  0  0  0
  -17.4901  -31.6109   24.5240 H   0  0  0  0  0  0
  -15.5309  -30.2770   23.7537 H   0  0  0  0  0  0
  -15.8749  -28.0686   22.6871 H   0  0  0  0  0  0
  -24.5980  -30.7032   25.7869 H   0  0  0  0  0  0
  -24.8993  -32.2893   26.4936 H   0  0  0  0  0  0
  -25.8197  -30.8943   27.0278 H   0  0  0  0  0  0
  -26.2882  -29.6818   24.1109 H   0  0  0  0  0  0
  -27.4161  -29.7297   25.4452 H   0  0  0  0  0  0
  -27.8668  -30.4391   23.9149 H   0  0  0  0  0  0
  -27.2751  -33.3594   26.2116 H   0  0  0  0  0  0
  -28.3907  -32.6882   25.0315 H   0  0  0  0  0  0
  -28.0785  -31.8407   26.5355 H   0  0  0  0  0  0
  -28.2604  -38.0056   24.7491 H   0  0  0  0  0  0
  -28.1059  -36.2597   24.6331 H   0  0  0  0  0  0
  -27.2299  -37.1469   25.8870 H   0  0  0  0  0  0
  -20.9270  -29.8908   21.7078 H   0  0  0  0  0  0
  -26.0180  -38.2854   24.1401 H   0  0  0  0  0  0
  -25.4470  -20.2984   19.9844 H   0  0  0  0  0  0
  -24.5571  -22.6195   20.1836 H   0  0  0  0  0  0
  -25.8030  -23.8724   20.1695 H   0  0  0  0  0  0
  -25.0870  -23.3631   21.7075 H   0  0  0  0  0  0
  -30.3129  -19.6519   20.7797 H   0  0  0  0  0  0
  -29.9729  -18.7373   19.3160 H   0  0  0  0  0  0
  -31.1009  -18.1260   20.5201 H   0  0  0  0  0  0
  -27.4388  -18.2375   19.7322 H   0  0  0  0  0  0
  -26.9667  -18.0216   21.3802 H   0  0  0  0  0  0
  -29.0150  -23.2758   22.6061 H   0  0  0  0  0  0
  -27.3988  -23.9074   22.5021 H   0  0  0  0  0  0
  -29.7020  -15.2272   22.4282 H   0  0  0  0  0  0
  -30.9472  -16.2277   21.7799 H   0  0  0  0  0  0
  -28.0467  -24.2667   19.9118 H   0  0  0  0  0  0
  -29.6784  -24.2264   20.5087 H   0  0  0  0  0  0
  -28.0706  -16.0611   20.9768 H   0  0  0  0  0  0
  -29.1617  -16.3664   19.6564 H   0  0  0  0  0  0
  -29.3079  -26.2148   21.8762 H   0  0  0  0  0  0
  -27.5841  -26.0069   21.8555 H   0  0  0  0  0  0
  -29.1575  -18.0595   22.0552 H   0  0  0  0  0  0
  1 25  1  0  0  0
  1 30  2  0  0  0
  1 78  1  0  0  0
  2  3  1  0  0  0
  2 25  1  0  0  0
  2 85  1  0  0  0
  2 86  1  0  0  0
  3  4  1  0  0  0
  3 87  1  0  0  0
  3 88  1  0  0  0
  4  5  1  0  0  0
  4 89  1  0  0  0
  4 90  1  0  0  0
  5  6  1  0  0  0
  5 26  1  0  0  0
  5 91  1  0  0  0
  6 25  1  0  0  0
  6 92  1  0  0  0
  6 93  1  0  0  0
  7  8  2  0  0  0
  7 26  1  0  0  0
  7 29  1  0  0  0
  8  9  1  0  0  0
  8 22  1  0  0  0
  9 10  1  0  0  0
  9 27  2  0  0  0
 10 11  2  0  0  0
 10 15  1  0  0  0
 11 12  1  0  0  0
 11 94  1  0  0  0
 12 13  2  0  0  0
 12 95  1  0  0  0
 13 14  1  0  0  0
 13 31  1  0  0  0
 14 15  2  0  0  0
 14 96  1  0  0  0
 15 97  1  0  0  0
 16 17  2  0  0  0
 16 21  1  0  0  0
 16 31  1  0  0  0
 17 18  1  0  0  0
 17 98  1  0  0  0
 18 19  2  0  0  0
 18 99  1  0  0  0
 19 20  1  0  0  0
 19 24  1  0  0  0
 20 21  2  0  0  0
 20100  1  0  0  0
 21 23  1  0  0  0
 22 28  1  0  0  0
 22 32  2  0  0  0
 26 27  1  0  0  0
 28101  1  0  0  0
 28102  1  0  0  0
 29103  1  0  0  0
 29104  1  0  0  0
 33 34  1  0  0  0
 33 66  1  0  0  0
 33 70  2  0  0  0
 34 36  1  0  0  0
 34 59  1  0  0  0
 34105  1  0  0  0
 35 44  2  0  0  0
 35 45  1  0  0  0
 35 68  1  0  0  0
 36 56  1  0  0  0
 36106  1  0  0  0
 37 39  1  0  0  0
 37 47  1  0  0  0
 37 66  1  0  0  0
 37107  1  0  0  0
 38 43  2  0  0  0
 38 46  1  0  0  0
 38 47  1  0  0  0
 39 64  1  0  0  0
 39 67  2  0  0  0
 40 52  1  0  0  0
 40 53  2  0  0  0
 40 58  1  0  0  0
 41108  1  0  0  0
 41109  1  0  0  0
 41110  1  0  0  0
 41 48  1  0  0  0
 42 43  1  0  0  0
 42 66  1  0  0  0
 42111  1  0  0  0
 42112  1  0  0  0
 43 44  1  0  0  0
 44113  1  0  0  0
 45 46  2  0  0  0
 45114  1  0  0  0
 46115  1  0  0  0
 47116  1  0  0  0
 47117  1  0  0  0
 48 56  1  0  0  0
 48 65  1  0  0  0
 48118  1  0  0  0
 49 50  1  0  0  0
 49 53  1  0  0  0
 49 64  1  0  0  0
 49119  1  0  0  0
 50 51  1  0  0  0
 50120  1  0  0  0
 50121  1  0  0  0
 51 52  1  0  0  0
 51122  1  0  0  0
 51123  1  0  0  0
 52124  1  0  0  0
 52125  1  0  0  0
 53 54  1  0  0  0
 54 55  2  0  0  0
 54126  1  0  0  0
 55 57  1  0  0  0
 55127  1  0  0  0
 56 69  2  0  0  0
 57 58  2  0  0  0
 57128  1  0  0  0
 58129  1  0  0  0
 59 60  1  0  0  0
 59 61  1  0  0  0
 59 62  1  0  0  0
 60130  1  0  0  0
 60131  1  0  0  0
 60132  1  0  0  0
 61133  1  0  0  0
 61134  1  0  0  0
 61135  1  0  0  0
 62136  1  0  0  0
 62137  1  0  0  0
 62138  1  0  0  0
 63 65  1  0  0  0
 63139  1  0  0  0
 63140  1  0  0  0
 63141  1  0  0  0
 64142  1  0  0  0
 65143  1  0  0  0
 68 81  1  0  0  0
 71 72  2  0  0  0
 71 83  1  0  0  0
 71144  1  0  0  0
 72 76  1  0  0  0
 72 82  1  0  0  0
 73 77  1  0  0  0
 73 82  2  0  0  0
 73 83  1  0  0  0
 74 83  1  0  0  0
 74145  1  0  0  0
 74146  1  0  0  0
 74147  1  0  0  0
 75148  1  0  0  0
 75149  1  0  0  0
 75150  1  0  0  0
 75 84  1  0  0  0
 76 84  1  0  0  0
 76151  1  0  0  0
 76152  1  0  0  0
 77 79  1  0  0  0
 77153  1  0  0  0
 77154  1  0  0  0
 78 80  1  0  0  0
 78155  1  0  0  0
 78156  1  0  0  0
 79 81  1  0  0  0
 79157  1  0  0  0
 79158  1  0  0  0
 80 84  1  0  0  0
 80159  1  0  0  0
 80160  1  0  0  0
 81161  1  0  0  0
 81162  1  0  0  0
 84163  1  0  0  0
M  CHG  1  84   1
M  ISO  4   1 100  68 101  78 100  81 101
M  END
> <chiral flag>
0

> <version>
0

> <s_m_source_file>
/data/baiqing/PycharmProjects/Reinvent-master-3.2/result/LINK_invent/BTK/process_docking_weight1_custom_sum_contain_oxygen_bond_distance_aromatic_linkinvent_7_9_3/rearranged_h_0049.sdf

> <i_m_source_file_index>
2

> <r_mmod_Potential_Energy-OPLS-2005>
-250.870834350586

> <r_mmod_Stretch_Energy-OPLS-2005>
35.7078323364258

> <r_mmod_Bend_Energy-OPLS-2005>
109.084129333496

> <r_mmod_Torsional_Energy-OPLS-2005>
220.745193481445

> <r_mmod_Improper_Torsional_Energy-OPLS-2005>
5.18989992141724

> <r_mmod_Van_der_Waal_Energy-OPLS-2005>
125.859062194824

> <r_mmod_Electrostatic_Energy-OPLS-2005>
-332.915588378906

> <r_mmod_Solvation_Energy-OPLS-2005>
-424.533264160156

> <b_mmod_Minimization_Converged-OPLS-2005>
0

> <r_mmod_RMS_Derivative-OPLS-2005>
5.06682348251343

$$$$
2
                    3D
 Structure written by MMmdl.
169177  0  0  1  0            999 V2000
  -30.7033  -14.6074   20.5254 C   0  0  0  0  0  0
  -30.4091  -12.3649   19.4826 C   0  0  0  0  0  0
  -29.5139  -12.4848   18.2338 C   0  0  0  0  0  0
  -28.0252  -12.3726   18.6211 C   0  0  0  0  0  0
  -27.6479  -13.2385   19.8553 C   0  0  2  0  0  0
  -28.6868  -13.1229   20.9936 C   0  0  0  0  0  0
  -25.2500  -13.8220   20.5641 C   0  0  0  0  0  0
  -24.1828  -13.0484   20.9204 C   0  0  0  0  0  0
  -24.6429  -11.6958   20.8754 C   0  0  0  0  0  0
  -23.9105  -10.4343   21.0423 C   0  0  0  0  0  0
  -24.3661   -9.4253   21.9186 C   0  0  0  0  0  0
  -23.6345   -8.2287   22.0733 C   0  0  0  0  0  0
  -22.4317   -8.0318   21.3544 C   0  0  0  0  0  0
  -21.9964   -9.0284   20.4633 C   0  0  0  0  0  0
  -22.7286  -10.2168   20.3061 C   0  0  0  0  0  0
  -21.6884   -6.0781   22.5295 C   0  0  0  0  0  0
  -21.4019   -6.5668   23.8233 C   0  0  0  0  0  0
  -21.3651   -5.6799   24.9179 C   0  0  0  0  0  0
  -21.6058   -4.3066   24.7217 C   0  0  0  0  0  0
  -21.8823   -3.8177   23.4330 C   0  0  0  0  0  0
  -21.9210   -4.7011   22.3402 C   0  0  0  0  0  0
  -22.7841  -13.5239   21.1848 C   0  0  0  0  0  0
  -22.1687   -4.2216   21.0976 F   0  0  0  0  0  0
  -21.5625   -3.4530   25.7716 F   0  0  0  0  0  0
  -30.0071  -13.4267   20.4282 N   0  0  0  0  0  0
  -26.2969  -12.9466   20.3276 N   0  0  0  0  0  0
  -25.9360  -11.6610   20.5777 N   0  0  0  0  0  0
  -22.0504  -12.8219   22.0392 N   0  0  0  0  0  0
  -25.4095  -15.1933   20.3902 N   0  0  0  0  0  0
  -31.8389  -14.6989   20.0498 O   0  0  0  0  0  0
  -21.6670   -6.8923   21.4252 O   0  0  0  0  0  0
  -22.3535  -14.5558   20.6700 O   0  0  0  0  0  0
  -24.6246  -31.8583   23.2067 C   0  0  0  0  0  0
  -25.9111  -32.4753   23.8364 C   0  0  1  0  0  0
  -27.2238  -27.3275   20.1211 C   0  0  0  0  0  0
  -25.5936  -33.8549   24.2278 N   0  0  0  0  0  0
  -23.4171  -30.4870   21.5420 C   0  0  2  0  0  0
  -24.8713  -28.9590   20.0957 C   0  0  0  0  0  0
  -22.7487  -29.4618   22.4867 C   0  0  0  0  0  0
  -18.0296  -28.1361   22.8474 C   0  0  0  0  0  0
  -24.1488  -36.7307   23.2622 C   0  0  0  0  0  0
  -25.9604  -30.7957   21.3792 C   0  0  0  0  0  0
  -26.0365  -29.4250   20.7188 C   0  0  0  0  0  0
  -27.2133  -28.6185   20.7313 C   0  0  0  0  0  0
  -26.0500  -26.9384   19.4312 C   0  0  0  0  0  0
  -24.8849  -27.7236   19.4327 C   0  0  0  0  0  0
  -23.6318  -29.8277   20.1528 C   0  0  0  0  0  0
  -25.4118  -36.3050   24.0297 C   0  0  1  0  0  0
  -20.5901  -28.3650   23.1277 C   0  0  2  0  0  0
  -20.6797  -26.9355   22.5407 C   0  0  0  0  0  0
  -19.5762  -26.6347   21.5215 C   0  0  0  0  0  0
  -18.1941  -26.7888   22.1627 C   0  0  0  0  0  0
  -19.1559  -28.8833   23.2858 C   0  0  0  0  0  0
  -18.9465  -30.1438   23.8855 C   0  0  0  0  0  0
  -17.6470  -30.6553   24.0557 C   0  0  0  0  0  0
  -25.9044  -34.9419   23.5073 C   0  0  0  0  0  0
  -16.5363  -29.9048   23.6324 C   0  0  0  0  0  0
  -16.7291  -28.6485   23.0311 C   0  0  0  0  0  0
  -26.4514  -31.6549   25.0712 C   0  0  0  0  0  0
  -25.3761  -31.3711   26.1452 C   0  0  0  0  0  0
  -27.0325  -30.2958   24.6168 C   0  0  0  0  0  0
  -27.6062  -32.4284   25.7500 C   0  0  0  0  0  0
  -27.5574  -37.1800   24.8456 C   0  0  0  0  0  0
  -21.4194  -29.3012   22.3672 N   0  0  0  0  0  0
  -26.4287  -37.3759   23.9402 N   0  0  0  0  0  0
  -24.6858  -31.0635   22.0983 N   0  0  0  0  0  0
  -23.4258  -28.8110   23.2870 O   0  0  0  0  0  0
  -28.3191  -26.4516   20.2230 O   0  0  0  0  0  0
  -26.5590  -34.8880   22.4630 O   0  0  0  0  0  0
  -23.5442  -32.1319   23.7448 O   0  0  0  0  0  0
  -29.8033  -20.3527   19.6447 C   0  0  0  0  0  0
  -28.8726  -21.0227   20.4943 C   0  0  0  0  0  0
  -28.4124  -18.9377   21.4910 C   0  0  0  0  0  0
  -29.3071  -18.2535   20.6063 C   0  0  0  0  0  0
  -32.0148  -21.2998   18.8318 C   0  0  0  0  0  0
  -26.0066  -18.2882   22.0036 C   0  0  0  0  0  0
  -30.3534  -15.6918   23.6310 C   0  0  0  0  0  0
  -30.5280  -21.0826   18.5191 C   0  0  0  0  0  0
  -27.4770  -18.2060   22.4463 C   0  0  0  0  0  0
  -28.2564  -22.4286   20.1705 C   0  0  0  0  0  0
  -29.3067  -16.6888   20.3764 C   0  0  0  0  0  0
  -28.9050  -23.8223   20.5706 C   0  0  0  0  0  0
  -30.8994  -16.2322   22.3008 C   0  0  0  0  0  0
  -28.0670  -25.0194   19.9490 C   0  0  0  0  0  0
  -28.2414  -20.2982   21.4582 N   0  0  0  0  0  0
  -30.0314  -19.0012   19.7240 N   0  0  0  0  0  0
  -30.1388  -15.6942   21.1557 N   0  0  0  0  0  0
  -31.4630  -12.4201   19.2057 H   0  0  0  0  0  0
  -30.2746  -11.3890   19.9534 H   0  0  0  0  0  0
  -29.7691  -11.7079   17.5097 H   0  0  0  0  0  0
  -29.7046  -13.4374   17.7413 H   0  0  0  0  0  0
  -27.8220  -11.3215   18.8295 H   0  0  0  0  0  0
  -27.3917  -12.6339   17.7718 H   0  0  0  0  0  0
  -27.6583  -14.2732   19.5141 H   0  0  0  0  0  0
  -28.6795  -12.1216   21.4284 H   0  0  0  0  0  0
  -28.4338  -13.8075   21.8041 H   0  0  0  0  0  0
  -25.2828   -9.5760   22.4723 H   0  0  0  0  0  0
  -24.0104   -7.4694   22.7429 H   0  0  0  0  0  0
  -21.0922   -8.8823   19.8905 H   0  0  0  0  0  0
  -22.3791  -10.9708   19.6161 H   0  0  0  0  0  0
  -21.1995   -7.6174   23.9758 H   0  0  0  0  0  0
  -21.1461   -6.0511   25.9088 H   0  0  0  0  0  0
  -22.0592   -2.7643   23.2813 H   0  0  0  0  0  0
  -22.4196  -11.9959   22.4864 H   0  0  0  0  0  0
  -21.1076  -13.1167   22.2502 H   0  0  0  0  0  0
  -24.6167  -15.8196   20.4685 H   0  0  0  0  0  0
  -26.2159  -15.6276   19.9652 H   0  0  0  0  0  0
  -26.7195  -32.5469   23.1121 H   0  0  0  0  0  0
  -25.0148  -33.9737   25.0465 H   0  0  0  0  0  0
  -22.7075  -31.3049   21.4006 H   0  0  0  0  0  0
  -23.3724  -35.9665   23.3281 H   0  0  0  0  0  0
  -24.3586  -36.8950   22.2040 H   0  0  0  0  0  0
  -23.7257  -37.6511   23.6673 H   0  0  0  0  0  0
  -26.0907  -31.5607   20.6129 H   0  0  0  0  0  0
  -26.8450  -30.8493   22.0022 H   0  0  0  0  0  0
  -28.0998  -28.9587   21.2503 H   0  0  0  0  0  0
  -26.0035  -26.0095   18.8848 H   0  0  0  0  0  0
  -24.0099  -27.3805   18.8982 H   0  0  0  0  0  0
  -23.7351  -30.6070   19.3966 H   0  0  0  0  0  0
  -22.7571  -29.2448   19.8557 H   0  0  0  0  0  0
  -25.1284  -36.1885   25.0785 H   0  0  0  0  0  0
  -21.0023  -28.3216   24.1385 H   0  0  0  0  0  0
  -20.5703  -26.2211   23.3580 H   0  0  0  0  0  0
  -21.6648  -26.7360   22.1164 H   0  0  0  0  0  0
  -19.6898  -25.6262   21.1210 H   0  0  0  0  0  0
  -19.6724  -27.3188   20.6763 H   0  0  0  0  0  0
  -17.4194  -26.6630   21.4039 H   0  0  0  0  0  0
  -18.0343  -26.0030   22.9021 H   0  0  0  0  0  0
  -19.7950  -30.7276   24.2171 H   0  0  0  0  0  0
  -17.5019  -31.6223   24.5159 H   0  0  0  0  0  0
  -15.5362  -30.2932   23.7673 H   0  0  0  0  0  0
  -15.8686  -28.0838   22.6968 H   0  0  0  0  0  0
  -24.5962  -30.6982   25.7862 H   0  0  0  0  0  0
  -24.8904  -32.2862   26.4847 H   0  0  0  0  0  0
  -25.8105  -30.8962   27.0246 H   0  0  0  0  0  0
  -26.2860  -29.6732   24.1210 H   0  0  0  0  0  0
  -27.3994  -29.7203   25.4684 H   0  0  0  0  0  0
  -27.8747  -30.4210   23.9354 H   0  0  0  0  0  0
  -27.2658  -33.3614   26.2030 H   0  0  0  0  0  0
  -28.3920  -32.6807   25.0351 H   0  0  0  0  0  0
  -28.0642  -31.8392   26.5467 H   0  0  0  0  0  0
  -28.2551  -38.0140   24.7529 H   0  0  0  0  0  0
  -28.1090  -36.2650   24.6228 H   0  0  0  0  0  0
  -27.2272  -37.1381   25.8854 H   0  0  0  0  0  0
  -20.9318  -29.8796   21.6985 H   0  0  0  0  0  0
  -26.0142  -38.2793   24.1498 H   0  0  0  0  0  0
  -32.4855  -21.9306   18.0793 H   0  0  0  0  0  0
  -32.5553  -20.3553   18.8530 H   0  0  0  0  0  0
  -32.1433  -21.7826   19.8021 H   0  0  0  0  0  0
  -25.3711  -17.7148   22.6784 H   0  0  0  0  0  0
  -25.8733  -17.8955   20.9961 H   0  0  0  0  0  0
  -25.6400  -19.3160   21.9962 H   0  0  0  0  0  0
  -31.0059  -15.9746   24.4578 H   0  0  0  0  0  0
  -30.2733  -14.6011   23.6264 H   0  0  0  0  0  0
  -29.3674  -16.0959   23.8478 H   0  0  0  0  0  0
  -30.0680  -22.0489   18.3183 H   0  0  0  0  0  0
  -30.4076  -20.5168   17.5925 H   0  0  0  0  0  0
  -27.5815  -18.6204   23.4508 H   0  0  0  0  0  0
  -27.7557  -17.1587   22.5368 H   0  0  0  0  0  0
  -27.2475  -22.4210   20.5853 H   0  0  0  0  0  0
  -28.0695  -22.4431   19.0972 H   0  0  0  0  0  0
  -29.5251  -16.5365   19.3173 H   0  0  0  0  0  0
  -28.2718  -16.3671   20.4750 H   0  0  0  0  0  0
  -29.9378  -23.8758   20.2206 H   0  0  0  0  0  0
  -28.9344  -23.9131   21.6573 H   0  0  0  0  0  0
  -31.9557  -15.9521   22.2323 H   0  0  0  0  0  0
  -30.9257  -17.3205   22.3151 H   0  0  0  0  0  0
  -27.0499  -24.7803   20.2575 H   0  0  0  0  0  0
  -28.0955  -24.9028   18.8648 H   0  0  0  0  0  0
  1 25  1  0  0  0
  1 30  2  0  0  0
  1 87  1  0  0  0
  2  3  1  0  0  0
  2 25  1  0  0  0
  2 88  1  0  0  0
  2 89  1  0  0  0
  3  4  1  0  0  0
  3 90  1  0  0  0
  3 91  1  0  0  0
  4  5  1  0  0  0
  4 92  1  0  0  0
  4 93  1  0  0  0
  5  6  1  0  0  0
  5 26  1  0  0  0
  5 94  1  0  0  0
  6 25  1  0  0  0
  6 95  1  0  0  0
  6 96  1  0  0  0
  7  8  2  0  0  0
  7 26  1  0  0  0
  7 29  1  0  0  0
  8  9  1  0  0  0
  8 22  1  0  0  0
  9 10  1  0  0  0
  9 27  2  0  0  0
 10 11  2  0  0  0
 10 15  1  0  0  0
 11 12  1  0  0  0
 11 97  1  0  0  0
 12 13  2  0  0  0
 12 98  1  0  0  0
 13 14  1  0  0  0
 13 31  1  0  0  0
 14 15  2  0  0  0
 14 99  1  0  0  0
 15100  1  0  0  0
 16 17  2  0  0  0
 16 21  1  0  0  0
 16 31  1  0  0  0
 17 18  1  0  0  0
 17101  1  0  0  0
 18 19  2  0  0  0
 18102  1  0  0  0
 19 20  1  0  0  0
 19 24  1  0  0  0
 20 21  2  0  0  0
 20103  1  0  0  0
 21 23  1  0  0  0
 22 28  1  0  0  0
 22 32  2  0  0  0
 26 27  1  0  0  0
 28104  1  0  0  0
 28105  1  0  0  0
 29106  1  0  0  0
 29107  1  0  0  0
 33 34  1  0  0  0
 33 66  1  0  0  0
 33 70  2  0  0  0
 34 36  1  0  0  0
 34 59  1  0  0  0
 34108  1  0  0  0
 35 44  2  0  0  0
 35 45  1  0  0  0
 35 68  1  0  0  0
 36 56  1  0  0  0
 36109  1  0  0  0
 37 39  1  0  0  0
 37 47  1  0  0  0
 37 66  1  0  0  0
 37110  1  0  0  0
 38 43  2  0  0  0
 38 46  1  0  0  0
 38 47  1  0  0  0
 39 64  1  0  0  0
 39 67  2  0  0  0
 40 52  1  0  0  0
 40 53  2  0  0  0
 40 58  1  0  0  0
 41111  1  0  0  0
 41112  1  0  0  0
 41113  1  0  0  0
 41 48  1  0  0  0
 42 43  1  0  0  0
 42 66  1  0  0  0
 42114  1  0  0  0
 42115  1  0  0  0
 43 44  1  0  0  0
 44116  1  0  0  0
 45 46  2  0  0  0
 45117  1  0  0  0
 46118  1  0  0  0
 47119  1  0  0  0
 47120  1  0  0  0
 48 56  1  0  0  0
 48 65  1  0  0  0
 48121  1  0  0  0
 49 50  1  0  0  0
 49 53  1  0  0  0
 49 64  1  0  0  0
 49122  1  0  0  0
 50 51  1  0  0  0
 50123  1  0  0  0
 50124  1  0  0  0
 51 52  1  0  0  0
 51125  1  0  0  0
 51126  1  0  0  0
 52127  1  0  0  0
 52128  1  0  0  0
 53 54  1  0  0  0
 54 55  2  0  0  0
 54129  1  0  0  0
 55 57  1  0  0  0
 55130  1  0  0  0
 56 69  2  0  0  0
 57 58  2  0  0  0
 57131  1  0  0  0
 58132  1  0  0  0
 59 60  1  0  0  0
 59 61  1  0  0  0
 59 62  1  0  0  0
 60133  1  0  0  0
 60134  1  0  0  0
 60135  1  0  0  0
 61136  1  0  0  0
 61137  1  0  0  0
 61138  1  0  0  0
 62139  1  0  0  0
 62140  1  0  0  0
 62141  1  0  0  0
 63 65  1  0  0  0
 63142  1  0  0  0
 63143  1  0  0  0
 63144  1  0  0  0
 64145  1  0  0  0
 65146  1  0  0  0
 68 84  1  0  0  0
 71 72  2  0  0  0
 71 78  1  0  0  0
 71 86  1  0  0  0
 72 80  1  0  0  0
 72 85  1  0  0  0
 73 74  1  0  0  0
 73 79  1  0  0  0
 73 85  2  0  0  0
 74 81  1  0  0  0
 74 86  2  0  0  0
 75 78  1  0  0  0
 75147  1  0  0  0
 75148  1  0  0  0
 75149  1  0  0  0
 76 79  1  0  0  0
 76150  1  0  0  0
 76151  1  0  0  0
 76152  1  0  0  0
 77 83  1  0  0  0
 77153  1  0  0  0
 77154  1  0  0  0
 77155  1  0  0  0
 78156  1  0  0  0
 78157  1  0  0  0
 79158  1  0  0  0
 79159  1  0  0  0
 80 82  1  0  0  0
 80160  1  0  0  0
 80161  1  0  0  0
 81 87  1  0  0  0
 81162  1  0  0  0
 81163  1  0  0  0
 82 84  1  0  0  0
 82164  1  0  0  0
 82165  1  0  0  0
 83 87  1  0  0  0
 83166  1  0  0  0
 83167  1  0  0  0
 84168  1  0  0  0
 84169  1  0  0  0
M  ISO  4   1 100  68 101  84 101  87 100
M  END
> <chiral flag>
0

> <version>
0

> <s_m_source_file>
/data/baiqing/PycharmProjects/Reinvent-master-3.2/result/LINK_invent/BTK/process_docking_weight1_custom_sum_contain_oxygen_bond_distance_aromatic_linkinvent_7_9_3/rearranged_h_0049.sdf

> <i_m_source_file_index>
3

> <r_mmod_Potential_Energy-OPLS-2005>
240.976226806641

> <r_mmod_Stretch_Energy-OPLS-2005>
85.2842407226562

> <r_mmod_Bend_Energy-OPLS-2005>
165.356018066406

> <r_mmod_Torsional_Energy-OPLS-2005>
279.320404052734

> <r_mmod_Improper_Torsional_Energy-OPLS-2005>
8.76790809631348

> <r_mmod_Van_der_Waal_Energy-OPLS-2005>
147.502410888672

> <r_mmod_Electrostatic_Energy-OPLS-2005>
-291.440765380859

> <r_mmod_Solvation_Energy-OPLS-2005>
-202.121978759766

> <b_mmod_Minimization_Converged-OPLS-2005>
0

> <r_mmod_RMS_Derivative-OPLS-2005>
4.73012256622314

$$$$
3
                    3D
 Structure written by MMmdl.
154162  0  0  1  0            999 V2000
  -30.4756  -15.0053   20.3905 C   0  0  0  0  0  0
  -30.4743  -12.6226   19.4773 C   0  0  0  0  0  0
  -29.5260  -12.5308   18.2513 C   0  0  0  0  0  0
  -28.0536  -12.3092   18.6684 C   0  0  0  0  0  0
  -27.6330  -13.2019   19.8630 C   0  0  2  0  0  0
  -28.7081  -13.1753   20.9720 C   0  0  0  0  0  0
  -25.2429  -13.8028   20.5672 C   0  0  0  0  0  0
  -24.1738  -13.0315   20.9240 C   0  0  0  0  0  0
  -24.6340  -11.6803   20.8821 C   0  0  0  0  0  0
  -23.9019  -10.4214   21.0449 C   0  0  0  0  0  0
  -24.3581   -9.4135   21.9214 C   0  0  0  0  0  0
  -23.6262   -8.2175   22.0758 C   0  0  0  0  0  0
  -22.4249   -8.0234   21.3538 C   0  0  0  0  0  0
  -21.9886   -9.0205   20.4640 C   0  0  0  0  0  0
  -22.7210  -10.2081   20.3071 C   0  0  0  0  0  0
  -21.6829   -6.0714   22.5278 C   0  0  0  0  0  0
  -21.3997   -6.5626   23.8209 C   0  0  0  0  0  0
  -21.3659   -5.6783   24.9173 C   0  0  0  0  0  0
  -21.6048   -4.3046   24.7231 C   0  0  0  0  0  0
  -21.8820   -3.8135   23.4354 C   0  0  0  0  0  0
  -21.9184   -4.6947   22.3407 C   0  0  0  0  0  0
  -22.7772  -13.5140   21.1875 C   0  0  0  0  0  0
  -22.1657   -4.2132   21.0986 F   0  0  0  0  0  0
  -21.5633   -3.4534   25.7749 F   0  0  0  0  0  0
  -29.9658  -13.6902   20.3891 N   0  0  0  0  0  0
  -26.2897  -12.9182   20.3439 N   0  0  0  0  0  0
  -25.9277  -11.6367   20.5898 N   0  0  0  0  0  0
  -22.0423  -12.8157   22.0456 N   0  0  0  0  0  0
  -25.3909  -15.1743   20.3868 N   0  0  0  0  0  0
  -31.6863  -15.1067   20.1556 O   0  0  0  0  0  0
  -21.6605   -6.8844   21.4235 O   0  0  0  0  0  0
  -22.3472  -14.5451   20.6714 O   0  0  0  0  0  0
  -24.6419  -31.8443   23.1877 C   0  0  0  0  0  0
  -25.9190  -32.4700   23.8273 C   0  0  1  0  0  0
  -27.2414  -27.1526   20.1520 C   0  0  0  0  0  0
  -25.5943  -33.8505   24.2193 N   0  0  0  0  0  0
  -23.4468  -30.4603   21.5325 C   0  0  2  0  0  0
  -24.9021  -28.8857   20.1110 C   0  0  0  0  0  0
  -22.7564  -29.4539   22.4866 C   0  0  0  0  0  0
  -18.0303  -28.1384   22.8480 C   0  0  0  0  0  0
  -24.1493  -36.7258   23.2643 C   0  0  0  0  0  0
  -26.0009  -30.7225   21.3846 C   0  0  0  0  0  0
  -26.0768  -29.3338   20.7279 C   0  0  0  0  0  0
  -27.2439  -28.4832   20.7318 C   0  0  0  0  0  0
  -26.0393  -26.8016   19.4952 C   0  0  0  0  0  0
  -24.8954  -27.6316   19.4801 C   0  0  0  0  0  0
  -23.6743  -29.7834   20.1537 C   0  0  0  0  0  0
  -25.4125  -36.3036   24.0317 C   0  0  1  0  0  0
  -20.5912  -28.3709   23.1238 C   0  0  2  0  0  0
  -20.6782  -26.9412   22.5403 C   0  0  0  0  0  0
  -19.5758  -26.6371   21.5208 C   0  0  0  0  0  0
  -18.1941  -26.7925   22.1621 C   0  0  0  0  0  0
  -19.1559  -28.8866   23.2850 C   0  0  0  0  0  0
  -18.9477  -30.1462   23.8875 C   0  0  0  0  0  0
  -17.6473  -30.6583   24.0553 C   0  0  0  0  0  0
  -25.9073  -34.9410   23.5067 C   0  0  0  0  0  0
  -16.5364  -29.9074   23.6331 C   0  0  0  0  0  0
  -16.7288  -28.6489   23.0361 C   0  0  0  0  0  0
  -26.4520  -31.6566   25.0710 C   0  0  0  0  0  0
  -25.3706  -31.3745   26.1404 C   0  0  0  0  0  0
  -27.0387  -30.2969   24.6277 C   0  0  0  0  0  0
  -27.6051  -32.4331   25.7494 C   0  0  0  0  0  0
  -27.5579  -37.1784   24.8465 C   0  0  0  0  0  0
  -21.4256  -29.3039   22.3614 N   0  0  0  0  0  0
  -26.4291  -37.3748   23.9406 N   0  0  0  0  0  0
  -24.7159  -31.0301   22.0905 N   0  0  0  0  0  0
  -23.4206  -28.8094   23.3021 O   0  0  0  0  0  0
  -28.3161  -26.1921   20.2377 O   0  0  0  0  0  0
  -26.5660  -34.8907   22.4646 O   0  0  0  0  0  0
  -23.5537  -32.1313   23.7095 O   0  0  0  0  0  0
  -28.9266  -19.0578   20.3343 C   0  0  0  0  0  0
  -31.0135  -18.6749   20.4277 C   0  0  0  0  0  0
  -29.5021  -20.3529   20.2777 C   0  0  0  0  0  0
  -28.7527  -16.3492   19.0270 C   0  0  0  0  0  0
  -28.5469  -16.2680   21.6035 C   0  0  0  0  0  0
  -28.8113  -21.8006   19.8911 C   0  0  0  0  0  0
  -29.0866  -23.3658   20.4381 C   0  0  0  0  0  0
  -28.1126  -24.6710   19.9887 C   0  0  0  0  0  0
  -29.5035  -16.3998   20.3909 C   0  0  0  0  0  0
  -30.8765  -20.0336   20.3263 N   0  0  0  0  0  0
  -29.8719  -17.9507   20.4140 N   0  0  0  0  0  0
  -31.4893  -12.8353   19.1391 H   0  0  0  0  0  0
  -30.5364  -11.6631   19.9930 H   0  0  0  0  0  0
  -29.8472  -11.7273   17.5878 H   0  0  0  0  0  0
  -29.6056  -13.4451   17.6635 H   0  0  0  0  0  0
  -27.9417  -11.2599   18.9446 H   0  0  0  0  0  0
  -27.3878  -12.4708   17.8199 H   0  0  0  0  0  0
  -27.5638  -14.2017   19.4725 H   0  0  0  0  0  0
  -28.8407  -12.1517   21.3272 H   0  0  0  0  0  0
  -28.4129  -13.7129   21.8672 H   0  0  0  0  0  0
  -25.2722   -9.5605   22.4793 H   0  0  0  0  0  0
  -23.9962   -7.4557   22.7472 H   0  0  0  0  0  0
  -21.0818   -8.8727   19.8944 H   0  0  0  0  0  0
  -22.3677  -10.9630   19.6185 H   0  0  0  0  0  0
  -21.1985   -7.6134   23.9710 H   0  0  0  0  0  0
  -21.1485   -6.0515   25.9076 H   0  0  0  0  0  0
  -22.0607   -2.7599   23.2859 H   0  0  0  0  0  0
  -22.4040  -11.9821   22.4845 H   0  0  0  0  0  0
  -21.1050  -13.1191   22.2681 H   0  0  0  0  0  0
  -24.6086  -15.8125   20.4835 H   0  0  0  0  0  0
  -26.2312  -15.6253   20.0533 H   0  0  0  0  0  0
  -26.7257  -32.5318   23.1004 H   0  0  0  0  0  0
  -25.0062  -33.9622   25.0323 H   0  0  0  0  0  0
  -22.7487  -31.2850   21.3749 H   0  0  0  0  0  0
  -23.3763  -35.9582   23.3292 H   0  0  0  0  0  0
  -24.3579  -36.8903   22.2060 H   0  0  0  0  0  0
  -23.7241  -37.6447   23.6688 H   0  0  0  0  0  0
  -26.1527  -31.4771   20.6115 H   0  0  0  0  0  0
  -26.8719  -30.7759   22.0257 H   0  0  0  0  0  0
  -28.1374  -28.8238   21.2359 H   0  0  0  0  0  0
  -25.9542  -25.8429   19.0058 H   0  0  0  0  0  0
  -23.9988  -27.2820   18.9864 H   0  0  0  0  0  0
  -23.8052  -30.5549   19.3944 H   0  0  0  0  0  0
  -22.7912  -29.2195   19.8477 H   0  0  0  0  0  0
  -25.1312  -36.1868   25.0811 H   0  0  0  0  0  0
  -21.0006  -28.3294   24.1357 H   0  0  0  0  0  0
  -20.5660  -26.2325   23.3622 H   0  0  0  0  0  0
  -21.6651  -26.7404   22.1213 H   0  0  0  0  0  0
  -19.6918  -25.6274   21.1254 H   0  0  0  0  0  0
  -19.6695  -27.3166   20.6725 H   0  0  0  0  0  0
  -17.4208  -26.6667   21.4027 H   0  0  0  0  0  0
  -18.0342  -26.0067   22.9019 H   0  0  0  0  0  0
  -19.7952  -30.7283   24.2238 H   0  0  0  0  0  0
  -17.5024  -31.6264   24.5152 H   0  0  0  0  0  0
  -15.5362  -30.2969   23.7664 H   0  0  0  0  0  0
  -15.8689  -28.0794   22.7097 H   0  0  0  0  0  0
  -24.5885  -30.7100   25.7714 H   0  0  0  0  0  0
  -24.8895  -32.2924   26.4794 H   0  0  0  0  0  0
  -25.7988  -30.8932   27.0206 H   0  0  0  0  0  0
  -26.3003  -29.6690   24.1281 H   0  0  0  0  0  0
  -27.4008  -29.7268   25.4843 H   0  0  0  0  0  0
  -27.8906  -30.4217   23.9588 H   0  0  0  0  0  0
  -27.2647  -33.3648   26.2027 H   0  0  0  0  0  0
  -28.3886  -32.6869   25.0340 H   0  0  0  0  0  0
  -28.0696  -31.8489   26.5448 H   0  0  0  0  0  0
  -28.2585  -38.0091   24.7519 H   0  0  0  0  0  0
  -28.1087  -36.2620   24.6285 H   0  0  0  0  0  0
  -27.2295  -37.1421   25.8868 H   0  0  0  0  0  0
  -20.9465  -29.8754   21.6795 H   0  0  0  0  0  0
  -26.0159  -38.2817   24.1410 H   0  0  0  0  0  0
  -27.8734  -18.8245   20.2535 H   0  0  0  0  0  0
  -31.9826  -18.1965   20.4699 H   0  0  0  0  0  0
  -27.6839  -16.5268   19.1358 H   0  0  0  0  0  0
  -28.8946  -15.4267   18.4712 H   0  0  0  0  0  0
  -29.1200  -17.1044   18.3298 H   0  0  0  0  0  0
  -28.1079  -17.2086   21.9304 H   0  0  0  0  0  0
  -29.0653  -15.8696   22.4759 H   0  0  0  0  0  0
  -27.6980  -15.6322   21.3924 H   0  0  0  0  0  0
  -27.7439  -21.6580   20.0609 H   0  0  0  0  0  0
  -28.8758  -21.8792   18.8057 H   0  0  0  0  0  0
  -30.1108  -23.6183   20.1633 H   0  0  0  0  0  0
  -29.0888  -23.3325   21.5276 H   0  0  0  0  0  0
  -27.1319  -24.4355   20.4033 H   0  0  0  0  0  0
  -27.9883  -24.5841   18.9095 H   0  0  0  0  0  0
  1 25  1  0  0  0
  1 30  2  0  0  0
  1 79  1  0  0  0
  2  3  1  0  0  0
  2 25  1  0  0  0
  2 82  1  0  0  0
  2 83  1  0  0  0
  3  4  1  0  0  0
  3 84  1  0  0  0
  3 85  1  0  0  0
  4  5  1  0  0  0
  4 86  1  0  0  0
  4 87  1  0  0  0
  5  6  1  0  0  0
  5 26  1  0  0  0
  5 88  1  0  0  0
  6 25  1  0  0  0
  6 89  1  0  0  0
  6 90  1  0  0  0
  7  8  2  0  0  0
  7 26  1  0  0  0
  7 29  1  0  0  0
  8  9  1  0  0  0
  8 22  1  0  0  0
  9 10  1  0  0  0
  9 27  2  0  0  0
 10 11  2  0  0  0
 10 15  1  0  0  0
 11 12  1  0  0  0
 11 91  1  0  0  0
 12 13  2  0  0  0
 12 92  1  0  0  0
 13 14  1  0  0  0
 13 31  1  0  0  0
 14 15  2  0  0  0
 14 93  1  0  0  0
 15 94  1  0  0  0
 16 17  2  0  0  0
 16 21  1  0  0  0
 16 31  1  0  0  0
 17 18  1  0  0  0
 17 95  1  0  0  0
 18 19  2  0  0  0
 18 96  1  0  0  0
 19 20  1  0  0  0
 19 24  1  0  0  0
 20 21  2  0  0  0
 20 97  1  0  0  0
 21 23  1  0  0  0
 22 28  1  0  0  0
 22 32  2  0  0  0
 26 27  1  0  0  0
 28 98  1  0  0  0
 28 99  1  0  0  0
 29100  1  0  0  0
 29101  1  0  0  0
 33 34  1  0  0  0
 33 66  1  0  0  0
 33 70  2  0  0  0
 34 36  1  0  0  0
 34 59  1  0  0  0
 34102  1  0  0  0
 35 44  2  0  0  0
 35 45  1  0  0  0
 35 68  1  0  0  0
 36 56  1  0  0  0
 36103  1  0  0  0
 37 39  1  0  0  0
 37 47  1  0  0  0
 37 66  1  0  0  0
 37104  1  0  0  0
 38 43  2  0  0  0
 38 46  1  0  0  0
 38 47  1  0  0  0
 39 64  1  0  0  0
 39 67  2  0  0  0
 40 52  1  0  0  0
 40 53  2  0  0  0
 40 58  1  0  0  0
 41105  1  0  0  0
 41106  1  0  0  0
 41107  1  0  0  0
 41 48  1  0  0  0
 42 43  1  0  0  0
 42 66  1  0  0  0
 42108  1  0  0  0
 42109  1  0  0  0
 43 44  1  0  0  0
 44110  1  0  0  0
 45 46  2  0  0  0
 45111  1  0  0  0
 46112  1  0  0  0
 47113  1  0  0  0
 47114  1  0  0  0
 48 56  1  0  0  0
 48 65  1  0  0  0
 48115  1  0  0  0
 49 50  1  0  0  0
 49 53  1  0  0  0
 49 64  1  0  0  0
 49116  1  0  0  0
 50 51  1  0  0  0
 50117  1  0  0  0
 50118  1  0  0  0
 51 52  1  0  0  0
 51119  1  0  0  0
 51120  1  0  0  0
 52121  1  0  0  0
 52122  1  0  0  0
 53 54  1  0  0  0
 54 55  2  0  0  0
 54123  1  0  0  0
 55 57  1  0  0  0
 55124  1  0  0  0
 56 69  2  0  0  0
 57 58  2  0  0  0
 57125  1  0  0  0
 58126  1  0  0  0
 59 60  1  0  0  0
 59 61  1  0  0  0
 59 62  1  0  0  0
 60127  1  0  0  0
 60128  1  0  0  0
 60129  1  0  0  0
 61130  1  0  0  0
 61131  1  0  0  0
 61132  1  0  0  0
 62133  1  0  0  0
 62134  1  0  0  0
 62135  1  0  0  0
 63 65  1  0  0  0
 63136  1  0  0  0
 63137  1  0  0  0
 63138  1  0  0  0
 64139  1  0  0  0
 65140  1  0  0  0
 68 78  1  0  0  0
 71 73  2  0  0  0
 71 81  1  0  0  0
 71141  1  0  0  0
 72 80  2  0  0  0
 72 81  1  0  0  0
 72142  1  0  0  0
 73 76  1  0  0  0
 73 80  1  0  0  0
 74143  1  0  0  0
 74144  1  0  0  0
 74145  1  0  0  0
 74 79  1  0  0  0
 75 79  1  0  0  0
 75146  1  0  0  0
 75147  1  0  0  0
 75148  1  0  0  0
 76 77  1  0  0  0
 76149  1  0  0  0
 76150  1  0  0  0
 77 78  1  0  0  0
 77151  1  0  0  0
 77152  1  0  0  0
 78153  1  0  0  0
 78154  1  0  0  0
 79 81  1  0  0  0
M  ISO  4   1 100  68 101  78 101  79 100
M  END
> <chiral flag>
0

> <version>
0

> <s_m_source_file>
/data/baiqing/PycharmProjects/Reinvent-master-3.2/result/LINK_invent/BTK/process_docking_weight1_custom_sum_contain_oxygen_bond_distance_aromatic_linkinvent_7_9_3/rearranged_h_0049.sdf

> <i_m_source_file_index>
4

> <r_mmod_Potential_Energy-OPLS-2005>
647.010803222656

> <r_mmod_Stretch_Energy-OPLS-2005>
272.704650878906

> <r_mmod_Bend_Energy-OPLS-2005>
321.70068359375

> <r_mmod_Torsional_Energy-OPLS-2005>
245.023696899414

> <r_mmod_Improper_Torsional_Energy-OPLS-2005>
8.22848510742188

> <r_mmod_Van_der_Waal_Energy-OPLS-2005>
133.137802124023

> <r_mmod_Electrostatic_Energy-OPLS-2005>
-320.171325683594

> <r_mmod_Solvation_Energy-OPLS-2005>
-215.493347167969

> <b_mmod_Minimization_Converged-OPLS-2005>
0

> <r_mmod_RMS_Derivative-OPLS-2005>
0.84932678937912

$$$$
4
                    3D
 Structure written by MMmdl.
157165  0  0  1  0            999 V2000
  -30.5333  -15.0018   20.3977 C   0  0  0  0  0  0
  -30.4473  -12.6152   19.5040 C   0  0  0  0  0  0
  -29.5256  -12.5250   18.2628 C   0  0  0  0  0  0
  -28.0645  -12.2717   18.6830 C   0  0  0  0  0  0
  -27.6214  -13.2156   19.8242 C   0  0  2  0  0  0
  -28.6674  -13.2952   20.9572 C   0  0  0  0  0  0
  -25.2416  -13.8059   20.5706 C   0  0  0  0  0  0
  -24.1737  -13.0324   20.9245 C   0  0  0  0  0  0
  -24.6355  -11.6822   20.8772 C   0  0  0  0  0  0
  -23.9041  -10.4227   21.0418 C   0  0  0  0  0  0
  -24.3598   -9.4156   21.9197 C   0  0  0  0  0  0
  -23.6269   -8.2201   22.0763 C   0  0  0  0  0  0
  -22.4254   -8.0253   21.3542 C   0  0  0  0  0  0
  -21.9886   -9.0225   20.4644 C   0  0  0  0  0  0
  -22.7222  -10.2094   20.3054 C   0  0  0  0  0  0
  -21.6837   -6.0722   22.5282 C   0  0  0  0  0  0
  -21.4004   -6.5632   23.8215 C   0  0  0  0  0  0
  -21.3653   -5.6788   24.9181 C   0  0  0  0  0  0
  -21.6046   -4.3051   24.7235 C   0  0  0  0  0  0
  -21.8819   -3.8138   23.4357 C   0  0  0  0  0  0
  -21.9188   -4.6951   22.3410 C   0  0  0  0  0  0
  -22.7772  -13.5141   21.1899 C   0  0  0  0  0  0
  -22.1659   -4.2137   21.0989 F   0  0  0  0  0  0
  -21.5625   -3.4537   25.7747 F   0  0  0  0  0  0
  -29.9489  -13.7248   20.3724 N   0  0  0  0  0  0
  -26.2833  -12.9257   20.3199 N   0  0  0  0  0  0
  -25.9274  -11.6425   20.5737 N   0  0  0  0  0  0
  -22.0413  -12.8144   22.0453 N   0  0  0  0  0  0
  -25.3935  -15.1780   20.4161 N   0  0  0  0  0  0
  -31.7436  -15.0193   20.1510 O   0  0  0  0  0  0
  -21.6618   -6.8856   21.4238 O   0  0  0  0  0  0
  -22.3474  -14.5457   20.6747 O   0  0  0  0  0  0
  -24.6431  -31.8439   23.1865 C   0  0  0  0  0  0
  -25.9201  -32.4697   23.8265 C   0  0  1  0  0  0
  -27.2301  -27.1416   20.1518 C   0  0  0  0  0  0
  -25.5947  -33.8503   24.2184 N   0  0  0  0  0  0
  -23.4476  -30.4602   21.5327 C   0  0  2  0  0  0
  -24.8991  -28.8839   20.1106 C   0  0  0  0  0  0
  -22.7570  -29.4540   22.4866 C   0  0  0  0  0  0
  -18.0307  -28.1389   22.8471 C   0  0  0  0  0  0
  -24.1490  -36.7256   23.2643 C   0  0  0  0  0  0
  -26.0022  -30.7184   21.3844 C   0  0  0  0  0  0
  -26.0751  -29.3293   20.7266 C   0  0  0  0  0  0
  -27.2402  -28.4754   20.7271 C   0  0  0  0  0  0
  -26.0267  -26.7919   19.5008 C   0  0  0  0  0  0
  -24.8873  -27.6280   19.4827 C   0  0  0  0  0  0
  -23.6743  -29.7851   20.1532 C   0  0  0  0  0  0
  -25.4124  -36.3035   24.0317 C   0  0  1  0  0  0
  -20.5917  -28.3722   23.1241 C   0  0  2  0  0  0
  -20.6794  -26.9423   22.5413 C   0  0  0  0  0  0
  -19.5774  -26.6377   21.5216 C   0  0  0  0  0  0
  -18.1952  -26.7927   22.1620 C   0  0  0  0  0  0
  -19.1562  -28.8875   23.2843 C   0  0  0  0  0  0
  -18.9471  -30.1477   23.8862 C   0  0  0  0  0  0
  -17.6470  -30.6591   24.0550 C   0  0  0  0  0  0
  -25.9074  -34.9410   23.5062 C   0  0  0  0  0  0
  -16.5363  -29.9078   23.6333 C   0  0  0  0  0  0
  -16.7296  -28.6498   23.0353 C   0  0  0  0  0  0
  -26.4521  -31.6569   25.0711 C   0  0  0  0  0  0
  -25.3702  -31.3757   26.1405 C   0  0  0  0  0  0
  -27.0393  -30.2968   24.6294 C   0  0  0  0  0  0
  -27.6051  -32.4339   25.7497 C   0  0  0  0  0  0
  -27.5576  -37.1784   24.8467 C   0  0  0  0  0  0
  -21.4259  -29.3046   22.3609 N   0  0  0  0  0  0
  -26.4288  -37.3747   23.9409 N   0  0  0  0  0  0
  -24.7174  -31.0293   22.0898 N   0  0  0  0  0  0
  -23.4203  -28.8105   23.3030 O   0  0  0  0  0  0
  -28.3008  -26.1776   20.2254 O   0  0  0  0  0  0
  -26.5665  -34.8910   22.4645 O   0  0  0  0  0  0
  -23.5550  -32.1314   23.7086 O   0  0  0  0  0  0
  -30.0633  -20.7814   20.1176 C   0  0  0  0  0  0
  -28.4106  -19.7179   20.9124 C   0  0  0  0  0  0
  -29.1027  -21.7988   20.4167 C   0  0  0  0  0  0
  -31.2322  -18.0565   19.0157 C   0  0  0  0  0  0
  -28.5981  -16.5082   19.4792 C   0  0  0  0  0  0
  -29.1245  -16.5226   21.9840 C   0  0  0  0  0  0
  -29.2008  -23.4494   20.5004 C   0  0  0  0  0  0
  -28.0894  -24.6389   20.0689 C   0  0  0  0  0  0
  -30.4200  -18.0240   20.3274 C   0  0  2  0  0  0
  -29.7192  -16.4869   20.5476 C   0  0  0  0  0  0
  -28.0535  -21.0303   20.9503 N   0  0  0  0  0  0
  -29.6369  -19.4192   20.4246 N   0  0  0  0  0  0
  -31.4775  -12.7758   19.1841 H   0  0  0  0  0  0
  -30.4535  -11.6711   20.0512 H   0  0  0  0  0  0
  -29.8654  -11.7309   17.5966 H   0  0  0  0  0  0
  -29.5884  -13.4529   17.6926 H   0  0  0  0  0  0
  -27.9892  -11.2358   19.0153 H   0  0  0  0  0  0
  -27.3966  -12.3671   17.8255 H   0  0  0  0  0  0
  -27.5483  -14.1776   19.3395 H   0  0  0  0  0  0
  -28.7718  -12.3296   21.4544 H   0  0  0  0  0  0
  -28.3364  -13.9888   21.7268 H   0  0  0  0  0  0
  -25.2738   -9.5639   22.4777 H   0  0  0  0  0  0
  -23.9976   -7.4591   22.7484 H   0  0  0  0  0  0
  -21.0816   -8.8752   19.8949 H   0  0  0  0  0  0
  -22.3692  -10.9644   19.6170 H   0  0  0  0  0  0
  -21.1996   -7.6141   23.9717 H   0  0  0  0  0  0
  -21.1470   -6.0518   25.9083 H   0  0  0  0  0  0
  -22.0601   -2.7599   23.2865 H   0  0  0  0  0  0
  -22.4027  -11.9807   22.4845 H   0  0  0  0  0  0
  -21.1038  -13.1182   22.2666 H   0  0  0  0  0  0
  -24.6171  -15.8200   20.5310 H   0  0  0  0  0  0
  -26.2344  -15.6262   20.0799 H   0  0  0  0  0  0
  -26.7274  -32.5304   23.1000 H   0  0  0  0  0  0
  -25.0064  -33.9619   25.0310 H   0  0  0  0  0  0
  -22.7502  -31.2856   21.3760 H   0  0  0  0  0  0
  -23.3761  -35.9579   23.3295 H   0  0  0  0  0  0
  -24.3571  -36.8896   22.2059 H   0  0  0  0  0  0
  -23.7238  -37.6446   23.6687 H   0  0  0  0  0  0
  -26.1575  -31.4733   20.6125 H   0  0  0  0  0  0
  -26.8726  -30.7687   22.0267 H   0  0  0  0  0  0
  -28.1366  -28.8146   21.2260 H   0  0  0  0  0  0
  -25.9397  -25.8296   19.0186 H   0  0  0  0  0  0
  -23.9894  -27.2795   18.9913 H   0  0  0  0  0  0
  -23.8098  -30.5575   19.3956 H   0  0  0  0  0  0
  -22.7896  -29.2252   19.8450 H   0  0  0  0  0  0
  -25.1311  -36.1862   25.0809 H   0  0  0  0  0  0
  -20.9997  -28.3322   24.1371 H   0  0  0  0  0  0
  -20.5678  -26.2336   23.3630 H   0  0  0  0  0  0
  -21.6669  -26.7426   22.1228 H   0  0  0  0  0  0
  -19.6940  -25.6273   21.1270 H   0  0  0  0  0  0
  -19.6708  -27.3170   20.6733 H   0  0  0  0  0  0
  -17.4218  -26.6658   21.4030 H   0  0  0  0  0  0
  -18.0357  -26.0077   22.9027 H   0  0  0  0  0  0
  -19.7941  -30.7306   24.2216 H   0  0  0  0  0  0
  -17.5017  -31.6273   24.5147 H   0  0  0  0  0  0
  -15.5359  -30.2968   23.7667 H   0  0  0  0  0  0
  -15.8704  -28.0802   22.7084 H   0  0  0  0  0  0
  -24.5885  -30.7104   25.7722 H   0  0  0  0  0  0
  -24.8888  -32.2938   26.4780 H   0  0  0  0  0  0
  -25.7978  -30.8960   27.0217 H   0  0  0  0  0  0
  -26.3014  -29.6685   24.1293 H   0  0  0  0  0  0
  -27.4001  -29.7274   25.4871 H   0  0  0  0  0  0
  -27.8921  -30.4214   23.9619 H   0  0  0  0  0  0
  -27.2641  -33.3657   26.2026 H   0  0  0  0  0  0
  -28.3884  -32.6873   25.0341 H   0  0  0  0  0  0
  -28.0697  -31.8500   26.5452 H   0  0  0  0  0  0
  -28.2591  -38.0084   24.7512 H   0  0  0  0  0  0
  -28.1075  -36.2613   24.6296 H   0  0  0  0  0  0
  -27.2294  -37.1434   25.8871 H   0  0  0  0  0  0
  -20.9486  -29.8750   21.6767 H   0  0  0  0  0  0
  -26.0156  -38.2816   24.1407 H   0  0  0  0  0  0
  -31.0677  -20.9358   19.7458 H   0  0  0  0  0  0
  -27.7502  -18.9479   21.2854 H   0  0  0  0  0  0
  -31.8999  -17.2027   18.9238 H   0  0  0  0  0  0
  -31.8642  -18.9419   18.9581 H   0  0  0  0  0  0
  -30.5820  -18.0604   18.1412 H   0  0  0  0  0  0
  -28.4163  -17.4956   19.0573 H   0  0  0  0  0  0
  -27.6434  -16.2104   19.8855 H   0  0  0  0  0  0
  -28.8342  -15.8707   18.6261 H   0  0  0  0  0  0
  -29.2842  -17.4818   22.4751 H   0  0  0  0  0  0
  -29.5900  -15.7859   22.6407 H   0  0  0  0  0  0
  -28.0512  -16.3354   22.0115 H   0  0  0  0  0  0
  -30.1074  -23.7220   19.9602 H   0  0  0  0  0  0
  -29.4521  -23.6789   21.5357 H   0  0  0  0  0  0
  -27.1720  -24.4027   20.6087 H   0  0  0  0  0  0
  -27.8519  -24.4739   19.0179 H   0  0  0  0  0  0
  -31.1680  -18.0882   21.1187 H   0  0  0  0  0  0
  1 25  1  0  0  0
  1 30  2  0  0  0
  1 80  1  0  0  0
  2  3  1  0  0  0
  2 25  1  0  0  0
  2 83  1  0  0  0
  2 84  1  0  0  0
  3  4  1  0  0  0
  3 85  1  0  0  0
  3 86  1  0  0  0
  4  5  1  0  0  0
  4 87  1  0  0  0
  4 88  1  0  0  0
  5  6  1  0  0  0
  5 26  1  0  0  0
  5 89  1  0  0  0
  6 25  1  0  0  0
  6 90  1  0  0  0
  6 91  1  0  0  0
  7  8  2  0  0  0
  7 26  1  0  0  0
  7 29  1  0  0  0
  8  9  1  0  0  0
  8 22  1  0  0  0
  9 10  1  0  0  0
  9 27  2  0  0  0
 10 11  2  0  0  0
 10 15  1  0  0  0
 11 12  1  0  0  0
 11 92  1  0  0  0
 12 13  2  0  0  0
 12 93  1  0  0  0
 13 14  1  0  0  0
 13 31  1  0  0  0
 14 15  2  0  0  0
 14 94  1  0  0  0
 15 95  1  0  0  0
 16 17  2  0  0  0
 16 21  1  0  0  0
 16 31  1  0  0  0
 17 18  1  0  0  0
 17 96  1  0  0  0
 18 19  2  0  0  0
 18 97  1  0  0  0
 19 20  1  0  0  0
 19 24  1  0  0  0
 20 21  2  0  0  0
 20 98  1  0  0  0
 21 23  1  0  0  0
 22 28  1  0  0  0
 22 32  2  0  0  0
 26 27  1  0  0  0
 28 99  1  0  0  0
 28100  1  0  0  0
 29101  1  0  0  0
 29102  1  0  0  0
 33 34  1  0  0  0
 33 66  1  0  0  0
 33 70  2  0  0  0
 34 36  1  0  0  0
 34 59  1  0  0  0
 34103  1  0  0  0
 35 44  2  0  0  0
 35 45  1  0  0  0
 35 68  1  0  0  0
 36 56  1  0  0  0
 36104  1  0  0  0
 37 39  1  0  0  0
 37 47  1  0  0  0
 37 66  1  0  0  0
 37105  1  0  0  0
 38 43  2  0  0  0
 38 46  1  0  0  0
 38 47  1  0  0  0
 39 64  1  0  0  0
 39 67  2  0  0  0
 40 52  1  0  0  0
 40 53  2  0  0  0
 40 58  1  0  0  0
 41106  1  0  0  0
 41107  1  0  0  0
 41108  1  0  0  0
 41 48  1  0  0  0
 42 43  1  0  0  0
 42 66  1  0  0  0
 42109  1  0  0  0
 42110  1  0  0  0
 43 44  1  0  0  0
 44111  1  0  0  0
 45 46  2  0  0  0
 45112  1  0  0  0
 46113  1  0  0  0
 47114  1  0  0  0
 47115  1  0  0  0
 48 56  1  0  0  0
 48 65  1  0  0  0
 48116  1  0  0  0
 49 50  1  0  0  0
 49 53  1  0  0  0
 49 64  1  0  0  0
 49117  1  0  0  0
 50 51  1  0  0  0
 50118  1  0  0  0
 50119  1  0  0  0
 51 52  1  0  0  0
 51120  1  0  0  0
 51121  1  0  0  0
 52122  1  0  0  0
 52123  1  0  0  0
 53 54  1  0  0  0
 54 55  2  0  0  0
 54124  1  0  0  0
 55 57  1  0  0  0
 55125  1  0  0  0
 56 69  2  0  0  0
 57 58  2  0  0  0
 57126  1  0  0  0
 58127  1  0  0  0
 59 60  1  0  0  0
 59 61  1  0  0  0
 59 62  1  0  0  0
 60128  1  0  0  0
 60129  1  0  0  0
 60130  1  0  0  0
 61131  1  0  0  0
 61132  1  0  0  0
 61133  1  0  0  0
 62134  1  0  0  0
 62135  1  0  0  0
 62136  1  0  0  0
 63 65  1  0  0  0
 63137  1  0  0  0
 63138  1  0  0  0
 63139  1  0  0  0
 64140  1  0  0  0
 65141  1  0  0  0
 68 78  1  0  0  0
 71 73  2  0  0  0
 71 82  1  0  0  0
 71142  1  0  0  0
 72 81  2  0  0  0
 72 82  1  0  0  0
 72143  1  0  0  0
 73 77  1  0  0  0
 73 81  1  0  0  0
 74144  1  0  0  0
 74145  1  0  0  0
 74146  1  0  0  0
 74 79  1  0  0  0
 75147  1  0  0  0
 75148  1  0  0  0
 75149  1  0  0  0
 75 80  1  0  0  0
 76 80  1  0  0  0
 76150  1  0  0  0
 76151  1  0  0  0
 76152  1  0  0  0
 77 78  1  0  0  0
 77153  1  0  0  0
 77154  1  0  0  0
 78155  1  0  0  0
 78156  1  0  0  0
 79 80  1  0  0  0
 79 82  1  0  0  0
 79157  1  0  0  0
M  ISO  4   1 100  68 101  78 101  80 100
M  END
> <chiral flag>
0

> <version>
0

> <s_m_source_file>
/data/baiqing/PycharmProjects/Reinvent-master-3.2/result/LINK_invent/BTK/process_docking_weight1_custom_sum_contain_oxygen_bond_distance_aromatic_linkinvent_7_9_3/rearranged_h_0049.sdf

> <i_m_source_file_index>
5

> <r_mmod_Potential_Energy-OPLS-2005>
624.725463867188

> <r_mmod_Stretch_Energy-OPLS-2005>
287.188415527344

> <r_mmod_Bend_Energy-OPLS-2005>
277.62548828125

> <r_mmod_Torsional_Energy-OPLS-2005>
226.310699462891

> <r_mmod_Improper_Torsional_Energy-OPLS-2005>
5.1508846282959

> <r_mmod_Van_der_Waal_Energy-OPLS-2005>
122.068634033203

> <r_mmod_Electrostatic_Energy-OPLS-2005>
-293.027038574219

> <r_mmod_Solvation_Energy-OPLS-2005>
-206.708618164062

> <b_mmod_Minimization_Converged-OPLS-2005>
0

> <r_mmod_RMS_Derivative-OPLS-2005>
0.92820817232132

$$$$
5
                    3D
 Structure written by MMmdl.
168176  0  0  1  0            999 V2000
  -30.8392  -14.3189   20.7645 C   0  0  0  0  0  0
  -30.4067  -12.3243   19.3692 C   0  0  0  0  0  0
  -29.4678  -12.5523   18.1766 C   0  0  0  0  0  0
  -28.0024  -12.3785   18.6072 C   0  0  0  0  0  0
  -27.6640  -13.2016   19.8755 C   0  0  2  0  0  0
  -28.7071  -12.9674   20.9938 C   0  0  0  0  0  0
  -25.2601  -13.8150   20.5675 C   0  0  0  0  0  0
  -24.1849  -13.0434   20.9178 C   0  0  0  0  0  0
  -24.6392  -11.6897   20.8725 C   0  0  0  0  0  0
  -23.9052  -10.4288   21.0391 C   0  0  0  0  0  0
  -24.3608   -9.4208   21.9172 C   0  0  0  0  0  0
  -23.6281   -8.2246   22.0752 C   0  0  0  0  0  0
  -22.4262   -8.0279   21.3545 C   0  0  0  0  0  0
  -21.9897   -9.0250   20.4644 C   0  0  0  0  0  0
  -22.7222  -10.2130   20.3042 C   0  0  0  0  0  0
  -21.6852   -6.0728   22.5274 C   0  0  0  0  0  0
  -21.4014   -6.5636   23.8207 C   0  0  0  0  0  0
  -21.3660   -5.6790   24.9172 C   0  0  0  0  0  0
  -21.6044   -4.3051   24.7224 C   0  0  0  0  0  0
  -21.8819   -3.8140   23.4344 C   0  0  0  0  0  0
  -21.9193   -4.6956   22.3399 C   0  0  0  0  0  0
  -22.7870  -13.5237   21.1835 C   0  0  0  0  0  0
  -22.1660   -4.2142   21.0977 F   0  0  0  0  0  0
  -21.5631   -3.4534   25.7737 F   0  0  0  0  0  0
  -30.0489  -13.2552   20.4515 N   0  0  0  0  0  0
  -26.3036  -12.9313   20.3364 N   0  0  0  0  0  0
  -25.9321  -11.6478   20.5757 N   0  0  0  0  0  0
  -22.0504  -12.8234   22.0391 N   0  0  0  0  0  0
  -25.4339  -15.1865   20.4070 N   0  0  0  0  0  0
  -31.7532  -14.6890   20.0208 O   0  0  0  0  0  0
  -21.6633   -6.8872   21.4235 O   0  0  0  0  0  0
  -22.3569  -14.5549   20.6686 O   0  0  0  0  0  0
  -24.6143  -31.8688   23.2120 C   0  0  0  0  0  0
  -25.9034  -32.4833   23.8411 C   0  0  1  0  0  0
  -27.2313  -27.4525   20.0885 C   0  0  0  0  0  0
  -25.5899  -33.8624   24.2346 N   0  0  0  0  0  0
  -23.4022  -30.4947   21.5510 C   0  0  2  0  0  0
  -24.8504  -28.9701   20.1059 C   0  0  0  0  0  0
  -22.7423  -29.4658   22.4978 C   0  0  0  0  0  0
  -18.0281  -28.1365   22.8489 C   0  0  0  0  0  0
  -24.1486  -36.7310   23.2644 C   0  0  0  0  0  0
  -25.9309  -30.8402   21.3640 C   0  0  0  0  0  0
  -26.0103  -29.4786   20.7053 C   0  0  0  0  0  0
  -27.2079  -28.7271   20.6962 C   0  0  0  0  0  0
  -26.0632  -26.9681   19.4606 C   0  0  0  0  0  0
  -24.8716  -27.7133   19.4781 C   0  0  0  0  0  0
  -23.6105  -29.8334   20.1626 C   0  0  0  0  0  0
  -25.4100  -36.3111   24.0352 C   0  0  1  0  0  0
  -20.5873  -28.3649   23.1308 C   0  0  2  0  0  0
  -20.6759  -26.9384   22.5410 C   0  0  0  0  0  0
  -19.5742  -26.6368   21.5205 C   0  0  0  0  0  0
  -18.1921  -26.7912   22.1613 C   0  0  0  0  0  0
  -19.1533  -28.8822   23.2898 C   0  0  0  0  0  0
  -18.9466  -30.1433   23.8901 C   0  0  0  0  0  0
  -17.6467  -30.6569   24.0565 C   0  0  0  0  0  0
  -25.9025  -34.9479   23.5135 C   0  0  0  0  0  0
  -16.5355  -29.9076   23.6322 C   0  0  0  0  0  0
  -16.7272  -28.6494   23.0334 C   0  0  0  0  0  0
  -26.4465  -31.6606   25.0731 C   0  0  0  0  0  0
  -25.3745  -31.3712   26.1494 C   0  0  0  0  0  0
  -27.0311  -30.3063   24.6085 C   0  0  0  0  0  0
  -27.6043  -32.4320   25.7489 C   0  0  0  0  0  0
  -27.5575  -37.1809   24.8470 C   0  0  0  0  0  0
  -21.4149  -29.3030   22.3730 N   0  0  0  0  0  0
  -26.4287  -37.3790   23.9415 N   0  0  0  0  0  0
  -24.6669  -31.0811   22.1010 N   0  0  0  0  0  0
  -23.4206  -28.8189   23.3004 O   0  0  0  0  0  0
  -28.3522  -26.6550   20.1481 O   0  0  0  0  0  0
  -26.5575  -34.8934   22.4697 O   0  0  0  0  0  0
  -23.5331  -32.1420   23.7519 O   0  0  0  0  0  0
  -26.8363  -21.6454   22.5213 C   0  0  0  0  0  0
  -27.3356  -22.8739   22.0780 C   0  0  0  0  0  0
  -27.4171  -20.4585   22.0473 C   0  0  0  0  0  0
  -28.3944  -22.8978   21.1465 C   0  0  0  0  0  0
  -28.5261  -20.5526   21.1685 C   0  0  0  0  0  0
  -26.7996  -19.1516   22.5223 C   0  0  0  0  0  0
  -32.0943  -14.9498   22.8769 C   0  0  0  0  0  0
  -29.5019  -16.6925   23.4406 C   0  0  0  0  0  0
  -28.8854  -24.2056   20.4997 C   0  0  0  0  0  0
  -29.3045  -19.3180   20.7017 C   0  0  0  0  0  0
  -30.4272  -18.9317   21.6911 C   0  0  0  0  0  0
  -30.9931  -17.4821   21.5887 C   0  0  0  0  0  0
  -28.1267  -25.4784   20.9496 C   0  0  0  0  0  0
  -30.7276  -15.0052   22.1500 C   0  0  1  0  0  0
  -28.9931  -21.7510   20.7322 N   0  0  0  0  0  0
  -30.1179  -16.3803   22.1227 N   0  3  1  0  0  0
  -31.4470  -12.4251   19.0547 H   0  0  0  0  0  0
  -30.3108  -11.2993   19.7301 H   0  0  0  0  0  0
  -29.7061  -11.8577   17.3701 H   0  0  0  0  0  0
  -29.6199  -13.5547   17.7738 H   0  0  0  0  0  0
  -27.8303  -11.3178   18.7948 H   0  0  0  0  0  0
  -27.3348  -12.6553   17.7900 H   0  0  0  0  0  0
  -27.7151  -14.2529   19.5921 H   0  0  0  0  0  0
  -28.6704  -11.9346   21.3436 H   0  0  0  0  0  0
  -28.4239  -13.5825   21.8453 H   0  0  0  0  0  0
  -25.2754   -9.5686   22.4739 H   0  0  0  0  0  0
  -23.9987   -7.4643   22.7475 H   0  0  0  0  0  0
  -21.0828   -8.8762   19.8953 H   0  0  0  0  0  0
  -22.3675  -10.9663   19.6146 H   0  0  0  0  0  0
  -21.2002   -7.6145   23.9710 H   0  0  0  0  0  0
  -21.1482   -6.0520   25.9078 H   0  0  0  0  0  0
  -22.0596   -2.7599   23.2844 H   0  0  0  0  0  0
  -22.4107  -11.9883   22.4767 H   0  0  0  0  0  0
  -21.1122  -13.1266   22.2586 H   0  0  0  0  0  0
  -24.6570  -15.8332   20.4874 H   0  0  0  0  0  0
  -26.2644  -15.6145   20.0186 H   0  0  0  0  0  0
  -26.7118  -32.5543   23.1189 H   0  0  0  0  0  0
  -25.0094  -33.9793   25.0521 H   0  0  0  0  0  0
  -22.6901  -31.3111   21.4152 H   0  0  0  0  0  0
  -23.3747  -35.9643   23.3312 H   0  0  0  0  0  0
  -24.3589  -36.8898   22.2057 H   0  0  0  0  0  0
  -23.7242  -37.6523   23.6642 H   0  0  0  0  0  0
  -26.0445  -31.6116   20.6006 H   0  0  0  0  0  0
  -26.8182  -30.8885   21.9830 H   0  0  0  0  0  0
  -28.0988  -29.1079   21.1755 H   0  0  0  0  0  0
  -26.0688  -25.9989   18.9804 H   0  0  0  0  0  0
  -23.9832  -27.3180   19.0050 H   0  0  0  0  0  0
  -23.7184  -30.6124   19.4071 H   0  0  0  0  0  0
  -22.7353  -29.2539   19.8631 H   0  0  0  0  0  0
  -25.1278  -36.1972   25.0843 H   0  0  0  0  0  0
  -20.9963  -28.3197   24.1429 H   0  0  0  0  0  0
  -20.5635  -26.2259   23.3598 H   0  0  0  0  0  0
  -21.6637  -26.7396   22.1224 H   0  0  0  0  0  0
  -19.6902  -25.6280   21.1222 H   0  0  0  0  0  0
  -19.6685  -27.3186   20.6747 H   0  0  0  0  0  0
  -17.4193  -26.6667   21.4015 H   0  0  0  0  0  0
  -18.0322  -26.0049   22.9004 H   0  0  0  0  0  0
  -19.7948  -30.7249   24.2249 H   0  0  0  0  0  0
  -17.5030  -31.6249   24.5168 H   0  0  0  0  0  0
  -15.5357  -30.2980   23.7645 H   0  0  0  0  0  0
  -15.8674  -28.0828   22.7020 H   0  0  0  0  0  0
  -24.5917  -30.7050   25.7849 H   0  0  0  0  0  0
  -24.8946  -32.2873   26.4947 H   0  0  0  0  0  0
  -25.8111  -30.8892   27.0249 H   0  0  0  0  0  0
  -26.2864  -29.6822   24.1134 H   0  0  0  0  0  0
  -27.4121  -29.7287   25.4513 H   0  0  0  0  0  0
  -27.8669  -30.4425   23.9217 H   0  0  0  0  0  0
  -27.2669  -33.3611   26.2094 H   0  0  0  0  0  0
  -28.3836  -32.6882   25.0301 H   0  0  0  0  0  0
  -28.0733  -31.8432   26.5383 H   0  0  0  0  0  0
  -28.2595  -38.0100   24.7496 H   0  0  0  0  0  0
  -28.1058  -36.2629   24.6301 H   0  0  0  0  0  0
  -27.2299  -37.1462   25.8875 H   0  0  0  0  0  0
  -20.9290  -29.8799   21.7008 H   0  0  0  0  0  0
  -26.0174  -38.2867   24.1408 H   0  0  0  0  0  0
  -26.0021  -21.6193   23.2084 H   0  0  0  0  0  0
  -26.8593  -23.7687   22.4489 H   0  0  0  0  0  0
  -25.7136  -19.2166   22.4484 H   0  0  0  0  0  0
  -27.0402  -18.9804   23.5718 H   0  0  0  0  0  0
  -27.0942  -18.2759   21.9510 H   0  0  0  0  0  0
  -32.0400  -15.3690   23.8808 H   0  0  0  0  0  0
  -32.8832  -15.4707   22.3351 H   0  0  0  0  0  0
  -32.4235  -13.9159   22.9873 H   0  0  0  0  0  0
  -28.8236  -17.5367   23.3812 H   0  0  0  0  0  0
  -30.2583  -16.9256   24.1908 H   0  0  0  0  0  0
  -28.9002  -15.8651   23.8175 H   0  0  0  0  0  0
  -28.7772  -24.0974   19.4205 H   0  0  0  0  0  0
  -29.9515  -24.3232   20.6933 H   0  0  0  0  0  0
  -29.7444  -19.5197   19.7231 H   0  0  0  0  0  0
  -28.6279  -18.4861   20.5265 H   0  0  0  0  0  0
  -30.1104  -19.1446   22.7104 H   0  0  0  0  0  0
  -31.2473  -19.6327   21.5297 H   0  0  0  0  0  0
  -31.9273  -17.4863   22.1496 H   0  0  0  0  0  0
  -31.2694  -17.2733   20.5548 H   0  0  0  0  0  0
  -28.3763  -25.7092   21.9862 H   0  0  0  0  0  0
  -27.0657  -25.2332   20.9509 H   0  0  0  0  0  0
  -30.0968  -14.3700   22.7658 H   0  0  0  0  0  0
  -29.3472  -16.2998   21.4762 H   0  0  0  0  0  0
  1 25  1  0  0  0
  1 30  2  0  0  0
  1 84  1  0  0  0
  2  3  1  0  0  0
  2 25  1  0  0  0
  2 87  1  0  0  0
  2 88  1  0  0  0
  3  4  1  0  0  0
  3 89  1  0  0  0
  3 90  1  0  0  0
  4  5  1  0  0  0
  4 91  1  0  0  0
  4 92  1  0  0  0
  5  6  1  0  0  0
  5 26  1  0  0  0
  5 93  1  0  0  0
  6 25  1  0  0  0
  6 94  1  0  0  0
  6 95  1  0  0  0
  7  8  2  0  0  0
  7 26  1  0  0  0
  7 29  1  0  0  0
  8  9  1  0  0  0
  8 22  1  0  0  0
  9 10  1  0  0  0
  9 27  2  0  0  0
 10 11  2  0  0  0
 10 15  1  0  0  0
 11 12  1  0  0  0
 11 96  1  0  0  0
 12 13  2  0  0  0
 12 97  1  0  0  0
 13 14  1  0  0  0
 13 31  1  0  0  0
 14 15  2  0  0  0
 14 98  1  0  0  0
 15 99  1  0  0  0
 16 17  2  0  0  0
 16 21  1  0  0  0
 16 31  1  0  0  0
 17 18  1  0  0  0
 17100  1  0  0  0
 18 19  2  0  0  0
 18101  1  0  0  0
 19 20  1  0  0  0
 19 24  1  0  0  0
 20 21  2  0  0  0
 20102  1  0  0  0
 21 23  1  0  0  0
 22 28  1  0  0  0
 22 32  2  0  0  0
 26 27  1  0  0  0
 28103  1  0  0  0
 28104  1  0  0  0
 29105  1  0  0  0
 29106  1  0  0  0
 33 34  1  0  0  0
 33 66  1  0  0  0
 33 70  2  0  0  0
 34 36  1  0  0  0
 34 59  1  0  0  0
 34107  1  0  0  0
 35 44  2  0  0  0
 35 45  1  0  0  0
 35 68  1  0  0  0
 36 56  1  0  0  0
 36108  1  0  0  0
 37 39  1  0  0  0
 37 47  1  0  0  0
 37 66  1  0  0  0
 37109  1  0  0  0
 38 43  2  0  0  0
 38 46  1  0  0  0
 38 47  1  0  0  0
 39 64  1  0  0  0
 39 67  2  0  0  0
 40 52  1  0  0  0
 40 53  2  0  0  0
 40 58  1  0  0  0
 41110  1  0  0  0
 41111  1  0  0  0
 41112  1  0  0  0
 41 48  1  0  0  0
 42 43  1  0  0  0
 42 66  1  0  0  0
 42113  1  0  0  0
 42114  1  0  0  0
 43 44  1  0  0  0
 44115  1  0  0  0
 45 46  2  0  0  0
 45116  1  0  0  0
 46117  1  0  0  0
 47118  1  0  0  0
 47119  1  0  0  0
 48 56  1  0  0  0
 48 65  1  0  0  0
 48120  1  0  0  0
 49 50  1  0  0  0
 49 53  1  0  0  0
 49 64  1  0  0  0
 49121  1  0  0  0
 50 51  1  0  0  0
 50122  1  0  0  0
 50123  1  0  0  0
 51 52  1  0  0  0
 51124  1  0  0  0
 51125  1  0  0  0
 52126  1  0  0  0
 52127  1  0  0  0
 53 54  1  0  0  0
 54 55  2  0  0  0
 54128  1  0  0  0
 55 57  1  0  0  0
 55129  1  0  0  0
 56 69  2  0  0  0
 57 58  2  0  0  0
 57130  1  0  0  0
 58131  1  0  0  0
 59 60  1  0  0  0
 59 61  1  0  0  0
 59 62  1  0  0  0
 60132  1  0  0  0
 60133  1  0  0  0
 60134  1  0  0  0
 61135  1  0  0  0
 61136  1  0  0  0
 61137  1  0  0  0
 62138  1  0  0  0
 62139  1  0  0  0
 62140  1  0  0  0
 63 65  1  0  0  0
 63141  1  0  0  0
 63142  1  0  0  0
 63143  1  0  0  0
 64144  1  0  0  0
 65145  1  0  0  0
 68 83  1  0  0  0
 71 72  2  0  0  0
 71 73  1  0  0  0
 71146  1  0  0  0
 72 74  1  0  0  0
 72147  1  0  0  0
 73 75  2  0  0  0
 73 76  1  0  0  0
 74 79  1  0  0  0
 74 85  2  0  0  0
 75 80  1  0  0  0
 75 85  1  0  0  0
 76148  1  0  0  0
 76149  1  0  0  0
 76150  1  0  0  0
 77151  1  0  0  0
 77152  1  0  0  0
 77153  1  0  0  0
 77 84  1  0  0  0
 78154  1  0  0  0
 78155  1  0  0  0
 78156  1  0  0  0
 78 86  1  0  0  0
 79 83  1  0  0  0
 79157  1  0  0  0
 79158  1  0  0  0
 80 81  1  0  0  0
 80159  1  0  0  0
 80160  1  0  0  0
 81 82  1  0  0  0
 81161  1  0  0  0
 81162  1  0  0  0
 82 86  1  0  0  0
 82163  1  0  0  0
 82164  1  0  0  0
 83165  1  0  0  0
 83166  1  0  0  0
 84 86  1  0  0  0
 84167  1  0  0  0
 86168  1  0  0  0
M  CHG  1  86   1
M  ISO  4   1 100  68 101  83 101  84 100
M  END
> <chiral flag>
0

> <version>
0

> <s_m_source_file>
/data/baiqing/PycharmProjects/Reinvent-master-3.2/result/LINK_invent/BTK/process_docking_weight1_custom_sum_contain_oxygen_bond_distance_aromatic_linkinvent_7_9_3/rearranged_h_0049.sdf

> <i_m_source_file_index>
6

> <r_mmod_Potential_Energy-OPLS-2005>
-270.059143066406

> <r_mmod_Stretch_Energy-OPLS-2005>
42.0941200256348

> <r_mmod_Bend_Energy-OPLS-2005>
107.675994873047

> <r_mmod_Torsional_Energy-OPLS-2005>
230.121047973633

> <r_mmod_Improper_Torsional_Energy-OPLS-2005>
3.21887230873108

> <r_mmod_Van_der_Waal_Energy-OPLS-2005>
166.542999267578

> <r_mmod_Electrostatic_Energy-OPLS-2005>
-392.558715820312

> <r_mmod_Solvation_Energy-OPLS-2005>
-439.787445068359

> <b_mmod_Minimization_Converged-OPLS-2005>
0

> <r_mmod_RMS_Derivative-OPLS-2005>
1.29813587665558

$$$$
6
                    3D
 Structure written by MMmdl.
161169  0  0  1  0            999 V2000
  -30.7215  -14.6706   20.5462 C   0  0  0  0  0  0
  -30.4273  -12.4405   19.4578 C   0  0  0  0  0  0
  -29.4876  -12.4816   18.2345 C   0  0  0  0  0  0
  -28.0343  -12.2462   18.6776 C   0  0  0  0  0  0
  -27.6332  -13.1733   19.8433 C   0  0  2  0  0  0
  -28.6923  -13.1453   20.9783 C   0  0  0  0  0  0
  -25.2516  -13.7973   20.5737 C   0  0  0  0  0  0
  -24.1752  -13.0319   20.9188 C   0  0  0  0  0  0
  -24.6270  -11.6800   20.8768 C   0  0  0  0  0  0
  -23.8944  -10.4209   21.0434 C   0  0  0  0  0  0
  -24.3511   -9.4158   21.9206 C   0  0  0  0  0  0
  -23.6201   -8.2189   22.0784 C   0  0  0  0  0  0
  -22.4191   -8.0214   21.3548 C   0  0  0  0  0  0
  -21.9799   -9.0193   20.4662 C   0  0  0  0  0  0
  -22.7132  -10.2070   20.3068 C   0  0  0  0  0  0
  -21.6821   -6.0659   22.5248 C   0  0  0  0  0  0
  -21.4007   -6.5591   23.8170 C   0  0  0  0  0  0
  -21.3670   -5.6761   24.9142 C   0  0  0  0  0  0
  -21.6062   -4.3024   24.7219 C   0  0  0  0  0  0
  -21.8832   -3.8086   23.4349 C   0  0  0  0  0  0
  -21.9192   -4.6901   22.3385 C   0  0  0  0  0  0
  -22.7764  -13.5175   21.1794 C   0  0  0  0  0  0
  -22.1662   -4.2081   21.0975 F   0  0  0  0  0  0
  -21.5683   -3.4528   25.7750 F   0  0  0  0  0  0
  -30.0008  -13.4981   20.4088 N   0  0  0  0  0  0
  -26.2879  -12.9076   20.3299 N   0  0  0  0  0  0
  -25.9183  -11.6290   20.5782 N   0  0  0  0  0  0
  -22.0380  -12.8225   22.0390 N   0  0  0  0  0  0
  -25.4234  -15.1657   20.4220 N   0  0  0  0  0  0
  -31.8855  -14.6935   20.1329 O   0  0  0  0  0  0
  -21.6602   -6.8785   21.4199 O   0  0  0  0  0  0
  -22.3509  -14.5499   20.6639 O   0  0  0  0  0  0
  -24.6189  -31.8633   23.2043 C   0  0  0  0  0  0
  -25.9052  -32.4805   23.8372 C   0  0  1  0  0  0
  -27.2546  -27.3816   20.1355 C   0  0  0  0  0  0
  -25.5892  -33.8607   24.2318 N   0  0  0  0  0  0
  -23.4127  -30.4808   21.5462 C   0  0  2  0  0  0
  -24.8672  -28.9271   20.1296 C   0  0  0  0  0  0
  -22.7433  -29.4633   22.4983 C   0  0  0  0  0  0
  -18.0273  -28.1376   22.8492 C   0  0  0  0  0  0
  -24.1481  -36.7302   23.2637 C   0  0  0  0  0  0
  -25.9429  -30.8168   21.3612 C   0  0  0  0  0  0
  -26.0273  -29.4378   20.7265 C   0  0  0  0  0  0
  -27.2242  -28.6758   20.7204 C   0  0  0  0  0  0
  -26.0765  -26.8905   19.5381 C   0  0  0  0  0  0
  -24.8887  -27.6527   19.5325 C   0  0  0  0  0  0
  -23.6294  -29.8002   20.1665 C   0  0  0  0  0  0
  -25.4107  -36.3110   24.0342 C   0  0  1  0  0  0
  -20.5865  -28.3670   23.1310 C   0  0  2  0  0  0
  -20.6762  -26.9402   22.5425 C   0  0  0  0  0  0
  -19.5746  -26.6391   21.5208 C   0  0  0  0  0  0
  -18.1925  -26.7929   22.1622 C   0  0  0  0  0  0
  -19.1525  -28.8845   23.2902 C   0  0  0  0  0  0
  -18.9447  -30.1441   23.8915 C   0  0  0  0  0  0
  -17.6451  -30.6582   24.0572 C   0  0  0  0  0  0
  -25.9030  -34.9468   23.5142 C   0  0  0  0  0  0
  -16.5340  -29.9083   23.6324 C   0  0  0  0  0  0
  -16.7265  -28.6503   23.0349 C   0  0  0  0  0  0
  -26.4477  -31.6578   25.0698 C   0  0  0  0  0  0
  -25.3751  -31.3681   26.1450 C   0  0  0  0  0  0
  -27.0295  -30.3025   24.6062 C   0  0  0  0  0  0
  -27.6073  -32.4283   25.7455 C   0  0  0  0  0  0
  -27.5579  -37.1810   24.8478 C   0  0  0  0  0  0
  -21.4152  -29.3038   22.3714 N   0  0  0  0  0  0
  -26.4295  -37.3794   23.9406 N   0  0  0  0  0  0
  -24.6773  -31.0690   22.0961 N   0  0  0  0  0  0
  -23.4171  -28.8180   23.3053 O   0  0  0  0  0  0
  -28.4277  -26.6498   20.0269 O   0  0  0  0  0  0
  -26.5601  -34.8920   22.4697 O   0  0  0  0  0  0
  -23.5372  -32.1390   23.7395 O   0  0  0  0  0  0
  -30.0151  -19.3562   21.7396 C   0  0  0  0  0  0
  -30.8194  -18.3821   21.1895 C   0  0  0  0  0  0
  -26.8686  -17.6266   21.9147 C   0  0  0  0  0  0
  -31.0898  -16.9234   21.6318 C   0  0  0  0  0  0
  -27.9765  -16.5770   22.1083 C   0  0  0  0  0  0
  -29.5021  -22.9824   20.9143 C   0  0  0  0  0  0
  -28.5174  -24.0857   20.3527 C   0  0  0  0  0  0
  -29.0154  -21.5135   20.6664 C   0  0  0  0  0  0
  -28.8333  -16.3571   20.8365 C   0  0  0  0  0  0
  -28.6848  -25.5384   20.9268 C   0  0  0  0  0  0
  -31.3324  -18.9136   20.0032 N   0  0  0  0  0  0
  -30.8239  -20.0966   19.7834 N   0  0  0  0  0  0
  -29.9761  -20.3869   20.8036 N   0  0  0  0  0  0
  -30.1874  -15.8249   21.1113 N   0  0  0  0  0  0
  -31.4604  -12.5541   19.1261 H   0  0  0  0  0  0
  -30.3880  -11.4661   19.9443 H   0  0  0  0  0  0
  -29.7786  -11.7284   17.5021 H   0  0  0  0  0  0
  -29.5724  -13.4450   17.7302 H   0  0  0  0  0  0
  -27.9497  -11.2060   18.9963 H   0  0  0  0  0  0
  -27.3515  -12.3705   17.8357 H   0  0  0  0  0  0
  -27.5776  -14.1307   19.3477 H   0  0  0  0  0  0
  -28.7311  -12.1477   21.4163 H   0  0  0  0  0  0
  -28.4293  -13.8049   21.7995 H   0  0  0  0  0  0
  -25.2668   -9.5664   22.4743 H   0  0  0  0  0  0
  -23.9947   -7.4598   22.7496 H   0  0  0  0  0  0
  -21.0734   -8.8706   19.8934 H   0  0  0  0  0  0
  -22.3627  -10.9617   19.6169 H   0  0  0  0  0  0
  -21.1979   -7.6097   23.9656 H   0  0  0  0  0  0
  -21.1493   -6.0489   25.9043 H   0  0  0  0  0  0
  -22.0591   -2.7534   23.2874 H   0  0  0  0  0  0
  -22.3966  -11.9899   22.4833 H   0  0  0  0  0  0
  -21.1037  -13.1306   22.2663 H   0  0  0  0  0  0
  -24.6890  -15.8092   20.6921 H   0  0  0  0  0  0
  -26.3208  -15.6166   20.3090 H   0  0  0  0  0  0
  -26.7122  -32.5530   23.1136 H   0  0  0  0  0  0
  -25.0047  -33.9766   25.0476 H   0  0  0  0  0  0
  -22.7042  -31.2977   21.3972 H   0  0  0  0  0  0
  -23.3730  -35.9654   23.3361 H   0  0  0  0  0  0
  -24.3560  -36.8841   22.2039 H   0  0  0  0  0  0
  -23.7251  -37.6536   23.6600 H   0  0  0  0  0  0
  -26.0468  -31.5713   20.5789 H   0  0  0  0  0  0
  -26.8338  -30.8901   21.9724 H   0  0  0  0  0  0
  -28.1264  -29.0816   21.1580 H   0  0  0  0  0  0
  -26.0890  -25.9204   19.0628 H   0  0  0  0  0  0
  -23.9998  -27.2524   19.0636 H   0  0  0  0  0  0
  -23.7440  -30.5693   19.4018 H   0  0  0  0  0  0
  -22.7543  -29.2196   19.8701 H   0  0  0  0  0  0
  -25.1279  -36.1984   25.0839 H   0  0  0  0  0  0
  -20.9965  -28.3237   24.1426 H   0  0  0  0  0  0
  -20.5655  -26.2266   23.3603 H   0  0  0  0  0  0
  -21.6636  -26.7438   22.1219 H   0  0  0  0  0  0
  -19.6906  -25.6313   21.1214 H   0  0  0  0  0  0
  -19.6681  -27.3220   20.6755 H   0  0  0  0  0  0
  -17.4190  -26.6672   21.4022 H   0  0  0  0  0  0
  -18.0330  -26.0068   22.9015 H   0  0  0  0  0  0
  -19.7922  -30.7260   24.2291 H   0  0  0  0  0  0
  -17.5002  -31.6257   24.5173 H   0  0  0  0  0  0
  -15.5339  -30.2993   23.7644 H   0  0  0  0  0  0
  -15.8661  -28.0828   22.7059 H   0  0  0  0  0  0
  -24.5941  -30.7002   25.7789 H   0  0  0  0  0  0
  -24.8913  -32.2826   26.4899 H   0  0  0  0  0  0
  -25.8115  -30.8860   27.0206 H   0  0  0  0  0  0
  -26.2817  -29.6786   24.1151 H   0  0  0  0  0  0
  -27.4103  -29.7262   25.4499 H   0  0  0  0  0  0
  -27.8638  -30.4338   23.9169 H   0  0  0  0  0  0
  -27.2728  -33.3591   26.2049 H   0  0  0  0  0  0
  -28.3877  -32.6818   25.0265 H   0  0  0  0  0  0
  -28.0746  -31.8380   26.5348 H   0  0  0  0  0  0
  -28.2643  -38.0062   24.7480 H   0  0  0  0  0  0
  -28.1022  -36.2596   24.6360 H   0  0  0  0  0  0
  -27.2287  -37.1544   25.8878 H   0  0  0  0  0  0
  -20.9308  -29.8728   21.6908 H   0  0  0  0  0  0
  -26.0192  -38.2875   24.1387 H   0  0  0  0  0  0
  -29.4021  -19.3567   22.6319 H   0  0  0  0  0  0
  -26.0044  -17.4119   22.5483 H   0  0  0  0  0  0
  -26.5146  -17.6771   20.8840 H   0  0  0  0  0  0
  -27.2215  -18.6228   22.1790 H   0  0  0  0  0  0
  -31.0341  -16.8772   22.7185 H   0  0  0  0  0  0
  -32.1406  -16.6995   21.4406 H   0  0  0  0  0  0
  -27.5142  -15.6443   22.4201 H   0  0  0  0  0  0
  -28.5975  -16.8895   22.9483 H   0  0  0  0  0  0
  -29.6551  -23.1245   21.9861 H   0  0  0  0  0  0
  -30.4812  -23.1251   20.4534 H   0  0  0  0  0  0
  -27.4846  -23.7710   20.5173 H   0  0  0  0  0  0
  -28.6368  -24.1135   19.2683 H   0  0  0  0  0  0
  -28.6171  -21.4492   19.6527 H   0  0  0  0  0  0
  -28.1678  -21.3116   21.3229 H   0  0  0  0  0  0
  -28.8789  -17.2856   20.2690 H   0  0  0  0  0  0
  -28.3060  -15.7537   20.1293 H   0  0  0  0  0  0
  -29.7308  -25.6555   21.2141 H   0  0  0  0  0  0
  -28.1211  -25.6398   21.8553 H   0  0  0  0  0  0
  1 25  1  0  0  0
  1 30  2  0  0  0
  1 84  1  0  0  0
  2  3  1  0  0  0
  2 25  1  0  0  0
  2 85  1  0  0  0
  2 86  1  0  0  0
  3  4  1  0  0  0
  3 87  1  0  0  0
  3 88  1  0  0  0
  4  5  1  0  0  0
  4 89  1  0  0  0
  4 90  1  0  0  0
  5  6  1  0  0  0
  5 26  1  0  0  0
  5 91  1  0  0  0
  6 25  1  0  0  0
  6 92  1  0  0  0
  6 93  1  0  0  0
  7  8  2  0  0  0
  7 26  1  0  0  0
  7 29  1  0  0  0
  8  9  1  0  0  0
  8 22  1  0  0  0
  9 10  1  0  0  0
  9 27  2  0  0  0
 10 11  2  0  0  0
 10 15  1  0  0  0
 11 12  1  0  0  0
 11 94  1  0  0  0
 12 13  2  0  0  0
 12 95  1  0  0  0
 13 14  1  0  0  0
 13 31  1  0  0  0
 14 15  2  0  0  0
 14 96  1  0  0  0
 15 97  1  0  0  0
 16 17  2  0  0  0
 16 21  1  0  0  0
 16 31  1  0  0  0
 17 18  1  0  0  0
 17 98  1  0  0  0
 18 19  2  0  0  0
 18 99  1  0  0  0
 19 20  1  0  0  0
 19 24  1  0  0  0
 20 21  2  0  0  0
 20100  1  0  0  0
 21 23  1  0  0  0
 22 28  1  0  0  0
 22 32  2  0  0  0
 26 27  1  0  0  0
 28101  1  0  0  0
 28102  1  0  0  0
 29103  1  0  0  0
 29104  1  0  0  0
 33 34  1  0  0  0
 33 66  1  0  0  0
 33 70  2  0  0  0
 34 36  1  0  0  0
 34 59  1  0  0  0
 34105  1  0  0  0
 35 44  2  0  0  0
 35 45  1  0  0  0
 35 68  1  0  0  0
 36 56  1  0  0  0
 36106  1  0  0  0
 37 39  1  0  0  0
 37 47  1  0  0  0
 37 66  1  0  0  0
 37107  1  0  0  0
 38 43  2  0  0  0
 38 46  1  0  0  0
 38 47  1  0  0  0
 39 64  1  0  0  0
 39 67  2  0  0  0
 40 52  1  0  0  0
 40 53  2  0  0  0
 40 58  1  0  0  0
 41108  1  0  0  0
 41109  1  0  0  0
 41110  1  0  0  0
 41 48  1  0  0  0
 42 43  1  0  0  0
 42 66  1  0  0  0
 42111  1  0  0  0
 42112  1  0  0  0
 43 44  1  0  0  0
 44113  1  0  0  0
 45 46  2  0  0  0
 45114  1  0  0  0
 46115  1  0  0  0
 47116  1  0  0  0
 47117  1  0  0  0
 48 56  1  0  0  0
 48 65  1  0  0  0
 48118  1  0  0  0
 49 50  1  0  0  0
 49 53  1  0  0  0
 49 64  1  0  0  0
 49119  1  0  0  0
 50 51  1  0  0  0
 50120  1  0  0  0
 50121  1  0  0  0
 51 52  1  0  0  0
 51122  1  0  0  0
 51123  1  0  0  0
 52124  1  0  0  0
 52125  1  0  0  0
 53 54  1  0  0  0
 54 55  2  0  0  0
 54126  1  0  0  0
 55 57  1  0  0  0
 55127  1  0  0  0
 56 69  2  0  0  0
 57 58  2  0  0  0
 57128  1  0  0  0
 58129  1  0  0  0
 59 60  1  0  0  0
 59 61  1  0  0  0
 59 62  1  0  0  0
 60130  1  0  0  0
 60131  1  0  0  0
 60132  1  0  0  0
 61133  1  0  0  0
 61134  1  0  0  0
 61135  1  0  0  0
 62136  1  0  0  0
 62137  1  0  0  0
 62138  1  0  0  0
 63 65  1  0  0  0
 63139  1  0  0  0
 63140  1  0  0  0
 63141  1  0  0  0
 64142  1  0  0  0
 65143  1  0  0  0
 68 80  1  0  0  0
 71 72  2  0  0  0
 71 83  1  0  0  0
 71144  1  0  0  0
 72 74  1  0  0  0
 72 81  1  0  0  0
 73 75  1  0  0  0
 73145  1  0  0  0
 73146  1  0  0  0
 73147  1  0  0  0
 74 84  1  0  0  0
 74148  1  0  0  0
 74149  1  0  0  0
 75 79  1  0  0  0
 75150  1  0  0  0
 75151  1  0  0  0
 76 77  1  0  0  0
 76 78  1  0  0  0
 76152  1  0  0  0
 76153  1  0  0  0
 77 80  1  0  0  0
 77154  1  0  0  0
 77155  1  0  0  0
 78 83  1  0  0  0
 78156  1  0  0  0
 78157  1  0  0  0
 79 84  1  0  0  0
 79158  1  0  0  0
 79159  1  0  0  0
 80160  1  0  0  0
 80161  1  0  0  0
 81 82  2  0  0  0
 82 83  1  0  0  0
M  ISO  4   1 100  68 101  80 101  84 100
M  END
> <chiral flag>
0

> <version>
0

> <s_m_source_file>
/data/baiqing/PycharmProjects/Reinvent-master-3.2/result/LINK_invent/BTK/process_docking_weight1_custom_sum_contain_oxygen_bond_distance_aromatic_linkinvent_7_9_3/rearranged_h_0049.sdf

> <i_m_source_file_index>
7

> <r_mmod_Potential_Energy-OPLS-2005>
166.0830078125

> <r_mmod_Stretch_Energy-OPLS-2005>
66.9972381591797

> <r_mmod_Bend_Energy-OPLS-2005>
147.031265258789

> <r_mmod_Torsional_Energy-OPLS-2005>
322.425659179688

> <r_mmod_Improper_Torsional_Energy-OPLS-2005>
5.6579270362854

> <r_mmod_Van_der_Waal_Energy-OPLS-2005>
130.609069824219

> <r_mmod_Electrostatic_Energy-OPLS-2005>
-338.010192871094

> <r_mmod_Solvation_Energy-OPLS-2005>
-213.644744873047

> <b_mmod_Minimization_Converged-OPLS-2005>
0

> <r_mmod_RMS_Derivative-OPLS-2005>
4.58423566818237

$$$$
7
                    3D
 Structure written by MMmdl.
168176  0  0  1  0            999 V2000
  -30.5142  -15.0567   20.4763 C   0  0  0  0  0  0
  -30.4386  -12.6758   19.5194 C   0  0  0  0  0  0
  -29.5248  -12.5742   18.2725 C   0  0  0  0  0  0
  -28.0583  -12.3405   18.6815 C   0  0  0  0  0  0
  -27.6259  -13.2646   19.8514 C   0  0  2  0  0  0
  -28.6669  -13.2888   20.9909 C   0  0  0  0  0  0
  -25.2397  -13.8239   20.5724 C   0  0  0  0  0  0
  -24.1729  -13.0417   20.9219 C   0  0  0  0  0  0
  -24.6384  -11.6928   20.8735 C   0  0  0  0  0  0
  -23.9065  -10.4284   21.0388 C   0  0  0  0  0  0
  -24.3615   -9.4209   21.9168 C   0  0  0  0  0  0
  -23.6275   -8.2246   22.0756 C   0  0  0  0  0  0
  -22.4259   -8.0273   21.3543 C   0  0  0  0  0  0
  -21.9905   -9.0237   20.4642 C   0  0  0  0  0  0
  -22.7234  -10.2118   20.3035 C   0  0  0  0  0  0
  -21.6843   -6.0722   22.5284 C   0  0  0  0  0  0
  -21.4026   -6.5628   23.8227 C   0  0  0  0  0  0
  -21.3663   -5.6773   24.9189 C   0  0  0  0  0  0
  -21.6027   -4.3036   24.7231 C   0  0  0  0  0  0
  -21.8818   -3.8134   23.4356 C   0  0  0  0  0  0
  -21.9192   -4.6948   22.3408 C   0  0  0  0  0  0
  -22.7759  -13.5199   21.1878 C   0  0  0  0  0  0
  -22.1641   -4.2125   21.0986 F   0  0  0  0  0  0
  -21.5629   -3.4531   25.7757 F   0  0  0  0  0  0
  -29.9275  -13.7751   20.4093 N   0  0  0  0  0  0
  -26.2855  -12.9508   20.3312 N   0  0  0  0  0  0
  -25.9347  -11.6619   20.5752 N   0  0  0  0  0  0
  -22.0400  -12.8179   22.0421 N   0  0  0  0  0  0
  -25.4023  -15.1964   20.4136 N   0  0  0  0  0  0
  -31.6767  -15.1089   20.0500 O   0  0  0  0  0  0
  -21.6631   -6.8864   21.4241 O   0  0  0  0  0  0
  -22.3425  -14.5475   20.6690 O   0  0  0  0  0  0
  -24.6516  -31.8321   23.1835 C   0  0  0  0  0  0
  -25.9250  -32.4636   23.8231 C   0  0  1  0  0  0
  -27.2086  -27.0372   20.1623 C   0  0  0  0  0  0
  -25.5961  -33.8441   24.2176 N   0  0  0  0  0  0
  -23.4616  -30.4492   21.5311 C   0  0  2  0  0  0
  -24.9121  -28.8690   20.1063 C   0  0  0  0  0  0
  -22.7635  -29.4444   22.4823 C   0  0  0  0  0  0
  -18.0312  -28.1340   22.8463 C   0  0  0  0  0  0
  -24.1493  -36.7210   23.2648 C   0  0  0  0  0  0
  -26.0225  -30.6766   21.3974 C   0  0  0  0  0  0
  -26.0931  -29.2787   20.7389 C   0  0  0  0  0  0
  -27.2411  -28.3811   20.7500 C   0  0  0  0  0  0
  -26.0085  -26.7695   19.4628 C   0  0  0  0  0  0
  -24.8887  -27.6314   19.4478 C   0  0  0  0  0  0
  -23.6954  -29.7808   20.1512 C   0  0  0  0  0  0
  -25.4113  -36.2972   24.0327 C   0  0  1  0  0  0
  -20.5931  -28.3657   23.1196 C   0  0  2  0  0  0
  -20.6778  -26.9351   22.5366 C   0  0  0  0  0  0
  -19.5749  -26.6343   21.5165 C   0  0  0  0  0  0
  -18.1943  -26.7889   22.1598 C   0  0  0  0  0  0
  -19.1579  -28.8825   23.2808 C   0  0  0  0  0  0
  -18.9502  -30.1432   23.8818 C   0  0  0  0  0  0
  -17.6498  -30.6552   24.0525 C   0  0  0  0  0  0
  -25.9061  -34.9363   23.5055 C   0  0  0  0  0  0
  -16.5385  -29.9031   23.6324 C   0  0  0  0  0  0
  -16.7293  -28.6446   23.0347 C   0  0  0  0  0  0
  -26.4548  -31.6534   25.0702 C   0  0  0  0  0  0
  -25.3734  -31.3708   26.1410 C   0  0  0  0  0  0
  -27.0456  -30.2939   24.6316 C   0  0  0  0  0  0
  -27.6066  -32.4344   25.7477 C   0  0  0  0  0  0
  -27.5566  -37.1744   24.8472 C   0  0  0  0  0  0
  -21.4308  -29.3004   22.3609 N   0  0  0  0  0  0
  -26.4266  -37.3702   23.9440 N   0  0  0  0  0  0
  -24.7338  -31.0093   22.0920 N   0  0  0  0  0  0
  -23.4252  -28.7991   23.3017 O   0  0  0  0  0  0
  -28.2124  -25.9678   20.2537 O   0  0  0  0  0  0
  -26.5650  -34.8881   22.4630 O   0  0  0  0  0  0
  -23.5618  -32.1269   23.6985 O   0  0  0  0  0  0
  -30.0345  -20.5595   21.1491 C   0  0  0  0  0  0
  -28.6033  -20.1393   19.3259 C   0  0  0  0  0  0
  -29.3659  -22.0626   21.3509 C   0  0  0  0  0  0
  -27.9430  -21.6280   19.5054 C   0  0  0  0  0  0
  -29.2065  -19.3003   20.5562 C   0  0  1  0  0  0
  -28.7441  -22.8911   20.1112 C   0  0  1  0  0  0
  -26.6615  -16.0993   24.8985 C   0  0  0  0  0  0
  -26.7847  -24.1914   21.3204 C   0  0  0  0  0  0
  -29.9628  -17.7644   20.1982 C   0  0  0  0  0  0
  -28.0516  -15.9327   24.2682 C   0  0  0  0  0  0
  -28.1825  -16.4580   22.8195 C   0  0  0  0  0  0
  -29.6455  -16.3968   22.3175 C   0  0  0  0  0  0
  -27.8534  -24.3997   20.2287 C   0  0  1  0  0  0
  -29.8154  -16.2846   20.8488 N   0  0  0  0  0  0
  -31.4662  -12.8489   19.1968 H   0  0  0  0  0  0
  -30.4654  -11.7262   20.0579 H   0  0  0  0  0  0
  -29.8672  -11.7707   17.6194 H   0  0  0  0  0  0
  -29.5964  -13.4955   17.6903 H   0  0  0  0  0  0
  -27.9606  -11.2974   18.9810 H   0  0  0  0  0  0
  -27.3994  -12.4772   17.8221 H   0  0  0  0  0  0
  -27.5867  -14.2698   19.4301 H   0  0  0  0  0  0
  -28.7875  -12.2955   21.4274 H   0  0  0  0  0  0
  -28.3424  -13.9272   21.8073 H   0  0  0  0  0  0
  -25.2765   -9.5683   22.4740 H   0  0  0  0  0  0
  -23.9966   -7.4656   22.7513 H   0  0  0  0  0  0
  -21.0823   -8.8762   19.8953 H   0  0  0  0  0  0
  -22.3690  -10.9646   19.6132 H   0  0  0  0  0  0
  -21.2024   -7.6146   23.9723 H   0  0  0  0  0  0
  -21.1473   -6.0515   25.9089 H   0  0  0  0  0  0
  -22.0587   -2.7596   23.2874 H   0  0  0  0  0  0
  -22.4018  -11.9860   22.4833 H   0  0  0  0  0  0
  -21.1019  -13.1214   22.2629 H   0  0  0  0  0  0
  -24.6343  -15.8485   20.5272 H   0  0  0  0  0  0
  -26.2642  -15.6425   20.1250 H   0  0  0  0  0  0
  -26.7309  -32.5225   23.0943 H   0  0  0  0  0  0
  -25.0160  -33.9550   25.0367 H   0  0  0  0  0  0
  -22.7665  -31.2743   21.3734 H   0  0  0  0  0  0
  -23.3761  -35.9535   23.3281 H   0  0  0  0  0  0
  -24.3575  -36.8880   22.2064 H   0  0  0  0  0  0
  -23.7252  -37.6394   23.6719 H   0  0  0  0  0  0
  -26.1796  -31.4252   20.6188 H   0  0  0  0  0  0
  -26.8899  -30.7355   22.0421 H   0  0  0  0  0  0
  -28.1358  -28.6834   21.2794 H   0  0  0  0  0  0
  -25.8847  -25.8261   18.9541 H   0  0  0  0  0  0
  -23.9908  -27.3149   18.9334 H   0  0  0  0  0  0
  -23.8435  -30.5572   19.3983 H   0  0  0  0  0  0
  -22.8062  -29.2273   19.8382 H   0  0  0  0  0  0
  -25.1297  -36.1773   25.0817 H   0  0  0  0  0  0
  -21.0002  -28.3226   24.1314 H   0  0  0  0  0  0
  -20.5644  -26.2261   23.3585 H   0  0  0  0  0  0
  -21.6644  -26.7324   22.1176 H   0  0  0  0  0  0
  -19.6897  -25.6248   21.1186 H   0  0  0  0  0  0
  -19.6690  -27.3169   20.6698 H   0  0  0  0  0  0
  -17.4211  -26.6642   21.3994 H   0  0  0  0  0  0
  -18.0315  -26.0029   22.8984 H   0  0  0  0  0  0
  -19.7998  -30.7233   24.2174 H   0  0  0  0  0  0
  -17.5063  -31.6234   24.5118 H   0  0  0  0  0  0
  -15.5372  -30.2883   23.7705 H   0  0  0  0  0  0
  -15.8714  -28.0743   22.7059 H   0  0  0  0  0  0
  -24.5947  -30.7005   25.7748 H   0  0  0  0  0  0
  -24.8866  -32.2884   26.4735 H   0  0  0  0  0  0
  -25.8048  -30.8973   27.0249 H   0  0  0  0  0  0
  -26.3108  -29.6621   24.1331 H   0  0  0  0  0  0
  -27.4079  -29.7257   25.4884 H   0  0  0  0  0  0
  -27.9002  -30.4186   23.9666 H   0  0  0  0  0  0
  -27.2672  -33.3736   26.1871 H   0  0  0  0  0  0
  -28.3965  -32.6766   25.0342 H   0  0  0  0  0  0
  -28.0641  -31.8572   26.5531 H   0  0  0  0  0  0
  -28.2529  -38.0089   24.7547 H   0  0  0  0  0  0
  -28.1123  -36.2619   24.6272 H   0  0  0  0  0  0
  -27.2281  -37.1311   25.8871 H   0  0  0  0  0  0
  -20.9524  -29.8809   21.6872 H   0  0  0  0  0  0
  -26.0113  -38.2745   24.1519 H   0  0  0  0  0  0
  -30.4469  -20.2525   22.1102 H   0  0  0  0  0  0
  -30.9117  -20.6962   20.5131 H   0  0  0  0  0  0
  -29.3821  -20.2247   18.5669 H   0  0  0  0  0  0
  -27.8436  -19.5119   18.8607 H   0  0  0  0  0  0
  -30.1283  -22.6946   21.8075 H   0  0  0  0  0  0
  -28.5936  -21.9710   22.1166 H   0  0  0  0  0  0
  -27.0368  -21.4846   20.0963 H   0  0  0  0  0  0
  -27.5744  -21.9309   18.5278 H   0  0  0  0  0  0
  -28.3869  -19.0938   21.2411 H   0  0  0  0  0  0
  -29.5637  -23.0895   19.4197 H   0  0  0  0  0  0
  -26.6382  -15.6599   25.8995 H   0  0  0  0  0  0
  -25.8848  -15.6046   24.3152 H   0  0  0  0  0  0
  -26.3883  -17.1496   25.0070 H   0  0  0  0  0  0
  -26.3560  -23.1925   21.2822 H   0  0  0  0  0  0
  -25.9400  -24.8685   21.2251 H   0  0  0  0  0  0
  -27.2041  -24.3267   22.3166 H   0  0  0  0  0  0
  -31.0366  -17.9525   20.1528 H   0  0  0  0  0  0
  -29.7005  -17.5731   19.1578 H   0  0  0  0  0  0
  -28.3148  -14.8732   24.2855 H   0  0  0  0  0  0
  -28.7825  -16.4292   24.9098 H   0  0  0  0  0  0
  -27.8281  -17.4856   22.7743 H   0  0  0  0  0  0
  -27.5194  -15.8942   22.1648 H   0  0  0  0  0  0
  -30.1396  -15.5649   22.8255 H   0  0  0  0  0  0
  -30.1842  -17.2735   22.6779 H   0  0  0  0  0  0
  -27.3327  -24.3427   19.2747 H   0  0  0  0  0  0
  1 25  1  0  0  0
  1 30  2  0  0  0
  1 84  1  0  0  0
  2  3  1  0  0  0
  2 25  1  0  0  0
  2 85  1  0  0  0
  2 86  1  0  0  0
  3  4  1  0  0  0
  3 87  1  0  0  0
  3 88  1  0  0  0
  4  5  1  0  0  0
  4 89  1  0  0  0
  4 90  1  0  0  0
  5  6  1  0  0  0
  5 26  1  0  0  0
  5 91  1  0  0  0
  6 25  1  0  0  0
  6 92  1  0  0  0
  6 93  1  0  0  0
  7  8  2  0  0  0
  7 26  1  0  0  0
  7 29  1  0  0  0
  8  9  1  0  0  0
  8 22  1  0  0  0
  9 10  1  0  0  0
  9 27  2  0  0  0
 10 11  2  0  0  0
 10 15  1  0  0  0
 11 12  1  0  0  0
 11 94  1  0  0  0
 12 13  2  0  0  0
 12 95  1  0  0  0
 13 14  1  0  0  0
 13 31  1  0  0  0
 14 15  2  0  0  0
 14 96  1  0  0  0
 15 97  1  0  0  0
 16 17  2  0  0  0
 16 21  1  0  0  0
 16 31  1  0  0  0
 17 18  1  0  0  0
 17 98  1  0  0  0
 18 19  2  0  0  0
 18 99  1  0  0  0
 19 20  1  0  0  0
 19 24  1  0  0  0
 20 21  2  0  0  0
 20100  1  0  0  0
 21 23  1  0  0  0
 22 28  1  0  0  0
 22 32  2  0  0  0
 26 27  1  0  0  0
 28101  1  0  0  0
 28102  1  0  0  0
 29103  1  0  0  0
 29104  1  0  0  0
 33 34  1  0  0  0
 33 66  1  0  0  0
 33 70  2  0  0  0
 34 36  1  0  0  0
 34 59  1  0  0  0
 34105  1  0  0  0
 35 44  2  0  0  0
 35 45  1  0  0  0
 35 68  1  0  0  0
 36 56  1  0  0  0
 36106  1  0  0  0
 37 39  1  0  0  0
 37 47  1  0  0  0
 37 66  1  0  0  0
 37107  1  0  0  0
 38 43  2  0  0  0
 38 46  1  0  0  0
 38 47  1  0  0  0
 39 64  1  0  0  0
 39 67  2  0  0  0
 40 52  1  0  0  0
 40 53  2  0  0  0
 40 58  1  0  0  0
 41108  1  0  0  0
 41109  1  0  0  0
 41110  1  0  0  0
 41 48  1  0  0  0
 42 43  1  0  0  0
 42 66  1  0  0  0
 42111  1  0  0  0
 42112  1  0  0  0
 43 44  1  0  0  0
 44113  1  0  0  0
 45 46  2  0  0  0
 45114  1  0  0  0
 46115  1  0  0  0
 47116  1  0  0  0
 47117  1  0  0  0
 48 56  1  0  0  0
 48 65  1  0  0  0
 48118  1  0  0  0
 49 50  1  0  0  0
 49 53  1  0  0  0
 49 64  1  0  0  0
 49119  1  0  0  0
 50 51  1  0  0  0
 50120  1  0  0  0
 50121  1  0  0  0
 51 52  1  0  0  0
 51122  1  0  0  0
 51123  1  0  0  0
 52124  1  0  0  0
 52125  1  0  0  0
 53 54  1  0  0  0
 54 55  2  0  0  0
 54126  1  0  0  0
 55 57  1  0  0  0
 55127  1  0  0  0
 56 69  2  0  0  0
 57 58  2  0  0  0
 57128  1  0  0  0
 58129  1  0  0  0
 59 60  1  0  0  0
 59 61  1  0  0  0
 59 62  1  0  0  0
 60130  1  0  0  0
 60131  1  0  0  0
 60132  1  0  0  0
 61133  1  0  0  0
 61134  1  0  0  0
 61135  1  0  0  0
 62136  1  0  0  0
 62137  1  0  0  0
 62138  1  0  0  0
 63 65  1  0  0  0
 63139  1  0  0  0
 63140  1  0  0  0
 63141  1  0  0  0
 64142  1  0  0  0
 65143  1  0  0  0
 68 83  1  0  0  0
 71 73  1  0  0  0
 71 75  1  0  0  0
 71144  1  0  0  0
 71145  1  0  0  0
 72 74  1  0  0  0
 72 75  1  0  0  0
 72146  1  0  0  0
 72147  1  0  0  0
 73148  1  0  0  0
 73149  1  0  0  0
 73 76  1  0  0  0
 74 76  1  0  0  0
 74150  1  0  0  0
 74151  1  0  0  0
 75 79  1  0  0  0
 75152  1  0  0  0
 76 83  1  0  0  0
 76153  1  0  0  0
 77 80  1  0  0  0
 77154  1  0  0  0
 77155  1  0  0  0
 77156  1  0  0  0
 78157  1  0  0  0
 78158  1  0  0  0
 78159  1  0  0  0
 78 83  1  0  0  0
 79 84  1  0  0  0
 79160  1  0  0  0
 79161  1  0  0  0
 80 81  1  0  0  0
 80162  1  0  0  0
 80163  1  0  0  0
 81 82  1  0  0  0
 81164  1  0  0  0
 81165  1  0  0  0
 82 84  1  0  0  0
 82166  1  0  0  0
 82167  1  0  0  0
 83168  1  0  0  0
M  ISO  4   1 100  68 101  83 101  84 100
M  END
> <chiral flag>
0

> <version>
0

> <s_m_source_file>
/data/baiqing/PycharmProjects/Reinvent-master-3.2/result/LINK_invent/BTK/process_docking_weight1_custom_sum_contain_oxygen_bond_distance_aromatic_linkinvent_7_9_3/rearranged_h_0049.sdf

> <i_m_source_file_index>
8

> <r_mmod_Potential_Energy-OPLS-2005>
1075.98059082031

> <r_mmod_Stretch_Energy-OPLS-2005>
392.620056152344

> <r_mmod_Bend_Energy-OPLS-2005>
400.859466552734

> <r_mmod_Torsional_Energy-OPLS-2005>
341.740020751953

> <r_mmod_Improper_Torsional_Energy-OPLS-2005>
6.26183462142944

> <r_mmod_Van_der_Waal_Energy-OPLS-2005>
115.14533996582

> <r_mmod_Electrostatic_Energy-OPLS-2005>
-284.530029296875

> <r_mmod_Solvation_Energy-OPLS-2005>
-178.035629272461

> <b_mmod_Minimization_Converged-OPLS-2005>
0

> <r_mmod_RMS_Derivative-OPLS-2005>
5.08889484405518

$$$$
9
                    3D
 Structure written by MMmdl.
154162  0  0  1  0            999 V2000
  -30.6252  -14.7736   20.3340 C   0  0  0  0  0  0
  -30.4339  -12.4602   19.4585 C   0  0  0  0  0  0
  -29.4970  -12.4141   18.2325 C   0  0  0  0  0  0
  -28.0309  -12.2622   18.6800 C   0  0  0  0  0  0
  -27.6264  -13.2255   19.8255 C   0  0  2  0  0  0
  -28.6805  -13.2526   20.9456 C   0  0  0  0  0  0
  -25.2485  -13.8189   20.5725 C   0  0  0  0  0  0
  -24.1773  -13.0471   20.9240 C   0  0  0  0  0  0
  -24.6343  -11.6927   20.8800 C   0  0  0  0  0  0
  -23.9026  -10.4306   21.0451 C   0  0  0  0  0  0
  -24.3580   -9.4207   21.9228 C   0  0  0  0  0  0
  -23.6262   -8.2237   22.0778 C   0  0  0  0  0  0
  -22.4262   -8.0270   21.3548 C   0  0  0  0  0  0
  -21.9899   -9.0241   20.4660 C   0  0  0  0  0  0
  -22.7206  -10.2131   20.3086 C   0  0  0  0  0  0
  -21.6841   -6.0721   22.5272 C   0  0  0  0  0  0
  -21.4005   -6.5631   23.8197 C   0  0  0  0  0  0
  -21.3645   -5.6793   24.9167 C   0  0  0  0  0  0
  -21.6036   -4.3054   24.7234 C   0  0  0  0  0  0
  -21.8822   -3.8137   23.4353 C   0  0  0  0  0  0
  -21.9192   -4.6948   22.3403 C   0  0  0  0  0  0
  -22.7777  -13.5244   21.1883 C   0  0  0  0  0  0
  -22.1656   -4.2130   21.0981 F   0  0  0  0  0  0
  -21.5635   -3.4542   25.7747 F   0  0  0  0  0  0
  -29.9795  -13.5595   20.3375 N   0  0  0  0  0  0
  -26.2871  -12.9382   20.3259 N   0  0  0  0  0  0
  -25.9258  -11.6547   20.5794 N   0  0  0  0  0  0
  -22.0398  -12.8253   22.0417 N   0  0  0  0  0  0
  -25.4241  -15.1919   20.4120 N   0  0  0  0  0  0
  -31.8498  -14.7891   20.1810 O   0  0  0  0  0  0
  -21.6631   -6.8870   21.4233 O   0  0  0  0  0  0
  -22.3478  -14.5561   20.6708 O   0  0  0  0  0  0
  -24.6198  -31.8606   23.2035 C   0  0  0  0  0  0
  -25.9040  -32.4813   23.8330 C   0  0  1  0  0  0
  -27.2071  -27.3194   20.1376 C   0  0  0  0  0  0
  -25.5860  -33.8615   24.2243 N   0  0  0  0  0  0
  -23.4114  -30.4830   21.5492 C   0  0  2  0  0  0
  -24.8516  -28.9356   20.1115 C   0  0  0  0  0  0
  -22.7424  -29.4595   22.4971 C   0  0  0  0  0  0
  -18.0250  -28.1341   22.8469 C   0  0  0  0  0  0
  -24.1458  -36.7343   23.2642 C   0  0  0  0  0  0
  -25.9426  -30.8057   21.3553 C   0  0  0  0  0  0
  -26.0188  -29.4253   20.7116 C   0  0  0  0  0  0
  -27.1933  -28.6236   20.7219 C   0  0  0  0  0  0
  -26.0186  -26.8690   19.5217 C   0  0  0  0  0  0
  -24.8521  -27.6604   19.5159 C   0  0  0  0  0  0
  -23.6205  -29.8195   20.1621 C   0  0  0  0  0  0
  -25.4091  -36.3107   24.0311 C   0  0  1  0  0  0
  -20.5850  -28.3617   23.1315 C   0  0  2  0  0  0
  -20.6762  -26.9356   22.5400 C   0  0  0  0  0  0
  -19.5742  -26.6373   21.5202 C   0  0  0  0  0  0
  -18.1900  -26.7898   22.1587 C   0  0  0  0  0  0
  -19.1506  -28.8793   23.2876 C   0  0  0  0  0  0
  -18.9456  -30.1413   23.8854 C   0  0  0  0  0  0
  -17.6452  -30.6555   24.0531 C   0  0  0  0  0  0
  -25.9037  -34.9480   23.5081 C   0  0  0  0  0  0
  -16.5331  -29.9049   23.6348 C   0  0  0  0  0  0
  -16.7241  -28.6476   23.0333 C   0  0  0  0  0  0
  -26.4423  -31.6649   25.0720 C   0  0  0  0  0  0
  -25.3675  -31.3822   26.1484 C   0  0  0  0  0  0
  -27.0261  -30.3089   24.6115 C   0  0  0  0  0  0
  -27.5956  -32.4417   25.7503 C   0  0  0  0  0  0
  -27.5555  -37.1802   24.8455 C   0  0  0  0  0  0
  -21.4138  -29.3008   22.3743 N   0  0  0  0  0  0
  -26.4259  -37.3806   23.9426 N   0  0  0  0  0  0
  -24.6784  -31.0634   22.0966 N   0  0  0  0  0  0
  -23.4168  -28.8128   23.3019 O   0  0  0  0  0  0
  -28.3428  -26.5095   20.2377 O   0  0  0  0  0  0
  -26.5633  -34.8950   22.4675 O   0  0  0  0  0  0
  -23.5382  -32.1367   23.7414 O   0  0  0  0  0  0
  -30.1097  -17.2834   20.9973 C   0  0  0  0  0  0
  -29.9076  -16.1544   20.2046 C   0  0  0  0  0  0
  -29.5870  -18.4313   20.2652 C   0  0  0  0  0  0
  -29.0808  -16.0429   17.7478 C   0  0  0  0  0  0
  -29.8013  -19.9821   20.4302 C   0  0  0  0  0  0
  -28.6051  -21.0448   20.3979 C   0  0  0  0  0  0
  -29.0456  -22.5825   20.2362 C   0  0  0  0  0  0
  -28.0084  -23.8055   20.2795 C   0  0  0  0  0  0
  -28.4803  -25.1818   19.6086 C   0  0  0  0  0  0
  -29.0770  -18.0012   19.1186 N   0  0  0  0  0  0
  -29.3204  -16.6614   19.0413 N   0  0  0  0  0  0
  -31.4641  -12.5893   19.1203 H   0  0  0  0  0  0
  -30.4149  -11.5172   20.0062 H   0  0  0  0  0  0
  -29.7700  -11.5675   17.5998 H   0  0  0  0  0  0
  -29.6140  -13.2957   17.6083 H   0  0  0  0  0  0
  -27.9274  -11.2368   19.0365 H   0  0  0  0  0  0
  -27.3491  -12.3488   17.8328 H   0  0  0  0  0  0
  -27.5837  -14.2198   19.3971 H   0  0  0  0  0  0
  -28.7191  -12.2941   21.4627 H   0  0  0  0  0  0
  -28.4206  -14.0080   21.6900 H   0  0  0  0  0  0
  -25.2695   -9.5687   22.4848 H   0  0  0  0  0  0
  -23.9948   -7.4632   22.7498 H   0  0  0  0  0  0
  -21.0842   -8.8755   19.8956 H   0  0  0  0  0  0
  -22.3647  -10.9689   19.6221 H   0  0  0  0  0  0
  -21.1991   -7.6140   23.9697 H   0  0  0  0  0  0
  -21.1462   -6.0526   25.9069 H   0  0  0  0  0  0
  -22.0619   -2.7604   23.2859 H   0  0  0  0  0  0
  -22.3932  -11.9869   22.4793 H   0  0  0  0  0  0
  -21.1019  -13.1327   22.2631 H   0  0  0  0  0  0
  -24.6694  -15.8592   20.5319 H   0  0  0  0  0  0
  -26.2885  -15.6264   20.1113 H   0  0  0  0  0  0
  -26.7126  -32.5492   23.1098 H   0  0  0  0  0  0
  -24.9987  -33.9773   25.0357 H   0  0  0  0  0  0
  -22.7045  -31.3034   21.4123 H   0  0  0  0  0  0
  -23.3710  -35.9688   23.3290 H   0  0  0  0  0  0
  -24.3558  -36.9002   22.2069 H   0  0  0  0  0  0
  -23.7210  -37.6526   23.6700 H   0  0  0  0  0  0
  -26.0348  -31.5620   20.5730 H   0  0  0  0  0  0
  -26.8390  -30.8865   21.9588 H   0  0  0  0  0  0
  -28.0840  -28.9914   21.2108 H   0  0  0  0  0  0
  -25.9618  -25.8789   19.0911 H   0  0  0  0  0  0
  -23.9438  -27.2706   19.0761 H   0  0  0  0  0  0
  -23.7436  -30.6024   19.4123 H   0  0  0  0  0  0
  -22.7350  -29.2582   19.8568 H   0  0  0  0  0  0
  -25.1249  -36.1963   25.0804 H   0  0  0  0  0  0
  -20.9907  -28.3179   24.1454 H   0  0  0  0  0  0
  -20.5718  -26.2191   23.3559 H   0  0  0  0  0  0
  -21.6633  -26.7444   22.1152 H   0  0  0  0  0  0
  -19.6935  -25.6305   21.1192 H   0  0  0  0  0  0
  -19.6713  -27.3211   20.6751 H   0  0  0  0  0  0
  -17.4189  -26.6635   21.3965 H   0  0  0  0  0  0
  -18.0264  -26.0018   22.8976 H   0  0  0  0  0  0
  -19.7951  -30.7210   24.2195 H   0  0  0  0  0  0
  -17.5037  -31.6261   24.5102 H   0  0  0  0  0  0
  -15.5331  -30.2907   23.7757 H   0  0  0  0  0  0
  -15.8639  -28.0809   22.7029 H   0  0  0  0  0  0
  -24.5901  -30.7056   25.7913 H   0  0  0  0  0  0
  -24.8788  -32.2994   26.4795 H   0  0  0  0  0  0
  -25.8041  -30.9182   27.0338 H   0  0  0  0  0  0
  -26.2802  -29.6866   24.1141 H   0  0  0  0  0  0
  -27.3970  -29.7327   25.4596 H   0  0  0  0  0  0
  -27.8646  -30.4408   23.9273 H   0  0  0  0  0  0
  -27.2540  -33.3798   26.1911 H   0  0  0  0  0  0
  -28.3846  -32.6847   25.0382 H   0  0  0  0  0  0
  -28.0485  -31.8652   26.5584 H   0  0  0  0  0  0
  -28.2524  -38.0132   24.7535 H   0  0  0  0  0  0
  -28.1065  -36.2656   24.6200 H   0  0  0  0  0  0
  -27.2291  -37.1374   25.8856 H   0  0  0  0  0  0
  -20.9283  -29.8788   21.7034 H   0  0  0  0  0  0
  -26.0129  -38.2855   24.1535 H   0  0  0  0  0  0
  -30.6697  -17.3026   21.9210 H   0  0  0  0  0  0
  -28.2496  -15.3486   17.7996 H   0  0  0  0  0  0
  -29.9803  -15.5290   17.4111 H   0  0  0  0  0  0
  -28.8219  -16.7905   16.9954 H   0  0  0  0  0  0
  -30.4469  -20.2821   19.6046 H   0  0  0  0  0  0
  -30.4100  -20.1725   21.3152 H   0  0  0  0  0  0
  -27.9991  -20.9201   21.2955 H   0  0  0  0  0  0
  -27.9499  -20.7896   19.5665 H   0  0  0  0  0  0
  -29.5866  -22.6554   19.2915 H   0  0  0  0  0  0
  -29.7958  -22.7938   20.9978 H   0  0  0  0  0  0
  -27.7132  -23.9912   21.3124 H   0  0  0  0  0  0
  -27.0870  -23.4972   19.7797 H   0  0  0  0  0  0
  -28.1165  -25.2328   18.5832 H   0  0  0  0  0  0
  -29.5585  -25.0913   19.4873 H   0  0  0  0  0  0
  1 25  1  0  0  0
  1 30  2  0  0  0
  1 72  1  0  0  0
  2  3  1  0  0  0
  2 25  1  0  0  0
  2 82  1  0  0  0
  2 83  1  0  0  0
  3  4  1  0  0  0
  3 84  1  0  0  0
  3 85  1  0  0  0
  4  5  1  0  0  0
  4 86  1  0  0  0
  4 87  1  0  0  0
  5  6  1  0  0  0
  5 26  1  0  0  0
  5 88  1  0  0  0
  6 25  1  0  0  0
  6 89  1  0  0  0
  6 90  1  0  0  0
  7  8  2  0  0  0
  7 26  1  0  0  0
  7 29  1  0  0  0
  8  9  1  0  0  0
  8 22  1  0  0  0
  9 10  1  0  0  0
  9 27  2  0  0  0
 10 11  2  0  0  0
 10 15  1  0  0  0
 11 12  1  0  0  0
 11 91  1  0  0  0
 12 13  2  0  0  0
 12 92  1  0  0  0
 13 14  1  0  0  0
 13 31  1  0  0  0
 14 15  2  0  0  0
 14 93  1  0  0  0
 15 94  1  0  0  0
 16 17  2  0  0  0
 16 21  1  0  0  0
 16 31  1  0  0  0
 17 18  1  0  0  0
 17 95  1  0  0  0
 18 19  2  0  0  0
 18 96  1  0  0  0
 19 20  1  0  0  0
 19 24  1  0  0  0
 20 21  2  0  0  0
 20 97  1  0  0  0
 21 23  1  0  0  0
 22 28  1  0  0  0
 22 32  2  0  0  0
 26 27  1  0  0  0
 28 98  1  0  0  0
 28 99  1  0  0  0
 29100  1  0  0  0
 29101  1  0  0  0
 33 34  1  0  0  0
 33 66  1  0  0  0
 33 70  2  0  0  0
 34 36  1  0  0  0
 34 59  1  0  0  0
 34102  1  0  0  0
 35 44  2  0  0  0
 35 45  1  0  0  0
 35 68  1  0  0  0
 36 56  1  0  0  0
 36103  1  0  0  0
 37 39  1  0  0  0
 37 47  1  0  0  0
 37 66  1  0  0  0
 37104  1  0  0  0
 38 43  2  0  0  0
 38 46  1  0  0  0
 38 47  1  0  0  0
 39 64  1  0  0  0
 39 67  2  0  0  0
 40 52  1  0  0  0
 40 53  2  0  0  0
 40 58  1  0  0  0
 41105  1  0  0  0
 41106  1  0  0  0
 41107  1  0  0  0
 41 48  1  0  0  0
 42 43  1  0  0  0
 42 66  1  0  0  0
 42108  1  0  0  0
 42109  1  0  0  0
 43 44  1  0  0  0
 44110  1  0  0  0
 45 46  2  0  0  0
 45111  1  0  0  0
 46112  1  0  0  0
 47113  1  0  0  0
 47114  1  0  0  0
 48 56  1  0  0  0
 48 65  1  0  0  0
 48115  1  0  0  0
 49 50  1  0  0  0
 49 53  1  0  0  0
 49 64  1  0  0  0
 49116  1  0  0  0
 50 51  1  0  0  0
 50117  1  0  0  0
 50118  1  0  0  0
 51 52  1  0  0  0
 51119  1  0  0  0
 51120  1  0  0  0
 52121  1  0  0  0
 52122  1  0  0  0
 53 54  1  0  0  0
 54 55  2  0  0  0
 54123  1  0  0  0
 55 57  1  0  0  0
 55124  1  0  0  0
 56 69  2  0  0  0
 57 58  2  0  0  0
 57125  1  0  0  0
 58126  1  0  0  0
 59 60  1  0  0  0
 59 61  1  0  0  0
 59 62  1  0  0  0
 60127  1  0  0  0
 60128  1  0  0  0
 60129  1  0  0  0
 61130  1  0  0  0
 61131  1  0  0  0
 61132  1  0  0  0
 62133  1  0  0  0
 62134  1  0  0  0
 62135  1  0  0  0
 63 65  1  0  0  0
 63136  1  0  0  0
 63137  1  0  0  0
 63138  1  0  0  0
 64139  1  0  0  0
 65140  1  0  0  0
 68 79  1  0  0  0
 71 72  2  0  0  0
 71 73  1  0  0  0
 71141  1  0  0  0
 72 81  1  0  0  0
 73 75  1  0  0  0
 73 80  2  0  0  0
 74 81  1  0  0  0
 74142  1  0  0  0
 74143  1  0  0  0
 74144  1  0  0  0
 75 76  1  0  0  0
 75145  1  0  0  0
 75146  1  0  0  0
 76 77  1  0  0  0
 76147  1  0  0  0
 76148  1  0  0  0
 77 78  1  0  0  0
 77149  1  0  0  0
 77150  1  0  0  0
 78 79  1  0  0  0
 78151  1  0  0  0
 78152  1  0  0  0
 79153  1  0  0  0
 79154  1  0  0  0
 80 81  1  0  0  0
M  ISO  4   1 100  68 101  72 100  79 101
M  END
> <chiral flag>
0

> <version>
0

> <s_m_source_file>
/data/baiqing/PycharmProjects/Reinvent-master-3.2/result/LINK_invent/BTK/process_docking_weight1_custom_sum_contain_oxygen_bond_distance_aromatic_linkinvent_7_9_3/rearranged_h_0049.sdf

> <i_m_source_file_index>
9

> <r_mmod_Potential_Energy-OPLS-2005>
245.29899597168

> <r_mmod_Stretch_Energy-OPLS-2005>
92.1897048950195

> <r_mmod_Bend_Energy-OPLS-2005>
177.685729980469

> <r_mmod_Torsional_Energy-OPLS-2005>
239.597015380859

> <r_mmod_Improper_Torsional_Energy-OPLS-2005>
12.597804069519

> <r_mmod_Van_der_Waal_Energy-OPLS-2005>
108.153709411621

> <r_mmod_Electrostatic_Energy-OPLS-2005>
-278.825408935547

> <r_mmod_Solvation_Energy-OPLS-2005>
-198.274505615234

> <b_mmod_Minimization_Converged-OPLS-2005>
0

> <r_mmod_RMS_Derivative-OPLS-2005>
5.11518669128418

$$$$
10
                    3D
 Structure written by MMmdl.
167175  0  0  1  0            999 V2000
  -30.6093  -14.8473   20.4127 C   0  0  0  0  0  0
  -30.4127  -12.5216   19.4828 C   0  0  0  0  0  0
  -29.5108  -12.4671   18.2364 C   0  0  0  0  0  0
  -28.0372  -12.2981   18.6520 C   0  0  0  0  0  0
  -27.6151  -13.2438   19.8105 C   0  0  2  0  0  0
  -28.6543  -13.2967   20.9438 C   0  0  0  0  0  0
  -25.2488  -13.8237   20.5692 C   0  0  0  0  0  0
  -24.1795  -13.0449   20.9190 C   0  0  0  0  0  0
  -24.6388  -11.6928   20.8687 C   0  0  0  0  0  0
  -23.9086  -10.4293   21.0378 C   0  0  0  0  0  0
  -24.3657   -9.4218   21.9157 C   0  0  0  0  0  0
  -23.6336   -8.2251   22.0764 C   0  0  0  0  0  0
  -22.4312   -8.0314   21.3586 C   0  0  0  0  0  0
  -21.9934   -9.0254   20.4661 C   0  0  0  0  0  0
  -22.7246  -10.2130   20.3051 C   0  0  0  0  0  0
  -21.6886   -6.0752   22.5278 C   0  0  0  0  0  0
  -21.4002   -6.5644   23.8195 C   0  0  0  0  0  0
  -21.3649   -5.6795   24.9153 C   0  0  0  0  0  0
  -21.6062   -4.3061   24.7201 C   0  0  0  0  0  0
  -21.8824   -3.8155   23.4313 C   0  0  0  0  0  0
  -21.9215   -4.6981   22.3377 C   0  0  0  0  0  0
  -22.7835  -13.5237   21.1853 C   0  0  0  0  0  0
  -22.1696   -4.2160   21.0958 F   0  0  0  0  0  0
  -21.5630   -3.4558   25.7692 F   0  0  0  0  0  0
  -29.9267  -13.6514   20.3170 N   0  0  0  0  0  0
  -26.2827  -12.9402   20.3102 N   0  0  0  0  0  0
  -25.9305  -11.6545   20.5633 N   0  0  0  0  0  0
  -22.0541  -12.8187   22.0405 N   0  0  0  0  0  0
  -25.4290  -15.1935   20.4176 N   0  0  0  0  0  0
  -31.8392  -14.7734   20.3132 O   0  0  0  0  0  0
  -21.6704   -6.8904   21.4258 O   0  0  0  0  0  0
  -22.3464  -14.5515   20.6684 O   0  0  0  0  0  0
  -24.6310  -31.8535   23.1925 C   0  0  0  0  0  0
  -25.9127  -32.4752   23.8267 C   0  0  1  0  0  0
  -27.2163  -27.2324   20.1662 C   0  0  0  0  0  0
  -25.5941  -33.8550   24.2228 N   0  0  0  0  0  0
  -23.4309  -30.4684   21.5368 C   0  0  2  0  0  0
  -24.8805  -28.9003   20.1206 C   0  0  0  0  0  0
  -22.7501  -29.4589   22.4926 C   0  0  0  0  0  0
  -18.0289  -28.1385   22.8484 C   0  0  0  0  0  0
  -24.1503  -36.7276   23.2629 C   0  0  0  0  0  0
  -25.9732  -30.7614   21.3699 C   0  0  0  0  0  0
  -26.0499  -29.3740   20.7292 C   0  0  0  0  0  0
  -27.2242  -28.5522   20.7368 C   0  0  0  0  0  0
  -26.0276  -26.8232   19.5356 C   0  0  0  0  0  0
  -24.8741  -27.6342   19.5117 C   0  0  0  0  0  0
  -23.6526  -29.7890   20.1586 C   0  0  0  0  0  0
  -25.4122  -36.3066   24.0324 C   0  0  1  0  0  0
  -20.5895  -28.3706   23.1276 C   0  0  2  0  0  0
  -20.6802  -26.9430   22.5417 C   0  0  0  0  0  0
  -19.5783  -26.6390   21.5219 C   0  0  0  0  0  0
  -18.1946  -26.7928   22.1615 C   0  0  0  0  0  0
  -19.1540  -28.8858   23.2872 C   0  0  0  0  0  0
  -18.9462  -30.1454   23.8898 C   0  0  0  0  0  0
  -17.6466  -30.6594   24.0560 C   0  0  0  0  0  0
  -25.9068  -34.9443   23.5082 C   0  0  0  0  0  0
  -16.5355  -29.9095   23.6321 C   0  0  0  0  0  0
  -16.7270  -28.6507   23.0338 C   0  0  0  0  0  0
  -26.4509  -31.6545   25.0631 C   0  0  0  0  0  0
  -25.3735  -31.3705   26.1344 C   0  0  0  0  0  0
  -27.0337  -30.2957   24.6091 C   0  0  0  0  0  0
  -27.6070  -32.4245   25.7405 C   0  0  0  0  0  0
  -27.5594  -37.1786   24.8459 C   0  0  0  0  0  0
  -21.4204  -29.3046   22.3662 N   0  0  0  0  0  0
  -26.4301  -37.3766   23.9416 N   0  0  0  0  0  0
  -24.6976  -31.0457   22.0919 N   0  0  0  0  0  0
  -23.4189  -28.8137   23.3040 O   0  0  0  0  0  0
  -28.3124  -26.3410   20.1520 O   0  0  0  0  0  0
  -26.5636  -34.8926   22.4649 O   0  0  0  0  0  0
  -23.5454  -32.1361   23.7220 O   0  0  0  0  0  0
  -29.1387  -20.0340   22.8806 C   0  0  0  0  0  0
  -28.9851  -21.1367   22.0282 C   0  0  0  0  0  0
  -29.1974  -18.7216   22.3638 C   0  0  0  0  0  0
  -28.8828  -20.9493   20.6452 C   0  0  0  0  0  0
  -29.0927  -18.5023   20.9655 C   0  0  0  0  0  0
  -29.3013  -17.5775   23.3626 C   0  0  0  0  0  0
  -31.7471  -17.6864   19.0868 C   0  0  0  0  0  0
  -30.3492  -22.8110   19.6740 C   0  0  0  0  0  0
  -28.5347  -21.8424   18.2978 C   0  0  0  0  0  0
  -28.8959  -16.9772   20.4493 C   0  0  0  0  0  0
  -27.8840  -23.5423   20.0701 C   0  0  0  0  0  0
  -30.6398  -16.6635   18.7611 C   0  0  0  0  0  0
  -28.2252  -24.9693   20.7896 C   0  0  0  0  0  0
  -28.8999  -22.2810   19.7335 C   0  0  0  0  0  0
  -28.9460  -19.6320   20.1424 N   0  0  0  0  0  0
  -30.0206  -16.0527   19.9584 N   0  0  0  0  0  0
  -31.4512  -12.6494   19.1784 H   0  0  0  0  0  0
  -30.3789  -11.5822   20.0367 H   0  0  0  0  0  0
  -29.8063  -11.6358   17.5945 H   0  0  0  0  0  0
  -29.6381  -13.3765   17.6471 H   0  0  0  0  0  0
  -27.9031  -11.2565   18.9560 H   0  0  0  0  0  0
  -27.3880  -12.4446   17.7881 H   0  0  0  0  0  0
  -27.5699  -14.2334   19.3618 H   0  0  0  0  0  0
  -28.7192  -12.3445   21.4713 H   0  0  0  0  0  0
  -28.3676  -14.0527   21.6758 H   0  0  0  0  0  0
  -25.2844   -9.5690   22.4667 H   0  0  0  0  0  0
  -24.0091   -7.4640   22.7462 H   0  0  0  0  0  0
  -21.0890   -8.8747   19.8927 H   0  0  0  0  0  0
  -22.3753  -10.9666   19.6130 H   0  0  0  0  0  0
  -21.1974   -7.6139   23.9674 H   0  0  0  0  0  0
  -21.1482   -6.0534   25.9049 H   0  0  0  0  0  0
  -22.0608   -2.7622   23.2808 H   0  0  0  0  0  0
  -22.4308  -11.9893   22.4739 H   0  0  0  0  0  0
  -21.1122  -13.1067   22.2609 H   0  0  0  0  0  0
  -24.6734  -15.8612   20.5403 H   0  0  0  0  0  0
  -26.2778  -15.6162   20.0658 H   0  0  0  0  0  0
  -26.7182  -32.5419   23.0996 H   0  0  0  0  0  0
  -25.0123  -33.9663   25.0405 H   0  0  0  0  0  0
  -22.7284  -31.2907   21.3806 H   0  0  0  0  0  0
  -23.3803  -35.9575   23.3246 H   0  0  0  0  0  0
  -24.3613  -36.8942   22.2057 H   0  0  0  0  0  0
  -23.7218  -37.6445   23.6678 H   0  0  0  0  0  0
  -26.0957  -31.5108   20.5871 H   0  0  0  0  0  0
  -26.8561  -30.8302   21.9940 H   0  0  0  0  0  0
  -28.1221  -28.9103   21.2197 H   0  0  0  0  0  0
  -25.9922  -25.8509   19.0687 H   0  0  0  0  0  0
  -23.9762  -27.2645   19.0340 H   0  0  0  0  0  0
  -23.7851  -30.5557   19.3938 H   0  0  0  0  0  0
  -22.7739  -29.2163   19.8540 H   0  0  0  0  0  0
  -25.1314  -36.1906   25.0822 H   0  0  0  0  0  0
  -20.9958  -28.3287   24.1409 H   0  0  0  0  0  0
  -20.5737  -26.2310   23.3614 H   0  0  0  0  0  0
  -21.6661  -26.7493   22.1184 H   0  0  0  0  0  0
  -19.6963  -25.6297   21.1254 H   0  0  0  0  0  0
  -19.6725  -27.3203   20.6749 H   0  0  0  0  0  0
  -17.4228  -26.6658   21.3999 H   0  0  0  0  0  0
  -18.0345  -26.0053   22.8998 H   0  0  0  0  0  0
  -19.7929  -30.7258   24.2276 H   0  0  0  0  0  0
  -17.5016  -31.6273   24.5164 H   0  0  0  0  0  0
  -15.5350  -30.3005   23.7645 H   0  0  0  0  0  0
  -15.8659  -28.0835   22.7057 H   0  0  0  0  0  0
  -24.5917  -30.7063   25.7654 H   0  0  0  0  0  0
  -24.8930  -32.2888   26.4718 H   0  0  0  0  0  0
  -25.8028  -30.8893   27.0140 H   0  0  0  0  0  0
  -26.2904  -29.6682   24.1167 H   0  0  0  0  0  0
  -27.4099  -29.7216   25.4566 H   0  0  0  0  0  0
  -27.8740  -30.4219   23.9264 H   0  0  0  0  0  0
  -27.2717  -33.3566   26.1950 H   0  0  0  0  0  0
  -28.3905  -32.6750   25.0248 H   0  0  0  0  0  0
  -28.0708  -31.8377   26.5339 H   0  0  0  0  0  0
  -28.2586  -38.0111   24.7555 H   0  0  0  0  0  0
  -28.1124  -36.2645   24.6237 H   0  0  0  0  0  0
  -27.2317  -37.1368   25.8861 H   0  0  0  0  0  0
  -20.9405  -29.8736   21.6836 H   0  0  0  0  0  0
  -26.0186  -38.2844   24.1438 H   0  0  0  0  0  0
  -29.1948  -20.2028   23.9482 H   0  0  0  0  0  0
  -28.9797  -22.1345   22.4435 H   0  0  0  0  0  0
  -29.7465  -17.9116   24.3014 H   0  0  0  0  0  0
  -29.9175  -16.7600   22.9971 H   0  0  0  0  0  0
  -28.3123  -17.1745   23.5869 H   0  0  0  0  0  0
  -32.5614  -17.6135   18.3636 H   0  0  0  0  0  0
  -32.1720  -17.5422   20.0799 H   0  0  0  0  0  0
  -31.3691  -18.7087   19.0366 H   0  0  0  0  0  0
  -31.0251  -22.0456   19.2909 H   0  0  0  0  0  0
  -30.7209  -23.0886   20.6596 H   0  0  0  0  0  0
  -30.4423  -23.6862   19.0264 H   0  0  0  0  0  0
  -29.2240  -21.0836   17.9210 H   0  0  0  0  0  0
  -28.5671  -22.6763   17.5950 H   0  0  0  0  0  0
  -27.5328  -21.4129   18.2629 H   0  0  0  0  0  0
  -28.1550  -17.0304   19.6500 H   0  0  0  0  0  0
  -28.3600  -16.4326   21.2251 H   0  0  0  0  0  0
  -27.3962  -23.8341   19.1412 H   0  0  0  0  0  0
  -27.0587  -23.1082   20.6360 H   0  0  0  0  0  0
  -31.0518  -15.8762   18.1228 H   0  0  0  0  0  0
  -29.8856  -17.1301   18.1257 H   0  0  0  0  0  0
  -29.1461  -24.8299   21.3552 H   0  0  0  0  0  0
  -27.4721  -25.0811   21.5719 H   0  0  0  0  0  0
  1 25  1  0  0  0
  1 30  2  0  0  0
  1 86  1  0  0  0
  2  3  1  0  0  0
  2 25  1  0  0  0
  2 87  1  0  0  0
  2 88  1  0  0  0
  3  4  1  0  0  0
  3 89  1  0  0  0
  3 90  1  0  0  0
  4  5  1  0  0  0
  4 91  1  0  0  0
  4 92  1  0  0  0
  5  6  1  0  0  0
  5 26  1  0  0  0
  5 93  1  0  0  0
  6 25  1  0  0  0
  6 94  1  0  0  0
  6 95  1  0  0  0
  7  8  2  0  0  0
  7 26  1  0  0  0
  7 29  1  0  0  0
  8  9  1  0  0  0
  8 22  1  0  0  0
  9 10  1  0  0  0
  9 27  2  0  0  0
 10 11  2  0  0  0
 10 15  1  0  0  0
 11 12  1  0  0  0
 11 96  1  0  0  0
 12 13  2  0  0  0
 12 97  1  0  0  0
 13 14  1  0  0  0
 13 31  1  0  0  0
 14 15  2  0  0  0
 14 98  1  0  0  0
 15 99  1  0  0  0
 16 17  2  0  0  0
 16 21  1  0  0  0
 16 31  1  0  0  0
 17 18  1  0  0  0
 17100  1  0  0  0
 18 19  2  0  0  0
 18101  1  0  0  0
 19 20  1  0  0  0
 19 24  1  0  0  0
 20 21  2  0  0  0
 20102  1  0  0  0
 21 23  1  0  0  0
 22 28  1  0  0  0
 22 32  2  0  0  0
 26 27  1  0  0  0
 28103  1  0  0  0
 28104  1  0  0  0
 29105  1  0  0  0
 29106  1  0  0  0
 33 34  1  0  0  0
 33 66  1  0  0  0
 33 70  2  0  0  0
 34 36  1  0  0  0
 34 59  1  0  0  0
 34107  1  0  0  0
 35 44  2  0  0  0
 35 45  1  0  0  0
 35 68  1  0  0  0
 36 56  1  0  0  0
 36108  1  0  0  0
 37 39  1  0  0  0
 37 47  1  0  0  0
 37 66  1  0  0  0
 37109  1  0  0  0
 38 43  2  0  0  0
 38 46  1  0  0  0
 38 47  1  0  0  0
 39 64  1  0  0  0
 39 67  2  0  0  0
 40 52  1  0  0  0
 40 53  2  0  0  0
 40 58  1  0  0  0
 41110  1  0  0  0
 41111  1  0  0  0
 41112  1  0  0  0
 41 48  1  0  0  0
 42 43  1  0  0  0
 42 66  1  0  0  0
 42113  1  0  0  0
 42114  1  0  0  0
 43 44  1  0  0  0
 44115  1  0  0  0
 45 46  2  0  0  0
 45116  1  0  0  0
 46117  1  0  0  0
 47118  1  0  0  0
 47119  1  0  0  0
 48 56  1  0  0  0
 48 65  1  0  0  0
 48120  1  0  0  0
 49 50  1  0  0  0
 49 53  1  0  0  0
 49 64  1  0  0  0
 49121  1  0  0  0
 50 51  1  0  0  0
 50122  1  0  0  0
 50123  1  0  0  0
 51 52  1  0  0  0
 51124  1  0  0  0
 51125  1  0  0  0
 52126  1  0  0  0
 52127  1  0  0  0
 53 54  1  0  0  0
 54 55  2  0  0  0
 54128  1  0  0  0
 55 57  1  0  0  0
 55129  1  0  0  0
 56 69  2  0  0  0
 57 58  2  0  0  0
 57130  1  0  0  0
 58131  1  0  0  0
 59 60  1  0  0  0
 59 61  1  0  0  0
 59 62  1  0  0  0
 60132  1  0  0  0
 60133  1  0  0  0
 60134  1  0  0  0
 61135  1  0  0  0
 61136  1  0  0  0
 61137  1  0  0  0
 62138  1  0  0  0
 62139  1  0  0  0
 62140  1  0  0  0
 63 65  1  0  0  0
 63141  1  0  0  0
 63142  1  0  0  0
 63143  1  0  0  0
 64144  1  0  0  0
 65145  1  0  0  0
 68 83  1  0  0  0
 71 72  2  0  0  0
 71 73  1  0  0  0
 71146  1  0  0  0
 72 74  1  0  0  0
 72147  1  0  0  0
 73 75  2  0  0  0
 73 76  1  0  0  0
 74 84  1  0  0  0
 74 85  2  0  0  0
 75 80  1  0  0  0
 75 85  1  0  0  0
 76148  1  0  0  0
 76149  1  0  0  0
 76150  1  0  0  0
 77 82  1  0  0  0
 77151  1  0  0  0
 77152  1  0  0  0
 77153  1  0  0  0
 78154  1  0  0  0
 78155  1  0  0  0
 78156  1  0  0  0
 78 84  1  0  0  0
 79 84  1  0  0  0
 79157  1  0  0  0
 79158  1  0  0  0
 79159  1  0  0  0
 80 86  1  0  0  0
 80160  1  0  0  0
 80161  1  0  0  0
 81 83  1  0  0  0
 81 84  1  0  0  0
 81162  1  0  0  0
 81163  1  0  0  0
 82 86  1  0  0  0
 82164  1  0  0  0
 82165  1  0  0  0
 83166  1  0  0  0
 83167  1  0  0  0
M  ISO  4   1 100  68 101  83 101  86 100
M  END
> <chiral flag>
0

> <version>
0

> <s_m_source_file>
/data/baiqing/PycharmProjects/Reinvent-master-3.2/result/LINK_invent/BTK/process_docking_weight1_custom_sum_contain_oxygen_bond_distance_aromatic_linkinvent_7_9_3/rearranged_h_0049.sdf

> <i_m_source_file_index>
10

> <r_mmod_Potential_Energy-OPLS-2005>
314.280151367188

> <r_mmod_Stretch_Energy-OPLS-2005>
166.06330871582

> <r_mmod_Bend_Energy-OPLS-2005>
253.613677978516

> <r_mmod_Torsional_Energy-OPLS-2005>
334.826416015625

> <r_mmod_Improper_Torsional_Energy-OPLS-2005>
27.6715202331543

> <r_mmod_Van_der_Waal_Energy-OPLS-2005>
132.911148071289

> <r_mmod_Electrostatic_Energy-OPLS-2005>
-533.691833496094

> <r_mmod_Solvation_Energy-OPLS-2005>
-199.419143676758

> <b_mmod_Minimization_Converged-OPLS-2005>
0

> <r_mmod_RMS_Derivative-OPLS-2005>
5.14688730239868

$$$$
11
                    3D
 Structure written by MMmdl.
172180  0  0  1  0            999 V2000
  -30.7145  -14.3963   20.6780 C   0  0  0  0  0  0
  -30.4320  -12.3013   19.3846 C   0  0  0  0  0  0
  -29.4879  -12.5313   18.1879 C   0  0  0  0  0  0
  -28.0102  -12.3869   18.6071 C   0  0  0  0  0  0
  -27.6721  -13.1941   19.8892 C   0  0  2  0  0  0
  -28.7159  -12.9001   20.9902 C   0  0  0  0  0  0
  -25.2646  -13.8135   20.5688 C   0  0  0  0  0  0
  -24.1868  -13.0435   20.9162 C   0  0  0  0  0  0
  -24.6399  -11.6894   20.8728 C   0  0  0  0  0  0
  -23.9052  -10.4290   21.0403 C   0  0  0  0  0  0
  -24.3606   -9.4207   21.9183 C   0  0  0  0  0  0
  -23.6283   -8.2244   22.0754 C   0  0  0  0  0  0
  -22.4265   -8.0280   21.3543 C   0  0  0  0  0  0
  -21.9899   -9.0255   20.4647 C   0  0  0  0  0  0
  -22.7227  -10.2135   20.3054 C   0  0  0  0  0  0
  -21.6849   -6.0736   22.5280 C   0  0  0  0  0  0
  -21.4014   -6.5640   23.8214 C   0  0  0  0  0  0
  -21.3656   -5.6791   24.9176 C   0  0  0  0  0  0
  -21.6044   -4.3056   24.7227 C   0  0  0  0  0  0
  -21.8818   -3.8147   23.4346 C   0  0  0  0  0  0
  -21.9194   -4.6963   22.3404 C   0  0  0  0  0  0
  -22.7892  -13.5249   21.1824 C   0  0  0  0  0  0
  -22.1661   -4.2149   21.0980 F   0  0  0  0  0  0
  -21.5627   -3.4539   25.7740 F   0  0  0  0  0  0
  -30.0446  -13.2347   20.4507 N   0  0  0  0  0  0
  -26.3082  -12.9281   20.3438 N   0  0  0  0  0  0
  -25.9328  -11.6449   20.5781 N   0  0  0  0  0  0
  -22.0518  -12.8251   22.0379 N   0  0  0  0  0  0
  -25.4409  -15.1849   20.4099 N   0  0  0  0  0  0
  -31.7793  -14.6611   20.1041 O   0  0  0  0  0  0
  -21.6633   -6.8877   21.4239 O   0  0  0  0  0  0
  -22.3587  -14.5563   20.6682 O   0  0  0  0  0  0
  -24.6115  -31.8704   23.2132 C   0  0  0  0  0  0
  -25.9021  -32.4839   23.8418 C   0  0  1  0  0  0
  -27.2438  -27.4672   20.0929 C   0  0  0  0  0  0
  -25.5889  -33.8636   24.2350 N   0  0  0  0  0  0
  -23.3999  -30.4925   21.5520 C   0  0  2  0  0  0
  -24.8493  -28.9560   20.1249 C   0  0  0  0  0  0
  -22.7398  -29.4670   22.5006 C   0  0  0  0  0  0
  -18.0272  -28.1381   22.8500 C   0  0  0  0  0  0
  -24.1485  -36.7326   23.2640 C   0  0  0  0  0  0
  -25.9247  -30.8411   21.3655 C   0  0  0  0  0  0
  -26.0052  -29.4719   20.7277 C   0  0  0  0  0  0
  -27.2060  -28.7292   20.7238 C   0  0  0  0  0  0
  -26.0786  -26.9592   19.4864 C   0  0  0  0  0  0
  -24.8767  -27.6918   19.5094 C   0  0  0  0  0  0
  -23.6099  -29.8205   20.1689 C   0  0  0  0  0  0
  -25.4104  -36.3124   24.0344 C   0  0  1  0  0  0
  -20.5862  -28.3661   23.1331 C   0  0  2  0  0  0
  -20.6765  -26.9401   22.5421 C   0  0  0  0  0  0
  -19.5745  -26.6386   21.5217 C   0  0  0  0  0  0
  -18.1920  -26.7929   22.1626 C   0  0  0  0  0  0
  -19.1519  -28.8839   23.2912 C   0  0  0  0  0  0
  -18.9448  -30.1444   23.8918 C   0  0  0  0  0  0
  -17.6454  -30.6586   24.0575 C   0  0  0  0  0  0
  -25.9023  -34.9485   23.5143 C   0  0  0  0  0  0
  -16.5341  -29.9095   23.6328 C   0  0  0  0  0  0
  -16.7262  -28.6514   23.0347 C   0  0  0  0  0  0
  -26.4465  -31.6606   25.0728 C   0  0  0  0  0  0
  -25.3749  -31.3700   26.1489 C   0  0  0  0  0  0
  -27.0295  -30.3059   24.6076 C   0  0  0  0  0  0
  -27.6047  -32.4319   25.7489 C   0  0  0  0  0  0
  -27.5577  -37.1820   24.8470 C   0  0  0  0  0  0
  -21.4131  -29.3033   22.3742 N   0  0  0  0  0  0
  -26.4299  -37.3799   23.9405 N   0  0  0  0  0  0
  -24.6633  -31.0820   22.1026 N   0  0  0  0  0  0
  -23.4174  -28.8213   23.3044 O   0  0  0  0  0  0
  -28.3986  -26.7397   19.9677 O   0  0  0  0  0  0
  -26.5580  -34.8931   22.4700 O   0  0  0  0  0  0
  -23.5312  -32.1437   23.7539 O   0  0  0  0  0  0
  -31.6225  -17.4387   22.0756 C   0  0  0  0  0  0
  -31.5697  -18.7630   21.7233 C   0  0  0  0  0  0
  -30.4059  -18.8324   20.8807 C   0  0  0  0  0  0
  -28.3111  -20.2214   20.6163 C   0  0  0  0  0  0
  -29.8500  -19.8141   18.6245 C   0  0  0  0  0  0
  -33.0856  -24.1715   21.1970 C   0  0  0  0  0  0
  -32.5773  -19.7905   22.2192 C   0  0  0  0  0  0
  -30.1101  -15.4144   21.6714 C   0  0  0  0  0  0
  -32.6554  -21.1477   21.4918 C   0  0  0  0  0  0
  -30.1074  -25.3044   20.7281 C   0  0  0  0  0  0
  -31.8217  -22.2670   22.1673 C   0  0  0  0  0  0
  -30.7333  -24.4846   21.8742 C   0  0  0  0  0  0
  -29.0242  -26.3067   21.1667 C   0  0  0  0  0  0
  -29.7574  -19.9908   20.1479 C   0  0  0  0  0  0
  -29.8231  -17.6455   20.7568 N   0  0  0  0  0  0
  -30.5565  -16.7908   21.4971 N   0  0  0  0  0  0
  -31.7594  -23.5270   21.3719 N   0  3  1  0  0  0
  -31.4711  -12.4261   19.0759 H   0  0  0  0  0  0
  -30.3528  -11.2732   19.7417 H   0  0  0  0  0  0
  -29.7192  -11.8300   17.3852 H   0  0  0  0  0  0
  -29.6549  -13.5291   17.7794 H   0  0  0  0  0  0
  -27.8124  -11.3274   18.7742 H   0  0  0  0  0  0
  -27.3565  -12.6913   17.7891 H   0  0  0  0  0  0
  -27.7391  -14.2525   19.6360 H   0  0  0  0  0  0
  -28.6922  -11.8400   21.2485 H   0  0  0  0  0  0
  -28.4741  -13.4087   21.9221 H   0  0  0  0  0  0
  -25.2753   -9.5684   22.4756 H   0  0  0  0  0  0
  -23.9994   -7.4634   22.7472 H   0  0  0  0  0  0
  -21.0833   -8.8775   19.8952 H   0  0  0  0  0  0
  -22.3690  -10.9673   19.6162 H   0  0  0  0  0  0
  -21.2006   -7.6149   23.9717 H   0  0  0  0  0  0
  -21.1477   -6.0523   25.9078 H   0  0  0  0  0  0
  -22.0600   -2.7610   23.2849 H   0  0  0  0  0  0
  -22.4112  -11.9903   22.4768 H   0  0  0  0  0  0
  -21.1139  -13.1295   22.2576 H   0  0  0  0  0  0
  -24.6827  -15.8484   20.5248 H   0  0  0  0  0  0
  -26.3081  -15.6203   20.1194 H   0  0  0  0  0  0
  -26.7099  -32.5572   23.1192 H   0  0  0  0  0  0
  -25.0069  -33.9812   25.0516 H   0  0  0  0  0  0
  -22.6867  -31.3075   21.4113 H   0  0  0  0  0  0
  -23.3739  -35.9666   23.3323 H   0  0  0  0  0  0
  -24.3574  -36.8907   22.2046 H   0  0  0  0  0  0
  -23.7241  -37.6545   23.6631 H   0  0  0  0  0  0
  -26.0276  -31.5990   20.5883 H   0  0  0  0  0  0
  -26.8164  -30.9045   21.9768 H   0  0  0  0  0  0
  -28.1021  -29.1359   21.1707 H   0  0  0  0  0  0
  -26.1069  -25.9992   18.9897 H   0  0  0  0  0  0
  -23.9900  -27.2884   19.0396 H   0  0  0  0  0  0
  -23.7189  -30.5926   19.4063 H   0  0  0  0  0  0
  -22.7356  -29.2371   19.8745 H   0  0  0  0  0  0
  -25.1275  -36.1998   25.0837 H   0  0  0  0  0  0
  -20.9952  -28.3215   24.1452 H   0  0  0  0  0  0
  -20.5677  -26.2260   23.3597 H   0  0  0  0  0  0
  -21.6637  -26.7451   22.1204 H   0  0  0  0  0  0
  -19.6907  -25.6303   21.1231 H   0  0  0  0  0  0
  -19.6691  -27.3215   20.6764 H   0  0  0  0  0  0
  -17.4193  -26.6684   21.4022 H   0  0  0  0  0  0
  -18.0319  -26.0063   22.9018 H   0  0  0  0  0  0
  -19.7924  -30.7260   24.2283 H   0  0  0  0  0  0
  -17.5012  -31.6268   24.5174 H   0  0  0  0  0  0
  -15.5348  -30.3009   23.7640 H   0  0  0  0  0  0
  -15.8659  -28.0848   22.7042 H   0  0  0  0  0  0
  -24.5918  -30.7050   25.7829 H   0  0  0  0  0  0
  -24.8950  -32.2855   26.4960 H   0  0  0  0  0  0
  -25.8117  -30.8856   27.0231 H   0  0  0  0  0  0
  -26.2831  -29.6827   24.1139 H   0  0  0  0  0  0
  -27.4094  -29.7280   25.4510 H   0  0  0  0  0  0
  -27.8651  -30.4395   23.9202 H   0  0  0  0  0  0
  -27.2668  -33.3600   26.2114 H   0  0  0  0  0  0
  -28.3835  -32.6905   25.0303 H   0  0  0  0  0  0
  -28.0747  -31.8417   26.5367 H   0  0  0  0  0  0
  -28.2619  -38.0095   24.7486 H   0  0  0  0  0  0
  -28.1045  -36.2621   24.6329 H   0  0  0  0  0  0
  -27.2289  -37.1509   25.8875 H   0  0  0  0  0  0
  -20.9280  -29.8752   21.6973 H   0  0  0  0  0  0
  -26.0193  -38.2884   24.1391 H   0  0  0  0  0  0
  -32.3160  -16.9109   22.7165 H   0  0  0  0  0  0
  -28.2706  -20.3972   21.6917 H   0  0  0  0  0  0
  -27.6785  -19.3603   20.3974 H   0  0  0  0  0  0
  -27.8704  -21.0883   20.1237 H   0  0  0  0  0  0
  -30.8888  -19.7229   18.3064 H   0  0  0  0  0  0
  -29.4171  -20.6663   18.1006 H   0  0  0  0  0  0
  -29.3221  -18.9189   18.2936 H   0  0  0  0  0  0
  -33.7702  -23.5342   20.6392 H   0  0  0  0  0  0
  -33.5437  -24.3997   22.1600 H   0  0  0  0  0  0
  -33.0090  -25.1042   20.6386 H   0  0  0  0  0  0
  -33.5722  -19.3459   22.1537 H   0  0  0  0  0  0
  -32.4410  -19.9667   23.2870 H   0  0  0  0  0  0
  -29.0245  -15.4335   21.5897 H   0  0  0  0  0  0
  -30.3466  -15.0963   22.6873 H   0  0  0  0  0  0
  -32.4487  -21.0349   20.4280 H   0  0  0  0  0  0
  -33.6992  -21.4588   21.5373 H   0  0  0  0  0  0
  -29.6611  -24.6104   20.0143 H   0  0  0  0  0  0
  -30.8764  -25.8485   20.1797 H   0  0  0  0  0  0
  -32.2225  -22.4832   23.1590 H   0  0  0  0  0  0
  -30.8108  -21.8944   22.3340 H   0  0  0  0  0  0
  -29.9256  -23.9443   22.3701 H   0  0  0  0  0  0
  -31.1668  -25.1382   22.6333 H   0  0  0  0  0  0
  -29.4622  -27.1458   21.7092 H   0  0  0  0  0  0
  -28.2928  -25.8261   21.8189 H   0  0  0  0  0  0
  -30.2805  -20.9104   20.3737 H   0  0  0  0  0  0
  -31.4494  -23.2558   20.4508 H   0  0  0  0  0  0
  1 25  1  0  0  0
  1 30  2  0  0  0
  1 78  1  0  0  0
  2  3  1  0  0  0
  2 25  1  0  0  0
  2 88  1  0  0  0
  2 89  1  0  0  0
  3  4  1  0  0  0
  3 90  1  0  0  0
  3 91  1  0  0  0
  4  5  1  0  0  0
  4 92  1  0  0  0
  4 93  1  0  0  0
  5  6  1  0  0  0
  5 26  1  0  0  0
  5 94  1  0  0  0
  6 25  1  0  0  0
  6 95  1  0  0  0
  6 96  1  0  0  0
  7  8  2  0  0  0
  7 26  1  0  0  0
  7 29  1  0  0  0
  8  9  1  0  0  0
  8 22  1  0  0  0
  9 10  1  0  0  0
  9 27  2  0  0  0
 10 11  2  0  0  0
 10 15  1  0  0  0
 11 12  1  0  0  0
 11 97  1  0  0  0
 12 13  2  0  0  0
 12 98  1  0  0  0
 13 14  1  0  0  0
 13 31  1  0  0  0
 14 15  2  0  0  0
 14 99  1  0  0  0
 15100  1  0  0  0
 16 17  2  0  0  0
 16 21  1  0  0  0
 16 31  1  0  0  0
 17 18  1  0  0  0
 17101  1  0  0  0
 18 19  2  0  0  0
 18102  1  0  0  0
 19 20  1  0  0  0
 19 24  1  0  0  0
 20 21  2  0  0  0
 20103  1  0  0  0
 21 23  1  0  0  0
 22 28  1  0  0  0
 22 32  2  0  0  0
 26 27  1  0  0  0
 28104  1  0  0  0
 28105  1  0  0  0
 29106  1  0  0  0
 29107  1  0  0  0
 33 34  1  0  0  0
 33 66  1  0  0  0
 33 70  2  0  0  0
 34 36  1  0  0  0
 34 59  1  0  0  0
 34108  1  0  0  0
 35 44  2  0  0  0
 35 45  1  0  0  0
 35 68  1  0  0  0
 36 56  1  0  0  0
 36109  1  0  0  0
 37 39  1  0  0  0
 37 47  1  0  0  0
 37 66  1  0  0  0
 37110  1  0  0  0
 38 43  2  0  0  0
 38 46  1  0  0  0
 38 47  1  0  0  0
 39 64  1  0  0  0
 39 67  2  0  0  0
 40 52  1  0  0  0
 40 53  2  0  0  0
 40 58  1  0  0  0
 41111  1  0  0  0
 41112  1  0  0  0
 41113  1  0  0  0
 41 48  1  0  0  0
 42 43  1  0  0  0
 42 66  1  0  0  0
 42114  1  0  0  0
 42115  1  0  0  0
 43 44  1  0  0  0
 44116  1  0  0  0
 45 46  2  0  0  0
 45117  1  0  0  0
 46118  1  0  0  0
 47119  1  0  0  0
 47120  1  0  0  0
 48 56  1  0  0  0
 48 65  1  0  0  0
 48121  1  0  0  0
 49 50  1  0  0  0
 49 53  1  0  0  0
 49 64  1  0  0  0
 49122  1  0  0  0
 50 51  1  0  0  0
 50123  1  0  0  0
 50124  1  0  0  0
 51 52  1  0  0  0
 51125  1  0  0  0
 51126  1  0  0  0
 52127  1  0  0  0
 52128  1  0  0  0
 53 54  1  0  0  0
 54 55  2  0  0  0
 54129  1  0  0  0
 55 57  1  0  0  0
 55130  1  0  0  0
 56 69  2  0  0  0
 57 58  2  0  0  0
 57131  1  0  0  0
 58132  1  0  0  0
 59 60  1  0  0  0
 59 61  1  0  0  0
 59 62  1  0  0  0
 60133  1  0  0  0
 60134  1  0  0  0
 60135  1  0  0  0
 61136  1  0  0  0
 61137  1  0  0  0
 61138  1  0  0  0
 62139  1  0  0  0
 62140  1  0  0  0
 62141  1  0  0  0
 63 65  1  0  0  0
 63142  1  0  0  0
 63143  1  0  0  0
 63144  1  0  0  0
 64145  1  0  0  0
 65146  1  0  0  0
 68 83  1  0  0  0
 71 72  2  0  0  0
 71 86  1  0  0  0
 71147  1  0  0  0
 72 73  1  0  0  0
 72 77  1  0  0  0
 73 84  1  0  0  0
 73 85  2  0  0  0
 74148  1  0  0  0
 74149  1  0  0  0
 74150  1  0  0  0
 74 84  1  0  0  0
 75 84  1  0  0  0
 75151  1  0  0  0
 75152  1  0  0  0
 75153  1  0  0  0
 76154  1  0  0  0
 76155  1  0  0  0
 76156  1  0  0  0
 76 87  1  0  0  0
 77 79  1  0  0  0
 77157  1  0  0  0
 77158  1  0  0  0
 78 86  1  0  0  0
 78159  1  0  0  0
 78160  1  0  0  0
 79 81  1  0  0  0
 79161  1  0  0  0
 79162  1  0  0  0
 80 82  1  0  0  0
 80 83  1  0  0  0
 80163  1  0  0  0
 80164  1  0  0  0
 81 87  1  0  0  0
 81165  1  0  0  0
 81166  1  0  0  0
 82 87  1  0  0  0
 82167  1  0  0  0
 82168  1  0  0  0
 83169  1  0  0  0
 83170  1  0  0  0
 84171  1  0  0  0
 85 86  1  0  0  0
 87172  1  0  0  0
M  CHG  1  87   1
M  ISO  4   1 100  68 101  78 100  83 101
M  END
> <chiral flag>
0

> <version>
0

> <s_m_source_file>
/data/baiqing/PycharmProjects/Reinvent-master-3.2/result/LINK_invent/BTK/process_docking_weight1_custom_sum_contain_oxygen_bond_distance_aromatic_linkinvent_7_9_3/rearranged_h_0049.sdf

> <i_m_source_file_index>
11

> <r_mmod_Potential_Energy-OPLS-2005>
-167.131759643555

> <r_mmod_Stretch_Energy-OPLS-2005>
34.1799697875977

> <r_mmod_Bend_Energy-OPLS-2005>
108.60693359375

> <r_mmod_Torsional_Energy-OPLS-2005>
199.582183837891

> <r_mmod_Improper_Torsional_Energy-OPLS-2005>
2.07663583755493

> <r_mmod_Van_der_Waal_Energy-OPLS-2005>
124.162506103516

> <r_mmod_Electrostatic_Energy-OPLS-2005>
-203.605834960938

> <r_mmod_Solvation_Energy-OPLS-2005>
-439.513305664062

> <b_mmod_Minimization_Converged-OPLS-2005>
0

> <r_mmod_RMS_Derivative-OPLS-2005>
1.01490366458893

$$$$
12
                    3D
 Structure written by MMmdl.
166174  0  0  1  0            999 V2000
  -30.6143  -14.7252   20.4992 C   0  0  0  0  0  0
  -30.4393  -12.4579   19.4547 C   0  0  0  0  0  0
  -29.5189  -12.5216   18.2179 C   0  0  0  0  0  0
  -28.0456  -12.3242   18.6336 C   0  0  0  0  0  0
  -27.6443  -13.2204   19.8372 C   0  0  2  0  0  0
  -28.6881  -13.1434   20.9704 C   0  0  0  0  0  0
  -25.2565  -13.8137   20.5614 C   0  0  0  0  0  0
  -24.1832  -13.0423   20.9161 C   0  0  0  0  0  0
  -24.6393  -11.6886   20.8657 C   0  0  0  0  0  0
  -23.9044  -10.4285   21.0329 C   0  0  0  0  0  0
  -24.3594   -9.4239   21.9148 C   0  0  0  0  0  0
  -23.6286   -8.2264   22.0742 C   0  0  0  0  0  0
  -22.4276   -8.0267   21.3533 C   0  0  0  0  0  0
  -21.9912   -9.0226   20.4639 C   0  0  0  0  0  0
  -22.7199  -10.2119   20.3008 C   0  0  0  0  0  0
  -21.6855   -6.0722   22.5275 C   0  0  0  0  0  0
  -21.3993   -6.5622   23.8212 C   0  0  0  0  0  0
  -21.3661   -5.6786   24.9184 C   0  0  0  0  0  0
  -21.6066   -4.3051   24.7238 C   0  0  0  0  0  0
  -21.8815   -3.8119   23.4360 C   0  0  0  0  0  0
  -21.9195   -4.6936   22.3409 C   0  0  0  0  0  0
  -22.7884  -13.5231   21.1814 C   0  0  0  0  0  0
  -22.1645   -4.2116   21.0989 F   0  0  0  0  0  0
  -21.5651   -3.4547   25.7751 F   0  0  0  0  0  0
  -29.9889  -13.5070   20.3940 N   0  0  0  0  0  0
  -26.2954  -12.9303   20.3158 N   0  0  0  0  0  0
  -25.9317  -11.6463   20.5625 N   0  0  0  0  0  0
  -22.0470  -12.8283   22.0358 N   0  0  0  0  0  0
  -25.4347  -15.1850   20.3954 N   0  0  0  0  0  0
  -31.8125  -14.8365   20.2146 O   0  0  0  0  0  0
  -21.6635   -6.8874   21.4237 O   0  0  0  0  0  0
  -22.3619  -14.5534   20.6618 O   0  0  0  0  0  0
  -24.6299  -31.8548   23.1967 C   0  0  0  0  0  0
  -25.9113  -32.4756   23.8316 C   0  0  1  0  0  0
  -27.2332  -27.2687   20.1431 C   0  0  0  0  0  0
  -25.5916  -33.8570   24.2239 N   0  0  0  0  0  0
  -23.4281  -30.4713   21.5446 C   0  0  2  0  0  0
  -24.8785  -28.9162   20.1184 C   0  0  0  0  0  0
  -22.7508  -29.4571   22.4966 C   0  0  0  0  0  0
  -18.0281  -28.1413   22.8468 C   0  0  0  0  0  0
  -24.1494  -36.7303   23.2641 C   0  0  0  0  0  0
  -25.9724  -30.7723   21.3730 C   0  0  0  0  0  0
  -26.0497  -29.3922   20.7222 C   0  0  0  0  0  0
  -27.2322  -28.5844   20.7193 C   0  0  0  0  0  0
  -26.0418  -26.8657   19.4975 C   0  0  0  0  0  0
  -24.8796  -27.6590   19.4932 C   0  0  0  0  0  0
  -23.6460  -29.7993   20.1637 C   0  0  0  0  0  0
  -25.4120  -36.3079   24.0322 C   0  0  1  0  0  0
  -20.5892  -28.3699   23.1305 C   0  0  2  0  0  0
  -20.6781  -26.9429   22.5421 C   0  0  0  0  0  0
  -19.5754  -26.6392   21.5223 C   0  0  0  0  0  0
  -18.1927  -26.7947   22.1618 C   0  0  0  0  0  0
  -19.1539  -28.8870   23.2866 C   0  0  0  0  0  0
  -18.9465  -30.1477   23.8860 C   0  0  0  0  0  0
  -17.6467  -30.6600   24.0559 C   0  0  0  0  0  0
  -25.9063  -34.9446   23.5086 C   0  0  0  0  0  0
  -16.5353  -29.9093   23.6349 C   0  0  0  0  0  0
  -16.7273  -28.6535   23.0326 C   0  0  0  0  0  0
  -26.4465  -31.6586   25.0709 C   0  0  0  0  0  0
  -25.3683  -31.3738   26.1431 C   0  0  0  0  0  0
  -27.0321  -30.3009   24.6193 C   0  0  0  0  0  0
  -27.6026  -32.4319   25.7481 C   0  0  0  0  0  0
  -27.5592  -37.1794   24.8455 C   0  0  0  0  0  0
  -21.4222  -29.3023   22.3709 N   0  0  0  0  0  0
  -26.4291  -37.3779   23.9424 N   0  0  0  0  0  0
  -24.6964  -31.0510   22.0946 N   0  0  0  0  0  0
  -23.4216  -28.8146   23.3093 O   0  0  0  0  0  0
  -28.3304  -26.3770   20.1820 O   0  0  0  0  0  0
  -26.5662  -34.8920   22.4677 O   0  0  0  0  0  0
  -23.5445  -32.1383   23.7251 O   0  0  0  0  0  0
  -30.4889  -19.1170   19.4379 C   0  0  0  0  0  0
  -29.9545  -18.5924   20.5875 C   0  0  0  0  0  0
  -29.3669  -20.8477   20.3741 C   0  0  0  0  0  0
  -27.8433  -21.7693   15.5723 C   0  0  0  0  0  0
  -30.9571  -21.3312   15.7620 C   0  0  0  0  0  0
  -30.2363  -17.2067   21.2901 C   0  0  0  0  0  0
  -28.6144  -22.2224   20.6590 C   0  0  0  0  0  0
  -28.7258  -22.0544   16.7981 C   0  0  0  0  0  0
  -29.0745  -23.7222   20.2312 C   0  0  0  0  0  0
  -30.6859  -21.3227   18.2763 C   0  0  0  0  0  0
  -28.0712  -24.9454   20.5724 C   0  0  0  0  0  0
  -29.9607  -21.1323   16.9224 C   0  0  2  0  0  0
  -30.1626  -20.4627   19.3477 N   0  0  0  0  0  0
  -29.2454  -19.6934   21.1086 N   0  3  0  0  0  0
  -29.8363  -15.8408   20.7568 N   0  0  0  0  0  0
  -31.4808  -12.5926   19.1596 H   0  0  0  0  0  0
  -30.3822  -11.4762   19.9231 H   0  0  0  0  0  0
  -29.8091  -11.7606   17.4962 H   0  0  0  0  0  0
  -29.6462  -13.4837   17.7159 H   0  0  0  0  0  0
  -27.9270  -11.2724   18.9039 H   0  0  0  0  0  0
  -27.3810  -12.4920   17.7844 H   0  0  0  0  0  0
  -27.6418  -14.2429   19.4581 H   0  0  0  0  0  0
  -28.7240  -12.1378   21.3900 H   0  0  0  0  0  0
  -28.4229  -13.8067   21.7946 H   0  0  0  0  0  0
  -25.2720   -9.5710   22.4763 H   0  0  0  0  0  0
  -23.9976   -7.4651   22.7473 H   0  0  0  0  0  0
  -21.0825   -8.8691   19.9001 H   0  0  0  0  0  0
  -22.3565  -10.9634   19.6135 H   0  0  0  0  0  0
  -21.1942   -7.6133   23.9694 H   0  0  0  0  0  0
  -21.1498   -6.0527   25.9100 H   0  0  0  0  0  0
  -22.0597   -2.7574   23.2861 H   0  0  0  0  0  0
  -22.3973  -11.9977   22.4866 H   0  0  0  0  0  0
  -21.1059  -13.1339   22.2417 H   0  0  0  0  0  0
  -24.6760  -15.8485   20.5034 H   0  0  0  0  0  0
  -26.2778  -15.6091   20.0306 H   0  0  0  0  0  0
  -26.7199  -32.5393   23.1084 H   0  0  0  0  0  0
  -24.9982  -33.9711   25.0324 H   0  0  0  0  0  0
  -22.7212  -31.2898   21.3945 H   0  0  0  0  0  0
  -23.3758  -35.9628   23.3252 H   0  0  0  0  0  0
  -24.3597  -36.8984   22.2068 H   0  0  0  0  0  0
  -23.7231  -37.6478   23.6710 H   0  0  0  0  0  0
  -26.1069  -31.5249   20.5942 H   0  0  0  0  0  0
  -26.8526  -30.8273   22.0030 H   0  0  0  0  0  0
  -28.1328  -28.9467   21.1974 H   0  0  0  0  0  0
  -25.9861  -25.9128   18.9907 H   0  0  0  0  0  0
  -23.9884  -27.2838   19.0089 H   0  0  0  0  0  0
  -23.7709  -30.5706   19.4023 H   0  0  0  0  0  0
  -22.7645  -29.2303   19.8600 H   0  0  0  0  0  0
  -25.1294  -36.1916   25.0810 H   0  0  0  0  0  0
  -20.9952  -28.3254   24.1438 H   0  0  0  0  0  0
  -20.5715  -26.2297   23.3610 H   0  0  0  0  0  0
  -21.6653  -26.7480   22.1193 H   0  0  0  0  0  0
  -19.6937  -25.6297   21.1252 H   0  0  0  0  0  0
  -19.6715  -27.3195   20.6743 H   0  0  0  0  0  0
  -17.4221  -26.6686   21.4002 H   0  0  0  0  0  0
  -18.0325  -26.0100   22.9017 H   0  0  0  0  0  0
  -19.7939  -30.7307   24.2212 H   0  0  0  0  0  0
  -17.5015  -31.6268   24.5174 H   0  0  0  0  0  0
  -15.5350  -30.2984   23.7697 H   0  0  0  0  0  0
  -15.8666  -28.0856   22.7033 H   0  0  0  0  0  0
  -24.5839  -30.7126   25.7738 H   0  0  0  0  0  0
  -24.8894  -32.2909   26.4865 H   0  0  0  0  0  0
  -25.7968  -30.8881   27.0208 H   0  0  0  0  0  0
  -26.2909  -29.6749   24.1219 H   0  0  0  0  0  0
  -27.4018  -29.7274   25.4701 H   0  0  0  0  0  0
  -27.8766  -30.4294   23.9429 H   0  0  0  0  0  0
  -27.2650  -33.3634   26.2039 H   0  0  0  0  0  0
  -28.3834  -32.6859   25.0303 H   0  0  0  0  0  0
  -28.0701  -31.8460   26.5406 H   0  0  0  0  0  0
  -28.2561  -38.0131   24.7545 H   0  0  0  0  0  0
  -28.1121  -36.2666   24.6203 H   0  0  0  0  0  0
  -27.2323  -37.1338   25.8853 H   0  0  0  0  0  0
  -20.9459  -29.8707   21.6847 H   0  0  0  0  0  0
  -26.0158  -38.2849   24.1422 H   0  0  0  0  0  0
  -31.1372  -18.6441   18.7133 H   0  0  0  0  0  0
  -26.9404  -22.3867   15.5813 H   0  0  0  0  0  0
  -27.5251  -20.7261   15.5413 H   0  0  0  0  0  0
  -28.3725  -21.9904   14.6443 H   0  0  0  0  0  0
  -30.4982  -21.1269   14.7963 H   0  0  0  0  0  0
  -31.8041  -20.6479   15.8552 H   0  0  0  0  0  0
  -31.3560  -22.3463   15.7338 H   0  0  0  0  0  0
  -29.8255  -17.2695   22.2986 H   0  0  0  0  0  0
  -31.3135  -17.1699   21.4510 H   0  0  0  0  0  0
  -28.4682  -22.2337   21.7388 H   0  0  0  0  0  0
  -27.6208  -22.0654   20.2424 H   0  0  0  0  0  0
  -28.1057  -21.9566   17.6889 H   0  0  0  0  0  0
  -29.0455  -23.0973   16.7662 H   0  0  0  0  0  0
  -29.2287  -23.7631   19.1566 H   0  0  0  0  0  0
  -30.0437  -23.9328   20.6789 H   0  0  0  0  0  0
  -30.7203  -22.3584   18.5994 H   0  0  0  0  0  0
  -31.7337  -21.0388   18.1688 H   0  0  0  0  0  0
  -27.9595  -24.9604   21.6575 H   0  0  0  0  0  0
  -27.0966  -24.6233   20.2133 H   0  0  0  0  0  0
  -29.6216  -20.0943   16.8697 H   0  0  0  0  0  0
  -28.7113  -19.6494   21.9696 H   0  0  0  0  0  0
  -28.8489  -15.6510   20.8208 H   0  0  0  0  0  0
  1 25  1  0  0  0
  1 30  2  0  0  0
  1 85  1  0  0  0
  2  3  1  0  0  0
  2 25  1  0  0  0
  2 86  1  0  0  0
  2 87  1  0  0  0
  3  4  1  0  0  0
  3 88  1  0  0  0
  3 89  1  0  0  0
  4  5  1  0  0  0
  4 90  1  0  0  0
  4 91  1  0  0  0
  5  6  1  0  0  0
  5 26  1  0  0  0
  5 92  1  0  0  0
  6 25  1  0  0  0
  6 93  1  0  0  0
  6 94  1  0  0  0
  7  8  2  0  0  0
  7 26  1  0  0  0
  7 29  1  0  0  0
  8  9  1  0  0  0
  8 22  1  0  0  0
  9 10  1  0  0  0
  9 27  2  0  0  0
 10 11  2  0  0  0
 10 15  1  0  0  0
 11 12  1  0  0  0
 11 95  1  0  0  0
 12 13  2  0  0  0
 12 96  1  0  0  0
 13 14  1  0  0  0
 13 31  1  0  0  0
 14 15  2  0  0  0
 14 97  1  0  0  0
 15 98  1  0  0  0
 16 17  2  0  0  0
 16 21  1  0  0  0
 16 31  1  0  0  0
 17 18  1  0  0  0
 17 99  1  0  0  0
 18 19  2  0  0  0
 18100  1  0  0  0
 19 20  1  0  0  0
 19 24  1  0  0  0
 20 21  2  0  0  0
 20101  1  0  0  0
 21 23  1  0  0  0
 22 28  1  0  0  0
 22 32  2  0  0  0
 26 27  1  0  0  0
 28102  1  0  0  0
 28103  1  0  0  0
 29104  1  0  0  0
 29105  1  0  0  0
 33 34  1  0  0  0
 33 66  1  0  0  0
 33 70  2  0  0  0
 34 36  1  0  0  0
 34 59  1  0  0  0
 34106  1  0  0  0
 35 44  2  0  0  0
 35 45  1  0  0  0
 35 68  1  0  0  0
 36 56  1  0  0  0
 36107  1  0  0  0
 37 39  1  0  0  0
 37 47  1  0  0  0
 37 66  1  0  0  0
 37108  1  0  0  0
 38 43  2  0  0  0
 38 46  1  0  0  0
 38 47  1  0  0  0
 39 64  1  0  0  0
 39 67  2  0  0  0
 40 52  1  0  0  0
 40 53  2  0  0  0
 40 58  1  0  0  0
 41109  1  0  0  0
 41110  1  0  0  0
 41111  1  0  0  0
 41 48  1  0  0  0
 42 43  1  0  0  0
 42 66  1  0  0  0
 42112  1  0  0  0
 42113  1  0  0  0
 43 44  1  0  0  0
 44114  1  0  0  0
 45 46  2  0  0  0
 45115  1  0  0  0
 46116  1  0  0  0
 47117  1  0  0  0
 47118  1  0  0  0
 48 56  1  0  0  0
 48 65  1  0  0  0
 48119  1  0  0  0
 49 50  1  0  0  0
 49 53  1  0  0  0
 49 64  1  0  0  0
 49120  1  0  0  0
 50 51  1  0  0  0
 50121  1  0  0  0
 50122  1  0  0  0
 51 52  1  0  0  0
 51123  1  0  0  0
 51124  1  0  0  0
 52125  1  0  0  0
 52126  1  0  0  0
 53 54  1  0  0  0
 54 55  2  0  0  0
 54127  1  0  0  0
 55 57  1  0  0  0
 55128  1  0  0  0
 56 69  2  0  0  0
 57 58  2  0  0  0
 57129  1  0  0  0
 58130  1  0  0  0
 59 60  1  0  0  0
 59 61  1  0  0  0
 59 62  1  0  0  0
 60131  1  0  0  0
 60132  1  0  0  0
 60133  1  0  0  0
 61134  1  0  0  0
 61135  1  0  0  0
 61136  1  0  0  0
 62137  1  0  0  0
 62138  1  0  0  0
 62139  1  0  0  0
 63 65  1  0  0  0
 63140  1  0  0  0
 63141  1  0  0  0
 63142  1  0  0  0
 64143  1  0  0  0
 65144  1  0  0  0
 68 81  1  0  0  0
 71 72  2  0  0  0
 71 83  1  0  0  0
 71145  1  0  0  0
 72 76  1  0  0  0
 72 84  1  0  0  0
 73 77  1  0  0  0
 73 83  1  0  0  0
 73 84  2  0  0  0
 74 78  1  0  0  0
 74146  1  0  0  0
 74147  1  0  0  0
 74148  1  0  0  0
 75149  1  0  0  0
 75150  1  0  0  0
 75151  1  0  0  0
 75 82  1  0  0  0
 76 85  1  0  0  0
 76152  1  0  0  0
 76153  1  0  0  0
 77 79  1  0  0  0
 77154  1  0  0  0
 77155  1  0  0  0
 78 82  1  0  0  0
 78156  1  0  0  0
 78157  1  0  0  0
 79 81  1  0  0  0
 79158  1  0  0  0
 79159  1  0  0  0
 80 82  1  0  0  0
 80 83  1  0  0  0
 80160  1  0  0  0
 80161  1  0  0  0
 81162  1  0  0  0
 81163  1  0  0  0
 82164  1  0  0  0
 84165  1  0  0  0
 85166  1  0  0  0
M  CHG  1  84   1
M  ISO  4   1 100  68 101  81 101  85 100
M  END
> <chiral flag>
0

> <version>
0

> <s_m_source_file>
/data/baiqing/PycharmProjects/Reinvent-master-3.2/result/LINK_invent/BTK/process_docking_weight1_custom_sum_contain_oxygen_bond_distance_aromatic_linkinvent_7_9_3/rearranged_h_0049.sdf

> <i_m_source_file_index>
12

> <r_mmod_Potential_Energy-OPLS-2005>
45.6490859985352

> <r_mmod_Stretch_Energy-OPLS-2005>
117.766716003418

> <r_mmod_Bend_Energy-OPLS-2005>
186.824859619141

> <r_mmod_Torsional_Energy-OPLS-2005>
250.641632080078

> <r_mmod_Improper_Torsional_Energy-OPLS-2005>
5.515052318573

> <r_mmod_Van_der_Waal_Energy-OPLS-2005>
113.744255065918

> <r_mmod_Electrostatic_Energy-OPLS-2005>
-285.741149902344

> <r_mmod_Solvation_Energy-OPLS-2005>
-423.602752685547

> <b_mmod_Minimization_Converged-OPLS-2005>
0

> <r_mmod_RMS_Derivative-OPLS-2005>
4.64265251159668

$$$$
13
                    3D
 Structure written by MMmdl.
160168  0  0  1  0            999 V2000
  -30.7820  -14.4530   20.6340 C   0  0  0  0  0  0
  -30.4161  -12.3124   19.4476 C   0  0  0  0  0  0
  -29.5064  -12.5098   18.2210 C   0  0  0  0  0  0
  -28.0292  -12.3530   18.6257 C   0  0  0  0  0  0
  -27.6632  -13.2113   19.8656 C   0  0  2  0  0  0
  -28.6964  -13.0387   21.0002 C   0  0  0  0  0  0
  -25.2604  -13.8162   20.5645 C   0  0  0  0  0  0
  -24.1864  -13.0435   20.9160 C   0  0  0  0  0  0
  -24.6431  -11.6907   20.8711 C   0  0  0  0  0  0
  -23.9090  -10.4292   21.0380 C   0  0  0  0  0  0
  -24.3630   -9.4196   21.9163 C   0  0  0  0  0  0
  -23.6294   -8.2239   22.0753 C   0  0  0  0  0  0
  -22.4275   -8.0280   21.3542 C   0  0  0  0  0  0
  -21.9914   -9.0255   20.4644 C   0  0  0  0  0  0
  -22.7256  -10.2129   20.3037 C   0  0  0  0  0  0
  -21.6861   -6.0724   22.5273 C   0  0  0  0  0  0
  -21.4015   -6.5626   23.8211 C   0  0  0  0  0  0
  -21.3664   -5.6782   24.9173 C   0  0  0  0  0  0
  -21.6046   -4.3043   24.7216 C   0  0  0  0  0  0
  -21.8824   -3.8131   23.4344 C   0  0  0  0  0  0
  -21.9194   -4.6953   22.3396 C   0  0  0  0  0  0
  -22.7882  -13.5229   21.1806 C   0  0  0  0  0  0
  -22.1651   -4.2141   21.0973 F   0  0  0  0  0  0
  -21.5646   -3.4524   25.7728 F   0  0  0  0  0  0
  -30.0417  -13.3144   20.4641 N   0  0  0  0  0  0
  -26.3037  -12.9346   20.3277 N   0  0  0  0  0  0
  -25.9356  -11.6505   20.5732 N   0  0  0  0  0  0
  -22.0495  -12.8267   22.0383 N   0  0  0  0  0  0
  -25.4316  -15.1883   20.4055 N   0  0  0  0  0  0
  -31.8386  -14.6314   20.0217 O   0  0  0  0  0  0
  -21.6646   -6.8869   21.4242 O   0  0  0  0  0  0
  -22.3561  -14.5503   20.6611 O   0  0  0  0  0  0
  -24.6214  -31.8666   23.2141 C   0  0  0  0  0  0
  -25.9091  -32.4838   23.8429 C   0  0  1  0  0  0
  -27.2232  -27.4053   20.0927 C   0  0  0  0  0  0
  -25.5954  -33.8639   24.2348 N   0  0  0  0  0  0
  -23.4088  -30.4975   21.5550 C   0  0  2  0  0  0
  -24.8502  -28.9717   20.1139 C   0  0  0  0  0  0
  -22.7438  -29.4669   22.4974 C   0  0  0  0  0  0
  -18.0276  -28.1374   22.8480 C   0  0  0  0  0  0
  -24.1494  -36.7298   23.2640 C   0  0  0  0  0  0
  -25.9459  -30.8238   21.3754 C   0  0  0  0  0  0
  -26.0198  -29.4628   20.7100 C   0  0  0  0  0  0
  -27.2088  -28.6902   20.6938 C   0  0  0  0  0  0
  -26.0257  -26.9544   19.4773 C   0  0  0  0  0  0
  -24.8489  -27.7162   19.4973 C   0  0  0  0  0  0
  -23.6186  -29.8437   20.1658 C   0  0  0  0  0  0
  -25.4117  -36.3114   24.0339 C   0  0  1  0  0  0
  -20.5871  -28.3674   23.1285 C   0  0  2  0  0  0
  -20.6771  -26.9404   22.5389 C   0  0  0  0  0  0
  -19.5742  -26.6372   21.5194 C   0  0  0  0  0  0
  -18.1922  -26.7917   22.1605 C   0  0  0  0  0  0
  -19.1533  -28.8837   23.2877 C   0  0  0  0  0  0
  -18.9461  -30.1435   23.8899 C   0  0  0  0  0  0
  -17.6466  -30.6585   24.0554 C   0  0  0  0  0  0
  -25.9035  -34.9485   23.5117 C   0  0  0  0  0  0
  -16.5354  -29.9075   23.6339 C   0  0  0  0  0  0
  -16.7263  -28.6487   23.0366 C   0  0  0  0  0  0
  -26.4503  -31.6653   25.0774 C   0  0  0  0  0  0
  -25.3806  -31.3757   26.1558 C   0  0  0  0  0  0
  -27.0356  -30.3098   24.6182 C   0  0  0  0  0  0
  -27.6037  -32.4419   25.7539 C   0  0  0  0  0  0
  -27.5582  -37.1807   24.8468 C   0  0  0  0  0  0
  -21.4162  -29.3055   22.3714 N   0  0  0  0  0  0
  -26.4301  -37.3806   23.9417 N   0  0  0  0  0  0
  -24.6773  -31.0757   22.1055 N   0  0  0  0  0  0
  -23.4190  -28.8175   23.2997 O   0  0  0  0  0  0
  -28.3604  -26.6008   20.1414 O   0  0  0  0  0  0
  -26.5553  -34.8937   22.4651 O   0  0  0  0  0  0
  -23.5395  -32.1428   23.7523 O   0  0  0  0  0  0
  -30.3952  -19.6398   19.6648 C   0  0  0  0  0  0
  -28.8281  -20.3111   21.0929 C   0  0  0  0  0  0
  -30.1705  -20.9701   19.4214 C   0  0  0  0  0  0
  -29.1529  -21.4071   20.3280 C   0  0  0  0  0  0
  -30.8304  -21.7614   18.3210 C   0  0  0  0  0  0
  -30.2569  -15.2832   22.8436 C   0  0  0  0  0  0
  -28.3961  -22.7341   20.3479 C   0  0  0  0  0  0
  -29.1354  -24.1084   20.3905 C   0  0  0  0  0  0
  -29.3031  -17.8128   21.0924 C   0  0  0  0  0  0
  -30.5372  -16.8760   21.0077 C   0  0  0  0  0  0
  -28.0954  -25.1862   19.9849 C   0  0  0  0  0  0
  -29.5362  -19.2016   20.6566 N   0  0  0  0  0  0
  -30.2602  -15.4613   21.3864 N   0  0  0  0  0  0
  -31.4638  -12.3777   19.1517 H   0  0  0  0  0  0
  -30.2941  -11.3069   19.8541 H   0  0  0  0  0  0
  -29.7624  -11.7869   17.4452 H   0  0  0  0  0  0
  -29.6767  -13.4976   17.7900 H   0  0  0  0  0  0
  -27.8614  -11.2967   18.8405 H   0  0  0  0  0  0
  -27.3775  -12.5961   17.7862 H   0  0  0  0  0  0
  -27.6993  -14.2541   19.5465 H   0  0  0  0  0  0
  -28.6646  -12.0235   21.3980 H   0  0  0  0  0  0
  -28.4245  -13.6898   21.8287 H   0  0  0  0  0  0
  -25.2772   -9.5672   22.4742 H   0  0  0  0  0  0
  -24.0004   -7.4627   22.7470 H   0  0  0  0  0  0
  -21.0844   -8.8759   19.8947 H   0  0  0  0  0  0
  -22.3696  -10.9662   19.6142 H   0  0  0  0  0  0
  -21.2002   -7.6133   23.9709 H   0  0  0  0  0  0
  -21.1492   -6.0507   25.9077 H   0  0  0  0  0  0
  -22.0609   -2.7599   23.2838 H   0  0  0  0  0  0
  -22.4097  -11.9962   22.4843 H   0  0  0  0  0  0
  -21.1079  -13.1286   22.2475 H   0  0  0  0  0  0
  -24.6686  -15.8450   20.5220 H   0  0  0  0  0  0
  -26.2901  -15.6291   20.1002 H   0  0  0  0  0  0
  -26.7157  -32.5511   23.1183 H   0  0  0  0  0  0
  -25.0292  -33.9822   25.0620 H   0  0  0  0  0  0
  -22.6990  -31.3163   21.4209 H   0  0  0  0  0  0
  -23.3776  -35.9608   23.3318 H   0  0  0  0  0  0
  -24.3589  -36.8891   22.2051 H   0  0  0  0  0  0
  -23.7225  -37.6494   23.6643 H   0  0  0  0  0  0
  -26.0825  -31.5973   20.6179 H   0  0  0  0  0  0
  -26.8250  -30.8557   22.0076 H   0  0  0  0  0  0
  -28.1051  -29.0631   21.1690 H   0  0  0  0  0  0
  -25.9550  -25.9970   18.9841 H   0  0  0  0  0  0
  -23.9491  -27.3292   19.0380 H   0  0  0  0  0  0
  -23.7406  -30.6271   19.4164 H   0  0  0  0  0  0
  -22.7401  -29.2737   19.8581 H   0  0  0  0  0  0
  -25.1308  -36.1966   25.0831 H   0  0  0  0  0  0
  -20.9941  -28.3220   24.1417 H   0  0  0  0  0  0
  -20.5678  -26.2275   23.3581 H   0  0  0  0  0  0
  -21.6637  -26.7453   22.1180 H   0  0  0  0  0  0
  -19.6901  -25.6279   21.1225 H   0  0  0  0  0  0
  -19.6684  -27.3177   20.6723 H   0  0  0  0  0  0
  -17.4198  -26.6677   21.3999 H   0  0  0  0  0  0
  -18.0322  -26.0047   22.8990 H   0  0  0  0  0  0
  -19.7942  -30.7230   24.2273 H   0  0  0  0  0  0
  -17.5039  -31.6273   24.5142 H   0  0  0  0  0  0
  -15.5357  -30.2985   23.7683 H   0  0  0  0  0  0
  -15.8652  -28.0800   22.7115 H   0  0  0  0  0  0
  -24.5933  -30.7151   25.7920 H   0  0  0  0  0  0
  -24.9089  -32.2927   26.5092 H   0  0  0  0  0  0
  -25.8211  -30.8871   27.0264 H   0  0  0  0  0  0
  -26.2911  -29.6851   24.1242 H   0  0  0  0  0  0
  -27.4135  -29.7342   25.4640 H   0  0  0  0  0  0
  -27.8746  -30.4423   23.9354 H   0  0  0  0  0  0
  -27.2594  -33.3687   26.2149 H   0  0  0  0  0  0
  -28.3824  -32.7068   25.0374 H   0  0  0  0  0  0
  -28.0760  -31.8577   26.5448 H   0  0  0  0  0  0
  -28.2610  -38.0100   24.7528 H   0  0  0  0  0  0
  -28.1068  -36.2630   24.6279 H   0  0  0  0  0  0
  -27.2300  -37.1445   25.8873 H   0  0  0  0  0  0
  -20.9309  -29.8829   21.6991 H   0  0  0  0  0  0
  -26.0183  -38.2875   24.1427 H   0  0  0  0  0  0
  -31.0612  -18.9570   19.1547 H   0  0  0  0  0  0
  -28.0737  -20.2027   21.8632 H   0  0  0  0  0  0
  -30.9065  -21.1510   17.4206 H   0  0  0  0  0  0
  -31.8356  -22.0659   18.6134 H   0  0  0  0  0  0
  -30.2522  -22.6471   18.0583 H   0  0  0  0  0  0
  -31.1642  -15.6923   23.2911 H   0  0  0  0  0  0
  -30.2083  -14.2350   23.1444 H   0  0  0  0  0  0
  -29.4050  -15.7925   23.2936 H   0  0  0  0  0  0
  -27.6855  -22.7020   21.1757 H   0  0  0  0  0  0
  -27.7829  -22.7050   19.4464 H   0  0  0  0  0  0
  -29.9823  -24.1423   19.7072 H   0  0  0  0  0  0
  -29.5277  -24.2952   21.3899 H   0  0  0  0  0  0
  -28.9266  -17.8380   22.1148 H   0  0  0  0  0  0
  -28.5000  -17.4077   20.4761 H   0  0  0  0  0  0
  -31.3378  -17.2816   21.6273 H   0  0  0  0  0  0
  -30.9092  -16.9165   19.9842 H   0  0  0  0  0  0
  -27.2061  -24.9531   20.5751 H   0  0  0  0  0  0
  -27.8500  -25.0059   18.9370 H   0  0  0  0  0  0
  1 25  1  0  0  0
  1 30  2  0  0  0
  1 83  1  0  0  0
  2  3  1  0  0  0
  2 25  1  0  0  0
  2 84  1  0  0  0
  2 85  1  0  0  0
  3  4  1  0  0  0
  3 86  1  0  0  0
  3 87  1  0  0  0
  4  5  1  0  0  0
  4 88  1  0  0  0
  4 89  1  0  0  0
  5  6  1  0  0  0
  5 26  1  0  0  0
  5 90  1  0  0  0
  6 25  1  0  0  0
  6 91  1  0  0  0
  6 92  1  0  0  0
  7  8  2  0  0  0
  7 26  1  0  0  0
  7 29  1  0  0  0
  8  9  1  0  0  0
  8 22  1  0  0  0
  9 10  1  0  0  0
  9 27  2  0  0  0
 10 11  2  0  0  0
 10 15  1  0  0  0
 11 12  1  0  0  0
 11 93  1  0  0  0
 12 13  2  0  0  0
 12 94  1  0  0  0
 13 14  1  0  0  0
 13 31  1  0  0  0
 14 15  2  0  0  0
 14 95  1  0  0  0
 15 96  1  0  0  0
 16 17  2  0  0  0
 16 21  1  0  0  0
 16 31  1  0  0  0
 17 18  1  0  0  0
 17 97  1  0  0  0
 18 19  2  0  0  0
 18 98  1  0  0  0
 19 20  1  0  0  0
 19 24  1  0  0  0
 20 21  2  0  0  0
 20 99  1  0  0  0
 21 23  1  0  0  0
 22 28  1  0  0  0
 22 32  2  0  0  0
 26 27  1  0  0  0
 28100  1  0  0  0
 28101  1  0  0  0
 29102  1  0  0  0
 29103  1  0  0  0
 33 34  1  0  0  0
 33 66  1  0  0  0
 33 70  2  0  0  0
 34 36  1  0  0  0
 34 59  1  0  0  0
 34104  1  0  0  0
 35 44  2  0  0  0
 35 45  1  0  0  0
 35 68  1  0  0  0
 36 56  1  0  0  0
 36105  1  0  0  0
 37 39  1  0  0  0
 37 47  1  0  0  0
 37 66  1  0  0  0
 37106  1  0  0  0
 38 43  2  0  0  0
 38 46  1  0  0  0
 38 47  1  0  0  0
 39 64  1  0  0  0
 39 67  2  0  0  0
 40 52  1  0  0  0
 40 53  2  0  0  0
 40 58  1  0  0  0
 41107  1  0  0  0
 41108  1  0  0  0
 41109  1  0  0  0
 41 48  1  0  0  0
 42 43  1  0  0  0
 42 66  1  0  0  0
 42110  1  0  0  0
 42111  1  0  0  0
 43 44  1  0  0  0
 44112  1  0  0  0
 45 46  2  0  0  0
 45113  1  0  0  0
 46114  1  0  0  0
 47115  1  0  0  0
 47116  1  0  0  0
 48 56  1  0  0  0
 48 65  1  0  0  0
 48117  1  0  0  0
 49 50  1  0  0  0
 49 53  1  0  0  0
 49 64  1  0  0  0
 49118  1  0  0  0
 50 51  1  0  0  0
 50119  1  0  0  0
 50120  1  0  0  0
 51 52  1  0  0  0
 51121  1  0  0  0
 51122  1  0  0  0
 52123  1  0  0  0
 52124  1  0  0  0
 53 54  1  0  0  0
 54 55  2  0  0  0
 54125  1  0  0  0
 55 57  1  0  0  0
 55126  1  0  0  0
 56 69  2  0  0  0
 57 58  2  0  0  0
 57127  1  0  0  0
 58128  1  0  0  0
 59 60  1  0  0  0
 59 61  1  0  0  0
 59 62  1  0  0  0
 60129  1  0  0  0
 60130  1  0  0  0
 60131  1  0  0  0
 61132  1  0  0  0
 61133  1  0  0  0
 61134  1  0  0  0
 62135  1  0  0  0
 62136  1  0  0  0
 62137  1  0  0  0
 63 65  1  0  0  0
 63138  1  0  0  0
 63139  1  0  0  0
 63140  1  0  0  0
 64141  1  0  0  0
 65142  1  0  0  0
 68 81  1  0  0  0
 71 73  2  0  0  0
 71 82  1  0  0  0
 71143  1  0  0  0
 72 74  2  0  0  0
 72 82  1  0  0  0
 72144  1  0  0  0
 73 74  1  0  0  0
 73 75  1  0  0  0
 74 77  1  0  0  0
 75145  1  0  0  0
 75146  1  0  0  0
 75147  1  0  0  0
 76 83  1  0  0  0
 76148  1  0  0  0
 76149  1  0  0  0
 76150  1  0  0  0
 77 78  1  0  0  0
 77151  1  0  0  0
 77152  1  0  0  0
 78 81  1  0  0  0
 78153  1  0  0  0
 78154  1  0  0  0
 79 80  1  0  0  0
 79 82  1  0  0  0
 79155  1  0  0  0
 79156  1  0  0  0
 80 83  1  0  0  0
 80157  1  0  0  0
 80158  1  0  0  0
 81159  1  0  0  0
 81160  1  0  0  0
M  ISO  4   1 100  68 101  81 101  83 100
M  END
> <chiral flag>
0

> <version>
0

> <s_m_source_file>
/data/baiqing/PycharmProjects/Reinvent-master-3.2/result/LINK_invent/BTK/process_docking_weight1_custom_sum_contain_oxygen_bond_distance_aromatic_linkinvent_7_9_3/rearranged_h_0049.sdf

> <i_m_source_file_index>
13

> <r_mmod_Potential_Energy-OPLS-2005>
97.8702163696289

> <r_mmod_Stretch_Energy-OPLS-2005>
44.1091537475586

> <r_mmod_Bend_Energy-OPLS-2005>
128.152954101562

> <r_mmod_Torsional_Energy-OPLS-2005>
276.925384521484

> <r_mmod_Improper_Torsional_Energy-OPLS-2005>
8.2339563369751

> <r_mmod_Van_der_Waal_Energy-OPLS-2005>
146.445098876953

> <r_mmod_Electrostatic_Energy-OPLS-2005>
-323.700164794922

> <r_mmod_Solvation_Energy-OPLS-2005>
-199.98127746582

> <b_mmod_Minimization_Converged-OPLS-2005>
0

> <r_mmod_RMS_Derivative-OPLS-2005>
2.83748555183411

$$$$
14
                    3D
 Structure written by MMmdl.
160168  0  0  1  0            999 V2000
  -30.1175  -15.0493   21.1438 C   0  0  0  0  0  0
  -30.6654  -13.8164   18.9189 C   0  0  0  0  0  0
  -29.8611  -14.5400   17.3807 C   0  0  0  0  0  0
  -27.8641  -14.9741   17.4983 C   0  0  0  0  0  0
  -27.4550  -14.1802   20.1317 C   0  0  2  0  0  0
  -28.6734  -13.3721   20.9228 C   0  0  0  0  0  0
  -25.0615  -13.8475   21.1023 C   0  0  0  0  0  0
  -24.0724  -12.9635   21.0551 C   0  0  0  0  0  0
  -24.6877  -11.7040   20.8670 C   0  0  0  0  0  0
  -23.9955  -10.4018   20.9723 C   0  0  0  0  0  0
  -24.4159   -9.4055   21.8805 C   0  0  0  0  0  0
  -23.6559   -8.2261   22.0634 C   0  0  0  0  0  0
  -22.4503   -8.0331   21.3470 C   0  0  0  0  0  0
  -22.0323   -9.0258   20.4435 C   0  0  0  0  0  0
  -22.7947  -10.1929   20.2567 C   0  0  0  0  0  0
  -21.6909   -6.0825   22.5296 C   0  0  0  0  0  0
  -21.4060   -6.5690   23.8241 C   0  0  0  0  0  0
  -21.3678   -5.6816   24.9184 C   0  0  0  0  0  0
  -21.6048   -4.3081   24.7210 C   0  0  0  0  0  0
  -21.8813   -3.8196   23.4320 C   0  0  0  0  0  0
  -21.9209   -4.7040   22.3393 C   0  0  0  0  0  0
  -22.6457  -13.3744   21.2184 C   0  0  0  0  0  0
  -22.1659   -4.2229   21.0965 F   0  0  0  0  0  0
  -21.5622   -3.4544   25.7709 F   0  0  0  0  0  0
  -29.9404  -13.9435   20.3889 N   0  0  0  0  0  0
  -26.2355  -13.2856   20.6505 N   0  0  0  0  0  0
  -26.0087  -11.9000   20.5645 N   0  0  0  0  0  0
  -21.9101  -12.6750   22.0620 N   0  0  0  0  0  0
  -24.9378  -15.1501   21.4609 N   0  0  0  0  0  0
  -31.3306  -15.3274   21.1388 O   0  0  0  0  0  0
  -21.6683   -6.9031   21.4296 O   0  0  0  0  0  0
  -22.2218  -14.3959   20.6697 O   0  0  0  0  0  0
  -24.7593  -31.7060   23.0858 C   0  0  0  0  0  0
  -25.9787  -32.4015   23.7697 C   0  0  1  0  0  0
  -27.2053  -25.9988   20.0422 C   0  0  0  0  0  0
  -25.6033  -33.7883   24.1507 N   0  0  0  0  0  0
  -23.6062  -30.2852   21.4653 C   0  0  2  0  0  0
  -25.0373  -28.4823   20.1007 C   0  0  0  0  0  0
  -22.8069  -29.3841   22.4521 C   0  0  0  0  0  0
  -18.0381  -28.1454   22.8420 C   0  0  0  0  0  0
  -24.1492  -36.6956   23.2676 C   0  0  0  0  0  0
  -26.2123  -30.1887   21.4411 C   0  0  0  0  0  0
  -26.2550  -28.6855   20.7561 C   0  0  0  0  0  0
  -27.2911  -27.4940   20.6824 C   0  0  0  0  0  0
  -25.9399  -26.1875   19.3763 C   0  0  0  0  0  0
  -24.9566  -27.2625   19.3975 C   0  0  0  0  0  0
  -23.8778  -29.5291   20.1245 C   0  0  0  0  0  0
  -25.4170  -36.2633   24.0233 C   0  0  1  0  0  0
  -20.6047  -28.3832   23.1024 C   0  0  2  0  0  0
  -20.6801  -26.9427   22.5421 C   0  0  0  0  0  0
  -19.5790  -26.6342   21.5225 C   0  0  0  0  0  0
  -18.1974  -26.7968   22.1607 C   0  0  0  0  0  0
  -19.1665  -28.8986   23.2680 C   0  0  0  0  0  0
  -18.9558  -30.1552   23.8756 C   0  0  0  0  0  0
  -17.6539  -30.6617   24.0535 C   0  0  0  0  0  0
  -25.9200  -34.9045   23.4770 C   0  0  0  0  0  0
  -16.5424  -29.9088   23.6363 C   0  0  0  0  0  0
  -16.7357  -28.6515   23.0376 C   0  0  0  0  0  0
  -26.4721  -31.6384   25.0629 C   0  0  0  0  0  0
  -25.3599  -31.3887   26.1107 C   0  0  0  0  0  0
  -27.0777  -30.2671   24.7025 C   0  0  0  0  0  0
  -27.6018  -32.4429   25.7492 C   0  0  0  0  0  0
  -27.5538  -37.1626   24.8465 C   0  0  0  0  0  0
  -21.4655  -29.2938   22.3274 N   0  0  0  0  0  0
  -26.4228  -37.3483   23.9420 N   0  0  0  0  0  0
  -24.8965  -30.7765   22.0498 N   0  0  0  0  0  0
  -23.4192  -28.7554   23.3173 O   0  0  0  0  0  0
  -28.0515  -24.4541   19.9304 O   0  0  0  0  0  0
  -26.5951  -34.8782   22.4465 O   0  0  0  0  0  0
  -23.6466  -32.0470   23.5374 O   0  0  0  0  0  0
  -29.8583  -17.4280   19.5012 C   0  0  0  0  0  0
  -29.6596  -19.0854   19.7309 C   0  0  0  0  0  0
  -28.9952  -16.1055   19.0080 C   0  0  0  0  0  0
  -28.5901  -20.2210   19.3497 C   0  0  0  0  0  0
  -26.2446  -12.1664   17.0441 C   0  0  0  0  0  0
  -28.4101  -13.1590   18.4651 C   0  0  0  0  0  0
  -27.9082  -22.3557   19.5840 C   0  0  0  0  0  0
  -26.1675  -16.0859   19.3749 C   0  0  0  0  0  0
  -27.3759  -16.6057   20.8846 C   0  0  0  0  0  0
  -25.6759  -14.4803   18.4170 C   0  0  0  0  0  0
  -28.2758  -17.4348   18.4775 N   0  0  0  0  0  0
  -28.0115  -18.9798   18.6528 N   0  0  0  0  0  0
  -28.9118  -15.9244   21.5303 N   0  0  0  0  0  0
  -26.6674  -13.0366   18.1669 N   0  3  1  0  0  0
  -31.6548  -14.2730   18.9790 H   0  0  0  0  0  0
  -30.9259  -12.7685   18.7528 H   0  0  0  0  0  0
  -30.0751  -13.9073   16.5147 H   0  0  0  0  0  0
  -30.4107  -15.4410   17.0936 H   0  0  0  0  0  0
  -27.5162  -14.4370   16.6055 H   0  0  0  0  0  0
  -27.4772  -15.8959   17.0654 H   0  0  0  0  0  0
  -27.2119  -14.5788   21.0575 H   0  0  0  0  0  0
  -28.6527  -12.2821   20.8808 H   0  0  0  0  0  0
  -28.5729  -13.4601   22.0137 H   0  0  0  0  0  0
  -25.3220   -9.5530   22.4519 H   0  0  0  0  0  0
  -24.0102   -7.4747   22.7548 H   0  0  0  0  0  0
  -21.1191   -8.8889   19.8811 H   0  0  0  0  0  0
  -22.4408  -10.9442   19.5645 H   0  0  0  0  0  0
  -21.2062   -7.6196   23.9771 H   0  0  0  0  0  0
  -21.1503   -6.0530   25.9093 H   0  0  0  0  0  0
  -22.0572   -2.7660   23.2796 H   0  0  0  0  0  0
  -22.2874  -11.8677   22.5360 H   0  0  0  0  0  0
  -20.9530  -12.9439   22.2399 H   0  0  0  0  0  0
  -24.0451  -15.5624   21.7069 H   0  0  0  0  0  0
  -25.6809  -15.8304   21.4023 H   0  0  0  0  0  0
  -26.7976  -32.4350   23.0493 H   0  0  0  0  0  0
  -24.9957  -33.8779   24.9517 H   0  0  0  0  0  0
  -22.9756  -31.1437   21.2254 H   0  0  0  0  0  0
  -23.3797  -35.9235   23.3208 H   0  0  0  0  0  0
  -24.3537  -36.8799   22.2118 H   0  0  0  0  0  0
  -23.7210  -37.6051   23.6904 H   0  0  0  0  0  0
  -26.5049  -30.8834   20.6527 H   0  0  0  0  0  0
  -27.0342  -30.2390   22.1417 H   0  0  0  0  0  0
  -28.2071  -27.6813   21.2250 H   0  0  0  0  0  0
  -25.6284  -25.3325   18.7924 H   0  0  0  0  0  0
  -24.0515  -27.0872   18.8326 H   0  0  0  0  0  0
  -24.1077  -30.2653   19.3536 H   0  0  0  0  0  0
  -22.9614  -29.0426   19.7862 H   0  0  0  0  0  0
  -25.1414  -36.1283   25.0717 H   0  0  0  0  0  0
  -21.0102  -28.3503   24.1163 H   0  0  0  0  0  0
  -20.5587  -26.2477   23.3743 H   0  0  0  0  0  0
  -21.6655  -26.7245   22.1288 H   0  0  0  0  0  0
  -19.6926  -25.6216   21.1342 H   0  0  0  0  0  0
  -19.6759  -27.3079   20.6700 H   0  0  0  0  0  0
  -17.4248  -26.6724   21.4004 H   0  0  0  0  0  0
  -18.0328  -26.0145   22.9030 H   0  0  0  0  0  0
  -19.8034  -30.7398   24.2072 H   0  0  0  0  0  0
  -17.5087  -31.6282   24.5166 H   0  0  0  0  0  0
  -15.5418  -30.2947   23.7768 H   0  0  0  0  0  0
  -15.8757  -28.0788   22.7170 H   0  0  0  0  0  0
  -24.5865  -30.7161   25.7378 H   0  0  0  0  0  0
  -24.8708  -32.3157   26.4105 H   0  0  0  0  0  0
  -25.7613  -30.9325   27.0166 H   0  0  0  0  0  0
  -26.3590  -29.6020   24.2233 H   0  0  0  0  0  0
  -27.4154  -29.7459   25.5994 H   0  0  0  0  0  0
  -27.9574  -30.3671   24.0670 H   0  0  0  0  0  0
  -27.2460  -33.3886   26.1593 H   0  0  0  0  0  0
  -28.4060  -32.6744   25.0495 H   0  0  0  0  0  0
  -28.0434  -31.8897   26.5790 H   0  0  0  0  0  0
  -28.2460  -38.0005   24.7537 H   0  0  0  0  0  0
  -28.1124  -36.2517   24.6258 H   0  0  0  0  0  0
  -27.2258  -37.1201   25.8866 H   0  0  0  0  0  0
  -21.0126  -29.8516   21.6168 H   0  0  0  0  0  0
  -25.9984  -38.2490   24.1469 H   0  0  0  0  0  0
  -30.8496  -17.1842   19.8397 H   0  0  0  0  0  0
  -30.4971  -19.5156   20.2603 H   0  0  0  0  0  0
  -26.7631  -11.2079   17.0788 H   0  0  0  0  0  0
  -26.4340  -12.6175   16.0709 H   0  0  0  0  0  0
  -25.1757  -11.9645   17.1141 H   0  0  0  0  0  0
  -28.7970  -12.2592   18.9412 H   0  0  0  0  0  0
  -28.6671  -12.6824   17.5054 H   0  0  0  0  0  0
  -27.1498  -22.1569   20.3414 H   0  0  0  0  0  0
  -27.3409  -22.4112   18.6556 H   0  0  0  0  0  0
  -26.1459  -16.8087   18.5703 H   0  0  0  0  0  0
  -25.2103  -16.5322   19.6412 H   0  0  0  0  0  0
  -26.7875  -16.6335   21.7983 H   0  0  0  0  0  0
  -27.5242  -17.6817   20.8331 H   0  0  0  0  0  0
  -25.4042  -14.8261   17.4173 H   0  0  0  0  0  0
  -24.6748  -14.1596   18.6975 H   0  0  0  0  0  0
  -29.2549  -16.5742   22.2256 H   0  0  0  0  0  0
  -26.4090  -12.4782   18.9813 H   0  0  0  0  0  0
  1 25  1  0  0  0
  1 30  2  0  0  0
  1 83  1  0  0  0
  2  3  1  0  0  0
  2 25  1  0  0  0
  2 85  1  0  0  0
  2 86  1  0  0  0
  3  4  1  0  0  0
  3 87  1  0  0  0
  3 88  1  0  0  0
  4  5  1  0  0  0
  4 89  1  0  0  0
  4 90  1  0  0  0
  5  6  1  0  0  0
  5 26  1  0  0  0
  5 91  1  0  0  0
  6 25  1  0  0  0
  6 92  1  0  0  0
  6 93  1  0  0  0
  7  8  2  0  0  0
  7 26  1  0  0  0
  7 29  1  0  0  0
  8  9  1  0  0  0
  8 22  1  0  0  0
  9 10  1  0  0  0
  9 27  2  0  0  0
 10 11  2  0  0  0
 10 15  1  0  0  0
 11 12  1  0  0  0
 11 94  1  0  0  0
 12 13  2  0  0  0
 12 95  1  0  0  0
 13 14  1  0  0  0
 13 31  1  0  0  0
 14 15  2  0  0  0
 14 96  1  0  0  0
 15 97  1  0  0  0
 16 17  2  0  0  0
 16 21  1  0  0  0
 16 31  1  0  0  0
 17 18  1  0  0  0
 17 98  1  0  0  0
 18 19  2  0  0  0
 18 99  1  0  0  0
 19 20  1  0  0  0
 19 24  1  0  0  0
 20 21  2  0  0  0
 20100  1  0  0  0
 21 23  1  0  0  0
 22 28  1  0  0  0
 22 32  2  0  0  0
 26 27  1  0  0  0
 28101  1  0  0  0
 28102  1  0  0  0
 29103  1  0  0  0
 29104  1  0  0  0
 33 34  1  0  0  0
 33 66  1  0  0  0
 33 70  2  0  0  0
 34 36  1  0  0  0
 34 59  1  0  0  0
 34105  1  0  0  0
 35 44  2  0  0  0
 35 45  1  0  0  0
 35 68  1  0  0  0
 36 56  1  0  0  0
 36106  1  0  0  0
 37 39  1  0  0  0
 37 47  1  0  0  0
 37 66  1  0  0  0
 37107  1  0  0  0
 38 43  2  0  0  0
 38 46  1  0  0  0
 38 47  1  0  0  0
 39 64  1  0  0  0
 39 67  2  0  0  0
 40 52  1  0  0  0
 40 53  2  0  0  0
 40 58  1  0  0  0
 41108  1  0  0  0
 41109  1  0  0  0
 41110  1  0  0  0
 41 48  1  0  0  0
 42 43  1  0  0  0
 42 66  1  0  0  0
 42111  1  0  0  0
 42112  1  0  0  0
 43 44  1  0  0  0
 44113  1  0  0  0
 45 46  2  0  0  0
 45114  1  0  0  0
 46115  1  0  0  0
 47116  1  0  0  0
 47117  1  0  0  0
 48 56  1  0  0  0
 48 65  1  0  0  0
 48118  1  0  0  0
 49 50  1  0  0  0
 49 53  1  0  0  0
 49 64  1  0  0  0
 49119  1  0  0  0
 50 51  1  0  0  0
 50120  1  0  0  0
 50121  1  0  0  0
 51 52  1  0  0  0
 51122  1  0  0  0
 51123  1  0  0  0
 52124  1  0  0  0
 52125  1  0  0  0
 53 54  1  0  0  0
 54 55  2  0  0  0
 54126  1  0  0  0
 55 57  1  0  0  0
 55127  1  0  0  0
 56 69  2  0  0  0
 57 58  2  0  0  0
 57128  1  0  0  0
 58129  1  0  0  0
 59 60  1  0  0  0
 59 61  1  0  0  0
 59 62  1  0  0  0
 60130  1  0  0  0
 60131  1  0  0  0
 60132  1  0  0  0
 61133  1  0  0  0
 61134  1  0  0  0
 61135  1  0  0  0
 62136  1  0  0  0
 62137  1  0  0  0
 62138  1  0  0  0
 63 65  1  0  0  0
 63139  1  0  0  0
 63140  1  0  0  0
 63141  1  0  0  0
 64142  1  0  0  0
 65143  1  0  0  0
 68 77  1  0  0  0
 71 72  2  0  0  0
 71 73  1  0  0  0
 71144  1  0  0  0
 72 74  1  0  0  0
 72145  1  0  0  0
 73 76  1  0  0  0
 73 81  2  0  0  0
 74 77  1  0  0  0
 74 82  2  0  0  0
 75146  1  0  0  0
 75147  1  0  0  0
 75148  1  0  0  0
 75 84  1  0  0  0
 76 84  1  0  0  0
 76149  1  0  0  0
 76150  1  0  0  0
 77151  1  0  0  0
 77152  1  0  0  0
 78 79  1  0  0  0
 78 80  1  0  0  0
 78153  1  0  0  0
 78154  1  0  0  0
 79 83  1  0  0  0
 79155  1  0  0  0
 79156  1  0  0  0
 80 84  1  0  0  0
 80157  1  0  0  0
 80158  1  0  0  0
 81 82  1  0  0  0
 83159  1  0  0  0
 84160  1  0  0  0
M  CHG  1  84   1
M  ISO  4   1 100  68 101  77 101  83 100
M  END
> <chiral flag>
0

> <version>
0

> <s_m_source_file>
/data/baiqing/PycharmProjects/Reinvent-master-3.2/result/LINK_invent/BTK/process_docking_weight1_custom_sum_contain_oxygen_bond_distance_aromatic_linkinvent_7_9_3/rearranged_h_0049.sdf

> <i_m_source_file_index>
14

> <r_mmod_Potential_Energy-OPLS-2005>
17394.96484375

> <r_mmod_Stretch_Energy-OPLS-2005>
9171.685546875

> <r_mmod_Bend_Energy-OPLS-2005>
2223.56225585938

> <r_mmod_Torsional_Energy-OPLS-2005>
402.029815673828

> <r_mmod_Improper_Torsional_Energy-OPLS-2005>
16.5270767211914

> <r_mmod_Van_der_Waal_Energy-OPLS-2005>
2899.58276367188

> <r_mmod_Electrostatic_Energy-OPLS-2005>
-363.53857421875

> <r_mmod_Solvation_Energy-OPLS-2005>
-420.826721191406

> <b_mmod_Minimization_Converged-OPLS-2005>
0

> <r_mmod_RMS_Derivative-OPLS-2005>
1.70539045333862

$$$$
15
                    3D
 Structure written by MMmdl.
166174  0  0  1  0            999 V2000
  -30.7728  -14.3569   20.6914 C   0  0  0  0  0  0
  -30.4131  -12.2886   19.3929 C   0  0  0  0  0  0
  -29.4824  -12.5311   18.1910 C   0  0  0  0  0  0
  -28.0076  -12.3851   18.6092 C   0  0  0  0  0  0
  -27.6663  -13.2047   19.8819 C   0  0  2  0  0  0
  -28.7037  -12.9474   20.9971 C   0  0  0  0  0  0
  -25.2601  -13.8168   20.5671 C   0  0  0  0  0  0
  -24.1847  -13.0448   20.9189 C   0  0  0  0  0  0
  -24.6391  -11.6915   20.8738 C   0  0  0  0  0  0
  -23.9046  -10.4303   21.0395 C   0  0  0  0  0  0
  -24.3608   -9.4220   21.9172 C   0  0  0  0  0  0
  -23.6289   -8.2255   22.0748 C   0  0  0  0  0  0
  -22.4268   -8.0283   21.3543 C   0  0  0  0  0  0
  -21.9899   -9.0252   20.4644 C   0  0  0  0  0  0
  -22.7221  -10.2137   20.3047 C   0  0  0  0  0  0
  -21.6859   -6.0734   22.5274 C   0  0  0  0  0  0
  -21.4018   -6.5638   23.8203 C   0  0  0  0  0  0
  -21.3658   -5.6791   24.9169 C   0  0  0  0  0  0
  -21.6047   -4.3056   24.7223 C   0  0  0  0  0  0
  -21.8818   -3.8144   23.4343 C   0  0  0  0  0  0
  -21.9191   -4.6960   22.3399 C   0  0  0  0  0  0
  -22.7868  -13.5248   21.1847 C   0  0  0  0  0  0
  -22.1659   -4.2145   21.0977 F   0  0  0  0  0  0
  -21.5630   -3.4536   25.7735 F   0  0  0  0  0  0
  -30.0473  -13.2310   20.4609 N   0  0  0  0  0  0
  -26.3041  -12.9334   20.3391 N   0  0  0  0  0  0
  -25.9318  -11.6496   20.5773 N   0  0  0  0  0  0
  -22.0500  -12.8232   22.0398 N   0  0  0  0  0  0
  -25.4317  -15.1874   20.3982 N   0  0  0  0  0  0
  -31.7949  -14.6459   20.0578 O   0  0  0  0  0  0
  -21.6644   -6.8876   21.4233 O   0  0  0  0  0  0
  -22.3558  -14.5553   20.6696 O   0  0  0  0  0  0
  -24.6130  -31.8679   23.2088 C   0  0  0  0  0  0
  -25.9026  -32.4823   23.8400 C   0  0  1  0  0  0
  -27.2353  -27.4609   20.0894 C   0  0  0  0  0  0
  -25.5885  -33.8613   24.2332 N   0  0  0  0  0  0
  -23.3997  -30.4928   21.5481 C   0  0  2  0  0  0
  -24.8456  -28.9654   20.1073 C   0  0  0  0  0  0
  -22.7412  -29.4659   22.4962 C   0  0  0  0  0  0
  -18.0271  -28.1388   22.8455 C   0  0  0  0  0  0
  -24.1489  -36.7325   23.2639 C   0  0  0  0  0  0
  -25.9248  -30.8472   21.3528 C   0  0  0  0  0  0
  -26.0042  -29.4848   20.6975 C   0  0  0  0  0  0
  -27.2028  -28.7415   20.6789 C   0  0  0  0  0  0
  -26.0606  -26.9510   19.4881 C   0  0  0  0  0  0
  -24.8688  -27.6998   19.4968 C   0  0  0  0  0  0
  -23.6061  -29.8258   20.1617 C   0  0  0  0  0  0
  -25.4105  -36.3115   24.0340 C   0  0  1  0  0  0
  -20.5861  -28.3676   23.1302 C   0  0  2  0  0  0
  -20.6752  -26.9403   22.5432 C   0  0  0  0  0  0
  -19.5757  -26.6391   21.5194 C   0  0  0  0  0  0
  -18.1921  -26.7934   22.1585 C   0  0  0  0  0  0
  -19.1519  -28.8850   23.2866 C   0  0  0  0  0  0
  -18.9456  -30.1448   23.8890 C   0  0  0  0  0  0
  -17.6456  -30.6582   24.0575 C   0  0  0  0  0  0
  -25.9028  -34.9472   23.5138 C   0  0  0  0  0  0
  -16.5348  -29.9097   23.6317 C   0  0  0  0  0  0
  -16.7261  -28.6523   23.0313 C   0  0  0  0  0  0
  -26.4451  -31.6600   25.0730 C   0  0  0  0  0  0
  -25.3731  -31.3704   26.1502 C   0  0  0  0  0  0
  -27.0273  -30.3056   24.6066 C   0  0  0  0  0  0
  -27.6050  -32.4308   25.7478 C   0  0  0  0  0  0
  -27.5575  -37.1818   24.8462 C   0  0  0  0  0  0
  -21.4139  -29.3035   22.3710 N   0  0  0  0  0  0
  -26.4291  -37.3805   23.9411 N   0  0  0  0  0  0
  -24.6646  -31.0823   22.0962 N   0  0  0  0  0  0
  -23.4196  -28.8189   23.2987 O   0  0  0  0  0  0
  -28.4097  -26.7433   20.1397 O   0  0  0  0  0  0
  -26.5596  -34.8917   22.4704 O   0  0  0  0  0  0
  -23.5329  -32.1407   23.7503 O   0  0  0  0  0  0
  -26.5244  -21.4809   21.3371 C   0  0  0  0  0  0
  -26.6730  -20.9846   22.6442 C   0  0  0  0  0  0
  -27.2459  -21.8734   23.5769 C   0  0  0  0  0  0
  -27.3834  -23.5071   21.9671 C   0  0  0  0  0  0
  -27.4435  -21.5225   25.0403 C   0  0  0  0  0  0
  -31.3034  -15.2581   22.8495 C   0  0  0  0  0  0
  -26.0835  -19.6169   23.0194 C   0  0  0  0  0  0
  -27.5353  -24.9929   21.6719 C   0  0  0  0  0  0
  -28.6076  -16.7586   22.4734 C   0  0  0  0  0  0
  -29.6556  -16.3694   21.4100 C   0  0  0  0  0  0
  -27.8613  -18.0681   22.1390 C   0  0  0  0  0  0
  -28.3084  -25.3304   20.3738 C   0  0  0  0  0  0
  -26.8595  -22.7442   21.0135 N   0  0  0  0  0  0
  -27.6102  -23.1202   23.2198 N   0  0  0  0  0  0
  -30.3640  -15.1180   21.7295 N   0  0  0  0  0  0
  -27.0511  -18.5261   23.2876 N   0  3  0  0  0  0
  -31.4572  -12.3845   19.0889 H   0  0  0  0  0  0
  -30.3068  -11.2647   19.7545 H   0  0  0  0  0  0
  -29.7140  -11.8303   17.3880 H   0  0  0  0  0  0
  -29.6548  -13.5299   17.7866 H   0  0  0  0  0  0
  -27.8137  -11.3263   18.7855 H   0  0  0  0  0  0
  -27.3540  -12.6807   17.7875 H   0  0  0  0  0  0
  -27.7247  -14.2594   19.6117 H   0  0  0  0  0  0
  -28.6617  -11.9068   21.3212 H   0  0  0  0  0  0
  -28.4571  -13.5336   21.8824 H   0  0  0  0  0  0
  -25.2753   -9.5703   22.4742 H   0  0  0  0  0  0
  -24.0003   -7.4649   22.7466 H   0  0  0  0  0  0
  -21.0831   -8.8761   19.8952 H   0  0  0  0  0  0
  -22.3666  -10.9673   19.6158 H   0  0  0  0  0  0
  -21.2015   -7.6145   23.9709 H   0  0  0  0  0  0
  -21.1481   -6.0523   25.9073 H   0  0  0  0  0  0
  -22.0599   -2.7604   23.2845 H   0  0  0  0  0  0
  -22.4093  -11.9886   22.4794 H   0  0  0  0  0  0
  -21.1114  -13.1261   22.2591 H   0  0  0  0  0  0
  -24.6343  -15.8137   20.4030 H   0  0  0  0  0  0
  -26.2452  -15.5851   19.9469 H   0  0  0  0  0  0
  -26.7096  -32.5545   23.1166 H   0  0  0  0  0  0
  -25.0028  -33.9770   25.0473 H   0  0  0  0  0  0
  -22.6876  -31.3075   21.4075 H   0  0  0  0  0  0
  -23.3735  -35.9678   23.3313 H   0  0  0  0  0  0
  -24.3584  -36.8938   22.2055 H   0  0  0  0  0  0
  -23.7251  -37.6542   23.6638 H   0  0  0  0  0  0
  -26.0276  -31.6139   20.5831 H   0  0  0  0  0  0
  -26.8156  -30.9032   21.9668 H   0  0  0  0  0  0
  -28.1001  -29.1371   21.1341 H   0  0  0  0  0  0
  -26.0482  -25.9784   19.0161 H   0  0  0  0  0  0
  -23.9772  -27.2986   19.0346 H   0  0  0  0  0  0
  -23.7127  -30.5986   19.3995 H   0  0  0  0  0  0
  -22.7303  -29.2450   19.8692 H   0  0  0  0  0  0
  -25.1275  -36.1986   25.0833 H   0  0  0  0  0  0
  -20.9927  -28.3242   24.1431 H   0  0  0  0  0  0
  -20.5603  -26.2283   23.3623 H   0  0  0  0  0  0
  -21.6629  -26.7415   22.1264 H   0  0  0  0  0  0
  -19.6919  -25.6299   21.1228 H   0  0  0  0  0  0
  -19.6724  -27.3197   20.6718 H   0  0  0  0  0  0
  -17.4204  -26.6673   21.3978 H   0  0  0  0  0  0
  -18.0311  -26.0088   22.8988 H   0  0  0  0  0  0
  -19.7937  -30.7251   24.2265 H   0  0  0  0  0  0
  -17.5025  -31.6254   24.5195 H   0  0  0  0  0  0
  -15.5348  -30.3005   23.7658 H   0  0  0  0  0  0
  -15.8650  -28.0868   22.6997 H   0  0  0  0  0  0
  -24.5926  -30.6997   25.7875 H   0  0  0  0  0  0
  -24.8881  -32.2855   26.4920 H   0  0  0  0  0  0
  -25.8122  -30.8938   27.0278 H   0  0  0  0  0  0
  -26.2801  -29.6814   24.1148 H   0  0  0  0  0  0
  -27.4108  -29.7287   25.4490 H   0  0  0  0  0  0
  -27.8600  -30.4408   23.9156 H   0  0  0  0  0  0
  -27.2711  -33.3651   26.2009 H   0  0  0  0  0  0
  -28.3887  -32.6797   25.0301 H   0  0  0  0  0  0
  -28.0673  -31.8444   26.5438 H   0  0  0  0  0  0
  -28.2607  -38.0101   24.7504 H   0  0  0  0  0  0
  -28.1058  -36.2638   24.6294 H   0  0  0  0  0  0
  -27.2291  -37.1478   25.8864 H   0  0  0  0  0  0
  -20.9290  -29.8806   21.6976 H   0  0  0  0  0  0
  -26.0177  -38.2886   24.1418 H   0  0  0  0  0  0
  -26.0786  -20.8869   20.5530 H   0  0  0  0  0  0
  -28.1379  -20.6904   25.1489 H   0  0  0  0  0  0
  -26.4965  -21.2531   25.5063 H   0  0  0  0  0  0
  -27.8532  -22.3656   25.5978 H   0  0  0  0  0  0
  -30.7706  -15.3621   23.7945 H   0  0  0  0  0  0
  -31.9489  -16.1282   22.7224 H   0  0  0  0  0  0
  -31.9512  -14.3843   22.9532 H   0  0  0  0  0  0
  -25.4028  -19.2922   22.2313 H   0  0  0  0  0  0
  -25.4538  -19.7402   23.9015 H   0  0  0  0  0  0
  -28.0318  -25.4757   22.5150 H   0  0  0  0  0  0
  -26.5260  -25.4009   21.6460 H   0  0  0  0  0  0
  -29.1017  -16.8794   23.4386 H   0  0  0  0  0  0
  -27.8870  -15.9484   22.5952 H   0  0  0  0  0  0
  -30.3834  -17.1731   21.2901 H   0  0  0  0  0  0
  -29.1524  -16.2792   20.4436 H   0  0  0  0  0  0
  -27.2210  -17.9165   21.2683 H   0  0  0  0  0  0
  -28.5724  -18.8520   21.8774 H   0  0  0  0  0  0
  -27.8674  -24.8354   19.5082 H   0  0  0  0  0  0
  -29.3203  -24.9352   20.4545 H   0  0  0  0  0  0
  -26.5089  -17.7358   23.6038 H   0  0  0  0  0  0
  -27.6620  -18.7731   24.0477 H   0  0  0  0  0  0
  1 25  1  0  0  0
  1 30  2  0  0  0
  1 85  1  0  0  0
  2  3  1  0  0  0
  2 25  1  0  0  0
  2 87  1  0  0  0
  2 88  1  0  0  0
  3  4  1  0  0  0
  3 89  1  0  0  0
  3 90  1  0  0  0
  4  5  1  0  0  0
  4 91  1  0  0  0
  4 92  1  0  0  0
  5  6  1  0  0  0
  5 26  1  0  0  0
  5 93  1  0  0  0
  6 25  1  0  0  0
  6 94  1  0  0  0
  6 95  1  0  0  0
  7  8  2  0  0  0
  7 26  1  0  0  0
  7 29  1  0  0  0
  8  9  1  0  0  0
  8 22  1  0  0  0
  9 10  1  0  0  0
  9 27  2  0  0  0
 10 11  2  0  0  0
 10 15  1  0  0  0
 11 12  1  0  0  0
 11 96  1  0  0  0
 12 13  2  0  0  0
 12 97  1  0  0  0
 13 14  1  0  0  0
 13 31  1  0  0  0
 14 15  2  0  0  0
 14 98  1  0  0  0
 15 99  1  0  0  0
 16 17  2  0  0  0
 16 21  1  0  0  0
 16 31  1  0  0  0
 17 18  1  0  0  0
 17100  1  0  0  0
 18 19  2  0  0  0
 18101  1  0  0  0
 19 20  1  0  0  0
 19 24  1  0  0  0
 20 21  2  0  0  0
 20102  1  0  0  0
 21 23  1  0  0  0
 22 28  1  0  0  0
 22 32  2  0  0  0
 26 27  1  0  0  0
 28103  1  0  0  0
 28104  1  0  0  0
 29105  1  0  0  0
 29106  1  0  0  0
 33 34  1  0  0  0
 33 66  1  0  0  0
 33 70  2  0  0  0
 34 36  1  0  0  0
 34 59  1  0  0  0
 34107  1  0  0  0
 35 44  2  0  0  0
 35 45  1  0  0  0
 35 68  1  0  0  0
 36 56  1  0  0  0
 36108  1  0  0  0
 37 39  1  0  0  0
 37 47  1  0  0  0
 37 66  1  0  0  0
 37109  1  0  0  0
 38 43  2  0  0  0
 38 46  1  0  0  0
 38 47  1  0  0  0
 39 64  1  0  0  0
 39 67  2  0  0  0
 40 52  1  0  0  0
 40 53  2  0  0  0
 40 58  1  0  0  0
 41110  1  0  0  0
 41111  1  0  0  0
 41112  1  0  0  0
 41 48  1  0  0  0
 42 43  1  0  0  0
 42 66  1  0  0  0
 42113  1  0  0  0
 42114  1  0  0  0
 43 44  1  0  0  0
 44115  1  0  0  0
 45 46  2  0  0  0
 45116  1  0  0  0
 46117  1  0  0  0
 47118  1  0  0  0
 47119  1  0  0  0
 48 56  1  0  0  0
 48 65  1  0  0  0
 48120  1  0  0  0
 49 50  1  0  0  0
 49 53  1  0  0  0
 49 64  1  0  0  0
 49121  1  0  0  0
 50 51  1  0  0  0
 50122  1  0  0  0
 50123  1  0  0  0
 51 52  1  0  0  0
 51124  1  0  0  0
 51125  1  0  0  0
 52126  1  0  0  0
 52127  1  0  0  0
 53 54  1  0  0  0
 54 55  2  0  0  0
 54128  1  0  0  0
 55 57  1  0  0  0
 55129  1  0  0  0
 56 69  2  0  0  0
 57 58  2  0  0  0
 57130  1  0  0  0
 58131  1  0  0  0
 59 60  1  0  0  0
 59 61  1  0  0  0
 59 62  1  0  0  0
 60132  1  0  0  0
 60133  1  0  0  0
 60134  1  0  0  0
 61135  1  0  0  0
 61136  1  0  0  0
 61137  1  0  0  0
 62138  1  0  0  0
 62139  1  0  0  0
 62140  1  0  0  0
 63 65  1  0  0  0
 63141  1  0  0  0
 63142  1  0  0  0
 63143  1  0  0  0
 64144  1  0  0  0
 65145  1  0  0  0
 68 82  1  0  0  0
 71 72  2  0  0  0
 71 83  1  0  0  0
 71146  1  0  0  0
 72 73  1  0  0  0
 72 77  1  0  0  0
 73 75  1  0  0  0
 73 84  2  0  0  0
 74 78  1  0  0  0
 74 83  2  0  0  0
 74 84  1  0  0  0
 75147  1  0  0  0
 75148  1  0  0  0
 75149  1  0  0  0
 76 85  1  0  0  0
 76150  1  0  0  0
 76151  1  0  0  0
 76152  1  0  0  0
 77 86  1  0  0  0
 77153  1  0  0  0
 77154  1  0  0  0
 78 82  1  0  0  0
 78155  1  0  0  0
 78156  1  0  0  0
 79 80  1  0  0  0
 79 81  1  0  0  0
 79157  1  0  0  0
 79158  1  0  0  0
 80 85  1  0  0  0
 80159  1  0  0  0
 80160  1  0  0  0
 81 86  1  0  0  0
 81161  1  0  0  0
 81162  1  0  0  0
 82163  1  0  0  0
 82164  1  0  0  0
 86165  1  0  0  0
 86166  1  0  0  0
M  CHG  1  86   1
M  ISO  4   1 100  68 101  82 101  85 100
M  END
> <chiral flag>
0

> <version>
0

> <s_m_source_file>
/data/baiqing/PycharmProjects/Reinvent-master-3.2/result/LINK_invent/BTK/process_docking_weight1_custom_sum_contain_oxygen_bond_distance_aromatic_linkinvent_7_9_3/rearranged_h_0049.sdf

> <i_m_source_file_index>
15

> <r_mmod_Potential_Energy-OPLS-2005>
-415.716461181641

> <r_mmod_Stretch_Energy-OPLS-2005>
34.7718238830566

> <r_mmod_Bend_Energy-OPLS-2005>
101.633773803711

> <r_mmod_Torsional_Energy-OPLS-2005>
272.440246582031

> <r_mmod_Improper_Torsional_Energy-OPLS-2005>
8.6420726776123

> <r_mmod_Van_der_Waal_Energy-OPLS-2005>
156.50602722168

> <r_mmod_Electrostatic_Energy-OPLS-2005>
-509.309539794922

> <r_mmod_Solvation_Energy-OPLS-2005>
-488.840393066406

> <b_mmod_Minimization_Converged-OPLS-2005>
0

> <r_mmod_RMS_Derivative-OPLS-2005>
1.94419991970062

$$$$
16
                    3D
 Structure written by MMmdl.
167175  0  0  1  0            999 V2000
  -30.7952  -14.4073   20.6567 C   0  0  0  0  0  0
  -30.3977  -12.2962   19.4288 C   0  0  0  0  0  0
  -29.4872  -12.5201   18.2063 C   0  0  0  0  0  0
  -28.0079  -12.3791   18.6077 C   0  0  0  0  0  0
  -27.6567  -13.2171   19.8637 C   0  0  2  0  0  0
  -28.6934  -13.0087   20.9863 C   0  0  0  0  0  0
  -25.2556  -13.8193   20.5684 C   0  0  0  0  0  0
  -24.1817  -13.0437   20.9171 C   0  0  0  0  0  0
  -24.6390  -11.6914   20.8707 C   0  0  0  0  0  0
  -23.9060  -10.4290   21.0377 C   0  0  0  0  0  0
  -24.3615   -9.4214   21.9160 C   0  0  0  0  0  0
  -23.6288   -8.2254   22.0750 C   0  0  0  0  0  0
  -22.4273   -8.0279   21.3547 C   0  0  0  0  0  0
  -21.9902   -9.0245   20.4646 C   0  0  0  0  0  0
  -22.7224  -10.2128   20.3035 C   0  0  0  0  0  0
  -21.6852   -6.0727   22.5284 C   0  0  0  0  0  0
  -21.4019   -6.5634   23.8220 C   0  0  0  0  0  0
  -21.3662   -5.6790   24.9176 C   0  0  0  0  0  0
  -21.6041   -4.3050   24.7229 C   0  0  0  0  0  0
  -21.8815   -3.8139   23.4349 C   0  0  0  0  0  0
  -21.9196   -4.6956   22.3400 C   0  0  0  0  0  0
  -22.7841  -13.5226   21.1841 C   0  0  0  0  0  0
  -22.1662   -4.2149   21.0975 F   0  0  0  0  0  0
  -21.5627   -3.4525   25.7735 F   0  0  0  0  0  0
  -30.0370  -13.2877   20.4601 N   0  0  0  0  0  0
  -26.2998  -12.9383   20.3312 N   0  0  0  0  0  0
  -25.9316  -11.6529   20.5709 N   0  0  0  0  0  0
  -22.0492  -12.8221   22.0413 N   0  0  0  0  0  0
  -25.4233  -15.1916   20.4141 N   0  0  0  0  0  0
  -31.8401  -14.5809   20.0182 O   0  0  0  0  0  0
  -21.6641   -6.8870   21.4246 O   0  0  0  0  0  0
  -22.3521  -14.5522   20.6688 O   0  0  0  0  0  0
  -24.6171  -31.8719   23.2141 C   0  0  0  0  0  0
  -25.9075  -32.4836   23.8416 C   0  0  1  0  0  0
  -27.2183  -27.4355   20.0720 C   0  0  0  0  0  0
  -25.5948  -33.8633   24.2364 N   0  0  0  0  0  0
  -23.4004  -30.5031   21.5572 C   0  0  2  0  0  0
  -24.8369  -28.9758   20.1142 C   0  0  0  0  0  0
  -22.7420  -29.4706   22.5009 C   0  0  0  0  0  0
  -18.0287  -28.1394   22.8503 C   0  0  0  0  0  0
  -24.1490  -36.7317   23.2643 C   0  0  0  0  0  0
  -25.9322  -30.8367   21.3651 C   0  0  0  0  0  0
  -26.0032  -29.4735   20.7079 C   0  0  0  0  0  0
  -27.1952  -28.7103   20.6864 C   0  0  0  0  0  0
  -26.0204  -26.9582   19.4803 C   0  0  0  0  0  0
  -24.8403  -27.7163   19.5003 C   0  0  0  0  0  0
  -23.6040  -29.8469   20.1673 C   0  0  0  0  0  0
  -25.4110  -36.3124   24.0352 C   0  0  1  0  0  0
  -20.5879  -28.3697   23.1317 C   0  0  2  0  0  0
  -20.6778  -26.9435   22.5422 C   0  0  0  0  0  0
  -19.5742  -26.6410   21.5229 C   0  0  0  0  0  0
  -18.1924  -26.7938   22.1642 C   0  0  0  0  0  0
  -19.1536  -28.8862   23.2907 C   0  0  0  0  0  0
  -18.9463  -30.1465   23.8914 C   0  0  0  0  0  0
  -17.6460  -30.6597   24.0578 C   0  0  0  0  0  0
  -25.9046  -34.9488   23.5153 C   0  0  0  0  0  0
  -16.5355  -29.9102   23.6318 C   0  0  0  0  0  0
  -16.7271  -28.6521   23.0339 C   0  0  0  0  0  0
  -26.4476  -31.6602   25.0739 C   0  0  0  0  0  0
  -25.3757  -31.3714   26.1499 C   0  0  0  0  0  0
  -27.0297  -30.3044   24.6094 C   0  0  0  0  0  0
  -27.6050  -32.4318   25.7499 C   0  0  0  0  0  0
  -27.5579  -37.1828   24.8475 C   0  0  0  0  0  0
  -21.4159  -29.3058   22.3728 N   0  0  0  0  0  0
  -26.4299  -37.3808   23.9417 N   0  0  0  0  0  0
  -24.6695  -31.0838   22.1034 N   0  0  0  0  0  0
  -23.4195  -28.8243   23.3048 O   0  0  0  0  0  0
  -28.3911  -26.6957   20.0687 O   0  0  0  0  0  0
  -26.5580  -34.8931   22.4697 O   0  0  0  0  0  0
  -23.5370  -32.1469   23.7556 O   0  0  0  0  0  0
  -31.4139  -20.9347   21.1207 C   0  0  0  0  0  0
  -30.5863  -21.0383   19.9728 C   0  0  0  0  0  0
  -32.4255  -21.9197   21.6155 C   0  0  0  0  0  0
  -28.9325  -15.4849   23.5818 C   0  0  0  0  0  0
  -31.0058  -14.0203   23.5361 C   0  0  0  0  0  0
  -30.5285  -22.1777   18.9891 C   0  0  0  0  0  0
  -29.2882  -23.0771   19.1615 C   0  0  0  0  0  0
  -29.5526  -24.4965   19.7193 C   0  0  0  0  0  0
  -29.6774  -17.9026   21.2728 C   0  0  0  0  0  0
  -30.7178  -16.7837   21.0434 C   0  0  0  0  0  0
  -28.2786  -25.3442   19.6037 C   0  0  0  0  0  0
  -30.3338  -15.2887   22.9625 C   0  0  0  0  0  0
  -31.1774  -19.7984   21.7296 N   0  0  0  0  0  0
  -29.8502  -19.9530   19.8719 N   0  0  0  0  0  0
  -30.2304  -19.2164   20.9517 N   0  0  0  0  0  0
  -30.3306  -15.4041   21.4707 N   0  0  0  0  0  0
  -31.4460  -12.3477   19.1301 H   0  0  0  0  0  0
  -30.2599  -11.2871   19.8225 H   0  0  0  0  0  0
  -29.7319  -11.8096   17.4156 H   0  0  0  0  0  0
  -29.6634  -13.5130   17.7904 H   0  0  0  0  0  0
  -27.8117  -11.3227   18.7963 H   0  0  0  0  0  0
  -27.3633  -12.6643   17.7747 H   0  0  0  0  0  0
  -27.6994  -14.2665   19.5702 H   0  0  0  0  0  0
  -28.6522  -11.9874   21.3674 H   0  0  0  0  0  0
  -28.4291  -13.6442   21.8177 H   0  0  0  0  0  0
  -25.2763   -9.5701   22.4729 H   0  0  0  0  0  0
  -24.0001   -7.4650   22.7471 H   0  0  0  0  0  0
  -21.0831   -8.8729   19.8963 H   0  0  0  0  0  0
  -22.3649  -10.9646   19.6136 H   0  0  0  0  0  0
  -21.2011   -7.6144   23.9721 H   0  0  0  0  0  0
  -21.1495   -6.0516   25.9082 H   0  0  0  0  0  0
  -22.0596   -2.7606   23.2839 H   0  0  0  0  0  0
  -22.4111  -11.9881   22.4789 H   0  0  0  0  0  0
  -21.1117  -13.1249   22.2635 H   0  0  0  0  0  0
  -24.6579  -15.8454   20.5365 H   0  0  0  0  0  0
  -26.2792  -15.6370   20.1090 H   0  0  0  0  0  0
  -26.7150  -32.5525   23.1181 H   0  0  0  0  0  0
  -25.0115  -33.9784   25.0517 H   0  0  0  0  0  0
  -22.6894  -31.3222   21.4285 H   0  0  0  0  0  0
  -23.3744  -35.9656   23.3320 H   0  0  0  0  0  0
  -24.3573  -36.8902   22.2049 H   0  0  0  0  0  0
  -23.7246  -37.6544   23.6616 H   0  0  0  0  0  0
  -26.0476  -31.6056   20.5992 H   0  0  0  0  0  0
  -26.8192  -30.8825   21.9848 H   0  0  0  0  0  0
  -28.0946  -29.0946   21.1457 H   0  0  0  0  0  0
  -25.9527  -26.0004   18.9868 H   0  0  0  0  0  0
  -23.9417  -27.3275   19.0411 H   0  0  0  0  0  0
  -23.7173  -30.6286   19.4150 H   0  0  0  0  0  0
  -22.7224  -29.2792   19.8634 H   0  0  0  0  0  0
  -25.1285  -36.1998   25.0844 H   0  0  0  0  0  0
  -20.9965  -28.3257   24.1437 H   0  0  0  0  0  0
  -20.5723  -26.2301   23.3614 H   0  0  0  0  0  0
  -21.6646  -26.7501   22.1195 H   0  0  0  0  0  0
  -19.6907  -25.6330   21.1238 H   0  0  0  0  0  0
  -19.6665  -27.3241   20.6775 H   0  0  0  0  0  0
  -17.4206  -26.6717   21.4026 H   0  0  0  0  0  0
  -18.0300  -26.0071   22.9025 H   0  0  0  0  0  0
  -19.7943  -30.7287   24.2274 H   0  0  0  0  0  0
  -17.5020  -31.6261   24.5218 H   0  0  0  0  0  0
  -15.5356  -30.3017   23.7637 H   0  0  0  0  0  0
  -15.8670  -28.0857   22.7023 H   0  0  0  0  0  0
  -24.5930  -30.7051   25.7863 H   0  0  0  0  0  0
  -24.8956  -32.2875   26.4947 H   0  0  0  0  0  0
  -25.8135  -30.8909   27.0258 H   0  0  0  0  0  0
  -26.2832  -29.6825   24.1141 H   0  0  0  0  0  0
  -27.4068  -29.7253   25.4534 H   0  0  0  0  0  0
  -27.8665  -30.4371   23.9232 H   0  0  0  0  0  0
  -27.2654  -33.3602   26.2103 H   0  0  0  0  0  0
  -28.3835  -32.6914   25.0315 H   0  0  0  0  0  0
  -28.0733  -31.8437   26.5402 H   0  0  0  0  0  0
  -28.2646  -38.0079   24.7477 H   0  0  0  0  0  0
  -28.1030  -36.2618   24.6355 H   0  0  0  0  0  0
  -27.2289  -37.1541   25.8877 H   0  0  0  0  0  0
  -20.9318  -29.8791   21.6960 H   0  0  0  0  0  0
  -26.0194  -38.2904   24.1364 H   0  0  0  0  0  0
  -33.2512  -22.0185   20.9111 H   0  0  0  0  0  0
  -32.8483  -21.6203   22.5749 H   0  0  0  0  0  0
  -31.9804  -22.9072   21.7431 H   0  0  0  0  0  0
  -28.3889  -14.5496   23.7069 H   0  0  0  0  0  0
  -28.2983  -16.1505   22.9986 H   0  0  0  0  0  0
  -29.0186  -15.9139   24.5799 H   0  0  0  0  0  0
  -31.0013  -14.0434   24.6265 H   0  0  0  0  0  0
  -32.0499  -13.9482   23.2275 H   0  0  0  0  0  0
  -30.4941  -13.1042   23.2392 H   0  0  0  0  0  0
  -30.5306  -21.7747   17.9746 H   0  0  0  0  0  0
  -31.4371  -22.7789   19.0439 H   0  0  0  0  0  0
  -28.5358  -22.5697   19.7676 H   0  0  0  0  0  0
  -28.8264  -23.1800   18.1792 H   0  0  0  0  0  0
  -30.3587  -24.9800   19.1670 H   0  0  0  0  0  0
  -29.8707  -24.4419   20.7610 H   0  0  0  0  0  0
  -29.3611  -17.9428   22.3128 H   0  0  0  0  0  0
  -28.7863  -17.7261   20.6709 H   0  0  0  0  0  0
  -31.6635  -17.0537   21.5175 H   0  0  0  0  0  0
  -30.9295  -16.8187   19.9723 H   0  0  0  0  0  0
  -27.4918  -24.8343   20.1652 H   0  0  0  0  0  0
  -27.9880  -25.3602   18.5505 H   0  0  0  0  0  0
  -30.9357  -16.1101   23.3559 H   0  0  0  0  0  0
  1 25  1  0  0  0
  1 30  2  0  0  0
  1 86  1  0  0  0
  2  3  1  0  0  0
  2 25  1  0  0  0
  2 87  1  0  0  0
  2 88  1  0  0  0
  3  4  1  0  0  0
  3 89  1  0  0  0
  3 90  1  0  0  0
  4  5  1  0  0  0
  4 91  1  0  0  0
  4 92  1  0  0  0
  5  6  1  0  0  0
  5 26  1  0  0  0
  5 93  1  0  0  0
  6 25  1  0  0  0
  6 94  1  0  0  0
  6 95  1  0  0  0
  7  8  2  0  0  0
  7 26  1  0  0  0
  7 29  1  0  0  0
  8  9  1  0  0  0
  8 22  1  0  0  0
  9 10  1  0  0  0
  9 27  2  0  0  0
 10 11  2  0  0  0
 10 15  1  0  0  0
 11 12  1  0  0  0
 11 96  1  0  0  0
 12 13  2  0  0  0
 12 97  1  0  0  0
 13 14  1  0  0  0
 13 31  1  0  0  0
 14 15  2  0  0  0
 14 98  1  0  0  0
 15 99  1  0  0  0
 16 17  2  0  0  0
 16 21  1  0  0  0
 16 31  1  0  0  0
 17 18  1  0  0  0
 17100  1  0  0  0
 18 19  2  0  0  0
 18101  1  0  0  0
 19 20  1  0  0  0
 19 24  1  0  0  0
 20 21  2  0  0  0
 20102  1  0  0  0
 21 23  1  0  0  0
 22 28  1  0  0  0
 22 32  2  0  0  0
 26 27  1  0  0  0
 28103  1  0  0  0
 28104  1  0  0  0
 29105  1  0  0  0
 29106  1  0  0  0
 33 34  1  0  0  0
 33 66  1  0  0  0
 33 70  2  0  0  0
 34 36  1  0  0  0
 34 59  1  0  0  0
 34107  1  0  0  0
 35 44  2  0  0  0
 35 45  1  0  0  0
 35 68  1  0  0  0
 36 56  1  0  0  0
 36108  1  0  0  0
 37 39  1  0  0  0
 37 47  1  0  0  0
 37 66  1  0  0  0
 37109  1  0  0  0
 38 43  2  0  0  0
 38 46  1  0  0  0
 38 47  1  0  0  0
 39 64  1  0  0  0
 39 67  2  0  0  0
 40 52  1  0  0  0
 40 53  2  0  0  0
 40 58  1  0  0  0
 41110  1  0  0  0
 41111  1  0  0  0
 41112  1  0  0  0
 41 48  1  0  0  0
 42 43  1  0  0  0
 42 66  1  0  0  0
 42113  1  0  0  0
 42114  1  0  0  0
 43 44  1  0  0  0
 44115  1  0  0  0
 45 46  2  0  0  0
 45116  1  0  0  0
 46117  1  0  0  0
 47118  1  0  0  0
 47119  1  0  0  0
 48 56  1  0  0  0
 48 65  1  0  0  0
 48120  1  0  0  0
 49 50  1  0  0  0
 49 53  1  0  0  0
 49 64  1  0  0  0
 49121  1  0  0  0
 50 51  1  0  0  0
 50122  1  0  0  0
 50123  1  0  0  0
 51 52  1  0  0  0
 51124  1  0  0  0
 51125  1  0  0  0
 52126  1  0  0  0
 52127  1  0  0  0
 53 54  1  0  0  0
 54 55  2  0  0  0
 54128  1  0  0  0
 55 57  1  0  0  0
 55129  1  0  0  0
 56 69  2  0  0  0
 57 58  2  0  0  0
 57130  1  0  0  0
 58131  1  0  0  0
 59 60  1  0  0  0
 59 61  1  0  0  0
 59 62  1  0  0  0
 60132  1  0  0  0
 60133  1  0  0  0
 60134  1  0  0  0
 61135  1  0  0  0
 61136  1  0  0  0
 61137  1  0  0  0
 62138  1  0  0  0
 62139  1  0  0  0
 62140  1  0  0  0
 63 65  1  0  0  0
 63141  1  0  0  0
 63142  1  0  0  0
 63143  1  0  0  0
 64144  1  0  0  0
 65145  1  0  0  0
 68 81  1  0  0  0
 71 72  1  0  0  0
 71 73  1  0  0  0
 71 83  2  0  0  0
 72 76  1  0  0  0
 72 84  2  0  0  0
 73146  1  0  0  0
 73147  1  0  0  0
 73148  1  0  0  0
 74149  1  0  0  0
 74150  1  0  0  0
 74151  1  0  0  0
 74 82  1  0  0  0
 75 82  1  0  0  0
 75152  1  0  0  0
 75153  1  0  0  0
 75154  1  0  0  0
 76 77  1  0  0  0
 76155  1  0  0  0
 76156  1  0  0  0
 77 78  1  0  0  0
 77157  1  0  0  0
 77158  1  0  0  0
 78 81  1  0  0  0
 78159  1  0  0  0
 78160  1  0  0  0
 79 80  1  0  0  0
 79 85  1  0  0  0
 79161  1  0  0  0
 79162  1  0  0  0
 80 86  1  0  0  0
 80163  1  0  0  0
 80164  1  0  0  0
 81165  1  0  0  0
 81166  1  0  0  0
 82 86  1  0  0  0
 82167  1  0  0  0
 83 85  1  0  0  0
 84 85  1  0  0  0
M  ISO  4   1 100  68 101  81 101  86 100
M  END
> <chiral flag>
0

> <version>
0

> <s_m_source_file>
/data/baiqing/PycharmProjects/Reinvent-master-3.2/result/LINK_invent/BTK/process_docking_weight1_custom_sum_contain_oxygen_bond_distance_aromatic_linkinvent_7_9_3/rearranged_h_0049.sdf

> <i_m_source_file_index>
16

> <r_mmod_Potential_Energy-OPLS-2005>
147.397872924805

> <r_mmod_Stretch_Energy-OPLS-2005>
42.7213401794434

> <r_mmod_Bend_Energy-OPLS-2005>
125.674606323242

> <r_mmod_Torsional_Energy-OPLS-2005>
283.882415771484

> <r_mmod_Improper_Torsional_Energy-OPLS-2005>
6.2135763168335

> <r_mmod_Van_der_Waal_Energy-OPLS-2005>
150.392303466797

> <r_mmod_Electrostatic_Energy-OPLS-2005>
-281.390411376953

> <r_mmod_Solvation_Energy-OPLS-2005>
-192.079528808594

> <b_mmod_Minimization_Converged-OPLS-2005>
0

> <r_mmod_RMS_Derivative-OPLS-2005>
2.29507303237915

$$$$
17
                    3D
 Structure written by MMmdl.
163171  0  0  1  0            999 V2000
  -30.7051  -14.4324   20.5408 C   0  0  0  0  0  0
  -30.4178  -12.2612   19.4324 C   0  0  0  0  0  0
  -29.4973  -12.4725   18.2111 C   0  0  0  0  0  0
  -28.0170  -12.3425   18.6187 C   0  0  0  0  0  0
  -27.6600  -13.2016   19.8601 C   0  0  2  0  0  0
  -28.6942  -12.9913   20.9877 C   0  0  0  0  0  0
  -25.2609  -13.8147   20.5677 C   0  0  0  0  0  0
  -24.1858  -13.0433   20.9217 C   0  0  0  0  0  0
  -24.6388  -11.6899   20.8723 C   0  0  0  0  0  0
  -23.9047  -10.4290   21.0391 C   0  0  0  0  0  0
  -24.3603   -9.4207   21.9170 C   0  0  0  0  0  0
  -23.6287   -8.2239   22.0734 C   0  0  0  0  0  0
  -22.4273   -8.0268   21.3521 C   0  0  0  0  0  0
  -21.9901   -9.0249   20.4633 C   0  0  0  0  0  0
  -22.7219  -10.2135   20.3051 C   0  0  0  0  0  0
  -21.6853   -6.0717   22.5275 C   0  0  0  0  0  0
  -21.4014   -6.5623   23.8211 C   0  0  0  0  0  0
  -21.3669   -5.6781   24.9175 C   0  0  0  0  0  0
  -21.6057   -4.3043   24.7234 C   0  0  0  0  0  0
  -21.8816   -3.8127   23.4358 C   0  0  0  0  0  0
  -21.9190   -4.6941   22.3406 C   0  0  0  0  0  0
  -22.7872  -13.5216   21.1930 C   0  0  0  0  0  0
  -22.1662   -4.2122   21.0987 F   0  0  0  0  0  0
  -21.5644   -3.4542   25.7750 F   0  0  0  0  0  0
  -30.0356  -13.2556   20.4456 N   0  0  0  0  0  0
  -26.3003  -12.9301   20.3251 N   0  0  0  0  0  0
  -25.9296  -11.6463   20.5674 N   0  0  0  0  0  0
  -22.0509  -12.8168   22.0453 N   0  0  0  0  0  0
  -25.4403  -15.1854   20.4111 N   0  0  0  0  0  0
  -31.8379  -14.6068   20.0785 O   0  0  0  0  0  0
  -21.6641   -6.8862   21.4229 O   0  0  0  0  0  0
  -22.3575  -14.5557   20.6813 O   0  0  0  0  0  0
  -24.6103  -31.8716   23.2128 C   0  0  0  0  0  0
  -25.9015  -32.4844   23.8438 C   0  0  1  0  0  0
  -27.2300  -27.4721   20.0825 C   0  0  0  0  0  0
  -25.5884  -33.8645   24.2352 N   0  0  0  0  0  0
  -23.3961  -30.4983   21.5493 C   0  0  2  0  0  0
  -24.8432  -28.9669   20.1138 C   0  0  0  0  0  0
  -22.7400  -29.4699   22.4964 C   0  0  0  0  0  0
  -18.0334  -28.1350   22.8463 C   0  0  0  0  0  0
  -24.1486  -36.7326   23.2632 C   0  0  0  0  0  0
  -25.9258  -30.8434   21.3678 C   0  0  0  0  0  0
  -26.0005  -29.4816   20.7138 C   0  0  0  0  0  0
  -27.1989  -28.7386   20.7008 C   0  0  0  0  0  0
  -26.0684  -26.9735   19.4596 C   0  0  0  0  0  0
  -24.8680  -27.7080   19.4891 C   0  0  0  0  0  0
  -23.6046  -29.8316   20.1630 C   0  0  0  0  0  0
  -25.4097  -36.3123   24.0343 C   0  0  1  0  0  0
  -20.5895  -28.3700   23.1382 C   0  0  2  0  0  0
  -20.6829  -26.9409   22.5561 C   0  0  0  0  0  0
  -19.5940  -26.6453   21.5201 C   0  0  0  0  0  0
  -18.2027  -26.7972   22.1421 C   0  0  0  0  0  0
  -19.1548  -28.8826   23.2940 C   0  0  0  0  0  0
  -18.9428  -30.1427   23.8952 C   0  0  0  0  0  0
  -17.6411  -30.6554   24.0525 C   0  0  0  0  0  0
  -25.9025  -34.9486   23.5148 C   0  0  0  0  0  0
  -16.5338  -29.9002   23.6280 C   0  0  0  0  0  0
  -16.7306  -28.6414   23.0325 C   0  0  0  0  0  0
  -26.4450  -31.6628   25.0768 C   0  0  0  0  0  0
  -25.3725  -31.3768   26.1537 C   0  0  0  0  0  0
  -27.0289  -30.3065   24.6168 C   0  0  0  0  0  0
  -27.6050  -32.4325   25.7506 C   0  0  0  0  0  0
  -27.5575  -37.1811   24.8460 C   0  0  0  0  0  0
  -21.4126  -29.3064   22.3735 N   0  0  0  0  0  0
  -26.4293  -37.3791   23.9400 N   0  0  0  0  0  0
  -24.6612  -31.0860   22.1003 N   0  0  0  0  0  0
  -23.4203  -28.8225   23.2965 O   0  0  0  0  0  0
  -28.3894  -26.7456   20.0482 O   0  0  0  0  0  0
  -26.5580  -34.8935   22.4701 O   0  0  0  0  0  0
  -23.5299  -32.1456   23.7533 O   0  0  0  0  0  0
  -29.1489  -17.2012   22.3509 C   0  0  0  0  0  0
  -29.7290  -15.9620   22.3877 C   0  0  0  0  0  0
  -29.9539  -15.6569   21.0084 C   0  0  0  0  0  0
  -30.0779  -15.1626   23.6165 C   0  0  0  0  0  0
  -27.4705  -19.5531   21.2371 C   0  0  0  0  0  0
  -27.1368  -20.9344   20.6409 C   0  0  0  0  0  0
  -27.8224  -24.4196   20.6769 C   0  0  0  0  0  0
  -28.5898  -18.8443   20.4501 C   0  0  0  0  0  0
  -26.0376  -21.6907   21.4144 C   0  0  0  0  0  0
  -26.4643  -24.1779   21.3742 C   0  0  0  0  0  0
  -28.5002  -25.7504   21.0651 C   0  0  0  0  0  0
  -29.5361  -16.6348   20.2097 N   0  0  0  0  0  0
  -29.0323  -17.5813   21.0285 N   0  0  0  0  0  0
  -25.7168  -23.0150   20.8344 N   0  3  0  0  0  0
  -31.4670  -12.3389   19.1366 H   0  0  0  0  0  0
  -30.2955  -11.2524   19.8341 H   0  0  0  0  0  0
  -29.7324  -11.7452   17.4333 H   0  0  0  0  0  0
  -29.6728  -13.4563   17.7751 H   0  0  0  0  0  0
  -27.8283  -11.2903   18.8345 H   0  0  0  0  0  0
  -27.3684  -12.5965   17.7805 H   0  0  0  0  0  0
  -27.7049  -14.2458   19.5465 H   0  0  0  0  0  0
  -28.6467  -11.9672   21.3575 H   0  0  0  0  0  0
  -28.4539  -13.6264   21.8406 H   0  0  0  0  0  0
  -25.2758   -9.5684   22.4739 H   0  0  0  0  0  0
  -24.0007   -7.4628   22.7453 H   0  0  0  0  0  0
  -21.0832   -8.8770   19.8944 H   0  0  0  0  0  0
  -22.3677  -10.9676   19.6171 H   0  0  0  0  0  0
  -21.2007   -7.6139   23.9711 H   0  0  0  0  0  0
  -21.1500   -6.0514   25.9081 H   0  0  0  0  0  0
  -22.0587   -2.7588   23.2871 H   0  0  0  0  0  0
  -22.4138  -11.9814   22.4797 H   0  0  0  0  0  0
  -21.1096  -13.1102   22.2676 H   0  0  0  0  0  0
  -26.3061  -15.6124   20.1032 H   0  0  0  0  0  0
  -24.7052  -15.8593   20.5909 H   0  0  0  0  0  0
  -26.7081  -32.5551   23.1207 H   0  0  0  0  0  0
  -25.0105  -33.9843   25.0536 H   0  0  0  0  0  0
  -22.6819  -31.3120   21.4117 H   0  0  0  0  0  0
  -23.3747  -35.9661   23.3309 H   0  0  0  0  0  0
  -24.3596  -36.8917   22.2046 H   0  0  0  0  0  0
  -23.7252  -37.6542   23.6632 H   0  0  0  0  0  0
  -26.0477  -31.6128   20.6040 H   0  0  0  0  0  0
  -26.8097  -30.8870   21.9913 H   0  0  0  0  0  0
  -28.0968  -29.1332   21.1547 H   0  0  0  0  0  0
  -26.0913  -26.0216   18.9497 H   0  0  0  0  0  0
  -23.9794  -27.3100   19.0186 H   0  0  0  0  0  0
  -23.7108  -30.6095   19.4060 H   0  0  0  0  0  0
  -22.7302  -29.2493   19.8636 H   0  0  0  0  0  0
  -25.1259  -36.2008   25.0836 H   0  0  0  0  0  0
  -20.9992  -28.3333   24.1507 H   0  0  0  0  0  0
  -20.5593  -26.2323   23.3772 H   0  0  0  0  0  0
  -21.6761  -26.7422   22.1500 H   0  0  0  0  0  0
  -19.7192  -25.6410   21.1131 H   0  0  0  0  0  0
  -19.6991  -27.3352   20.6824 H   0  0  0  0  0  0
  -18.0240  -25.9983   22.8621 H   0  0  0  0  0  0
  -17.4448  -26.6929   21.3628 H   0  0  0  0  0  0
  -19.7884  -30.7250   24.2344 H   0  0  0  0  0  0
  -17.4920  -31.6257   24.5059 H   0  0  0  0  0  0
  -15.5312  -30.2868   23.7528 H   0  0  0  0  0  0
  -15.8741  -28.0681   22.7010 H   0  0  0  0  0  0
  -24.5885  -30.7108   25.7912 H   0  0  0  0  0  0
  -24.8941  -32.2952   26.4962 H   0  0  0  0  0  0
  -25.8098  -30.8982   27.0314 H   0  0  0  0  0  0
  -26.2877  -29.6844   24.1142 H   0  0  0  0  0  0
  -27.3967  -29.7288   25.4661 H   0  0  0  0  0  0
  -27.8750  -30.4385   23.9415 H   0  0  0  0  0  0
  -27.2697  -33.3602   26.2152 H   0  0  0  0  0  0
  -28.3834  -32.6902   25.0312 H   0  0  0  0  0  0
  -28.0757  -31.8411   26.5372 H   0  0  0  0  0  0
  -28.2593  -38.0099   24.7485 H   0  0  0  0  0  0
  -28.1067  -36.2635   24.6295 H   0  0  0  0  0  0
  -27.2321  -37.1486   25.8872 H   0  0  0  0  0  0
  -20.9247  -29.8804   21.7008 H   0  0  0  0  0  0
  -26.0198  -38.2878   24.1379 H   0  0  0  0  0  0
  -28.8359  -17.8466   23.1595 H   0  0  0  0  0  0
  -30.7456  -15.7180   24.2766 H   0  0  0  0  0  0
  -30.5776  -14.2227   23.3824 H   0  0  0  0  0  0
  -29.1896  -14.9112   24.1980 H   0  0  0  0  0  0
  -26.5805  -18.9226   21.2512 H   0  0  0  0  0  0
  -27.7714  -19.6883   22.2763 H   0  0  0  0  0  0
  -26.8330  -20.8111   19.6008 H   0  0  0  0  0  0
  -28.0511  -21.5240   20.6272 H   0  0  0  0  0  0
  -27.7290  -24.3666   19.5919 H   0  0  0  0  0  0
  -28.5033  -23.6175   20.9539 H   0  0  0  0  0  0
  -29.4609  -19.4959   20.3682 H   0  0  0  0  0  0
  -28.2484  -18.6569   19.4310 H   0  0  0  0  0  0
  -26.2926  -21.7917   22.4706 H   0  0  0  0  0  0
  -25.1221  -21.0986   21.3845 H   0  0  0  0  0  0
  -25.8262  -25.0495   21.2463 H   0  0  0  0  0  0
  -26.5986  -24.0799   22.4525 H   0  0  0  0  0  0
  -29.5667  -25.5680   21.1967 H   0  0  0  0  0  0
  -28.1465  -26.1215   22.0286 H   0  0  0  0  0  0
  -24.7494  -23.1809   21.0642 H   0  0  0  0  0  0
  -25.7651  -22.9901   19.8282 H   0  0  0  0  0  0
  1 25  1  0  0  0
  1 30  2  0  0  0
  1 73  1  0  0  0
  2  3  1  0  0  0
  2 25  1  0  0  0
  2 85  1  0  0  0
  2 86  1  0  0  0
  3  4  1  0  0  0
  3 87  1  0  0  0
  3 88  1  0  0  0
  4  5  1  0  0  0
  4 89  1  0  0  0
  4 90  1  0  0  0
  5  6  1  0  0  0
  5 26  1  0  0  0
  5 91  1  0  0  0
  6 25  1  0  0  0
  6 92  1  0  0  0
  6 93  1  0  0  0
  7  8  2  0  0  0
  7 26  1  0  0  0
  7 29  1  0  0  0
  8  9  1  0  0  0
  8 22  1  0  0  0
  9 10  1  0  0  0
  9 27  2  0  0  0
 10 11  2  0  0  0
 10 15  1  0  0  0
 11 12  1  0  0  0
 11 94  1  0  0  0
 12 13  2  0  0  0
 12 95  1  0  0  0
 13 14  1  0  0  0
 13 31  1  0  0  0
 14 15  2  0  0  0
 14 96  1  0  0  0
 15 97  1  0  0  0
 16 17  2  0  0  0
 16 21  1  0  0  0
 16 31  1  0  0  0
 17 18  1  0  0  0
 17 98  1  0  0  0
 18 19  2  0  0  0
 18 99  1  0  0  0
 19 20  1  0  0  0
 19 24  1  0  0  0
 20 21  2  0  0  0
 20100  1  0  0  0
 21 23  1  0  0  0
 22 28  1  0  0  0
 22 32  2  0  0  0
 26 27  1  0  0  0
 28101  1  0  0  0
 28102  1  0  0  0
 29103  1  0  0  0
 29104  1  0  0  0
 33 34  1  0  0  0
 33 66  1  0  0  0
 33 70  2  0  0  0
 34 36  1  0  0  0
 34 59  1  0  0  0
 34105  1  0  0  0
 35 44  2  0  0  0
 35 45  1  0  0  0
 35 68  1  0  0  0
 36 56  1  0  0  0
 36106  1  0  0  0
 37 39  1  0  0  0
 37 47  1  0  0  0
 37 66  1  0  0  0
 37107  1  0  0  0
 38 43  2  0  0  0
 38 46  1  0  0  0
 38 47  1  0  0  0
 39 64  1  0  0  0
 39 67  2  0  0  0
 40 52  1  0  0  0
 40 53  2  0  0  0
 40 58  1  0  0  0
 41108  1  0  0  0
 41109  1  0  0  0
 41110  1  0  0  0
 41 48  1  0  0  0
 42 43  1  0  0  0
 42 66  1  0  0  0
 42111  1  0  0  0
 42112  1  0  0  0
 43 44  1  0  0  0
 44113  1  0  0  0
 45 46  2  0  0  0
 45114  1  0  0  0
 46115  1  0  0  0
 47116  1  0  0  0
 47117  1  0  0  0
 48 56  1  0  0  0
 48 65  1  0  0  0
 48118  1  0  0  0
 49 50  1  0  0  0
 49 53  1  0  0  0
 49 64  1  0  0  0
 49119  1  0  0  0
 50 51  1  0  0  0
 50120  1  0  0  0
 50121  1  0  0  0
 51 52  1  0  0  0
 51122  1  0  0  0
 51123  1  0  0  0
 52124  1  0  0  0
 52125  1  0  0  0
 53 54  1  0  0  0
 54 55  2  0  0  0
 54126  1  0  0  0
 55 57  1  0  0  0
 55127  1  0  0  0
 56 69  2  0  0  0
 57 58  2  0  0  0
 57128  1  0  0  0
 58129  1  0  0  0
 59 60  1  0  0  0
 59 61  1  0  0  0
 59 62  1  0  0  0
 60130  1  0  0  0
 60131  1  0  0  0
 60132  1  0  0  0
 61133  1  0  0  0
 61134  1  0  0  0
 61135  1  0  0  0
 62136  1  0  0  0
 62137  1  0  0  0
 62138  1  0  0  0
 63 65  1  0  0  0
 63139  1  0  0  0
 63140  1  0  0  0
 63141  1  0  0  0
 64142  1  0  0  0
 65143  1  0  0  0
 68 81  1  0  0  0
 71 72  2  0  0  0
 71 83  1  0  0  0
 71144  1  0  0  0
 72 73  1  0  0  0
 72 74  1  0  0  0
 73 82  2  0  0  0
 74145  1  0  0  0
 74146  1  0  0  0
 74147  1  0  0  0
 75 76  1  0  0  0
 75 78  1  0  0  0
 75148  1  0  0  0
 75149  1  0  0  0
 76 79  1  0  0  0
 76150  1  0  0  0
 76151  1  0  0  0
 77 80  1  0  0  0
 77 81  1  0  0  0
 77152  1  0  0  0
 77153  1  0  0  0
 78 83  1  0  0  0
 78154  1  0  0  0
 78155  1  0  0  0
 79 84  1  0  0  0
 79156  1  0  0  0
 79157  1  0  0  0
 80 84  1  0  0  0
 80158  1  0  0  0
 80159  1  0  0  0
 81160  1  0  0  0
 81161  1  0  0  0
 82 83  1  0  0  0
 84162  1  0  0  0
 84163  1  0  0  0
M  CHG  1  84   1
M  ISO  4   1 100  68 101  73 100  81 101
M  END
> <chiral flag>
0

> <version>
0

> <s_m_source_file>
/data/baiqing/PycharmProjects/Reinvent-master-3.2/result/LINK_invent/BTK/process_docking_weight1_custom_sum_contain_oxygen_bond_distance_aromatic_linkinvent_7_9_3/rearranged_h_0049.sdf

> <i_m_source_file_index>
17

> <r_mmod_Potential_Energy-OPLS-2005>
-56.357852935791

> <r_mmod_Stretch_Energy-OPLS-2005>
31.4826374053955

> <r_mmod_Bend_Energy-OPLS-2005>
92.4978408813477

> <r_mmod_Torsional_Energy-OPLS-2005>
253.458450317383

> <r_mmod_Improper_Torsional_Energy-OPLS-2005>
5.76947402954102

> <r_mmod_Van_der_Waal_Energy-OPLS-2005>
113.054763793945

> <r_mmod_Electrostatic_Energy-OPLS-2005>
-100.491744995117

> <r_mmod_Solvation_Energy-OPLS-2005>
-463.869232177734

> <b_mmod_Minimization_Converged-OPLS-2005>
0

> <r_mmod_RMS_Derivative-OPLS-2005>
2.84921669960022

$$$$
18
                    3D
 Structure written by MMmdl.
160168  0  0  1  0            999 V2000
  -30.6618  -14.5757   20.5317 C   0  0  0  0  0  0
  -30.4309  -12.3662   19.4297 C   0  0  0  0  0  0
  -29.4973  -12.4993   18.2087 C   0  0  0  0  0  0
  -28.0212  -12.3467   18.6277 C   0  0  0  0  0  0
  -27.6526  -13.2139   19.8612 C   0  0  2  0  0  0
  -28.6986  -13.0510   20.9848 C   0  0  0  0  0  0
  -25.2568  -13.8176   20.5678 C   0  0  0  0  0  0
  -24.1828  -13.0440   20.9192 C   0  0  0  0  0  0
  -24.6394  -11.6912   20.8747 C   0  0  0  0  0  0
  -23.9063  -10.4292   21.0412 C   0  0  0  0  0  0
  -24.3618   -9.4205   21.9185 C   0  0  0  0  0  0
  -23.6291   -8.2241   22.0754 C   0  0  0  0  0  0
  -22.4271   -8.0284   21.3545 C   0  0  0  0  0  0
  -21.9909   -9.0259   20.4648 C   0  0  0  0  0  0
  -22.7239  -10.2136   20.3059 C   0  0  0  0  0  0
  -21.6851   -6.0737   22.5278 C   0  0  0  0  0  0
  -21.4011   -6.5640   23.8212 C   0  0  0  0  0  0
  -21.3660   -5.6794   24.9175 C   0  0  0  0  0  0
  -21.6040   -4.3056   24.7225 C   0  0  0  0  0  0
  -21.8822   -3.8148   23.4347 C   0  0  0  0  0  0
  -21.9193   -4.6965   22.3402 C   0  0  0  0  0  0
  -22.7853  -13.5239   21.1853 C   0  0  0  0  0  0
  -22.1662   -4.2152   21.0980 F   0  0  0  0  0  0
  -21.5631   -3.4537   25.7738 F   0  0  0  0  0  0
  -30.0137  -13.3797   20.4143 N   0  0  0  0  0  0
  -26.2987  -12.9347   20.3316 N   0  0  0  0  0  0
  -25.9318  -11.6504   20.5755 N   0  0  0  0  0  0
  -22.0492  -12.8231   22.0413 N   0  0  0  0  0  0
  -25.4285  -15.1893   20.4074 N   0  0  0  0  0  0
  -31.8263  -14.7287   20.1550 O   0  0  0  0  0  0
  -21.6637   -6.8879   21.4239 O   0  0  0  0  0  0
  -22.3542  -14.5543   20.6702 O   0  0  0  0  0  0
  -24.6237  -31.8606   23.2061 C   0  0  0  0  0  0
  -25.9098  -32.4778   23.8352 C   0  0  1  0  0  0
  -27.2215  -27.3518   20.1070 C   0  0  0  0  0  0
  -25.5926  -33.8575   24.2275 N   0  0  0  0  0  0
  -23.4142  -30.4877   21.5479 C   0  0  2  0  0  0
  -24.8586  -28.9513   20.1081 C   0  0  0  0  0  0
  -22.7453  -29.4627   22.4939 C   0  0  0  0  0  0
  -18.0278  -28.1378   22.8476 C   0  0  0  0  0  0
  -24.1488  -36.7309   23.2636 C   0  0  0  0  0  0
  -25.9515  -30.8057   21.3678 C   0  0  0  0  0  0
  -26.0271  -29.4361   20.7100 C   0  0  0  0  0  0
  -27.2131  -28.6488   20.6980 C   0  0  0  0  0  0
  -26.0280  -26.9130   19.4848 C   0  0  0  0  0  0
  -24.8604  -27.6948   19.4867 C   0  0  0  0  0  0
  -23.6250  -29.8271   20.1610 C   0  0  0  0  0  0
  -25.4109  -36.3081   24.0326 C   0  0  1  0  0  0
  -20.5877  -28.3676   23.1282 C   0  0  2  0  0  0
  -20.6762  -26.9397   22.5411 C   0  0  0  0  0  0
  -19.5739  -26.6383   21.5208 C   0  0  0  0  0  0
  -18.1922  -26.7919   22.1625 C   0  0  0  0  0  0
  -19.1531  -28.8840   23.2879 C   0  0  0  0  0  0
  -18.9463  -30.1447   23.8886 C   0  0  0  0  0  0
  -17.6460  -30.6578   24.0562 C   0  0  0  0  0  0
  -25.9050  -34.9446   23.5098 C   0  0  0  0  0  0
  -16.5349  -29.9075   23.6331 C   0  0  0  0  0  0
  -16.7268  -28.6506   23.0326 C   0  0  0  0  0  0
  -26.4495  -31.6575   25.0704 C   0  0  0  0  0  0
  -25.3738  -31.3720   26.1443 C   0  0  0  0  0  0
  -27.0325  -30.2997   24.6129 C   0  0  0  0  0  0
  -27.6043  -32.4315   25.7483 C   0  0  0  0  0  0
  -27.5575  -37.1812   24.8465 C   0  0  0  0  0  0
  -21.4167  -29.3037   22.3683 N   0  0  0  0  0  0
  -26.4282  -37.3778   23.9412 N   0  0  0  0  0  0
  -24.6821  -31.0656   22.0992 N   0  0  0  0  0  0
  -23.4189  -28.8143   23.2990 O   0  0  0  0  0  0
  -28.3443  -26.5191   20.1564 O   0  0  0  0  0  0
  -26.5619  -34.8921   22.4666 O   0  0  0  0  0  0
  -23.5416  -32.1374   23.7437 O   0  0  0  0  0  0
  -28.0504  -20.2929   22.2105 C   0  0  0  0  0  0
  -28.1266  -22.6025   22.3857 C   0  0  0  0  0  0
  -28.7700  -20.3340   20.9852 C   0  0  0  0  0  0
  -28.8136  -22.7029   21.1450 C   0  0  0  0  0  0
  -27.5083  -19.0133   22.8228 C   0  0  0  0  0  0
  -27.7381  -23.8031   23.2331 C   0  0  0  0  0  0
  -29.0095  -19.0355   20.1538 C   0  0  0  0  0  0
  -29.2432  -24.1005   20.5946 C   0  0  0  0  0  0
  -30.3214  -18.1906   20.3559 C   0  0  0  0  0  0
  -30.3828  -16.9844   21.3694 C   0  0  0  0  0  0
  -28.0945  -25.0690   20.1224 C   0  0  0  0  0  0
  -27.7516  -21.4131   22.9045 N   0  0  0  0  0  0
  -29.1442  -21.5534   20.4573 N   0  0  0  0  0  0
  -29.9116  -15.6333   20.9450 N   0  0  0  0  0  0
  -31.4709  -12.4894   19.1230 H   0  0  0  0  0  0
  -30.3626  -11.3673   19.8622 H   0  0  0  0  0  0
  -29.7512  -11.7503   17.4570 H   0  0  0  0  0  0
  -29.6467  -13.4704   17.7334 H   0  0  0  0  0  0
  -27.8529  -11.2933   18.8543 H   0  0  0  0  0  0
  -27.3643  -12.5835   17.7900 H   0  0  0  0  0  0
  -27.6775  -14.2520   19.5299 H   0  0  0  0  0  0
  -28.7010  -12.0259   21.3592 H   0  0  0  0  0  0
  -28.4534  -13.6795   21.8425 H   0  0  0  0  0  0
  -25.2766   -9.5678   22.4757 H   0  0  0  0  0  0
  -24.0002   -7.4631   22.7471 H   0  0  0  0  0  0
  -21.0843   -8.8779   19.8955 H   0  0  0  0  0  0
  -22.3701  -10.9676   19.6170 H   0  0  0  0  0  0
  -21.2001   -7.6147   23.9716 H   0  0  0  0  0  0
  -21.1479   -6.0522   25.9079 H   0  0  0  0  0  0
  -22.0600   -2.7610   23.2845 H   0  0  0  0  0  0
  -22.4107  -11.9891   22.4798 H   0  0  0  0  0  0
  -21.1112  -13.1261   22.2618 H   0  0  0  0  0  0
  -24.6575  -15.8414   20.5033 H   0  0  0  0  0  0
  -26.2720  -15.6232   20.0546 H   0  0  0  0  0  0
  -26.7156  -32.5459   23.1097 H   0  0  0  0  0  0
  -25.0050  -33.9699   25.0403 H   0  0  0  0  0  0
  -22.7072  -31.3080   21.4108 H   0  0  0  0  0  0
  -23.3730  -35.9663   23.3297 H   0  0  0  0  0  0
  -24.3585  -36.8935   22.2054 H   0  0  0  0  0  0
  -23.7265  -37.6523   23.6659 H   0  0  0  0  0  0
  -26.0684  -31.5705   20.5988 H   0  0  0  0  0  0
  -26.8380  -30.8576   21.9887 H   0  0  0  0  0  0
  -28.1101  -29.0185   21.1749 H   0  0  0  0  0  0
  -25.9660  -25.9519   18.9966 H   0  0  0  0  0  0
  -23.9664  -27.3169   19.0100 H   0  0  0  0  0  0
  -23.7357  -30.6046   19.4036 H   0  0  0  0  0  0
  -22.7452  -29.2528   19.8637 H   0  0  0  0  0  0
  -25.1288  -36.1927   25.0816 H   0  0  0  0  0  0
  -20.9976  -28.3256   24.1398 H   0  0  0  0  0  0
  -20.5681  -26.2278   23.3612 H   0  0  0  0  0  0
  -21.6628  -26.7441   22.1193 H   0  0  0  0  0  0
  -19.6906  -25.6307   21.1209 H   0  0  0  0  0  0
  -19.6669  -27.3212   20.6751 H   0  0  0  0  0  0
  -17.4194  -26.6654   21.4027 H   0  0  0  0  0  0
  -18.0327  -26.0066   22.9029 H   0  0  0  0  0  0
  -19.7942  -30.7259   24.2253 H   0  0  0  0  0  0
  -17.5022  -31.6263   24.5152 H   0  0  0  0  0  0
  -15.5349  -30.2969   23.7683 H   0  0  0  0  0  0
  -15.8669  -28.0850   22.7004 H   0  0  0  0  0  0
  -24.5904  -30.7066   25.7800 H   0  0  0  0  0  0
  -24.8935  -32.2886   26.4868 H   0  0  0  0  0  0
  -25.8074  -30.8909   27.0215 H   0  0  0  0  0  0
  -26.2875  -29.6761   24.1166 H   0  0  0  0  0  0
  -27.4038  -29.7246   25.4624 H   0  0  0  0  0  0
  -27.8738  -30.4289   23.9316 H   0  0  0  0  0  0
  -27.2624  -33.3605   26.2060 H   0  0  0  0  0  0
  -28.3857  -32.6893   25.0321 H   0  0  0  0  0  0
  -28.0693  -31.8433   26.5410 H   0  0  0  0  0  0
  -28.2596  -38.0108   24.7502 H   0  0  0  0  0  0
  -28.1066  -36.2637   24.6286 H   0  0  0  0  0  0
  -27.2293  -37.1458   25.8869 H   0  0  0  0  0  0
  -20.9338  -29.8801   21.6934 H   0  0  0  0  0  0
  -26.0159  -38.2852   24.1412 H   0  0  0  0  0  0
  -26.9532  -18.4257   22.0924 H   0  0  0  0  0  0
  -26.8249  -19.2303   23.6453 H   0  0  0  0  0  0
  -28.3144  -18.4086   23.2291 H   0  0  0  0  0  0
  -28.4277  -24.6375   23.1209 H   0  0  0  0  0  0
  -27.7284  -23.5420   24.2919 H   0  0  0  0  0  0
  -26.7374  -24.1430   22.9643 H   0  0  0  0  0  0
  -29.0111  -19.3632   19.1129 H   0  0  0  0  0  0
  -28.1417  -18.3806   20.2155 H   0  0  0  0  0  0
  -29.9501  -23.9586   19.7771 H   0  0  0  0  0  0
  -29.8205  -24.5909   21.3777 H   0  0  0  0  0  0
  -31.1249  -18.8890   20.5934 H   0  0  0  0  0  0
  -30.5987  -17.7836   19.3829 H   0  0  0  0  0  0
  -29.8626  -17.2475   22.2855 H   0  0  0  0  0  0
  -31.4245  -16.8740   21.6768 H   0  0  0  0  0  0
  -27.2252  -24.8727   20.7492 H   0  0  0  0  0  0
  -27.8094  -24.7709   19.1125 H   0  0  0  0  0  0
  -28.9458  -15.4180   21.1450 H   0  0  0  0  0  0
  1 25  1  0  0  0
  1 30  2  0  0  0
  1 84  1  0  0  0
  2  3  1  0  0  0
  2 25  1  0  0  0
  2 85  1  0  0  0
  2 86  1  0  0  0
  3  4  1  0  0  0
  3 87  1  0  0  0
  3 88  1  0  0  0
  4  5  1  0  0  0
  4 89  1  0  0  0
  4 90  1  0  0  0
  5  6  1  0  0  0
  5 26  1  0  0  0
  5 91  1  0  0  0
  6 25  1  0  0  0
  6 92  1  0  0  0
  6 93  1  0  0  0
  7  8  2  0  0  0
  7 26  1  0  0  0
  7 29  1  0  0  0
  8  9  1  0  0  0
  8 22  1  0  0  0
  9 10  1  0  0  0
  9 27  2  0  0  0
 10 11  2  0  0  0
 10 15  1  0  0  0
 11 12  1  0  0  0
 11 94  1  0  0  0
 12 13  2  0  0  0
 12 95  1  0  0  0
 13 14  1  0  0  0
 13 31  1  0  0  0
 14 15  2  0  0  0
 14 96  1  0  0  0
 15 97  1  0  0  0
 16 17  2  0  0  0
 16 21  1  0  0  0
 16 31  1  0  0  0
 17 18  1  0  0  0
 17 98  1  0  0  0
 18 19  2  0  0  0
 18 99  1  0  0  0
 19 20  1  0  0  0
 19 24  1  0  0  0
 20 21  2  0  0  0
 20100  1  0  0  0
 21 23  1  0  0  0
 22 28  1  0  0  0
 22 32  2  0  0  0
 26 27  1  0  0  0
 28101  1  0  0  0
 28102  1  0  0  0
 29103  1  0  0  0
 29104  1  0  0  0
 33 34  1  0  0  0
 33 66  1  0  0  0
 33 70  2  0  0  0
 34 36  1  0  0  0
 34 59  1  0  0  0
 34105  1  0  0  0
 35 44  2  0  0  0
 35 45  1  0  0  0
 35 68  1  0  0  0
 36 56  1  0  0  0
 36106  1  0  0  0
 37 39  1  0  0  0
 37 47  1  0  0  0
 37 66  1  0  0  0
 37107  1  0  0  0
 38 43  2  0  0  0
 38 46  1  0  0  0
 38 47  1  0  0  0
 39 64  1  0  0  0
 39 67  2  0  0  0
 40 52  1  0  0  0
 40 53  2  0  0  0
 40 58  1  0  0  0
 41108  1  0  0  0
 41109  1  0  0  0
 41110  1  0  0  0
 41 48  1  0  0  0
 42 43  1  0  0  0
 42 66  1  0  0  0
 42111  1  0  0  0
 42112  1  0  0  0
 43 44  1  0  0  0
 44113  1  0  0  0
 45 46  2  0  0  0
 45114  1  0  0  0
 46115  1  0  0  0
 47116  1  0  0  0
 47117  1  0  0  0
 48 56  1  0  0  0
 48 65  1  0  0  0
 48118  1  0  0  0
 49 50  1  0  0  0
 49 53  1  0  0  0
 49 64  1  0  0  0
 49119  1  0  0  0
 50 51  1  0  0  0
 50120  1  0  0  0
 50121  1  0  0  0
 51 52  1  0  0  0
 51122  1  0  0  0
 51123  1  0  0  0
 52124  1  0  0  0
 52125  1  0  0  0
 53 54  1  0  0  0
 54 55  2  0  0  0
 54126  1  0  0  0
 55 57  1  0  0  0
 55127  1  0  0  0
 56 69  2  0  0  0
 57 58  2  0  0  0
 57128  1  0  0  0
 58129  1  0  0  0
 59 60  1  0  0  0
 59 61  1  0  0  0
 59 62  1  0  0  0
 60130  1  0  0  0
 60131  1  0  0  0
 60132  1  0  0  0
 61133  1  0  0  0
 61134  1  0  0  0
 61135  1  0  0  0
 62136  1  0  0  0
 62137  1  0  0  0
 62138  1  0  0  0
 63 65  1  0  0  0
 63139  1  0  0  0
 63140  1  0  0  0
 63141  1  0  0  0
 64142  1  0  0  0
 65143  1  0  0  0
 68 81  1  0  0  0
 71 73  2  0  0  0
 71 75  1  0  0  0
 71 82  1  0  0  0
 72 74  1  0  0  0
 72 76  1  0  0  0
 72 82  2  0  0  0
 73 77  1  0  0  0
 73 83  1  0  0  0
 74 78  1  0  0  0
 74 83  2  0  0  0
 75144  1  0  0  0
 75145  1  0  0  0
 75146  1  0  0  0
 76147  1  0  0  0
 76148  1  0  0  0
 76149  1  0  0  0
 77 79  1  0  0  0
 77150  1  0  0  0
 77151  1  0  0  0
 78 81  1  0  0  0
 78152  1  0  0  0
 78153  1  0  0  0
 79 80  1  0  0  0
 79154  1  0  0  0
 79155  1  0  0  0
 80 84  1  0  0  0
 80156  1  0  0  0
 80157  1  0  0  0
 81158  1  0  0  0
 81159  1  0  0  0
 84160  1  0  0  0
M  ISO  4   1 100  68 101  81 101  84 100
M  END
> <chiral flag>
0

> <version>
0

> <s_m_source_file>
/data/baiqing/PycharmProjects/Reinvent-master-3.2/result/LINK_invent/BTK/process_docking_weight1_custom_sum_contain_oxygen_bond_distance_aromatic_linkinvent_7_9_3/rearranged_h_0049.sdf

> <i_m_source_file_index>
18

> <r_mmod_Potential_Energy-OPLS-2005>
10.8623781204224

> <r_mmod_Stretch_Energy-OPLS-2005>
66.9304809570312

> <r_mmod_Bend_Energy-OPLS-2005>
133.375030517578

> <r_mmod_Torsional_Energy-OPLS-2005>
213.078979492188

> <r_mmod_Improper_Torsional_Energy-OPLS-2005>
4.16072940826416

> <r_mmod_Van_der_Waal_Energy-OPLS-2005>
152.647613525391

> <r_mmod_Electrostatic_Energy-OPLS-2005>
-368.513824462891

> <r_mmod_Solvation_Energy-OPLS-2005>
-225.318115234375

> <b_mmod_Minimization_Converged-OPLS-2005>
0

> <r_mmod_RMS_Derivative-OPLS-2005>
1.37629842758179

$$$$
19
                    3D
 Structure written by MMmdl.
163171  0  0  1  0            999 V2000
  -30.6869  -14.5292   20.5794 C   0  0  0  0  0  0
  -30.4329  -12.3576   19.4152 C   0  0  0  0  0  0
  -29.4946  -12.5162   18.2002 C   0  0  0  0  0  0
  -28.0165  -12.3658   18.6157 C   0  0  0  0  0  0
  -27.6562  -13.2136   19.8647 C   0  0  2  0  0  0
  -28.7019  -13.0223   20.9848 C   0  0  0  0  0  0
  -25.2564  -13.8166   20.5667 C   0  0  0  0  0  0
  -24.1827  -13.0436   20.9168 C   0  0  0  0  0  0
  -24.6379  -11.6899   20.8716 C   0  0  0  0  0  0
  -23.9051  -10.4283   21.0391 C   0  0  0  0  0  0
  -24.3601   -9.4205   21.9176 C   0  0  0  0  0  0
  -23.6284   -8.2248   22.0758 C   0  0  0  0  0  0
  -22.4280   -8.0272   21.3542 C   0  0  0  0  0  0
  -21.9898   -9.0243   20.4653 C   0  0  0  0  0  0
  -22.7216  -10.2123   20.3051 C   0  0  0  0  0  0
  -21.6844   -6.0722   22.5281 C   0  0  0  0  0  0
  -21.4006   -6.5631   23.8208 C   0  0  0  0  0  0
  -21.3665   -5.6786   24.9174 C   0  0  0  0  0  0
  -21.6039   -4.3050   24.7220 C   0  0  0  0  0  0
  -21.8826   -3.8138   23.4347 C   0  0  0  0  0  0
  -21.9196   -4.6954   22.3399 C   0  0  0  0  0  0
  -22.7854  -13.5231   21.1839 C   0  0  0  0  0  0
  -22.1666   -4.2130   21.0982 F   0  0  0  0  0  0
  -21.5630   -3.4546   25.7748 F   0  0  0  0  0  0
  -30.0236  -13.3474   20.4265 N   0  0  0  0  0  0
  -26.3001  -12.9341   20.3322 N   0  0  0  0  0  0
  -25.9310  -11.6494   20.5746 N   0  0  0  0  0  0
  -22.0473  -12.8237   22.0384 N   0  0  0  0  0  0
  -25.4240  -15.1887   20.4038 N   0  0  0  0  0  0
  -31.8289  -14.7047   20.1452 O   0  0  0  0  0  0
  -21.6649   -6.8870   21.4242 O   0  0  0  0  0  0
  -22.3541  -14.5515   20.6649 O   0  0  0  0  0  0
  -24.6146  -31.8641   23.2035 C   0  0  0  0  0  0
  -25.9010  -32.4816   23.8381 C   0  0  1  0  0  0
  -27.2412  -27.3986   20.1332 C   0  0  0  0  0  0
  -25.5855  -33.8622   24.2308 N   0  0  0  0  0  0
  -23.4080  -30.4873   21.5390 C   0  0  2  0  0  0
  -24.8599  -28.9498   20.1118 C   0  0  0  0  0  0
  -22.7416  -29.4657   22.4911 C   0  0  0  0  0  0
  -18.0282  -28.1407   22.8498 C   0  0  0  0  0  0
  -24.1478  -36.7305   23.2632 C   0  0  0  0  0  0
  -25.9381  -30.8276   21.3600 C   0  0  0  0  0  0
  -26.0187  -29.4569   20.7145 C   0  0  0  0  0  0
  -27.2092  -28.6911   20.7166 C   0  0  0  0  0  0
  -26.0679  -26.9251   19.4969 C   0  0  0  0  0  0
  -24.8841  -27.6909   19.4929 C   0  0  0  0  0  0
  -23.6218  -29.8160   20.1555 C   0  0  0  0  0  0
  -25.4105  -36.3115   24.0339 C   0  0  1  0  0  0
  -20.5883  -28.3700   23.1287 C   0  0  2  0  0  0
  -20.6776  -26.9436   22.5399 C   0  0  0  0  0  0
  -19.5758  -26.6416   21.5199 C   0  0  0  0  0  0
  -18.1926  -26.7954   22.1621 C   0  0  0  0  0  0
  -19.1539  -28.8862   23.2909 C   0  0  0  0  0  0
  -18.9468  -30.1460   23.8939 C   0  0  0  0  0  0
  -17.6477  -30.6608   24.0582 C   0  0  0  0  0  0
  -25.9031  -34.9485   23.5145 C   0  0  0  0  0  0
  -16.5360  -29.9123   23.6336 C   0  0  0  0  0  0
  -16.7283  -28.6539   23.0360 C   0  0  0  0  0  0
  -26.4440  -31.6600   25.0705 C   0  0  0  0  0  0
  -25.3706  -31.3729   26.1446 C   0  0  0  0  0  0
  -27.0250  -30.3046   24.6077 C   0  0  0  0  0  0
  -27.6033  -32.4288   25.7472 C   0  0  0  0  0  0
  -27.5592  -37.1796   24.8467 C   0  0  0  0  0  0
  -21.4143  -29.3055   22.3665 N   0  0  0  0  0  0
  -26.4287  -37.3806   23.9425 N   0  0  0  0  0  0
  -24.6710  -31.0767   22.0931 N   0  0  0  0  0  0
  -23.4183  -28.8191   23.2957 O   0  0  0  0  0  0
  -28.4160  -26.6629   20.2107 O   0  0  0  0  0  0
  -26.5603  -34.8949   22.4719 O   0  0  0  0  0  0
  -23.5344  -32.1354   23.7437 O   0  0  0  0  0  0
  -30.3458  -22.6380   19.6033 C   0  0  0  0  0  0
  -29.6548  -23.0423   20.7163 C   0  0  0  0  0  0
  -30.1398  -20.8312   20.9024 C   0  0  0  0  0  0
  -32.9226  -20.4233   19.2285 C   0  0  0  0  0  0
  -31.3335  -21.0281   17.3403 C   0  0  0  0  0  0
  -29.2056  -24.4407   21.1300 C   0  0  0  0  0  0
  -30.3754  -19.4678   21.5679 C   0  0  0  0  0  0
  -29.8018  -18.1396   20.9533 C   0  0  0  0  0  0
  -30.4968  -16.8718   21.5627 C   0  0  0  0  0  0
  -28.4169  -25.2209   20.0311 C   0  0  0  0  0  0
  -31.4479  -20.5022   18.7862 C   0  0  0  0  0  0
  -30.6326  -21.2973   19.7329 N   0  0  0  0  0  0
  -29.5415  -21.8953   21.4843 N   0  3  0  0  0  0
  -29.9828  -15.5460   21.1364 N   0  0  0  0  0  0
  -31.4688  -12.4883   19.0982 H   0  0  0  0  0  0
  -30.3672  -11.3488   19.8269 H   0  0  0  0  0  0
  -29.7429  -11.7802   17.4335 H   0  0  0  0  0  0
  -29.6473  -13.4952   17.7422 H   0  0  0  0  0  0
  -27.8351  -11.3107   18.8208 H   0  0  0  0  0  0
  -27.3636  -12.6295   17.7827 H   0  0  0  0  0  0
  -27.6885  -14.2582   19.5530 H   0  0  0  0  0  0
  -28.6983  -11.9905   21.3403 H   0  0  0  0  0  0
  -28.4567  -13.6337   21.8529 H   0  0  0  0  0  0
  -25.2738   -9.5698   22.4743 H   0  0  0  0  0  0
  -23.9987   -7.4654   22.7487 H   0  0  0  0  0  0
  -21.0816   -8.8736   19.8981 H   0  0  0  0  0  0
  -22.3639  -10.9647   19.6160 H   0  0  0  0  0  0
  -21.1995   -7.6140   23.9691 H   0  0  0  0  0  0
  -21.1480   -6.0531   25.9066 H   0  0  0  0  0  0
  -22.0600   -2.7603   23.2858 H   0  0  0  0  0  0
  -22.4080  -11.9923   22.4816 H   0  0  0  0  0  0
  -21.1090  -13.1278   22.2547 H   0  0  0  0  0  0
  -24.6470  -15.8352   20.4875 H   0  0  0  0  0  0
  -26.2657  -15.6261   20.0501 H   0  0  0  0  0  0
  -26.7097  -32.5555   23.1162 H   0  0  0  0  0  0
  -25.0032  -33.9793   25.0471 H   0  0  0  0  0  0
  -22.7023  -31.3092   21.3962 H   0  0  0  0  0  0
  -23.3755  -35.9623   23.3313 H   0  0  0  0  0  0
  -24.3584  -36.8889   22.2049 H   0  0  0  0  0  0
  -23.7206  -37.6513   23.6626 H   0  0  0  0  0  0
  -26.0495  -31.5857   20.5832 H   0  0  0  0  0  0
  -26.8269  -30.8924   21.9750 H   0  0  0  0  0  0
  -28.0997  -29.0841   21.1861 H   0  0  0  0  0  0
  -26.0421  -25.9695   18.9930 H   0  0  0  0  0  0
  -23.9965  -27.3013   19.0123 H   0  0  0  0  0  0
  -23.7333  -30.5853   19.3890 H   0  0  0  0  0  0
  -22.7485  -29.2281   19.8620 H   0  0  0  0  0  0
  -25.1277  -36.1999   25.0821 H   0  0  0  0  0  0
  -21.0011  -28.3259   24.1382 H   0  0  0  0  0  0
  -20.5654  -26.2304   23.3583 H   0  0  0  0  0  0
  -21.6653  -26.7433   22.1210 H   0  0  0  0  0  0
  -19.6904  -25.6318   21.1227 H   0  0  0  0  0  0
  -19.6698  -27.3236   20.6740 H   0  0  0  0  0  0
  -17.4193  -26.6690   21.4025 H   0  0  0  0  0  0
  -18.0351  -26.0110   22.9036 H   0  0  0  0  0  0
  -19.7945  -30.7277   24.2317 H   0  0  0  0  0  0
  -17.5031  -31.6291   24.5200 H   0  0  0  0  0  0
  -15.5363  -30.3066   23.7622 H   0  0  0  0  0  0
  -15.8670  -28.0877   22.7056 H   0  0  0  0  0  0
  -24.5904  -30.7028   25.7802 H   0  0  0  0  0  0
  -24.8852  -32.2888   26.4831 H   0  0  0  0  0  0
  -25.8036  -30.8965   27.0248 H   0  0  0  0  0  0
  -26.2793  -29.6866   24.1045 H   0  0  0  0  0  0
  -27.3933  -29.7222   25.4540 H   0  0  0  0  0  0
  -27.8679  -30.4380   23.9291 H   0  0  0  0  0  0
  -27.2675  -33.3606   26.2052 H   0  0  0  0  0  0
  -28.3847  -32.6791   25.0275 H   0  0  0  0  0  0
  -28.0691  -31.8386   26.5379 H   0  0  0  0  0  0
  -28.2590  -38.0126   24.7576 H   0  0  0  0  0  0
  -28.1104  -36.2650   24.6206 H   0  0  0  0  0  0
  -27.2322  -37.1365   25.8876 H   0  0  0  0  0  0
  -20.9279  -29.8805   21.6931 H   0  0  0  0  0  0
  -26.0186  -38.2868   24.1484 H   0  0  0  0  0  0
  -30.6821  -23.2259   18.7596 H   0  0  0  0  0  0
  -33.4969  -19.7896   18.5500 H   0  0  0  0  0  0
  -33.0260  -19.9941   20.2238 H   0  0  0  0  0  0
  -33.3986  -21.4046   19.2432 H   0  0  0  0  0  0
  -31.8458  -20.3696   16.6376 H   0  0  0  0  0  0
  -31.7745  -22.0177   17.2180 H   0  0  0  0  0  0
  -30.2904  -21.0884   17.0246 H   0  0  0  0  0  0
  -30.1007  -25.0037   21.3964 H   0  0  0  0  0  0
  -28.6120  -24.3810   22.0443 H   0  0  0  0  0  0
  -30.0119  -19.5601   22.5907 H   0  0  0  0  0  0
  -31.4559  -19.3822   21.6706 H   0  0  0  0  0  0
  -29.9412  -18.1113   19.8775 H   0  0  0  0  0  0
  -28.7241  -18.1039   21.1090 H   0  0  0  0  0  0
  -30.4002  -16.9059   22.6503 H   0  0  0  0  0  0
  -31.5681  -16.9330   21.3666 H   0  0  0  0  0  0
  -28.8652  -25.0350   19.0552 H   0  0  0  0  0  0
  -27.4221  -24.7826   20.0078 H   0  0  0  0  0  0
  -31.0420  -19.4957   18.7761 H   0  0  0  0  0  0
  -29.1177  -21.8621   22.4054 H   0  0  0  0  0  0
  -29.0357  -15.3191   21.4018 H   0  0  0  0  0  0
  1 25  1  0  0  0
  1 30  2  0  0  0
  1 84  1  0  0  0
  2  3  1  0  0  0
  2 25  1  0  0  0
  2 85  1  0  0  0
  2 86  1  0  0  0
  3  4  1  0  0  0
  3 87  1  0  0  0
  3 88  1  0  0  0
  4  5  1  0  0  0
  4 89  1  0  0  0
  4 90  1  0  0  0
  5  6  1  0  0  0
  5 26  1  0  0  0
  5 91  1  0  0  0
  6 25  1  0  0  0
  6 92  1  0  0  0
  6 93  1  0  0  0
  7  8  2  0  0  0
  7 26  1  0  0  0
  7 29  1  0  0  0
  8  9  1  0  0  0
  8 22  1  0  0  0
  9 10  1  0  0  0
  9 27  2  0  0  0
 10 11  2  0  0  0
 10 15  1  0  0  0
 11 12  1  0  0  0
 11 94  1  0  0  0
 12 13  2  0  0  0
 12 95  1  0  0  0
 13 14  1  0  0  0
 13 31  1  0  0  0
 14 15  2  0  0  0
 14 96  1  0  0  0
 15 97  1  0  0  0
 16 17  2  0  0  0
 16 21  1  0  0  0
 16 31  1  0  0  0
 17 18  1  0  0  0
 17 98  1  0  0  0
 18 19  2  0  0  0
 18 99  1  0  0  0
 19 20  1  0  0  0
 19 24  1  0  0  0
 20 21  2  0  0  0
 20100  1  0  0  0
 21 23  1  0  0  0
 22 28  1  0  0  0
 22 32  2  0  0  0
 26 27  1  0  0  0
 28101  1  0  0  0
 28102  1  0  0  0
 29103  1  0  0  0
 29104  1  0  0  0
 33 34  1  0  0  0
 33 66  1  0  0  0
 33 70  2  0  0  0
 34 36  1  0  0  0
 34 59  1  0  0  0
 34105  1  0  0  0
 35 44  2  0  0  0
 35 45  1  0  0  0
 35 68  1  0  0  0
 36 56  1  0  0  0
 36106  1  0  0  0
 37 39  1  0  0  0
 37 47  1  0  0  0
 37 66  1  0  0  0
 37107  1  0  0  0
 38 43  2  0  0  0
 38 46  1  0  0  0
 38 47  1  0  0  0
 39 64  1  0  0  0
 39 67  2  0  0  0
 40 52  1  0  0  0
 40 53  2  0  0  0
 40 58  1  0  0  0
 41108  1  0  0  0
 41109  1  0  0  0
 41110  1  0  0  0
 41 48  1  0  0  0
 42 43  1  0  0  0
 42 66  1  0  0  0
 42111  1  0  0  0
 42112  1  0  0  0
 43 44  1  0  0  0
 44113  1  0  0  0
 45 46  2  0  0  0
 45114  1  0  0  0
 46115  1  0  0  0
 47116  1  0  0  0
 47117  1  0  0  0
 48 56  1  0  0  0
 48 65  1  0  0  0
 48118  1  0  0  0
 49 50  1  0  0  0
 49 53  1  0  0  0
 49 64  1  0  0  0
 49119  1  0  0  0
 50 51  1  0  0  0
 50120  1  0  0  0
 50121  1  0  0  0
 51 52  1  0  0  0
 51122  1  0  0  0
 51123  1  0  0  0
 52124  1  0  0  0
 52125  1  0  0  0
 53 54  1  0  0  0
 54 55  2  0  0  0
 54126  1  0  0  0
 55 57  1  0  0  0
 55127  1  0  0  0
 56 69  2  0  0  0
 57 58  2  0  0  0
 57128  1  0  0  0
 58129  1  0  0  0
 59 60  1  0  0  0
 59 61  1  0  0  0
 59 62  1  0  0  0
 60130  1  0  0  0
 60131  1  0  0  0
 60132  1  0  0  0
 61133  1  0  0  0
 61134  1  0  0  0
 61135  1  0  0  0
 62136  1  0  0  0
 62137  1  0  0  0
 62138  1  0  0  0
 63 65  1  0  0  0
 63139  1  0  0  0
 63140  1  0  0  0
 63141  1  0  0  0
 64142  1  0  0  0
 65143  1  0  0  0
 68 80  1  0  0  0
 71 72  2  0  0  0
 71 82  1  0  0  0
 71144  1  0  0  0
 72 76  1  0  0  0
 72 83  1  0  0  0
 73 77  1  0  0  0
 73 82  1  0  0  0
 73 83  2  0  0  0
 74145  1  0  0  0
 74146  1  0  0  0
 74147  1  0  0  0
 74 81  1  0  0  0
 75 81  1  0  0  0
 75148  1  0  0  0
 75149  1  0  0  0
 75150  1  0  0  0
 76 80  1  0  0  0
 76151  1  0  0  0
 76152  1  0  0  0
 77 78  1  0  0  0
 77153  1  0  0  0
 77154  1  0  0  0
 78 79  1  0  0  0
 78155  1  0  0  0
 78156  1  0  0  0
 79 84  1  0  0  0
 79157  1  0  0  0
 79158  1  0  0  0
 80159  1  0  0  0
 80160  1  0  0  0
 81 82  1  0  0  0
 81161  1  0  0  0
 83162  1  0  0  0
 84163  1  0  0  0
M  CHG  1  83   1
M  ISO  4   1 100  68 101  80 101  84 100
M  END
> <chiral flag>
0

> <version>
0

> <s_m_source_file>
/data/baiqing/PycharmProjects/Reinvent-master-3.2/result/LINK_invent/BTK/process_docking_weight1_custom_sum_contain_oxygen_bond_distance_aromatic_linkinvent_7_9_3/rearranged_h_0049.sdf

> <i_m_source_file_index>
19

> <r_mmod_Potential_Energy-OPLS-2005>
-51.5365295410156

> <r_mmod_Stretch_Energy-OPLS-2005>
49.0150032043457

> <r_mmod_Bend_Energy-OPLS-2005>
118.422004699707

> <r_mmod_Torsional_Energy-OPLS-2005>
235.128326416016

> <r_mmod_Improper_Torsional_Energy-OPLS-2005>
4.09561252593994

> <r_mmod_Van_der_Waal_Energy-OPLS-2005>
129.446624755859

> <r_mmod_Electrostatic_Energy-OPLS-2005>
-196.175399780273

> <r_mmod_Solvation_Energy-OPLS-2005>
-413.674865722656

> <b_mmod_Minimization_Converged-OPLS-2005>
0

> <r_mmod_RMS_Derivative-OPLS-2005>
4.21077489852905

$$$$
20
                    3D
 Structure written by MMmdl.
168176  0  0  1  0            999 V2000
  -30.7367  -14.3996   20.5931 C   0  0  0  0  0  0
  -30.4202  -12.2765   19.3957 C   0  0  0  0  0  0
  -29.4903  -12.5056   18.1880 C   0  0  0  0  0  0
  -28.0113  -12.3817   18.6062 C   0  0  0  0  0  0
  -27.6696  -13.2048   19.8779 C   0  0  2  0  0  0
  -28.7107  -12.9505   20.9907 C   0  0  0  0  0  0
  -25.2631  -13.8163   20.5703 C   0  0  0  0  0  0
  -24.1882  -13.0458   20.9181 C   0  0  0  0  0  0
  -24.6439  -11.6922   20.8769 C   0  0  0  0  0  0
  -23.9109  -10.4304   21.0418 C   0  0  0  0  0  0
  -24.3630   -9.4208   21.9202 C   0  0  0  0  0  0
  -23.6290   -8.2247   22.0777 C   0  0  0  0  0  0
  -22.4272   -8.0285   21.3555 C   0  0  0  0  0  0
  -21.9928   -9.0282   20.4673 C   0  0  0  0  0  0
  -22.7274  -10.2152   20.3078 C   0  0  0  0  0  0
  -21.6851   -6.0763   22.5297 C   0  0  0  0  0  0
  -21.4003   -6.5664   23.8237 C   0  0  0  0  0  0
  -21.3645   -5.6804   24.9190 C   0  0  0  0  0  0
  -21.6035   -4.3073   24.7232 C   0  0  0  0  0  0
  -21.8815   -3.8174   23.4353 C   0  0  0  0  0  0
  -21.9200   -4.6994   22.3414 C   0  0  0  0  0  0
  -22.7899  -13.5252   21.1846 C   0  0  0  0  0  0
  -22.1665   -4.2189   21.0991 F   0  0  0  0  0  0
  -21.5620   -3.4550   25.7741 F   0  0  0  0  0  0
  -30.0471  -13.2408   20.4394 N   0  0  0  0  0  0
  -26.3084  -12.9353   20.3395 N   0  0  0  0  0  0
  -25.9355  -11.6515   20.5757 N   0  0  0  0  0  0
  -22.0512  -12.8270   22.0383 N   0  0  0  0  0  0
  -25.4367  -15.1888   20.4149 N   0  0  0  0  0  0
  -31.8346  -14.6101   20.0704 O   0  0  0  0  0  0
  -21.6612   -6.8893   21.4257 O   0  0  0  0  0  0
  -22.3603  -14.5566   20.6686 O   0  0  0  0  0  0
  -24.6129  -31.8693   23.2142 C   0  0  0  0  0  0
  -25.9055  -32.4804   23.8404 C   0  0  1  0  0  0
  -27.2170  -27.4581   20.0532 C   0  0  0  0  0  0
  -25.5935  -33.8597   24.2343 N   0  0  0  0  0  0
  -23.3940  -30.4959   21.5575 C   0  0  2  0  0  0
  -24.8285  -28.9628   20.1213 C   0  0  0  0  0  0
  -22.7391  -29.4646   22.5037 C   0  0  0  0  0  0
  -18.0253  -28.1360   22.8499 C   0  0  0  0  0  0
  -24.1455  -36.7271   23.2644 C   0  0  0  0  0  0
  -25.9221  -30.8305   21.3651 C   0  0  0  0  0  0
  -25.9886  -29.4622   20.7257 C   0  0  0  0  0  0
  -27.1815  -28.7075   20.7096 C   0  0  0  0  0  0
  -26.0254  -26.9538   19.4793 C   0  0  0  0  0  0
  -24.8359  -27.6991   19.5128 C   0  0  0  0  0  0
  -23.5941  -29.8326   20.1721 C   0  0  0  0  0  0
  -25.4084  -36.3081   24.0348 C   0  0  1  0  0  0
  -20.5855  -28.3625   23.1341 C   0  0  2  0  0  0
  -20.6753  -26.9375   22.5437 C   0  0  0  0  0  0
  -19.5729  -26.6383   21.5223 C   0  0  0  0  0  0
  -18.1901  -26.7915   22.1622 C   0  0  0  0  0  0
  -19.1508  -28.8811   23.2913 C   0  0  0  0  0  0
  -18.9466  -30.1427   23.8913 C   0  0  0  0  0  0
  -17.6475  -30.6594   24.0563 C   0  0  0  0  0  0
  -25.9029  -34.9454   23.5119 C   0  0  0  0  0  0
  -16.5349  -29.9107   23.6332 C   0  0  0  0  0  0
  -16.7246  -28.6511   23.0366 C   0  0  0  0  0  0
  -26.4507  -31.6549   25.0702 C   0  0  0  0  0  0
  -25.3842  -31.3623   26.1494 C   0  0  0  0  0  0
  -27.0320  -30.3004   24.6001 C   0  0  0  0  0  0
  -27.6082  -32.4258   25.7480 C   0  0  0  0  0  0
  -27.5542  -37.1782   24.8489 C   0  0  0  0  0  0
  -21.4115  -29.2999   22.3753 N   0  0  0  0  0  0
  -26.4241  -37.3802   23.9459 N   0  0  0  0  0  0
  -24.6620  -31.0804   22.1042 N   0  0  0  0  0  0
  -23.4171  -28.8181   23.3058 O   0  0  0  0  0  0
  -28.4091  -26.7723   19.9736 O   0  0  0  0  0  0
  -26.5590  -34.8914   22.4671 O   0  0  0  0  0  0
  -23.5336  -32.1436   23.7569 O   0  0  0  0  0  0
  -30.5770  -24.6893   21.0580 C   0  0  0  0  0  0
  -30.3534  -24.4928   19.7211 C   0  0  0  0  0  0
  -30.4515  -23.0734   19.5601 C   0  0  0  0  0  0
  -31.0229  -23.1408   23.0197 C   0  0  0  0  0  0
  -31.8271  -20.5013   17.3428 C   0  0  0  0  0  0
  -30.0748  -25.5450   18.6708 C   0  0  0  0  0  0
  -30.3398  -22.2527   18.2895 C   0  0  0  0  0  0
  -29.9654  -17.5902   20.1414 C   0  0  0  0  0  0
  -30.6541  -18.9564   19.9985 C   0  0  0  0  0  0
  -30.5272  -16.7623   21.3193 C   0  0  0  0  0  0
  -30.0329  -19.8428   18.8989 C   0  0  0  0  0  0
  -28.6402  -26.0831   18.7387 C   0  0  0  0  0  0
  -30.7156  -22.4648   20.7141 N   0  0  0  0  0  0
  -30.7757  -23.4537   21.6292 N   0  0  0  0  0  0
  -30.0894  -15.3679   21.2550 N   0  0  0  0  0  0
  -30.9651  -20.9185   18.4738 N   0  3  1  0  0  0
  -31.4645  -12.3689   19.0893 H   0  0  0  0  0  0
  -30.3090  -11.2570   19.7719 H   0  0  0  0  0  0
  -29.7135  -11.7813   17.4045 H   0  0  0  0  0  0
  -29.6738  -13.4901   17.7543 H   0  0  0  0  0  0
  -27.8127  -11.3266   18.7931 H   0  0  0  0  0  0
  -27.3577  -12.6719   17.7818 H   0  0  0  0  0  0
  -27.7271  -14.2585   19.6048 H   0  0  0  0  0  0
  -28.6708  -11.9067   21.3070 H   0  0  0  0  0  0
  -28.4782  -13.5296   21.8860 H   0  0  0  0  0  0
  -25.2790   -9.5678   22.4768 H   0  0  0  0  0  0
  -24.0022   -7.4641   22.7495 H   0  0  0  0  0  0
  -21.0858   -8.8815   19.8988 H   0  0  0  0  0  0
  -22.3747  -10.9694   19.6181 H   0  0  0  0  0  0
  -21.1965   -7.6169   23.9754 H   0  0  0  0  0  0
  -21.1464   -6.0527   25.9094 H   0  0  0  0  0  0
  -22.0599   -2.7643   23.2842 H   0  0  0  0  0  0
  -22.4067  -11.9898   22.4762 H   0  0  0  0  0  0
  -21.1150  -13.1371   22.2575 H   0  0  0  0  0  0
  -24.6696  -15.8434   20.5198 H   0  0  0  0  0  0
  -26.2921  -15.6338   20.1083 H   0  0  0  0  0  0
  -26.7092  -32.5487   23.1128 H   0  0  0  0  0  0
  -25.0177  -33.9747   25.0537 H   0  0  0  0  0  0
  -22.6834  -31.3146   21.4279 H   0  0  0  0  0  0
  -23.3704  -35.9604   23.3332 H   0  0  0  0  0  0
  -24.3550  -36.8845   22.2055 H   0  0  0  0  0  0
  -23.7182  -37.6474   23.6623 H   0  0  0  0  0  0
  -26.0308  -31.5829   20.5833 H   0  0  0  0  0  0
  -26.8126  -30.8857   21.9782 H   0  0  0  0  0  0
  -28.0786  -29.0944   21.1714 H   0  0  0  0  0  0
  -25.9878  -25.9900   18.9959 H   0  0  0  0  0  0
  -23.9386  -27.3051   19.0564 H   0  0  0  0  0  0
  -23.7025  -30.6041   19.4088 H   0  0  0  0  0  0
  -22.7130  -29.2557   19.8796 H   0  0  0  0  0  0
  -25.1242  -36.1935   25.0839 H   0  0  0  0  0  0
  -20.9931  -28.3182   24.1457 H   0  0  0  0  0  0
  -20.5674  -26.2235   23.3617 H   0  0  0  0  0  0
  -21.6631  -26.7444   22.1224 H   0  0  0  0  0  0
  -19.6922  -25.6315   21.1204 H   0  0  0  0  0  0
  -19.6674  -27.3231   20.6782 H   0  0  0  0  0  0
  -17.4201  -26.6658   21.4000 H   0  0  0  0  0  0
  -18.0285  -26.0049   22.8999 H   0  0  0  0  0  0
  -19.7948  -30.7217   24.2285 H   0  0  0  0  0  0
  -17.5046  -31.6279   24.5166 H   0  0  0  0  0  0
  -15.5354  -30.3034   23.7664 H   0  0  0  0  0  0
  -15.8623  -28.0840   22.7103 H   0  0  0  0  0  0
  -24.6057  -30.6882   25.7905 H   0  0  0  0  0  0
  -24.8988  -32.2754   26.4946 H   0  0  0  0  0  0
  -25.8299  -30.8869   27.0237 H   0  0  0  0  0  0
  -26.2804  -29.6763   24.1137 H   0  0  0  0  0  0
  -27.4228  -29.7221   25.4373 H   0  0  0  0  0  0
  -27.8587  -30.4346   23.9020 H   0  0  0  0  0  0
  -27.2693  -33.3547   26.2071 H   0  0  0  0  0  0
  -28.3911  -32.6810   25.0336 H   0  0  0  0  0  0
  -28.0707  -31.8362   26.5400 H   0  0  0  0  0  0
  -28.2602  -38.0043   24.7526 H   0  0  0  0  0  0
  -28.0989  -36.2573   24.6309 H   0  0  0  0  0  0
  -27.2277  -37.1446   25.8901 H   0  0  0  0  0  0
  -20.9291  -29.8715   21.6971 H   0  0  0  0  0  0
  -26.0102  -38.2847   24.1539 H   0  0  0  0  0  0
  -30.6019  -25.5989   21.6445 H   0  0  0  0  0  0
  -30.3081  -23.6765   23.6455 H   0  0  0  0  0  0
  -32.0305  -23.4504   23.2886 H   0  0  0  0  0  0
  -30.9126  -22.0707   23.2018 H   0  0  0  0  0  0
  -32.3462  -19.5699   17.5712 H   0  0  0  0  0  0
  -32.5886  -21.2487   17.1206 H   0  0  0  0  0  0
  -31.2271  -20.3322   16.4481 H   0  0  0  0  0  0
  -30.2417  -25.1410   17.6715 H   0  0  0  0  0  0
  -30.7622  -26.3907   18.7539 H   0  0  0  0  0  0
  -30.8535  -22.7886   17.4895 H   0  0  0  0  0  0
  -29.3014  -22.1647   17.9648 H   0  0  0  0  0  0
  -30.0962  -17.0362   19.2101 H   0  0  0  0  0  0
  -28.8888  -17.7291   20.2641 H   0  0  0  0  0  0
  -31.7142  -18.7920   19.7970 H   0  0  0  0  0  0
  -30.6087  -19.4874   20.9497 H   0  0  0  0  0  0
  -30.2091  -17.1911   22.2704 H   0  0  0  0  0  0
  -31.6175  -16.8085   21.3232 H   0  0  0  0  0  0
  -29.7548  -19.2407   18.0329 H   0  0  0  0  0  0
  -29.1018  -20.2660   19.2775 H   0  0  0  0  0  0
  -27.9504  -25.2510   18.6083 H   0  0  0  0  0  0
  -28.4785  -26.7693   17.9030 H   0  0  0  0  0  0
  -29.1971  -15.1324   21.6675 H   0  0  0  0  0  0
  -31.5527  -21.0907   19.2755 H   0  0  0  0  0  0
  1 25  1  0  0  0
  1 30  2  0  0  0
  1 85  1  0  0  0
  2  3  1  0  0  0
  2 25  1  0  0  0
  2 87  1  0  0  0
  2 88  1  0  0  0
  3  4  1  0  0  0
  3 89  1  0  0  0
  3 90  1  0  0  0
  4  5  1  0  0  0
  4 91  1  0  0  0
  4 92  1  0  0  0
  5  6  1  0  0  0
  5 26  1  0  0  0
  5 93  1  0  0  0
  6 25  1  0  0  0
  6 94  1  0  0  0
  6 95  1  0  0  0
  7  8  2  0  0  0
  7 26  1  0  0  0
  7 29  1  0  0  0
  8  9  1  0  0  0
  8 22  1  0  0  0
  9 10  1  0  0  0
  9 27  2  0  0  0
 10 11  2  0  0  0
 10 15  1  0  0  0
 11 12  1  0  0  0
 11 96  1  0  0  0
 12 13  2  0  0  0
 12 97  1  0  0  0
 13 14  1  0  0  0
 13 31  1  0  0  0
 14 15  2  0  0  0
 14 98  1  0  0  0
 15 99  1  0  0  0
 16 17  2  0  0  0
 16 21  1  0  0  0
 16 31  1  0  0  0
 17 18  1  0  0  0
 17100  1  0  0  0
 18 19  2  0  0  0
 18101  1  0  0  0
 19 20  1  0  0  0
 19 24  1  0  0  0
 20 21  2  0  0  0
 20102  1  0  0  0
 21 23  1  0  0  0
 22 28  1  0  0  0
 22 32  2  0  0  0
 26 27  1  0  0  0
 28103  1  0  0  0
 28104  1  0  0  0
 29105  1  0  0  0
 29106  1  0  0  0
 33 34  1  0  0  0
 33 66  1  0  0  0
 33 70  2  0  0  0
 34 36  1  0  0  0
 34 59  1  0  0  0
 34107  1  0  0  0
 35 44  2  0  0  0
 35 45  1  0  0  0
 35 68  1  0  0  0
 36 56  1  0  0  0
 36108  1  0  0  0
 37 39  1  0  0  0
 37 47  1  0  0  0
 37 66  1  0  0  0
 37109  1  0  0  0
 38 43  2  0  0  0
 38 46  1  0  0  0
 38 47  1  0  0  0
 39 64  1  0  0  0
 39 67  2  0  0  0
 40 52  1  0  0  0
 40 53  2  0  0  0
 40 58  1  0  0  0
 41110  1  0  0  0
 41111  1  0  0  0
 41112  1  0  0  0
 41 48  1  0  0  0
 42 43  1  0  0  0
 42 66  1  0  0  0
 42113  1  0  0  0
 42114  1  0  0  0
 43 44  1  0  0  0
 44115  1  0  0  0
 45 46  2  0  0  0
 45116  1  0  0  0
 46117  1  0  0  0
 47118  1  0  0  0
 47119  1  0  0  0
 48 56  1  0  0  0
 48 65  1  0  0  0
 48120  1  0  0  0
 49 50  1  0  0  0
 49 53  1  0  0  0
 49 64  1  0  0  0
 49121  1  0  0  0
 50 51  1  0  0  0
 50122  1  0  0  0
 50123  1  0  0  0
 51 52  1  0  0  0
 51124  1  0  0  0
 51125  1  0  0  0
 52126  1  0  0  0
 52127  1  0  0  0
 53 54  1  0  0  0
 54 55  2  0  0  0
 54128  1  0  0  0
 55 57  1  0  0  0
 55129  1  0  0  0
 56 69  2  0  0  0
 57 58  2  0  0  0
 57130  1  0  0  0
 58131  1  0  0  0
 59 60  1  0  0  0
 59 61  1  0  0  0
 59 62  1  0  0  0
 60132  1  0  0  0
 60133  1  0  0  0
 60134  1  0  0  0
 61135  1  0  0  0
 61136  1  0  0  0
 61137  1  0  0  0
 62138  1  0  0  0
 62139  1  0  0  0
 62140  1  0  0  0
 63 65  1  0  0  0
 63141  1  0  0  0
 63142  1  0  0  0
 63143  1  0  0  0
 64144  1  0  0  0
 65145  1  0  0  0
 68 82  1  0  0  0
 71 72  2  0  0  0
 71 84  1  0  0  0
 71146  1  0  0  0
 72 73  1  0  0  0
 72 76  1  0  0  0
 73 77  1  0  0  0
 73 83  2  0  0  0
 74 84  1  0  0  0
 74147  1  0  0  0
 74148  1  0  0  0
 74149  1  0  0  0
 75150  1  0  0  0
 75151  1  0  0  0
 75152  1  0  0  0
 75 86  1  0  0  0
 76 82  1  0  0  0
 76153  1  0  0  0
 76154  1  0  0  0
 77 86  1  0  0  0
 77155  1  0  0  0
 77156  1  0  0  0
 78 79  1  0  0  0
 78 80  1  0  0  0
 78157  1  0  0  0
 78158  1  0  0  0
 79 81  1  0  0  0
 79159  1  0  0  0
 79160  1  0  0  0
 80 85  1  0  0  0
 80161  1  0  0  0
 80162  1  0  0  0
 81 86  1  0  0  0
 81163  1  0  0  0
 81164  1  0  0  0
 82165  1  0  0  0
 82166  1  0  0  0
 83 84  1  0  0  0
 85167  1  0  0  0
 86168  1  0  0  0
M  CHG  1  86   1
M  ISO  4   1 100  68 101  82 101  85 100
M  END
> <chiral flag>
0

> <version>
0

> <s_m_source_file>
/data/baiqing/PycharmProjects/Reinvent-master-3.2/result/LINK_invent/BTK/process_docking_weight1_custom_sum_contain_oxygen_bond_distance_aromatic_linkinvent_7_9_3/rearranged_h_0049.sdf

> <i_m_source_file_index>
20

> <r_mmod_Potential_Energy-OPLS-2005>
-306.765380859375

> <r_mmod_Stretch_Energy-OPLS-2005>
32.6255760192871

> <r_mmod_Bend_Energy-OPLS-2005>
90.0155715942383

> <r_mmod_Torsional_Energy-OPLS-2005>
211.097473144531

> <r_mmod_Improper_Torsional_Energy-OPLS-2005>
2.91823601722717

> <r_mmod_Van_der_Waal_Energy-OPLS-2005>
136.389572143555

> <r_mmod_Electrostatic_Energy-OPLS-2005>
-362.095367431641

> <r_mmod_Solvation_Energy-OPLS-2005>
-427.4365234375

> <b_mmod_Minimization_Converged-OPLS-2005>
0

> <r_mmod_RMS_Derivative-OPLS-2005>
4.61401462554932

$$$$
21
                    3D
 Structure written by MMmdl.
166174  0  0  1  0            999 V2000
  -30.6430  -14.6987   20.4460 C   0  0  0  0  0  0
  -30.4196  -12.4237   19.4654 C   0  0  0  0  0  0
  -29.5028  -12.5082   18.2280 C   0  0  0  0  0  0
  -28.0351  -12.3230   18.6543 C   0  0  0  0  0  0
  -27.6424  -13.2308   19.8524 C   0  0  2  0  0  0
  -28.6839  -13.1779   20.9868 C   0  0  0  0  0  0
  -25.2537  -13.8175   20.5664 C   0  0  0  0  0  0
  -24.1849  -13.0424   20.9182 C   0  0  0  0  0  0
  -24.6412  -11.6906   20.8735 C   0  0  0  0  0  0
  -23.9081  -10.4315   21.0403 C   0  0  0  0  0  0
  -24.3627   -9.4228   21.9182 C   0  0  0  0  0  0
  -23.6298   -8.2271   22.0781 C   0  0  0  0  0  0
  -22.4275   -8.0324   21.3586 C   0  0  0  0  0  0
  -21.9903   -9.0289   20.4684 C   0  0  0  0  0  0
  -22.7238  -10.2158   20.3080 C   0  0  0  0  0  0
  -21.6872   -6.0736   22.5293 C   0  0  0  0  0  0
  -21.4015   -6.5645   23.8210 C   0  0  0  0  0  0
  -21.3663   -5.6800   24.9175 C   0  0  0  0  0  0
  -21.6045   -4.3069   24.7213 C   0  0  0  0  0  0
  -21.8802   -3.8158   23.4343 C   0  0  0  0  0  0
  -21.9184   -4.6968   22.3394 C   0  0  0  0  0  0
  -22.7872  -13.5235   21.1840 C   0  0  0  0  0  0
  -22.1656   -4.2142   21.0981 F   0  0  0  0  0  0
  -21.5615   -3.4554   25.7729 F   0  0  0  0  0  0
  -29.9945  -13.4908   20.4006 N   0  0  0  0  0  0
  -26.2967  -12.9381   20.3254 N   0  0  0  0  0  0
  -25.9353  -11.6510   20.5720 N   0  0  0  0  0  0
  -22.0521  -12.8274   22.0415 N   0  0  0  0  0  0
  -25.4199  -15.1907   20.4131 N   0  0  0  0  0  0
  -31.8301  -14.7844   20.1247 O   0  0  0  0  0  0
  -21.6674   -6.8921   21.4254 O   0  0  0  0  0  0
  -22.3564  -14.5530   20.6682 O   0  0  0  0  0  0
  -24.6308  -31.8584   23.2028 C   0  0  0  0  0  0
  -25.9125  -32.4808   23.8371 C   0  0  1  0  0  0
  -27.2473  -27.2853   20.1295 C   0  0  0  0  0  0
  -25.5930  -33.8606   24.2317 N   0  0  0  0  0  0
  -23.4307  -30.4798   21.5410 C   0  0  2  0  0  0
  -24.8866  -28.9260   20.1139 C   0  0  0  0  0  0
  -22.7496  -29.4591   22.4870 C   0  0  0  0  0  0
  -18.0293  -28.1380   22.8509 C   0  0  0  0  0  0
  -24.1479  -36.7271   23.2649 C   0  0  0  0  0  0
  -25.9746  -30.7764   21.3793 C   0  0  0  0  0  0
  -26.0526  -29.3978   20.7281 C   0  0  0  0  0  0
  -27.2346  -28.5913   20.7206 C   0  0  0  0  0  0
  -26.0585  -26.8734   19.4881 C   0  0  0  0  0  0
  -24.8926  -27.6708   19.4840 C   0  0  0  0  0  0
  -23.6603  -29.8199   20.1530 C   0  0  0  0  0  0
  -25.4094  -36.3084   24.0358 C   0  0  1  0  0  0
  -20.5900  -28.3681   23.1295 C   0  0  2  0  0  0
  -20.6774  -26.9409   22.5417 C   0  0  0  0  0  0
  -19.5731  -26.6388   21.5228 C   0  0  0  0  0  0
  -18.1915  -26.7936   22.1638 C   0  0  0  0  0  0
  -19.1549  -28.8840   23.2908 C   0  0  0  0  0  0
  -18.9475  -30.1440   23.8945 C   0  0  0  0  0  0
  -17.6478  -30.6596   24.0568 C   0  0  0  0  0  0
  -25.9030  -34.9468   23.5120 C   0  0  0  0  0  0
  -16.5370  -29.9096   23.6326 C   0  0  0  0  0  0
  -16.7284  -28.6506   23.0358 C   0  0  0  0  0  0
  -26.4555  -31.6611   25.0704 C   0  0  0  0  0  0
  -25.3808  -31.3775   26.1432 C   0  0  0  0  0  0
  -27.0417  -30.3062   24.6107 C   0  0  0  0  0  0
  -27.6117  -32.4350   25.7500 C   0  0  0  0  0  0
  -27.5574  -37.1779   24.8479 C   0  0  0  0  0  0
  -21.4186  -29.3049   22.3649 N   0  0  0  0  0  0
  -26.4269  -37.3785   23.9454 N   0  0  0  0  0  0
  -24.6985  -31.0543   22.1009 N   0  0  0  0  0  0
  -23.4213  -28.8106   23.2935 O   0  0  0  0  0  0
  -28.3885  -26.4541   20.1469 O   0  0  0  0  0  0
  -26.5570  -34.8953   22.4669 O   0  0  0  0  0  0
  -23.5434  -32.1398   23.7290 O   0  0  0  0  0  0
  -32.2355  -23.2478   19.6103 C   0  0  0  0  0  0
  -31.8683  -24.5905   19.3798 C   0  0  0  0  0  0
  -30.0235  -22.7263   20.2186 C   0  0  0  0  0  0
  -29.6615  -24.1564   20.0608 C   0  0  0  0  0  0
  -34.6651  -22.9922   20.4402 C   0  0  0  0  0  0
  -32.4061  -25.8319   17.2538 C   0  0  0  0  0  0
  -33.6319  -22.6796   19.3438 C   0  0  0  0  0  0
  -32.7943  -25.6003   18.7244 C   0  0  0  0  0  0
  -29.1890  -21.4205   20.5798 C   0  0  0  0  0  0
  -28.3056  -24.9510   20.2663 C   0  0  0  0  0  0
  -29.9542  -19.9933   20.3261 C   0  0  0  0  0  0
  -29.3556  -18.5236   20.6027 C   0  0  0  0  0  0
  -30.3370  -17.2712   20.3235 C   0  0  0  0  0  0
  -31.3211  -22.3593   20.0405 N   0  0  0  0  0  0
  -30.6159  -25.0285   19.6376 N   0  0  0  0  0  0
  -29.8958  -15.8473   20.6247 N   0  0  0  0  0  0
  -31.4663  -12.5123   19.1716 H   0  0  0  0  0  0
  -30.3267  -11.4446   19.9353 H   0  0  0  0  0  0
  -29.7840  -11.7477   17.4984 H   0  0  0  0  0  0
  -29.6277  -13.4696   17.7327 H   0  0  0  0  0  0
  -27.9049  -11.2736   18.9214 H   0  0  0  0  0  0
  -27.3666  -12.5062   17.8130 H   0  0  0  0  0  0
  -27.6345  -14.2498   19.4588 H   0  0  0  0  0  0
  -28.6962  -12.1928   21.4542 H   0  0  0  0  0  0
  -28.4262  -13.8950   21.7721 H   0  0  0  0  0  0
  -25.2764   -9.5665   22.4758 H   0  0  0  0  0  0
  -23.9977   -7.4656   22.7503 H   0  0  0  0  0  0
  -21.0830   -8.8842   19.8994 H   0  0  0  0  0  0
  -22.3726  -10.9706   19.6202 H   0  0  0  0  0  0
  -21.2044   -7.6156   23.9700 H   0  0  0  0  0  0
  -21.1487   -6.0553   25.9079 H   0  0  0  0  0  0
  -22.0572   -2.7603   23.2853 H   0  0  0  0  0  0
  -22.4134  -11.9944   22.4795 H   0  0  0  0  0  0
  -21.1149  -13.1345   22.2645 H   0  0  0  0  0  0
  -24.6406  -15.8298   20.5348 H   0  0  0  0  0  0
  -26.2630  -15.6454   20.0889 H   0  0  0  0  0  0
  -26.7163  -32.5520   23.1084 H   0  0  0  0  0  0
  -25.0221  -33.9821   25.0552 H   0  0  0  0  0  0
  -22.7305  -31.3049   21.3901 H   0  0  0  0  0  0
  -23.3779  -35.9564   23.3293 H   0  0  0  0  0  0
  -24.3603  -36.8884   22.2070 H   0  0  0  0  0  0
  -23.7180  -37.6453   23.6666 H   0  0  0  0  0  0
  -26.0919  -31.5317   20.6012 H   0  0  0  0  0  0
  -26.8647  -30.8459   21.9933 H   0  0  0  0  0  0
  -28.1367  -28.9480   21.1990 H   0  0  0  0  0  0
  -26.0221  -25.9285   18.9700 H   0  0  0  0  0  0
  -24.0044  -27.3155   18.9800 H   0  0  0  0  0  0
  -23.8198  -30.6104   19.4161 H   0  0  0  0  0  0
  -22.7766  -29.2750   19.8151 H   0  0  0  0  0  0
  -25.1250  -36.1940   25.0850 H   0  0  0  0  0  0
  -21.0044  -28.3268   24.1399 H   0  0  0  0  0  0
  -20.5656  -26.2310   23.3619 H   0  0  0  0  0  0
  -21.6640  -26.7418   22.1216 H   0  0  0  0  0  0
  -19.6885  -25.6300   21.1249 H   0  0  0  0  0  0
  -19.6664  -27.3219   20.6780 H   0  0  0  0  0  0
  -17.4190  -26.6732   21.4040 H   0  0  0  0  0  0
  -18.0288  -26.0059   22.9009 H   0  0  0  0  0  0
  -19.7941  -30.7220   24.2393 H   0  0  0  0  0  0
  -17.5028  -31.6306   24.5098 H   0  0  0  0  0  0
  -15.5366  -30.2994   23.7641 H   0  0  0  0  0  0
  -15.8689  -28.0839   22.7047 H   0  0  0  0  0  0
  -24.5914  -30.7195   25.7780 H   0  0  0  0  0  0
  -24.9082  -32.2959   26.4920 H   0  0  0  0  0  0
  -25.8121  -30.8895   27.0164 H   0  0  0  0  0  0
  -26.2981  -29.6779   24.1152 H   0  0  0  0  0  0
  -27.4222  -29.7352   25.4588 H   0  0  0  0  0  0
  -27.8808  -30.4461   23.9281 H   0  0  0  0  0  0
  -27.2729  -33.3632   26.2132 H   0  0  0  0  0  0
  -28.3919  -32.6924   25.0325 H   0  0  0  0  0  0
  -28.0766  -31.8402   26.5368 H   0  0  0  0  0  0
  -28.2571  -38.0100   24.7544 H   0  0  0  0  0  0
  -28.1077  -36.2626   24.6231 H   0  0  0  0  0  0
  -27.2325  -37.1349   25.8896 H   0  0  0  0  0  0
  -20.9329  -29.8821   21.6913 H   0  0  0  0  0  0
  -26.0131  -38.2844   24.1510 H   0  0  0  0  0  0
  -35.6460  -22.5912   20.1707 H   0  0  0  0  0  0
  -34.3816  -22.5562   21.3982 H   0  0  0  0  0  0
  -34.7884  -24.0666   20.5870 H   0  0  0  0  0  0
  -33.1872  -26.3826   16.7303 H   0  0  0  0  0  0
  -31.4730  -26.3920   17.1641 H   0  0  0  0  0  0
  -32.2546  -24.8843   16.7366 H   0  0  0  0  0  0
  -33.9997  -23.0210   18.3745 H   0  0  0  0  0  0
  -33.5544  -21.5937   19.2562 H   0  0  0  0  0  0
  -33.8255  -25.2558   18.7784 H   0  0  0  0  0  0
  -32.7678  -26.5445   19.2687 H   0  0  0  0  0  0
  -28.2649  -21.4418   20.0026 H   0  0  0  0  0  0
  -28.8976  -21.4836   21.6277 H   0  0  0  0  0  0
  -27.5773  -24.5507   19.5615 H   0  0  0  0  0  0
  -27.9441  -24.7191   21.2689 H   0  0  0  0  0  0
  -30.8752  -20.0116   20.9090 H   0  0  0  0  0  0
  -30.2730  -20.0034   19.2838 H   0  0  0  0  0  0
  -28.4602  -18.4057   19.9919 H   0  0  0  0  0  0
  -29.0252  -18.4703   21.6384 H   0  0  0  0  0  0
  -31.2805  -17.4400   20.8421 H   0  0  0  0  0  0
  -30.6057  -17.2945   19.2661 H   0  0  0  0  0  0
  -28.9293  -15.7103   20.8804 H   0  0  0  0  0  0
  1 25  1  0  0  0
  1 30  2  0  0  0
  1 86  1  0  0  0
  2  3  1  0  0  0
  2 25  1  0  0  0
  2 87  1  0  0  0
  2 88  1  0  0  0
  3  4  1  0  0  0
  3 89  1  0  0  0
  3 90  1  0  0  0
  4  5  1  0  0  0
  4 91  1  0  0  0
  4 92  1  0  0  0
  5  6  1  0  0  0
  5 26  1  0  0  0
  5 93  1  0  0  0
  6 25  1  0  0  0
  6 94  1  0  0  0
  6 95  1  0  0  0
  7  8  2  0  0  0
  7 26  1  0  0  0
  7 29  1  0  0  0
  8  9  1  0  0  0
  8 22  1  0  0  0
  9 10  1  0  0  0
  9 27  2  0  0  0
 10 11  2  0  0  0
 10 15  1  0  0  0
 11 12  1  0  0  0
 11 96  1  0  0  0
 12 13  2  0  0  0
 12 97  1  0  0  0
 13 14  1  0  0  0
 13 31  1  0  0  0
 14 15  2  0  0  0
 14 98  1  0  0  0
 15 99  1  0  0  0
 16 17  2  0  0  0
 16 21  1  0  0  0
 16 31  1  0  0  0
 17 18  1  0  0  0
 17100  1  0  0  0
 18 19  2  0  0  0
 18101  1  0  0  0
 19 20  1  0  0  0
 19 24  1  0  0  0
 20 21  2  0  0  0
 20102  1  0  0  0
 21 23  1  0  0  0
 22 28  1  0  0  0
 22 32  2  0  0  0
 26 27  1  0  0  0
 28103  1  0  0  0
 28104  1  0  0  0
 29105  1  0  0  0
 29106  1  0  0  0
 33 34  1  0  0  0
 33 66  1  0  0  0
 33 70  2  0  0  0
 34 36  1  0  0  0
 34 59  1  0  0  0
 34107  1  0  0  0
 35 44  2  0  0  0
 35 45  1  0  0  0
 35 68  1  0  0  0
 36 56  1  0  0  0
 36108  1  0  0  0
 37 39  1  0  0  0
 37 47  1  0  0  0
 37 66  1  0  0  0
 37109  1  0  0  0
 38 43  2  0  0  0
 38 46  1  0  0  0
 38 47  1  0  0  0
 39 64  1  0  0  0
 39 67  2  0  0  0
 40 52  1  0  0  0
 40 53  2  0  0  0
 40 58  1  0  0  0
 41110  1  0  0  0
 41111  1  0  0  0
 41112  1  0  0  0
 41 48  1  0  0  0
 42 43  1  0  0  0
 42 66  1  0  0  0
 42113  1  0  0  0
 42114  1  0  0  0
 43 44  1  0  0  0
 44115  1  0  0  0
 45 46  2  0  0  0
 45116  1  0  0  0
 46117  1  0  0  0
 47118  1  0  0  0
 47119  1  0  0  0
 48 56  1  0  0  0
 48 65  1  0  0  0
 48120  1  0  0  0
 49 50  1  0  0  0
 49 53  1  0  0  0
 49 64  1  0  0  0
 49121  1  0  0  0
 50 51  1  0  0  0
 50122  1  0  0  0
 50123  1  0  0  0
 51 52  1  0  0  0
 51124  1  0  0  0
 51125  1  0  0  0
 52126  1  0  0  0
 52127  1  0  0  0
 53 54  1  0  0  0
 54 55  2  0  0  0
 54128  1  0  0  0
 55 57  1  0  0  0
 55129  1  0  0  0
 56 69  2  0  0  0
 57 58  2  0  0  0
 57130  1  0  0  0
 58131  1  0  0  0
 59 60  1  0  0  0
 59 61  1  0  0  0
 59 62  1  0  0  0
 60132  1  0  0  0
 60133  1  0  0  0
 60134  1  0  0  0
 61135  1  0  0  0
 61136  1  0  0  0
 61137  1  0  0  0
 62138  1  0  0  0
 62139  1  0  0  0
 62140  1  0  0  0
 63 65  1  0  0  0
 63141  1  0  0  0
 63142  1  0  0  0
 63143  1  0  0  0
 64144  1  0  0  0
 65145  1  0  0  0
 68 80  1  0  0  0
 71 72  2  0  0  0
 71 77  1  0  0  0
 71 84  1  0  0  0
 72 78  1  0  0  0
 72 85  1  0  0  0
 73 74  1  0  0  0
 73 79  1  0  0  0
 73 84  2  0  0  0
 74 80  1  0  0  0
 74 85  2  0  0  0
 75 77  1  0  0  0
 75146  1  0  0  0
 75147  1  0  0  0
 75148  1  0  0  0
 76 78  1  0  0  0
 76149  1  0  0  0
 76150  1  0  0  0
 76151  1  0  0  0
 77152  1  0  0  0
 77153  1  0  0  0
 78154  1  0  0  0
 78155  1  0  0  0
 79 81  1  0  0  0
 79156  1  0  0  0
 79157  1  0  0  0
 80158  1  0  0  0
 80159  1  0  0  0
 81 82  1  0  0  0
 81160  1  0  0  0
 81161  1  0  0  0
 82 83  1  0  0  0
 82162  1  0  0  0
 82163  1  0  0  0
 83 86  1  0  0  0
 83164  1  0  0  0
 83165  1  0  0  0
 86166  1  0  0  0
M  ISO  4   1 100  68 101  80 101  86 100
M  END
> <chiral flag>
0

> <version>
0

> <s_m_source_file>
/data/baiqing/PycharmProjects/Reinvent-master-3.2/result/LINK_invent/BTK/process_docking_weight1_custom_sum_contain_oxygen_bond_distance_aromatic_linkinvent_7_9_3/rearranged_h_0049.sdf

> <i_m_source_file_index>
21

> <r_mmod_Potential_Energy-OPLS-2005>
214.126892089844

> <r_mmod_Stretch_Energy-OPLS-2005>
128.948135375977

> <r_mmod_Bend_Energy-OPLS-2005>
193.147735595703

> <r_mmod_Torsional_Energy-OPLS-2005>
205.884872436523

> <r_mmod_Improper_Torsional_Energy-OPLS-2005>
5.59560680389404

> <r_mmod_Van_der_Waal_Energy-OPLS-2005>
145.863418579102

> <r_mmod_Electrostatic_Energy-OPLS-2005>
-307.662200927734

> <r_mmod_Solvation_Energy-OPLS-2005>
-225.243469238281

> <b_mmod_Minimization_Converged-OPLS-2005>
0

> <r_mmod_RMS_Derivative-OPLS-2005>
6.68439435958862

$$$$
22
                    3D
 Structure written by MMmdl.
186194  0  0  1  0            999 V2000
  -30.7181  -14.4425   20.5265 C   0  0  0  0  0  0
  -30.4149  -12.2673   19.4318 C   0  0  0  0  0  0
  -29.5007  -12.4647   18.2063 C   0  0  0  0  0  0
  -28.0137  -12.3689   18.6058 C   0  0  0  0  0  0
  -27.6596  -13.2095   19.8648 C   0  0  2  0  0  0
  -28.7017  -13.0102   20.9888 C   0  0  0  0  0  0
  -25.2608  -13.8187   20.5678 C   0  0  0  0  0  0
  -24.1865  -13.0453   20.9167 C   0  0  0  0  0  0
  -24.6421  -11.6927   20.8724 C   0  0  0  0  0  0
  -23.9079  -10.4315   21.0386 C   0  0  0  0  0  0
  -24.3636   -9.4228   21.9161 C   0  0  0  0  0  0
  -23.6314   -8.2263   22.0743 C   0  0  0  0  0  0
  -22.4297   -8.0289   21.3541 C   0  0  0  0  0  0
  -21.9922   -9.0253   20.4645 C   0  0  0  0  0  0
  -22.7249  -10.2134   20.3036 C   0  0  0  0  0  0
  -21.6863   -6.0732   22.5284 C   0  0  0  0  0  0
  -21.4017   -6.5636   23.8216 C   0  0  0  0  0  0
  -21.3666   -5.6790   24.9181 C   0  0  0  0  0  0
  -21.6047   -4.3052   24.7224 C   0  0  0  0  0  0
  -21.8825   -3.8141   23.4349 C   0  0  0  0  0  0
  -21.9202   -4.6957   22.3405 C   0  0  0  0  0  0
  -22.7890  -13.5247   21.1827 C   0  0  0  0  0  0
  -22.1670   -4.2149   21.0974 F   0  0  0  0  0  0
  -21.5630   -3.4532   25.7730 F   0  0  0  0  0  0
  -30.0322  -13.2761   20.4258 N   0  0  0  0  0  0
  -26.3037  -12.9353   20.3332 N   0  0  0  0  0  0
  -25.9350  -11.6513   20.5760 N   0  0  0  0  0  0
  -22.0524  -12.8244   22.0385 N   0  0  0  0  0  0
  -25.4341  -15.1916   20.4105 N   0  0  0  0  0  0
  -31.8987  -14.5568   20.1820 O   0  0  0  0  0  0
  -21.6666   -6.8883   21.4247 O   0  0  0  0  0  0
  -22.3557  -14.5537   20.6665 O   0  0  0  0  0  0
  -24.6141  -31.8706   23.2130 C   0  0  0  0  0  0
  -25.9038  -32.4823   23.8440 C   0  0  1  0  0  0
  -27.2294  -27.4621   20.0718 C   0  0  0  0  0  0
  -25.5906  -33.8632   24.2363 N   0  0  0  0  0  0
  -23.3978  -30.4986   21.5517 C   0  0  2  0  0  0
  -24.8385  -28.9683   20.1100 C   0  0  0  0  0  0
  -22.7394  -29.4702   22.5005 C   0  0  0  0  0  0
  -18.0276  -28.1366   22.8492 C   0  0  0  0  0  0
  -24.1490  -36.7321   23.2649 C   0  0  0  0  0  0
  -25.9292  -30.8399   21.3678 C   0  0  0  0  0  0
  -25.9999  -29.4809   20.7029 C   0  0  0  0  0  0
  -27.1968  -28.7362   20.6762 C   0  0  0  0  0  0
  -26.0488  -26.9596   19.4750 C   0  0  0  0  0  0
  -24.8556  -27.7059   19.4947 C   0  0  0  0  0  0
  -23.6011  -29.8342   20.1642 C   0  0  0  0  0  0
  -25.4105  -36.3130   24.0350 C   0  0  1  0  0  0
  -20.5856  -28.3636   23.1331 C   0  0  2  0  0  0
  -20.6754  -26.9381   22.5393 C   0  0  0  0  0  0
  -19.5729  -26.6379   21.5192 C   0  0  0  0  0  0
  -18.1919  -26.7917   22.1611 C   0  0  0  0  0  0
  -19.1516  -28.8816   23.2915 C   0  0  0  0  0  0
  -18.9456  -30.1440   23.8903 C   0  0  0  0  0  0
  -17.6444  -30.6570   24.0564 C   0  0  0  0  0  0
  -25.9008  -34.9490   23.5144 C   0  0  0  0  0  0
  -16.5338  -29.9070   23.6329 C   0  0  0  0  0  0
  -16.7259  -28.6489   23.0350 C   0  0  0  0  0  0
  -26.4457  -31.6622   25.0785 C   0  0  0  0  0  0
  -25.3746  -31.3727   26.1556 C   0  0  0  0  0  0
  -27.0311  -30.3072   24.6184 C   0  0  0  0  0  0
  -27.6035  -32.4374   25.7527 C   0  0  0  0  0  0
  -27.5581  -37.1824   24.8465 C   0  0  0  0  0  0
  -21.4116  -29.3023   22.3754 N   0  0  0  0  0  0
  -26.4299  -37.3811   23.9409 N   0  0  0  0  0  0
  -24.6643  -31.0861   22.1001 N   0  0  0  0  0  0
  -23.4203  -28.8231   23.2993 O   0  0  0  0  0  0
  -28.4132  -26.7573   20.0865 O   0  0  0  0  0  0
  -26.5576  -34.8929   22.4712 O   0  0  0  0  0  0
  -23.5333  -32.1466   23.7525 O   0  0  0  0  0  0
  -29.5679  -19.7010   24.3997 C   0  0  0  0  0  0
  -30.6901  -20.3500   23.9357 C   0  0  0  0  0  0
  -30.5768  -18.3474   23.0445 C   0  0  0  0  0  0
  -31.1838  -21.7394   24.1947 C   0  0  0  0  0  0
  -27.8285  -19.2309   17.7105 C   0  0  0  0  0  0
  -32.5519  -19.7468   22.3317 C   0  0  0  0  0  0
  -25.5108  -22.8961   22.7636 C   0  0  0  0  0  0
  -28.4473  -20.2228   25.2606 C   0  0  0  0  0  0
  -30.9148  -17.1517   22.1967 C   0  0  0  0  0  0
  -28.8229  -18.0698   17.7873 C   0  0  0  0  0  0
  -27.7514  -21.4853   24.7018 C   0  0  0  0  0  0
  -28.9196  -17.4824   19.2016 C   0  0  0  0  0  0
  -27.6579  -24.8155   21.3779 C   0  0  0  0  0  0
  -29.6978  -16.2943   21.7795 C   0  0  0  0  0  0
  -29.9174  -16.3129   19.2690 C   0  0  0  0  0  0
  -27.4991  -21.4898   23.1779 C   0  0  0  0  0  0
  -27.5883  -23.2803   21.4473 C   0  0  0  0  0  0
  -28.3427  -25.3291   20.0935 C   0  0  0  0  0  0
  -29.5246  -18.4222   23.8554 N   0  0  0  0  0  0
  -31.3317  -19.4661   23.0718 N   0  0  0  0  0  0
  -29.9363  -15.5431   20.5334 N   0  0  0  0  0  0
  -26.9942  -22.8131   22.7313 N   0  3  1  0  0  0
  -31.4662  -12.3353   19.1452 H   0  0  0  0  0  0
  -30.2853  -11.2670   19.8475 H   0  0  0  0  0  0
  -29.7263  -11.7146   17.4477 H   0  0  0  0  0  0
  -29.7068  -13.4282   17.7429 H   0  0  0  0  0  0
  -27.7890  -11.3177   18.7860 H   0  0  0  0  0  0
  -27.3839  -12.6692   17.7681 H   0  0  0  0  0  0
  -27.6943  -14.2547   19.5591 H   0  0  0  0  0  0
  -28.6655  -11.9908   21.3741 H   0  0  0  0  0  0
  -28.4874  -13.6619   21.8345 H   0  0  0  0  0  0
  -25.2781   -9.5720   22.4722 H   0  0  0  0  0  0
  -24.0038   -7.4661   22.7459 H   0  0  0  0  0  0
  -21.0843   -8.8778   19.8961 H   0  0  0  0  0  0
  -22.3706  -10.9663   19.6146 H   0  0  0  0  0  0
  -21.2013   -7.6142   23.9728 H   0  0  0  0  0  0
  -21.1479   -6.0510   25.9090 H   0  0  0  0  0  0
  -22.0600   -2.7597   23.2850 H   0  0  0  0  0  0
  -22.4138  -11.9918   22.4801 H   0  0  0  0  0  0
  -21.1134  -13.1260   22.2561 H   0  0  0  0  0  0
  -24.6727  -15.8518   20.5205 H   0  0  0  0  0  0
  -26.2994  -15.6252   20.1122 H   0  0  0  0  0  0
  -26.7124  -32.5504   23.1220 H   0  0  0  0  0  0
  -25.0133  -33.9822   25.0558 H   0  0  0  0  0  0
  -22.6841  -31.3133   21.4157 H   0  0  0  0  0  0
  -23.3756  -35.9646   23.3318 H   0  0  0  0  0  0
  -24.3594  -36.8903   22.2055 H   0  0  0  0  0  0
  -23.7207  -37.6527   23.6630 H   0  0  0  0  0  0
  -26.0663  -31.6136   20.6099 H   0  0  0  0  0  0
  -26.8108  -30.8703   21.9959 H   0  0  0  0  0  0
  -28.0960  -29.1317   21.1277 H   0  0  0  0  0  0
  -26.0245  -25.9989   18.9835 H   0  0  0  0  0  0
  -23.9611  -27.3083   19.0358 H   0  0  0  0  0  0
  -23.7071  -30.6118   19.4076 H   0  0  0  0  0  0
  -22.7238  -29.2551   19.8676 H   0  0  0  0  0  0
  -25.1274  -36.2019   25.0836 H   0  0  0  0  0  0
  -20.9972  -28.3186   24.1441 H   0  0  0  0  0  0
  -20.5648  -26.2243   23.3568 H   0  0  0  0  0  0
  -21.6641  -26.7408   22.1193 H   0  0  0  0  0  0
  -19.6875  -25.6298   21.1209 H   0  0  0  0  0  0
  -19.6682  -27.3213   20.6742 H   0  0  0  0  0  0
  -17.4188  -26.6696   21.4013 H   0  0  0  0  0  0
  -18.0310  -26.0044   22.8988 H   0  0  0  0  0  0
  -19.7934  -30.7269   24.2275 H   0  0  0  0  0  0
  -17.4998  -31.6247   24.5182 H   0  0  0  0  0  0
  -15.5353  -30.2968   23.7643 H   0  0  0  0  0  0
  -15.8661  -28.0803   22.7061 H   0  0  0  0  0  0
  -24.5884  -30.7094   25.7926 H   0  0  0  0  0  0
  -24.8994  -32.2887   26.5079 H   0  0  0  0  0  0
  -25.8144  -30.8863   27.0274 H   0  0  0  0  0  0
  -26.2875  -29.6823   24.1224 H   0  0  0  0  0  0
  -27.4067  -29.7308   25.4649 H   0  0  0  0  0  0
  -27.8714  -30.4411   23.9369 H   0  0  0  0  0  0
  -27.2636  -33.3651   26.2156 H   0  0  0  0  0  0
  -28.3817  -32.6992   25.0335 H   0  0  0  0  0  0
  -28.0751  -31.8492   26.5404 H   0  0  0  0  0  0
  -28.2631  -38.0106   24.7525 H   0  0  0  0  0  0
  -28.1062  -36.2641   24.6285 H   0  0  0  0  0  0
  -27.2316  -37.1460   25.8879 H   0  0  0  0  0  0
  -20.9263  -29.8798   21.7041 H   0  0  0  0  0  0
  -26.0197  -38.2901   24.1385 H   0  0  0  0  0  0
  -31.0719  -22.3640   23.3085 H   0  0  0  0  0  0
  -32.2367  -21.7419   24.4745 H   0  0  0  0  0  0
  -30.6397  -22.2096   25.0123 H   0  0  0  0  0  0
  -27.6845  -19.5553   16.6790 H   0  0  0  0  0  0
  -28.1822  -20.0914   18.2807 H   0  0  0  0  0  0
  -26.8530  -18.9430   18.1032 H   0  0  0  0  0  0
  -32.3160  -20.3585   21.4601 H   0  0  0  0  0  0
  -33.0389  -18.8303   22.0029 H   0  0  0  0  0  0
  -33.2580  -20.2810   22.9672 H   0  0  0  0  0  0
  -25.1232  -22.6078   23.7419 H   0  0  0  0  0  0
  -25.0578  -22.2361   22.0217 H   0  0  0  0  0  0
  -25.1591  -23.9097   22.5718 H   0  0  0  0  0  0
  -28.8163  -20.4328   26.2659 H   0  0  0  0  0  0
  -27.6899  -19.4472   25.3865 H   0  0  0  0  0  0
  -31.6513  -16.5414   22.7184 H   0  0  0  0  0  0
  -31.4020  -17.5160   21.2946 H   0  0  0  0  0  0
  -29.8058  -18.4045   17.4500 H   0  0  0  0  0  0
  -28.5087  -17.2889   17.0947 H   0  0  0  0  0  0
  -28.3757  -22.3463   24.9393 H   0  0  0  0  0  0
  -26.8203  -21.6496   25.2466 H   0  0  0  0  0  0
  -27.9323  -17.1452   19.5189 H   0  0  0  0  0  0
  -29.2233  -18.2740   19.8885 H   0  0  0  0  0  0
  -28.2015  -25.2063   22.2402 H   0  0  0  0  0  0
  -26.6491  -25.2205   21.4497 H   0  0  0  0  0  0
  -28.8127  -16.9182   21.6695 H   0  0  0  0  0  0
  -29.4443  -15.6139   22.5922 H   0  0  0  0  0  0
  -30.9212  -16.6849   19.0516 H   0  0  0  0  0  0
  -29.6791  -15.6203   18.4581 H   0  0  0  0  0  0
  -26.8131  -20.6940   22.8851 H   0  0  0  0  0  0
  -28.4359  -21.2702   22.6654 H   0  0  0  0  0  0
  -28.6097  -22.9110   21.3398 H   0  0  0  0  0  0
  -27.0306  -22.8747   20.6011 H   0  0  0  0  0  0
  -27.8685  -24.9429   19.1910 H   0  0  0  0  0  0
  -29.3670  -24.9549   20.0602 H   0  0  0  0  0  0
  -27.3324  -23.4607   23.4262 H   0  0  0  0  0  0
  1 25  1  0  0  0
  1 30  2  0  0  0
  1 91  1  0  0  0
  2  3  1  0  0  0
  2 25  1  0  0  0
  2 93  1  0  0  0
  2 94  1  0  0  0
  3  4  1  0  0  0
  3 95  1  0  0  0
  3 96  1  0  0  0
  4  5  1  0  0  0
  4 97  1  0  0  0
  4 98  1  0  0  0
  5  6  1  0  0  0
  5 26  1  0  0  0
  5 99  1  0  0  0
  6 25  1  0  0  0
  6100  1  0  0  0
  6101  1  0  0  0
  7  8  2  0  0  0
  7 26  1  0  0  0
  7 29  1  0  0  0
  8  9  1  0  0  0
  8 22  1  0  0  0
  9 10  1  0  0  0
  9 27  2  0  0  0
 10 11  2  0  0  0
 10 15  1  0  0  0
 11 12  1  0  0  0
 11102  1  0  0  0
 12 13  2  0  0  0
 12103  1  0  0  0
 13 14  1  0  0  0
 13 31  1  0  0  0
 14 15  2  0  0  0
 14104  1  0  0  0
 15105  1  0  0  0
 16 17  2  0  0  0
 16 21  1  0  0  0
 16 31  1  0  0  0
 17 18  1  0  0  0
 17106  1  0  0  0
 18 19  2  0  0  0
 18107  1  0  0  0
 19 20  1  0  0  0
 19 24  1  0  0  0
 20 21  2  0  0  0
 20108  1  0  0  0
 21 23  1  0  0  0
 22 28  1  0  0  0
 22 32  2  0  0  0
 26 27  1  0  0  0
 28109  1  0  0  0
 28110  1  0  0  0
 29111  1  0  0  0
 29112  1  0  0  0
 33 34  1  0  0  0
 33 66  1  0  0  0
 33 70  2  0  0  0
 34 36  1  0  0  0
 34 59  1  0  0  0
 34113  1  0  0  0
 35 44  2  0  0  0
 35 45  1  0  0  0
 35 68  1  0  0  0
 36 56  1  0  0  0
 36114  1  0  0  0
 37 39  1  0  0  0
 37 47  1  0  0  0
 37 66  1  0  0  0
 37115  1  0  0  0
 38 43  2  0  0  0
 38 46  1  0  0  0
 38 47  1  0  0  0
 39 64  1  0  0  0
 39 67  2  0  0  0
 40 52  1  0  0  0
 40 53  2  0  0  0
 40 58  1  0  0  0
 41116  1  0  0  0
 41117  1  0  0  0
 41118  1  0  0  0
 41 48  1  0  0  0
 42 43  1  0  0  0
 42 66  1  0  0  0
 42119  1  0  0  0
 42120  1  0  0  0
 43 44  1  0  0  0
 44121  1  0  0  0
 45 46  2  0  0  0
 45122  1  0  0  0
 46123  1  0  0  0
 47124  1  0  0  0
 47125  1  0  0  0
 48 56  1  0  0  0
 48 65  1  0  0  0
 48126  1  0  0  0
 49 50  1  0  0  0
 49 53  1  0  0  0
 49 64  1  0  0  0
 49127  1  0  0  0
 50 51  1  0  0  0
 50128  1  0  0  0
 50129  1  0  0  0
 51 52  1  0  0  0
 51130  1  0  0  0
 51131  1  0  0  0
 52132  1  0  0  0
 52133  1  0  0  0
 53 54  1  0  0  0
 54 55  2  0  0  0
 54134  1  0  0  0
 55 57  1  0  0  0
 55135  1  0  0  0
 56 69  2  0  0  0
 57 58  2  0  0  0
 57136  1  0  0  0
 58137  1  0  0  0
 59 60  1  0  0  0
 59 61  1  0  0  0
 59 62  1  0  0  0
 60138  1  0  0  0
 60139  1  0  0  0
 60140  1  0  0  0
 61141  1  0  0  0
 61142  1  0  0  0
 61143  1  0  0  0
 62144  1  0  0  0
 62145  1  0  0  0
 62146  1  0  0  0
 63 65  1  0  0  0
 63147  1  0  0  0
 63148  1  0  0  0
 63149  1  0  0  0
 64150  1  0  0  0
 65151  1  0  0  0
 68 88  1  0  0  0
 71 72  2  0  0  0
 71 78  1  0  0  0
 71 89  1  0  0  0
 72 74  1  0  0  0
 72 90  1  0  0  0
 73 79  1  0  0  0
 73 89  2  0  0  0
 73 90  1  0  0  0
 74152  1  0  0  0
 74153  1  0  0  0
 74154  1  0  0  0
 75 80  1  0  0  0
 75155  1  0  0  0
 75156  1  0  0  0
 75157  1  0  0  0
 76 90  1  0  0  0
 76158  1  0  0  0
 76159  1  0  0  0
 76160  1  0  0  0
 77161  1  0  0  0
 77162  1  0  0  0
 77163  1  0  0  0
 77 92  1  0  0  0
 78 81  1  0  0  0
 78164  1  0  0  0
 78165  1  0  0  0
 79 84  1  0  0  0
 79166  1  0  0  0
 79167  1  0  0  0
 80 82  1  0  0  0
 80168  1  0  0  0
 80169  1  0  0  0
 81 86  1  0  0  0
 81170  1  0  0  0
 81171  1  0  0  0
 82 85  1  0  0  0
 82172  1  0  0  0
 82173  1  0  0  0
 83 87  1  0  0  0
 83 88  1  0  0  0
 83174  1  0  0  0
 83175  1  0  0  0
 84 91  1  0  0  0
 84176  1  0  0  0
 84177  1  0  0  0
 85 91  1  0  0  0
 85178  1  0  0  0
 85179  1  0  0  0
 86 92  1  0  0  0
 86180  1  0  0  0
 86181  1  0  0  0
 87 92  1  0  0  0
 87182  1  0  0  0
 87183  1  0  0  0
 88184  1  0  0  0
 88185  1  0  0  0
 92186  1  0  0  0
M  CHG  1  92   1
M  ISO  4   1 100  68 101  88 101  91 100
M  END
> <chiral flag>
0

> <version>
0

> <s_m_source_file>
/data/baiqing/PycharmProjects/Reinvent-master-3.2/result/LINK_invent/BTK/process_docking_weight1_custom_sum_contain_oxygen_bond_distance_aromatic_linkinvent_7_9_3/rearranged_h_0049.sdf

> <i_m_source_file_index>
22

> <r_mmod_Potential_Energy-OPLS-2005>
-26.7810230255127

> <r_mmod_Stretch_Energy-OPLS-2005>
35.8916130065918

> <r_mmod_Bend_Energy-OPLS-2005>
110.891105651855

> <r_mmod_Torsional_Energy-OPLS-2005>
325.590972900391

> <r_mmod_Improper_Torsional_Energy-OPLS-2005>
17.4570064544678

> <r_mmod_Van_der_Waal_Energy-OPLS-2005>
130.336700439453

> <r_mmod_Electrostatic_Energy-OPLS-2005>
-242.063552856445

> <r_mmod_Solvation_Energy-OPLS-2005>
-421.504150390625

> <b_mmod_Minimization_Converged-OPLS-2005>
0

> <r_mmod_RMS_Derivative-OPLS-2005>
3.73359537124634

$$$$
23
                    3D
 Structure written by MMmdl.
166174  0  0  1  0            999 V2000
  -30.7538  -14.4122   20.6715 C   0  0  0  0  0  0
  -30.4204  -12.3126   19.4123 C   0  0  0  0  0  0
  -29.4944  -12.5367   18.2024 C   0  0  0  0  0  0
  -28.0181  -12.3804   18.6131 C   0  0  0  0  0  0
  -27.6639  -13.2084   19.8774 C   0  0  2  0  0  0
  -28.7002  -12.9739   20.9988 C   0  0  0  0  0  0
  -25.2583  -13.8165   20.5654 C   0  0  0  0  0  0
  -24.1831  -13.0443   20.9145 C   0  0  0  0  0  0
  -24.6385  -11.6911   20.8698 C   0  0  0  0  0  0
  -23.9059  -10.4296   21.0379 C   0  0  0  0  0  0
  -24.3612   -9.4218   21.9165 C   0  0  0  0  0  0
  -23.6281   -8.2260   22.0757 C   0  0  0  0  0  0
  -22.4259   -8.0294   21.3557 C   0  0  0  0  0  0
  -21.9885   -9.0262   20.4657 C   0  0  0  0  0  0
  -22.7218  -10.2139   20.3047 C   0  0  0  0  0  0
  -21.6854   -6.0743   22.5275 C   0  0  0  0  0  0
  -21.4022   -6.5641   23.8212 C   0  0  0  0  0  0
  -21.3666   -5.6794   24.9169 C   0  0  0  0  0  0
  -21.6042   -4.3054   24.7215 C   0  0  0  0  0  0
  -21.8820   -3.8153   23.4335 C   0  0  0  0  0  0
  -21.9190   -4.6964   22.3389 C   0  0  0  0  0  0
  -22.7848  -13.5247   21.1807 C   0  0  0  0  0  0
  -22.1656   -4.2162   21.0968 F   0  0  0  0  0  0
  -21.5623   -3.4538   25.7723 F   0  0  0  0  0  0
  -30.0401  -13.2743   20.4604 N   0  0  0  0  0  0
  -26.3032  -12.9343   20.3354 N   0  0  0  0  0  0
  -25.9320  -11.6496   20.5734 N   0  0  0  0  0  0
  -22.0485  -12.8268   22.0375 N   0  0  0  0  0  0
  -25.4320  -15.1880   20.4076 N   0  0  0  0  0  0
  -31.8043  -14.6696   20.0766 O   0  0  0  0  0  0
  -21.6640   -6.8883   21.4239 O   0  0  0  0  0  0
  -22.3541  -14.5559   20.6665 O   0  0  0  0  0  0
  -24.6124  -31.8691   23.2124 C   0  0  0  0  0  0
  -25.9025  -32.4835   23.8404 C   0  0  1  0  0  0
  -27.2551  -27.4566   20.0948 C   0  0  0  0  0  0
  -25.5893  -33.8635   24.2340 N   0  0  0  0  0  0
  -23.4015  -30.4905   21.5514 C   0  0  2  0  0  0
  -24.8565  -28.9573   20.1213 C   0  0  0  0  0  0
  -22.7391  -29.4661   22.5002 C   0  0  0  0  0  0
  -18.0259  -28.1374   22.8489 C   0  0  0  0  0  0
  -24.1487  -36.7316   23.2636 C   0  0  0  0  0  0
  -25.9275  -30.8396   21.3651 C   0  0  0  0  0  0
  -26.0118  -29.4699   20.7262 C   0  0  0  0  0  0
  -27.2135  -28.7244   20.7255 C   0  0  0  0  0  0
  -26.0857  -26.9615   19.4837 C   0  0  0  0  0  0
  -24.8858  -27.6964   19.5020 C   0  0  0  0  0  0
  -23.6133  -29.8184   20.1677 C   0  0  0  0  0  0
  -25.4106  -36.3119   24.0338 C   0  0  1  0  0  0
  -20.5850  -28.3654   23.1320 C   0  0  2  0  0  0
  -20.6755  -26.9388   22.5427 C   0  0  0  0  0  0
  -19.5746  -26.6382   21.5210 C   0  0  0  0  0  0
  -18.1919  -26.7917   22.1609 C   0  0  0  0  0  0
  -19.1512  -28.8825   23.2904 C   0  0  0  0  0  0
  -18.9440  -30.1439   23.8922 C   0  0  0  0  0  0
  -17.6449  -30.6576   24.0566 C   0  0  0  0  0  0
  -25.9030  -34.9482   23.5135 C   0  0  0  0  0  0
  -16.5337  -29.9088   23.6326 C   0  0  0  0  0  0
  -16.7256  -28.6495   23.0351 C   0  0  0  0  0  0
  -26.4486  -31.6603   25.0708 C   0  0  0  0  0  0
  -25.3775  -31.3684   26.1468 C   0  0  0  0  0  0
  -27.0323  -30.3058   24.6051 C   0  0  0  0  0  0
  -27.6080  -32.4315   25.7445 C   0  0  0  0  0  0
  -27.5584  -37.1799   24.8457 C   0  0  0  0  0  0
  -21.4122  -29.3024   22.3726 N   0  0  0  0  0  0
  -26.4291  -37.3800   23.9414 N   0  0  0  0  0  0
  -24.6650  -31.0800   22.1023 N   0  0  0  0  0  0
  -23.4165  -28.8196   23.3036 O   0  0  0  0  0  0
  -28.3763  -26.6621   19.9951 O   0  0  0  0  0  0
  -26.5590  -34.8931   22.4694 O   0  0  0  0  0  0
  -23.5320  -32.1433   23.7527 O   0  0  0  0  0  0
  -30.5921  -24.6008   21.8452 C   0  0  0  0  0  0
  -31.6496  -23.6720   21.6778 C   0  0  0  0  0  0
  -30.4055  -25.6044   20.8678 C   0  0  0  0  0  0
  -32.4510  -23.8383   20.5170 C   0  0  0  0  0  0
  -33.6927  -23.0124   20.2368 C   0  0  0  0  0  0
  -29.7992  -20.7830   22.1571 C   0  0  0  0  0  0
  -31.9558  -22.6841   22.8140 C   0  0  0  0  0  0
  -29.3557  -26.7074   21.0297 C   0  0  0  0  0  0
  -30.6378  -17.7742   21.6117 C   0  0  0  0  0  0
  -30.9750  -16.3808   22.2076 C   0  0  0  0  0  0
  -32.2556  -21.1786   22.5259 C   0  0  0  0  0  0
  -31.3883  -18.8882   22.3923 C   0  0  0  0  0  0
  -31.1855  -25.6641   19.7598 N   0  0  0  0  0  0
  -32.1882  -24.7947   19.5908 N   0  0  0  0  0  0
  -30.2621  -15.2474   21.6027 N   0  0  0  0  0  0
  -31.1863  -20.3027   21.9413 N   0  3  1  0  0  0
  -31.4657  -12.4109   19.1128 H   0  0  0  0  0  0
  -30.3199  -11.2947   19.7888 H   0  0  0  0  0  0
  -29.7388  -11.8393   17.4004 H   0  0  0  0  0  0
  -29.6603  -13.5363   17.7969 H   0  0  0  0  0  0
  -27.8318  -11.3211   18.7974 H   0  0  0  0  0  0
  -27.3689  -12.6676   17.7859 H   0  0  0  0  0  0
  -27.7150  -14.2601   19.5938 H   0  0  0  0  0  0
  -28.6682  -11.9359   21.3327 H   0  0  0  0  0  0
  -28.4419  -13.5641   21.8783 H   0  0  0  0  0  0
  -25.2768   -9.5690   22.4725 H   0  0  0  0  0  0
  -24.0001   -7.4645   22.7465 H   0  0  0  0  0  0
  -21.0823   -8.8775   19.8955 H   0  0  0  0  0  0
  -22.3681  -10.9671   19.6148 H   0  0  0  0  0  0
  -21.2039   -7.6150   23.9716 H   0  0  0  0  0  0
  -21.1479   -6.0523   25.9075 H   0  0  0  0  0  0
  -22.0595   -2.7609   23.2824 H   0  0  0  0  0  0
  -22.4097  -11.9970   22.4835 H   0  0  0  0  0  0
  -21.1097  -13.1319   22.2540 H   0  0  0  0  0  0
  -24.6677  -15.8476   20.5161 H   0  0  0  0  0  0
  -26.2955  -15.6261   20.1116 H   0  0  0  0  0  0
  -26.7095  -32.5581   23.1175 H   0  0  0  0  0  0
  -25.0069  -33.9807   25.0502 H   0  0  0  0  0  0
  -22.6895  -31.3065   21.4100 H   0  0  0  0  0  0
  -23.3748  -35.9649   23.3307 H   0  0  0  0  0  0
  -24.3583  -36.8923   22.2049 H   0  0  0  0  0  0
  -23.7241  -37.6523   23.6647 H   0  0  0  0  0  0
  -26.0292  -31.5986   20.5880 H   0  0  0  0  0  0
  -26.8189  -30.9072   21.9762 H   0  0  0  0  0  0
  -28.0975  -29.1386   21.1892 H   0  0  0  0  0  0
  -26.1087  -25.9988   18.9929 H   0  0  0  0  0  0
  -24.0013  -27.2947   19.0276 H   0  0  0  0  0  0
  -23.7143  -30.5909   19.4046 H   0  0  0  0  0  0
  -22.7411  -29.2306   19.8764 H   0  0  0  0  0  0
  -25.1283  -36.1982   25.0830 H   0  0  0  0  0  0
  -20.9946  -28.3231   24.1445 H   0  0  0  0  0  0
  -20.5644  -26.2264   23.3614 H   0  0  0  0  0  0
  -21.6633  -26.7424   22.1236 H   0  0  0  0  0  0
  -19.6913  -25.6302   21.1230 H   0  0  0  0  0  0
  -19.6702  -27.3202   20.6755 H   0  0  0  0  0  0
  -17.4194  -26.6668   21.4009 H   0  0  0  0  0  0
  -18.0312  -26.0054   22.8993 H   0  0  0  0  0  0
  -19.7924  -30.7238   24.2306 H   0  0  0  0  0  0
  -17.5008  -31.6265   24.5155 H   0  0  0  0  0  0
  -15.5344  -30.2998   23.7643 H   0  0  0  0  0  0
  -15.8646  -28.0828   22.7067 H   0  0  0  0  0  0
  -24.5950  -30.7030   25.7800 H   0  0  0  0  0  0
  -24.8966  -32.2829   26.4947 H   0  0  0  0  0  0
  -25.8152  -30.8830   27.0200 H   0  0  0  0  0  0
  -26.2841  -29.6780   24.1198 H   0  0  0  0  0  0
  -27.4218  -29.7332   25.4479 H   0  0  0  0  0  0
  -27.8621  -30.4399   23.9108 H   0  0  0  0  0  0
  -27.2722  -33.3600   26.2071 H   0  0  0  0  0  0
  -28.3850  -32.6895   25.0237 H   0  0  0  0  0  0
  -28.0795  -31.8408   26.5310 H   0  0  0  0  0  0
  -28.2602  -38.0097   24.7528 H   0  0  0  0  0  0
  -28.1082  -36.2636   24.6253 H   0  0  0  0  0  0
  -27.2309  -37.1412   25.8860 H   0  0  0  0  0  0
  -20.9274  -29.8742   21.6948 H   0  0  0  0  0  0
  -26.0184  -38.2874   24.1443 H   0  0  0  0  0  0
  -29.9665  -24.5846   22.7263 H   0  0  0  0  0  0
  -34.3264  -22.9407   21.1212 H   0  0  0  0  0  0
  -34.2957  -23.4580   19.4448 H   0  0  0  0  0  0
  -33.4160  -22.0121   19.9077 H   0  0  0  0  0  0
  -29.6512  -21.7825   21.7497 H   0  0  0  0  0  0
  -29.5433  -20.8014   23.2165 H   0  0  0  0  0  0
  -29.0778  -20.1468   21.6474 H   0  0  0  0  0  0
  -31.1612  -22.7440   23.5579 H   0  0  0  0  0  0
  -32.8302  -23.0921   23.3233 H   0  0  0  0  0  0
  -29.8717  -27.6684   21.0120 H   0  0  0  0  0  0
  -28.8739  -26.6151   22.0041 H   0  0  0  0  0  0
  -29.5592  -17.9287   21.6577 H   0  0  0  0  0  0
  -30.9191  -17.8047   20.5576 H   0  0  0  0  0  0
  -30.7283  -16.3781   23.2699 H   0  0  0  0  0  0
  -32.0521  -16.2072   22.1612 H   0  0  0  0  0  0
  -32.5222  -20.7652   23.5007 H   0  0  0  0  0  0
  -33.1615  -21.0541   21.9378 H   0  0  0  0  0  0
  -32.4548  -18.6603   22.3330 H   0  0  0  0  0  0
  -31.1282  -18.8226   23.4507 H   0  0  0  0  0  0
  -29.3974  -14.9617   22.0398 H   0  0  0  0  0  0
  -31.3348  -20.3175   20.9425 H   0  0  0  0  0  0
  1 25  1  0  0  0
  1 30  2  0  0  0
  1 85  1  0  0  0
  2  3  1  0  0  0
  2 25  1  0  0  0
  2 87  1  0  0  0
  2 88  1  0  0  0
  3  4  1  0  0  0
  3 89  1  0  0  0
  3 90  1  0  0  0
  4  5  1  0  0  0
  4 91  1  0  0  0
  4 92  1  0  0  0
  5  6  1  0  0  0
  5 26  1  0  0  0
  5 93  1  0  0  0
  6 25  1  0  0  0
  6 94  1  0  0  0
  6 95  1  0  0  0
  7  8  2  0  0  0
  7 26  1  0  0  0
  7 29  1  0  0  0
  8  9  1  0  0  0
  8 22  1  0  0  0
  9 10  1  0  0  0
  9 27  2  0  0  0
 10 11  2  0  0  0
 10 15  1  0  0  0
 11 12  1  0  0  0
 11 96  1  0  0  0
 12 13  2  0  0  0
 12 97  1  0  0  0
 13 14  1  0  0  0
 13 31  1  0  0  0
 14 15  2  0  0  0
 14 98  1  0  0  0
 15 99  1  0  0  0
 16 17  2  0  0  0
 16 21  1  0  0  0
 16 31  1  0  0  0
 17 18  1  0  0  0
 17100  1  0  0  0
 18 19  2  0  0  0
 18101  1  0  0  0
 19 20  1  0  0  0
 19 24  1  0  0  0
 20 21  2  0  0  0
 20102  1  0  0  0
 21 23  1  0  0  0
 22 28  1  0  0  0
 22 32  2  0  0  0
 26 27  1  0  0  0
 28103  1  0  0  0
 28104  1  0  0  0
 29105  1  0  0  0
 29106  1  0  0  0
 33 34  1  0  0  0
 33 66  1  0  0  0
 33 70  2  0  0  0
 34 36  1  0  0  0
 34 59  1  0  0  0
 34107  1  0  0  0
 35 44  2  0  0  0
 35 45  1  0  0  0
 35 68  1  0  0  0
 36 56  1  0  0  0
 36108  1  0  0  0
 37 39  1  0  0  0
 37 47  1  0  0  0
 37 66  1  0  0  0
 37109  1  0  0  0
 38 43  2  0  0  0
 38 46  1  0  0  0
 38 47  1  0  0  0
 39 64  1  0  0  0
 39 67  2  0  0  0
 40 52  1  0  0  0
 40 53  2  0  0  0
 40 58  1  0  0  0
 41110  1  0  0  0
 41111  1  0  0  0
 41112  1  0  0  0
 41 48  1  0  0  0
 42 43  1  0  0  0
 42 66  1  0  0  0
 42113  1  0  0  0
 42114  1  0  0  0
 43 44  1  0  0  0
 44115  1  0  0  0
 45 46  2  0  0  0
 45116  1  0  0  0
 46117  1  0  0  0
 47118  1  0  0  0
 47119  1  0  0  0
 48 56  1  0  0  0
 48 65  1  0  0  0
 48120  1  0  0  0
 49 50  1  0  0  0
 49 53  1  0  0  0
 49 64  1  0  0  0
 49121  1  0  0  0
 50 51  1  0  0  0
 50122  1  0  0  0
 50123  1  0  0  0
 51 52  1  0  0  0
 51124  1  0  0  0
 51125  1  0  0  0
 52126  1  0  0  0
 52127  1  0  0  0
 53 54  1  0  0  0
 54 55  2  0  0  0
 54128  1  0  0  0
 55 57  1  0  0  0
 55129  1  0  0  0
 56 69  2  0  0  0
 57 58  2  0  0  0
 57130  1  0  0  0
 58131  1  0  0  0
 59 60  1  0  0  0
 59 61  1  0  0  0
 59 62  1  0  0  0
 60132  1  0  0  0
 60133  1  0  0  0
 60134  1  0  0  0
 61135  1  0  0  0
 61136  1  0  0  0
 61137  1  0  0  0
 62138  1  0  0  0
 62139  1  0  0  0
 62140  1  0  0  0
 63 65  1  0  0  0
 63141  1  0  0  0
 63142  1  0  0  0
 63143  1  0  0  0
 64144  1  0  0  0
 65145  1  0  0  0
 68 78  1  0  0  0
 71 72  2  0  0  0
 71 73  1  0  0  0
 71146  1  0  0  0
 72 74  1  0  0  0
 72 77  1  0  0  0
 73 78  1  0  0  0
 73 83  2  0  0  0
 74 75  1  0  0  0
 74 84  2  0  0  0
 75147  1  0  0  0
 75148  1  0  0  0
 75149  1  0  0  0
 76150  1  0  0  0
 76151  1  0  0  0
 76152  1  0  0  0
 76 86  1  0  0  0
 77 81  1  0  0  0
 77153  1  0  0  0
 77154  1  0  0  0
 78155  1  0  0  0
 78156  1  0  0  0
 79 80  1  0  0  0
 79 82  1  0  0  0
 79157  1  0  0  0
 79158  1  0  0  0
 80 85  1  0  0  0
 80159  1  0  0  0
 80160  1  0  0  0
 81 86  1  0  0  0
 81161  1  0  0  0
 81162  1  0  0  0
 82 86  1  0  0  0
 82163  1  0  0  0
 82164  1  0  0  0
 83 84  1  0  0  0
 85165  1  0  0  0
 86166  1  0  0  0
M  CHG  1  86   1
M  ISO  4   1 100  68 101  78 101  85 100
M  END
> <chiral flag>
0

> <version>
0

> <s_m_source_file>
/data/baiqing/PycharmProjects/Reinvent-master-3.2/result/LINK_invent/BTK/process_docking_weight1_custom_sum_contain_oxygen_bond_distance_aromatic_linkinvent_7_9_3/rearranged_h_0049.sdf

> <i_m_source_file_index>
23

> <r_mmod_Potential_Energy-OPLS-2005>
-138.708023071289

> <r_mmod_Stretch_Energy-OPLS-2005>
41.0524291992188

> <r_mmod_Bend_Energy-OPLS-2005>
129.419723510742

> <r_mmod_Torsional_Energy-OPLS-2005>
219.199401855469

> <r_mmod_Improper_Torsional_Energy-OPLS-2005>
2.84372448921204

> <r_mmod_Van_der_Waal_Energy-OPLS-2005>
158.763626098633

> <r_mmod_Electrostatic_Energy-OPLS-2005>
-198.535171508789

> <r_mmod_Solvation_Energy-OPLS-2005>
-499.379486083984

> <b_mmod_Minimization_Converged-OPLS-2005>
0

> <r_mmod_RMS_Derivative-OPLS-2005>
2.23907852172852

$$$$
24
                    3D
 Structure written by MMmdl.
169177  0  0  1  0            999 V2000
  -30.6794  -14.7164   20.3722 C   0  0  0  0  0  0
  -30.4195  -12.4175   19.4598 C   0  0  0  0  0  0
  -29.4856  -12.4166   18.2325 C   0  0  0  0  0  0
  -28.0139  -12.2911   18.6597 C   0  0  0  0  0  0
  -27.6318  -13.2266   19.8388 C   0  0  2  0  0  0
  -28.6952  -13.2233   20.9560 C   0  0  0  0  0  0
  -25.2507  -13.8199   20.5761 C   0  0  0  0  0  0
  -24.1784  -13.0448   20.9236 C   0  0  0  0  0  0
  -24.6372  -11.6924   20.8798 C   0  0  0  0  0  0
  -23.9056  -10.4296   21.0426 C   0  0  0  0  0  0
  -24.3616   -9.4204   21.9193 C   0  0  0  0  0  0
  -23.6296   -8.2236   22.0751 C   0  0  0  0  0  0
  -22.4280   -8.0276   21.3537 C   0  0  0  0  0  0
  -21.9914   -9.0254   20.4643 C   0  0  0  0  0  0
  -22.7236  -10.2138   20.3066 C   0  0  0  0  0  0
  -21.6854   -6.0735   22.5272 C   0  0  0  0  0  0
  -21.4018   -6.5639   23.8208 C   0  0  0  0  0  0
  -21.3662   -5.6790   24.9170 C   0  0  0  0  0  0
  -21.6044   -4.3052   24.7219 C   0  0  0  0  0  0
  -21.8821   -3.8146   23.4340 C   0  0  0  0  0  0
  -21.9195   -4.6963   22.3396 C   0  0  0  0  0  0
  -22.7802  -13.5232   21.1862 C   0  0  0  0  0  0
  -22.1661   -4.2150   21.0973 F   0  0  0  0  0  0
  -21.5632   -3.4535   25.7732 F   0  0  0  0  0  0
  -29.9862  -13.5291   20.3279 N   0  0  0  0  0  0
  -26.2919  -12.9388   20.3370 N   0  0  0  0  0  0
  -25.9307  -11.6542   20.5872 N   0  0  0  0  0  0
  -22.0447  -12.8229   22.0418 N   0  0  0  0  0  0
  -25.4231  -15.1920   20.4182 N   0  0  0  0  0  0
  -31.9097  -14.7103   20.3160 O   0  0  0  0  0  0
  -21.6641   -6.8875   21.4233 O   0  0  0  0  0  0
  -22.3488  -14.5527   20.6688 O   0  0  0  0  0  0
  -24.6286  -31.8592   23.2038 C   0  0  0  0  0  0
  -25.9129  -32.4775   23.8366 C   0  0  1  0  0  0
  -27.2126  -27.2899   20.1182 C   0  0  0  0  0  0
  -25.5939  -33.8579   24.2286 N   0  0  0  0  0  0
  -23.4231  -30.4857   21.5465 C   0  0  2  0  0  0
  -24.8692  -28.9457   20.1068 C   0  0  0  0  0  0
  -22.7486  -29.4626   22.4919 C   0  0  0  0  0  0
  -18.0291  -28.1382   22.8484 C   0  0  0  0  0  0
  -24.1490  -36.7287   23.2637 C   0  0  0  0  0  0
  -25.9688  -30.7801   21.3828 C   0  0  0  0  0  0
  -26.0406  -29.4080   20.7198 C   0  0  0  0  0  0
  -27.2148  -28.5912   20.7197 C   0  0  0  0  0  0
  -26.0207  -26.9057   19.4566 C   0  0  0  0  0  0
  -24.8634  -27.7014   19.4651 C   0  0  0  0  0  0
  -23.6389  -29.8279   20.1597 C   0  0  0  0  0  0
  -25.4116  -36.3081   24.0327 C   0  0  1  0  0  0
  -20.5893  -28.3692   23.1271 C   0  0  2  0  0  0
  -20.6779  -26.9411   22.5405 C   0  0  0  0  0  0
  -19.5756  -26.6380   21.5208 C   0  0  0  0  0  0
  -18.1935  -26.7926   22.1618 C   0  0  0  0  0  0
  -19.1544  -28.8853   23.2874 C   0  0  0  0  0  0
  -18.9466  -30.1455   23.8893 C   0  0  0  0  0  0
  -17.6465  -30.6586   24.0561 C   0  0  0  0  0  0
  -25.9055  -34.9450   23.5103 C   0  0  0  0  0  0
  -16.5356  -29.9082   23.6332 C   0  0  0  0  0  0
  -16.7277  -28.6498   23.0355 C   0  0  0  0  0  0
  -26.4505  -31.6588   25.0741 C   0  0  0  0  0  0
  -25.3732  -31.3729   26.1462 C   0  0  0  0  0  0
  -27.0354  -30.3006   24.6219 C   0  0  0  0  0  0
  -27.6059  -32.4329   25.7516 C   0  0  0  0  0  0
  -27.5583  -37.1798   24.8460 C   0  0  0  0  0  0
  -21.4196  -29.3048   22.3663 N   0  0  0  0  0  0
  -26.4289  -37.3779   23.9413 N   0  0  0  0  0  0
  -24.6922  -31.0582   22.1006 N   0  0  0  0  0  0
  -23.4199  -28.8152   23.2999 O   0  0  0  0  0  0
  -28.2945  -26.3856   20.2071 O   0  0  0  0  0  0
  -26.5617  -34.8917   22.4666 O   0  0  0  0  0  0
  -23.5443  -32.1405   23.7345 O   0  0  0  0  0  0
  -28.7214  -22.3901   20.0925 C   0  0  0  0  0  0
  -29.9725  -23.9955   21.3642 C   0  0  0  0  0  0
  -28.9177  -23.7737   20.4613 C   0  0  0  0  0  0
  -29.5762  -21.3519   20.6151 C   0  0  0  0  0  0
  -31.3953  -15.1611   16.9828 C   0  0  0  0  0  0
  -30.7971  -19.7669   19.1151 C   0  0  0  0  0  0
  -29.7558  -18.9649   22.5023 C   0  0  0  0  0  0
  -28.0042  -18.0498   21.0510 C   0  0  0  0  0  0
  -27.9984  -24.9431   19.9485 C   0  0  0  0  0  0
  -30.9151  -16.3868   17.7681 C   0  0  0  0  0  0
  -29.6922  -16.1827   18.7102 C   0  0  0  0  0  0
  -30.4495  -17.2256   20.7993 C   0  0  0  0  0  0
  -29.5992  -19.8490   20.0728 C   0  0  1  0  0  0
  -29.4759  -18.5245   21.0466 C   0  0  0  0  0  0
  -30.7615  -22.9917   21.8341 N   0  0  0  0  0  0
  -30.5848  -21.7161   21.4523 N   0  0  0  0  0  0
  -30.0104  -15.9182   20.1361 N   0  0  0  0  0  0
  -31.4586  -12.5187   19.1439 H   0  0  0  0  0  0
  -30.3577  -11.4693   19.9968 H   0  0  0  0  0  0
  -29.7498  -11.5989   17.5609 H   0  0  0  0  0  0
  -29.6035  -13.3266   17.6562 H   0  0  0  0  0  0
  -27.8541  -11.2516   18.9469 H   0  0  0  0  0  0
  -27.3567  -12.4714   17.8075 H   0  0  0  0  0  0
  -27.5978  -14.2330   19.4286 H   0  0  0  0  0  0
  -28.7316  -12.2587   21.4644 H   0  0  0  0  0  0
  -28.4551  -13.9716   21.7137 H   0  0  0  0  0  0
  -25.2755   -9.5685   22.4773 H   0  0  0  0  0  0
  -24.0008   -7.4626   22.7467 H   0  0  0  0  0  0
  -21.0847   -8.8773   19.8946 H   0  0  0  0  0  0
  -22.3690  -10.9684   19.6186 H   0  0  0  0  0  0
  -21.2011   -7.6147   23.9712 H   0  0  0  0  0  0
  -21.1484   -6.0518   25.9071 H   0  0  0  0  0  0
  -22.0600   -2.7610   23.2836 H   0  0  0  0  0  0
  -22.4077  -11.9909   22.4829 H   0  0  0  0  0  0
  -21.1061  -13.1243   22.2612 H   0  0  0  0  0  0
  -24.6641  -15.8525   20.5439 H   0  0  0  0  0  0
  -26.2921  -15.6319   20.1444 H   0  0  0  0  0  0
  -26.7191  -32.5436   23.1106 H   0  0  0  0  0  0
  -25.0100  -33.9727   25.0439 H   0  0  0  0  0  0
  -22.7183  -31.3078   21.4057 H   0  0  0  0  0  0
  -23.3761  -35.9609   23.3288 H   0  0  0  0  0  0
  -24.3583  -36.8921   22.2053 H   0  0  0  0  0  0
  -23.7232  -37.6480   23.6667 H   0  0  0  0  0  0
  -26.1087  -31.5468   20.6195 H   0  0  0  0  0  0
  -26.8457  -30.8231   22.0169 H   0  0  0  0  0  0
  -28.1069  -28.9347   21.2242 H   0  0  0  0  0  0
  -25.9381  -25.9648   18.9347 H   0  0  0  0  0  0
  -23.9692  -27.3464   18.9714 H   0  0  0  0  0  0
  -23.7590  -30.6082   19.4074 H   0  0  0  0  0  0
  -22.7581  -29.2599   19.8542 H   0  0  0  0  0  0
  -25.1297  -36.1928   25.0819 H   0  0  0  0  0  0
  -20.9989  -28.3269   24.1390 H   0  0  0  0  0  0
  -20.5676  -26.2303   23.3608 H   0  0  0  0  0  0
  -21.6649  -26.7437   22.1202 H   0  0  0  0  0  0
  -19.6918  -25.6288   21.1247 H   0  0  0  0  0  0
  -19.6697  -27.3182   20.6733 H   0  0  0  0  0  0
  -17.4206  -26.6675   21.4020 H   0  0  0  0  0  0
  -18.0335  -26.0067   22.9012 H   0  0  0  0  0  0
  -19.7942  -30.7270   24.2260 H   0  0  0  0  0  0
  -17.5021  -31.6268   24.5155 H   0  0  0  0  0  0
  -15.5358  -30.2981   23.7663 H   0  0  0  0  0  0
  -15.8676  -28.0814   22.7076 H   0  0  0  0  0  0
  -24.5911  -30.7072   25.7790 H   0  0  0  0  0  0
  -24.8918  -32.2894   26.4885 H   0  0  0  0  0  0
  -25.8054  -30.8910   27.0241 H   0  0  0  0  0  0
  -26.2938  -29.6752   24.1231 H   0  0  0  0  0  0
  -27.4024  -29.7269   25.4742 H   0  0  0  0  0  0
  -27.8826  -30.4283   23.9474 H   0  0  0  0  0  0
  -27.2665  -33.3631   26.2088 H   0  0  0  0  0  0
  -28.3878  -32.6887   25.0352 H   0  0  0  0  0  0
  -28.0718  -31.8457   26.5441 H   0  0  0  0  0  0
  -28.2584  -38.0113   24.7535 H   0  0  0  0  0  0
  -28.1098  -36.2646   24.6252 H   0  0  0  0  0  0
  -27.2304  -37.1403   25.8862 H   0  0  0  0  0  0
  -20.9366  -29.8781   21.6886 H   0  0  0  0  0  0
  -26.0169  -38.2850   24.1429 H   0  0  0  0  0  0
  -27.9450  -22.1322   19.3871 H   0  0  0  0  0  0
  -30.1935  -24.9889   21.7254 H   0  0  0  0  0  0
  -32.2412  -15.4270   16.3483 H   0  0  0  0  0  0
  -30.6147  -14.7790   16.3257 H   0  0  0  0  0  0
  -31.7305  -14.3584   17.6361 H   0  0  0  0  0  0
  -30.7884  -20.5959   18.4069 H   0  0  0  0  0  0
  -30.7748  -18.8622   18.5228 H   0  0  0  0  0  0
  -31.7439  -19.8061   19.6544 H   0  0  0  0  0  0
  -29.5857  -18.1554   23.2140 H   0  0  0  0  0  0
  -29.1094  -19.7854   22.8154 H   0  0  0  0  0  0
  -30.7897  -19.2883   22.6265 H   0  0  0  0  0  0
  -27.8625  -17.1876   21.7042 H   0  0  0  0  0  0
  -27.6434  -17.7683   20.0639 H   0  0  0  0  0  0
  -27.3376  -18.8364   21.4070 H   0  0  0  0  0  0
  -27.0276  -24.7009   20.3828 H   0  0  0  0  0  0
  -27.9032  -24.8132   18.8697 H   0  0  0  0  0  0
  -30.6425  -17.1385   17.0260 H   0  0  0  0  0  0
  -31.7644  -16.8061   18.3068 H   0  0  0  0  0  0
  -29.0419  -15.4120   18.3036 H   0  0  0  0  0  0
  -29.0947  -17.0883   18.6472 H   0  0  0  0  0  0
  -30.7736  -16.8872   21.7850 H   0  0  0  0  0  0
  -31.3943  -17.5445   20.3636 H   0  0  0  0  0  0
  -28.7326  -19.8051   19.4119 H   0  0  0  0  0  0
  1 25  1  0  0  0
  1 30  2  0  0  0
  1 87  1  0  0  0
  2  3  1  0  0  0
  2 25  1  0  0  0
  2 88  1  0  0  0
  2 89  1  0  0  0
  3  4  1  0  0  0
  3 90  1  0  0  0
  3 91  1  0  0  0
  4  5  1  0  0  0
  4 92  1  0  0  0
  4 93  1  0  0  0
  5  6  1  0  0  0
  5 26  1  0  0  0
  5 94  1  0  0  0
  6 25  1  0  0  0
  6 95  1  0  0  0
  6 96  1  0  0  0
  7  8  2  0  0  0
  7 26  1  0  0  0
  7 29  1  0  0  0
  8  9  1  0  0  0
  8 22  1  0  0  0
  9 10  1  0  0  0
  9 27  2  0  0  0
 10 11  2  0  0  0
 10 15  1  0  0  0
 11 12  1  0  0  0
 11 97  1  0  0  0
 12 13  2  0  0  0
 12 98  1  0  0  0
 13 14  1  0  0  0
 13 31  1  0  0  0
 14 15  2  0  0  0
 14 99  1  0  0  0
 15100  1  0  0  0
 16 17  2  0  0  0
 16 21  1  0  0  0
 16 31  1  0  0  0
 17 18  1  0  0  0
 17101  1  0  0  0
 18 19  2  0  0  0
 18102  1  0  0  0
 19 20  1  0  0  0
 19 24  1  0  0  0
 20 21  2  0  0  0
 20103  1  0  0  0
 21 23  1  0  0  0
 22 28  1  0  0  0
 22 32  2  0  0  0
 26 27  1  0  0  0
 28104  1  0  0  0
 28105  1  0  0  0
 29106  1  0  0  0
 29107  1  0  0  0
 33 34  1  0  0  0
 33 66  1  0  0  0
 33 70  2  0  0  0
 34 36  1  0  0  0
 34 59  1  0  0  0
 34108  1  0  0  0
 35 44  2  0  0  0
 35 45  1  0  0  0
 35 68  1  0  0  0
 36 56  1  0  0  0
 36109  1  0  0  0
 37 39  1  0  0  0
 37 47  1  0  0  0
 37 66  1  0  0  0
 37110  1  0  0  0
 38 43  2  0  0  0
 38 46  1  0  0  0
 38 47  1  0  0  0
 39 64  1  0  0  0
 39 67  2  0  0  0
 40 52  1  0  0  0
 40 53  2  0  0  0
 40 58  1  0  0  0
 41111  1  0  0  0
 41112  1  0  0  0
 41113  1  0  0  0
 41 48  1  0  0  0
 42 43  1  0  0  0
 42 66  1  0  0  0
 42114  1  0  0  0
 42115  1  0  0  0
 43 44  1  0  0  0
 44116  1  0  0  0
 45 46  2  0  0  0
 45117  1  0  0  0
 46118  1  0  0  0
 47119  1  0  0  0
 47120  1  0  0  0
 48 56  1  0  0  0
 48 65  1  0  0  0
 48121  1  0  0  0
 49 50  1  0  0  0
 49 53  1  0  0  0
 49 64  1  0  0  0
 49122  1  0  0  0
 50 51  1  0  0  0
 50123  1  0  0  0
 50124  1  0  0  0
 51 52  1  0  0  0
 51125  1  0  0  0
 51126  1  0  0  0
 52127  1  0  0  0
 52128  1  0  0  0
 53 54  1  0  0  0
 54 55  2  0  0  0
 54129  1  0  0  0
 55 57  1  0  0  0
 55130  1  0  0  0
 56 69  2  0  0  0
 57 58  2  0  0  0
 57131  1  0  0  0
 58132  1  0  0  0
 59 60  1  0  0  0
 59 61  1  0  0  0
 59 62  1  0  0  0
 60133  1  0  0  0
 60134  1  0  0  0
 60135  1  0  0  0
 61136  1  0  0  0
 61137  1  0  0  0
 61138  1  0  0  0
 62139  1  0  0  0
 62140  1  0  0  0
 62141  1  0  0  0
 63 65  1  0  0  0
 63142  1  0  0  0
 63143  1  0  0  0
 63144  1  0  0  0
 64145  1  0  0  0
 65146  1  0  0  0
 68 79  1  0  0  0
 71 73  2  0  0  0
 71 74  1  0  0  0
 71147  1  0  0  0
 72 73  1  0  0  0
 72 85  2  0  0  0
 72148  1  0  0  0
 73 79  1  0  0  0
 74 83  1  0  0  0
 74 86  2  0  0  0
 75 80  1  0  0  0
 75149  1  0  0  0
 75150  1  0  0  0
 75151  1  0  0  0
 76152  1  0  0  0
 76153  1  0  0  0
 76154  1  0  0  0
 76 83  1  0  0  0
 77155  1  0  0  0
 77156  1  0  0  0
 77157  1  0  0  0
 77 84  1  0  0  0
 78 84  1  0  0  0
 78158  1  0  0  0
 78159  1  0  0  0
 78160  1  0  0  0
 79161  1  0  0  0
 79162  1  0  0  0
 80 81  1  0  0  0
 80163  1  0  0  0
 80164  1  0  0  0
 81 87  1  0  0  0
 81165  1  0  0  0
 81166  1  0  0  0
 82 84  1  0  0  0
 82 87  1  0  0  0
 82167  1  0  0  0
 82168  1  0  0  0
 83 84  1  0  0  0
 83169  1  0  0  0
 85 86  1  0  0  0
M  ISO  4   1 100  68 101  79 101  87 100
M  END
> <chiral flag>
0

> <version>
0

> <s_m_source_file>
/data/baiqing/PycharmProjects/Reinvent-master-3.2/result/LINK_invent/BTK/process_docking_weight1_custom_sum_contain_oxygen_bond_distance_aromatic_linkinvent_7_9_3/rearranged_h_0049.sdf

> <i_m_source_file_index>
24

> <r_mmod_Potential_Energy-OPLS-2005>
478.315551757812

> <r_mmod_Stretch_Energy-OPLS-2005>
126.791000366211

> <r_mmod_Bend_Energy-OPLS-2005>
200.022918701172

> <r_mmod_Torsional_Energy-OPLS-2005>
344.391418457031

> <r_mmod_Improper_Torsional_Energy-OPLS-2005>
13.6988983154297

> <r_mmod_Van_der_Waal_Energy-OPLS-2005>
154.377426147461

> <r_mmod_Electrostatic_Energy-OPLS-2005>
-246.552490234375

> <r_mmod_Solvation_Energy-OPLS-2005>
-207.318725585938

> <b_mmod_Minimization_Converged-OPLS-2005>
0

> <r_mmod_RMS_Derivative-OPLS-2005>
0.810438930988312

$$$$
25
                    3D
 Structure written by MMmdl.
161169  0  0  1  0            999 V2000
  -30.7166  -14.5100   20.4852 C   0  0  0  0  0  0
  -30.4146  -12.3200   19.3978 C   0  0  0  0  0  0
  -29.4690  -12.4729   18.1874 C   0  0  0  0  0  0
  -28.0001  -12.3201   18.6280 C   0  0  0  0  0  0
  -27.6412  -13.1865   19.8636 C   0  0  2  0  0  0
  -28.7058  -13.0503   20.9783 C   0  0  0  0  0  0
  -25.2536  -13.8122   20.5723 C   0  0  0  0  0  0
  -24.1764  -13.0449   20.9159 C   0  0  0  0  0  0
  -24.6292  -11.6902   20.8745 C   0  0  0  0  0  0
  -23.8943  -10.4321   21.0422 C   0  0  0  0  0  0
  -24.3540   -9.4251   21.9200 C   0  0  0  0  0  0
  -23.6254   -8.2266   22.0771 C   0  0  0  0  0  0
  -22.4247   -8.0271   21.3554 C   0  0  0  0  0  0
  -21.9824   -9.0246   20.4679 C   0  0  0  0  0  0
  -22.7115  -10.2141   20.3093 C   0  0  0  0  0  0
  -21.6868   -6.0697   22.5275 C   0  0  0  0  0  0
  -21.3999   -6.5600   23.8194 C   0  0  0  0  0  0
  -21.3608   -5.6760   24.9155 C   0  0  0  0  0  0
  -21.6038   -4.3028   24.7224 C   0  0  0  0  0  0
  -21.8858   -3.8112   23.4356 C   0  0  0  0  0  0
  -21.9226   -4.6927   22.3410 C   0  0  0  0  0  0
  -22.7797  -13.5306   21.1761 C   0  0  0  0  0  0
  -22.1710   -4.2109   21.0984 F   0  0  0  0  0  0
  -21.5612   -3.4519   25.7744 F   0  0  0  0  0  0
  -30.0248  -13.3377   20.3906 N   0  0  0  0  0  0
  -26.2930  -12.9222   20.3418 N   0  0  0  0  0  0
  -25.9218  -11.6421   20.5819 N   0  0  0  0  0  0
  -22.0375  -12.8391   22.0336 N   0  0  0  0  0  0
  -25.4259  -15.1862   20.4178 N   0  0  0  0  0  0
  -31.9090  -14.5985   20.1772 O   0  0  0  0  0  0
  -21.6653   -6.8844   21.4241 O   0  0  0  0  0  0
  -22.3541  -14.5604   20.6562 O   0  0  0  0  0  0
  -24.6111  -31.8697   23.2131 C   0  0  0  0  0  0
  -25.9022  -32.4827   23.8425 C   0  0  1  0  0  0
  -27.2314  -27.4518   20.1039 C   0  0  0  0  0  0
  -25.5897  -33.8631   24.2352 N   0  0  0  0  0  0
  -23.4002  -30.4927   21.5510 C   0  0  2  0  0  0
  -24.8490  -28.9597   20.1164 C   0  0  0  0  0  0
  -22.7402  -29.4662   22.4986 C   0  0  0  0  0  0
  -18.0258  -28.1370   22.8498 C   0  0  0  0  0  0
  -24.1484  -36.7309   23.2646 C   0  0  0  0  0  0
  -25.9274  -30.8370   21.3670 C   0  0  0  0  0  0
  -26.0046  -29.4714   20.7214 C   0  0  0  0  0  0
  -27.2005  -28.7211   20.7226 C   0  0  0  0  0  0
  -26.0702  -26.9545   19.4834 C   0  0  0  0  0  0
  -24.8758  -27.6979   19.4971 C   0  0  0  0  0  0
  -23.6100  -29.8250   20.1650 C   0  0  0  0  0  0
  -25.4100  -36.3112   24.0357 C   0  0  1  0  0  0
  -20.5855  -28.3657   23.1328 C   0  0  2  0  0  0
  -20.6742  -26.9386   22.5429 C   0  0  0  0  0  0
  -19.5713  -26.6359   21.5236 C   0  0  0  0  0  0
  -18.1891  -26.7914   22.1641 C   0  0  0  0  0  0
  -19.1516  -28.8828   23.2915 C   0  0  0  0  0  0
  -18.9450  -30.1433   23.8926 C   0  0  0  0  0  0
  -17.6458  -30.6582   24.0571 C   0  0  0  0  0  0
  -25.9022  -34.9481   23.5147 C   0  0  0  0  0  0
  -16.5343  -29.9092   23.6326 C   0  0  0  0  0  0
  -16.7255  -28.6510   23.0345 C   0  0  0  0  0  0
  -26.4449  -31.6605   25.0756 C   0  0  0  0  0  0
  -25.3730  -31.3735   26.1529 C   0  0  0  0  0  0
  -27.0302  -30.3064   24.6113 C   0  0  0  0  0  0
  -27.6011  -32.4349   25.7507 C   0  0  0  0  0  0
  -27.5578  -37.1802   24.8469 C   0  0  0  0  0  0
  -21.4126  -29.3047   22.3752 N   0  0  0  0  0  0
  -26.4284  -37.3794   23.9418 N   0  0  0  0  0  0
  -24.6644  -31.0814   22.1013 N   0  0  0  0  0  0
  -23.4184  -28.8176   23.3000 O   0  0  0  0  0  0
  -28.3601  -26.6739   20.0631 O   0  0  0  0  0  0
  -26.5566  -34.8927   22.4693 O   0  0  0  0  0  0
  -23.5318  -32.1428   23.7526 O   0  0  0  0  0  0
  -31.2750  -21.2822   20.4407 C   0  0  0  0  0  0
  -30.1002  -20.4985   20.5915 C   0  0  0  0  0  0
  -32.6542  -20.8289   20.0822 C   0  0  0  0  0  0
  -29.3117  -16.1579   19.4859 C   0  0  0  0  0  0
  -29.9620  -19.0236   20.3351 C   0  0  0  0  0  0
  -29.8391  -18.1125   21.5855 C   0  0  0  0  0  0
  -29.7118  -25.0208   21.1822 C   0  0  0  0  0  0
  -28.8577  -23.7410   21.0240 C   0  0  0  0  0  0
  -30.5854  -16.7360   21.5123 C   0  0  0  0  0  0
  -28.8873  -26.3083   21.3350 C   0  0  0  0  0  0
  -30.9816  -22.5460   20.6054 N   0  0  0  0  0  0
  -29.0912  -21.2859   20.8829 N   0  0  0  0  0  0
  -29.6506  -22.5277   20.8717 N   0  0  0  0  0  0
  -29.9946  -15.6480   20.6834 N   0  0  0  0  0  0
  -31.4504  -12.4281   19.0715 H   0  0  0  0  0  0
  -30.3414  -11.3158   19.8178 H   0  0  0  0  0  0
  -29.6998  -11.7298   17.4215 H   0  0  0  0  0  0
  -29.6132  -13.4423   17.7104 H   0  0  0  0  0  0
  -27.8407  -11.2677   18.8626 H   0  0  0  0  0  0
  -27.3291  -12.5464   17.7982 H   0  0  0  0  0  0
  -27.6153  -14.2101   19.5188 H   0  0  0  0  0  0
  -28.6984  -12.0360   21.3831 H   0  0  0  0  0  0
  -28.4814  -13.7197   21.8112 H   0  0  0  0  0  0
  -25.2704   -9.5752   22.4738 H   0  0  0  0  0  0
  -23.9985   -7.4683   22.7514 H   0  0  0  0  0  0
  -21.0721   -8.8745   19.9031 H   0  0  0  0  0  0
  -22.3548  -10.9667   19.6190 H   0  0  0  0  0  0
  -21.1982   -7.6118   23.9656 H   0  0  0  0  0  0
  -21.1349   -6.0499   25.9031 H   0  0  0  0  0  0
  -22.0688   -2.7584   23.2878 H   0  0  0  0  0  0
  -22.3923  -12.0085   22.4819 H   0  0  0  0  0  0
  -21.0987  -13.1476   22.2437 H   0  0  0  0  0  0
  -24.6613  -15.8448   20.5216 H   0  0  0  0  0  0
  -26.2978  -15.6248   20.1530 H   0  0  0  0  0  0
  -26.7091  -32.5548   23.1192 H   0  0  0  0  0  0
  -25.0143  -33.9805   25.0560 H   0  0  0  0  0  0
  -22.6894  -31.3095   21.4113 H   0  0  0  0  0  0
  -23.3748  -35.9638   23.3315 H   0  0  0  0  0  0
  -24.3585  -36.8901   22.2059 H   0  0  0  0  0  0
  -23.7229  -37.6520   23.6636 H   0  0  0  0  0  0
  -26.0398  -31.5978   20.5929 H   0  0  0  0  0  0
  -26.8161  -30.8934   21.9835 H   0  0  0  0  0  0
  -28.0933  -29.1158   21.1872 H   0  0  0  0  0  0
  -26.0894  -25.9865   19.0016 H   0  0  0  0  0  0
  -23.9880  -27.2976   19.0262 H   0  0  0  0  0  0
  -23.7177  -30.5996   19.4058 H   0  0  0  0  0  0
  -22.7350  -29.2435   19.8695 H   0  0  0  0  0  0
  -25.1258  -36.1989   25.0851 H   0  0  0  0  0  0
  -20.9953  -28.3207   24.1450 H   0  0  0  0  0  0
  -20.5641  -26.2265   23.3623 H   0  0  0  0  0  0
  -21.6606  -26.7405   22.1218 H   0  0  0  0  0  0
  -19.6865  -25.6271   21.1259 H   0  0  0  0  0  0
  -19.6652  -27.3179   20.6780 H   0  0  0  0  0  0
  -17.4162  -26.6690   21.4036 H   0  0  0  0  0  0
  -18.0264  -26.0046   22.9033 H   0  0  0  0  0  0
  -19.7935  -30.7232   24.2302 H   0  0  0  0  0  0
  -17.5023  -31.6268   24.5163 H   0  0  0  0  0  0
  -15.5349  -30.3011   23.7635 H   0  0  0  0  0  0
  -15.8652  -28.0851   22.7035 H   0  0  0  0  0  0
  -24.5863  -30.7105   25.7904 H   0  0  0  0  0  0
  -24.8976  -32.2921   26.4996 H   0  0  0  0  0  0
  -25.8107  -30.8904   27.0278 H   0  0  0  0  0  0
  -26.2866  -29.6822   24.1146 H   0  0  0  0  0  0
  -27.4087  -29.7293   25.4559 H   0  0  0  0  0  0
  -27.8675  -30.4421   23.9262 H   0  0  0  0  0  0
  -27.2592  -33.3632   26.2094 H   0  0  0  0  0  0
  -28.3795  -32.6945   25.0320 H   0  0  0  0  0  0
  -28.0692  -31.8490   26.5418 H   0  0  0  0  0  0
  -28.2580  -38.0112   24.7521 H   0  0  0  0  0  0
  -28.1083  -36.2645   24.6265 H   0  0  0  0  0  0
  -27.2309  -37.1421   25.8877 H   0  0  0  0  0  0
  -20.9257  -29.8870   21.7074 H   0  0  0  0  0  0
  -26.0182  -38.2870   24.1432 H   0  0  0  0  0  0
  -32.7024  -20.4985   19.0448 H   0  0  0  0  0  0
  -32.9679  -19.9955   20.7102 H   0  0  0  0  0  0
  -33.3836  -21.6297   20.2048 H   0  0  0  0  0  0
  -29.0922  -15.3997   18.7396 H   0  0  0  0  0  0
  -29.9496  -16.8535   18.9493 H   0  0  0  0  0  0
  -28.3768  -16.6544   19.7475 H   0  0  0  0  0  0
  -30.8200  -18.7142   19.7375 H   0  0  0  0  0  0
  -29.0908  -18.8654   19.6985 H   0  0  0  0  0  0
  -28.7890  -17.9773   21.8466 H   0  0  0  0  0  0
  -30.2644  -18.6619   22.4263 H   0  0  0  0  0  0
  -30.3902  -25.1347   20.3354 H   0  0  0  0  0  0
  -30.3439  -24.8997   22.0616 H   0  0  0  0  0  0
  -28.2045  -23.8206   20.1556 H   0  0  0  0  0  0
  -28.2123  -23.6121   21.8944 H   0  0  0  0  0  0
  -30.6806  -16.3455   22.5272 H   0  0  0  0  0  0
  -31.6077  -16.9340   21.1828 H   0  0  0  0  0  0
  -29.5240  -27.1161   21.6972 H   0  0  0  0  0  0
  -28.1006  -26.1564   22.0778 H   0  0  0  0  0  0
  1 25  1  0  0  0
  1 30  2  0  0  0
  1 84  1  0  0  0
  2  3  1  0  0  0
  2 25  1  0  0  0
  2 85  1  0  0  0
  2 86  1  0  0  0
  3  4  1  0  0  0
  3 87  1  0  0  0
  3 88  1  0  0  0
  4  5  1  0  0  0
  4 89  1  0  0  0
  4 90  1  0  0  0
  5  6  1  0  0  0
  5 26  1  0  0  0
  5 91  1  0  0  0
  6 25  1  0  0  0
  6 92  1  0  0  0
  6 93  1  0  0  0
  7  8  2  0  0  0
  7 26  1  0  0  0
  7 29  1  0  0  0
  8  9  1  0  0  0
  8 22  1  0  0  0
  9 10  1  0  0  0
  9 27  2  0  0  0
 10 11  2  0  0  0
 10 15  1  0  0  0
 11 12  1  0  0  0
 11 94  1  0  0  0
 12 13  2  0  0  0
 12 95  1  0  0  0
 13 14  1  0  0  0
 13 31  1  0  0  0
 14 15  2  0  0  0
 14 96  1  0  0  0
 15 97  1  0  0  0
 16 17  2  0  0  0
 16 21  1  0  0  0
 16 31  1  0  0  0
 17 18  1  0  0  0
 17 98  1  0  0  0
 18 19  2  0  0  0
 18 99  1  0  0  0
 19 20  1  0  0  0
 19 24  1  0  0  0
 20 21  2  0  0  0
 20100  1  0  0  0
 21 23  1  0  0  0
 22 28  1  0  0  0
 22 32  2  0  0  0
 26 27  1  0  0  0
 28101  1  0  0  0
 28102  1  0  0  0
 29103  1  0  0  0
 29104  1  0  0  0
 33 34  1  0  0  0
 33 66  1  0  0  0
 33 70  2  0  0  0
 34 36  1  0  0  0
 34 59  1  0  0  0
 34105  1  0  0  0
 35 44  2  0  0  0
 35 45  1  0  0  0
 35 68  1  0  0  0
 36 56  1  0  0  0
 36106  1  0  0  0
 37 39  1  0  0  0
 37 47  1  0  0  0
 37 66  1  0  0  0
 37107  1  0  0  0
 38 43  2  0  0  0
 38 46  1  0  0  0
 38 47  1  0  0  0
 39 64  1  0  0  0
 39 67  2  0  0  0
 40 52  1  0  0  0
 40 53  2  0  0  0
 40 58  1  0  0  0
 41108  1  0  0  0
 41109  1  0  0  0
 41110  1  0  0  0
 41 48  1  0  0  0
 42 43  1  0  0  0
 42 66  1  0  0  0
 42111  1  0  0  0
 42112  1  0  0  0
 43 44  1  0  0  0
 44113  1  0  0  0
 45 46  2  0  0  0
 45114  1  0  0  0
 46115  1  0  0  0
 47116  1  0  0  0
 47117  1  0  0  0
 48 56  1  0  0  0
 48 65  1  0  0  0
 48118  1  0  0  0
 49 50  1  0  0  0
 49 53  1  0  0  0
 49 64  1  0  0  0
 49119  1  0  0  0
 50 51  1  0  0  0
 50120  1  0  0  0
 50121  1  0  0  0
 51 52  1  0  0  0
 51122  1  0  0  0
 51123  1  0  0  0
 52124  1  0  0  0
 52125  1  0  0  0
 53 54  1  0  0  0
 54 55  2  0  0  0
 54126  1  0  0  0
 55 57  1  0  0  0
 55127  1  0  0  0
 56 69  2  0  0  0
 57 58  2  0  0  0
 57128  1  0  0  0
 58129  1  0  0  0
 59 60  1  0  0  0
 59 61  1  0  0  0
 59 62  1  0  0  0
 60130  1  0  0  0
 60131  1  0  0  0
 60132  1  0  0  0
 61133  1  0  0  0
 61134  1  0  0  0
 61135  1  0  0  0
 62136  1  0  0  0
 62137  1  0  0  0
 62138  1  0  0  0
 63 65  1  0  0  0
 63139  1  0  0  0
 63140  1  0  0  0
 63141  1  0  0  0
 64142  1  0  0  0
 65143  1  0  0  0
 68 80  1  0  0  0
 71 72  1  0  0  0
 71 73  1  0  0  0
 71 81  2  0  0  0
 72 75  1  0  0  0
 72 82  2  0  0  0
 73144  1  0  0  0
 73145  1  0  0  0
 73146  1  0  0  0
 74 84  1  0  0  0
 74147  1  0  0  0
 74148  1  0  0  0
 74149  1  0  0  0
 75 76  1  0  0  0
 75150  1  0  0  0
 75151  1  0  0  0
 76 79  1  0  0  0
 76152  1  0  0  0
 76153  1  0  0  0
 77 78  1  0  0  0
 77 80  1  0  0  0
 77154  1  0  0  0
 77155  1  0  0  0
 78 83  1  0  0  0
 78156  1  0  0  0
 78157  1  0  0  0
 79 84  1  0  0  0
 79158  1  0  0  0
 79159  1  0  0  0
 80160  1  0  0  0
 80161  1  0  0  0
 81 83  1  0  0  0
 82 83  1  0  0  0
M  ISO  4   1 100  68 101  80 101  84 100
M  END
> <chiral flag>
0

> <version>
0

> <s_m_source_file>
/data/baiqing/PycharmProjects/Reinvent-master-3.2/result/LINK_invent/BTK/process_docking_weight1_custom_sum_contain_oxygen_bond_distance_aromatic_linkinvent_7_9_3/rearranged_h_0049.sdf

> <i_m_source_file_index>
25

> <r_mmod_Potential_Energy-OPLS-2005>
100.592025756836

> <r_mmod_Stretch_Energy-OPLS-2005>
37.4991722106934

> <r_mmod_Bend_Energy-OPLS-2005>
114.246002197266

> <r_mmod_Torsional_Energy-OPLS-2005>
324.815368652344

> <r_mmod_Improper_Torsional_Energy-OPLS-2005>
9.95912075042725

> <r_mmod_Van_der_Waal_Energy-OPLS-2005>
139.187637329102

> <r_mmod_Electrostatic_Energy-OPLS-2005>
-343.957366943359

> <r_mmod_Solvation_Energy-OPLS-2005>
-202.707809448242

> <b_mmod_Minimization_Converged-OPLS-2005>
0

> <r_mmod_RMS_Derivative-OPLS-2005>
3.70187735557556

$$$$
26
                    3D
 Structure written by MMmdl.
151159  0  0  1  0            999 V2000
  -30.5512  -14.9399   20.4138 C   0  0  0  0  0  0
  -30.4402  -12.5862   19.4835 C   0  0  0  0  0  0
  -29.5171  -12.5215   18.2452 C   0  0  0  0  0  0
  -28.0492  -12.3132   18.6673 C   0  0  0  0  0  0
  -27.6269  -13.2489   19.8305 C   0  0  2  0  0  0
  -28.6732  -13.2798   20.9637 C   0  0  0  0  0  0
  -25.2446  -13.8214   20.5714 C   0  0  0  0  0  0
  -24.1775  -13.0435   20.9249 C   0  0  0  0  0  0
  -24.6397  -11.6919   20.8767 C   0  0  0  0  0  0
  -23.9084  -10.4292   21.0417 C   0  0  0  0  0  0
  -24.3631   -9.4204   21.9196 C   0  0  0  0  0  0
  -23.6303   -8.2242   22.0760 C   0  0  0  0  0  0
  -22.4285   -8.0284   21.3549 C   0  0  0  0  0  0
  -21.9923   -9.0262   20.4653 C   0  0  0  0  0  0
  -22.7256  -10.2136   20.3065 C   0  0  0  0  0  0
  -21.6848   -6.0746   22.5288 C   0  0  0  0  0  0
  -21.4009   -6.5648   23.8223 C   0  0  0  0  0  0
  -21.3659   -5.6800   24.9185 C   0  0  0  0  0  0
  -21.6039   -4.3064   24.7231 C   0  0  0  0  0  0
  -21.8814   -3.8157   23.4354 C   0  0  0  0  0  0
  -21.9189   -4.6974   22.3411 C   0  0  0  0  0  0
  -22.7789  -13.5200   21.1910 C   0  0  0  0  0  0
  -22.1659   -4.2158   21.0988 F   0  0  0  0  0  0
  -21.5628   -3.4545   25.7746 F   0  0  0  0  0  0
  -29.9464  -13.6870   20.3563 N   0  0  0  0  0  0
  -26.2873  -12.9456   20.3225 N   0  0  0  0  0  0
  -25.9326  -11.6583   20.5735 N   0  0  0  0  0  0
  -22.0438  -12.8185   22.0460 N   0  0  0  0  0  0
  -25.4073  -15.1950   20.4136 N   0  0  0  0  0  0
  -31.7643  -14.9974   20.1906 O   0  0  0  0  0  0
  -21.6637   -6.8889   21.4250 O   0  0  0  0  0  0
  -22.3472  -14.5510   20.6757 O   0  0  0  0  0  0
  -24.6439  -31.8450   23.1889 C   0  0  0  0  0  0
  -25.9204  -32.4699   23.8294 C   0  0  1  0  0  0
  -27.2139  -27.1379   20.1481 C   0  0  0  0  0  0
  -25.5948  -33.8505   24.2209 N   0  0  0  0  0  0
  -23.4476  -30.4663   21.5350 C   0  0  2  0  0  0
  -24.8951  -28.8957   20.1133 C   0  0  0  0  0  0
  -22.7566  -29.4544   22.4847 C   0  0  0  0  0  0
  -18.0306  -28.1382   22.8475 C   0  0  0  0  0  0
  -24.1489  -36.7269   23.2636 C   0  0  0  0  0  0
  -26.0044  -30.7210   21.3864 C   0  0  0  0  0  0
  -26.0750  -29.3325   20.7287 C   0  0  0  0  0  0
  -27.2360  -28.4711   20.7261 C   0  0  0  0  0  0
  -26.0041  -26.8050   19.4963 C   0  0  0  0  0  0
  -24.8730  -27.6456   19.4819 C   0  0  0  0  0  0
  -23.6739  -29.7992   20.1541 C   0  0  0  0  0  0
  -25.4119  -36.3029   24.0307 C   0  0  1  0  0  0
  -20.5922  -28.3712   23.1223 C   0  0  2  0  0  0
  -20.6795  -26.9412   22.5402 C   0  0  0  0  0  0
  -19.5769  -26.6368   21.5205 C   0  0  0  0  0  0
  -18.1946  -26.7924   22.1614 C   0  0  0  0  0  0
  -19.1567  -28.8866   23.2844 C   0  0  0  0  0  0
  -18.9476  -30.1462   23.8870 C   0  0  0  0  0  0
  -17.6473  -30.6579   24.0555 C   0  0  0  0  0  0
  -25.9061  -34.9400   23.5066 C   0  0  0  0  0  0
  -16.5365  -29.9074   23.6332 C   0  0  0  0  0  0
  -16.7291  -28.6496   23.0351 C   0  0  0  0  0  0
  -26.4536  -31.6558   25.0728 C   0  0  0  0  0  0
  -25.3713  -31.3748   26.1423 C   0  0  0  0  0  0
  -27.0394  -30.2942   24.6317 C   0  0  0  0  0  0
  -27.6067  -32.4337   25.7503 C   0  0  0  0  0  0
  -27.5580  -37.1789   24.8461 C   0  0  0  0  0  0
  -21.4256  -29.3044   22.3593 N   0  0  0  0  0  0
  -26.4287  -37.3738   23.9400 N   0  0  0  0  0  0
  -24.7189  -31.0317   22.0918 N   0  0  0  0  0  0
  -23.4207  -28.8056   23.2973 O   0  0  0  0  0  0
  -28.2679  -26.1523   20.2002 O   0  0  0  0  0  0
  -26.5650  -34.8890   22.4645 O   0  0  0  0  0  0
  -23.5557  -32.1328   23.7107 O   0  0  0  0  0  0
  -27.2686  -21.6924   21.2004 C   0  0  0  0  0  0
  -28.1906  -20.4241   22.8390 C   0  0  0  0  0  0
  -28.5203  -21.7375   20.5629 C   0  0  0  0  0  0
  -29.3339  -20.5138   20.8643 C   0  0  0  0  0  0
  -28.9955  -23.2970   20.2874 C   0  0  0  0  0  0
  -29.1839  -18.9927   20.2306 C   0  0  0  0  0  0
  -30.1495  -17.6644   20.6551 C   0  0  0  0  0  0
  -27.9506  -24.6265   20.2230 C   0  0  0  0  0  0
  -27.1093  -21.0207   22.3535 N   0  0  0  0  0  0
  -29.3296  -20.2304   22.1813 N   0  0  0  0  0  0
  -29.7766  -16.1278   20.5140 N   0  0  0  0  0  0
  -31.4717  -12.7482   19.1659 H   0  0  0  0  0  0
  -30.4371  -11.6378   20.0238 H   0  0  0  0  0  0
  -29.8319  -11.7155   17.5808 H   0  0  0  0  0  0
  -29.6057  -13.4452   17.6706 H   0  0  0  0  0  0
  -27.9446  -11.2728   18.9775 H   0  0  0  0  0  0
  -27.3844  -12.4433   17.8115 H   0  0  0  0  0  0
  -27.5871  -14.2503   19.4000 H   0  0  0  0  0  0
  -28.7613  -12.3050   21.4453 H   0  0  0  0  0  0
  -28.3772  -13.9860   21.7415 H   0  0  0  0  0  0
  -25.2771   -9.5676   22.4776 H   0  0  0  0  0  0
  -24.0009   -7.4629   22.7472 H   0  0  0  0  0  0
  -21.0857   -8.8784   19.8956 H   0  0  0  0  0  0
  -22.3721  -10.9678   19.6177 H   0  0  0  0  0  0
  -21.1999   -7.6154   23.9729 H   0  0  0  0  0  0
  -21.1481   -6.0533   25.9089 H   0  0  0  0  0  0
  -22.0589   -2.7616   23.2856 H   0  0  0  0  0  0
  -22.4049  -11.9848   22.4849 H   0  0  0  0  0  0
  -21.1052  -13.1200   22.2662 H   0  0  0  0  0  0
  -24.6314  -15.8386   20.5254 H   0  0  0  0  0  0
  -26.2404  -15.6405   20.0531 H   0  0  0  0  0  0
  -26.7262  -32.5320   23.1019 H   0  0  0  0  0  0
  -25.0077  -33.9621   25.0350 H   0  0  0  0  0  0
  -22.7514  -31.2932   21.3818 H   0  0  0  0  0  0
  -23.3736  -35.9612   23.3287 H   0  0  0  0  0  0
  -24.3582  -36.8928   22.2056 H   0  0  0  0  0  0
  -23.7274  -37.6468   23.6696 H   0  0  0  0  0  0
  -26.1591  -31.4737   20.6126 H   0  0  0  0  0  0
  -26.8759  -30.7744   22.0280 H   0  0  0  0  0  0
  -28.1374  -28.8041   21.2224 H   0  0  0  0  0  0
  -25.8902  -25.8575   18.9952 H   0  0  0  0  0  0
  -23.9727  -27.3088   18.9863 H   0  0  0  0  0  0
  -23.8153  -30.5764   19.4026 H   0  0  0  0  0  0
  -22.7890  -29.2439   19.8378 H   0  0  0  0  0  0
  -25.1304  -36.1862   25.0798 H   0  0  0  0  0  0
  -21.0027  -28.3307   24.1340 H   0  0  0  0  0  0
  -20.5689  -26.2322   23.3621 H   0  0  0  0  0  0
  -21.6660  -26.7409   22.1204 H   0  0  0  0  0  0
  -19.6927  -25.6273   21.1256 H   0  0  0  0  0  0
  -19.6708  -27.3155   20.6711 H   0  0  0  0  0  0
  -17.4224  -26.6672   21.4013 H   0  0  0  0  0  0
  -18.0332  -26.0066   22.9007 H   0  0  0  0  0  0
  -19.7947  -30.7285   24.2239 H   0  0  0  0  0  0
  -17.5020  -31.6257   24.5152 H   0  0  0  0  0  0
  -15.5370  -30.2959   23.7664 H   0  0  0  0  0  0
  -15.8692  -28.0798   22.7075 H   0  0  0  0  0  0
  -24.5917  -30.7063   25.7763 H   0  0  0  0  0  0
  -24.8863  -32.2915   26.4776 H   0  0  0  0  0  0
  -25.7990  -30.9000   27.0260 H   0  0  0  0  0  0
  -26.3004  -29.6665   24.1323 H   0  0  0  0  0  0
  -27.3982  -29.7254   25.4906 H   0  0  0  0  0  0
  -27.8925  -30.4155   23.9637 H   0  0  0  0  0  0
  -27.2664  -33.3672   26.2000 H   0  0  0  0  0  0
  -28.3908  -32.6852   25.0347 H   0  0  0  0  0  0
  -28.0697  -31.8525   26.5492 H   0  0  0  0  0  0
  -28.2576  -38.0103   24.7505 H   0  0  0  0  0  0
  -28.1101  -36.2633   24.6286 H   0  0  0  0  0  0
  -27.2307  -37.1444   25.8867 H   0  0  0  0  0  0
  -20.9448  -29.8792   21.6814 H   0  0  0  0  0  0
  -26.0152  -38.2804   24.1409 H   0  0  0  0  0  0
  -26.5129  -22.4409   21.0222 H   0  0  0  0  0  0
  -28.1281  -20.0252   23.8407 H   0  0  0  0  0  0
  -29.5840  -23.2928   19.3697 H   0  0  0  0  0  0
  -29.7153  -23.5157   21.0768 H   0  0  0  0  0  0
  -29.2508  -19.1118   19.1493 H   0  0  0  0  0  0
  -28.1479  -18.7009   20.4016 H   0  0  0  0  0  0
  -30.3518  -17.7747   21.7200 H   0  0  0  0  0  0
  -31.1207  -17.8107   20.1812 H   0  0  0  0  0  0
  -27.2796  -24.5318   21.0761 H   0  0  0  0  0  0
  -27.3401  -24.4208   19.3467 H   0  0  0  0  0  0
  -28.7879  -15.9416   20.5898 H   0  0  0  0  0  0
  1 25  1  0  0  0
  1 30  2  0  0  0
  1 81  1  0  0  0
  2  3  1  0  0  0
  2 25  1  0  0  0
  2 82  1  0  0  0
  2 83  1  0  0  0
  3  4  1  0  0  0
  3 84  1  0  0  0
  3 85  1  0  0  0
  4  5  1  0  0  0
  4 86  1  0  0  0
  4 87  1  0  0  0
  5  6  1  0  0  0
  5 26  1  0  0  0
  5 88  1  0  0  0
  6 25  1  0  0  0
  6 89  1  0  0  0
  6 90  1  0  0  0
  7  8  2  0  0  0
  7 26  1  0  0  0
  7 29  1  0  0  0
  8  9  1  0  0  0
  8 22  1  0  0  0
  9 10  1  0  0  0
  9 27  2  0  0  0
 10 11  2  0  0  0
 10 15  1  0  0  0
 11 12  1  0  0  0
 11 91  1  0  0  0
 12 13  2  0  0  0
 12 92  1  0  0  0
 13 14  1  0  0  0
 13 31  1  0  0  0
 14 15  2  0  0  0
 14 93  1  0  0  0
 15 94  1  0  0  0
 16 17  2  0  0  0
 16 21  1  0  0  0
 16 31  1  0  0  0
 17 18  1  0  0  0
 17 95  1  0  0  0
 18 19  2  0  0  0
 18 96  1  0  0  0
 19 20  1  0  0  0
 19 24  1  0  0  0
 20 21  2  0  0  0
 20 97  1  0  0  0
 21 23  1  0  0  0
 22 28  1  0  0  0
 22 32  2  0  0  0
 26 27  1  0  0  0
 28 98  1  0  0  0
 28 99  1  0  0  0
 29100  1  0  0  0
 29101  1  0  0  0
 33 34  1  0  0  0
 33 66  1  0  0  0
 33 70  2  0  0  0
 34 36  1  0  0  0
 34 59  1  0  0  0
 34102  1  0  0  0
 35 44  2  0  0  0
 35 45  1  0  0  0
 35 68  1  0  0  0
 36 56  1  0  0  0
 36103  1  0  0  0
 37 39  1  0  0  0
 37 47  1  0  0  0
 37 66  1  0  0  0
 37104  1  0  0  0
 38 43  2  0  0  0
 38 46  1  0  0  0
 38 47  1  0  0  0
 39 64  1  0  0  0
 39 67  2  0  0  0
 40 52  1  0  0  0
 40 53  2  0  0  0
 40 58  1  0  0  0
 41105  1  0  0  0
 41106  1  0  0  0
 41107  1  0  0  0
 41 48  1  0  0  0
 42 43  1  0  0  0
 42 66  1  0  0  0
 42108  1  0  0  0
 42109  1  0  0  0
 43 44  1  0  0  0
 44110  1  0  0  0
 45 46  2  0  0  0
 45111  1  0  0  0
 46112  1  0  0  0
 47113  1  0  0  0
 47114  1  0  0  0
 48 56  1  0  0  0
 48 65  1  0  0  0
 48115  1  0  0  0
 49 50  1  0  0  0
 49 53  1  0  0  0
 49 64  1  0  0  0
 49116  1  0  0  0
 50 51  1  0  0  0
 50117  1  0  0  0
 50118  1  0  0  0
 51 52  1  0  0  0
 51119  1  0  0  0
 51120  1  0  0  0
 52121  1  0  0  0
 52122  1  0  0  0
 53 54  1  0  0  0
 54 55  2  0  0  0
 54123  1  0  0  0
 55 57  1  0  0  0
 55124  1  0  0  0
 56 69  2  0  0  0
 57 58  2  0  0  0
 57125  1  0  0  0
 58126  1  0  0  0
 59 60  1  0  0  0
 59 61  1  0  0  0
 59 62  1  0  0  0
 60127  1  0  0  0
 60128  1  0  0  0
 60129  1  0  0  0
 61130  1  0  0  0
 61131  1  0  0  0
 61132  1  0  0  0
 62133  1  0  0  0
 62134  1  0  0  0
 62135  1  0  0  0
 63 65  1  0  0  0
 63136  1  0  0  0
 63137  1  0  0  0
 63138  1  0  0  0
 64139  1  0  0  0
 65140  1  0  0  0
 68 78  1  0  0  0
 71 73  2  0  0  0
 71 79  1  0  0  0
 71141  1  0  0  0
 72 79  2  0  0  0
 72 80  1  0  0  0
 72142  1  0  0  0
 73 74  1  0  0  0
 73 75  1  0  0  0
 74 76  1  0  0  0
 74 80  2  0  0  0
 75 78  1  0  0  0
 75143  1  0  0  0
 75144  1  0  0  0
 76 77  1  0  0  0
 76145  1  0  0  0
 76146  1  0  0  0
 77 81  1  0  0  0
 77147  1  0  0  0
 77148  1  0  0  0
 78149  1  0  0  0
 78150  1  0  0  0
 81151  1  0  0  0
M  ISO  4   1 100  68 101  78 101  81 100
M  END
> <chiral flag>
0

> <version>
0

> <s_m_source_file>
/data/baiqing/PycharmProjects/Reinvent-master-3.2/result/LINK_invent/BTK/process_docking_weight1_custom_sum_contain_oxygen_bond_distance_aromatic_linkinvent_7_9_3/rearranged_h_0049.sdf

> <i_m_source_file_index>
26

> <r_mmod_Potential_Energy-OPLS-2005>
323.038146972656

> <r_mmod_Stretch_Energy-OPLS-2005>
269.332305908203

> <r_mmod_Bend_Energy-OPLS-2005>
289.722106933594

> <r_mmod_Torsional_Energy-OPLS-2005>
381.472930908203

> <r_mmod_Improper_Torsional_Energy-OPLS-2005>
29.650764465332

> <r_mmod_Van_der_Waal_Energy-OPLS-2005>
150.216705322266

> <r_mmod_Electrostatic_Energy-OPLS-2005>
-746.778259277344

> <r_mmod_Solvation_Energy-OPLS-2005>
-240.407684326172

> <b_mmod_Minimization_Converged-OPLS-2005>
0

> <r_mmod_RMS_Derivative-OPLS-2005>
1.599325299263

$$$$
27
                    3D
 Structure written by MMmdl.
152160  0  0  1  0            999 V2000
  -30.5122  -14.9584   20.4616 C   0  0  0  0  0  0
  -30.4402  -12.6021   19.5108 C   0  0  0  0  0  0
  -29.5337  -12.5695   18.2558 C   0  0  0  0  0  0
  -28.0496  -12.3873   18.6372 C   0  0  0  0  0  0
  -27.6318  -13.2645   19.8457 C   0  0  2  0  0  0
  -28.6702  -13.2482   20.9872 C   0  0  0  0  0  0
  -25.2458  -13.8256   20.5710 C   0  0  0  0  0  0
  -24.1785  -13.0460   20.9207 C   0  0  0  0  0  0
  -24.6418  -11.6951   20.8716 C   0  0  0  0  0  0
  -23.9108  -10.4304   21.0371 C   0  0  0  0  0  0
  -24.3649   -9.4212   21.9137 C   0  0  0  0  0  0
  -23.6350   -8.2249   22.0698 C   0  0  0  0  0  0
  -22.4321   -8.0274   21.3518 C   0  0  0  0  0  0
  -21.9973   -9.0248   20.4609 C   0  0  0  0  0  0
  -22.7284  -10.2131   20.3031 C   0  0  0  0  0  0
  -21.6860   -6.0748   22.5275 C   0  0  0  0  0  0
  -21.4011   -6.5640   23.8211 C   0  0  0  0  0  0
  -21.3673   -5.6786   24.9165 C   0  0  0  0  0  0
  -21.6064   -4.3057   24.7203 C   0  0  0  0  0  0
  -21.8827   -3.8150   23.4324 C   0  0  0  0  0  0
  -21.9195   -4.6980   22.3394 C   0  0  0  0  0  0
  -22.7799  -13.5205   21.1872 C   0  0  0  0  0  0
  -22.1657   -4.2152   21.0977 F   0  0  0  0  0  0
  -21.5635   -3.4530   25.7711 F   0  0  0  0  0  0
  -29.9405  -13.6861   20.4098 N   0  0  0  0  0  0
  -26.2884  -12.9516   20.3226 N   0  0  0  0  0  0
  -25.9349  -11.6631   20.5695 N   0  0  0  0  0  0
  -22.0440  -12.8214   22.0449 N   0  0  0  0  0  0
  -25.4161  -15.1983   20.4194 N   0  0  0  0  0  0
  -31.7057  -15.0359   20.1465 O   0  0  0  0  0  0
  -21.6660   -6.8894   21.4236 O   0  0  0  0  0  0
  -22.3485  -14.5484   20.6664 O   0  0  0  0  0  0
  -24.6487  -31.8405   23.1899 C   0  0  0  0  0  0
  -25.9238  -32.4674   23.8290 C   0  0  1  0  0  0
  -27.1920  -27.1009   20.1759 C   0  0  0  0  0  0
  -25.5975  -33.8494   24.2199 N   0  0  0  0  0  0
  -23.4520  -30.4634   21.5377 C   0  0  2  0  0  0
  -24.8969  -28.8914   20.1095 C   0  0  0  0  0  0
  -22.7593  -29.4511   22.4876 C   0  0  0  0  0  0
  -18.0301  -28.1355   22.8480 C   0  0  0  0  0  0
  -24.1482  -36.7251   23.2643 C   0  0  0  0  0  0
  -26.0104  -30.7067   21.3918 C   0  0  0  0  0  0
  -26.0764  -29.3167   20.7341 C   0  0  0  0  0  0
  -27.2295  -28.4406   20.7447 C   0  0  0  0  0  0
  -25.9935  -26.7900   19.4974 C   0  0  0  0  0  0
  -24.8715  -27.6446   19.4689 C   0  0  0  0  0  0
  -23.6763  -29.7984   20.1547 C   0  0  0  0  0  0
  -25.4121  -36.3047   24.0329 C   0  0  1  0  0  0
  -20.5905  -28.3672   23.1231 C   0  0  2  0  0  0
  -20.6779  -26.9371   22.5406 C   0  0  0  0  0  0
  -19.5745  -26.6325   21.5219 C   0  0  0  0  0  0
  -18.1923  -26.7891   22.1626 C   0  0  0  0  0  0
  -19.1547  -28.8841   23.2829 C   0  0  0  0  0  0
  -18.9468  -30.1451   23.8834 C   0  0  0  0  0  0
  -17.6461  -30.6548   24.0546 C   0  0  0  0  0  0
  -25.9070  -34.9427   23.5073 C   0  0  0  0  0  0
  -16.5356  -29.9026   23.6347 C   0  0  0  0  0  0
  -16.7285  -28.6450   23.0351 C   0  0  0  0  0  0
  -26.4524  -31.6571   25.0764 C   0  0  0  0  0  0
  -25.3701  -31.3768   26.1449 C   0  0  0  0  0  0
  -27.0405  -30.2963   24.6400 C   0  0  0  0  0  0
  -27.6074  -32.4318   25.7538 C   0  0  0  0  0  0
  -27.5578  -37.1784   24.8450 C   0  0  0  0  0  0
  -21.4262  -29.3002   22.3619 N   0  0  0  0  0  0
  -26.4286  -37.3770   23.9403 N   0  0  0  0  0  0
  -24.7238  -31.0256   22.0941 N   0  0  0  0  0  0
  -23.4235  -28.8049   23.3040 O   0  0  0  0  0  0
  -28.2123  -26.0782   20.2584 O   0  0  0  0  0  0
  -26.5655  -34.8936   22.4633 O   0  0  0  0  0  0
  -23.5587  -32.1289   23.7097 O   0  0  0  0  0  0
  -29.3656  -20.4148   20.3618 C   0  0  0  0  0  0
  -27.4703  -19.8329   22.1656 C   0  0  0  0  0  0
  -28.6083  -21.5988   20.8462 C   0  0  0  0  0  0
  -27.6542  -21.2069   21.8337 C   0  0  0  0  0  0
  -29.1636  -19.0048   20.7907 C   0  0  0  0  0  0
  -26.8355  -22.2253   22.6164 C   0  0  0  0  0  0
  -28.9035  -23.2029   20.4683 C   0  0  0  0  0  0
  -30.0609  -17.6656   20.4037 C   0  0  0  0  0  0
  -27.8590  -24.5497   20.4118 C   0  0  0  0  0  0
  -28.1760  -18.7837   21.6784 N   0  0  0  0  0  0
  -29.7302  -16.1368   20.6608 N   0  0  0  0  0  0
  -31.4751  -12.7637   19.2085 H   0  0  0  0  0  0
  -30.4301  -11.6380   20.0212 H   0  0  0  0  0  0
  -29.8587  -11.7803   17.5745 H   0  0  0  0  0  0
  -29.6536  -13.5109   17.7166 H   0  0  0  0  0  0
  -27.8808  -11.3325   18.8555 H   0  0  0  0  0  0
  -27.4160  -12.6143   17.7753 H   0  0  0  0  0  0
  -27.6086  -14.2880   19.4713 H   0  0  0  0  0  0
  -28.7571  -12.2501   21.4178 H   0  0  0  0  0  0
  -28.3685  -13.9052   21.8023 H   0  0  0  0  0  0
  -25.2778   -9.5709   22.4720 H   0  0  0  0  0  0
  -24.0049   -7.4664   22.7442 H   0  0  0  0  0  0
  -21.0869   -8.8825   19.8934 H   0  0  0  0  0  0
  -22.3751  -10.9693   19.6160 H   0  0  0  0  0  0
  -21.1990   -7.6151   23.9736 H   0  0  0  0  0  0
  -21.1489   -6.0486   25.9079 H   0  0  0  0  0  0
  -22.0592   -2.7610   23.2820 H   0  0  0  0  0  0
  -22.4035  -11.9893   22.4918 H   0  0  0  0  0  0
  -21.1012  -13.1175   22.2518 H   0  0  0  0  0  0
  -24.6617  -15.8625   20.5631 H   0  0  0  0  0  0
  -26.2687  -15.6359   20.0923 H   0  0  0  0  0  0
  -26.7322  -32.5268   23.1040 H   0  0  0  0  0  0
  -25.0170  -33.9583   25.0370 H   0  0  0  0  0  0
  -22.7593  -31.2936   21.3882 H   0  0  0  0  0  0
  -23.3787  -35.9530   23.3270 H   0  0  0  0  0  0
  -24.3561  -36.8901   22.2056 H   0  0  0  0  0  0
  -23.7206  -37.6431   23.6679 H   0  0  0  0  0  0
  -26.1794  -31.4615   20.6219 H   0  0  0  0  0  0
  -26.8781  -30.7470   22.0412 H   0  0  0  0  0  0
  -28.1280  -28.7633   21.2524 H   0  0  0  0  0  0
  -25.8873  -25.8457   18.9887 H   0  0  0  0  0  0
  -23.9782  -27.3223   18.9505 H   0  0  0  0  0  0
  -23.8069  -30.5728   19.3975 H   0  0  0  0  0  0
  -22.7919  -29.2381   19.8471 H   0  0  0  0  0  0
  -25.1309  -36.1885   25.0834 H   0  0  0  0  0  0
  -21.0029  -28.3244   24.1331 H   0  0  0  0  0  0
  -20.5618  -26.2301   23.3620 H   0  0  0  0  0  0
  -21.6644  -26.7296   22.1235 H   0  0  0  0  0  0
  -19.6884  -25.6222   21.1246 H   0  0  0  0  0  0
  -19.6684  -27.3133   20.6744 H   0  0  0  0  0  0
  -17.4208  -26.6649   21.4009 H   0  0  0  0  0  0
  -18.0289  -26.0014   22.9002 H   0  0  0  0  0  0
  -19.7940  -30.7283   24.2161 H   0  0  0  0  0  0
  -17.4999  -31.6228   24.5130 H   0  0  0  0  0  0
  -15.5336  -30.2899   23.7681 H   0  0  0  0  0  0
  -15.8695  -28.0747   22.7075 H   0  0  0  0  0  0
  -24.5885  -30.7101   25.7766 H   0  0  0  0  0  0
  -24.8889  -32.2958   26.4825 H   0  0  0  0  0  0
  -25.7974  -30.8975   27.0275 H   0  0  0  0  0  0
  -26.3048  -29.6688   24.1366 H   0  0  0  0  0  0
  -27.3937  -29.7268   25.5013 H   0  0  0  0  0  0
  -27.8991  -30.4184   23.9795 H   0  0  0  0  0  0
  -27.2679  -33.3629   26.2092 H   0  0  0  0  0  0
  -28.3907  -32.6843   25.0374 H   0  0  0  0  0  0
  -28.0737  -31.8473   26.5482 H   0  0  0  0  0  0
  -28.2583  -38.0099   24.7563 H   0  0  0  0  0  0
  -28.1096  -36.2648   24.6200 H   0  0  0  0  0  0
  -27.2306  -37.1355   25.8854 H   0  0  0  0  0  0
  -20.9484  -29.8788   21.6841 H   0  0  0  0  0  0
  -26.0160  -38.2832   24.1423 H   0  0  0  0  0  0
  -30.1639  -20.5894   19.6531 H   0  0  0  0  0  0
  -26.7329  -19.5604   22.9084 H   0  0  0  0  0  0
  -26.3821  -21.7791   23.5040 H   0  0  0  0  0  0
  -26.0223  -22.6294   22.0113 H   0  0  0  0  0  0
  -27.4629  -23.0443   22.9712 H   0  0  0  0  0  0
  -29.3801  -23.1664   19.4878 H   0  0  0  0  0  0
  -29.6967  -23.4863   21.1566 H   0  0  0  0  0  0
  -31.0234  -17.8356   20.8843 H   0  0  0  0  0  0
  -30.2661  -17.7547   19.3400 H   0  0  0  0  0  0
  -27.2573  -24.5292   21.3178 H   0  0  0  0  0  0
  -27.1589  -24.3049   19.6168 H   0  0  0  0  0  0
  -28.7765  -15.9740   20.9488 H   0  0  0  0  0  0
  1 25  1  0  0  0
  1 30  2  0  0  0
  1 81  1  0  0  0
  2  3  1  0  0  0
  2 25  1  0  0  0
  2 82  1  0  0  0
  2 83  1  0  0  0
  3  4  1  0  0  0
  3 84  1  0  0  0
  3 85  1  0  0  0
  4  5  1  0  0  0
  4 86  1  0  0  0
  4 87  1  0  0  0
  5  6  1  0  0  0
  5 26  1  0  0  0
  5 88  1  0  0  0
  6 25  1  0  0  0
  6 89  1  0  0  0
  6 90  1  0  0  0
  7  8  2  0  0  0
  7 26  1  0  0  0
  7 29  1  0  0  0
  8  9  1  0  0  0
  8 22  1  0  0  0
  9 10  1  0  0  0
  9 27  2  0  0  0
 10 11  2  0  0  0
 10 15  1  0  0  0
 11 12  1  0  0  0
 11 91  1  0  0  0
 12 13  2  0  0  0
 12 92  1  0  0  0
 13 14  1  0  0  0
 13 31  1  0  0  0
 14 15  2  0  0  0
 14 93  1  0  0  0
 15 94  1  0  0  0
 16 17  2  0  0  0
 16 21  1  0  0  0
 16 31  1  0  0  0
 17 18  1  0  0  0
 17 95  1  0  0  0
 18 19  2  0  0  0
 18 96  1  0  0  0
 19 20  1  0  0  0
 19 24  1  0  0  0
 20 21  2  0  0  0
 20 97  1  0  0  0
 21 23  1  0  0  0
 22 28  1  0  0  0
 22 32  2  0  0  0
 26 27  1  0  0  0
 28 98  1  0  0  0
 28 99  1  0  0  0
 29100  1  0  0  0
 29101  1  0  0  0
 33 34  1  0  0  0
 33 66  1  0  0  0
 33 70  2  0  0  0
 34 36  1  0  0  0
 34 59  1  0  0  0
 34102  1  0  0  0
 35 44  2  0  0  0
 35 45  1  0  0  0
 35 68  1  0  0  0
 36 56  1  0  0  0
 36103  1  0  0  0
 37 39  1  0  0  0
 37 47  1  0  0  0
 37 66  1  0  0  0
 37104  1  0  0  0
 38 43  2  0  0  0
 38 46  1  0  0  0
 38 47  1  0  0  0
 39 64  1  0  0  0
 39 67  2  0  0  0
 40 52  1  0  0  0
 40 53  2  0  0  0
 40 58  1  0  0  0
 41105  1  0  0  0
 41106  1  0  0  0
 41107  1  0  0  0
 41 48  1  0  0  0
 42 43  1  0  0  0
 42 66  1  0  0  0
 42108  1  0  0  0
 42109  1  0  0  0
 43 44  1  0  0  0
 44110  1  0  0  0
 45 46  2  0  0  0
 45111  1  0  0  0
 46112  1  0  0  0
 47113  1  0  0  0
 47114  1  0  0  0
 48 56  1  0  0  0
 48 65  1  0  0  0
 48115  1  0  0  0
 49 50  1  0  0  0
 49 53  1  0  0  0
 49 64  1  0  0  0
 49116  1  0  0  0
 50 51  1  0  0  0
 50117  1  0  0  0
 50118  1  0  0  0
 51 52  1  0  0  0
 51119  1  0  0  0
 51120  1  0  0  0
 52121  1  0  0  0
 52122  1  0  0  0
 53 54  1  0  0  0
 54 55  2  0  0  0
 54123  1  0  0  0
 55 57  1  0  0  0
 55124  1  0  0  0
 56 69  2  0  0  0
 57 58  2  0  0  0
 57125  1  0  0  0
 58126  1  0  0  0
 59 60  1  0  0  0
 59 61  1  0  0  0
 59 62  1  0  0  0
 60127  1  0  0  0
 60128  1  0  0  0
 60129  1  0  0  0
 61130  1  0  0  0
 61131  1  0  0  0
 61132  1  0  0  0
 62133  1  0  0  0
 62134  1  0  0  0
 62135  1  0  0  0
 63 65  1  0  0  0
 63136  1  0  0  0
 63137  1  0  0  0
 63138  1  0  0  0
 64139  1  0  0  0
 65140  1  0  0  0
 68 79  1  0  0  0
 71 73  2  0  0  0
 71 75  1  0  0  0
 71141  1  0  0  0
 72 74  2  0  0  0
 72 80  1  0  0  0
 72142  1  0  0  0
 73 74  1  0  0  0
 73 77  1  0  0  0
 74 76  1  0  0  0
 75 78  1  0  0  0
 75 80  2  0  0  0
 76143  1  0  0  0
 76144  1  0  0  0
 76145  1  0  0  0
 77 79  1  0  0  0
 77146  1  0  0  0
 77147  1  0  0  0
 78 81  1  0  0  0
 78148  1  0  0  0
 78149  1  0  0  0
 79150  1  0  0  0
 79151  1  0  0  0
 81152  1  0  0  0
M  ISO  4   1 100  68 101  79 101  81 100
M  END
> <chiral flag>
0

> <version>
0

> <s_m_source_file>
/data/baiqing/PycharmProjects/Reinvent-master-3.2/result/LINK_invent/BTK/process_docking_weight1_custom_sum_contain_oxygen_bond_distance_aromatic_linkinvent_7_9_3/rearranged_h_0049.sdf

> <i_m_source_file_index>
27

> <r_mmod_Potential_Energy-OPLS-2005>
277.660247802734

> <r_mmod_Stretch_Energy-OPLS-2005>
278.680511474609

> <r_mmod_Bend_Energy-OPLS-2005>
260.586730957031

> <r_mmod_Torsional_Energy-OPLS-2005>
211.44206237793

> <r_mmod_Improper_Torsional_Energy-OPLS-2005>
5.07019233703613

> <r_mmod_Van_der_Waal_Energy-OPLS-2005>
134.479339599609

> <r_mmod_Electrostatic_Energy-OPLS-2005>
-602.927001953125

> <r_mmod_Solvation_Energy-OPLS-2005>
-223.147888183594

> <b_mmod_Minimization_Converged-OPLS-2005>
0

> <r_mmod_RMS_Derivative-OPLS-2005>
5.74899101257324

$$$$
28
                    3D
 Structure written by MMmdl.
158166  0  0  1  0            999 V2000
  -30.6162  -14.7051   20.4682 C   0  0  0  0  0  0
  -30.4303  -12.4266   19.4685 C   0  0  0  0  0  0
  -29.5087  -12.5006   18.2306 C   0  0  0  0  0  0
  -28.0326  -12.3321   18.6435 C   0  0  0  0  0  0
  -27.6438  -13.2266   19.8510 C   0  0  2  0  0  0
  -28.6878  -13.1399   20.9856 C   0  0  0  0  0  0
  -25.2525  -13.8197   20.5663 C   0  0  0  0  0  0
  -24.1813  -13.0446   20.9192 C   0  0  0  0  0  0
  -24.6399  -11.6923   20.8733 C   0  0  0  0  0  0
  -23.9072  -10.4304   21.0405 C   0  0  0  0  0  0
  -24.3620   -9.4217   21.9180 C   0  0  0  0  0  0
  -23.6291   -8.2256   22.0756 C   0  0  0  0  0  0
  -22.4271   -8.0295   21.3559 C   0  0  0  0  0  0
  -21.9911   -9.0273   20.4660 C   0  0  0  0  0  0
  -22.7237  -10.2148   20.3070 C   0  0  0  0  0  0
  -21.6850   -6.0751   22.5286 C   0  0  0  0  0  0
  -21.4011   -6.5654   23.8219 C   0  0  0  0  0  0
  -21.3659   -5.6795   24.9177 C   0  0  0  0  0  0
  -21.6050   -4.3059   24.7216 C   0  0  0  0  0  0
  -21.8819   -3.8161   23.4333 C   0  0  0  0  0  0
  -21.9187   -4.6984   22.3396 C   0  0  0  0  0  0
  -22.7839  -13.5222   21.1850 C   0  0  0  0  0  0
  -22.1656   -4.2182   21.0974 F   0  0  0  0  0  0
  -21.5622   -3.4537   25.7728 F   0  0  0  0  0  0
  -29.9907  -13.4836   20.4053 N   0  0  0  0  0  0
  -26.2944  -12.9387   20.3269 N   0  0  0  0  0  0
  -25.9329  -11.6533   20.5747 N   0  0  0  0  0  0
  -22.0503  -12.8198   22.0423 N   0  0  0  0  0  0
  -25.4226  -15.1912   20.4042 N   0  0  0  0  0  0
  -31.8054  -14.8128   20.1554 O   0  0  0  0  0  0
  -21.6642   -6.8890   21.4249 O   0  0  0  0  0  0
  -22.3516  -14.5525   20.6704 O   0  0  0  0  0  0
  -24.6276  -31.8570   23.1989 C   0  0  0  0  0  0
  -25.9112  -32.4768   23.8330 C   0  0  1  0  0  0
  -27.2259  -27.2895   20.1418 C   0  0  0  0  0  0
  -25.5907  -33.8572   24.2261 N   0  0  0  0  0  0
  -23.4234  -30.4782   21.5411 C   0  0  2  0  0  0
  -24.8728  -28.9190   20.1190 C   0  0  0  0  0  0
  -22.7482  -29.4614   22.4925 C   0  0  0  0  0  0
  -18.0291  -28.1380   22.8488 C   0  0  0  0  0  0
  -24.1486  -36.7308   23.2642 C   0  0  0  0  0  0
  -25.9648  -30.7798   21.3733 C   0  0  0  0  0  0
  -26.0408  -29.3997   20.7269 C   0  0  0  0  0  0
  -27.2232  -28.5977   20.7250 C   0  0  0  0  0  0
  -26.0391  -26.8605   19.5172 C   0  0  0  0  0  0
  -24.8745  -27.6552   19.5040 C   0  0  0  0  0  0
  -23.6416  -29.8039   20.1599 C   0  0  0  0  0  0
  -25.4111  -36.3086   24.0327 C   0  0  1  0  0  0
  -20.5892  -28.3690   23.1276 C   0  0  2  0  0  0
  -20.6780  -26.9410   22.5407 C   0  0  0  0  0  0
  -19.5753  -26.6381   21.5212 C   0  0  0  0  0  0
  -18.1935  -26.7922   22.1630 C   0  0  0  0  0  0
  -19.1543  -28.8852   23.2877 C   0  0  0  0  0  0
  -18.9462  -30.1455   23.8889 C   0  0  0  0  0  0
  -17.6458  -30.6576   24.0565 C   0  0  0  0  0  0
  -25.9045  -34.9453   23.5099 C   0  0  0  0  0  0
  -16.5351  -29.9074   23.6327 C   0  0  0  0  0  0
  -16.7278  -28.6495   23.0347 C   0  0  0  0  0  0
  -26.4500  -31.6582   25.0699 C   0  0  0  0  0  0
  -25.3728  -31.3709   26.1415 C   0  0  0  0  0  0
  -27.0360  -30.3009   24.6168 C   0  0  0  0  0  0
  -27.6061  -32.4327   25.7457 C   0  0  0  0  0  0
  -27.5574  -37.1805   24.8458 C   0  0  0  0  0  0
  -21.4195  -29.3038   22.3668 N   0  0  0  0  0  0
  -26.4290  -37.3778   23.9399 N   0  0  0  0  0  0
  -24.6909  -31.0563   22.0944 N   0  0  0  0  0  0
  -23.4196  -28.8169   23.3026 O   0  0  0  0  0  0
  -28.3459  -26.4460   20.0885 O   0  0  0  0  0  0
  -26.5633  -34.8922   22.4678 O   0  0  0  0  0  0
  -23.5433  -32.1392   23.7290 O   0  0  0  0  0  0
  -27.6388  -21.1285   19.5250 C   0  0  0  0  0  0
  -29.0991  -22.6271   20.7029 C   0  0  0  0  0  0
  -28.8108  -21.2706   20.2917 C   0  0  0  0  0  0
  -26.8493  -22.2613   19.2056 C   0  0  0  0  0  0
  -28.2579  -23.7478   20.3399 C   0  0  0  0  0  0
  -25.0598  -20.7223   18.1353 C   0  0  0  0  0  0
  -29.7239  -20.0133   20.6325 C   0  0  0  0  0  0
  -25.5479  -22.1517   18.4202 C   0  0  0  0  0  0
  -28.4036  -25.2180   20.9314 C   0  0  0  0  0  0
  -29.2219  -18.4849   20.4493 C   0  0  0  0  0  0
  -30.2830  -17.2908   20.6996 C   0  0  0  0  0  0
  -27.1575  -23.5233   19.5897 N   0  0  0  0  0  0
  -29.8433  -15.8322   20.6823 N   0  0  0  0  0  0
  -31.4726  -12.5472   19.1691 H   0  0  0  0  0  0
  -30.3658  -11.4447   19.9418 H   0  0  0  0  0  0
  -29.7861  -11.7336   17.5059 H   0  0  0  0  0  0
  -29.6446  -13.4596   17.7283 H   0  0  0  0  0  0
  -27.8766  -11.2815   18.8940 H   0  0  0  0  0  0
  -27.3771  -12.5386   17.7969 H   0  0  0  0  0  0
  -27.6451  -14.2515   19.4798 H   0  0  0  0  0  0
  -28.7138  -12.1367   21.4135 H   0  0  0  0  0  0
  -28.4317  -13.8157   21.8035 H   0  0  0  0  0  0
  -25.2772   -9.5682   22.4752 H   0  0  0  0  0  0
  -24.0022   -7.4633   22.7452 H   0  0  0  0  0  0
  -21.0856   -8.8796   19.8956 H   0  0  0  0  0  0
  -22.3689  -10.9694   19.6196 H   0  0  0  0  0  0
  -21.2006   -7.6166   23.9734 H   0  0  0  0  0  0
  -21.1471   -6.0520   25.9082 H   0  0  0  0  0  0
  -22.0598   -2.7628   23.2819 H   0  0  0  0  0  0
  -22.4126  -11.9866   22.4817 H   0  0  0  0  0  0
  -21.1150  -13.1249   22.2687 H   0  0  0  0  0  0
  -24.6517  -15.8434   20.5005 H   0  0  0  0  0  0
  -26.2659  -15.6281   20.0556 H   0  0  0  0  0  0
  -26.7170  -32.5448   23.1069 H   0  0  0  0  0  0
  -25.0008  -33.9715   25.0373 H   0  0  0  0  0  0
  -22.7182  -31.2984   21.3921 H   0  0  0  0  0  0
  -23.3734  -35.9650   23.3305 H   0  0  0  0  0  0
  -24.3565  -36.8942   22.2052 H   0  0  0  0  0  0
  -23.7254  -37.6516   23.6675 H   0  0  0  0  0  0
  -26.0944  -31.5353   20.5970 H   0  0  0  0  0  0
  -26.8462  -30.8371   22.0003 H   0  0  0  0  0  0
  -28.1258  -28.9690   21.1902 H   0  0  0  0  0  0
  -26.0144  -25.8940   19.0343 H   0  0  0  0  0  0
  -23.9820  -27.2810   19.0211 H   0  0  0  0  0  0
  -23.7638  -30.5761   19.3997 H   0  0  0  0  0  0
  -22.7618  -29.2320   19.8584 H   0  0  0  0  0  0
  -25.1290  -36.1937   25.0819 H   0  0  0  0  0  0
  -20.9997  -28.3269   24.1391 H   0  0  0  0  0  0
  -20.5679  -26.2302   23.3617 H   0  0  0  0  0  0
  -21.6650  -26.7427   22.1201 H   0  0  0  0  0  0
  -19.6916  -25.6294   21.1236 H   0  0  0  0  0  0
  -19.6686  -27.3199   20.6750 H   0  0  0  0  0  0
  -17.4206  -26.6669   21.4032 H   0  0  0  0  0  0
  -18.0333  -26.0062   22.9026 H   0  0  0  0  0  0
  -19.7935  -30.7281   24.2250 H   0  0  0  0  0  0
  -17.5006  -31.6256   24.5169 H   0  0  0  0  0  0
  -15.5351  -30.2968   23.7646 H   0  0  0  0  0  0
  -15.8686  -28.0812   22.7049 H   0  0  0  0  0  0
  -24.5900  -30.7073   25.7718 H   0  0  0  0  0  0
  -24.8914  -32.2869   26.4847 H   0  0  0  0  0  0
  -25.8036  -30.8861   27.0184 H   0  0  0  0  0  0
  -26.2937  -29.6718   24.1234 H   0  0  0  0  0  0
  -27.4109  -29.7295   25.4672 H   0  0  0  0  0  0
  -27.8783  -30.4299   23.9367 H   0  0  0  0  0  0
  -27.2673  -33.3621   26.2045 H   0  0  0  0  0  0
  -28.3849  -32.6901   25.0266 H   0  0  0  0  0  0
  -28.0763  -31.8452   26.5351 H   0  0  0  0  0  0
  -28.2593  -38.0102   24.7495 H   0  0  0  0  0  0
  -28.1073  -36.2629   24.6295 H   0  0  0  0  0  0
  -27.2295  -37.1471   25.8865 H   0  0  0  0  0  0
  -20.9379  -29.8755   21.6871 H   0  0  0  0  0  0
  -26.0173  -38.2857   24.1380 H   0  0  0  0  0  0
  -27.3488  -20.1449   19.1870 H   0  0  0  0  0  0
  -29.9672  -22.8099   21.3230 H   0  0  0  0  0  0
  -24.9230  -20.1589   19.0591 H   0  0  0  0  0  0
  -25.7619  -20.1804   17.5003 H   0  0  0  0  0  0
  -24.0998  -20.7433   17.6208 H   0  0  0  0  0  0
  -30.0426  -20.1321   21.6681 H   0  0  0  0  0  0
  -30.6356  -20.1340   20.0450 H   0  0  0  0  0  0
  -25.6713  -22.6863   17.4785 H   0  0  0  0  0  0
  -24.7711  -22.6842   18.9706 H   0  0  0  0  0  0
  -29.3664  -25.2525   21.4404 H   0  0  0  0  0  0
  -27.6684  -25.3173   21.7312 H   0  0  0  0  0  0
  -28.3643  -18.3359   21.1061 H   0  0  0  0  0  0
  -28.8371  -18.3706   19.4361 H   0  0  0  0  0  0
  -30.7498  -17.4585   21.6710 H   0  0  0  0  0  0
  -31.0888  -17.4019   19.9721 H   0  0  0  0  0  0
  -28.8682  -15.6551   20.8714 H   0  0  0  0  0  0
  1 25  1  0  0  0
  1 30  2  0  0  0
  1 83  1  0  0  0
  2  3  1  0  0  0
  2 25  1  0  0  0
  2 84  1  0  0  0
  2 85  1  0  0  0
  3  4  1  0  0  0
  3 86  1  0  0  0
  3 87  1  0  0  0
  4  5  1  0  0  0
  4 88  1  0  0  0
  4 89  1  0  0  0
  5  6  1  0  0  0
  5 26  1  0  0  0
  5 90  1  0  0  0
  6 25  1  0  0  0
  6 91  1  0  0  0
  6 92  1  0  0  0
  7  8  2  0  0  0
  7 26  1  0  0  0
  7 29  1  0  0  0
  8  9  1  0  0  0
  8 22  1  0  0  0
  9 10  1  0  0  0
  9 27  2  0  0  0
 10 11  2  0  0  0
 10 15  1  0  0  0
 11 12  1  0  0  0
 11 93  1  0  0  0
 12 13  2  0  0  0
 12 94  1  0  0  0
 13 14  1  0  0  0
 13 31  1  0  0  0
 14 15  2  0  0  0
 14 95  1  0  0  0
 15 96  1  0  0  0
 16 17  2  0  0  0
 16 21  1  0  0  0
 16 31  1  0  0  0
 17 18  1  0  0  0
 17 97  1  0  0  0
 18 19  2  0  0  0
 18 98  1  0  0  0
 19 20  1  0  0  0
 19 24  1  0  0  0
 20 21  2  0  0  0
 20 99  1  0  0  0
 21 23  1  0  0  0
 22 28  1  0  0  0
 22 32  2  0  0  0
 26 27  1  0  0  0
 28100  1  0  0  0
 28101  1  0  0  0
 29102  1  0  0  0
 29103  1  0  0  0
 33 34  1  0  0  0
 33 66  1  0  0  0
 33 70  2  0  0  0
 34 36  1  0  0  0
 34 59  1  0  0  0
 34104  1  0  0  0
 35 44  2  0  0  0
 35 45  1  0  0  0
 35 68  1  0  0  0
 36 56  1  0  0  0
 36105  1  0  0  0
 37 39  1  0  0  0
 37 47  1  0  0  0
 37 66  1  0  0  0
 37106  1  0  0  0
 38 43  2  0  0  0
 38 46  1  0  0  0
 38 47  1  0  0  0
 39 64  1  0  0  0
 39 67  2  0  0  0
 40 52  1  0  0  0
 40 53  2  0  0  0
 40 58  1  0  0  0
 41107  1  0  0  0
 41108  1  0  0  0
 41109  1  0  0  0
 41 48  1  0  0  0
 42 43  1  0  0  0
 42 66  1  0  0  0
 42110  1  0  0  0
 42111  1  0  0  0
 43 44  1  0  0  0
 44112  1  0  0  0
 45 46  2  0  0  0
 45113  1  0  0  0
 46114  1  0  0  0
 47115  1  0  0  0
 47116  1  0  0  0
 48 56  1  0  0  0
 48 65  1  0  0  0
 48117  1  0  0  0
 49 50  1  0  0  0
 49 53  1  0  0  0
 49 64  1  0  0  0
 49118  1  0  0  0
 50 51  1  0  0  0
 50119  1  0  0  0
 50120  1  0  0  0
 51 52  1  0  0  0
 51121  1  0  0  0
 51122  1  0  0  0
 52123  1  0  0  0
 52124  1  0  0  0
 53 54  1  0  0  0
 54 55  2  0  0  0
 54125  1  0  0  0
 55 57  1  0  0  0
 55126  1  0  0  0
 56 69  2  0  0  0
 57 58  2  0  0  0
 57127  1  0  0  0
 58128  1  0  0  0
 59 60  1  0  0  0
 59 61  1  0  0  0
 59 62  1  0  0  0
 60129  1  0  0  0
 60130  1  0  0  0
 60131  1  0  0  0
 61132  1  0  0  0
 61133  1  0  0  0
 61134  1  0  0  0
 62135  1  0  0  0
 62136  1  0  0  0
 62137  1  0  0  0
 63 65  1  0  0  0
 63138  1  0  0  0
 63139  1  0  0  0
 63140  1  0  0  0
 64141  1  0  0  0
 65142  1  0  0  0
 68 79  1  0  0  0
 71 73  2  0  0  0
 71 74  1  0  0  0
 71143  1  0  0  0
 72 73  1  0  0  0
 72 75  2  0  0  0
 72144  1  0  0  0
 73 77  1  0  0  0
 74 78  1  0  0  0
 74 82  2  0  0  0
 75 79  1  0  0  0
 75 82  1  0  0  0
 76 78  1  0  0  0
 76145  1  0  0  0
 76146  1  0  0  0
 76147  1  0  0  0
 77 80  1  0  0  0
 77148  1  0  0  0
 77149  1  0  0  0
 78150  1  0  0  0
 78151  1  0  0  0
 79152  1  0  0  0
 79153  1  0  0  0
 80 81  1  0  0  0
 80154  1  0  0  0
 80155  1  0  0  0
 81 83  1  0  0  0
 81156  1  0  0  0
 81157  1  0  0  0
 83158  1  0  0  0
M  ISO  4   1 100  68 101  79 101  83 100
M  END
> <chiral flag>
0

> <version>
0

> <s_m_source_file>
/data/baiqing/PycharmProjects/Reinvent-master-3.2/result/LINK_invent/BTK/process_docking_weight1_custom_sum_contain_oxygen_bond_distance_aromatic_linkinvent_7_9_3/rearranged_h_0049.sdf

> <i_m_source_file_index>
28

> <r_mmod_Potential_Energy-OPLS-2005>
-33.1502799987793

> <r_mmod_Stretch_Energy-OPLS-2005>
105.371116638184

> <r_mmod_Bend_Energy-OPLS-2005>
153.242324829102

> <r_mmod_Torsional_Energy-OPLS-2005>
230.335815429688

> <r_mmod_Improper_Torsional_Energy-OPLS-2005>
5.4183087348938

> <r_mmod_Van_der_Waal_Energy-OPLS-2005>
134.579498291016

> <r_mmod_Electrostatic_Energy-OPLS-2005>
-506.998199462891

> <r_mmod_Solvation_Energy-OPLS-2005>
-220.556518554688

> <b_mmod_Minimization_Converged-OPLS-2005>
0

> <r_mmod_RMS_Derivative-OPLS-2005>
1.78199863433838

$$$$
29
                    3D
 Structure written by MMmdl.
171179  0  0  1  0            999 V2000
  -30.6145  -14.7903   20.3724 C   0  0  0  0  0  0
  -30.4433  -12.4617   19.4741 C   0  0  0  0  0  0
  -29.5145  -12.4020   18.2410 C   0  0  0  0  0  0
  -28.0351  -12.2660   18.6628 C   0  0  0  0  0  0
  -27.6288  -13.1977   19.8368 C   0  0  2  0  0  0
  -28.6885  -13.2221   20.9590 C   0  0  0  0  0  0
  -25.2535  -13.8094   20.5755 C   0  0  0  0  0  0
  -24.1782  -13.0396   20.9238 C   0  0  0  0  0  0
  -24.6330  -11.6861   20.8800 C   0  0  0  0  0  0
  -23.9007  -10.4265   21.0436 C   0  0  0  0  0  0
  -24.3581   -9.4185   21.9200 C   0  0  0  0  0  0
  -23.6275   -8.2212   22.0753 C   0  0  0  0  0  0
  -22.4262   -8.0253   21.3532 C   0  0  0  0  0  0
  -21.9884   -9.0227   20.4643 C   0  0  0  0  0  0
  -22.7194  -10.2115   20.3067 C   0  0  0  0  0  0
  -21.6845   -6.0726   22.5277 C   0  0  0  0  0  0
  -21.4005   -6.5637   23.8209 C   0  0  0  0  0  0
  -21.3656   -5.6790   24.9172 C   0  0  0  0  0  0
  -21.6046   -4.3052   24.7223 C   0  0  0  0  0  0
  -21.8823   -3.8144   23.4346 C   0  0  0  0  0  0
  -21.9193   -4.6957   22.3402 C   0  0  0  0  0  0
  -22.7817  -13.5225   21.1873 C   0  0  0  0  0  0
  -22.1661   -4.2146   21.0977 F   0  0  0  0  0  0
  -21.5633   -3.4538   25.7735 F   0  0  0  0  0  0
  -29.9759  -13.5658   20.3400 N   0  0  0  0  0  0
  -26.2896  -12.9204   20.3335 N   0  0  0  0  0  0
  -25.9250  -11.6398   20.5843 N   0  0  0  0  0  0
  -22.0438  -12.8236   22.0426 N   0  0  0  0  0  0
  -25.4304  -15.1816   20.4200 N   0  0  0  0  0  0
  -31.8430  -14.8346   20.2696 O   0  0  0  0  0  0
  -21.6626   -6.8858   21.4233 O   0  0  0  0  0  0
  -22.3528  -14.5536   20.6709 O   0  0  0  0  0  0
  -24.6291  -31.8559   23.2000 C   0  0  0  0  0  0
  -25.9121  -32.4757   23.8342 C   0  0  1  0  0  0
  -27.2265  -27.2735   20.1346 C   0  0  0  0  0  0
  -25.5922  -33.8561   24.2266 N   0  0  0  0  0  0
  -23.4261  -30.4784   21.5417 C   0  0  2  0  0  0
  -24.8749  -28.9264   20.1101 C   0  0  0  0  0  0
  -22.7494  -29.4603   22.4910 C   0  0  0  0  0  0
  -18.0294  -28.1391   22.8493 C   0  0  0  0  0  0
  -24.1487  -36.7287   23.2641 C   0  0  0  0  0  0
  -25.9696  -30.7723   21.3791 C   0  0  0  0  0  0
  -26.0422  -29.3952   20.7236 C   0  0  0  0  0  0
  -27.2163  -28.5795   20.7284 C   0  0  0  0  0  0
  -26.0402  -26.8768   19.4743 C   0  0  0  0  0  0
  -24.8786  -27.6749   19.4750 C   0  0  0  0  0  0
  -23.6454  -29.8128   20.1570 C   0  0  0  0  0  0
  -25.4111  -36.3074   24.0333 C   0  0  1  0  0  0
  -20.5897  -28.3701   23.1274 C   0  0  2  0  0  0
  -20.6779  -26.9417   22.5412 C   0  0  0  0  0  0
  -19.5751  -26.6387   21.5219 C   0  0  0  0  0  0
  -18.1934  -26.7933   22.1632 C   0  0  0  0  0  0
  -19.1546  -28.8860   23.2881 C   0  0  0  0  0  0
  -18.9467  -30.1464   23.8900 C   0  0  0  0  0  0
  -17.6465  -30.6590   24.0567 C   0  0  0  0  0  0
  -25.9050  -34.9442   23.5103 C   0  0  0  0  0  0
  -16.5358  -29.9091   23.6328 C   0  0  0  0  0  0
  -16.7282  -28.6509   23.0351 C   0  0  0  0  0  0
  -26.4499  -31.6579   25.0725 C   0  0  0  0  0  0
  -25.3729  -31.3726   26.1452 C   0  0  0  0  0  0
  -27.0347  -30.2998   24.6202 C   0  0  0  0  0  0
  -27.6053  -32.4321   25.7495 C   0  0  0  0  0  0
  -27.5578  -37.1798   24.8468 C   0  0  0  0  0  0
  -21.4201  -29.3049   22.3660 N   0  0  0  0  0  0
  -26.4289  -37.3771   23.9413 N   0  0  0  0  0  0
  -24.6936  -31.0537   22.0970 N   0  0  0  0  0  0
  -23.4197  -28.8139   23.3003 O   0  0  0  0  0  0
  -28.3440  -26.4130   20.2281 O   0  0  0  0  0  0
  -26.5625  -34.8916   22.4674 O   0  0  0  0  0  0
  -23.5442  -32.1378   23.7301 O   0  0  0  0  0  0
  -29.6307  -20.1630   20.2989 C   0  0  0  0  0  0
  -30.6149  -20.7539   19.5210 C   0  0  0  0  0  0
  -29.4209  -22.4247   20.4349 C   0  0  0  0  0  0
  -32.8942  -24.9683   20.2327 C   0  0  0  0  0  0
  -32.6858  -22.7819   21.4298 C   0  0  0  0  0  0
  -33.9636  -22.9265   19.2898 C   0  0  0  0  0  0
  -29.1390  -16.0762   18.9436 C   0  0  0  0  0  0
  -29.2308  -18.6357   20.4497 C   0  0  0  0  0  0
  -29.0296  -23.8938   20.8802 C   0  0  0  0  0  0
  -31.4390  -23.1890   19.1737 C   0  0  0  0  0  0
  -30.2963  -17.3979   20.5960 C   0  0  0  0  0  0
  -28.2718  -24.9425   19.9213 C   0  0  0  0  0  0
  -31.6372  -20.0531   18.6608 C   0  0  0  0  0  0
  -32.7211  -23.4485   20.0350 C   0  0  0  0  0  0
  -28.8607  -21.2488   20.8270 N   0  0  0  0  0  0
  -30.5231  -22.1628   19.6898 N   0  0  0  0  0  0
  -29.8601  -15.9673   20.2228 N   0  0  0  0  0  0
  -31.1165  -18.9799   18.0688 F   0  0  0  0  0  0
  -32.1056  -20.8008   17.6658 F   0  0  0  0  0  0
  -32.6795  -19.6457   19.3835 F   0  0  0  0  0  0
  -31.4776  -12.6008   19.1542 H   0  0  0  0  0  0
  -30.4219  -11.5188   20.0225 H   0  0  0  0  0  0
  -29.7913  -11.5472   17.6221 H   0  0  0  0  0  0
  -29.6616  -13.2698   17.6019 H   0  0  0  0  0  0
  -27.8886  -11.2280   18.9632 H   0  0  0  0  0  0
  -27.3801  -12.4241   17.8053 H   0  0  0  0  0  0
  -27.5617  -14.1848   19.4056 H   0  0  0  0  0  0
  -28.7477  -12.2579   21.4653 H   0  0  0  0  0  0
  -28.4220  -13.9590   21.7187 H   0  0  0  0  0  0
  -25.2718   -9.5682   22.4777 H   0  0  0  0  0  0
  -23.9995   -7.4609   22.7473 H   0  0  0  0  0  0
  -21.0815   -8.8744   19.8952 H   0  0  0  0  0  0
  -22.3647  -10.9663   19.6191 H   0  0  0  0  0  0
  -21.1984   -7.6141   23.9714 H   0  0  0  0  0  0
  -21.1478   -6.0514   25.9075 H   0  0  0  0  0  0
  -22.0605   -2.7607   23.2843 H   0  0  0  0  0  0
  -22.4041  -11.9902   22.4833 H   0  0  0  0  0  0
  -21.1056  -13.1279   22.2613 H   0  0  0  0  0  0
  -24.6739  -15.8450   20.5476 H   0  0  0  0  0  0
  -26.3010  -15.6204   20.1497 H   0  0  0  0  0  0
  -26.7186  -32.5410   23.1083 H   0  0  0  0  0  0
  -25.0057  -33.9702   25.0403 H   0  0  0  0  0  0
  -22.7226  -31.3007   21.3959 H   0  0  0  0  0  0
  -23.3749  -35.9619   23.3300 H   0  0  0  0  0  0
  -24.3577  -36.8909   22.2055 H   0  0  0  0  0  0
  -23.7241  -37.6490   23.6663 H   0  0  0  0  0  0
  -26.1059  -31.5318   20.6080 H   0  0  0  0  0  0
  -26.8480  -30.8228   22.0109 H   0  0  0  0  0  0
  -28.1067  -28.9317   21.2300 H   0  0  0  0  0  0
  -25.9736  -25.9346   18.9531 H   0  0  0  0  0  0
  -23.9869  -27.3154   18.9798 H   0  0  0  0  0  0
  -23.7726  -30.5903   19.4027 H   0  0  0  0  0  0
  -22.7637  -29.2482   19.8485 H   0  0  0  0  0  0
  -25.1291  -36.1925   25.0827 H   0  0  0  0  0  0
  -21.0001  -28.3280   24.1389 H   0  0  0  0  0  0
  -20.5681  -26.2312   23.3619 H   0  0  0  0  0  0
  -21.6646  -26.7439   22.1201 H   0  0  0  0  0  0
  -19.6909  -25.6297   21.1251 H   0  0  0  0  0  0
  -19.6682  -27.3198   20.6748 H   0  0  0  0  0  0
  -17.4202  -26.6689   21.4037 H   0  0  0  0  0  0
  -18.0327  -26.0076   22.9028 H   0  0  0  0  0  0
  -19.7941  -30.7283   24.2266 H   0  0  0  0  0  0
  -17.5018  -31.6269   24.5170 H   0  0  0  0  0  0
  -15.5357  -30.2993   23.7648 H   0  0  0  0  0  0
  -15.8684  -28.0830   22.7057 H   0  0  0  0  0  0
  -24.5905  -30.7071   25.7787 H   0  0  0  0  0  0
  -24.8917  -32.2892   26.4871 H   0  0  0  0  0  0
  -25.8051  -30.8911   27.0232 H   0  0  0  0  0  0
  -26.2929  -29.6743   24.1221 H   0  0  0  0  0  0
  -27.4030  -29.7260   25.4716 H   0  0  0  0  0  0
  -27.8806  -30.4277   23.9445 H   0  0  0  0  0  0
  -27.2661  -33.3623   26.2066 H   0  0  0  0  0  0
  -28.3865  -32.6877   25.0324 H   0  0  0  0  0  0
  -28.0722  -31.8452   26.5415 H   0  0  0  0  0  0
  -28.2597  -38.0094   24.7508 H   0  0  0  0  0  0
  -28.1072  -36.2623   24.6298 H   0  0  0  0  0  0
  -27.2298  -37.1458   25.8872 H   0  0  0  0  0  0
  -20.9382  -29.8777   21.6873 H   0  0  0  0  0  0
  -26.0168  -38.2846   24.1411 H   0  0  0  0  0  0
  -33.7967  -25.2007   20.7996 H   0  0  0  0  0  0
  -32.0545  -25.4031   20.7758 H   0  0  0  0  0  0
  -32.9693  -25.4894   19.2773 H   0  0  0  0  0  0
  -33.5885  -23.0090   21.9986 H   0  0  0  0  0  0
  -32.6262  -21.6952   21.3623 H   0  0  0  0  0  0
  -31.8414  -23.1254   22.0267 H   0  0  0  0  0  0
  -34.8800  -23.1401   19.8417 H   0  0  0  0  0  0
  -34.0641  -23.3859   18.3058 H   0  0  0  0  0  0
  -33.9239  -21.8483   19.1454 H   0  0  0  0  0  0
  -28.0901  -16.3210   19.1097 H   0  0  0  0  0  0
  -29.1717  -15.1820   18.3314 H   0  0  0  0  0  0
  -29.5680  -16.8484   18.3036 H   0  0  0  0  0  0
  -28.5840  -18.4476   19.5970 H   0  0  0  0  0  0
  -28.5508  -18.5489   21.2973 H   0  0  0  0  0  0
  -29.9468  -24.3743   21.2156 H   0  0  0  0  0  0
  -28.4398  -23.8034   21.7919 H   0  0  0  0  0  0
  -31.6878  -22.9770   18.1372 H   0  0  0  0  0  0
  -30.8787  -24.1168   19.0745 H   0  0  0  0  0  0
  -30.6663  -17.3852   21.6219 H   0  0  0  0  0  0
  -31.1805  -17.6027   19.9968 H   0  0  0  0  0  0
  -27.2451  -24.5881   19.8707 H   0  0  0  0  0  0
  -28.6690  -24.8339   18.9120 H   0  0  0  0  0  0
  1 25  1  0  0  0
  1 30  2  0  0  0
  1 87  1  0  0  0
  2  3  1  0  0  0
  2 25  1  0  0  0
  2 91  1  0  0  0
  2 92  1  0  0  0
  3  4  1  0  0  0
  3 93  1  0  0  0
  3 94  1  0  0  0
  4  5  1  0  0  0
  4 95  1  0  0  0
  4 96  1  0  0  0
  5  6  1  0  0  0
  5 26  1  0  0  0
  5 97  1  0  0  0
  6 25  1  0  0  0
  6 98  1  0  0  0
  6 99  1  0  0  0
  7  8  2  0  0  0
  7 26  1  0  0  0
  7 29  1  0  0  0
  8  9  1  0  0  0
  8 22  1  0  0  0
  9 10  1  0  0  0
  9 27  2  0  0  0
 10 11  2  0  0  0
 10 15  1  0  0  0
 11 12  1  0  0  0
 11100  1  0  0  0
 12 13  2  0  0  0
 12101  1  0  0  0
 13 14  1  0  0  0
 13 31  1  0  0  0
 14 15  2  0  0  0
 14102  1  0  0  0
 15103  1  0  0  0
 16 17  2  0  0  0
 16 21  1  0  0  0
 16 31  1  0  0  0
 17 18  1  0  0  0
 17104  1  0  0  0
 18 19  2  0  0  0
 18105  1  0  0  0
 19 20  1  0  0  0
 19 24  1  0  0  0
 20 21  2  0  0  0
 20106  1  0  0  0
 21 23  1  0  0  0
 22 28  1  0  0  0
 22 32  2  0  0  0
 26 27  1  0  0  0
 28107  1  0  0  0
 28108  1  0  0  0
 29109  1  0  0  0
 29110  1  0  0  0
 33 34  1  0  0  0
 33 66  1  0  0  0
 33 70  2  0  0  0
 34 36  1  0  0  0
 34 59  1  0  0  0
 34111  1  0  0  0
 35 44  2  0  0  0
 35 45  1  0  0  0
 35 68  1  0  0  0
 36 56  1  0  0  0
 36112  1  0  0  0
 37 39  1  0  0  0
 37 47  1  0  0  0
 37 66  1  0  0  0
 37113  1  0  0  0
 38 43  2  0  0  0
 38 46  1  0  0  0
 38 47  1  0  0  0
 39 64  1  0  0  0
 39 67  2  0  0  0
 40 52  1  0  0  0
 40 53  2  0  0  0
 40 58  1  0  0  0
 41114  1  0  0  0
 41115  1  0  0  0
 41116  1  0  0  0
 41 48  1  0  0  0
 42 43  1  0  0  0
 42 66  1  0  0  0
 42117  1  0  0  0
 42118  1  0  0  0
 43 44  1  0  0  0
 44119  1  0  0  0
 45 46  2  0  0  0
 45120  1  0  0  0
 46121  1  0  0  0
 47122  1  0  0  0
 47123  1  0  0  0
 48 56  1  0  0  0
 48 65  1  0  0  0
 48124  1  0  0  0
 49 50  1  0  0  0
 49 53  1  0  0  0
 49 64  1  0  0  0
 49125  1  0  0  0
 50 51  1  0  0  0
 50126  1  0  0  0
 50127  1  0  0  0
 51 52  1  0  0  0
 51128  1  0  0  0
 51129  1  0  0  0
 52130  1  0  0  0
 52131  1  0  0  0
 53 54  1  0  0  0
 54 55  2  0  0  0
 54132  1  0  0  0
 55 57  1  0  0  0
 55133  1  0  0  0
 56 69  2  0  0  0
 57 58  2  0  0  0
 57134  1  0  0  0
 58135  1  0  0  0
 59 60  1  0  0  0
 59 61  1  0  0  0
 59 62  1  0  0  0
 60136  1  0  0  0
 60137  1  0  0  0
 60138  1  0  0  0
 61139  1  0  0  0
 61140  1  0  0  0
 61141  1  0  0  0
 62142  1  0  0  0
 62143  1  0  0  0
 62144  1  0  0  0
 63 65  1  0  0  0
 63145  1  0  0  0
 63146  1  0  0  0
 63147  1  0  0  0
 64148  1  0  0  0
 65149  1  0  0  0
 68 82  1  0  0  0
 71 72  2  0  0  0
 71 78  1  0  0  0
 71 85  1  0  0  0
 72 83  1  0  0  0
 72 86  1  0  0  0
 73 79  1  0  0  0
 73 85  2  0  0  0
 73 86  1  0  0  0
 74150  1  0  0  0
 74151  1  0  0  0
 74152  1  0  0  0
 74 84  1  0  0  0
 75 84  1  0  0  0
 75153  1  0  0  0
 75154  1  0  0  0
 75155  1  0  0  0
 76 84  1  0  0  0
 76156  1  0  0  0
 76157  1  0  0  0
 76158  1  0  0  0
 77 87  1  0  0  0
 77159  1  0  0  0
 77160  1  0  0  0
 77161  1  0  0  0
 78 81  1  0  0  0
 78162  1  0  0  0
 78163  1  0  0  0
 79 82  1  0  0  0
 79164  1  0  0  0
 79165  1  0  0  0
 80 84  1  0  0  0
 80 86  1  0  0  0
 80166  1  0  0  0
 80167  1  0  0  0
 81 87  1  0  0  0
 81168  1  0  0  0
 81169  1  0  0  0
 82170  1  0  0  0
 82171  1  0  0  0
 83 88  1  0  0  0
 83 89  1  0  0  0
 83 90  1  0  0  0
M  ISO  4   1 100  68 101  82 101  87 100
M  END
> <chiral flag>
0

> <version>
0

> <s_m_source_file>
/data/baiqing/PycharmProjects/Reinvent-master-3.2/result/LINK_invent/BTK/process_docking_weight1_custom_sum_contain_oxygen_bond_distance_aromatic_linkinvent_7_9_3/rearranged_h_0049.sdf

> <i_m_source_file_index>
29

> <r_mmod_Potential_Energy-OPLS-2005>
420.975921630859

> <r_mmod_Stretch_Energy-OPLS-2005>
131.604461669922

> <r_mmod_Bend_Energy-OPLS-2005>
201.382019042969

> <r_mmod_Torsional_Energy-OPLS-2005>
318.69189453125

> <r_mmod_Improper_Torsional_Energy-OPLS-2005>
11.6484622955322

> <r_mmod_Van_der_Waal_Energy-OPLS-2005>
137.373733520508

> <r_mmod_Electrostatic_Energy-OPLS-2005>
-283.969299316406

> <r_mmod_Solvation_Energy-OPLS-2005>
-200.58723449707

> <b_mmod_Minimization_Converged-OPLS-2005>
0

> <r_mmod_RMS_Derivative-OPLS-2005>
0.727235555648804

$$$$
30
                    3D
 Structure written by MMmdl.
173180  0  0  1  0            999 V2000
  -30.7422  -14.4414   20.6200 C   0  0  0  0  0  0
  -30.4125  -12.3139   19.4038 C   0  0  0  0  0  0
  -29.4760  -12.5133   18.1923 C   0  0  0  0  0  0
  -28.0002  -12.3700   18.6129 C   0  0  0  0  0  0
  -27.6605  -13.1998   19.8791 C   0  0  2  0  0  0
  -28.7058  -12.9406   20.9823 C   0  0  0  0  0  0
  -25.2604  -13.8135   20.5661 C   0  0  0  0  0  0
  -24.1856  -13.0442   20.9192 C   0  0  0  0  0  0
  -24.6403  -11.6898   20.8778 C   0  0  0  0  0  0
  -23.9059  -10.4294   21.0435 C   0  0  0  0  0  0
  -24.3614   -9.4203   21.9209 C   0  0  0  0  0  0
  -23.6290   -8.2240   22.0769 C   0  0  0  0  0  0
  -22.4281   -8.0284   21.3550 C   0  0  0  0  0  0
  -21.9915   -9.0260   20.4654 C   0  0  0  0  0  0
  -22.7239  -10.2142   20.3071 C   0  0  0  0  0  0
  -21.6854   -6.0736   22.5272 C   0  0  0  0  0  0
  -21.4023   -6.5639   23.8203 C   0  0  0  0  0  0
  -21.3656   -5.6802   24.9166 C   0  0  0  0  0  0
  -21.6040   -4.3062   24.7230 C   0  0  0  0  0  0
  -21.8818   -3.8151   23.4351 C   0  0  0  0  0  0
  -21.9197   -4.6962   22.3404 C   0  0  0  0  0  0
  -22.7882  -13.5234   21.1853 C   0  0  0  0  0  0
  -22.1662   -4.2141   21.0984 F   0  0  0  0  0  0
  -21.5624   -3.4546   25.7745 F   0  0  0  0  0  0
  -30.0290  -13.2896   20.4423 N   0  0  0  0  0  0
  -26.3037  -12.9290   20.3436 N   0  0  0  0  0  0
  -25.9335  -11.6461   20.5857 N   0  0  0  0  0  0
  -22.0531  -12.8219   22.0395 N   0  0  0  0  0  0
  -25.4322  -15.1832   20.3920 N   0  0  0  0  0  0
  -31.8491  -14.5839   20.0861 O   0  0  0  0  0  0
  -21.6641   -6.8883   21.4237 O   0  0  0  0  0  0
  -22.3557  -14.5562   20.6732 O   0  0  0  0  0  0
  -24.6144  -31.8685   23.2157 C   0  0  0  0  0  0
  -25.9039  -32.4826   23.8435 C   0  0  1  0  0  0
  -27.2297  -27.4409   20.0613 C   0  0  0  0  0  0
  -25.5907  -33.8634   24.2357 N   0  0  0  0  0  0
  -23.4004  -30.4925   21.5584 C   0  0  2  0  0  0
  -24.8416  -28.9637   20.1189 C   0  0  0  0  0  0
  -22.7405  -29.4636   22.5044 C   0  0  0  0  0  0
  -18.0268  -28.1320   22.8500 C   0  0  0  0  0  0
  -24.1478  -36.7308   23.2643 C   0  0  0  0  0  0
  -25.9321  -30.8286   21.3747 C   0  0  0  0  0  0
  -26.0039  -29.4665   20.7152 C   0  0  0  0  0  0
  -27.1966  -28.7080   20.6906 C   0  0  0  0  0  0
  -26.0391  -26.9531   19.4687 C   0  0  0  0  0  0
  -24.8519  -27.7044   19.5008 C   0  0  0  0  0  0
  -23.6059  -29.8313   20.1718 C   0  0  0  0  0  0
  -25.4101  -36.3109   24.0341 C   0  0  1  0  0  0
  -20.5855  -28.3596   23.1350 C   0  0  2  0  0  0
  -20.6753  -26.9346   22.5418 C   0  0  0  0  0  0
  -19.5739  -26.6353   21.5197 C   0  0  0  0  0  0
  -18.1911  -26.7879   22.1613 C   0  0  0  0  0  0
  -19.1515  -28.8775   23.2912 C   0  0  0  0  0  0
  -18.9424  -30.1386   23.8919 C   0  0  0  0  0  0
  -17.6428  -30.6550   24.0547 C   0  0  0  0  0  0
  -25.9036  -34.9466   23.5141 C   0  0  0  0  0  0
  -16.5332  -29.9050   23.6313 C   0  0  0  0  0  0
  -16.7267  -28.6470   23.0340 C   0  0  0  0  0  0
  -26.4478  -31.6621   25.0773 C   0  0  0  0  0  0
  -25.3772  -31.3704   26.1538 C   0  0  0  0  0  0
  -27.0322  -30.3066   24.6178 C   0  0  0  0  0  0
  -27.6053  -32.4354   25.7521 C   0  0  0  0  0  0
  -27.5577  -37.1804   24.8472 C   0  0  0  0  0  0
  -21.4134  -29.2994   22.3777 N   0  0  0  0  0  0
  -26.4290  -37.3790   23.9419 N   0  0  0  0  0  0
  -24.6672  -31.0775   22.1072 N   0  0  0  0  0  0
  -23.4189  -28.8173   23.3071 O   0  0  0  0  0  0
  -28.4201  -26.7366   20.0484 O   0  0  0  0  0  0
  -26.5584  -34.8912   22.4696 O   0  0  0  0  0  0
  -23.5335  -32.1448   23.7541 O   0  0  0  0  0  0
  -27.9878  -15.4534   24.4120 C   0  0  0  0  0  0
  -26.0796  -20.5030   21.1653 C   0  0  0  0  0  0
  -29.7020  -19.6275   21.8655 C   0  0  0  0  0  0
  -28.3883  -15.8681   22.9912 C   0  0  0  0  0  0
  -27.8862  -23.0989   18.8819 C   0  0  0  0  0  0
  -27.9784  -24.2901   19.8666 C   0  0  0  0  0  0
  -26.8763  -22.0026   19.2922 C   0  0  0  0  0  0
  -29.3535  -17.7260   20.0944 C   0  0  0  0  0  0
  -29.8349  -15.4615   22.6484 C   0  0  0  0  0  0
  -30.4894  -16.8893   20.7573 C   0  0  0  0  0  0
  -28.5411  -25.5763   19.2132 C   0  0  0  0  0  0
  -27.3214  -21.0409   20.4246 C   0  0  2  0  0  0
  -28.7422  -18.9463   20.8626 C   0  0  2  0  0  0
  -30.1183  -15.5122   21.2000 N   0  0  0  0  0  0
  -28.1774  -19.9365   19.8944 N   0  3  0  0  0  0
  -31.4532  -12.4094   19.0920 H   0  0  0  0  0  0
  -30.3213  -11.2985   19.7932 H   0  0  0  0  0  0
  -29.7122  -11.7861   17.4141 H   0  0  0  0  0  0
  -29.6341  -13.4968   17.7489 H   0  0  0  0  0  0
  -27.8139  -11.3135   18.8087 H   0  0  0  0  0  0
  -27.3356  -12.6446   17.7918 H   0  0  0  0  0  0
  -27.7152  -14.2520   19.6044 H   0  0  0  0  0  0
  -28.6980  -11.8851   21.2594 H   0  0  0  0  0  0
  -28.4471  -13.4522   21.8992 H   0  0  0  0  0  0
  -25.2758   -9.5672   22.4783 H   0  0  0  0  0  0
  -24.0005   -7.4623   22.7492 H   0  0  0  0  0  0
  -21.0845   -8.8775   19.8944 H   0  0  0  0  0  0
  -22.3710  -10.9692   19.6182 H   0  0  0  0  0  0
  -21.2025   -7.6150   23.9690 H   0  0  0  0  0  0
  -21.1473   -6.0547   25.9063 H   0  0  0  0  0  0
  -22.0608   -2.7613   23.2862 H   0  0  0  0  0  0
  -22.4146  -11.9840   22.4705 H   0  0  0  0  0  0
  -21.1160  -13.1243   22.2639 H   0  0  0  0  0  0
  -24.6629  -15.8369   20.4734 H   0  0  0  0  0  0
  -26.2830  -15.6034   20.0423 H   0  0  0  0  0  0
  -26.7110  -32.5523   23.1185 H   0  0  0  0  0  0
  -25.0044  -33.9812   25.0486 H   0  0  0  0  0  0
  -22.6881  -31.3106   21.4261 H   0  0  0  0  0  0
  -23.3738  -35.9649   23.3319 H   0  0  0  0  0  0
  -24.3575  -36.8899   22.2060 H   0  0  0  0  0  0
  -23.7235  -37.6516   23.6647 H   0  0  0  0  0  0
  -26.0580  -31.6002   20.6141 H   0  0  0  0  0  0
  -26.8161  -30.8687   22.0000 H   0  0  0  0  0  0
  -28.0976  -29.0968   21.1433 H   0  0  0  0  0  0
  -25.9971  -25.9972   18.9697 H   0  0  0  0  0  0
  -23.9561  -27.3139   19.0380 H   0  0  0  0  0  0
  -23.7159  -30.6101   19.4159 H   0  0  0  0  0  0
  -22.7275  -29.2553   19.8755 H   0  0  0  0  0  0
  -25.1276  -36.1971   25.0837 H   0  0  0  0  0  0
  -20.9924  -28.3097   24.1483 H   0  0  0  0  0  0
  -20.5662  -26.2210   23.3592 H   0  0  0  0  0  0
  -21.6618  -26.7397   22.1177 H   0  0  0  0  0  0
  -19.6702  -27.3198   20.6763 H   0  0  0  0  0  0
  -19.6927  -25.6286   21.1181 H   0  0  0  0  0  0
  -17.4181  -26.6635   21.4007 H   0  0  0  0  0  0
  -18.0324  -26.0024   22.9017 H   0  0  0  0  0  0
  -19.7885  -30.7210   24.2304 H   0  0  0  0  0  0
  -17.4973  -31.6242   24.5126 H   0  0  0  0  0  0
  -15.5327  -30.2950   23.7625 H   0  0  0  0  0  0
  -15.8673  -28.0792   22.7046 H   0  0  0  0  0  0
  -24.5922  -30.7081   25.7870 H   0  0  0  0  0  0
  -24.8999  -32.2851   26.5069 H   0  0  0  0  0  0
  -25.8150  -30.8810   27.0249 H   0  0  0  0  0  0
  -26.2874  -29.6820   24.1240 H   0  0  0  0  0  0
  -27.4073  -29.7319   25.4655 H   0  0  0  0  0  0
  -27.8723  -30.4375   23.9358 H   0  0  0  0  0  0
  -27.2664  -33.3625   26.2157 H   0  0  0  0  0  0
  -28.3824  -32.6967   25.0329 H   0  0  0  0  0  0
  -28.0783  -31.8466   26.5383 H   0  0  0  0  0  0
  -28.2593  -38.0098   24.7499 H   0  0  0  0  0  0
  -28.1061  -36.2620   24.6307 H   0  0  0  0  0  0
  -27.2303  -37.1474   25.8878 H   0  0  0  0  0  0
  -20.9277  -29.8729   21.7030 H   0  0  0  0  0  0
  -26.0168  -38.2865   24.1425 H   0  0  0  0  0  0
  -28.6688  -15.8713   25.1530 H   0  0  0  0  0  0
  -28.0018  -14.3688   24.5228 H   0  0  0  0  0  0
  -26.9802  -15.7969   24.6519 H   0  0  0  0  0  0
  -25.4981  -19.8194   20.5463 H   0  0  0  0  0  0
  -25.4202  -21.3203   21.4564 H   0  0  0  0  0  0
  -26.3457  -19.9890   22.0885 H   0  0  0  0  0  0
  -29.2219  -20.4440   22.3995 H   0  0  0  0  0  0
  -30.5924  -20.0248   21.3783 H   0  0  0  0  0  0
  -30.0164  -18.9390   22.6497 H   0  0  0  0  0  0
  -28.2888  -16.9473   22.9089 H   0  0  0  0  0  0
  -27.6781  -15.4496   22.2769 H   0  0  0  0  0  0
  -28.8754  -22.6752   18.7033 H   0  0  0  0  0  0
  -27.5551  -23.4856   17.9166 H   0  0  0  0  0  0
  -28.5958  -24.0152   20.7220 H   0  0  0  0  0  0
  -26.9903  -24.4943   20.2771 H   0  0  0  0  0  0
  -26.5917  -21.4226   18.4124 H   0  0  0  0  0  0
  -25.9561  -22.5111   19.5853 H   0  0  0  0  0  0
  -29.7663  -18.1011   19.1562 H   0  0  0  0  0  0
  -28.5464  -17.0601   19.7832 H   0  0  0  0  0  0
  -30.5252  -16.1036   23.1968 H   0  0  0  0  0  0
  -30.0438  -14.4656   23.0454 H   0  0  0  0  0  0
  -31.0049  -17.4187   21.5524 H   0  0  0  0  0  0
  -31.2725  -16.8487   19.9985 H   0  0  0  0  0  0
  -28.0869  -25.7625   18.2386 H   0  0  0  0  0  0
  -29.6013  -25.4288   19.0050 H   0  0  0  0  0  0
  -27.8979  -21.6304   21.1379 H   0  0  0  0  0  0
  -27.9088  -18.5464   21.4365 H   0  0  0  0  0  0
  -28.9461  -20.3550   19.3946 H   0  0  0  0  0  0
  -27.6340  -19.4297   19.2133 H   0  0  0  0  0  0
  1 25  1  0  0  0
  1 30  2  0  0  0
  1 84  1  0  0  0
  2  3  1  0  0  0
  2 25  1  0  0  0
  2 86  1  0  0  0
  2 87  1  0  0  0
  3  4  1  0  0  0
  3 88  1  0  0  0
  3 89  1  0  0  0
  4  5  1  0  0  0
  4 90  1  0  0  0
  4 91  1  0  0  0
  5  6  1  0  0  0
  5 26  1  0  0  0
  5 92  1  0  0  0
  6 25  1  0  0  0
  6 93  1  0  0  0
  6 94  1  0  0  0
  7  8  2  0  0  0
  7 26  1  0  0  0
  7 29  1  0  0  0
  8  9  1  0  0  0
  8 22  1  0  0  0
  9 10  1  0  0  0
  9 27  2  0  0  0
 10 11  2  0  0  0
 10 15  1  0  0  0
 11 12  1  0  0  0
 11 95  1  0  0  0
 12 13  2  0  0  0
 12 96  1  0  0  0
 13 14  1  0  0  0
 13 31  1  0  0  0
 14 15  2  0  0  0
 14 97  1  0  0  0
 15 98  1  0  0  0
 16 17  2  0  0  0
 16 21  1  0  0  0
 16 31  1  0  0  0
 17 18  1  0  0  0
 17 99  1  0  0  0
 18 19  2  0  0  0
 18100  1  0  0  0
 19 20  1  0  0  0
 19 24  1  0  0  0
 20 21  2  0  0  0
 20101  1  0  0  0
 21 23  1  0  0  0
 22 28  1  0  0  0
 22 32  2  0  0  0
 26 27  1  0  0  0
 28102  1  0  0  0
 28103  1  0  0  0
 29104  1  0  0  0
 29105  1  0  0  0
 33 34  1  0  0  0
 33 66  1  0  0  0
 33 70  2  0  0  0
 34 36  1  0  0  0
 34 59  1  0  0  0
 34106  1  0  0  0
 35 44  2  0  0  0
 35 45  1  0  0  0
 35 68  1  0  0  0
 36 56  1  0  0  0
 36107  1  0  0  0
 37 39  1  0  0  0
 37 47  1  0  0  0
 37 66  1  0  0  0
 37108  1  0  0  0
 38 43  2  0  0  0
 38 46  1  0  0  0
 38 47  1  0  0  0
 39 64  1  0  0  0
 39 67  2  0  0  0
 40 52  1  0  0  0
 40 53  2  0  0  0
 40 58  1  0  0  0
 41109  1  0  0  0
 41110  1  0  0  0
 41111  1  0  0  0
 41 48  1  0  0  0
 42 43  1  0  0  0
 42 66  1  0  0  0
 42112  1  0  0  0
 42113  1  0  0  0
 43 44  1  0  0  0
 44114  1  0  0  0
 45 46  2  0  0  0
 45115  1  0  0  0
 46116  1  0  0  0
 47117  1  0  0  0
 47118  1  0  0  0
 48 56  1  0  0  0
 48 65  1  0  0  0
 48119  1  0  0  0
 49 50  1  0  0  0
 49 53  1  0  0  0
 49 64  1  0  0  0
 49120  1  0  0  0
 50 51  1  0  0  0
 50121  1  0  0  0
 50122  1  0  0  0
 51 52  1  0  0  0
 51123  1  0  0  0
 51124  1  0  0  0
 52125  1  0  0  0
 52126  1  0  0  0
 53 54  1  0  0  0
 54 55  2  0  0  0
 54127  1  0  0  0
 55 57  1  0  0  0
 55128  1  0  0  0
 56 69  2  0  0  0
 57 58  2  0  0  0
 57129  1  0  0  0
 58130  1  0  0  0
 59 60  1  0  0  0
 59 61  1  0  0  0
 59 62  1  0  0  0
 60131  1  0  0  0
 60132  1  0  0  0
 60133  1  0  0  0
 61134  1  0  0  0
 61135  1  0  0  0
 61136  1  0  0  0
 62137  1  0  0  0
 62138  1  0  0  0
 62139  1  0  0  0
 63 65  1  0  0  0
 63140  1  0  0  0
 63141  1  0  0  0
 63142  1  0  0  0
 64143  1  0  0  0
 65144  1  0  0  0
 68 81  1  0  0  0
 71 74  1  0  0  0
 71145  1  0  0  0
 71146  1  0  0  0
 71147  1  0  0  0
 72148  1  0  0  0
 72149  1  0  0  0
 72150  1  0  0  0
 72 82  1  0  0  0
 73151  1  0  0  0
 73152  1  0  0  0
 73153  1  0  0  0
 73 83  1  0  0  0
 74 79  1  0  0  0
 74154  1  0  0  0
 74155  1  0  0  0
 75 76  1  0  0  0
 75 77  1  0  0  0
 75156  1  0  0  0
 75157  1  0  0  0
 76 81  1  0  0  0
 76158  1  0  0  0
 76159  1  0  0  0
 77 82  1  0  0  0
 77160  1  0  0  0
 77161  1  0  0  0
 78 80  1  0  0  0
 78 83  1  0  0  0
 78162  1  0  0  0
 78163  1  0  0  0
 79 84  1  0  0  0
 79164  1  0  0  0
 79165  1  0  0  0
 80 84  1  0  0  0
 80166  1  0  0  0
 80167  1  0  0  0
 81168  1  0  0  0
 81169  1  0  0  0
 82 85  1  0  0  0
 82170  1  0  0  0
 83 85  1  0  0  0
 83171  1  0  0  0
 85172  1  0  0  0
 85173  1  0  0  0
M  CHG  1  85   1
M  ISO  4   1 100  68 101  81 101  84 100
M  END
> <chiral flag>
0

> <version>
0

> <s_m_source_file>
/data/baiqing/PycharmProjects/Reinvent-master-3.2/result/LINK_invent/BTK/process_docking_weight1_custom_sum_contain_oxygen_bond_distance_aromatic_linkinvent_7_9_3/rearranged_h_0049.sdf

> <i_m_source_file_index>
30

> <r_mmod_Potential_Energy-OPLS-2005>
76.4463424682617

> <r_mmod_Stretch_Energy-OPLS-2005>
44.3759651184082

> <r_mmod_Bend_Energy-OPLS-2005>
127.17147064209

> <r_mmod_Torsional_Energy-OPLS-2005>
306.541687011719

> <r_mmod_Improper_Torsional_Energy-OPLS-2005>
8.30139636993408

> <r_mmod_Van_der_Waal_Energy-OPLS-2005>
147.230728149414

> <r_mmod_Electrostatic_Energy-OPLS-2005>
-136.219024658203

> <r_mmod_Solvation_Energy-OPLS-2005>
-432.668823242188

> <b_mmod_Minimization_Converged-OPLS-2005>
0

> <r_mmod_RMS_Derivative-OPLS-2005>
2.96061515808105

$$$$
31
                    3D
 Structure written by MMmdl.
176184  0  0  1  0            999 V2000
  -30.4374  -15.1865   20.3772 C   0  0  0  0  0  0
  -30.4496  -12.7399   19.5315 C   0  0  0  0  0  0
  -29.5392  -12.5651   18.2877 C   0  0  0  0  0  0
  -28.0809  -12.3073   18.7076 C   0  0  0  0  0  0
  -27.6225  -13.2685   19.8323 C   0  0  2  0  0  0
  -28.6572  -13.3935   20.9699 C   0  0  0  0  0  0
  -25.2412  -13.8229   20.5620 C   0  0  0  0  0  0
  -24.1774  -13.0443   20.9222 C   0  0  0  0  0  0
  -24.6433  -11.6937   20.8798 C   0  0  0  0  0  0
  -23.9115  -10.4303   21.0439 C   0  0  0  0  0  0
  -24.3657   -9.4209   21.9207 C   0  0  0  0  0  0
  -23.6317   -8.2248   22.0765 C   0  0  0  0  0  0
  -22.4300   -8.0303   21.3551 C   0  0  0  0  0  0
  -21.9948   -9.0278   20.4653 C   0  0  0  0  0  0
  -22.7289  -10.2149   20.3079 C   0  0  0  0  0  0
  -21.6857   -6.0753   22.5276 C   0  0  0  0  0  0
  -21.4012   -6.5652   23.8209 C   0  0  0  0  0  0
  -21.3655   -5.6801   24.9167 C   0  0  0  0  0  0
  -21.6044   -4.3064   24.7211 C   0  0  0  0  0  0
  -21.8822   -3.8158   23.4334 C   0  0  0  0  0  0
  -21.9195   -4.6978   22.3394 C   0  0  0  0  0  0
  -22.7798  -13.5206   21.1880 C   0  0  0  0  0  0
  -22.1667   -4.2165   21.0972 F   0  0  0  0  0  0
  -21.5626   -3.4546   25.7724 F   0  0  0  0  0  0
  -29.9145  -13.8680   20.3712 N   0  0  0  0  0  0
  -26.2883  -12.9506   20.3259 N   0  0  0  0  0  0
  -25.9383  -11.6621   20.5800 N   0  0  0  0  0  0
  -22.0484  -12.8183   22.0454 N   0  0  0  0  0  0
  -25.3942  -15.1932   20.3736 N   0  0  0  0  0  0
  -31.6407  -15.2240   20.0826 O   0  0  0  0  0  0
  -21.6662   -6.8900   21.4241 O   0  0  0  0  0  0
  -22.3457  -14.5495   20.6717 O   0  0  0  0  0  0
  -24.6577  -31.8257   23.1747 C   0  0  0  0  0  0
  -25.9273  -32.4614   23.8194 C   0  0  1  0  0  0
  -27.2236  -26.9775   20.1953 C   0  0  0  0  0  0
  -25.5961  -33.8422   24.2098 N   0  0  0  0  0  0
  -23.4711  -30.4382   21.5221 C   0  0  2  0  0  0
  -24.9239  -28.8274   20.1226 C   0  0  0  0  0  0
  -22.7644  -29.4436   22.4793 C   0  0  0  0  0  0
  -18.0312  -28.1405   22.8484 C   0  0  0  0  0  0
  -24.1465  -36.7186   23.2659 C   0  0  0  0  0  0
  -26.0368  -30.6523   21.3947 C   0  0  0  0  0  0
  -26.1058  -29.2430   20.7477 C   0  0  0  0  0  0
  -27.2572  -28.3423   20.7482 C   0  0  0  0  0  0
  -26.0068  -26.6878   19.5425 C   0  0  0  0  0  0
  -24.8944  -27.5678   19.5023 C   0  0  0  0  0  0
  -23.7095  -29.7524   20.1488 C   0  0  0  0  0  0
  -25.4112  -36.2961   24.0311 C   0  0  1  0  0  0
  -20.5936  -28.3726   23.1204 C   0  0  2  0  0  0
  -20.6776  -26.9413   22.5394 C   0  0  0  0  0  0
  -19.5748  -26.6355   21.5212 C   0  0  0  0  0  0
  -18.1933  -26.7955   22.1616 C   0  0  0  0  0  0
  -19.1580  -28.8892   23.2828 C   0  0  0  0  0  0
  -18.9501  -30.1497   23.8844 C   0  0  0  0  0  0
  -17.6495  -30.6603   24.0564 C   0  0  0  0  0  0
  -25.9075  -34.9360   23.5011 C   0  0  0  0  0  0
  -16.5380  -29.9096   23.6360 C   0  0  0  0  0  0
  -16.7293  -28.6513   23.0378 C   0  0  0  0  0  0
  -26.4548  -31.6575   25.0719 C   0  0  0  0  0  0
  -25.3701  -31.3815   26.1389 C   0  0  0  0  0  0
  -27.0466  -30.2965   24.6422 C   0  0  0  0  0  0
  -27.6027  -32.4407   25.7518 C   0  0  0  0  0  0
  -27.5542  -37.1737   24.8477 C   0  0  0  0  0  0
  -21.4313  -29.3035   22.3569 N   0  0  0  0  0  0
  -26.4242  -37.3705   23.9440 N   0  0  0  0  0  0
  -24.7431  -30.9985   22.0847 N   0  0  0  0  0  0
  -23.4229  -28.7974   23.2982 O   0  0  0  0  0  0
  -28.2902  -25.9577   20.1323 O   0  0  0  0  0  0
  -26.5667  -34.8896   22.4598 O   0  0  0  0  0  0
  -23.5648  -32.1184   23.6872 O   0  0  0  0  0  0
  -25.9689  -17.0654   23.1558 C   0  0  0  0  0  0
  -26.7662  -18.1434   23.6012 C   0  0  0  0  0  0
  -27.1460  -15.6147   24.5132 C   0  0  0  0  0  0
  -27.9468  -16.6999   24.9725 C   0  0  0  0  0  0
  -26.2751  -13.7477   26.0109 C   0  0  0  0  0  0
  -28.6926  -16.6375   27.4115 C   0  0  0  0  0  0
  -26.5396  -19.5551   23.0696 C   0  0  0  0  0  0
  -27.3170  -14.1693   24.9644 C   0  0  0  0  0  0
  -29.1117  -16.5390   25.9411 C   0  0  0  0  0  0
  -29.5844  -16.6774   20.6389 C   0  0  0  0  0  0
  -27.8132  -20.4004   22.8203 C   0  0  0  0  0  0
  -28.3517  -22.7580   20.0358 C   0  0  0  0  0  0
  -29.8863  -18.3819   20.1912 C   0  0  0  0  0  0
  -29.0143  -19.7016   22.1416 C   0  0  0  0  0  0
  -29.3854  -21.3100   20.2195 C   0  0  0  0  0  0
  -28.3617  -24.4205   20.6708 C   0  0  0  0  0  0
  -26.1501  -15.8075   23.6169 N   0  0  0  0  0  0
  -27.7250  -17.9681   24.5442 N   0  0  0  0  0  0
  -29.0526  -19.7441   20.6547 N   0  3  1  0  0  0
  -31.4754  -12.9255   19.2099 H   0  0  0  0  0  0
  -30.4894  -11.8175   20.1121 H   0  0  0  0  0  0
  -29.8995  -11.7443   17.6659 H   0  0  0  0  0  0
  -29.5879  -13.4642   17.6713 H   0  0  0  0  0  0
  -28.0166  -11.2762   19.0594 H   0  0  0  0  0  0
  -27.4132  -12.3789   17.8475 H   0  0  0  0  0  0
  -27.5561  -14.2488   19.3600 H   0  0  0  0  0  0
  -28.7938  -12.4454   21.4916 H   0  0  0  0  0  0
  -28.3117  -14.1101   21.7174 H   0  0  0  0  0  0
  -25.2802   -9.5680   22.4784 H   0  0  0  0  0  0
  -24.0023   -7.4640   22.7483 H   0  0  0  0  0  0
  -21.0880   -8.8804   19.8954 H   0  0  0  0  0  0
  -22.3751  -10.9697   19.6195 H   0  0  0  0  0  0
  -21.2007   -7.6163   23.9708 H   0  0  0  0  0  0
  -21.1469   -6.0533   25.9064 H   0  0  0  0  0  0
  -22.0602   -2.7620   23.2823 H   0  0  0  0  0  0
  -22.4142  -11.9854   22.4824 H   0  0  0  0  0  0
  -21.1099  -13.1181   22.2700 H   0  0  0  0  0  0
  -24.6116  -15.8287   20.4755 H   0  0  0  0  0  0
  -26.2413  -15.6441   20.0584 H   0  0  0  0  0  0
  -26.7350  -32.5146   23.0916 H   0  0  0  0  0  0
  -25.0153  -33.9540   25.0272 H   0  0  0  0  0  0
  -22.7824  -31.2681   21.3515 H   0  0  0  0  0  0
  -23.3749  -35.9489   23.3289 H   0  0  0  0  0  0
  -24.3534  -36.8847   22.2075 H   0  0  0  0  0  0
  -23.7192  -37.6353   23.6729 H   0  0  0  0  0  0
  -26.2117  -31.3945   20.6150 H   0  0  0  0  0  0
  -26.9008  -30.7082   22.0450 H   0  0  0  0  0  0
  -28.1678  -28.6763   21.2241 H   0  0  0  0  0  0
  -25.9061  -25.7262   19.0607 H   0  0  0  0  0  0
  -23.9931  -27.2420   19.0009 H   0  0  0  0  0  0
  -23.8681  -30.5196   19.3906 H   0  0  0  0  0  0
  -22.8217  -29.2041   19.8280 H   0  0  0  0  0  0
  -25.1306  -36.1737   25.0796 H   0  0  0  0  0  0
  -21.0029  -28.3292   24.1318 H   0  0  0  0  0  0
  -20.5651  -26.2328   23.3618 H   0  0  0  0  0  0
  -21.6639  -26.7365   22.1201 H   0  0  0  0  0  0
  -19.6895  -25.6243   21.1280 H   0  0  0  0  0  0
  -19.6713  -27.3147   20.6739 H   0  0  0  0  0  0
  -17.4201  -26.6723   21.4015 H   0  0  0  0  0  0
  -18.0304  -26.0116   22.9023 H   0  0  0  0  0  0
  -19.7980  -30.7336   24.2162 H   0  0  0  0  0  0
  -17.5055  -31.6293   24.5157 H   0  0  0  0  0  0
  -15.5385  -30.2988   23.7731 H   0  0  0  0  0  0
  -15.8684  -28.0826   22.7120 H   0  0  0  0  0  0
  -24.5881  -30.7171   25.7699 H   0  0  0  0  0  0
  -24.8911  -32.3028   26.4711 H   0  0  0  0  0  0
  -25.7947  -30.9040   27.0232 H   0  0  0  0  0  0
  -26.3143  -29.6648   24.1390 H   0  0  0  0  0  0
  -27.4005  -29.7310   25.5051 H   0  0  0  0  0  0
  -27.9062  -30.4191   23.9834 H   0  0  0  0  0  0
  -27.2580  -33.3762   26.1944 H   0  0  0  0  0  0
  -28.3919  -32.6890   25.0412 H   0  0  0  0  0  0
  -28.0625  -31.8656   26.5570 H   0  0  0  0  0  0
  -28.2524  -38.0063   24.7523 H   0  0  0  0  0  0
  -28.1050  -36.2577   24.6274 H   0  0  0  0  0  0
  -27.2264  -37.1351   25.8882 H   0  0  0  0  0  0
  -20.9535  -29.8778   21.6766 H   0  0  0  0  0  0
  -26.0064  -38.2730   24.1527 H   0  0  0  0  0  0
  -25.1823  -17.2112   22.4291 H   0  0  0  0  0  0
  -26.4030  -12.7002   26.2856 H   0  0  0  0  0  0
  -25.2615  -13.8672   25.6285 H   0  0  0  0  0  0
  -26.3594  -14.3402   26.9209 H   0  0  0  0  0  0
  -29.5523  -16.5043   28.0681 H   0  0  0  0  0  0
  -27.9636  -15.8701   27.6680 H   0  0  0  0  0  0
  -28.2528  -17.6101   27.6299 H   0  0  0  0  0  0
  -25.8869  -20.0792   23.7680 H   0  0  0  0  0  0
  -25.9758  -19.4834   22.1386 H   0  0  0  0  0  0
  -28.3180  -13.9832   25.3457 H   0  0  0  0  0  0
  -27.2200  -13.5243   24.0898 H   0  0  0  0  0  0
  -29.8438  -17.3214   25.7355 H   0  0  0  0  0  0
  -29.6433  -15.6077   25.7538 H   0  0  0  0  0  0
  -28.5830  -16.4599   20.2707 H   0  0  0  0  0  0
  -29.4706  -16.6698   21.7216 H   0  0  0  0  0  0
  -28.1661  -20.6945   23.8095 H   0  0  0  0  0  0
  -27.5583  -21.3386   22.3307 H   0  0  0  0  0  0
  -27.3299  -22.4086   20.1762 H   0  0  0  0  0  0
  -28.3802  -22.9295   18.9603 H   0  0  0  0  0  0
  -29.8942  -18.4116   19.1011 H   0  0  0  0  0  0
  -30.9240  -18.5790   20.4643 H   0  0  0  0  0  0
  -29.0876  -18.6771   22.4891 H   0  0  0  0  0  0
  -29.9344  -20.1621   22.5052 H   0  0  0  0  0  0
  -30.2586  -21.6216   20.7923 H   0  0  0  0  0  0
  -29.7988  -21.1742   19.2196 H   0  0  0  0  0  0
  -29.3162  -24.4506   21.1958 H   0  0  0  0  0  0
  -27.6405  -24.4054   21.4886 H   0  0  0  0  0  0
  -28.1184  -19.5741   20.3148 H   0  0  0  0  0  0
  1 25  1  0  0  0
  1 30  2  0  0  0
  1 80  1  0  0  0
  2  3  1  0  0  0
  2 25  1  0  0  0
  2 90  1  0  0  0
  2 91  1  0  0  0
  3  4  1  0  0  0
  3 92  1  0  0  0
  3 93  1  0  0  0
  4  5  1  0  0  0
  4 94  1  0  0  0
  4 95  1  0  0  0
  5  6  1  0  0  0
  5 26  1  0  0  0
  5 96  1  0  0  0
  6 25  1  0  0  0
  6 97  1  0  0  0
  6 98  1  0  0  0
  7  8  2  0  0  0
  7 26  1  0  0  0
  7 29  1  0  0  0
  8  9  1  0  0  0
  8 22  1  0  0  0
  9 10  1  0  0  0
  9 27  2  0  0  0
 10 11  2  0  0  0
 10 15  1  0  0  0
 11 12  1  0  0  0
 11 99  1  0  0  0
 12 13  2  0  0  0
 12100  1  0  0  0
 13 14  1  0  0  0
 13 31  1  0  0  0
 14 15  2  0  0  0
 14101  1  0  0  0
 15102  1  0  0  0
 16 17  2  0  0  0
 16 21  1  0  0  0
 16 31  1  0  0  0
 17 18  1  0  0  0
 17103  1  0  0  0
 18 19  2  0  0  0
 18104  1  0  0  0
 19 20  1  0  0  0
 19 24  1  0  0  0
 20 21  2  0  0  0
 20105  1  0  0  0
 21 23  1  0  0  0
 22 28  1  0  0  0
 22 32  2  0  0  0
 26 27  1  0  0  0
 28106  1  0  0  0
 28107  1  0  0  0
 29108  1  0  0  0
 29109  1  0  0  0
 33 34  1  0  0  0
 33 66  1  0  0  0
 33 70  2  0  0  0
 34 36  1  0  0  0
 34 59  1  0  0  0
 34110  1  0  0  0
 35 44  2  0  0  0
 35 45  1  0  0  0
 35 68  1  0  0  0
 36 56  1  0  0  0
 36111  1  0  0  0
 37 39  1  0  0  0
 37 47  1  0  0  0
 37 66  1  0  0  0
 37112  1  0  0  0
 38 43  2  0  0  0
 38 46  1  0  0  0
 38 47  1  0  0  0
 39 64  1  0  0  0
 39 67  2  0  0  0
 40 52  1  0  0  0
 40 53  2  0  0  0
 40 58  1  0  0  0
 41113  1  0  0  0
 41114  1  0  0  0
 41115  1  0  0  0
 41 48  1  0  0  0
 42 43  1  0  0  0
 42 66  1  0  0  0
 42116  1  0  0  0
 42117  1  0  0  0
 43 44  1  0  0  0
 44118  1  0  0  0
 45 46  2  0  0  0
 45119  1  0  0  0
 46120  1  0  0  0
 47121  1  0  0  0
 47122  1  0  0  0
 48 56  1  0  0  0
 48 65  1  0  0  0
 48123  1  0  0  0
 49 50  1  0  0  0
 49 53  1  0  0  0
 49 64  1  0  0  0
 49124  1  0  0  0
 50 51  1  0  0  0
 50125  1  0  0  0
 50126  1  0  0  0
 51 52  1  0  0  0
 51127  1  0  0  0
 51128  1  0  0  0
 52129  1  0  0  0
 52130  1  0  0  0
 53 54  1  0  0  0
 54 55  2  0  0  0
 54131  1  0  0  0
 55 57  1  0  0  0
 55132  1  0  0  0
 56 69  2  0  0  0
 57 58  2  0  0  0
 57133  1  0  0  0
 58134  1  0  0  0
 59 60  1  0  0  0
 59 61  1  0  0  0
 59 62  1  0  0  0
 60135  1  0  0  0
 60136  1  0  0  0
 60137  1  0  0  0
 61138  1  0  0  0
 61139  1  0  0  0
 61140  1  0  0  0
 62141  1  0  0  0
 62142  1  0  0  0
 62143  1  0  0  0
 63 65  1  0  0  0
 63144  1  0  0  0
 63145  1  0  0  0
 63146  1  0  0  0
 64147  1  0  0  0
 65148  1  0  0  0
 68 86  1  0  0  0
 71 72  2  0  0  0
 71 87  1  0  0  0
 71149  1  0  0  0
 72 77  1  0  0  0
 72 88  1  0  0  0
 73 74  1  0  0  0
 73 78  1  0  0  0
 73 87  2  0  0  0
 74 79  1  0  0  0
 74 88  2  0  0  0
 75 78  1  0  0  0
 75150  1  0  0  0
 75151  1  0  0  0
 75152  1  0  0  0
 76 79  1  0  0  0
 76153  1  0  0  0
 76154  1  0  0  0
 76155  1  0  0  0
 77 81  1  0  0  0
 77156  1  0  0  0
 77157  1  0  0  0
 78158  1  0  0  0
 78159  1  0  0  0
 79160  1  0  0  0
 79161  1  0  0  0
 80 83  1  0  0  0
 80162  1  0  0  0
 80163  1  0  0  0
 81 84  1  0  0  0
 81164  1  0  0  0
 81165  1  0  0  0
 82 85  1  0  0  0
 82 86  1  0  0  0
 82166  1  0  0  0
 82167  1  0  0  0
 83168  1  0  0  0
 83169  1  0  0  0
 83 89  1  0  0  0
 84 89  1  0  0  0
 84170  1  0  0  0
 84171  1  0  0  0
 85 89  1  0  0  0
 85172  1  0  0  0
 85173  1  0  0  0
 86174  1  0  0  0
 86175  1  0  0  0
 89176  1  0  0  0
M  CHG  1  89   1
M  ISO  4   1 100  68 101  80 100  86 101
M  END
> <chiral flag>
0

> <version>
0

> <s_m_source_file>
/data/baiqing/PycharmProjects/Reinvent-master-3.2/result/LINK_invent/BTK/process_docking_weight1_custom_sum_contain_oxygen_bond_distance_aromatic_linkinvent_7_9_3/rearranged_h_0049.sdf

> <i_m_source_file_index>
31

> <r_mmod_Potential_Energy-OPLS-2005>
1108.56262207031

> <r_mmod_Stretch_Energy-OPLS-2005>
559.949584960938

> <r_mmod_Bend_Energy-OPLS-2005>
479.522033691406

> <r_mmod_Torsional_Energy-OPLS-2005>
230.006332397461

> <r_mmod_Improper_Torsional_Energy-OPLS-2005>
2.51325964927673

> <r_mmod_Van_der_Waal_Energy-OPLS-2005>
113.926170349121

> <r_mmod_Electrostatic_Energy-OPLS-2005>
-201.25325012207

> <r_mmod_Solvation_Energy-OPLS-2005>
-443.494476318359

> <b_mmod_Minimization_Converged-OPLS-2005>
0

> <r_mmod_RMS_Derivative-OPLS-2005>
2.41786408424377

$$$$
32
                    3D
 Structure written by MMmdl.
158166  0  0  1  0            999 V2000
  -30.6827  -14.5420   20.5987 C   0  0  0  0  0  0
  -30.4297  -12.3584   19.4372 C   0  0  0  0  0  0
  -29.4984  -12.5208   18.2158 C   0  0  0  0  0  0
  -28.0221  -12.3570   18.6272 C   0  0  0  0  0  0
  -27.6575  -13.2096   19.8702 C   0  0  2  0  0  0
  -28.6952  -13.0098   20.9942 C   0  0  0  0  0  0
  -25.2563  -13.8169   20.5684 C   0  0  0  0  0  0
  -24.1822  -13.0445   20.9187 C   0  0  0  0  0  0
  -24.6382  -11.6909   20.8741 C   0  0  0  0  0  0
  -23.9060  -10.4298   21.0412 C   0  0  0  0  0  0
  -24.3614   -9.4211   21.9188 C   0  0  0  0  0  0
  -23.6292   -8.2247   22.0751 C   0  0  0  0  0  0
  -22.4275   -8.0287   21.3542 C   0  0  0  0  0  0
  -21.9914   -9.0262   20.4645 C   0  0  0  0  0  0
  -22.7239  -10.2138   20.3058 C   0  0  0  0  0  0
  -21.6853   -6.0742   22.5280 C   0  0  0  0  0  0
  -21.4018   -6.5644   23.8213 C   0  0  0  0  0  0
  -21.3656   -5.6790   24.9174 C   0  0  0  0  0  0
  -21.6043   -4.3055   24.7220 C   0  0  0  0  0  0
  -21.8820   -3.8152   23.4341 C   0  0  0  0  0  0
  -21.9193   -4.6972   22.3398 C   0  0  0  0  0  0
  -22.7843  -13.5235   21.1860 C   0  0  0  0  0  0
  -22.1659   -4.2161   21.0974 F   0  0  0  0  0  0
  -21.5625   -3.4535   25.7729 F   0  0  0  0  0  0
  -30.0263  -13.3472   20.4561 N   0  0  0  0  0  0
  -26.2996  -12.9340   20.3337 N   0  0  0  0  0  0
  -25.9305  -11.6498   20.5756 N   0  0  0  0  0  0
  -22.0489  -12.8224   22.0416 N   0  0  0  0  0  0
  -25.4293  -15.1891   20.4102 N   0  0  0  0  0  0
  -31.7600  -14.7629   20.0350 O   0  0  0  0  0  0
  -21.6637   -6.8886   21.4240 O   0  0  0  0  0  0
  -22.3529  -14.5551   20.6719 O   0  0  0  0  0  0
  -24.6210  -31.8636   23.2045 C   0  0  0  0  0  0
  -25.9083  -32.4793   23.8363 C   0  0  1  0  0  0
  -27.2417  -27.3715   20.1018 C   0  0  0  0  0  0
  -25.5917  -33.8592   24.2294 N   0  0  0  0  0  0
  -23.4128  -30.4841   21.5477 C   0  0  2  0  0  0
  -24.8595  -28.9407   20.1158 C   0  0  0  0  0  0
  -22.7441  -29.4632   22.4973 C   0  0  0  0  0  0
  -18.0270  -28.1383   22.8482 C   0  0  0  0  0  0
  -24.1487  -36.7310   23.2633 C   0  0  0  0  0  0
  -25.9469  -30.8103   21.3654 C   0  0  0  0  0  0
  -26.0234  -29.4396   20.7116 C   0  0  0  0  0  0
  -27.2119  -28.6635   20.6972 C   0  0  0  0  0  0
  -26.0470  -26.8993   19.5067 C   0  0  0  0  0  0
  -24.8700  -27.6728   19.5111 C   0  0  0  0  0  0
  -23.6247  -29.8144   20.1639 C   0  0  0  0  0  0
  -25.4113  -36.3087   24.0323 C   0  0  1  0  0  0
  -20.5871  -28.3668   23.1311 C   0  0  2  0  0  0
  -20.6769  -26.9396   22.5419 C   0  0  0  0  0  0
  -19.5736  -26.6381   21.5221 C   0  0  0  0  0  0
  -18.1909  -26.7931   22.1623 C   0  0  0  0  0  0
  -19.1524  -28.8843   23.2888 C   0  0  0  0  0  0
  -18.9449  -30.1455   23.8884 C   0  0  0  0  0  0
  -17.6447  -30.6580   24.0569 C   0  0  0  0  0  0
  -25.9044  -34.9453   23.5103 C   0  0  0  0  0  0
  -16.5337  -29.9081   23.6331 C   0  0  0  0  0  0
  -16.7260  -28.6509   23.0330 C   0  0  0  0  0  0
  -26.4488  -31.6594   25.0718 C   0  0  0  0  0  0
  -25.3743  -31.3713   26.1459 C   0  0  0  0  0  0
  -27.0327  -30.3018   24.6152 C   0  0  0  0  0  0
  -27.6045  -32.4342   25.7481 C   0  0  0  0  0  0
  -27.5581  -37.1810   24.8456 C   0  0  0  0  0  0
  -21.4159  -29.3035   22.3717 N   0  0  0  0  0  0
  -26.4290  -37.3782   23.9403 N   0  0  0  0  0  0
  -24.6792  -31.0689   22.0972 N   0  0  0  0  0  0
  -23.4180  -28.8181   23.3043 O   0  0  0  0  0  0
  -28.4211  -26.6279   20.1463 O   0  0  0  0  0  0
  -26.5601  -34.8902   22.4660 O   0  0  0  0  0  0
  -23.5392  -32.1409   23.7420 O   0  0  0  0  0  0
  -29.0178  -21.4114   20.4985 C   0  0  0  0  0  0
  -28.7603  -19.8588   21.8774 C   0  0  0  0  0  0
  -28.3576  -19.0555   23.0702 C   0  0  0  0  0  0
  -29.9313  -15.5251   22.7070 C   0  0  0  0  0  0
  -28.7842  -22.6937   19.6976 C   0  0  0  0  0  0
  -28.6584  -24.0638   20.4638 C   0  0  0  0  0  0
  -30.3911  -18.1254   20.8927 C   0  0  0  0  0  0
  -29.5469  -16.8246   20.6204 C   0  0  0  0  0  0
  -28.5619  -25.3187   19.5196 C   0  0  0  0  0  0
  -28.3121  -21.0938   21.6250 N   0  0  0  0  0  0
  -29.8144  -20.4214   20.0549 N   0  0  0  0  0  0
  -29.6253  -19.4028   20.9551 N   0  0  0  0  0  0
  -30.0136  -15.5446   21.2438 N   0  0  0  0  0  0
  -31.4718  -12.4739   19.1344 H   0  0  0  0  0  0
  -30.3529  -11.3496   19.8459 H   0  0  0  0  0  0
  -29.7543  -11.7921   17.4456 H   0  0  0  0  0  0
  -29.6447  -13.5049   17.7677 H   0  0  0  0  0  0
  -27.8527  -11.3012   18.8425 H   0  0  0  0  0  0
  -27.3655  -12.6049   17.7925 H   0  0  0  0  0  0
  -27.6963  -14.2548   19.5624 H   0  0  0  0  0  0
  -28.6884  -11.9756   21.3407 H   0  0  0  0  0  0
  -28.4117  -13.6036   21.8605 H   0  0  0  0  0  0
  -25.2757   -9.5686   22.4764 H   0  0  0  0  0  0
  -24.0003   -7.4635   22.7460 H   0  0  0  0  0  0
  -21.0853   -8.8787   19.8944 H   0  0  0  0  0  0
  -22.3710  -10.9682   19.6169 H   0  0  0  0  0  0
  -21.2017   -7.6152   23.9726 H   0  0  0  0  0  0
  -21.1474   -6.0515   25.9075 H   0  0  0  0  0  0
  -22.0605   -2.7619   23.2832 H   0  0  0  0  0  0
  -22.4089  -11.9872   22.4791 H   0  0  0  0  0  0
  -21.1108  -13.1251   22.2627 H   0  0  0  0  0  0
  -24.6664  -15.8477   20.5220 H   0  0  0  0  0  0
  -26.2890  -15.6276   20.1059 H   0  0  0  0  0  0
  -26.7146  -32.5482   23.1118 H   0  0  0  0  0  0
  -25.0073  -33.9752   25.0442 H   0  0  0  0  0  0
  -22.7017  -31.2998   21.4055 H   0  0  0  0  0  0
  -23.3734  -35.9662   23.3291 H   0  0  0  0  0  0
  -24.3560  -36.8936   22.2044 H   0  0  0  0  0  0
  -23.7257  -37.6517   23.6659 H   0  0  0  0  0  0
  -26.0666  -31.5746   20.5961 H   0  0  0  0  0  0
  -26.8318  -30.8648   21.9884 H   0  0  0  0  0  0
  -28.1117  -29.0491   21.1564 H   0  0  0  0  0  0
  -25.9790  -25.9269   19.0466 H   0  0  0  0  0  0
  -23.9727  -27.2785   19.0543 H   0  0  0  0  0  0
  -23.7420  -30.5895   19.4063 H   0  0  0  0  0  0
  -22.7465  -29.2405   19.8653 H   0  0  0  0  0  0
  -25.1297  -36.1932   25.0821 H   0  0  0  0  0  0
  -20.9947  -28.3243   24.1442 H   0  0  0  0  0  0
  -20.5690  -26.2260   23.3608 H   0  0  0  0  0  0
  -21.6632  -26.7453   22.1191 H   0  0  0  0  0  0
  -19.6888  -25.6297   21.1238 H   0  0  0  0  0  0
  -19.6677  -27.3205   20.6763 H   0  0  0  0  0  0
  -17.4189  -26.6665   21.4022 H   0  0  0  0  0  0
  -18.0297  -26.0081   22.9029 H   0  0  0  0  0  0
  -19.7927  -30.7284   24.2216 H   0  0  0  0  0  0
  -17.5005  -31.6252   24.5184 H   0  0  0  0  0  0
  -15.5338  -30.2978   23.7669 H   0  0  0  0  0  0
  -15.8661  -28.0846   22.7020 H   0  0  0  0  0  0
  -24.5926  -30.7044   25.7800 H   0  0  0  0  0  0
  -24.8925  -32.2871   26.4899 H   0  0  0  0  0  0
  -25.8103  -30.8893   27.0220 H   0  0  0  0  0  0
  -26.2896  -29.6756   24.1199 H   0  0  0  0  0  0
  -27.4040  -29.7283   25.4653 H   0  0  0  0  0  0
  -27.8750  -30.4279   23.9344 H   0  0  0  0  0  0
  -27.2643  -33.3641   26.2051 H   0  0  0  0  0  0
  -28.3861  -32.6912   25.0322 H   0  0  0  0  0  0
  -28.0704  -31.8477   26.5410 H   0  0  0  0  0  0
  -28.2594  -38.0112   24.7530 H   0  0  0  0  0  0
  -28.1079  -36.2648   24.6263 H   0  0  0  0  0  0
  -27.2292  -37.1450   25.8854 H   0  0  0  0  0  0
  -20.9316  -29.8744   21.6930 H   0  0  0  0  0  0
  -26.0159  -38.2849   24.1437 H   0  0  0  0  0  0
  -27.9556  -19.7042   23.8487 H   0  0  0  0  0  0
  -29.2144  -18.5245   23.4842 H   0  0  0  0  0  0
  -27.5947  -18.3290   22.7932 H   0  0  0  0  0  0
  -28.9480  -15.8518   23.0445 H   0  0  0  0  0  0
  -30.6815  -16.1837   23.1431 H   0  0  0  0  0  0
  -30.1064  -14.5304   23.1209 H   0  0  0  0  0  0
  -27.8840  -22.5445   19.1006 H   0  0  0  0  0  0
  -29.5982  -22.7836   18.9770 H   0  0  0  0  0  0
  -29.5159  -24.1834   21.1262 H   0  0  0  0  0  0
  -27.7801  -24.0284   21.1087 H   0  0  0  0  0  0
  -31.1674  -18.2169   20.1322 H   0  0  0  0  0  0
  -30.9270  -18.0378   21.8370 H   0  0  0  0  0  0
  -29.4627  -16.6866   19.5406 H   0  0  0  0  0  0
  -28.5225  -16.9849   20.9568 H   0  0  0  0  0  0
  -27.8379  -25.1413   18.7288 H   0  0  0  0  0  0
  -29.5069  -25.3755   18.9791 H   0  0  0  0  0  0
  1 25  1  0  0  0
  1 30  2  0  0  0
  1 83  1  0  0  0
  2  3  1  0  0  0
  2 25  1  0  0  0
  2 84  1  0  0  0
  2 85  1  0  0  0
  3  4  1  0  0  0
  3 86  1  0  0  0
  3 87  1  0  0  0
  4  5  1  0  0  0
  4 88  1  0  0  0
  4 89  1  0  0  0
  5  6  1  0  0  0
  5 26  1  0  0  0
  5 90  1  0  0  0
  6 25  1  0  0  0
  6 91  1  0  0  0
  6 92  1  0  0  0
  7  8  2  0  0  0
  7 26  1  0  0  0
  7 29  1  0  0  0
  8  9  1  0  0  0
  8 22  1  0  0  0
  9 10  1  0  0  0
  9 27  2  0  0  0
 10 11  2  0  0  0
 10 15  1  0  0  0
 11 12  1  0  0  0
 11 93  1  0  0  0
 12 13  2  0  0  0
 12 94  1  0  0  0
 13 14  1  0  0  0
 13 31  1  0  0  0
 14 15  2  0  0  0
 14 95  1  0  0  0
 15 96  1  0  0  0
 16 17  2  0  0  0
 16 21  1  0  0  0
 16 31  1  0  0  0
 17 18  1  0  0  0
 17 97  1  0  0  0
 18 19  2  0  0  0
 18 98  1  0  0  0
 19 20  1  0  0  0
 19 24  1  0  0  0
 20 21  2  0  0  0
 20 99  1  0  0  0
 21 23  1  0  0  0
 22 28  1  0  0  0
 22 32  2  0  0  0
 26 27  1  0  0  0
 28100  1  0  0  0
 28101  1  0  0  0
 29102  1  0  0  0
 29103  1  0  0  0
 33 34  1  0  0  0
 33 66  1  0  0  0
 33 70  2  0  0  0
 34 36  1  0  0  0
 34 59  1  0  0  0
 34104  1  0  0  0
 35 44  2  0  0  0
 35 45  1  0  0  0
 35 68  1  0  0  0
 36 56  1  0  0  0
 36105  1  0  0  0
 37 39  1  0  0  0
 37 47  1  0  0  0
 37 66  1  0  0  0
 37106  1  0  0  0
 38 43  2  0  0  0
 38 46  1  0  0  0
 38 47  1  0  0  0
 39 64  1  0  0  0
 39 67  2  0  0  0
 40 52  1  0  0  0
 40 53  2  0  0  0
 40 58  1  0  0  0
 41107  1  0  0  0
 41108  1  0  0  0
 41109  1  0  0  0
 41 48  1  0  0  0
 42 43  1  0  0  0
 42 66  1  0  0  0
 42110  1  0  0  0
 42111  1  0  0  0
 43 44  1  0  0  0
 44112  1  0  0  0
 45 46  2  0  0  0
 45113  1  0  0  0
 46114  1  0  0  0
 47115  1  0  0  0
 47116  1  0  0  0
 48 56  1  0  0  0
 48 65  1  0  0  0
 48117  1  0  0  0
 49 50  1  0  0  0
 49 53  1  0  0  0
 49 64  1  0  0  0
 49118  1  0  0  0
 50 51  1  0  0  0
 50119  1  0  0  0
 50120  1  0  0  0
 51 52  1  0  0  0
 51121  1  0  0  0
 51122  1  0  0  0
 52123  1  0  0  0
 52124  1  0  0  0
 53 54  1  0  0  0
 54 55  2  0  0  0
 54125  1  0  0  0
 55 57  1  0  0  0
 55126  1  0  0  0
 56 69  2  0  0  0
 57 58  2  0  0  0
 57127  1  0  0  0
 58128  1  0  0  0
 59 60  1  0  0  0
 59 61  1  0  0  0
 59 62  1  0  0  0
 60129  1  0  0  0
 60130  1  0  0  0
 60131  1  0  0  0
 61132  1  0  0  0
 61133  1  0  0  0
 61134  1  0  0  0
 62135  1  0  0  0
 62136  1  0  0  0
 62137  1  0  0  0
 63 65  1  0  0  0
 63138  1  0  0  0
 63139  1  0  0  0
 63140  1  0  0  0
 64141  1  0  0  0
 65142  1  0  0  0
 68 79  1  0  0  0
 71 75  1  0  0  0
 71 80  1  0  0  0
 71 81  2  0  0  0
 72 73  1  0  0  0
 72 80  2  0  0  0
 72 82  1  0  0  0
 73143  1  0  0  0
 73144  1  0  0  0
 73145  1  0  0  0
 74 83  1  0  0  0
 74146  1  0  0  0
 74147  1  0  0  0
 74148  1  0  0  0
 75 76  1  0  0  0
 75149  1  0  0  0
 75150  1  0  0  0
 76 79  1  0  0  0
 76151  1  0  0  0
 76152  1  0  0  0
 77 78  1  0  0  0
 77 82  1  0  0  0
 77153  1  0  0  0
 77154  1  0  0  0
 78 83  1  0  0  0
 78155  1  0  0  0
 78156  1  0  0  0
 79157  1  0  0  0
 79158  1  0  0  0
 81 82  1  0  0  0
M  ISO  4   1 100  68 101  79 101  83 100
M  END
> <chiral flag>
0

> <version>
0

> <s_m_source_file>
/data/baiqing/PycharmProjects/Reinvent-master-3.2/result/LINK_invent/BTK/process_docking_weight1_custom_sum_contain_oxygen_bond_distance_aromatic_linkinvent_7_9_3/rearranged_h_0049.sdf

> <i_m_source_file_index>
32

> <r_mmod_Potential_Energy-OPLS-2005>
58.2203254699707

> <r_mmod_Stretch_Energy-OPLS-2005>
58.1196746826172

> <r_mmod_Bend_Energy-OPLS-2005>
130.681976318359

> <r_mmod_Torsional_Energy-OPLS-2005>
292.234161376953

> <r_mmod_Improper_Torsional_Energy-OPLS-2005>
4.98928260803223

> <r_mmod_Van_der_Waal_Energy-OPLS-2005>
119.235900878906

> <r_mmod_Electrostatic_Energy-OPLS-2005>
-349.815948486328

> <r_mmod_Solvation_Energy-OPLS-2005>
-220.443908691406

> <b_mmod_Minimization_Converged-OPLS-2005>
0

> <r_mmod_RMS_Derivative-OPLS-2005>
1.51155471801758

$$$$
33
                    3D
 Structure written by MMmdl.
157165  0  0  1  0            999 V2000
  -30.6637  -14.7244   20.5252 C   0  0  0  0  0  0
  -30.4293  -12.4595   19.4773 C   0  0  0  0  0  0
  -29.5087  -12.5221   18.2387 C   0  0  0  0  0  0
  -28.0339  -12.3498   18.6472 C   0  0  0  0  0  0
  -27.6457  -13.2331   19.8600 C   0  0  2  0  0  0
  -28.6877  -13.1307   20.9915 C   0  0  0  0  0  0
  -25.2522  -13.8205   20.5706 C   0  0  0  0  0  0
  -24.1805  -13.0449   20.9203 C   0  0  0  0  0  0
  -24.6401  -11.6925   20.8753 C   0  0  0  0  0  0
  -23.9089  -10.4298   21.0415 C   0  0  0  0  0  0
  -24.3635   -9.4206   21.9185 C   0  0  0  0  0  0
  -23.6304   -8.2248   22.0756 C   0  0  0  0  0  0
  -22.4284   -8.0290   21.3549 C   0  0  0  0  0  0
  -21.9926   -9.0266   20.4649 C   0  0  0  0  0  0
  -22.7266  -10.2141   20.3059 C   0  0  0  0  0  0
  -21.6852   -6.0746   22.5277 C   0  0  0  0  0  0
  -21.4014   -6.5654   23.8209 C   0  0  0  0  0  0
  -21.3657   -5.6806   24.9168 C   0  0  0  0  0  0
  -21.6042   -4.3067   24.7220 C   0  0  0  0  0  0
  -21.8820   -3.8164   23.4340 C   0  0  0  0  0  0
  -21.9192   -4.6978   22.3397 C   0  0  0  0  0  0
  -22.7823  -13.5224   21.1863 C   0  0  0  0  0  0
  -22.1660   -4.2163   21.0974 F   0  0  0  0  0  0
  -21.5625   -3.4548   25.7733 F   0  0  0  0  0  0
  -29.9940  -13.5156   20.4282 N   0  0  0  0  0  0
  -26.2958  -12.9412   20.3326 N   0  0  0  0  0  0
  -25.9335  -11.6552   20.5770 N   0  0  0  0  0  0
  -22.0489  -12.8198   22.0422 N   0  0  0  0  0  0
  -25.4235  -15.1928   20.4130 N   0  0  0  0  0  0
  -31.8088  -14.8029   20.0679 O   0  0  0  0  0  0
  -21.6646   -6.8889   21.4241 O   0  0  0  0  0  0
  -22.3500  -14.5532   20.6718 O   0  0  0  0  0  0
  -24.6334  -31.8584   23.1964 C   0  0  0  0  0  0
  -25.9169  -32.4774   23.8298 C   0  0  1  0  0  0
  -27.2169  -27.2592   20.1114 C   0  0  0  0  0  0
  -25.5974  -33.8567   24.2221 N   0  0  0  0  0  0
  -23.4292  -30.4845   21.5400 C   0  0  2  0  0  0
  -24.8759  -28.9392   20.1056 C   0  0  0  0  0  0
  -22.7515  -29.4645   22.4882 C   0  0  0  0  0  0
  -18.0303  -28.1436   22.8487 C   0  0  0  0  0  0
  -24.1490  -36.7257   23.2631 C   0  0  0  0  0  0
  -25.9794  -30.7671   21.3818 C   0  0  0  0  0  0
  -26.0511  -29.3916   20.7206 C   0  0  0  0  0  0
  -27.2225  -28.5628   20.7191 C   0  0  0  0  0  0
  -26.0181  -26.9011   19.4419 C   0  0  0  0  0  0
  -24.8656  -27.7009   19.4564 C   0  0  0  0  0  0
  -23.6480  -29.8247   20.1555 C   0  0  0  0  0  0
  -25.4124  -36.3060   24.0313 C   0  0  1  0  0  0
  -20.5914  -28.3756   23.1254 C   0  0  2  0  0  0
  -20.6802  -26.9472   22.5414 C   0  0  0  0  0  0
  -19.5769  -26.6423   21.5232 C   0  0  0  0  0  0
  -18.1944  -26.7979   22.1629 C   0  0  0  0  0  0
  -19.1556  -28.8911   23.2875 C   0  0  0  0  0  0
  -18.9475  -30.1509   23.8902 C   0  0  0  0  0  0
  -17.6473  -30.6624   24.0586 C   0  0  0  0  0  0
  -25.9075  -34.9444   23.5062 C   0  0  0  0  0  0
  -16.5368  -29.9125   23.6348 C   0  0  0  0  0  0
  -16.7291  -28.6550   23.0358 C   0  0  0  0  0  0
  -26.4522  -31.6597   25.0680 C   0  0  0  0  0  0
  -25.3712  -31.3802   26.1371 C   0  0  0  0  0  0
  -27.0370  -30.2997   24.6205 C   0  0  0  0  0  0
  -27.6067  -32.4340   25.7469 C   0  0  0  0  0  0
  -27.5578  -37.1784   24.8466 C   0  0  0  0  0  0
  -21.4217  -29.3093   22.3620 N   0  0  0  0  0  0
  -26.4282  -37.3773   23.9417 N   0  0  0  0  0  0
  -24.6995  -31.0547   22.0948 N   0  0  0  0  0  0
  -23.4217  -28.8182   23.2975 O   0  0  0  0  0  0
  -28.2856  -26.3231   20.1980 O   0  0  0  0  0  0
  -26.5625  -34.8932   22.4615 O   0  0  0  0  0  0
  -23.5487  -32.1412   23.7262 O   0  0  0  0  0  0
  -28.9376  -22.3908   19.5203 C   0  0  0  0  0  0
  -28.7917  -23.6115   20.1904 C   0  0  0  0  0  0
  -29.8179  -22.0695   21.5055 C   0  0  0  0  0  0
  -30.5013  -21.4780   22.6960 C   0  0  0  0  0  0
  -29.4505  -16.0479   22.2192 C   0  0  0  0  0  0
  -27.9846  -24.9038   19.7937 C   0  0  0  0  0  0
  -29.5783  -18.6573   20.6736 C   0  0  0  0  0  0
  -30.0625  -20.0241   19.9586 C   0  0  0  0  0  0
  -30.3335  -17.2747   20.2506 C   0  0  0  0  0  0
  -29.5622  -21.4422   20.3382 N   0  0  0  0  0  0
  -29.3614  -23.3435   21.4142 N   0  3  0  0  0  0
  -29.9905  -15.9067   20.8631 N   0  0  0  0  0  0
  -31.4708  -12.5712   19.1714 H   0  0  0  0  0  0
  -30.3712  -11.4767   19.9484 H   0  0  0  0  0  0
  -29.7881  -11.7493   17.5208 H   0  0  0  0  0  0
  -29.6397  -13.4776   17.7287 H   0  0  0  0  0  0
  -27.8821  -11.2982   18.8939 H   0  0  0  0  0  0
  -27.3781  -12.5614   17.8025 H   0  0  0  0  0  0
  -27.6537  -14.2643   19.5068 H   0  0  0  0  0  0
  -28.7288  -12.1138   21.3849 H   0  0  0  0  0  0
  -28.3790  -13.7481   21.8293 H   0  0  0  0  0  0
  -25.2778   -9.5677   22.4763 H   0  0  0  0  0  0
  -24.0008   -7.4642   22.7469 H   0  0  0  0  0  0
  -21.0866   -8.8794   19.8950 H   0  0  0  0  0  0
  -22.3728  -10.9687   19.6172 H   0  0  0  0  0  0
  -21.2009   -7.6162   23.9712 H   0  0  0  0  0  0
  -21.1473   -6.0535   25.9068 H   0  0  0  0  0  0
  -22.0601   -2.7627   23.2834 H   0  0  0  0  0  0
  -22.4108  -11.9844   22.4775 H   0  0  0  0  0  0
  -21.1114  -13.1215   22.2675 H   0  0  0  0  0  0
  -24.6631  -15.8531   20.5292 H   0  0  0  0  0  0
  -26.2845  -15.6285   20.1077 H   0  0  0  0  0  0
  -26.7226  -32.5421   23.1034 H   0  0  0  0  0  0
  -25.0177  -33.9706   25.0406 H   0  0  0  0  0  0
  -22.7265  -31.3076   21.3960 H   0  0  0  0  0  0
  -23.3764  -35.9577   23.3297 H   0  0  0  0  0  0
  -24.3576  -36.8876   22.2045 H   0  0  0  0  0  0
  -23.7242  -37.6458   23.6652 H   0  0  0  0  0  0
  -26.1246  -31.5292   20.6156 H   0  0  0  0  0  0
  -26.8555  -30.8112   22.0171 H   0  0  0  0  0  0
  -28.1169  -28.9021   21.2236 H   0  0  0  0  0  0
  -25.9132  -25.9740   18.9003 H   0  0  0  0  0  0
  -23.9705  -27.3530   18.9566 H   0  0  0  0  0  0
  -23.7738  -30.6020   19.4005 H   0  0  0  0  0  0
  -22.7661  -29.2594   19.8484 H   0  0  0  0  0  0
  -25.1322  -36.1870   25.0806 H   0  0  0  0  0  0
  -21.0034  -28.3360   24.1365 H   0  0  0  0  0  0
  -20.5732  -26.2386   23.3637 H   0  0  0  0  0  0
  -21.6667  -26.7516   22.1199 H   0  0  0  0  0  0
  -19.6921  -25.6326   21.1281 H   0  0  0  0  0  0
  -19.6701  -27.3223   20.6749 H   0  0  0  0  0  0
  -17.4234  -26.6772   21.4006 H   0  0  0  0  0  0
  -18.0305  -26.0130   22.9026 H   0  0  0  0  0  0
  -19.7946  -30.7341   24.2268 H   0  0  0  0  0  0
  -17.5023  -31.6295   24.5212 H   0  0  0  0  0  0
  -15.5367  -30.3035   23.7667 H   0  0  0  0  0  0
  -15.8694  -28.0876   22.7054 H   0  0  0  0  0  0
  -24.5933  -30.7091   25.7709 H   0  0  0  0  0  0
  -24.8839  -32.2996   26.4622 H   0  0  0  0  0  0
  -25.7990  -30.9117   27.0235 H   0  0  0  0  0  0
  -26.2951  -29.6737   24.1224 H   0  0  0  0  0  0
  -27.4028  -29.7282   25.4745 H   0  0  0  0  0  0
  -27.8853  -30.4252   23.9470 H   0  0  0  0  0  0
  -27.2679  -33.3681   26.1954 H   0  0  0  0  0  0
  -28.3931  -32.6824   25.0332 H   0  0  0  0  0  0
  -28.0662  -31.8508   26.5460 H   0  0  0  0  0  0
  -28.2600  -38.0080   24.7529 H   0  0  0  0  0  0
  -28.1068  -36.2614   24.6269 H   0  0  0  0  0  0
  -27.2295  -37.1409   25.8867 H   0  0  0  0  0  0
  -20.9401  -29.8782   21.6795 H   0  0  0  0  0  0
  -26.0141  -38.2831   24.1444 H   0  0  0  0  0  0
  -28.6267  -22.1320   18.5181 H   0  0  0  0  0  0
  -29.8548  -20.7111   23.1218 H   0  0  0  0  0  0
  -30.6834  -22.2595   23.4327 H   0  0  0  0  0  0
  -31.4479  -21.0423   22.3800 H   0  0  0  0  0  0
  -28.3810  -16.2591   22.1870 H   0  0  0  0  0  0
  -29.9460  -16.8564   22.7570 H   0  0  0  0  0  0
  -29.6148  -15.1659   22.8385 H   0  0  0  0  0  0
  -26.9916  -24.6648   20.1744 H   0  0  0  0  0  0
  -27.9077  -24.8935   18.7060 H   0  0  0  0  0  0
  -28.5108  -18.5378   20.4883 H   0  0  0  0  0  0
  -29.6735  -18.8006   21.7475 H   0  0  0  0  0  0
  -29.8878  -19.9222   18.8872 H   0  0  0  0  0  0
  -31.1479  -20.0710   20.0553 H   0  0  0  0  0  0
  -31.4004  -17.4308   20.4209 H   0  0  0  0  0  0
  -30.2363  -17.1636   19.1692 H   0  0  0  0  0  0
  -29.4150  -24.0208   22.1662 H   0  0  0  0  0  0
  1 25  1  0  0  0
  1 30  2  0  0  0
  1 82  1  0  0  0
  2  3  1  0  0  0
  2 25  1  0  0  0
  2 83  1  0  0  0
  2 84  1  0  0  0
  3  4  1  0  0  0
  3 85  1  0  0  0
  3 86  1  0  0  0
  4  5  1  0  0  0
  4 87  1  0  0  0
  4 88  1  0  0  0
  5  6  1  0  0  0
  5 26  1  0  0  0
  5 89  1  0  0  0
  6 25  1  0  0  0
  6 90  1  0  0  0
  6 91  1  0  0  0
  7  8  2  0  0  0
  7 26  1  0  0  0
  7 29  1  0  0  0
  8  9  1  0  0  0
  8 22  1  0  0  0
  9 10  1  0  0  0
  9 27  2  0  0  0
 10 11  2  0  0  0
 10 15  1  0  0  0
 11 12  1  0  0  0
 11 92  1  0  0  0
 12 13  2  0  0  0
 12 93  1  0  0  0
 13 14  1  0  0  0
 13 31  1  0  0  0
 14 15  2  0  0  0
 14 94  1  0  0  0
 15 95  1  0  0  0
 16 17  2  0  0  0
 16 21  1  0  0  0
 16 31  1  0  0  0
 17 18  1  0  0  0
 17 96  1  0  0  0
 18 19  2  0  0  0
 18 97  1  0  0  0
 19 20  1  0  0  0
 19 24  1  0  0  0
 20 21  2  0  0  0
 20 98  1  0  0  0
 21 23  1  0  0  0
 22 28  1  0  0  0
 22 32  2  0  0  0
 26 27  1  0  0  0
 28 99  1  0  0  0
 28100  1  0  0  0
 29101  1  0  0  0
 29102  1  0  0  0
 33 34  1  0  0  0
 33 66  1  0  0  0
 33 70  2  0  0  0
 34 36  1  0  0  0
 34 59  1  0  0  0
 34103  1  0  0  0
 35 44  2  0  0  0
 35 45  1  0  0  0
 35 68  1  0  0  0
 36 56  1  0  0  0
 36104  1  0  0  0
 37 39  1  0  0  0
 37 47  1  0  0  0
 37 66  1  0  0  0
 37105  1  0  0  0
 38 43  2  0  0  0
 38 46  1  0  0  0
 38 47  1  0  0  0
 39 64  1  0  0  0
 39 67  2  0  0  0
 40 52  1  0  0  0
 40 53  2  0  0  0
 40 58  1  0  0  0
 41106  1  0  0  0
 41107  1  0  0  0
 41108  1  0  0  0
 41 48  1  0  0  0
 42 43  1  0  0  0
 42 66  1  0  0  0
 42109  1  0  0  0
 42110  1  0  0  0
 43 44  1  0  0  0
 44111  1  0  0  0
 45 46  2  0  0  0
 45112  1  0  0  0
 46113  1  0  0  0
 47114  1  0  0  0
 47115  1  0  0  0
 48 56  1  0  0  0
 48 65  1  0  0  0
 48116  1  0  0  0
 49 50  1  0  0  0
 49 53  1  0  0  0
 49 64  1  0  0  0
 49117  1  0  0  0
 50 51  1  0  0  0
 50118  1  0  0  0
 50119  1  0  0  0
 51 52  1  0  0  0
 51120  1  0  0  0
 51121  1  0  0  0
 52122  1  0  0  0
 52123  1  0  0  0
 53 54  1  0  0  0
 54 55  2  0  0  0
 54124  1  0  0  0
 55 57  1  0  0  0
 55125  1  0  0  0
 56 69  2  0  0  0
 57 58  2  0  0  0
 57126  1  0  0  0
 58127  1  0  0  0
 59 60  1  0  0  0
 59 61  1  0  0  0
 59 62  1  0  0  0
 60128  1  0  0  0
 60129  1  0  0  0
 60130  1  0  0  0
 61131  1  0  0  0
 61132  1  0  0  0
 61133  1  0  0  0
 62134  1  0  0  0
 62135  1  0  0  0
 62136  1  0  0  0
 63 65  1  0  0  0
 63137  1  0  0  0
 63138  1  0  0  0
 63139  1  0  0  0
 64140  1  0  0  0
 65141  1  0  0  0
 68 76  1  0  0  0
 71 72  2  0  0  0
 71 80  1  0  0  0
 71142  1  0  0  0
 72 76  1  0  0  0
 72 81  1  0  0  0
 73 74  1  0  0  0
 73 80  1  0  0  0
 73 81  2  0  0  0
 74143  1  0  0  0
 74144  1  0  0  0
 74145  1  0  0  0
 75 82  1  0  0  0
 75146  1  0  0  0
 75147  1  0  0  0
 75148  1  0  0  0
 76149  1  0  0  0
 76150  1  0  0  0
 77 78  1  0  0  0
 77 79  1  0  0  0
 77151  1  0  0  0
 77152  1  0  0  0
 78 80  1  0  0  0
 78153  1  0  0  0
 78154  1  0  0  0
 79 82  1  0  0  0
 79155  1  0  0  0
 79156  1  0  0  0
 81157  1  0  0  0
M  CHG  1  81   1
M  ISO  4   1 100  68 101  76 101  82 100
M  END
> <chiral flag>
0

> <version>
0

> <s_m_source_file>
/data/baiqing/PycharmProjects/Reinvent-master-3.2/result/LINK_invent/BTK/process_docking_weight1_custom_sum_contain_oxygen_bond_distance_aromatic_linkinvent_7_9_3/rearranged_h_0049.sdf

> <i_m_source_file_index>
33

> <r_mmod_Potential_Energy-OPLS-2005>
237.17497253418

> <r_mmod_Stretch_Energy-OPLS-2005>
126.165161132812

> <r_mmod_Bend_Energy-OPLS-2005>
188.159744262695

> <r_mmod_Torsional_Energy-OPLS-2005>
281.339050292969

> <r_mmod_Improper_Torsional_Energy-OPLS-2005>
10.3833103179932

> <r_mmod_Van_der_Waal_Energy-OPLS-2005>
132.562805175781

> <r_mmod_Electrostatic_Energy-OPLS-2005>
-174.203689575195

> <r_mmod_Solvation_Energy-OPLS-2005>
-409.372955322266

> <b_mmod_Minimization_Converged-OPLS-2005>
0

> <r_mmod_RMS_Derivative-OPLS-2005>
2.18408870697021

$$$$
34
                    3D
 Structure written by MMmdl.
161169  0  0  1  0            999 V2000
  -30.6556  -14.6304   20.5924 C   0  0  0  0  0  0
  -30.4312  -12.4048   19.4726 C   0  0  0  0  0  0
  -29.5131  -12.5168   18.2362 C   0  0  0  0  0  0
  -28.0349  -12.3391   18.6337 C   0  0  0  0  0  0
  -27.6482  -13.2166   19.8519 C   0  0  2  0  0  0
  -28.6771  -13.0771   20.9876 C   0  0  0  0  0  0
  -25.2542  -13.8176   20.5660 C   0  0  0  0  0  0
  -24.1814  -13.0438   20.9194 C   0  0  0  0  0  0
  -24.6383  -11.6912   20.8726 C   0  0  0  0  0  0
  -23.9053  -10.4301   21.0406 C   0  0  0  0  0  0
  -24.3611   -9.4217   21.9184 C   0  0  0  0  0  0
  -23.6295   -8.2244   22.0741 C   0  0  0  0  0  0
  -22.4279   -8.0281   21.3534 C   0  0  0  0  0  0
  -21.9908   -9.0253   20.4639 C   0  0  0  0  0  0
  -22.7226  -10.2139   20.3058 C   0  0  0  0  0  0
  -21.6846   -6.0734   22.5273 C   0  0  0  0  0  0
  -21.4021   -6.5635   23.8215 C   0  0  0  0  0  0
  -21.3670   -5.6781   24.9174 C   0  0  0  0  0  0
  -21.6048   -4.3048   24.7219 C   0  0  0  0  0  0
  -21.8820   -3.8143   23.4343 C   0  0  0  0  0  0
  -21.9199   -4.6960   22.3400 C   0  0  0  0  0  0
  -22.7852  -13.5239   21.1875 C   0  0  0  0  0  0
  -22.1657   -4.2154   21.0972 F   0  0  0  0  0  0
  -21.5634   -3.4528   25.7724 F   0  0  0  0  0  0
  -30.0040  -13.4254   20.4566 N   0  0  0  0  0  0
  -26.2946  -12.9344   20.3230 N   0  0  0  0  0  0
  -25.9299  -11.6506   20.5718 N   0  0  0  0  0  0
  -22.0480  -12.8235   22.0428 N   0  0  0  0  0  0
  -25.4285  -15.1904   20.4112 N   0  0  0  0  0  0
  -31.7583  -14.8071   20.0633 O   0  0  0  0  0  0
  -21.6640   -6.8880   21.4236 O   0  0  0  0  0  0
  -22.3542  -14.5542   20.6712 O   0  0  0  0  0  0
  -24.6271  -31.8592   23.2002 C   0  0  0  0  0  0
  -25.9117  -32.4770   23.8358 C   0  0  1  0  0  0
  -27.2316  -27.3204   20.1120 C   0  0  0  0  0  0
  -25.5921  -33.8569   24.2286 N   0  0  0  0  0  0
  -23.4214  -30.4807   21.5431 C   0  0  2  0  0  0
  -24.8691  -28.9360   20.1080 C   0  0  0  0  0  0
  -22.7478  -29.4614   22.4930 C   0  0  0  0  0  0
  -18.0278  -28.1382   22.8469 C   0  0  0  0  0  0
  -24.1477  -36.7295   23.2647 C   0  0  0  0  0  0
  -25.9632  -30.7863   21.3749 C   0  0  0  0  0  0
  -26.0356  -29.4156   20.7150 C   0  0  0  0  0  0
  -27.2186  -28.6187   20.7075 C   0  0  0  0  0  0
  -26.0445  -26.8957   19.4738 C   0  0  0  0  0  0
  -24.8765  -27.6815   19.4779 C   0  0  0  0  0  0
  -23.6362  -29.8137   20.1588 C   0  0  0  0  0  0
  -25.4101  -36.3089   24.0336 C   0  0  1  0  0  0
  -20.5882  -28.3686   23.1260 C   0  0  2  0  0  0
  -20.6771  -26.9401   22.5403 C   0  0  0  0  0  0
  -19.5755  -26.6385   21.5203 C   0  0  0  0  0  0
  -18.1929  -26.7920   22.1608 C   0  0  0  0  0  0
  -19.1536  -28.8851   23.2863 C   0  0  0  0  0  0
  -18.9462  -30.1455   23.8883 C   0  0  0  0  0  0
  -17.6468  -30.6581   24.0554 C   0  0  0  0  0  0
  -25.9040  -34.9449   23.5118 C   0  0  0  0  0  0
  -16.5358  -29.9079   23.6333 C   0  0  0  0  0  0
  -16.7269  -28.6500   23.0343 C   0  0  0  0  0  0
  -26.4485  -31.6572   25.0727 C   0  0  0  0  0  0
  -25.3720  -31.3694   26.1465 C   0  0  0  0  0  0
  -27.0337  -30.2998   24.6191 C   0  0  0  0  0  0
  -27.6045  -32.4319   25.7470 C   0  0  0  0  0  0
  -27.5576  -37.1802   24.8471 C   0  0  0  0  0  0
  -21.4185  -29.3047   22.3658 N   0  0  0  0  0  0
  -26.4296  -37.3774   23.9407 N   0  0  0  0  0  0
  -24.6888  -31.0603   22.0957 N   0  0  0  0  0  0
  -23.4189  -28.8161   23.3021 O   0  0  0  0  0  0
  -28.3563  -26.4802   20.1677 O   0  0  0  0  0  0
  -26.5623  -34.8926   22.4689 O   0  0  0  0  0  0
  -23.5442  -32.1386   23.7336 O   0  0  0  0  0  0
  -30.3481  -20.5949   19.5398 C   0  0  0  0  0  0
  -29.7959  -19.7469   20.5235 C   0  0  0  0  0  0
  -28.8521  -20.4050   21.3431 C   0  0  0  0  0  0
  -29.2690  -22.4882   20.3650 C   0  0  0  0  0  0
  -29.7567  -14.8276   23.6451 C   0  0  0  0  0  0
  -27.1100  -20.2916   22.9975 C   0  0  0  0  0  0
  -30.3825  -18.3088   20.8141 C   0  0  0  0  0  0
  -29.3162  -24.0583   20.5346 C   0  0  0  0  0  0
  -30.3063  -15.8850   22.6742 C   0  0  0  0  0  0
  -29.5593  -16.9606   20.5593 C   0  0  0  0  0  0
  -28.1863  -25.0157   19.9621 C   0  0  0  0  0  0
  -30.0909  -21.9317   19.4689 N   0  0  0  0  0  0
  -28.6105  -21.7496   21.2682 N   0  0  0  0  0  0
  -30.0106  -15.6720   21.2377 N   0  0  0  0  0  0
  -28.1905  -19.6721   22.3041 O   0  0  0  0  0  0
  -31.4759  -12.5227   19.1793 H   0  0  0  0  0  0
  -30.3659  -11.4080   19.9125 H   0  0  0  0  0  0
  -29.7910  -11.7692   17.4923 H   0  0  0  0  0  0
  -29.6553  -13.4915   17.7643 H   0  0  0  0  0  0
  -27.8821  -11.2856   18.8737 H   0  0  0  0  0  0
  -27.3862  -12.5543   17.7834 H   0  0  0  0  0  0
  -27.6692  -14.2529   19.5121 H   0  0  0  0  0  0
  -28.6867  -12.0619   21.3856 H   0  0  0  0  0  0
  -28.3612  -13.7169   21.8031 H   0  0  0  0  0  0
  -25.2756   -9.5691   22.4766 H   0  0  0  0  0  0
  -24.0008   -7.4632   22.7453 H   0  0  0  0  0  0
  -21.0845   -8.8774   19.8941 H   0  0  0  0  0  0
  -22.3688  -10.9678   19.6179 H   0  0  0  0  0  0
  -21.2002   -7.6139   23.9714 H   0  0  0  0  0  0
  -21.1498   -6.0510   25.9074 H   0  0  0  0  0  0
  -22.0594   -2.7607   23.2827 H   0  0  0  0  0  0
  -22.4065  -11.9918   22.4872 H   0  0  0  0  0  0
  -21.1092  -13.1277   22.2580 H   0  0  0  0  0  0
  -24.6696  -15.8523   20.5373 H   0  0  0  0  0  0
  -26.2924  -15.6305   20.1192 H   0  0  0  0  0  0
  -26.7172  -32.5434   23.1095 H   0  0  0  0  0  0
  -25.0006  -33.9696   25.0396 H   0  0  0  0  0  0
  -22.7182  -31.3041   21.3973 H   0  0  0  0  0  0
  -23.3739  -35.9624   23.3313 H   0  0  0  0  0  0
  -24.3587  -36.8915   22.2066 H   0  0  0  0  0  0
  -23.7233  -37.6502   23.6662 H   0  0  0  0  0  0
  -26.1041  -31.5509   20.6094 H   0  0  0  0  0  0
  -26.8407  -30.8284   22.0086 H   0  0  0  0  0  0
  -28.1132  -28.9825   21.1923 H   0  0  0  0  0  0
  -25.9918  -25.9434   18.9675 H   0  0  0  0  0  0
  -23.9862  -27.3084   18.9909 H   0  0  0  0  0  0
  -23.7498  -30.5903   19.4018 H   0  0  0  0  0  0
  -22.7565  -29.2406   19.8600 H   0  0  0  0  0  0
  -25.1276  -36.1946   25.0830 H   0  0  0  0  0  0
  -20.9966  -28.3269   24.1386 H   0  0  0  0  0  0
  -20.5656  -26.2292   23.3607 H   0  0  0  0  0  0
  -21.6633  -26.7422   22.1198 H   0  0  0  0  0  0
  -19.6905  -25.6304   21.1223 H   0  0  0  0  0  0
  -19.6690  -27.3195   20.6737 H   0  0  0  0  0  0
  -17.4186  -26.6647   21.4023 H   0  0  0  0  0  0
  -18.0335  -26.0083   22.9030 H   0  0  0  0  0  0
  -19.7948  -30.7269   24.2235 H   0  0  0  0  0  0
  -17.5027  -31.6256   24.5172 H   0  0  0  0  0  0
  -15.5355  -30.2976   23.7682 H   0  0  0  0  0  0
  -15.8664  -28.0829   22.7056 H   0  0  0  0  0  0
  -24.5881  -30.7048   25.7810 H   0  0  0  0  0  0
  -24.8913  -32.2843   26.4940 H   0  0  0  0  0  0
  -25.8062  -30.8849   27.0220 H   0  0  0  0  0  0
  -26.2919  -29.6724   24.1232 H   0  0  0  0  0  0
  -27.4050  -29.7274   25.4706 H   0  0  0  0  0  0
  -27.8777  -30.4280   23.9401 H   0  0  0  0  0  0
  -27.2653  -33.3615   26.2042 H   0  0  0  0  0  0
  -28.3827  -32.6893   25.0272 H   0  0  0  0  0  0
  -28.0733  -31.8454   26.5379 H   0  0  0  0  0  0
  -28.2605  -38.0093   24.7530 H   0  0  0  0  0  0
  -28.1061  -36.2631   24.6270 H   0  0  0  0  0  0
  -27.2311  -37.1437   25.8884 H   0  0  0  0  0  0
  -20.9365  -29.8786   21.6874 H   0  0  0  0  0  0
  -26.0178  -38.2853   24.1393 H   0  0  0  0  0  0
  -31.0860  -20.2184   18.8467 H   0  0  0  0  0  0
  -30.0641  -15.0598   24.6647 H   0  0  0  0  0  0
  -30.1127  -13.8222   23.4172 H   0  0  0  0  0  0
  -28.6659  -14.8259   23.6516 H   0  0  0  0  0  0
  -27.4648  -21.0617   23.6816 H   0  0  0  0  0  0
  -26.5858  -19.5395   23.5869 H   0  0  0  0  0  0
  -26.3841  -20.7281   22.3086 H   0  0  0  0  0  0
  -30.7018  -18.3739   21.8527 H   0  0  0  0  0  0
  -31.3226  -18.2229   20.2664 H   0  0  0  0  0  0
  -30.2627  -24.3856   20.1046 H   0  0  0  0  0  0
  -29.4094  -24.2566   21.6028 H   0  0  0  0  0  0
  -31.3873  -15.9724   22.8056 H   0  0  0  0  0  0
  -29.8794  -16.8250   23.0200 H   0  0  0  0  0  0
  -29.4971  -16.7862   19.4827 H   0  0  0  0  0  0
  -28.5316  -17.1191   20.8877 H   0  0  0  0  0  0
  -27.2477  -24.6937   20.4131 H   0  0  0  0  0  0
  -28.0976  -24.8354   18.8908 H   0  0  0  0  0  0
  1 25  1  0  0  0
  1 30  2  0  0  0
  1 84  1  0  0  0
  2  3  1  0  0  0
  2 25  1  0  0  0
  2 86  1  0  0  0
  2 87  1  0  0  0
  3  4  1  0  0  0
  3 88  1  0  0  0
  3 89  1  0  0  0
  4  5  1  0  0  0
  4 90  1  0  0  0
  4 91  1  0  0  0
  5  6  1  0  0  0
  5 26  1  0  0  0
  5 92  1  0  0  0
  6 25  1  0  0  0
  6 93  1  0  0  0
  6 94  1  0  0  0
  7  8  2  0  0  0
  7 26  1  0  0  0
  7 29  1  0  0  0
  8  9  1  0  0  0
  8 22  1  0  0  0
  9 10  1  0  0  0
  9 27  2  0  0  0
 10 11  2  0  0  0
 10 15  1  0  0  0
 11 12  1  0  0  0
 11 95  1  0  0  0
 12 13  2  0  0  0
 12 96  1  0  0  0
 13 14  1  0  0  0
 13 31  1  0  0  0
 14 15  2  0  0  0
 14 97  1  0  0  0
 15 98  1  0  0  0
 16 17  2  0  0  0
 16 21  1  0  0  0
 16 31  1  0  0  0
 17 18  1  0  0  0
 17 99  1  0  0  0
 18 19  2  0  0  0
 18100  1  0  0  0
 19 20  1  0  0  0
 19 24  1  0  0  0
 20 21  2  0  0  0
 20101  1  0  0  0
 21 23  1  0  0  0
 22 28  1  0  0  0
 22 32  2  0  0  0
 26 27  1  0  0  0
 28102  1  0  0  0
 28103  1  0  0  0
 29104  1  0  0  0
 29105  1  0  0  0
 33 34  1  0  0  0
 33 66  1  0  0  0
 33 70  2  0  0  0
 34 36  1  0  0  0
 34 59  1  0  0  0
 34106  1  0  0  0
 35 44  2  0  0  0
 35 45  1  0  0  0
 35 68  1  0  0  0
 36 56  1  0  0  0
 36107  1  0  0  0
 37 39  1  0  0  0
 37 47  1  0  0  0
 37 66  1  0  0  0
 37108  1  0  0  0
 38 43  2  0  0  0
 38 46  1  0  0  0
 38 47  1  0  0  0
 39 64  1  0  0  0
 39 67  2  0  0  0
 40 52  1  0  0  0
 40 53  2  0  0  0
 40 58  1  0  0  0
 41109  1  0  0  0
 41110  1  0  0  0
 41111  1  0  0  0
 41 48  1  0  0  0
 42 43  1  0  0  0
 42 66  1  0  0  0
 42112  1  0  0  0
 42113  1  0  0  0
 43 44  1  0  0  0
 44114  1  0  0  0
 45 46  2  0  0  0
 45115  1  0  0  0
 46116  1  0  0  0
 47117  1  0  0  0
 47118  1  0  0  0
 48 56  1  0  0  0
 48 65  1  0  0  0
 48119  1  0  0  0
 49 50  1  0  0  0
 49 53  1  0  0  0
 49 64  1  0  0  0
 49120  1  0  0  0
 50 51  1  0  0  0
 50121  1  0  0  0
 50122  1  0  0  0
 51 52  1  0  0  0
 51123  1  0  0  0
 51124  1  0  0  0
 52125  1  0  0  0
 52126  1  0  0  0
 53 54  1  0  0  0
 54 55  2  0  0  0
 54127  1  0  0  0
 55 57  1  0  0  0
 55128  1  0  0  0
 56 69  2  0  0  0
 57 58  2  0  0  0
 57129  1  0  0  0
 58130  1  0  0  0
 59 60  1  0  0  0
 59 61  1  0  0  0
 59 62  1  0  0  0
 60131  1  0  0  0
 60132  1  0  0  0
 60133  1  0  0  0
 61134  1  0  0  0
 61135  1  0  0  0
 61136  1  0  0  0
 62137  1  0  0  0
 62138  1  0  0  0
 62139  1  0  0  0
 63 65  1  0  0  0
 63140  1  0  0  0
 63141  1  0  0  0
 63142  1  0  0  0
 64143  1  0  0  0
 65144  1  0  0  0
 68 81  1  0  0  0
 71 72  2  0  0  0
 71 82  1  0  0  0
 71145  1  0  0  0
 72 73  1  0  0  0
 72 77  1  0  0  0
 73 83  2  0  0  0
 73 85  1  0  0  0
 74 78  1  0  0  0
 74 82  2  0  0  0
 74 83  1  0  0  0
 75 79  1  0  0  0
 75146  1  0  0  0
 75147  1  0  0  0
 75148  1  0  0  0
 76 85  1  0  0  0
 76149  1  0  0  0
 76150  1  0  0  0
 76151  1  0  0  0
 77 80  1  0  0  0
 77152  1  0  0  0
 77153  1  0  0  0
 78 81  1  0  0  0
 78154  1  0  0  0
 78155  1  0  0  0
 79 84  1  0  0  0
 79156  1  0  0  0
 79157  1  0  0  0
 80 84  1  0  0  0
 80158  1  0  0  0
 80159  1  0  0  0
 81160  1  0  0  0
 81161  1  0  0  0
M  ISO  4   1 100  68 101  81 101  84 100
M  END
> <chiral flag>
0

> <version>
0

> <s_m_source_file>
/data/baiqing/PycharmProjects/Reinvent-master-3.2/result/LINK_invent/BTK/process_docking_weight1_custom_sum_contain_oxygen_bond_distance_aromatic_linkinvent_7_9_3/rearranged_h_0049.sdf

> <i_m_source_file_index>
34

> <r_mmod_Potential_Energy-OPLS-2005>
-175.742050170898

> <r_mmod_Stretch_Energy-OPLS-2005>
89.1818542480469

> <r_mmod_Bend_Energy-OPLS-2005>
160.865905761719

> <r_mmod_Torsional_Energy-OPLS-2005>
282.728454589844

> <r_mmod_Improper_Torsional_Energy-OPLS-2005>
7.50463056564331

> <r_mmod_Van_der_Waal_Energy-OPLS-2005>
157.151947021484

> <r_mmod_Electrostatic_Energy-OPLS-2005>
-715.58251953125

> <r_mmod_Solvation_Energy-OPLS-2005>
-203.706924438477

> <b_mmod_Minimization_Converged-OPLS-2005>
0

> <r_mmod_RMS_Derivative-OPLS-2005>
2.88489031791687

$$$$
35
                    3D
 Structure written by MMmdl.
157166  0  0  1  0            999 V2000
  -30.4420  -14.3501   20.4572 C   0  0  0  0  0  0
  -31.1228  -12.7189   19.0692 C   0  0  0  0  0  0
  -30.7201  -13.8593   17.7241 C   0  0  0  0  0  0
  -27.3376  -14.4549   18.8910 C   0  0  0  0  0  0
  -27.4278  -13.5757   20.3656 C   0  0  2  0  0  0
  -28.7852  -12.6521   20.8476 C   0  0  0  0  0  0
  -25.0732  -13.8499   20.6992 C   0  0  0  0  0  0
  -24.0524  -13.0121   20.9450 C   0  0  0  0  0  0
  -24.5856  -11.6853   20.8811 C   0  0  0  0  0  0
  -23.8936  -10.4089   21.0247 C   0  0  0  0  0  0
  -24.3570   -9.4095   21.9066 C   0  0  0  0  0  0
  -23.6259   -8.2141   22.0703 C   0  0  0  0  0  0
  -22.4234   -8.0161   21.3504 C   0  0  0  0  0  0
  -21.9828   -9.0066   20.4559 C   0  0  0  0  0  0
  -22.7139  -10.1920   20.2891 C   0  0  0  0  0  0
  -21.6825   -6.0680   22.5292 C   0  0  0  0  0  0
  -21.4003   -6.5605   23.8220 C   0  0  0  0  0  0
  -21.3661   -5.6766   24.9188 C   0  0  0  0  0  0
  -21.6051   -4.3032   24.7241 C   0  0  0  0  0  0
  -21.8825   -3.8111   23.4370 C   0  0  0  0  0  0
  -21.9188   -4.6914   22.3420 C   0  0  0  0  0  0
  -22.6587  -13.4672   21.1927 C   0  0  0  0  0  0
  -22.1653   -4.2102   21.0995 F   0  0  0  0  0  0
  -21.5636   -3.4525   25.7764 F   0  0  0  0  0  0
  -30.2626  -13.0561   20.3816 N   0  0  0  0  0  0
  -26.1594  -13.0340   20.5728 N   0  0  0  0  0  0
  -25.8971  -11.7106   20.6405 N   0  0  0  0  0  0
  -21.9433  -12.7654   22.0583 N   0  0  0  0  0  0
  -25.1652  -15.2391   20.6121 N   0  0  0  0  0  0
  -31.5285  -14.9540   20.4167 O   0  0  0  0  0  0
  -21.6588   -6.8790   21.4247 O   0  0  0  0  0  0
  -22.2330  -14.5023   20.6793 O   0  0  0  0  0  0
  -24.6790  -31.8129   23.1638 C   0  0  0  0  0  0
  -25.9412  -32.4533   23.8123 C   0  0  1  0  0  0
  -27.1777  -26.8345   20.0562 C   0  0  0  0  0  0
  -25.6029  -33.8354   24.2011 N   0  0  0  0  0  0
  -23.4903  -30.4325   21.5220 C   0  0  2  0  0  0
  -24.9233  -28.8091   20.1033 C   0  0  0  0  0  0
  -22.7725  -29.4415   22.4769 C   0  0  0  0  0  0
  -18.0341  -28.1424   22.8466 C   0  0  0  0  0  0
  -24.1496  -36.7181   23.2644 C   0  0  0  0  0  0
  -26.0721  -30.5754   21.4073 C   0  0  0  0  0  0
  -26.1270  -29.1632   20.7269 C   0  0  0  0  0  0
  -27.2506  -28.1963   20.6808 C   0  0  0  0  0  0
  -25.9313  -26.6631   19.4202 C   0  0  0  0  0  0
  -24.8539  -27.5792   19.4400 C   0  0  0  0  0  0
  -23.7248  -29.7565   20.1474 C   0  0  0  0  0  0
  -25.4144  -36.2933   24.0283 C   0  0  1  0  0  0
  -20.5969  -28.3776   23.1171 C   0  0  2  0  0  0
  -20.6811  -26.9450   22.5396 C   0  0  0  0  0  0
  -19.5776  -26.6380   21.5221 C   0  0  0  0  0  0
  -18.1964  -26.7956   22.1630 C   0  0  0  0  0  0
  -19.1603  -28.8925   23.2803 C   0  0  0  0  0  0
  -18.9503  -30.1514   23.8840 C   0  0  0  0  0  0
  -17.6490  -30.6603   24.0559 C   0  0  0  0  0  0
  -25.9127  -34.9323   23.4971 C   0  0  0  0  0  0
  -16.5385  -29.9085   23.6346 C   0  0  0  0  0  0
  -16.7320  -28.6512   23.0360 C   0  0  0  0  0  0
  -26.4594  -31.6535   25.0715 C   0  0  0  0  0  0
  -25.3656  -31.3843   26.1325 C   0  0  0  0  0  0
  -27.0498  -30.2880   24.6556 C   0  0  0  0  0  0
  -27.6064  -32.4366   25.7526 C   0  0  0  0  0  0
  -27.5574  -37.1749   24.8458 C   0  0  0  0  0  0
  -21.4383  -29.3058   22.3520 N   0  0  0  0  0  0
  -26.4274  -37.3687   23.9412 N   0  0  0  0  0  0
  -24.7718  -30.9685   22.0837 N   0  0  0  0  0  0
  -23.4239  -28.7963   23.3017 O   0  0  0  0  0  0
  -28.1173  -25.6399   19.9941 O   0  0  0  0  0  0
  -26.5738  -34.8880   22.4570 O   0  0  0  0  0  0
  -23.5834  -32.1163   23.6681 O   0  0  0  0  0  0
  -27.7502  -19.8246   18.7164 C   0  0  0  0  0  0
  -27.4204  -21.2777   18.8810 C   0  0  0  0  0  0
  -28.8133  -15.3651   17.1436 C   0  0  0  0  0  0
  -29.0094  -19.2016   19.0894 C   0  0  0  0  0  0
  -28.2620  -22.3495   19.4360 C   0  0  0  0  0  0
  -28.5007  -13.8585   16.9430 C   0  0  0  0  0  0
  -29.4699  -14.5713   19.3475 C   0  0  0  0  0  0
  -27.3460  -11.7966   16.0654 C   0  0  0  0  0  0
  -29.6426  -17.5099   19.0338 C   0  0  0  0  0  0
  -27.6538  -24.0401   19.6704 C   0  0  0  0  0  0
  -27.9833  -13.1516   15.7292 C   0  0  0  0  0  0
  -29.7773  -20.2868   19.6209 N   0  0  0  0  0  0
  -29.4606  -21.6790   19.7905 N   0  0  0  0  0  0
  -29.3058  -15.8647   18.5237 N   0  0  0  0  0  0
  -28.8347  -13.0800   18.3062 N   0  3  0  0  0  0
  -32.1955  -12.7435   19.2790 H   0  0  0  0  0  0
  -30.9281  -11.6866   18.7746 H   0  0  0  0  0  0
  -30.8763  -13.3592   16.7600 H   0  0  0  0  0  0
  -31.4069  -14.7138   17.7231 H   0  0  0  0  0  0
  -26.5206  -14.0323   18.2892 H   0  0  0  0  0  0
  -27.0286  -15.4949   19.0403 H   0  0  0  0  0  0
  -27.4984  -14.3651   21.1181 H   0  0  0  0  0  0
  -28.6361  -11.6219   20.5225 H   0  0  0  0  0  0
  -28.7872  -12.5879   21.9379 H   0  0  0  0  0  0
  -25.2681   -9.5656   22.4669 H   0  0  0  0  0  0
  -23.9962   -7.4566   22.7461 H   0  0  0  0  0  0
  -21.0749   -8.8542   19.8893 H   0  0  0  0  0  0
  -22.3554  -10.9443   19.6001 H   0  0  0  0  0  0
  -21.1996   -7.6115   23.9703 H   0  0  0  0  0  0
  -21.1479   -6.0507   25.9087 H   0  0  0  0  0  0
  -22.0610   -2.7571   23.2883 H   0  0  0  0  0  0
  -22.3227  -11.9388   22.4956 H   0  0  0  0  0  0
  -21.0033  -13.0547   22.2877 H   0  0  0  0  0  0
  -24.3443  -15.8319   20.6676 H   0  0  0  0  0  0
  -26.0134  -15.7531   20.4168 H   0  0  0  0  0  0
  -26.7487  -32.4998   23.0826 H   0  0  0  0  0  0
  -25.0112  -33.9410   25.0121 H   0  0  0  0  0  0
  -22.8104  -31.2716   21.3562 H   0  0  0  0  0  0
  -23.3782  -35.9485   23.3247 H   0  0  0  0  0  0
  -24.3568  -36.8901   22.2070 H   0  0  0  0  0  0
  -23.7229  -37.6336   23.6754 H   0  0  0  0  0  0
  -26.2770  -31.3221   20.6391 H   0  0  0  0  0  0
  -26.9244  -30.6165   22.0736 H   0  0  0  0  0  0
  -28.1683  -28.4672   21.1844 H   0  0  0  0  0  0
  -25.7319  -25.7459   18.8912 H   0  0  0  0  0  0
  -23.9378  -27.3044   18.9352 H   0  0  0  0  0  0
  -23.8942  -30.5303   19.3978 H   0  0  0  0  0  0
  -22.8238  -29.2321   19.8219 H   0  0  0  0  0  0
  -25.1347  -36.1703   25.0771 H   0  0  0  0  0  0
  -21.0064  -28.3391   24.1295 H   0  0  0  0  0  0
  -20.5704  -26.2401   23.3650 H   0  0  0  0  0  0
  -21.6669  -26.7421   22.1197 H   0  0  0  0  0  0
  -19.6926  -25.6272   21.1301 H   0  0  0  0  0  0
  -19.6709  -27.3148   20.6718 H   0  0  0  0  0  0
  -17.4231  -26.6714   21.4034 H   0  0  0  0  0  0
  -18.0350  -26.0117   22.9043 H   0  0  0  0  0  0
  -19.7971  -30.7361   24.2177 H   0  0  0  0  0  0
  -17.5030  -31.6278   24.5172 H   0  0  0  0  0  0
  -15.5377  -30.2960   23.7701 H   0  0  0  0  0  0
  -15.8729  -28.0809   22.7089 H   0  0  0  0  0  0
  -24.5856  -30.7190   25.7606 H   0  0  0  0  0  0
  -24.8827  -32.3066   26.4568 H   0  0  0  0  0  0
  -25.7819  -30.9108   27.0225 H   0  0  0  0  0  0
  -26.3185  -29.6523   24.1557 H   0  0  0  0  0  0
  -27.3964  -29.7300   25.5266 H   0  0  0  0  0  0
  -27.9161  -30.4033   24.0039 H   0  0  0  0  0  0
  -27.2631  -33.3733   26.1932 H   0  0  0  0  0  0
  -28.3965  -32.6826   25.0416 H   0  0  0  0  0  0
  -28.0631  -31.8603   26.5583 H   0  0  0  0  0  0
  -28.2544  -38.0090   24.7544 H   0  0  0  0  0  0
  -28.1121  -36.2621   24.6238 H   0  0  0  0  0  0
  -27.2298  -37.1326   25.8859 H   0  0  0  0  0  0
  -20.9656  -29.8764   21.6651 H   0  0  0  0  0  0
  -26.0108  -38.2736   24.1431 H   0  0  0  0  0  0
  -26.9910  -19.1799   18.2977 H   0  0  0  0  0  0
  -26.4294  -21.5791   18.5723 H   0  0  0  0  0  0
  -28.6747  -16.1230   16.3840 H   0  0  0  0  0  0
  -26.9470  -11.3204   15.1700 H   0  0  0  0  0  0
  -26.5244  -11.9090   16.7733 H   0  0  0  0  0  0
  -28.0767  -11.1122   16.4969 H   0  0  0  0  0  0
  -29.8890  -17.3676   20.0845 H   0  0  0  0  0  0
  -30.6160  -17.6779   18.5738 H   0  0  0  0  0  0
  -26.8906  -23.8822   20.4326 H   0  0  0  0  0  0
  -27.0960  -24.1461   18.7429 H   0  0  0  0  0  0
  -28.7989  -13.0244   15.0164 H   0  0  0  0  0  0
  -27.2445  -13.7924   15.2465 H   0  0  0  0  0  0
  -28.8982  -12.0923   18.5120 H   0  0  0  0  0  0
  1 25  1  0  0  0
  1 30  2  0  0  0
  1 77  1  0  0  0
  2  3  1  0  0  0
  2 25  1  0  0  0
  2 86  1  0  0  0
  2 87  1  0  0  0
  3  4  1  0  0  0
  3 88  1  0  0  0
  3 89  1  0  0  0
  4  5  1  0  0  0
  4 90  1  0  0  0
  4 91  1  0  0  0
  5  6  1  0  0  0
  5 26  1  0  0  0
  5 92  1  0  0  0
  6 25  1  0  0  0
  6 93  1  0  0  0
  6 94  1  0  0  0
  7  8  2  0  0  0
  7 26  1  0  0  0
  7 29  1  0  0  0
  8  9  1  0  0  0
  8 22  1  0  0  0
  9 10  1  0  0  0
  9 27  2  0  0  0
 10 11  2  0  0  0
 10 15  1  0  0  0
 11 12  1  0  0  0
 11 95  1  0  0  0
 12 13  2  0  0  0
 12 96  1  0  0  0
 13 14  1  0  0  0
 13 31  1  0  0  0
 14 15  2  0  0  0
 14 97  1  0  0  0
 15 98  1  0  0  0
 16 17  2  0  0  0
 16 21  1  0  0  0
 16 31  1  0  0  0
 17 18  1  0  0  0
 17 99  1  0  0  0
 18 19  2  0  0  0
 18100  1  0  0  0
 19 20  1  0  0  0
 19 24  1  0  0  0
 20 21  2  0  0  0
 20101  1  0  0  0
 21 23  1  0  0  0
 22 28  1  0  0  0
 22 32  2  0  0  0
 26 27  1  0  0  0
 28102  1  0  0  0
 28103  1  0  0  0
 29104  1  0  0  0
 29105  1  0  0  0
 33 34  1  0  0  0
 33 66  1  0  0  0
 33 70  2  0  0  0
 34 36  1  0  0  0
 34 59  1  0  0  0
 34106  1  0  0  0
 35 44  2  0  0  0
 35 45  1  0  0  0
 35 68  1  0  0  0
 36 56  1  0  0  0
 36107  1  0  0  0
 37 39  1  0  0  0
 37 47  1  0  0  0
 37 66  1  0  0  0
 37108  1  0  0  0
 38 43  2  0  0  0
 38 46  1  0  0  0
 38 47  1  0  0  0
 39 64  1  0  0  0
 39 67  2  0  0  0
 40 52  1  0  0  0
 40 53  2  0  0  0
 40 58  1  0  0  0
 41109  1  0  0  0
 41110  1  0  0  0
 41111  1  0  0  0
 41 48  1  0  0  0
 42 43  1  0  0  0
 42 66  1  0  0  0
 42112  1  0  0  0
 42113  1  0  0  0
 43 44  1  0  0  0
 44114  1  0  0  0
 45 46  2  0  0  0
 45115  1  0  0  0
 46116  1  0  0  0
 47117  1  0  0  0
 47118  1  0  0  0
 48 56  1  0  0  0
 48 65  1  0  0  0
 48119  1  0  0  0
 49 50  1  0  0  0
 49 53  1  0  0  0
 49 64  1  0  0  0
 49120  1  0  0  0
 50 51  1  0  0  0
 50121  1  0  0  0
 50122  1  0  0  0
 51 52  1  0  0  0
 51123  1  0  0  0
 51124  1  0  0  0
 52125  1  0  0  0
 52126  1  0  0  0
 53 54  1  0  0  0
 54 55  2  0  0  0
 54127  1  0  0  0
 55 57  1  0  0  0
 55128  1  0  0  0
 56 69  2  0  0  0
 57 58  2  0  0  0
 57129  1  0  0  0
 58130  1  0  0  0
 59 60  1  0  0  0
 59 61  1  0  0  0
 59 62  1  0  0  0
 60131  1  0  0  0
 60132  1  0  0  0
 60133  1  0  0  0
 61134  1  0  0  0
 61135  1  0  0  0
 61136  1  0  0  0
 62137  1  0  0  0
 62138  1  0  0  0
 62139  1  0  0  0
 63 65  1  0  0  0
 63140  1  0  0  0
 63141  1  0  0  0
 63142  1  0  0  0
 64143  1  0  0  0
 65144  1  0  0  0
 68 80  1  0  0  0
 71 72  2  0  0  0
 71 74  1  0  0  0
 71145  1  0  0  0
 72 75  1  0  0  0
 72146  1  0  0  0
 73 76  2  0  0  0
 73 84  1  0  0  0
 73147  1  0  0  0
 74 79  1  0  0  0
 74 82  2  0  0  0
 75 80  1  0  0  0
 75 83  2  0  0  0
 76 81  1  0  0  0
 76 85  1  0  0  0
 77 84  1  0  0  0
 77 85  2  0  0  0
 78 81  1  0  0  0
 78148  1  0  0  0
 78149  1  0  0  0
 78150  1  0  0  0
 79 84  1  0  0  0
 79151  1  0  0  0
 79152  1  0  0  0
 80153  1  0  0  0
 80154  1  0  0  0
 81155  1  0  0  0
 81156  1  0  0  0
 82 83  1  0  0  0
 85157  1  0  0  0
M  CHG  1  85   1
M  ISO  4   1 100  68 101  77 100  80 101
M  END
> <chiral flag>
0

> <version>
0

> <s_m_source_file>
/data/baiqing/PycharmProjects/Reinvent-master-3.2/result/LINK_invent/BTK/process_docking_weight1_custom_sum_contain_oxygen_bond_distance_aromatic_linkinvent_7_9_3/rearranged_h_0049.sdf

> <i_m_source_file_index>
35

> <r_mmod_Potential_Energy-OPLS-2005>
11404.40234375

> <r_mmod_Stretch_Energy-OPLS-2005>
6930.73583984375

> <r_mmod_Bend_Energy-OPLS-2005>
823.968627929688

> <r_mmod_Torsional_Energy-OPLS-2005>
287.179534912109

> <r_mmod_Improper_Torsional_Energy-OPLS-2005>
56.3839111328125

> <r_mmod_Van_der_Waal_Energy-OPLS-2005>
2577.01342773438

> <r_mmod_Electrostatic_Energy-OPLS-2005>
-135.01350402832

> <r_mmod_Solvation_Energy-OPLS-2005>
-447.150085449219

> <b_mmod_Minimization_Converged-OPLS-2005>
0

> <r_mmod_RMS_Derivative-OPLS-2005>
4.09288120269775

$$$$
36
                    3D
 Structure written by MMmdl.
161169  0  0  1  0            999 V2000
  -30.7277  -14.5659   20.4831 C   0  0  0  0  0  0
  -30.4135  -12.3498   19.4391 C   0  0  0  0  0  0
  -29.4869  -12.4652   18.2130 C   0  0  0  0  0  0
  -28.0130  -12.3088   18.6358 C   0  0  0  0  0  0
  -27.6363  -13.1920   19.8533 C   0  0  2  0  0  0
  -28.6958  -13.1187   20.9793 C   0  0  0  0  0  0
  -25.2524  -13.8086   20.5747 C   0  0  0  0  0  0
  -24.1775  -13.0386   20.9242 C   0  0  0  0  0  0
  -24.6327  -11.6855   20.8802 C   0  0  0  0  0  0
  -23.9000  -10.4258   21.0446 C   0  0  0  0  0  0
  -24.3577   -9.4179   21.9210 C   0  0  0  0  0  0
  -23.6268   -8.2206   22.0761 C   0  0  0  0  0  0
  -22.4249   -8.0263   21.3550 C   0  0  0  0  0  0
  -21.9876   -9.0225   20.4643 C   0  0  0  0  0  0
  -22.7192  -10.2112   20.3067 C   0  0  0  0  0  0
  -21.6837   -6.0723   22.5280 C   0  0  0  0  0  0
  -21.4002   -6.5628   23.8211 C   0  0  0  0  0  0
  -21.3666   -5.6783   24.9177 C   0  0  0  0  0  0
  -21.6051   -4.3047   24.7225 C   0  0  0  0  0  0
  -21.8816   -3.8140   23.4344 C   0  0  0  0  0  0
  -21.9183   -4.6957   22.3405 C   0  0  0  0  0  0
  -22.7809  -13.5215   21.1892 C   0  0  0  0  0  0
  -22.1665   -4.2145   21.0983 F   0  0  0  0  0  0
  -21.5632   -3.4534   25.7742 F   0  0  0  0  0  0
  -30.0133  -13.4017   20.3912 N   0  0  0  0  0  0
  -26.2908  -12.9204   20.3379 N   0  0  0  0  0  0
  -25.9237  -11.6390   20.5832 N   0  0  0  0  0  0
  -22.0437  -12.8217   22.0443 N   0  0  0  0  0  0
  -25.4240  -15.1810   20.4175 N   0  0  0  0  0  0
  -31.9268  -14.6027   20.1980 O   0  0  0  0  0  0
  -21.6629   -6.8858   21.4235 O   0  0  0  0  0  0
  -22.3521  -14.5532   20.6739 O   0  0  0  0  0  0
  -24.6179  -31.8663   23.2055 C   0  0  0  0  0  0
  -25.9060  -32.4811   23.8363 C   0  0  1  0  0  0
  -27.2372  -27.4041   20.1131 C   0  0  0  0  0  0
  -25.5900  -33.8610   24.2298 N   0  0  0  0  0  0
  -23.4078  -30.4885   21.5466 C   0  0  2  0  0  0
  -24.8562  -28.9467   20.1177 C   0  0  0  0  0  0
  -22.7424  -29.4665   22.4969 C   0  0  0  0  0  0
  -18.0282  -28.1398   22.8489 C   0  0  0  0  0  0
  -24.1490  -36.7320   23.2635 C   0  0  0  0  0  0
  -25.9384  -30.8251   21.3600 C   0  0  0  0  0  0
  -26.0183  -29.4548   20.7119 C   0  0  0  0  0  0
  -27.2143  -28.6945   20.7001 C   0  0  0  0  0  0
  -26.0588  -26.9198   19.5048 C   0  0  0  0  0  0
  -24.8730  -27.6800   19.5084 C   0  0  0  0  0  0
  -23.6188  -29.8174   20.1632 C   0  0  0  0  0  0
  -25.4112  -36.3109   24.0329 C   0  0  1  0  0  0
  -20.5872  -28.3695   23.1312 C   0  0  2  0  0  0
  -20.6785  -26.9428   22.5423 C   0  0  0  0  0  0
  -19.5759  -26.6398   21.5227 C   0  0  0  0  0  0
  -18.1936  -26.7944   22.1630 C   0  0  0  0  0  0
  -19.1527  -28.8861   23.2899 C   0  0  0  0  0  0
  -18.9457  -30.1464   23.8910 C   0  0  0  0  0  0
  -17.6456  -30.6600   24.0573 C   0  0  0  0  0  0
  -25.9041  -34.9471   23.5117 C   0  0  0  0  0  0
  -16.5350  -29.9104   23.6321 C   0  0  0  0  0  0
  -16.7268  -28.6525   23.0338 C   0  0  0  0  0  0
  -26.4465  -31.6588   25.0698 C   0  0  0  0  0  0
  -25.3716  -31.3701   26.1433 C   0  0  0  0  0  0
  -27.0282  -30.3024   24.6075 C   0  0  0  0  0  0
  -27.6035  -32.4301   25.7474 C   0  0  0  0  0  0
  -27.5580  -37.1818   24.8461 C   0  0  0  0  0  0
  -21.4150  -29.3052   22.3704 N   0  0  0  0  0  0
  -26.4297  -37.3795   23.9400 N   0  0  0  0  0  0
  -24.6733  -31.0747   22.0962 N   0  0  0  0  0  0
  -23.4181  -28.8221   23.3035 O   0  0  0  0  0  0
  -28.3920  -26.6406   20.1018 O   0  0  0  0  0  0
  -26.5614  -34.8932   22.4683 O   0  0  0  0  0  0
  -23.5366  -32.1424   23.7433 O   0  0  0  0  0  0
  -30.4256  -21.0501   22.9535 C   0  0  0  0  0  0
  -29.9475  -23.4057   22.6943 C   0  0  0  0  0  0
  -30.3080  -22.3306   23.5234 C   0  0  0  0  0  0
  -30.1694  -20.8747   21.5792 C   0  0  0  0  0  0
  -29.7167  -23.1807   21.3238 C   0  0  0  0  0  0
  -30.6154  -22.5658   24.9880 C   0  0  0  0  0  0
  -29.1383  -16.1952   19.6486 C   0  0  0  0  0  0
  -30.4592  -19.5158   20.9035 C   0  0  0  0  0  0
  -29.5006  -24.3920   20.3887 C   0  0  0  0  0  0
  -30.0086  -18.2013   21.6370 C   0  0  0  0  0  0
  -30.8210  -16.9168   21.2246 C   0  0  0  0  0  0
  -28.3000  -25.3319   20.7233 C   0  0  0  0  0  0
  -29.8142  -21.9281   20.7833 N   0  0  0  0  0  0
  -30.0590  -15.7450   20.7029 N   0  0  0  0  0  0
  -31.4545  -12.4380   19.1262 H   0  0  0  0  0  0
  -30.3239  -11.3664   19.9032 H   0  0  0  0  0  0
  -29.7420  -11.7035   17.4743 H   0  0  0  0  0  0
  -29.6353  -13.4270   17.7197 H   0  0  0  0  0  0
  -27.8510  -11.2579   18.8764 H   0  0  0  0  0  0
  -27.3550  -12.5307   17.7952 H   0  0  0  0  0  0
  -27.5977  -14.1975   19.4620 H   0  0  0  0  0  0
  -28.6994  -12.1315   21.4421 H   0  0  0  0  0  0
  -28.4595  -13.8270   21.7750 H   0  0  0  0  0  0
  -25.2715   -9.5658   22.4790 H   0  0  0  0  0  0
  -23.9988   -7.4583   22.7453 H   0  0  0  0  0  0
  -21.0826   -8.8727   19.8925 H   0  0  0  0  0  0
  -22.3660  -10.9659   19.6181 H   0  0  0  0  0  0
  -21.1999   -7.6134   23.9714 H   0  0  0  0  0  0
  -21.1501   -6.0518   25.9078 H   0  0  0  0  0  0
  -22.0594   -2.7600   23.2845 H   0  0  0  0  0  0
  -22.4050  -11.9883   22.4850 H   0  0  0  0  0  0
  -21.1050  -13.1225   22.2637 H   0  0  0  0  0  0
  -24.6576  -15.8350   20.5348 H   0  0  0  0  0  0
  -26.2802  -15.6243   20.1111 H   0  0  0  0  0  0
  -26.7131  -32.5524   23.1127 H   0  0  0  0  0  0
  -25.0026  -33.9758   25.0426 H   0  0  0  0  0  0
  -22.6985  -31.3063   21.4038 H   0  0  0  0  0  0
  -23.3741  -35.9665   23.3311 H   0  0  0  0  0  0
  -24.3579  -36.8925   22.2046 H   0  0  0  0  0  0
  -23.7255  -37.6532   23.6645 H   0  0  0  0  0  0
  -26.0465  -31.5854   20.5852 H   0  0  0  0  0  0
  -26.8279  -30.8865   21.9748 H   0  0  0  0  0  0
  -28.1124  -29.0854   21.1572 H   0  0  0  0  0  0
  -26.0528  -25.9526   19.0215 H   0  0  0  0  0  0
  -23.9814  -27.2841   19.0416 H   0  0  0  0  0  0
  -23.7304  -30.5909   19.4021 H   0  0  0  0  0  0
  -22.7420  -29.2394   19.8658 H   0  0  0  0  0  0
  -25.1290  -36.1971   25.0822 H   0  0  0  0  0  0
  -20.9965  -28.3283   24.1433 H   0  0  0  0  0  0
  -20.5734  -26.2302   23.3618 H   0  0  0  0  0  0
  -21.6655  -26.7505   22.1190 H   0  0  0  0  0  0
  -19.6936  -25.6311   21.1259 H   0  0  0  0  0  0
  -19.6705  -27.3211   20.6762 H   0  0  0  0  0  0
  -17.4214  -26.6689   21.4025 H   0  0  0  0  0  0
  -18.0333  -26.0087   22.9028 H   0  0  0  0  0  0
  -19.7928  -30.7283   24.2287 H   0  0  0  0  0  0
  -17.5010  -31.6277   24.5182 H   0  0  0  0  0  0
  -15.5350  -30.3018   23.7637 H   0  0  0  0  0  0
  -15.8670  -28.0861   22.7029 H   0  0  0  0  0  0
  -24.5892  -30.7050   25.7755 H   0  0  0  0  0  0
  -24.8904  -32.2864   26.4869 H   0  0  0  0  0  0
  -25.8056  -30.8866   27.0195 H   0  0  0  0  0  0
  -26.2831  -29.6810   24.1096 H   0  0  0  0  0  0
  -27.4006  -29.7231   25.4533 H   0  0  0  0  0  0
  -27.8683  -30.4323   23.9247 H   0  0  0  0  0  0
  -27.2645  -33.3586   26.2076 H   0  0  0  0  0  0
  -28.3839  -32.6884   25.0304 H   0  0  0  0  0  0
  -28.0707  -31.8408   26.5371 H   0  0  0  0  0  0
  -28.2604  -38.0109   24.7496 H   0  0  0  0  0  0
  -28.1070  -36.2640   24.6302 H   0  0  0  0  0  0
  -27.2296  -37.1489   25.8865 H   0  0  0  0  0  0
  -20.9332  -29.8721   21.6866 H   0  0  0  0  0  0
  -26.0184  -38.2874   24.1392 H   0  0  0  0  0  0
  -30.7591  -20.2246   23.5675 H   0  0  0  0  0  0
  -29.8975  -24.4062   23.1039 H   0  0  0  0  0  0
  -30.8415  -21.6340   25.5066 H   0  0  0  0  0  0
  -29.7656  -23.0328   25.4867 H   0  0  0  0  0  0
  -31.4782  -23.2251   25.0900 H   0  0  0  0  0  0
  -28.1304  -16.2917   20.0501 H   0  0  0  0  0  0
  -29.1194  -15.5312   18.7843 H   0  0  0  0  0  0
  -29.4177  -17.1646   19.2362 H   0  0  0  0  0  0
  -31.5415  -19.4922   20.7704 H   0  0  0  0  0  0
  -30.0426  -19.5147   19.8950 H   0  0  0  0  0  0
  -29.4148  -24.0506   19.3569 H   0  0  0  0  0  0
  -30.4206  -24.9757   20.4293 H   0  0  0  0  0  0
  -28.9318  -18.0678   21.5263 H   0  0  0  0  0  0
  -30.1529  -18.3165   22.7094 H   0  0  0  0  0  0
  -31.3997  -16.5898   22.0913 H   0  0  0  0  0  0
  -31.5678  -17.1884   20.4759 H   0  0  0  0  0  0
  -28.2623  -25.5069   21.7978 H   0  0  0  0  0  0
  -27.3762  -24.8140   20.4678 H   0  0  0  0  0  0
  1 25  1  0  0  0
  1 30  2  0  0  0
  1 84  1  0  0  0
  2  3  1  0  0  0
  2 25  1  0  0  0
  2 85  1  0  0  0
  2 86  1  0  0  0
  3  4  1  0  0  0
  3 87  1  0  0  0
  3 88  1  0  0  0
  4  5  1  0  0  0
  4 89  1  0  0  0
  4 90  1  0  0  0
  5  6  1  0  0  0
  5 26  1  0  0  0
  5 91  1  0  0  0
  6 25  1  0  0  0
  6 92  1  0  0  0
  6 93  1  0  0  0
  7  8  2  0  0  0
  7 26  1  0  0  0
  7 29  1  0  0  0
  8  9  1  0  0  0
  8 22  1  0  0  0
  9 10  1  0  0  0
  9 27  2  0  0  0
 10 11  2  0  0  0
 10 15  1  0  0  0
 11 12  1  0  0  0
 11 94  1  0  0  0
 12 13  2  0  0  0
 12 95  1  0  0  0
 13 14  1  0  0  0
 13 31  1  0  0  0
 14 15  2  0  0  0
 14 96  1  0  0  0
 15 97  1  0  0  0
 16 17  2  0  0  0
 16 21  1  0  0  0
 16 31  1  0  0  0
 17 18  1  0  0  0
 17 98  1  0  0  0
 18 19  2  0  0  0
 18 99  1  0  0  0
 19 20  1  0  0  0
 19 24  1  0  0  0
 20 21  2  0  0  0
 20100  1  0  0  0
 21 23  1  0  0  0
 22 28  1  0  0  0
 22 32  2  0  0  0
 26 27  1  0  0  0
 28101  1  0  0  0
 28102  1  0  0  0
 29103  1  0  0  0
 29104  1  0  0  0
 33 34  1  0  0  0
 33 66  1  0  0  0
 33 70  2  0  0  0
 34 36  1  0  0  0
 34 59  1  0  0  0
 34105  1  0  0  0
 35 44  2  0  0  0
 35 45  1  0  0  0
 35 68  1  0  0  0
 36 56  1  0  0  0
 36106  1  0  0  0
 37 39  1  0  0  0
 37 47  1  0  0  0
 37 66  1  0  0  0
 37107  1  0  0  0
 38 43  2  0  0  0
 38 46  1  0  0  0
 38 47  1  0  0  0
 39 64  1  0  0  0
 39 67  2  0  0  0
 40 52  1  0  0  0
 40 53  2  0  0  0
 40 58  1  0  0  0
 41108  1  0  0  0
 41109  1  0  0  0
 41110  1  0  0  0
 41 48  1  0  0  0
 42 43  1  0  0  0
 42 66  1  0  0  0
 42111  1  0  0  0
 42112  1  0  0  0
 43 44  1  0  0  0
 44113  1  0  0  0
 45 46  2  0  0  0
 45114  1  0  0  0
 46115  1  0  0  0
 47116  1  0  0  0
 47117  1  0  0  0
 48 56  1  0  0  0
 48 65  1  0  0  0
 48118  1  0  0  0
 49 50  1  0  0  0
 49 53  1  0  0  0
 49 64  1  0  0  0
 49119  1  0  0  0
 50 51  1  0  0  0
 50120  1  0  0  0
 50121  1  0  0  0
 51 52  1  0  0  0
 51122  1  0  0  0
 51123  1  0  0  0
 52124  1  0  0  0
 52125  1  0  0  0
 53 54  1  0  0  0
 54 55  2  0  0  0
 54126  1  0  0  0
 55 57  1  0  0  0
 55127  1  0  0  0
 56 69  2  0  0  0
 57 58  2  0  0  0
 57128  1  0  0  0
 58129  1  0  0  0
 59 60  1  0  0  0
 59 61  1  0  0  0
 59 62  1  0  0  0
 60130  1  0  0  0
 60131  1  0  0  0
 60132  1  0  0  0
 61133  1  0  0  0
 61134  1  0  0  0
 61135  1  0  0  0
 62136  1  0  0  0
 62137  1  0  0  0
 62138  1  0  0  0
 63 65  1  0  0  0
 63139  1  0  0  0
 63140  1  0  0  0
 63141  1  0  0  0
 64142  1  0  0  0
 65143  1  0  0  0
 68 82  1  0  0  0
 71 73  2  0  0  0
 71 74  1  0  0  0
 71144  1  0  0  0
 72 73  1  0  0  0
 72 75  2  0  0  0
 72145  1  0  0  0
 73 76  1  0  0  0
 74 78  1  0  0  0
 74 83  2  0  0  0
 75 79  1  0  0  0
 75 83  1  0  0  0
 76146  1  0  0  0
 76147  1  0  0  0
 76148  1  0  0  0
 77 84  1  0  0  0
 77149  1  0  0  0
 77150  1  0  0  0
 77151  1  0  0  0
 78 80  1  0  0  0
 78152  1  0  0  0
 78153  1  0  0  0
 79 82  1  0  0  0
 79154  1  0  0  0
 79155  1  0  0  0
 80 81  1  0  0  0
 80156  1  0  0  0
 80157  1  0  0  0
 81 84  1  0  0  0
 81158  1  0  0  0
 81159  1  0  0  0
 82160  1  0  0  0
 82161  1  0  0  0
M  ISO  4   1 100  68 101  82 101  84 100
M  END
> <chiral flag>
0

> <version>
0

> <s_m_source_file>
/data/baiqing/PycharmProjects/Reinvent-master-3.2/result/LINK_invent/BTK/process_docking_weight1_custom_sum_contain_oxygen_bond_distance_aromatic_linkinvent_7_9_3/rearranged_h_0049.sdf

> <i_m_source_file_index>
36

> <r_mmod_Potential_Energy-OPLS-2005>
53.1563758850098

> <r_mmod_Stretch_Energy-OPLS-2005>
52.395320892334

> <r_mmod_Bend_Energy-OPLS-2005>
117.769981384277

> <r_mmod_Torsional_Energy-OPLS-2005>
316.534118652344

> <r_mmod_Improper_Torsional_Energy-OPLS-2005>
9.36416149139404

> <r_mmod_Van_der_Waal_Energy-OPLS-2005>
160.71728515625

> <r_mmod_Electrostatic_Energy-OPLS-2005>
-425.600402832031

> <r_mmod_Solvation_Energy-OPLS-2005>
-210.371047973633

> <b_mmod_Minimization_Converged-OPLS-2005>
0

> <r_mmod_RMS_Derivative-OPLS-2005>
1.64917683601379

$$$$
37
                    3D
 Structure written by MMmdl.
157165  0  0  1  0            999 V2000
  -30.6637  -14.7244   20.5252 C   0  0  0  0  0  0
  -30.4293  -12.4595   19.4773 C   0  0  0  0  0  0
  -29.5087  -12.5221   18.2387 C   0  0  0  0  0  0
  -28.0339  -12.3498   18.6472 C   0  0  0  0  0  0
  -27.6457  -13.2331   19.8600 C   0  0  2  0  0  0
  -28.6877  -13.1307   20.9915 C   0  0  0  0  0  0
  -25.2522  -13.8205   20.5706 C   0  0  0  0  0  0
  -24.1805  -13.0449   20.9203 C   0  0  0  0  0  0
  -24.6401  -11.6925   20.8753 C   0  0  0  0  0  0
  -23.9089  -10.4298   21.0415 C   0  0  0  0  0  0
  -24.3635   -9.4206   21.9185 C   0  0  0  0  0  0
  -23.6304   -8.2248   22.0756 C   0  0  0  0  0  0
  -22.4284   -8.0290   21.3549 C   0  0  0  0  0  0
  -21.9926   -9.0266   20.4649 C   0  0  0  0  0  0
  -22.7266  -10.2141   20.3059 C   0  0  0  0  0  0
  -21.6852   -6.0746   22.5277 C   0  0  0  0  0  0
  -21.4014   -6.5654   23.8209 C   0  0  0  0  0  0
  -21.3657   -5.6806   24.9168 C   0  0  0  0  0  0
  -21.6042   -4.3067   24.7220 C   0  0  0  0  0  0
  -21.8820   -3.8164   23.4340 C   0  0  0  0  0  0
  -21.9192   -4.6978   22.3397 C   0  0  0  0  0  0
  -22.7823  -13.5224   21.1863 C   0  0  0  0  0  0
  -22.1660   -4.2163   21.0974 F   0  0  0  0  0  0
  -21.5625   -3.4548   25.7733 F   0  0  0  0  0  0
  -29.9940  -13.5156   20.4282 N   0  0  0  0  0  0
  -26.2958  -12.9412   20.3326 N   0  0  0  0  0  0
  -25.9335  -11.6552   20.5770 N   0  0  0  0  0  0
  -22.0489  -12.8198   22.0422 N   0  0  0  0  0  0
  -25.4235  -15.1928   20.4130 N   0  0  0  0  0  0
  -31.8088  -14.8029   20.0679 O   0  0  0  0  0  0
  -21.6646   -6.8889   21.4241 O   0  0  0  0  0  0
  -22.3500  -14.5532   20.6718 O   0  0  0  0  0  0
  -24.6334  -31.8584   23.1964 C   0  0  0  0  0  0
  -25.9169  -32.4774   23.8298 C   0  0  1  0  0  0
  -27.2169  -27.2592   20.1114 C   0  0  0  0  0  0
  -25.5974  -33.8567   24.2221 N   0  0  0  0  0  0
  -23.4292  -30.4845   21.5400 C   0  0  2  0  0  0
  -24.8759  -28.9392   20.1056 C   0  0  0  0  0  0
  -22.7515  -29.4645   22.4882 C   0  0  0  0  0  0
  -18.0303  -28.1436   22.8487 C   0  0  0  0  0  0
  -24.1490  -36.7257   23.2631 C   0  0  0  0  0  0
  -25.9794  -30.7671   21.3818 C   0  0  0  0  0  0
  -26.0511  -29.3916   20.7206 C   0  0  0  0  0  0
  -27.2225  -28.5628   20.7191 C   0  0  0  0  0  0
  -26.0181  -26.9011   19.4419 C   0  0  0  0  0  0
  -24.8656  -27.7009   19.4564 C   0  0  0  0  0  0
  -23.6480  -29.8247   20.1555 C   0  0  0  0  0  0
  -25.4124  -36.3060   24.0313 C   0  0  1  0  0  0
  -20.5914  -28.3756   23.1254 C   0  0  2  0  0  0
  -20.6802  -26.9472   22.5414 C   0  0  0  0  0  0
  -19.5769  -26.6423   21.5232 C   0  0  0  0  0  0
  -18.1944  -26.7979   22.1629 C   0  0  0  0  0  0
  -19.1556  -28.8911   23.2875 C   0  0  0  0  0  0
  -18.9475  -30.1509   23.8902 C   0  0  0  0  0  0
  -17.6473  -30.6624   24.0586 C   0  0  0  0  0  0
  -25.9075  -34.9444   23.5062 C   0  0  0  0  0  0
  -16.5368  -29.9125   23.6348 C   0  0  0  0  0  0
  -16.7291  -28.6550   23.0358 C   0  0  0  0  0  0
  -26.4522  -31.6597   25.0680 C   0  0  0  0  0  0
  -25.3712  -31.3802   26.1371 C   0  0  0  0  0  0
  -27.0370  -30.2997   24.6205 C   0  0  0  0  0  0
  -27.6067  -32.4340   25.7469 C   0  0  0  0  0  0
  -27.5578  -37.1784   24.8466 C   0  0  0  0  0  0
  -21.4217  -29.3093   22.3620 N   0  0  0  0  0  0
  -26.4282  -37.3773   23.9417 N   0  0  0  0  0  0
  -24.6995  -31.0547   22.0948 N   0  0  0  0  0  0
  -23.4217  -28.8182   23.2975 O   0  0  0  0  0  0
  -28.2856  -26.3231   20.1980 O   0  0  0  0  0  0
  -26.5625  -34.8932   22.4615 O   0  0  0  0  0  0
  -23.5487  -32.1412   23.7262 O   0  0  0  0  0  0
  -28.9376  -22.3908   19.5203 C   0  0  0  0  0  0
  -28.7917  -23.6115   20.1904 C   0  0  0  0  0  0
  -29.8179  -22.0695   21.5055 C   0  0  0  0  0  0
  -30.5013  -21.4780   22.6960 C   0  0  0  0  0  0
  -29.4505  -16.0479   22.2192 C   0  0  0  0  0  0
  -27.9846  -24.9038   19.7937 C   0  0  0  0  0  0
  -29.5783  -18.6573   20.6736 C   0  0  0  0  0  0
  -30.0625  -20.0241   19.9586 C   0  0  0  0  0  0
  -30.3335  -17.2747   20.2506 C   0  0  0  0  0  0
  -29.5622  -21.4422   20.3382 N   0  0  0  0  0  0
  -29.3614  -23.3435   21.4142 N   0  3  0  0  0  0
  -29.9905  -15.9067   20.8631 N   0  0  0  0  0  0
  -31.4708  -12.5712   19.1714 H   0  0  0  0  0  0
  -30.3712  -11.4767   19.9484 H   0  0  0  0  0  0
  -29.7881  -11.7493   17.5208 H   0  0  0  0  0  0
  -29.6397  -13.4776   17.7287 H   0  0  0  0  0  0
  -27.8821  -11.2982   18.8939 H   0  0  0  0  0  0
  -27.3781  -12.5614   17.8025 H   0  0  0  0  0  0
  -27.6537  -14.2643   19.5068 H   0  0  0  0  0  0
  -28.7288  -12.1138   21.3849 H   0  0  0  0  0  0
  -28.3790  -13.7481   21.8293 H   0  0  0  0  0  0
  -25.2778   -9.5677   22.4763 H   0  0  0  0  0  0
  -24.0008   -7.4642   22.7469 H   0  0  0  0  0  0
  -21.0866   -8.8794   19.8950 H   0  0  0  0  0  0
  -22.3728  -10.9687   19.6172 H   0  0  0  0  0  0
  -21.2009   -7.6162   23.9712 H   0  0  0  0  0  0
  -21.1473   -6.0535   25.9068 H   0  0  0  0  0  0
  -22.0601   -2.7627   23.2834 H   0  0  0  0  0  0
  -22.4108  -11.9844   22.4775 H   0  0  0  0  0  0
  -21.1114  -13.1215   22.2675 H   0  0  0  0  0  0
  -24.6631  -15.8531   20.5292 H   0  0  0  0  0  0
  -26.2845  -15.6285   20.1077 H   0  0  0  0  0  0
  -26.7226  -32.5421   23.1034 H   0  0  0  0  0  0
  -25.0177  -33.9706   25.0406 H   0  0  0  0  0  0
  -22.7265  -31.3076   21.3960 H   0  0  0  0  0  0
  -23.3764  -35.9577   23.3297 H   0  0  0  0  0  0
  -24.3576  -36.8876   22.2045 H   0  0  0  0  0  0
  -23.7242  -37.6458   23.6652 H   0  0  0  0  0  0
  -26.1246  -31.5292   20.6156 H   0  0  0  0  0  0
  -26.8555  -30.8112   22.0171 H   0  0  0  0  0  0
  -28.1169  -28.9021   21.2236 H   0  0  0  0  0  0
  -25.9132  -25.9740   18.9003 H   0  0  0  0  0  0
  -23.9705  -27.3530   18.9566 H   0  0  0  0  0  0
  -23.7738  -30.6020   19.4005 H   0  0  0  0  0  0
  -22.7661  -29.2594   19.8484 H   0  0  0  0  0  0
  -25.1322  -36.1870   25.0806 H   0  0  0  0  0  0
  -21.0034  -28.3360   24.1365 H   0  0  0  0  0  0
  -20.5732  -26.2386   23.3637 H   0  0  0  0  0  0
  -21.6667  -26.7516   22.1199 H   0  0  0  0  0  0
  -19.6921  -25.6326   21.1281 H   0  0  0  0  0  0
  -19.6701  -27.3223   20.6749 H   0  0  0  0  0  0
  -17.4234  -26.6772   21.4006 H   0  0  0  0  0  0
  -18.0305  -26.0130   22.9026 H   0  0  0  0  0  0
  -19.7946  -30.7341   24.2268 H   0  0  0  0  0  0
  -17.5023  -31.6295   24.5212 H   0  0  0  0  0  0
  -15.5367  -30.3035   23.7667 H   0  0  0  0  0  0
  -15.8694  -28.0876   22.7054 H   0  0  0  0  0  0
  -24.5933  -30.7091   25.7709 H   0  0  0  0  0  0
  -24.8839  -32.2996   26.4622 H   0  0  0  0  0  0
  -25.7990  -30.9117   27.0235 H   0  0  0  0  0  0
  -26.2951  -29.6737   24.1224 H   0  0  0  0  0  0
  -27.4028  -29.7282   25.4745 H   0  0  0  0  0  0
  -27.8853  -30.4252   23.9470 H   0  0  0  0  0  0
  -27.2679  -33.3681   26.1954 H   0  0  0  0  0  0
  -28.3931  -32.6824   25.0332 H   0  0  0  0  0  0
  -28.0662  -31.8508   26.5460 H   0  0  0  0  0  0
  -28.2600  -38.0080   24.7529 H   0  0  0  0  0  0
  -28.1068  -36.2614   24.6269 H   0  0  0  0  0  0
  -27.2295  -37.1409   25.8867 H   0  0  0  0  0  0
  -20.9401  -29.8782   21.6795 H   0  0  0  0  0  0
  -26.0141  -38.2831   24.1444 H   0  0  0  0  0  0
  -28.6267  -22.1320   18.5181 H   0  0  0  0  0  0
  -29.8548  -20.7111   23.1218 H   0  0  0  0  0  0
  -30.6834  -22.2595   23.4327 H   0  0  0  0  0  0
  -31.4479  -21.0423   22.3800 H   0  0  0  0  0  0
  -28.3810  -16.2591   22.1870 H   0  0  0  0  0  0
  -29.9460  -16.8564   22.7570 H   0  0  0  0  0  0
  -29.6148  -15.1659   22.8385 H   0  0  0  0  0  0
  -26.9916  -24.6648   20.1744 H   0  0  0  0  0  0
  -27.9077  -24.8935   18.7060 H   0  0  0  0  0  0
  -28.5108  -18.5378   20.4883 H   0  0  0  0  0  0
  -29.6735  -18.8006   21.7475 H   0  0  0  0  0  0
  -29.8878  -19.9222   18.8872 H   0  0  0  0  0  0
  -31.1479  -20.0710   20.0553 H   0  0  0  0  0  0
  -31.4004  -17.4308   20.4209 H   0  0  0  0  0  0
  -30.2363  -17.1636   19.1692 H   0  0  0  0  0  0
  -29.4150  -24.0208   22.1662 H   0  0  0  0  0  0
  1 25  1  0  0  0
  1 30  2  0  0  0
  1 82  1  0  0  0
  2  3  1  0  0  0
  2 25  1  0  0  0
  2 83  1  0  0  0
  2 84  1  0  0  0
  3  4  1  0  0  0
  3 85  1  0  0  0
  3 86  1  0  0  0
  4  5  1  0  0  0
  4 87  1  0  0  0
  4 88  1  0  0  0
  5  6  1  0  0  0
  5 26  1  0  0  0
  5 89  1  0  0  0
  6 25  1  0  0  0
  6 90  1  0  0  0
  6 91  1  0  0  0
  7  8  2  0  0  0
  7 26  1  0  0  0
  7 29  1  0  0  0
  8  9  1  0  0  0
  8 22  1  0  0  0
  9 10  1  0  0  0
  9 27  2  0  0  0
 10 11  2  0  0  0
 10 15  1  0  0  0
 11 12  1  0  0  0
 11 92  1  0  0  0
 12 13  2  0  0  0
 12 93  1  0  0  0
 13 14  1  0  0  0
 13 31  1  0  0  0
 14 15  2  0  0  0
 14 94  1  0  0  0
 15 95  1  0  0  0
 16 17  2  0  0  0
 16 21  1  0  0  0
 16 31  1  0  0  0
 17 18  1  0  0  0
 17 96  1  0  0  0
 18 19  2  0  0  0
 18 97  1  0  0  0
 19 20  1  0  0  0
 19 24  1  0  0  0
 20 21  2  0  0  0
 20 98  1  0  0  0
 21 23  1  0  0  0
 22 28  1  0  0  0
 22 32  2  0  0  0
 26 27  1  0  0  0
 28 99  1  0  0  0
 28100  1  0  0  0
 29101  1  0  0  0
 29102  1  0  0  0
 33 34  1  0  0  0
 33 66  1  0  0  0
 33 70  2  0  0  0
 34 36  1  0  0  0
 34 59  1  0  0  0
 34103  1  0  0  0
 35 44  2  0  0  0
 35 45  1  0  0  0
 35 68  1  0  0  0
 36 56  1  0  0  0
 36104  1  0  0  0
 37 39  1  0  0  0
 37 47  1  0  0  0
 37 66  1  0  0  0
 37105  1  0  0  0
 38 43  2  0  0  0
 38 46  1  0  0  0
 38 47  1  0  0  0
 39 64  1  0  0  0
 39 67  2  0  0  0
 40 52  1  0  0  0
 40 53  2  0  0  0
 40 58  1  0  0  0
 41106  1  0  0  0
 41107  1  0  0  0
 41108  1  0  0  0
 41 48  1  0  0  0
 42 43  1  0  0  0
 42 66  1  0  0  0
 42109  1  0  0  0
 42110  1  0  0  0
 43 44  1  0  0  0
 44111  1  0  0  0
 45 46  2  0  0  0
 45112  1  0  0  0
 46113  1  0  0  0
 47114  1  0  0  0
 47115  1  0  0  0
 48 56  1  0  0  0
 48 65  1  0  0  0
 48116  1  0  0  0
 49 50  1  0  0  0
 49 53  1  0  0  0
 49 64  1  0  0  0
 49117  1  0  0  0
 50 51  1  0  0  0
 50118  1  0  0  0
 50119  1  0  0  0
 51 52  1  0  0  0
 51120  1  0  0  0
 51121  1  0  0  0
 52122  1  0  0  0
 52123  1  0  0  0
 53 54  1  0  0  0
 54 55  2  0  0  0
 54124  1  0  0  0
 55 57  1  0  0  0
 55125  1  0  0  0
 56 69  2  0  0  0
 57 58  2  0  0  0
 57126  1  0  0  0
 58127  1  0  0  0
 59 60  1  0  0  0
 59 61  1  0  0  0
 59 62  1  0  0  0
 60128  1  0  0  0
 60129  1  0  0  0
 60130  1  0  0  0
 61131  1  0  0  0
 61132  1  0  0  0
 61133  1  0  0  0
 62134  1  0  0  0
 62135  1  0  0  0
 62136  1  0  0  0
 63 65  1  0  0  0
 63137  1  0  0  0
 63138  1  0  0  0
 63139  1  0  0  0
 64140  1  0  0  0
 65141  1  0  0  0
 68 76  1  0  0  0
 71 72  2  0  0  0
 71 80  1  0  0  0
 71142  1  0  0  0
 72 76  1  0  0  0
 72 81  1  0  0  0
 73 74  1  0  0  0
 73 80  1  0  0  0
 73 81  2  0  0  0
 74143  1  0  0  0
 74144  1  0  0  0
 74145  1  0  0  0
 75 82  1  0  0  0
 75146  1  0  0  0
 75147  1  0  0  0
 75148  1  0  0  0
 76149  1  0  0  0
 76150  1  0  0  0
 77 78  1  0  0  0
 77 79  1  0  0  0
 77151  1  0  0  0
 77152  1  0  0  0
 78 80  1  0  0  0
 78153  1  0  0  0
 78154  1  0  0  0
 79 82  1  0  0  0
 79155  1  0  0  0
 79156  1  0  0  0
 81157  1  0  0  0
M  CHG  1  81   1
M  ISO  4   1 100  68 101  76 101  82 100
M  END
> <chiral flag>
0

> <version>
0

> <s_m_source_file>
/data/baiqing/PycharmProjects/Reinvent-master-3.2/result/LINK_invent/BTK/process_docking_weight1_custom_sum_contain_oxygen_bond_distance_aromatic_linkinvent_7_9_3/rearranged_h_0049.sdf

> <i_m_source_file_index>
37

> <r_mmod_Potential_Energy-OPLS-2005>
237.17497253418

> <r_mmod_Stretch_Energy-OPLS-2005>
126.165161132812

> <r_mmod_Bend_Energy-OPLS-2005>
188.159744262695

> <r_mmod_Torsional_Energy-OPLS-2005>
281.339050292969

> <r_mmod_Improper_Torsional_Energy-OPLS-2005>
10.3833103179932

> <r_mmod_Van_der_Waal_Energy-OPLS-2005>
132.562805175781

> <r_mmod_Electrostatic_Energy-OPLS-2005>
-174.203689575195

> <r_mmod_Solvation_Energy-OPLS-2005>
-409.372955322266

> <b_mmod_Minimization_Converged-OPLS-2005>
0

> <r_mmod_RMS_Derivative-OPLS-2005>
2.18408870697021

$$$$
38
                    3D
 Structure written by MMmdl.
164172  0  0  1  0            999 V2000
  -30.7562  -14.5090   20.5542 C   0  0  0  0  0  0
  -30.4211  -12.3170   19.4506 C   0  0  0  0  0  0
  -29.5167  -12.5101   18.2183 C   0  0  0  0  0  0
  -28.0283  -12.3900   18.6089 C   0  0  0  0  0  0
  -27.6707  -13.2219   19.8735 C   0  0  2  0  0  0
  -28.7208  -13.0599   21.0000 C   0  0  0  0  0  0
  -25.2664  -13.8212   20.5669 C   0  0  0  0  0  0
  -24.1895  -13.0486   20.9124 C   0  0  0  0  0  0
  -24.6463  -11.6943   20.8679 C   0  0  0  0  0  0
  -23.9119  -10.4323   21.0357 C   0  0  0  0  0  0
  -24.3665   -9.4243   21.9154 C   0  0  0  0  0  0
  -23.6325   -8.2287   22.0745 C   0  0  0  0  0  0
  -22.4291   -8.0312   21.3556 C   0  0  0  0  0  0
  -21.9930   -9.0274   20.4642 C   0  0  0  0  0  0
  -22.7270  -10.2152   20.3028 C   0  0  0  0  0  0
  -21.6884   -6.0730   22.5243 C   0  0  0  0  0  0
  -21.4032   -6.5619   23.8179 C   0  0  0  0  0  0
  -21.3684   -5.6774   24.9137 C   0  0  0  0  0  0
  -21.6063   -4.3034   24.7175 C   0  0  0  0  0  0
  -21.8848   -3.8133   23.4291 C   0  0  0  0  0  0
  -21.9211   -4.6954   22.3356 C   0  0  0  0  0  0
  -22.7913  -13.5259   21.1785 C   0  0  0  0  0  0
  -22.1683   -4.2160   21.0925 F   0  0  0  0  0  0
  -21.5637   -3.4513   25.7683 F   0  0  0  0  0  0
  -30.0511  -13.3465   20.4351 N   0  0  0  0  0  0
  -26.3122  -12.9403   20.3376 N   0  0  0  0  0  0
  -25.9411  -11.6553   20.5771 N   0  0  0  0  0  0
  -22.0568  -12.8270   22.0340 N   0  0  0  0  0  0
  -25.4423  -15.1954   20.4115 N   0  0  0  0  0  0
  -31.8782  -14.6480   20.0672 O   0  0  0  0  0  0
  -21.6685   -6.8878   21.4223 O   0  0  0  0  0  0
  -22.3583  -14.5557   20.6610 O   0  0  0  0  0  0
  -24.6192  -31.8626   23.2000 C   0  0  0  0  0  0
  -25.9042  -32.4815   23.8310 C   0  0  1  0  0  0
  -27.2679  -27.3963   20.1139 C   0  0  0  0  0  0
  -25.5846  -33.8592   24.2270 N   0  0  0  0  0  0
  -23.4175  -30.4780   21.5419 C   0  0  2  0  0  0
  -24.8740  -28.9363   20.1097 C   0  0  0  0  0  0
  -22.7458  -29.4610   22.4958 C   0  0  0  0  0  0
  -18.0271  -28.1403   22.8542 C   0  0  0  0  0  0
  -24.1511  -36.7293   23.2644 C   0  0  0  0  0  0
  -25.9459  -30.8215   21.3595 C   0  0  0  0  0  0
  -26.0291  -29.4484   20.7100 C   0  0  0  0  0  0
  -27.2265  -28.6880   20.7031 C   0  0  0  0  0  0
  -26.0931  -26.9127   19.5006 C   0  0  0  0  0  0
  -24.9055  -27.6711   19.4943 C   0  0  0  0  0  0
  -23.6320  -29.8011   20.1592 C   0  0  0  0  0  0
  -25.4132  -36.3110   24.0348 C   0  0  1  0  0  0
  -20.5859  -28.3688   23.1336 C   0  0  2  0  0  0
  -20.6764  -26.9428   22.5430 C   0  0  0  0  0  0
  -19.5713  -26.6423   21.5254 C   0  0  0  0  0  0
  -18.1903  -26.7968   22.1677 C   0  0  0  0  0  0
  -19.1508  -28.8871   23.2958 C   0  0  0  0  0  0
  -18.9428  -30.1476   23.8964 C   0  0  0  0  0  0
  -17.6413  -30.6619   24.0566 C   0  0  0  0  0  0
  -25.9039  -34.9468   23.5138 C   0  0  0  0  0  0
  -16.5319  -29.9104   23.6314 C   0  0  0  0  0  0
  -16.7248  -28.6519   23.0366 C   0  0  0  0  0  0
  -26.4417  -31.6579   25.0635 C   0  0  0  0  0  0
  -25.3631  -31.3638   26.1319 C   0  0  0  0  0  0
  -27.0222  -30.3018   24.6027 C   0  0  0  0  0  0
  -27.6009  -32.4279   25.7371 C   0  0  0  0  0  0
  -27.5609  -37.1800   24.8469 C   0  0  0  0  0  0
  -21.4179  -29.3042   22.3723 N   0  0  0  0  0  0
  -26.4322  -37.3798   23.9402 N   0  0  0  0  0  0
  -24.6780  -31.0661   22.0940 N   0  0  0  0  0  0
  -23.4179  -28.8199   23.3070 O   0  0  0  0  0  0
  -28.4505  -26.6644   20.1677 O   0  0  0  0  0  0
  -26.5643  -34.8949   22.4726 O   0  0  0  0  0  0
  -23.5359  -32.1372   23.7376 O   0  0  0  0  0  0
  -29.1010  -17.5274   19.1845 C   0  0  0  0  0  0
  -27.9741  -19.6600   19.0721 C   0  0  0  0  0  0
  -28.2311  -18.3944   18.5107 C   0  0  0  0  0  0
  -29.6810  -17.9404   20.3940 C   0  0  0  0  0  0
  -28.6108  -20.0431   20.2664 C   0  0  0  0  0  0
  -28.8868  -19.5019   15.6248 C   0  0  0  0  0  0
  -27.5727  -17.9443   17.2201 C   0  0  0  0  0  0
  -30.5976  -16.9608   21.1407 C   0  0  0  0  0  0
  -27.5123  -19.0372   16.1398 C   0  0  0  0  0  0
  -28.3046  -24.1206   20.6060 C   0  0  0  0  0  0
  -28.5191  -22.6894   19.9675 C   0  0  0  0  0  0
  -28.5756  -25.3198   19.6319 C   0  0  0  0  0  0
  -28.2755  -21.4327   20.8833 C   0  0  0  0  0  0
  -29.4510  -19.1797   20.9192 N   0  0  0  0  0  0
  -30.1238  -15.5538   21.1201 N   0  0  0  0  0  0
  -28.9742  -21.5952   22.0059 F   0  0  0  0  0  0
  -26.9808  -21.4176   21.2089 F   0  0  0  0  0  0
  -31.4757  -12.3594   19.1703 H   0  0  0  0  0  0
  -30.2712  -11.3257   19.8843 H   0  0  0  0  0  0
  -29.7661  -11.7739   17.4526 H   0  0  0  0  0  0
  -29.7135  -13.4912   17.7760 H   0  0  0  0  0  0
  -27.8012  -11.3327   18.7608 H   0  0  0  0  0  0
  -27.4061  -12.7117   17.7749 H   0  0  0  0  0  0
  -27.6956  -14.2680   19.5659 H   0  0  0  0  0  0
  -28.7106  -12.0454   21.3996 H   0  0  0  0  0  0
  -28.4817  -13.7055   21.8470 H   0  0  0  0  0  0
  -25.2826   -9.5733   22.4704 H   0  0  0  0  0  0
  -24.0072   -7.4677   22.7437 H   0  0  0  0  0  0
  -21.0880   -8.8751   19.8917 H   0  0  0  0  0  0
  -22.3716  -10.9668   19.6119 H   0  0  0  0  0  0
  -21.2026   -7.6131   23.9668 H   0  0  0  0  0  0
  -21.1493   -6.0495   25.9044 H   0  0  0  0  0  0
  -22.0613   -2.7594   23.2759 H   0  0  0  0  0  0
  -22.4210  -11.9948   22.4765 H   0  0  0  0  0  0
  -21.1168  -13.1249   22.2457 H   0  0  0  0  0  0
  -24.6925  -15.8653   20.5310 H   0  0  0  0  0  0
  -26.3167  -15.6334   20.1473 H   0  0  0  0  0  0
  -26.7142  -32.5499   23.1085 H   0  0  0  0  0  0
  -24.9904  -33.9711   25.0362 H   0  0  0  0  0  0
  -22.7112  -31.2958   21.3924 H   0  0  0  0  0  0
  -23.3802  -35.9589   23.3289 H   0  0  0  0  0  0
  -24.3653  -36.8920   22.2068 H   0  0  0  0  0  0
  -23.7212  -37.6476   23.6658 H   0  0  0  0  0  0
  -26.0556  -31.5905   20.5905 H   0  0  0  0  0  0
  -26.8312  -30.8810   21.9796 H   0  0  0  0  0  0
  -28.1212  -29.0941   21.1582 H   0  0  0  0  0  0
  -26.0748  -25.9474   19.0201 H   0  0  0  0  0  0
  -24.0262  -27.2609   19.0170 H   0  0  0  0  0  0
  -23.7394  -30.5685   19.3899 H   0  0  0  0  0  0
  -22.7637  -29.2109   19.8700 H   0  0  0  0  0  0
  -25.1337  -36.1972   25.0844 H   0  0  0  0  0  0
  -20.9967  -28.3257   24.1441 H   0  0  0  0  0  0
  -20.5727  -26.2314   23.3633 H   0  0  0  0  0  0
  -21.6627  -26.7533   22.1157 H   0  0  0  0  0  0
  -19.6845  -25.6343   21.1258 H   0  0  0  0  0  0
  -19.6588  -27.3283   20.6813 H   0  0  0  0  0  0
  -17.4172  -26.6759   21.4071 H   0  0  0  0  0  0
  -18.0246  -26.0099   22.9052 H   0  0  0  0  0  0
  -19.7879  -30.7307   24.2377 H   0  0  0  0  0  0
  -17.4936  -31.6301   24.5170 H   0  0  0  0  0  0
  -15.5310  -30.3008   23.7611 H   0  0  0  0  0  0
  -15.8662  -28.0851   22.7044 H   0  0  0  0  0  0
  -24.5892  -30.6948   25.7538 H   0  0  0  0  0  0
  -24.8694  -32.2750   26.4693 H   0  0  0  0  0  0
  -25.7887  -30.8790   27.0106 H   0  0  0  0  0  0
  -26.2764  -29.6829   24.1027 H   0  0  0  0  0  0
  -27.3919  -29.7210   25.4478 H   0  0  0  0  0  0
  -27.8623  -30.4336   23.9209 H   0  0  0  0  0  0
  -27.2691  -33.3626   26.1896 H   0  0  0  0  0  0
  -28.3769  -32.6761   25.0116 H   0  0  0  0  0  0
  -28.0705  -31.8411   26.5276 H   0  0  0  0  0  0
  -28.2607  -38.0126   24.7595 H   0  0  0  0  0  0
  -28.1136  -36.2666   24.6216 H   0  0  0  0  0  0
  -27.2334  -37.1347   25.8874 H   0  0  0  0  0  0
  -20.9355  -29.8742   21.6901 H   0  0  0  0  0  0
  -26.0228  -38.2881   24.1361 H   0  0  0  0  0  0
  -29.3248  -16.5526   18.7739 H   0  0  0  0  0  0
  -27.2848  -20.3454   18.6070 H   0  0  0  0  0  0
  -28.7723  -20.3642   14.9687 H   0  0  0  0  0  0
  -29.3733  -18.7122   15.0520 H   0  0  0  0  0  0
  -29.5626  -19.7894   16.4326 H   0  0  0  0  0  0
  -26.5666  -17.6051   17.4713 H   0  0  0  0  0  0
  -28.0899  -17.0673   16.8272 H   0  0  0  0  0  0
  -30.7274  -17.2811   22.1736 H   0  0  0  0  0  0
  -31.5893  -17.0548   20.6901 H   0  0  0  0  0  0
  -26.9349  -18.6649   15.2958 H   0  0  0  0  0  0
  -26.9566  -19.8925   16.5242 H   0  0  0  0  0  0
  -27.3016  -24.2207   21.0215 H   0  0  0  0  0  0
  -28.9803  -24.2165   21.4573 H   0  0  0  0  0  0
  -29.5406  -22.6262   19.5962 H   0  0  0  0  0  0
  -27.8866  -22.6025   19.0827 H   0  0  0  0  0  0
  -28.0269  -25.2140   18.6977 H   0  0  0  0  0  0
  -29.6219  -25.2378   19.3358 H   0  0  0  0  0  0
  -29.2028  -15.3886   21.4950 H   0  0  0  0  0  0
  1 25  1  0  0  0
  1 30  2  0  0  0
  1 85  1  0  0  0
  2  3  1  0  0  0
  2 25  1  0  0  0
  2 88  1  0  0  0
  2 89  1  0  0  0
  3  4  1  0  0  0
  3 90  1  0  0  0
  3 91  1  0  0  0
  4  5  1  0  0  0
  4 92  1  0  0  0
  4 93  1  0  0  0
  5  6  1  0  0  0
  5 26  1  0  0  0
  5 94  1  0  0  0
  6 25  1  0  0  0
  6 95  1  0  0  0
  6 96  1  0  0  0
  7  8  2  0  0  0
  7 26  1  0  0  0
  7 29  1  0  0  0
  8  9  1  0  0  0
  8 22  1  0  0  0
  9 10  1  0  0  0
  9 27  2  0  0  0
 10 11  2  0  0  0
 10 15  1  0  0  0
 11 12  1  0  0  0
 11 97  1  0  0  0
 12 13  2  0  0  0
 12 98  1  0  0  0
 13 14  1  0  0  0
 13 31  1  0  0  0
 14 15  2  0  0  0
 14 99  1  0  0  0
 15100  1  0  0  0
 16 17  2  0  0  0
 16 21  1  0  0  0
 16 31  1  0  0  0
 17 18  1  0  0  0
 17101  1  0  0  0
 18 19  2  0  0  0
 18102  1  0  0  0
 19 20  1  0  0  0
 19 24  1  0  0  0
 20 21  2  0  0  0
 20103  1  0  0  0
 21 23  1  0  0  0
 22 28  1  0  0  0
 22 32  2  0  0  0
 26 27  1  0  0  0
 28104  1  0  0  0
 28105  1  0  0  0
 29106  1  0  0  0
 29107  1  0  0  0
 33 34  1  0  0  0
 33 66  1  0  0  0
 33 70  2  0  0  0
 34 36  1  0  0  0
 34 59  1  0  0  0
 34108  1  0  0  0
 35 44  2  0  0  0
 35 45  1  0  0  0
 35 68  1  0  0  0
 36 56  1  0  0  0
 36109  1  0  0  0
 37 39  1  0  0  0
 37 47  1  0  0  0
 37 66  1  0  0  0
 37110  1  0  0  0
 38 43  2  0  0  0
 38 46  1  0  0  0
 38 47  1  0  0  0
 39 64  1  0  0  0
 39 67  2  0  0  0
 40 52  1  0  0  0
 40 53  2  0  0  0
 40 58  1  0  0  0
 41111  1  0  0  0
 41112  1  0  0  0
 41113  1  0  0  0
 41 48  1  0  0  0
 42 43  1  0  0  0
 42 66  1  0  0  0
 42114  1  0  0  0
 42115  1  0  0  0
 43 44  1  0  0  0
 44116  1  0  0  0
 45 46  2  0  0  0
 45117  1  0  0  0
 46118  1  0  0  0
 47119  1  0  0  0
 47120  1  0  0  0
 48 56  1  0  0  0
 48 65  1  0  0  0
 48121  1  0  0  0
 49 50  1  0  0  0
 49 53  1  0  0  0
 49 64  1  0  0  0
 49122  1  0  0  0
 50 51  1  0  0  0
 50123  1  0  0  0
 50124  1  0  0  0
 51 52  1  0  0  0
 51125  1  0  0  0
 51126  1  0  0  0
 52127  1  0  0  0
 52128  1  0  0  0
 53 54  1  0  0  0
 54 55  2  0  0  0
 54129  1  0  0  0
 55 57  1  0  0  0
 55130  1  0  0  0
 56 69  2  0  0  0
 57 58  2  0  0  0
 57131  1  0  0  0
 58132  1  0  0  0
 59 60  1  0  0  0
 59 61  1  0  0  0
 59 62  1  0  0  0
 60133  1  0  0  0
 60134  1  0  0  0
 60135  1  0  0  0
 61136  1  0  0  0
 61137  1  0  0  0
 61138  1  0  0  0
 62139  1  0  0  0
 62140  1  0  0  0
 62141  1  0  0  0
 63 65  1  0  0  0
 63142  1  0  0  0
 63143  1  0  0  0
 63144  1  0  0  0
 64145  1  0  0  0
 65146  1  0  0  0
 68 82  1  0  0  0
 71 73  2  0  0  0
 71 74  1  0  0  0
 71147  1  0  0  0
 72 73  1  0  0  0
 72 75  2  0  0  0
 72148  1  0  0  0
 73 77  1  0  0  0
 74 78  1  0  0  0
 74 84  2  0  0  0
 75 83  1  0  0  0
 75 84  1  0  0  0
 76 79  1  0  0  0
 76149  1  0  0  0
 76150  1  0  0  0
 76151  1  0  0  0
 77 79  1  0  0  0
 77152  1  0  0  0
 77153  1  0  0  0
 78 85  1  0  0  0
 78154  1  0  0  0
 78155  1  0  0  0
 79156  1  0  0  0
 79157  1  0  0  0
 80 81  1  0  0  0
 80 82  1  0  0  0
 80158  1  0  0  0
 80159  1  0  0  0
 81 83  1  0  0  0
 81160  1  0  0  0
 81161  1  0  0  0
 82162  1  0  0  0
 82163  1  0  0  0
 83 86  1  0  0  0
 83 87  1  0  0  0
 85164  1  0  0  0
M  ISO  4   1 100  68 101  82 101  85 100
M  END
> <chiral flag>
0

> <version>
0

> <s_m_source_file>
/data/baiqing/PycharmProjects/Reinvent-master-3.2/result/LINK_invent/BTK/process_docking_weight1_custom_sum_contain_oxygen_bond_distance_aromatic_linkinvent_7_9_3/rearranged_h_0049.sdf

> <i_m_source_file_index>
38

> <r_mmod_Potential_Energy-OPLS-2005>
-284.291961669922

> <r_mmod_Stretch_Energy-OPLS-2005>
52.3337097167969

> <r_mmod_Bend_Energy-OPLS-2005>
120.750679016113

> <r_mmod_Torsional_Energy-OPLS-2005>
190.73063659668

> <r_mmod_Improper_Torsional_Energy-OPLS-2005>
2.79465293884277

> <r_mmod_Van_der_Waal_Energy-OPLS-2005>
147.31022644043

> <r_mmod_Electrostatic_Energy-OPLS-2005>
-606.203979492188

> <r_mmod_Solvation_Energy-OPLS-2005>
-213.299667358398

> <b_mmod_Minimization_Converged-OPLS-2005>
0

> <r_mmod_RMS_Derivative-OPLS-2005>
6.49776077270508

$$$$
39
                    3D
 Structure written by MMmdl.
157165  0  0  1  0            999 V2000
  -30.6222  -14.6889   20.4568 C   0  0  0  0  0  0
  -30.4342  -12.4100   19.4738 C   0  0  0  0  0  0
  -29.5143  -12.5031   18.2352 C   0  0  0  0  0  0
  -28.0354  -12.3396   18.6397 C   0  0  0  0  0  0
  -27.6474  -13.2286   19.8513 C   0  0  2  0  0  0
  -28.6904  -13.1356   20.9852 C   0  0  0  0  0  0
  -25.2544  -13.8191   20.5683 C   0  0  0  0  0  0
  -24.1823  -13.0441   20.9183 C   0  0  0  0  0  0
  -24.6405  -11.6916   20.8726 C   0  0  0  0  0  0
  -23.9074  -10.4294   21.0393 C   0  0  0  0  0  0
  -24.3625   -9.4211   21.9175 C   0  0  0  0  0  0
  -23.6299   -8.2248   22.0752 C   0  0  0  0  0  0
  -22.4282   -8.0282   21.3542 C   0  0  0  0  0  0
  -21.9916   -9.0254   20.4644 C   0  0  0  0  0  0
  -22.7243  -10.2134   20.3048 C   0  0  0  0  0  0
  -21.6855   -6.0734   22.5275 C   0  0  0  0  0  0
  -21.4019   -6.5638   23.8208 C   0  0  0  0  0  0
  -21.3662   -5.6792   24.9171 C   0  0  0  0  0  0
  -21.6046   -4.3054   24.7225 C   0  0  0  0  0  0
  -21.8822   -3.8146   23.4345 C   0  0  0  0  0  0
  -21.9195   -4.6961   22.3399 C   0  0  0  0  0  0
  -22.7845  -13.5226   21.1855 C   0  0  0  0  0  0
  -22.1666   -4.2146   21.0977 F   0  0  0  0  0  0
  -21.5630   -3.4539   25.7739 F   0  0  0  0  0  0
  -30.0062  -13.4610   20.4221 N   0  0  0  0  0  0
  -26.2971  -12.9393   20.3271 N   0  0  0  0  0  0
  -25.9336  -11.6535   20.5727 N   0  0  0  0  0  0
  -22.0499  -12.8209   22.0413 N   0  0  0  0  0  0
  -25.4259  -15.1916   20.4135 N   0  0  0  0  0  0
  -31.8121  -14.7729   20.1393 O   0  0  0  0  0  0
  -21.6647   -6.8878   21.4237 O   0  0  0  0  0  0
  -22.3519  -14.5529   20.6707 O   0  0  0  0  0  0
  -24.6299  -31.8583   23.2021 C   0  0  0  0  0  0
  -25.9134  -32.4770   23.8355 C   0  0  1  0  0  0
  -27.2145  -27.2845   20.1158 C   0  0  0  0  0  0
  -25.5941  -33.8571   24.2276 N   0  0  0  0  0  0
  -23.4246  -30.4849   21.5457 C   0  0  2  0  0  0
  -24.8692  -28.9422   20.1095 C   0  0  0  0  0  0
  -22.7494  -29.4626   22.4918 C   0  0  0  0  0  0
  -18.0290  -28.1382   22.8482 C   0  0  0  0  0  0
  -24.1493  -36.7294   23.2638 C   0  0  0  0  0  0
  -25.9712  -30.7780   21.3803 C   0  0  0  0  0  0
  -26.0434  -29.4053   20.7171 C   0  0  0  0  0  0
  -27.2199  -28.5904   20.7085 C   0  0  0  0  0  0
  -26.0125  -26.8916   19.4783 C   0  0  0  0  0  0
  -24.8588  -27.6925   19.4789 C   0  0  0  0  0  0
  -23.6406  -29.8267   20.1594 C   0  0  0  0  0  0
  -25.4116  -36.3077   24.0328 C   0  0  1  0  0  0
  -20.5894  -28.3695   23.1264 C   0  0  2  0  0  0
  -20.6781  -26.9415   22.5399 C   0  0  0  0  0  0
  -19.5759  -26.6381   21.5203 C   0  0  0  0  0  0
  -18.1939  -26.7927   22.1617 C   0  0  0  0  0  0
  -19.1543  -28.8855   23.2871 C   0  0  0  0  0  0
  -18.9464  -30.1456   23.8891 C   0  0  0  0  0  0
  -17.6462  -30.6584   24.0561 C   0  0  0  0  0  0
  -25.9054  -34.9446   23.5099 C   0  0  0  0  0  0
  -16.5353  -29.9080   23.6331 C   0  0  0  0  0  0
  -16.7276  -28.6497   23.0352 C   0  0  0  0  0  0
  -26.4505  -31.6585   25.0736 C   0  0  0  0  0  0
  -25.3732  -31.3723   26.1457 C   0  0  0  0  0  0
  -27.0352  -30.3002   24.6217 C   0  0  0  0  0  0
  -27.6059  -32.4324   25.7512 C   0  0  0  0  0  0
  -27.5581  -37.1804   24.8463 C   0  0  0  0  0  0
  -21.4203  -29.3051   22.3659 N   0  0  0  0  0  0
  -26.4292  -37.3773   23.9407 N   0  0  0  0  0  0
  -24.6943  -31.0572   22.0989 N   0  0  0  0  0  0
  -23.4204  -28.8152   23.2999 O   0  0  0  0  0  0
  -28.3065  -26.3873   20.1705 O   0  0  0  0  0  0
  -26.5619  -34.8915   22.4664 O   0  0  0  0  0  0
  -23.5454  -32.1393   23.7330 O   0  0  0  0  0  0
  -29.4191  -19.8217   21.1195 C   0  0  0  0  0  0
  -30.0703  -19.2768   19.1452 C   0  0  0  0  0  0
  -29.1822  -20.9240   20.2804 C   0  0  0  0  0  0
  -32.3176  -18.5835   22.4136 C   0  0  0  0  0  0
  -28.3951  -22.2667   20.4922 C   0  0  0  0  0  0
  -29.8076  -16.0562   20.6344 C   0  0  0  0  0  0
  -31.2313  -17.5094   22.2413 C   0  0  0  0  0  0
  -29.0425  -23.7296   20.3255 C   0  0  0  0  0  0
  -27.9895  -24.9248   20.1128 C   0  0  0  0  0  0
  -30.6291  -17.4276   20.8185 C   0  0  2  0  0  0
  -29.5983  -20.5250   19.0085 N   0  0  0  0  0  0
  -30.0325  -18.7640   20.3882 N   0  0  0  0  0  0
  -31.4782  -12.5176   19.1755 H   0  0  0  0  0  0
  -30.3589  -11.4259   19.9388 H   0  0  0  0  0  0
  -29.7883  -11.7414   17.5041 H   0  0  0  0  0  0
  -29.6573  -13.4660   17.7424 H   0  0  0  0  0  0
  -27.8761  -11.2890   18.8859 H   0  0  0  0  0  0
  -27.3851  -12.5537   17.7911 H   0  0  0  0  0  0
  -27.6502  -14.2550   19.4859 H   0  0  0  0  0  0
  -28.7041  -12.1329   21.4149 H   0  0  0  0  0  0
  -28.4332  -13.8096   21.8026 H   0  0  0  0  0  0
  -25.2772   -9.5691   22.4744 H   0  0  0  0  0  0
  -24.0014   -7.4639   22.7469 H   0  0  0  0  0  0
  -21.0850   -8.8767   19.8945 H   0  0  0  0  0  0
  -22.3697  -10.9671   19.6155 H   0  0  0  0  0  0
  -21.2012   -7.6147   23.9711 H   0  0  0  0  0  0
  -21.1484   -6.0521   25.9072 H   0  0  0  0  0  0
  -22.0599   -2.7608   23.2844 H   0  0  0  0  0  0
  -22.4139  -11.9877   22.4796 H   0  0  0  0  0  0
  -21.1109  -13.1212   22.2621 H   0  0  0  0  0  0
  -24.6643  -15.8507   20.5338 H   0  0  0  0  0  0
  -26.2871  -15.6322   20.1150 H   0  0  0  0  0  0
  -26.7201  -32.5424   23.1099 H   0  0  0  0  0  0
  -25.0096  -33.9713   25.0426 H   0  0  0  0  0  0
  -22.7200  -31.3071   21.4048 H   0  0  0  0  0  0
  -23.3752  -35.9632   23.3297 H   0  0  0  0  0  0
  -24.3583  -36.8921   22.2053 H   0  0  0  0  0  0
  -23.7252  -37.6498   23.6663 H   0  0  0  0  0  0
  -26.1106  -31.5427   20.6149 H   0  0  0  0  0  0
  -26.8483  -30.8215   22.0140 H   0  0  0  0  0  0
  -28.1179  -28.9402   21.1986 H   0  0  0  0  0  0
  -25.9166  -25.9440   18.9739 H   0  0  0  0  0  0
  -23.9624  -27.3337   18.9917 H   0  0  0  0  0  0
  -23.7642  -30.6067   19.4073 H   0  0  0  0  0  0
  -22.7588  -29.2616   19.8530 H   0  0  0  0  0  0
  -25.1297  -36.1928   25.0821 H   0  0  0  0  0  0
  -20.9987  -28.3273   24.1384 H   0  0  0  0  0  0
  -20.5676  -26.2308   23.3601 H   0  0  0  0  0  0
  -21.6650  -26.7439   22.1198 H   0  0  0  0  0  0
  -19.6921  -25.6289   21.1243 H   0  0  0  0  0  0
  -19.6698  -27.3181   20.6725 H   0  0  0  0  0  0
  -17.4206  -26.6666   21.4023 H   0  0  0  0  0  0
  -18.0349  -26.0067   22.9013 H   0  0  0  0  0  0
  -19.7937  -30.7277   24.2259 H   0  0  0  0  0  0
  -17.5013  -31.6265   24.5162 H   0  0  0  0  0  0
  -15.5355  -30.2978   23.7658 H   0  0  0  0  0  0
  -15.8676  -28.0815   22.7069 H   0  0  0  0  0  0
  -24.5908  -30.7073   25.7782 H   0  0  0  0  0  0
  -24.8921  -32.2886   26.4888 H   0  0  0  0  0  0
  -25.8051  -30.8895   27.0231 H   0  0  0  0  0  0
  -26.2933  -29.6748   24.1237 H   0  0  0  0  0  0
  -27.4027  -29.7268   25.4739 H   0  0  0  0  0  0
  -27.8818  -30.4276   23.9466 H   0  0  0  0  0  0
  -27.2663  -33.3619   26.2094 H   0  0  0  0  0  0
  -28.3868  -32.6893   25.0343 H   0  0  0  0  0  0
  -28.0730  -31.8449   26.5426 H   0  0  0  0  0  0
  -28.2593  -38.0106   24.7506 H   0  0  0  0  0  0
  -28.1083  -36.2635   24.6291 H   0  0  0  0  0  0
  -27.2300  -37.1456   25.8866 H   0  0  0  0  0  0
  -20.9376  -29.8791   21.6886 H   0  0  0  0  0  0
  -26.0173  -38.2851   24.1396 H   0  0  0  0  0  0
  -29.2116  -19.7103   22.1755 H   0  0  0  0  0  0
  -30.4930  -18.7305   18.3137 H   0  0  0  0  0  0
  -32.7384  -18.5468   23.4188 H   0  0  0  0  0  0
  -31.9292  -19.5900   22.2612 H   0  0  0  0  0  0
  -33.1370  -18.4306   21.7105 H   0  0  0  0  0  0
  -27.9310  -22.2371   21.4784 H   0  0  0  0  0  0
  -27.5457  -22.2357   19.8094 H   0  0  0  0  0  0
  -29.1936  -16.1523   19.7395 H   0  0  0  0  0  0
  -29.1067  -15.9545   21.4618 H   0  0  0  0  0  0
  -30.4364  -17.6729   22.9696 H   0  0  0  0  0  0
  -31.6728  -16.5462   22.4994 H   0  0  0  0  0  0
  -29.7141  -23.7188   19.4667 H   0  0  0  0  0  0
  -29.6686  -23.9356   21.1930 H   0  0  0  0  0  0
  -27.1827  -24.7560   20.8282 H   0  0  0  0  0  0
  -27.5718  -24.7216   19.1279 H   0  0  0  0  0  0
  -31.4892  -17.3139   20.1563 H   0  0  0  0  0  0
  1 25  1  0  0  0
  1 30  2  0  0  0
  1 76  1  0  0  0
  2  3  1  0  0  0
  2 25  1  0  0  0
  2 83  1  0  0  0
  2 84  1  0  0  0
  3  4  1  0  0  0
  3 85  1  0  0  0
  3 86  1  0  0  0
  4  5  1  0  0  0
  4 87  1  0  0  0
  4 88  1  0  0  0
  5  6  1  0  0  0
  5 26  1  0  0  0
  5 89  1  0  0  0
  6 25  1  0  0  0
  6 90  1  0  0  0
  6 91  1  0  0  0
  7  8  2  0  0  0
  7 26  1  0  0  0
  7 29  1  0  0  0
  8  9  1  0  0  0
  8 22  1  0  0  0
  9 10  1  0  0  0
  9 27  2  0  0  0
 10 11  2  0  0  0
 10 15  1  0  0  0
 11 12  1  0  0  0
 11 92  1  0  0  0
 12 13  2  0  0  0
 12 93  1  0  0  0
 13 14  1  0  0  0
 13 31  1  0  0  0
 14 15  2  0  0  0
 14 94  1  0  0  0
 15 95  1  0  0  0
 16 17  2  0  0  0
 16 21  1  0  0  0
 16 31  1  0  0  0
 17 18  1  0  0  0
 17 96  1  0  0  0
 18 19  2  0  0  0
 18 97  1  0  0  0
 19 20  1  0  0  0
 19 24  1  0  0  0
 20 21  2  0  0  0
 20 98  1  0  0  0
 21 23  1  0  0  0
 22 28  1  0  0  0
 22 32  2  0  0  0
 26 27  1  0  0  0
 28 99  1  0  0  0
 28100  1  0  0  0
 29101  1  0  0  0
 29102  1  0  0  0
 33 34  1  0  0  0
 33 66  1  0  0  0
 33 70  2  0  0  0
 34 36  1  0  0  0
 34 59  1  0  0  0
 34103  1  0  0  0
 35 44  2  0  0  0
 35 45  1  0  0  0
 35 68  1  0  0  0
 36 56  1  0  0  0
 36104  1  0  0  0
 37 39  1  0  0  0
 37 47  1  0  0  0
 37 66  1  0  0  0
 37105  1  0  0  0
 38 43  2  0  0  0
 38 46  1  0  0  0
 38 47  1  0  0  0
 39 64  1  0  0  0
 39 67  2  0  0  0
 40 52  1  0  0  0
 40 53  2  0  0  0
 40 58  1  0  0  0
 41106  1  0  0  0
 41107  1  0  0  0
 41108  1  0  0  0
 41 48  1  0  0  0
 42 43  1  0  0  0
 42 66  1  0  0  0
 42109  1  0  0  0
 42110  1  0  0  0
 43 44  1  0  0  0
 44111  1  0  0  0
 45 46  2  0  0  0
 45112  1  0  0  0
 46113  1  0  0  0
 47114  1  0  0  0
 47115  1  0  0  0
 48 56  1  0  0  0
 48 65  1  0  0  0
 48116  1  0  0  0
 49 50  1  0  0  0
 49 53  1  0  0  0
 49 64  1  0  0  0
 49117  1  0  0  0
 50 51  1  0  0  0
 50118  1  0  0  0
 50119  1  0  0  0
 51 52  1  0  0  0
 51120  1  0  0  0
 51121  1  0  0  0
 52122  1  0  0  0
 52123  1  0  0  0
 53 54  1  0  0  0
 54 55  2  0  0  0
 54124  1  0  0  0
 55 57  1  0  0  0
 55125  1  0  0  0
 56 69  2  0  0  0
 57 58  2  0  0  0
 57126  1  0  0  0
 58127  1  0  0  0
 59 60  1  0  0  0
 59 61  1  0  0  0
 59 62  1  0  0  0
 60128  1  0  0  0
 60129  1  0  0  0
 60130  1  0  0  0
 61131  1  0  0  0
 61132  1  0  0  0
 61133  1  0  0  0
 62134  1  0  0  0
 62135  1  0  0  0
 62136  1  0  0  0
 63 65  1  0  0  0
 63137  1  0  0  0
 63138  1  0  0  0
 63139  1  0  0  0
 64140  1  0  0  0
 65141  1  0  0  0
 68 79  1  0  0  0
 71 73  2  0  0  0
 71 82  1  0  0  0
 71142  1  0  0  0
 72 81  2  0  0  0
 72 82  1  0  0  0
 72143  1  0  0  0
 73 75  1  0  0  0
 73 81  1  0  0  0
 74 77  1  0  0  0
 74144  1  0  0  0
 74145  1  0  0  0
 74146  1  0  0  0
 75 78  1  0  0  0
 75147  1  0  0  0
 75148  1  0  0  0
 76149  1  0  0  0
 76150  1  0  0  0
 76 80  1  0  0  0
 77 80  1  0  0  0
 77151  1  0  0  0
 77152  1  0  0  0
 78 79  1  0  0  0
 78153  1  0  0  0
 78154  1  0  0  0
 79155  1  0  0  0
 79156  1  0  0  0
 80 82  1  0  0  0
 80157  1  0  0  0
M  ISO  4   1 100  68 101  76 100  79 101
M  END
> <chiral flag>
0

> <version>
0

> <s_m_source_file>
/data/baiqing/PycharmProjects/Reinvent-master-3.2/result/LINK_invent/BTK/process_docking_weight1_custom_sum_contain_oxygen_bond_distance_aromatic_linkinvent_7_9_3/rearranged_h_0049.sdf

> <i_m_source_file_index>
39

> <r_mmod_Potential_Energy-OPLS-2005>
112.635894775391

> <r_mmod_Stretch_Energy-OPLS-2005>
103.999168395996

> <r_mmod_Bend_Energy-OPLS-2005>
166.283386230469

> <r_mmod_Torsional_Energy-OPLS-2005>
200.911071777344

> <r_mmod_Improper_Torsional_Energy-OPLS-2005>
6.49591541290283

> <r_mmod_Van_der_Waal_Energy-OPLS-2005>
120.015838623047

> <r_mmod_Electrostatic_Energy-OPLS-2005>
-341.899688720703

> <r_mmod_Solvation_Energy-OPLS-2005>
-211.332015991211

> <b_mmod_Minimization_Converged-OPLS-2005>
0

> <r_mmod_RMS_Derivative-OPLS-2005>
0.724253475666046

$$$$
41
                    3D
 Structure written by MMmdl.
154162  0  0  1  0            999 V2000
  -30.5698  -14.7330   20.4524 C   0  0  0  0  0  0
  -30.4301  -12.4500   19.4674 C   0  0  0  0  0  0
  -29.4891  -12.4938   18.2410 C   0  0  0  0  0  0
  -28.0107  -12.3569   18.6551 C   0  0  0  0  0  0
  -27.6359  -13.2375   19.8747 C   0  0  2  0  0  0
  -28.6852  -13.1308   21.0006 C   0  0  0  0  0  0
  -25.2450  -13.8230   20.5834 C   0  0  0  0  0  0
  -24.1764  -13.0464   20.9324 C   0  0  0  0  0  0
  -24.6376  -11.6935   20.8855 C   0  0  0  0  0  0
  -23.9040  -10.4298   21.0452 C   0  0  0  0  0  0
  -24.3579   -9.4191   21.9219 C   0  0  0  0  0  0
  -23.6298   -8.2196   22.0738 C   0  0  0  0  0  0
  -22.4275   -8.0245   21.3517 C   0  0  0  0  0  0
  -21.9903   -9.0228   20.4621 C   0  0  0  0  0  0
  -22.7218  -10.2130   20.3083 C   0  0  0  0  0  0
  -21.6835   -6.0717   22.5261 C   0  0  0  0  0  0
  -21.4012   -6.5621   23.8188 C   0  0  0  0  0  0
  -21.3679   -5.6790   24.9149 C   0  0  0  0  0  0
  -21.6035   -4.3049   24.7225 C   0  0  0  0  0  0
  -21.8804   -3.8128   23.4342 C   0  0  0  0  0  0
  -21.9194   -4.6944   22.3386 C   0  0  0  0  0  0
  -22.7764  -13.5202   21.1942 C   0  0  0  0  0  0
  -22.1656   -4.2117   21.0980 F   0  0  0  0  0  0
  -21.5634   -3.4535   25.7743 F   0  0  0  0  0  0
  -29.9805  -13.4921   20.4156 N   0  0  0  0  0  0
  -26.2894  -12.9448   20.3468 N   0  0  0  0  0  0
  -25.9310  -11.6574   20.5924 N   0  0  0  0  0  0
  -22.0411  -12.8189   22.0474 N   0  0  0  0  0  0
  -25.4147  -15.1962   20.4235 N   0  0  0  0  0  0
  -31.7532  -14.8659   20.1277 O   0  0  0  0  0  0
  -21.6628   -6.8844   21.4221 O   0  0  0  0  0  0
  -22.3437  -14.5473   20.6736 O   0  0  0  0  0  0
  -24.6291  -31.8537   23.1993 C   0  0  0  0  0  0
  -25.9117  -32.4789   23.8339 C   0  0  1  0  0  0
  -27.2070  -27.2616   20.1510 C   0  0  0  0  0  0
  -25.5950  -33.8588   24.2279 N   0  0  0  0  0  0
  -23.4275  -30.4802   21.5371 C   0  0  2  0  0  0
  -24.8777  -28.9283   20.1025 C   0  0  0  0  0  0
  -22.7494  -29.4592   22.4859 C   0  0  0  0  0  0
  -18.0296  -28.1415   22.8516 C   0  0  0  0  0  0
  -24.1493  -36.7274   23.2631 C   0  0  0  0  0  0
  -25.9714  -30.7778   21.3721 C   0  0  0  0  0  0
  -26.0454  -29.3970   20.7200 C   0  0  0  0  0  0
  -27.2196  -28.5783   20.7243 C   0  0  0  0  0  0
  -26.0228  -26.8581   19.5053 C   0  0  0  0  0  0
  -24.8739  -27.6744   19.4742 C   0  0  0  0  0  0
  -23.6481  -29.8149   20.1513 C   0  0  0  0  0  0
  -25.4122  -36.3077   24.0337 C   0  0  1  0  0  0
  -20.5885  -28.3718   23.1290 C   0  0  2  0  0  0
  -20.6790  -26.9440   22.5416 C   0  0  0  0  0  0
  -19.5751  -26.6401   21.5239 C   0  0  0  0  0  0
  -18.1930  -26.7982   22.1632 C   0  0  0  0  0  0
  -19.1549  -28.8899   23.2889 C   0  0  0  0  0  0
  -18.9463  -30.1508   23.8912 C   0  0  0  0  0  0
  -17.6451  -30.6606   24.0616 C   0  0  0  0  0  0
  -25.9050  -34.9451   23.5102 C   0  0  0  0  0  0
  -16.5346  -29.9125   23.6330 C   0  0  0  0  0  0
  -16.7289  -28.6547   23.0366 C   0  0  0  0  0  0
  -26.4492  -31.6609   25.0697 C   0  0  0  0  0  0
  -25.3714  -31.3787   26.1430 C   0  0  0  0  0  0
  -27.0348  -30.3036   24.6167 C   0  0  0  0  0  0
  -27.6063  -32.4344   25.7472 C   0  0  0  0  0  0
  -27.5595  -37.1793   24.8457 C   0  0  0  0  0  0
  -21.4187  -29.3053   22.3657 N   0  0  0  0  0  0
  -26.4282  -37.3787   23.9425 N   0  0  0  0  0  0
  -24.6956  -31.0564   22.0919 N   0  0  0  0  0  0
  -23.4213  -28.8096   23.2923 O   0  0  0  0  0  0
  -28.2900  -26.3603   20.1805 O   0  0  0  0  0  0
  -26.5560  -34.8924   22.4637 O   0  0  0  0  0  0
  -23.5437  -32.1330   23.7301 O   0  0  0  0  0  0
  -28.5543  -21.3087   17.8891 C   0  0  0  0  0  0
  -28.5560  -20.1404   17.1853 C   0  0  0  0  0  0
  -28.8638  -19.6231   19.3523 C   0  0  0  0  0  0
  -29.0303  -18.5270   20.4706 C   0  0  0  0  0  0
  -28.4387  -23.6801   19.7288 C   0  0  0  0  0  0
  -28.5579  -22.1433   20.2857 C   0  0  0  0  0  0
  -30.0738  -17.2927   20.2281 C   0  0  0  0  0  0
  -28.0733  -24.9469   20.6558 C   0  0  0  0  0  0
  -28.6747  -21.0123   19.2384 N   0  0  0  0  0  0
  -28.7522  -19.1516   18.1004 N   0  3  0  0  0  0
  -29.7567  -15.8433   20.6144 N   0  0  0  0  0  0
  -31.4577  -12.6129   19.1368 H   0  0  0  0  0  0
  -30.4212  -11.4704   19.9452 H   0  0  0  0  0  0
  -29.7496  -11.6977   17.5412 H   0  0  0  0  0  0
  -29.6334  -13.4296   17.7051 H   0  0  0  0  0  0
  -27.8275  -11.3108   18.8943 H   0  0  0  0  0  0
  -27.3576  -12.5939   17.8128 H   0  0  0  0  0  0
  -27.6358  -14.2697   19.5278 H   0  0  0  0  0  0
  -28.7167  -12.1185   21.4047 H   0  0  0  0  0  0
  -28.4361  -13.7862   21.8373 H   0  0  0  0  0  0
  -25.2684   -9.5645   22.4868 H   0  0  0  0  0  0
  -23.9978   -7.4533   22.7417 H   0  0  0  0  0  0
  -21.0828   -8.8728   19.8917 H   0  0  0  0  0  0
  -22.3632  -10.9688   19.6215 H   0  0  0  0  0  0
  -21.1996   -7.6140   23.9670 H   0  0  0  0  0  0
  -21.1541   -6.0537   25.9050 H   0  0  0  0  0  0
  -22.0589   -2.7607   23.2849 H   0  0  0  0  0  0
  -22.4055  -11.9899   22.4935 H   0  0  0  0  0  0
  -21.0981  -13.1116   22.2633 H   0  0  0  0  0  0
  -24.6545  -15.8574   20.5326 H   0  0  0  0  0  0
  -26.2486  -15.6145   20.0368 H   0  0  0  0  0  0
  -26.7195  -32.5433   23.1096 H   0  0  0  0  0  0
  -25.0248  -33.9762   25.0542 H   0  0  0  0  0  0
  -22.7188  -31.2966   21.3917 H   0  0  0  0  0  0
  -23.3773  -35.9581   23.3262 H   0  0  0  0  0  0
  -24.3568  -36.8911   22.2037 H   0  0  0  0  0  0
  -23.7209  -37.6465   23.6665 H   0  0  0  0  0  0
  -26.0925  -31.5382   20.5985 H   0  0  0  0  0  0
  -26.8543  -30.8355   21.9978 H   0  0  0  0  0  0
  -28.1172  -28.9358   21.2073 H   0  0  0  0  0  0
  -25.9803  -25.8903   19.0262 H   0  0  0  0  0  0
  -23.9836  -27.3188   18.9725 H   0  0  0  0  0  0
  -23.7827  -30.5913   19.3979 H   0  0  0  0  0  0
  -22.7675  -29.2514   19.8407 H   0  0  0  0  0  0
  -25.1307  -36.1912   25.0833 H   0  0  0  0  0  0
  -21.0032  -28.3324   24.1386 H   0  0  0  0  0  0
  -20.5735  -26.2318   23.3614 H   0  0  0  0  0  0
  -21.6654  -26.7497   22.1172 H   0  0  0  0  0  0
  -19.6883  -25.6302   21.1294 H   0  0  0  0  0  0
  -19.6716  -27.3208   20.6768 H   0  0  0  0  0  0
  -17.4216  -26.6781   21.4016 H   0  0  0  0  0  0
  -18.0285  -26.0129   22.9023 H   0  0  0  0  0  0
  -19.7910  -30.7352   24.2271 H   0  0  0  0  0  0
  -17.4982  -31.6283   24.5211 H   0  0  0  0  0  0
  -15.5346  -30.3032   23.7647 H   0  0  0  0  0  0
  -15.8670  -28.0873   22.7060 H   0  0  0  0  0  0
  -24.5901  -30.7122   25.7770 H   0  0  0  0  0  0
  -24.8874  -32.2966   26.4786 H   0  0  0  0  0  0
  -25.8000  -30.9014   27.0247 H   0  0  0  0  0  0
  -26.2913  -29.6749   24.1245 H   0  0  0  0  0  0
  -27.4118  -29.7344   25.4675 H   0  0  0  0  0  0
  -27.8758  -30.4337   23.9338 H   0  0  0  0  0  0
  -27.2712  -33.3678   26.2025 H   0  0  0  0  0  0
  -28.3901  -32.6860   25.0304 H   0  0  0  0  0  0
  -28.0711  -31.8463   26.5409 H   0  0  0  0  0  0
  -28.2599  -38.0105   24.7575 H   0  0  0  0  0  0
  -28.1108  -36.2657   24.6216 H   0  0  0  0  0  0
  -27.2311  -37.1351   25.8849 H   0  0  0  0  0  0
  -20.9334  -29.8800   21.6917 H   0  0  0  0  0  0
  -26.0156  -38.2843   24.1502 H   0  0  0  0  0  0
  -28.4404  -22.3081   17.4912 H   0  0  0  0  0  0
  -28.4414  -19.9385   16.1279 H   0  0  0  0  0  0
  -28.0261  -18.1236   20.6118 H   0  0  0  0  0  0
  -29.2768  -19.0533   21.3927 H   0  0  0  0  0  0
  -27.6937  -23.7037   18.9353 H   0  0  0  0  0  0
  -29.3896  -23.9140   19.2532 H   0  0  0  0  0  0
  -27.6808  -21.9111   20.8936 H   0  0  0  0  0  0
  -29.4221  -22.0643   20.9492 H   0  0  0  0  0  0
  -31.0065  -17.5549   20.7311 H   0  0  0  0  0  0
  -30.3481  -17.2627   19.1731 H   0  0  0  0  0  0
  -28.6686  -24.8502   21.5660 H   0  0  0  0  0  0
  -27.0455  -24.8185   20.9999 H   0  0  0  0  0  0
  -28.7956  -18.1711   17.8484 H   0  0  0  0  0  0
  -28.8156  -15.6394   20.9118 H   0  0  0  0  0  0
  1 25  1  0  0  0
  1 30  2  0  0  0
  1 81  1  0  0  0
  2  3  1  0  0  0
  2 25  1  0  0  0
  2 82  1  0  0  0
  2 83  1  0  0  0
  3  4  1  0  0  0
  3 84  1  0  0  0
  3 85  1  0  0  0
  4  5  1  0  0  0
  4 86  1  0  0  0
  4 87  1  0  0  0
  5  6  1  0  0  0
  5 26  1  0  0  0
  5 88  1  0  0  0
  6 25  1  0  0  0
  6 89  1  0  0  0
  6 90  1  0  0  0
  7  8  2  0  0  0
  7 26  1  0  0  0
  7 29  1  0  0  0
  8  9  1  0  0  0
  8 22  1  0  0  0
  9 10  1  0  0  0
  9 27  2  0  0  0
 10 11  2  0  0  0
 10 15  1  0  0  0
 11 12  1  0  0  0
 11 91  1  0  0  0
 12 13  2  0  0  0
 12 92  1  0  0  0
 13 14  1  0  0  0
 13 31  1  0  0  0
 14 15  2  0  0  0
 14 93  1  0  0  0
 15 94  1  0  0  0
 16 17  2  0  0  0
 16 21  1  0  0  0
 16 31  1  0  0  0
 17 18  1  0  0  0
 17 95  1  0  0  0
 18 19  2  0  0  0
 18 96  1  0  0  0
 19 20  1  0  0  0
 19 24  1  0  0  0
 20 21  2  0  0  0
 20 97  1  0  0  0
 21 23  1  0  0  0
 22 28  1  0  0  0
 22 32  2  0  0  0
 26 27  1  0  0  0
 28 98  1  0  0  0
 28 99  1  0  0  0
 29100  1  0  0  0
 29101  1  0  0  0
 33 34  1  0  0  0
 33 66  1  0  0  0
 33 70  2  0  0  0
 34 36  1  0  0  0
 34 59  1  0  0  0
 34102  1  0  0  0
 35 44  2  0  0  0
 35 45  1  0  0  0
 35 68  1  0  0  0
 36 56  1  0  0  0
 36103  1  0  0  0
 37 39  1  0  0  0
 37 47  1  0  0  0
 37 66  1  0  0  0
 37104  1  0  0  0
 38 43  2  0  0  0
 38 46  1  0  0  0
 38 47  1  0  0  0
 39 64  1  0  0  0
 39 67  2  0  0  0
 40 52  1  0  0  0
 40 53  2  0  0  0
 40 58  1  0  0  0
 41105  1  0  0  0
 41106  1  0  0  0
 41107  1  0  0  0
 41 48  1  0  0  0
 42 43  1  0  0  0
 42 66  1  0  0  0
 42108  1  0  0  0
 42109  1  0  0  0
 43 44  1  0  0  0
 44110  1  0  0  0
 45 46  2  0  0  0
 45111  1  0  0  0
 46112  1  0  0  0
 47113  1  0  0  0
 47114  1  0  0  0
 48 56  1  0  0  0
 48 65  1  0  0  0
 48115  1  0  0  0
 49 50  1  0  0  0
 49 53  1  0  0  0
 49 64  1  0  0  0
 49116  1  0  0  0
 50 51  1  0  0  0
 50117  1  0  0  0
 50118  1  0  0  0
 51 52  1  0  0  0
 51119  1  0  0  0
 51120  1  0  0  0
 52121  1  0  0  0
 52122  1  0  0  0
 53 54  1  0  0  0
 54 55  2  0  0  0
 54123  1  0  0  0
 55 57  1  0  0  0
 55124  1  0  0  0
 56 69  2  0  0  0
 57 58  2  0  0  0
 57125  1  0  0  0
 58126  1  0  0  0
 59 60  1  0  0  0
 59 61  1  0  0  0
 59 62  1  0  0  0
 60127  1  0  0  0
 60128  1  0  0  0
 60129  1  0  0  0
 61130  1  0  0  0
 61131  1  0  0  0
 61132  1  0  0  0
 62133  1  0  0  0
 62134  1  0  0  0
 62135  1  0  0  0
 63 65  1  0  0  0
 63136  1  0  0  0
 63137  1  0  0  0
 63138  1  0  0  0
 64139  1  0  0  0
 65140  1  0  0  0
 68 78  1  0  0  0
 71 72  2  0  0  0
 71 79  1  0  0  0
 71141  1  0  0  0
 72 80  1  0  0  0
 72142  1  0  0  0
 73 74  1  0  0  0
 73 79  1  0  0  0
 73 80  2  0  0  0
 74 77  1  0  0  0
 74143  1  0  0  0
 74144  1  0  0  0
 75 76  1  0  0  0
 75 78  1  0  0  0
 75145  1  0  0  0
 75146  1  0  0  0
 76 79  1  0  0  0
 76147  1  0  0  0
 76148  1  0  0  0
 77 81  1  0  0  0
 77149  1  0  0  0
 77150  1  0  0  0
 78151  1  0  0  0
 78152  1  0  0  0
 80153  1  0  0  0
 81154  1  0  0  0
M  CHG  1  80   1
M  ISO  4   1 100  68 101  78 101  81 100
M  END
> <chiral flag>
0

> <version>
0

> <s_m_source_file>
/data/baiqing/PycharmProjects/Reinvent-master-3.2/result/LINK_invent/BTK/process_docking_weight1_custom_sum_contain_oxygen_bond_distance_aromatic_linkinvent_7_9_3/rearranged_h_0049.sdf

> <i_m_source_file_index>
40

> <r_mmod_Potential_Energy-OPLS-2005>
119.762962341309

> <r_mmod_Stretch_Energy-OPLS-2005>
132.778244018555

> <r_mmod_Bend_Energy-OPLS-2005>
185.305435180664

> <r_mmod_Torsional_Energy-OPLS-2005>
254.894500732422

> <r_mmod_Improper_Torsional_Energy-OPLS-2005>
6.24446821212769

> <r_mmod_Van_der_Waal_Energy-OPLS-2005>
117.37565612793

> <r_mmod_Electrostatic_Energy-OPLS-2005>
-207.382553100586

> <r_mmod_Solvation_Energy-OPLS-2005>
-453.632690429688

> <b_mmod_Minimization_Converged-OPLS-2005>
0

> <r_mmod_RMS_Derivative-OPLS-2005>
6.32108545303345

$$$$
42
                    3D
 Structure written by MMmdl.
157165  0  0  1  0            999 V2000
  -30.6787  -14.6238   20.5253 C   0  0  0  0  0  0
  -30.4381  -12.3979   19.4395 C   0  0  0  0  0  0
  -29.5107  -12.5023   18.2124 C   0  0  0  0  0  0
  -28.0321  -12.3416   18.6209 C   0  0  0  0  0  0
  -27.6530  -13.2207   19.8443 C   0  0  2  0  0  0
  -28.7004  -13.0945   20.9736 C   0  0  0  0  0  0
  -25.2569  -13.8186   20.5661 C   0  0  0  0  0  0
  -24.1846  -13.0426   20.9193 C   0  0  0  0  0  0
  -24.6432  -11.6915   20.8714 C   0  0  0  0  0  0
  -23.9098  -10.4295   21.0372 C   0  0  0  0  0  0
  -24.3648   -9.4228   21.9169 C   0  0  0  0  0  0
  -23.6322   -8.2268   22.0736 C   0  0  0  0  0  0
  -22.4293   -8.0307   21.3551 C   0  0  0  0  0  0
  -21.9944   -9.0256   20.4625 C   0  0  0  0  0  0
  -22.7267  -10.2135   20.3019 C   0  0  0  0  0  0
  -21.6872   -6.0770   22.5289 C   0  0  0  0  0  0
  -21.4011   -6.5645   23.8236 C   0  0  0  0  0  0
  -21.3674   -5.6784   24.9192 C   0  0  0  0  0  0
  -21.6053   -4.3051   24.7222 C   0  0  0  0  0  0
  -21.8821   -3.8161   23.4335 C   0  0  0  0  0  0
  -21.9193   -4.6996   22.3398 C   0  0  0  0  0  0
  -22.7872  -13.5229   21.1837 C   0  0  0  0  0  0
  -22.1662   -4.2201   21.0976 F   0  0  0  0  0  0
  -21.5645   -3.4517   25.7723 F   0  0  0  0  0  0
  -30.0123  -13.4324   20.4039 N   0  0  0  0  0  0
  -26.2998  -12.9376   20.3210 N   0  0  0  0  0  0
  -25.9356  -11.6532   20.5689 N   0  0  0  0  0  0
  -22.0480  -12.8231   22.0386 N   0  0  0  0  0  0
  -25.4177  -15.1918   20.4119 N   0  0  0  0  0  0
  -31.8511  -14.7338   20.1602 O   0  0  0  0  0  0
  -21.6652   -6.8910   21.4253 O   0  0  0  0  0  0
  -22.3559  -14.5509   20.6650 O   0  0  0  0  0  0
  -24.6247  -31.8583   23.2062 C   0  0  0  0  0  0
  -25.9104  -32.4778   23.8363 C   0  0  1  0  0  0
  -27.2369  -27.3169   20.1315 C   0  0  0  0  0  0
  -25.5943  -33.8570   24.2333 N   0  0  0  0  0  0
  -23.4224  -30.4809   21.5428 C   0  0  2  0  0  0
  -24.8765  -28.9397   20.1089 C   0  0  0  0  0  0
  -22.7490  -29.4600   22.4905 C   0  0  0  0  0  0
  -18.0304  -28.1415   22.8461 C   0  0  0  0  0  0
  -24.1497  -36.7288   23.2633 C   0  0  0  0  0  0
  -25.9625  -30.7840   21.3845 C   0  0  0  0  0  0
  -26.0384  -29.4091   20.7352 C   0  0  0  0  0  0
  -27.2152  -28.6041   20.7512 C   0  0  0  0  0  0
  -26.0628  -26.9209   19.4463 C   0  0  0  0  0  0
  -24.8924  -27.7006   19.4528 C   0  0  0  0  0  0
  -23.6444  -29.8202   20.1560 C   0  0  0  0  0  0
  -25.4112  -36.3079   24.0342 C   0  0  1  0  0  0
  -20.5900  -28.3702   23.1288 C   0  0  2  0  0  0
  -20.6818  -26.9432   22.5404 C   0  0  0  0  0  0
  -19.5799  -26.6398   21.5209 C   0  0  0  0  0  0
  -18.1967  -26.7957   22.1610 C   0  0  0  0  0  0
  -19.1552  -28.8881   23.2884 C   0  0  0  0  0  0
  -18.9456  -30.1472   23.8914 C   0  0  0  0  0  0
  -17.6454  -30.6610   24.0564 C   0  0  0  0  0  0
  -25.9036  -34.9439   23.5134 C   0  0  0  0  0  0
  -16.5351  -29.9112   23.6309 C   0  0  0  0  0  0
  -16.7282  -28.6534   23.0320 C   0  0  0  0  0  0
  -26.4475  -31.6576   25.0723 C   0  0  0  0  0  0
  -25.3710  -31.3693   26.1448 C   0  0  0  0  0  0
  -27.0284  -30.3014   24.6126 C   0  0  0  0  0  0
  -27.6068  -32.4259   25.7500 C   0  0  0  0  0  0
  -27.5586  -37.1815   24.8451 C   0  0  0  0  0  0
  -21.4203  -29.3043   22.3679 N   0  0  0  0  0  0
  -26.4290  -37.3766   23.9396 N   0  0  0  0  0  0
  -24.6880  -31.0585   22.1017 N   0  0  0  0  0  0
  -23.4190  -28.8121   23.2987 O   0  0  0  0  0  0
  -28.3466  -26.4548   20.2179 O   0  0  0  0  0  0
  -26.5565  -34.8898   22.4672 O   0  0  0  0  0  0
  -23.5408  -32.1388   23.7385 O   0  0  0  0  0  0
  -28.8047  -19.0077   21.1202 C   0  0  0  0  0  0
  -30.0762  -18.4403   20.8315 C   0  0  0  0  0  0
  -29.4100  -21.0969   20.2135 C   0  0  0  0  0  0
  -30.7069  -20.5485   19.9676 C   0  0  0  0  0  0
  -32.0852  -21.2468   17.9005 C   0  0  0  0  0  0
  -28.9149  -22.4848   19.6583 C   0  0  0  0  0  0
  -31.8448  -21.3981   19.4094 C   0  0  0  0  0  0
  -30.5488  -17.0410   21.3755 C   0  0  0  0  0  0
  -29.1097  -23.8664   20.4236 C   0  0  0  0  0  0
  -28.1393  -25.0213   19.9075 C   0  0  0  0  0  0
  -28.4735  -20.3019   20.8047 N   0  0  0  0  0  0
  -31.0232  -19.2435   20.2590 N   0  0  0  0  0  0
  -29.9735  -15.7214   20.9311 N   0  0  0  0  0  0
  -31.4755  -12.5239   19.1260 H   0  0  0  0  0  0
  -30.3868  -11.4078   19.8933 H   0  0  0  0  0  0
  -29.7795  -11.7507   17.4683 H   0  0  0  0  0  0
  -29.6573  -13.4702   17.7290 H   0  0  0  0  0  0
  -27.8616  -11.2885   18.8478 H   0  0  0  0  0  0
  -27.3862  -12.5726   17.7725 H   0  0  0  0  0  0
  -27.6655  -14.2533   19.4970 H   0  0  0  0  0  0
  -28.7198  -12.0752   21.3631 H   0  0  0  0  0  0
  -28.4478  -13.7443   21.8122 H   0  0  0  0  0  0
  -25.2805   -9.5728   22.4732 H   0  0  0  0  0  0
  -24.0051   -7.4671   22.7441 H   0  0  0  0  0  0
  -21.0891   -8.8753   19.8928 H   0  0  0  0  0  0
  -22.3716  -10.9664   19.6111 H   0  0  0  0  0  0
  -21.1983   -7.6141   23.9760 H   0  0  0  0  0  0
  -21.1502   -6.0497   25.9098 H   0  0  0  0  0  0
  -22.0584   -2.7628   23.2801 H   0  0  0  0  0  0
  -22.4073  -11.9917   22.4863 H   0  0  0  0  0  0
  -21.1062  -13.1225   22.2451 H   0  0  0  0  0  0
  -24.6370  -15.8283   20.5313 H   0  0  0  0  0  0
  -26.2523  -15.6539   20.0721 H   0  0  0  0  0  0
  -26.7165  -32.5436   23.1093 H   0  0  0  0  0  0
  -25.0167  -33.9705   25.0535 H   0  0  0  0  0  0
  -22.7152  -31.2996   21.3990 H   0  0  0  0  0  0
  -23.3753  -35.9626   23.3259 H   0  0  0  0  0  0
  -24.3616  -36.8930   22.2056 H   0  0  0  0  0  0
  -23.7253  -37.6493   23.6642 H   0  0  0  0  0  0
  -26.0936  -31.5398   20.6094 H   0  0  0  0  0  0
  -26.8445  -30.8435   22.0103 H   0  0  0  0  0  0
  -28.0924  -28.9472   21.2835 H   0  0  0  0  0  0
  -26.0185  -25.9912   18.8987 H   0  0  0  0  0  0
  -24.0143  -27.3438   18.9352 H   0  0  0  0  0  0
  -23.7767  -30.5989   19.4041 H   0  0  0  0  0  0
  -22.7649  -29.2552   19.8451 H   0  0  0  0  0  0
  -25.1297  -36.1932   25.0838 H   0  0  0  0  0  0
  -20.9976  -28.3262   24.1413 H   0  0  0  0  0  0
  -20.5770  -26.2284   23.3570 H   0  0  0  0  0  0
  -21.6683  -26.7517   22.1162 H   0  0  0  0  0  0
  -19.6957  -25.6294   21.1270 H   0  0  0  0  0  0
  -19.6772  -27.3186   20.6712 H   0  0  0  0  0  0
  -17.4238  -26.6664   21.4011 H   0  0  0  0  0  0
  -18.0396  -26.0134   22.9048 H   0  0  0  0  0  0
  -19.7926  -30.7297   24.2296 H   0  0  0  0  0  0
  -17.5002  -31.6282   24.5181 H   0  0  0  0  0  0
  -15.5356  -30.3018   23.7638 H   0  0  0  0  0  0
  -15.8675  -28.0869   22.7003 H   0  0  0  0  0  0
  -24.5896  -30.7035   25.7759 H   0  0  0  0  0  0
  -24.8869  -32.2842   26.4874 H   0  0  0  0  0  0
  -25.8037  -30.8858   27.0219 H   0  0  0  0  0  0
  -26.2829  -29.6820   24.1128 H   0  0  0  0  0  0
  -27.3980  -29.7213   25.4588 H   0  0  0  0  0  0
  -27.8706  -30.4325   23.9339 H   0  0  0  0  0  0
  -27.2730  -33.3559   26.2109 H   0  0  0  0  0  0
  -28.3883  -32.6809   25.0335 H   0  0  0  0  0  0
  -28.0713  -31.8335   26.5394 H   0  0  0  0  0  0
  -28.2577  -38.0140   24.7515 H   0  0  0  0  0  0
  -28.1128  -36.2664   24.6261 H   0  0  0  0  0  0
  -27.2296  -37.1453   25.8857 H   0  0  0  0  0  0
  -20.9358  -29.8767   21.6904 H   0  0  0  0  0  0
  -26.0168  -38.2843   24.1402 H   0  0  0  0  0  0
  -28.0566  -18.4374   21.6491 H   0  0  0  0  0  0
  -32.8834  -21.9158   17.5751 H   0  0  0  0  0  0
  -31.1948  -21.4988   17.3228 H   0  0  0  0  0  0
  -32.3892  -20.2322   17.6413 H   0  0  0  0  0  0
  -27.8465  -22.3677   19.4779 H   0  0  0  0  0  0
  -29.3323  -22.6028   18.6579 H   0  0  0  0  0  0
  -32.7624  -21.1315   19.9374 H   0  0  0  0  0  0
  -31.6647  -22.4471   19.6475 H   0  0  0  0  0  0
  -30.3671  -17.0805   22.4500 H   0  0  0  0  0  0
  -31.6354  -17.0086   21.2981 H   0  0  0  0  0  0
  -30.1492  -24.1789   20.3330 H   0  0  0  0  0  0
  -28.9377  -23.7130   21.4878 H   0  0  0  0  0  0
  -27.1566  -24.7267   20.2777 H   0  0  0  0  0  0
  -28.0952  -24.9540   18.8206 H   0  0  0  0  0  0
  -29.0007  -15.5633   21.1441 H   0  0  0  0  0  0
  1 25  1  0  0  0
  1 30  2  0  0  0
  1 83  1  0  0  0
  2  3  1  0  0  0
  2 25  1  0  0  0
  2 84  1  0  0  0
  2 85  1  0  0  0
  3  4  1  0  0  0
  3 86  1  0  0  0
  3 87  1  0  0  0
  4  5  1  0  0  0
  4 88  1  0  0  0
  4 89  1  0  0  0
  5  6  1  0  0  0
  5 26  1  0  0  0
  5 90  1  0  0  0
  6 25  1  0  0  0
  6 91  1  0  0  0
  6 92  1  0  0  0
  7  8  2  0  0  0
  7 26  1  0  0  0
  7 29  1  0  0  0
  8  9  1  0  0  0
  8 22  1  0  0  0
  9 10  1  0  0  0
  9 27  2  0  0  0
 10 11  2  0  0  0
 10 15  1  0  0  0
 11 12  1  0  0  0
 11 93  1  0  0  0
 12 13  2  0  0  0
 12 94  1  0  0  0
 13 14  1  0  0  0
 13 31  1  0  0  0
 14 15  2  0  0  0
 14 95  1  0  0  0
 15 96  1  0  0  0
 16 17  2  0  0  0
 16 21  1  0  0  0
 16 31  1  0  0  0
 17 18  1  0  0  0
 17 97  1  0  0  0
 18 19  2  0  0  0
 18 98  1  0  0  0
 19 20  1  0  0  0
 19 24  1  0  0  0
 20 21  2  0  0  0
 20 99  1  0  0  0
 21 23  1  0  0  0
 22 28  1  0  0  0
 22 32  2  0  0  0
 26 27  1  0  0  0
 28100  1  0  0  0
 28101  1  0  0  0
 29102  1  0  0  0
 29103  1  0  0  0
 33 34  1  0  0  0
 33 66  1  0  0  0
 33 70  2  0  0  0
 34 36  1  0  0  0
 34 59  1  0  0  0
 34104  1  0  0  0
 35 44  2  0  0  0
 35 45  1  0  0  0
 35 68  1  0  0  0
 36 56  1  0  0  0
 36105  1  0  0  0
 37 39  1  0  0  0
 37 47  1  0  0  0
 37 66  1  0  0  0
 37106  1  0  0  0
 38 43  2  0  0  0
 38 46  1  0  0  0
 38 47  1  0  0  0
 39 64  1  0  0  0
 39 67  2  0  0  0
 40 52  1  0  0  0
 40 53  2  0  0  0
 40 58  1  0  0  0
 41107  1  0  0  0
 41108  1  0  0  0
 41109  1  0  0  0
 41 48  1  0  0  0
 42 43  1  0  0  0
 42 66  1  0  0  0
 42110  1  0  0  0
 42111  1  0  0  0
 43 44  1  0  0  0
 44112  1  0  0  0
 45 46  2  0  0  0
 45113  1  0  0  0
 46114  1  0  0  0
 47115  1  0  0  0
 47116  1  0  0  0
 48 56  1  0  0  0
 48 65  1  0  0  0
 48117  1  0  0  0
 49 50  1  0  0  0
 49 53  1  0  0  0
 49 64  1  0  0  0
 49118  1  0  0  0
 50 51  1  0  0  0
 50119  1  0  0  0
 50120  1  0  0  0
 51 52  1  0  0  0
 51121  1  0  0  0
 51122  1  0  0  0
 52123  1  0  0  0
 52124  1  0  0  0
 53 54  1  0  0  0
 54 55  2  0  0  0
 54125  1  0  0  0
 55 57  1  0  0  0
 55126  1  0  0  0
 56 69  2  0  0  0
 57 58  2  0  0  0
 57127  1  0  0  0
 58128  1  0  0  0
 59 60  1  0  0  0
 59 61  1  0  0  0
 59 62  1  0  0  0
 60129  1  0  0  0
 60130  1  0  0  0
 60131  1  0  0  0
 61132  1  0  0  0
 61133  1  0  0  0
 61134  1  0  0  0
 62135  1  0  0  0
 62136  1  0  0  0
 62137  1  0  0  0
 63 65  1  0  0  0
 63138  1  0  0  0
 63139  1  0  0  0
 63140  1  0  0  0
 64141  1  0  0  0
 65142  1  0  0  0
 68 80  1  0  0  0
 71 72  2  0  0  0
 71 81  1  0  0  0
 71143  1  0  0  0
 72 78  1  0  0  0
 72 82  1  0  0  0
 73 74  1  0  0  0
 73 76  1  0  0  0
 73 81  2  0  0  0
 74 77  1  0  0  0
 74 82  2  0  0  0
 75 77  1  0  0  0
 75144  1  0  0  0
 75145  1  0  0  0
 75146  1  0  0  0
 76 79  1  0  0  0
 76147  1  0  0  0
 76148  1  0  0  0
 77149  1  0  0  0
 77150  1  0  0  0
 78 83  1  0  0  0
 78151  1  0  0  0
 78152  1  0  0  0
 79 80  1  0  0  0
 79153  1  0  0  0
 79154  1  0  0  0
 80155  1  0  0  0
 80156  1  0  0  0
 83157  1  0  0  0
M  ISO  4   1 100  68 101  80 101  83 100
M  END
> <chiral flag>
0

> <version>
0

> <s_m_source_file>
/data/baiqing/PycharmProjects/Reinvent-master-3.2/result/LINK_invent/BTK/process_docking_weight1_custom_sum_contain_oxygen_bond_distance_aromatic_linkinvent_7_9_3/rearranged_h_0049.sdf

> <i_m_source_file_index>
41

> <r_mmod_Potential_Energy-OPLS-2005>
34.0658950805664

> <r_mmod_Stretch_Energy-OPLS-2005>
81.9583358764648

> <r_mmod_Bend_Energy-OPLS-2005>
150.29231262207

> <r_mmod_Torsional_Energy-OPLS-2005>
196.929138183594

> <r_mmod_Improper_Torsional_Energy-OPLS-2005>
5.53252458572388

> <r_mmod_Van_der_Waal_Energy-OPLS-2005>
149.059356689453

> <r_mmod_Electrostatic_Energy-OPLS-2005>
-371.012451171875

> <r_mmod_Solvation_Energy-OPLS-2005>
-229.819412231445

> <b_mmod_Minimization_Converged-OPLS-2005>
0

> <r_mmod_RMS_Derivative-OPLS-2005>
4.00763845443726

$$$$
43
                    3D
 Structure written by MMmdl.
164172  0  0  1  0            999 V2000
  -30.6216  -14.7800   20.5436 C   0  0  0  0  0  0
  -30.4219  -12.4903   19.5102 C   0  0  0  0  0  0
  -29.5234  -12.5457   18.2547 C   0  0  0  0  0  0
  -28.0474  -12.3482   18.6431 C   0  0  0  0  0  0
  -27.6372  -13.2357   19.8455 C   0  0  2  0  0  0
  -28.6608  -13.1645   20.9924 C   0  0  0  0  0  0
  -25.2470  -13.8193   20.5603 C   0  0  0  0  0  0
  -24.1778  -13.0437   20.9104 C   0  0  0  0  0  0
  -24.6372  -11.6912   20.8670 C   0  0  0  0  0  0
  -23.9054  -10.4296   21.0376 C   0  0  0  0  0  0
  -24.3625   -9.4223   21.9163 C   0  0  0  0  0  0
  -23.6303   -8.2263   22.0740 C   0  0  0  0  0  0
  -22.4294   -8.0269   21.3523 C   0  0  0  0  0  0
  -21.9906   -9.0235   20.4627 C   0  0  0  0  0  0
  -22.7219  -10.2120   20.3029 C   0  0  0  0  0  0
  -21.6865   -6.0731   22.5275 C   0  0  0  0  0  0
  -21.4030   -6.5634   23.8201 C   0  0  0  0  0  0
  -21.3657   -5.6779   24.9160 C   0  0  0  0  0  0
  -21.6058   -4.3047   24.7225 C   0  0  0  0  0  0
  -21.8821   -3.8135   23.4344 C   0  0  0  0  0  0
  -21.9187   -4.6954   22.3399 C   0  0  0  0  0  0
  -22.7804  -13.5213   21.1802 C   0  0  0  0  0  0
  -22.1660   -4.2135   21.0984 F   0  0  0  0  0  0
  -21.5622   -3.4527   25.7739 F   0  0  0  0  0  0
  -29.9703  -13.5559   20.4488 N   0  0  0  0  0  0
  -26.2889  -12.9395   20.3158 N   0  0  0  0  0  0
  -25.9304  -11.6539   20.5653 N   0  0  0  0  0  0
  -22.0483  -12.8213   22.0383 N   0  0  0  0  0  0
  -25.4182  -15.1927   20.4112 N   0  0  0  0  0  0
  -31.7617  -14.8620   20.0723 O   0  0  0  0  0  0
  -21.6638   -6.8883   21.4240 O   0  0  0  0  0  0
  -22.3493  -14.5537   20.6647 O   0  0  0  0  0  0
  -24.6336  -31.8510   23.1934 C   0  0  0  0  0  0
  -25.9154  -32.4727   23.8300 C   0  0  1  0  0  0
  -27.2261  -27.2444   20.1461 C   0  0  0  0  0  0
  -25.5933  -33.8535   24.2225 N   0  0  0  0  0  0
  -23.4322  -30.4710   21.5359 C   0  0  2  0  0  0
  -24.8813  -28.9056   20.1176 C   0  0  0  0  0  0
  -22.7521  -29.4585   22.4888 C   0  0  0  0  0  0
  -18.0293  -28.1405   22.8468 C   0  0  0  0  0  0
  -24.1496  -36.7270   23.2642 C   0  0  0  0  0  0
  -25.9801  -30.7603   21.3753 C   0  0  0  0  0  0
  -26.0534  -29.3792   20.7218 C   0  0  0  0  0  0
  -27.2330  -28.5650   20.7134 C   0  0  0  0  0  0
  -26.0315  -26.8306   19.5247 C   0  0  0  0  0  0
  -24.8763  -27.6403   19.5061 C   0  0  0  0  0  0
  -23.6538  -29.7970   20.1559 C   0  0  0  0  0  0
  -25.4124  -36.3055   24.0327 C   0  0  1  0  0  0
  -20.5902  -28.3711   23.1254 C   0  0  2  0  0  0
  -20.6783  -26.9422   22.5409 C   0  0  0  0  0  0
  -19.5761  -26.6396   21.5210 C   0  0  0  0  0  0
  -18.1940  -26.7943   22.1617 C   0  0  0  0  0  0
  -19.1549  -28.8875   23.2854 C   0  0  0  0  0  0
  -18.9474  -30.1472   23.8874 C   0  0  0  0  0  0
  -17.6473  -30.6592   24.0575 C   0  0  0  0  0  0
  -25.9070  -34.9428   23.5089 C   0  0  0  0  0  0
  -16.5361  -29.9093   23.6340 C   0  0  0  0  0  0
  -16.7284  -28.6523   23.0333 C   0  0  0  0  0  0
  -26.4524  -31.6556   25.0696 C   0  0  0  0  0  0
  -25.3760  -31.3677   26.1413 C   0  0  0  0  0  0
  -27.0381  -30.2963   24.6215 C   0  0  0  0  0  0
  -27.6070  -32.4306   25.7475 C   0  0  0  0  0  0
  -27.5581  -37.1782   24.8461 C   0  0  0  0  0  0
  -21.4230  -29.3051   22.3641 N   0  0  0  0  0  0
  -26.4287  -37.3759   23.9418 N   0  0  0  0  0  0
  -24.7001  -31.0482   22.0896 N   0  0  0  0  0  0
  -23.4215  -28.8143   23.2995 O   0  0  0  0  0  0
  -28.3318  -26.3642   20.1278 O   0  0  0  0  0  0
  -26.5658  -34.8902   22.4664 O   0  0  0  0  0  0
  -23.5477  -32.1343   23.7218 O   0  0  0  0  0  0
  -29.3916  -18.6580   20.4458 C   0  0  0  0  0  0
  -27.7742  -20.0201   20.6587 C   0  0  0  0  0  0
  -23.9479  -20.7251   20.3399 C   0  0  0  0  0  0
  -30.3937  -17.0279   23.1607 C   0  0  0  0  0  0
  -30.2092  -17.3136   20.2075 C   0  0  0  0  0  0
  -26.4104  -20.5535   20.9841 C   0  0  0  0  0  0
  -25.3213  -20.1427   19.9779 C   0  0  0  0  0  0
  -28.5155  -23.5611   20.0705 C   0  0  0  0  0  0
  -29.0266  -22.3053   20.9826 C   0  0  0  0  0  0
  -29.4755  -16.1356   22.2962 C   0  0  0  0  0  0
  -28.2506  -25.0088   20.7857 C   0  0  0  0  0  0
  -28.0275  -18.7016   20.5334 N   0  0  0  0  0  0
  -29.9360  -19.9107   20.4872 N   0  0  0  0  0  0
  -28.8689  -20.8112   20.6174 N   0  0  0  0  0  0
  -29.9435  -15.9610   20.9043 N   0  0  0  0  0  0
  -31.4708  -12.5962   19.2319 H   0  0  0  0  0  0
  -30.3457  -11.5087   19.9813 H   0  0  0  0  0  0
  -29.8313  -11.7914   17.5287 H   0  0  0  0  0  0
  -29.6474  -13.5140   17.7686 H   0  0  0  0  0  0
  -27.9101  -11.2967   18.8929 H   0  0  0  0  0  0
  -27.4047  -12.5438   17.7853 H   0  0  0  0  0  0
  -27.6338  -14.2621   19.4771 H   0  0  0  0  0  0
  -28.7063  -12.1611   21.4192 H   0  0  0  0  0  0
  -28.3122  -13.8015   21.7987 H   0  0  0  0  0  0
  -25.2783   -9.5698   22.4712 H   0  0  0  0  0  0
  -23.9991   -7.4670   22.7484 H   0  0  0  0  0  0
  -21.0818   -8.8741   19.8957 H   0  0  0  0  0  0
  -22.3662  -10.9639   19.6117 H   0  0  0  0  0  0
  -21.2029   -7.6139   23.9699 H   0  0  0  0  0  0
  -21.1486   -6.0516   25.9061 H   0  0  0  0  0  0
  -22.0603   -2.7595   23.2842 H   0  0  0  0  0  0
  -22.4114  -11.9887   22.4797 H   0  0  0  0  0  0
  -21.1085  -13.1206   22.2578 H   0  0  0  0  0  0
  -24.6532  -15.8475   20.5312 H   0  0  0  0  0  0
  -26.2887  -15.6438   20.1573 H   0  0  0  0  0  0
  -26.7228  -32.5368   23.1044 H   0  0  0  0  0  0
  -25.0053  -33.9673   25.0353 H   0  0  0  0  0  0
  -22.7288  -31.2923   21.3823 H   0  0  0  0  0  0
  -23.3765  -35.9590   23.3277 H   0  0  0  0  0  0
  -24.3583  -36.8925   22.2058 H   0  0  0  0  0  0
  -23.7239  -37.6456   23.6691 H   0  0  0  0  0  0
  -26.1304  -31.5200   20.6065 H   0  0  0  0  0  0
  -26.8518  -30.8048   22.0162 H   0  0  0  0  0  0
  -28.1377  -28.9297   21.1781 H   0  0  0  0  0  0
  -25.9882  -25.8571   19.0559 H   0  0  0  0  0  0
  -23.9785  -27.2729   19.0277 H   0  0  0  0  0  0
  -23.7856  -30.5674   19.3945 H   0  0  0  0  0  0
  -22.7711  -29.2335   19.8490 H   0  0  0  0  0  0
  -25.1304  -36.1889   25.0817 H   0  0  0  0  0  0
  -20.9994  -28.3298   24.1376 H   0  0  0  0  0  0
  -20.5666  -26.2333   23.3625 H   0  0  0  0  0  0
  -21.6655  -26.7443   22.1212 H   0  0  0  0  0  0
  -19.6933  -25.6310   21.1227 H   0  0  0  0  0  0
  -19.6698  -27.3215   20.6742 H   0  0  0  0  0  0
  -17.4210  -26.6667   21.4023 H   0  0  0  0  0  0
  -18.0345  -26.0100   22.9023 H   0  0  0  0  0  0
  -19.7945  -30.7292   24.2227 H   0  0  0  0  0  0
  -17.5026  -31.6257   24.5199 H   0  0  0  0  0  0
  -15.5359  -30.2989   23.7684 H   0  0  0  0  0  0
  -15.8683  -28.0853   22.7035 H   0  0  0  0  0  0
  -24.5952  -30.7012   25.7722 H   0  0  0  0  0  0
  -24.8939  -32.2831   26.4851 H   0  0  0  0  0  0
  -25.8094  -30.8838   27.0178 H   0  0  0  0  0  0
  -26.2967  -29.6670   24.1269 H   0  0  0  0  0  0
  -27.4072  -29.7253   25.4748 H   0  0  0  0  0  0
  -27.8846  -30.4194   23.9453 H   0  0  0  0  0  0
  -27.2672  -33.3608   26.2032 H   0  0  0  0  0  0
  -28.3891  -32.6858   25.0318 H   0  0  0  0  0  0
  -28.0736  -31.8452   26.5407 H   0  0  0  0  0  0
  -28.2572  -38.0103   24.7551 H   0  0  0  0  0  0
  -28.1107  -36.2641   24.6240 H   0  0  0  0  0  0
  -27.2307  -37.1369   25.8861 H   0  0  0  0  0  0
  -20.9434  -29.8770   21.6836 H   0  0  0  0  0  0
  -26.0160  -38.2824   24.1427 H   0  0  0  0  0  0
  -23.1860  -20.4020   19.6318 H   0  0  0  0  0  0
  -23.9682  -21.8156   20.3318 H   0  0  0  0  0  0
  -23.6306  -20.4063   21.3326 H   0  0  0  0  0  0
  -30.0777  -17.0077   24.2051 H   0  0  0  0  0  0
  -30.3815  -18.0761   22.8630 H   0  0  0  0  0  0
  -31.4295  -16.6844   23.1294 H   0  0  0  0  0  0
  -30.1521  -17.1165   19.1366 H   0  0  0  0  0  0
  -31.2601  -17.5467   20.3836 H   0  0  0  0  0  0
  -26.4456  -21.6393   21.0570 H   0  0  0  0  0  0
  -26.1475  -20.1962   21.9796 H   0  0  0  0  0  0
  -25.5985  -20.4721   18.9765 H   0  0  0  0  0  0
  -25.2561  -19.0534   19.9361 H   0  0  0  0  0  0
  -27.5961  -23.2782   19.5580 H   0  0  0  0  0  0
  -29.2525  -23.6996   19.2804 H   0  0  0  0  0  0
  -28.5278  -22.4192   21.9462 H   0  0  0  0  0  0
  -30.0789  -22.4736   21.2164 H   0  0  0  0  0  0
  -28.4588  -16.5268   22.2910 H   0  0  0  0  0  0
  -29.4271  -15.1832   22.8222 H   0  0  0  0  0  0
  -28.9894  -25.0728   21.5850 H   0  0  0  0  0  0
  -27.3008  -24.9467   21.3174 H   0  0  0  0  0  0
  1 25  1  0  0  0
  1 30  2  0  0  0
  1 85  1  0  0  0
  2  3  1  0  0  0
  2 25  1  0  0  0
  2 86  1  0  0  0
  2 87  1  0  0  0
  3  4  1  0  0  0
  3 88  1  0  0  0
  3 89  1  0  0  0
  4  5  1  0  0  0
  4 90  1  0  0  0
  4 91  1  0  0  0
  5  6  1  0  0  0
  5 26  1  0  0  0
  5 92  1  0  0  0
  6 25  1  0  0  0
  6 93  1  0  0  0
  6 94  1  0  0  0
  7  8  2  0  0  0
  7 26  1  0  0  0
  7 29  1  0  0  0
  8  9  1  0  0  0
  8 22  1  0  0  0
  9 10  1  0  0  0
  9 27  2  0  0  0
 10 11  2  0  0  0
 10 15  1  0  0  0
 11 12  1  0  0  0
 11 95  1  0  0  0
 12 13  2  0  0  0
 12 96  1  0  0  0
 13 14  1  0  0  0
 13 31  1  0  0  0
 14 15  2  0  0  0
 14 97  1  0  0  0
 15 98  1  0  0  0
 16 17  2  0  0  0
 16 21  1  0  0  0
 16 31  1  0  0  0
 17 18  1  0  0  0
 17 99  1  0  0  0
 18 19  2  0  0  0
 18100  1  0  0  0
 19 20  1  0  0  0
 19 24  1  0  0  0
 20 21  2  0  0  0
 20101  1  0  0  0
 21 23  1  0  0  0
 22 28  1  0  0  0
 22 32  2  0  0  0
 26 27  1  0  0  0
 28102  1  0  0  0
 28103  1  0  0  0
 29104  1  0  0  0
 29105  1  0  0  0
 33 34  1  0  0  0
 33 66  1  0  0  0
 33 70  2  0  0  0
 34 36  1  0  0  0
 34 59  1  0  0  0
 34106  1  0  0  0
 35 44  2  0  0  0
 35 45  1  0  0  0
 35 68  1  0  0  0
 36 56  1  0  0  0
 36107  1  0  0  0
 37 39  1  0  0  0
 37 47  1  0  0  0
 37 66  1  0  0  0
 37108  1  0  0  0
 38 43  2  0  0  0
 38 46  1  0  0  0
 38 47  1  0  0  0
 39 64  1  0  0  0
 39 67  2  0  0  0
 40 52  1  0  0  0
 40 53  2  0  0  0
 40 58  1  0  0  0
 41109  1  0  0  0
 41110  1  0  0  0
 41111  1  0  0  0
 41 48  1  0  0  0
 42 43  1  0  0  0
 42 66  1  0  0  0
 42112  1  0  0  0
 42113  1  0  0  0
 43 44  1  0  0  0
 44114  1  0  0  0
 45 46  2  0  0  0
 45115  1  0  0  0
 46116  1  0  0  0
 47117  1  0  0  0
 47118  1  0  0  0
 48 56  1  0  0  0
 48 65  1  0  0  0
 48119  1  0  0  0
 49 50  1  0  0  0
 49 53  1  0  0  0
 49 64  1  0  0  0
 49120  1  0  0  0
 50 51  1  0  0  0
 50121  1  0  0  0
 50122  1  0  0  0
 51 52  1  0  0  0
 51123  1  0  0  0
 51124  1  0  0  0
 52125  1  0  0  0
 52126  1  0  0  0
 53 54  1  0  0  0
 54 55  2  0  0  0
 54127  1  0  0  0
 55 57  1  0  0  0
 55128  1  0  0  0
 56 69  2  0  0  0
 57 58  2  0  0  0
 57129  1  0  0  0
 58130  1  0  0  0
 59 60  1  0  0  0
 59 61  1  0  0  0
 59 62  1  0  0  0
 60131  1  0  0  0
 60132  1  0  0  0
 60133  1  0  0  0
 61134  1  0  0  0
 61135  1  0  0  0
 61136  1  0  0  0
 62137  1  0  0  0
 62138  1  0  0  0
 62139  1  0  0  0
 63 65  1  0  0  0
 63140  1  0  0  0
 63141  1  0  0  0
 63142  1  0  0  0
 64143  1  0  0  0
 65144  1  0  0  0
 68 81  1  0  0  0
 71 75  1  0  0  0
 71 82  1  0  0  0
 71 83  2  0  0  0
 72 76  1  0  0  0
 72 82  2  0  0  0
 72 84  1  0  0  0
 73 77  1  0  0  0
 73145  1  0  0  0
 73146  1  0  0  0
 73147  1  0  0  0
 74 80  1  0  0  0
 74148  1  0  0  0
 74149  1  0  0  0
 74150  1  0  0  0
 75 85  1  0  0  0
 75151  1  0  0  0
 75152  1  0  0  0
 76 77  1  0  0  0
 76153  1  0  0  0
 76154  1  0  0  0
 77155  1  0  0  0
 77156  1  0  0  0
 78 79  1  0  0  0
 78 81  1  0  0  0
 78157  1  0  0  0
 78158  1  0  0  0
 79 84  1  0  0  0
 79159  1  0  0  0
 79160  1  0  0  0
 80 85  1  0  0  0
 80161  1  0  0  0
 80162  1  0  0  0
 81163  1  0  0  0
 81164  1  0  0  0
 83 84  1  0  0  0
M  ISO  4   1 100  68 101  81 101  85 100
M  END
> <chiral flag>
0

> <version>
0

> <s_m_source_file>
/data/baiqing/PycharmProjects/Reinvent-master-3.2/result/LINK_invent/BTK/process_docking_weight1_custom_sum_contain_oxygen_bond_distance_aromatic_linkinvent_7_9_3/rearranged_h_0049.sdf

> <i_m_source_file_index>
42

> <r_mmod_Potential_Energy-OPLS-2005>
304.143402099609

> <r_mmod_Stretch_Energy-OPLS-2005>
148.480178833008

> <r_mmod_Bend_Energy-OPLS-2005>
206.934936523438

> <r_mmod_Torsional_Energy-OPLS-2005>
305.814910888672

> <r_mmod_Improper_Torsional_Energy-OPLS-2005>
10.4872608184814

> <r_mmod_Van_der_Waal_Energy-OPLS-2005>
109.432006835938

> <r_mmod_Electrostatic_Energy-OPLS-2005>
-367.393188476562

> <r_mmod_Solvation_Energy-OPLS-2005>
-201.525207519531

> <b_mmod_Minimization_Converged-OPLS-2005>
0

> <r_mmod_RMS_Derivative-OPLS-2005>
3.05177760124207

$$$$
44
                    3D
 Structure written by MMmdl.
163171  0  0  1  0            999 V2000
  -30.6961  -14.6145   20.4129 C   0  0  0  0  0  0
  -30.4264  -12.3629   19.4426 C   0  0  0  0  0  0
  -29.5014  -12.4592   18.2116 C   0  0  0  0  0  0
  -28.0253  -12.3152   18.6331 C   0  0  0  0  0  0
  -27.6460  -13.2148   19.8406 C   0  0  2  0  0  0
  -28.7025  -13.1559   20.9662 C   0  0  0  0  0  0
  -25.2595  -13.8189   20.5698 C   0  0  0  0  0  0
  -24.1855  -13.0461   20.9202 C   0  0  0  0  0  0
  -24.6409  -11.6938   20.8747 C   0  0  0  0  0  0
  -23.9071  -10.4324   21.0401 C   0  0  0  0  0  0
  -24.3629   -9.4231   21.9177 C   0  0  0  0  0  0
  -23.6299   -8.2270   22.0765 C   0  0  0  0  0  0
  -22.4282   -8.0295   21.3553 C   0  0  0  0  0  0
  -21.9909   -9.0271   20.4655 C   0  0  0  0  0  0
  -22.7233  -10.2152   20.3051 C   0  0  0  0  0  0
  -21.6863   -6.0738   22.5278 C   0  0  0  0  0  0
  -21.4009   -6.5636   23.8212 C   0  0  0  0  0  0
  -21.3669   -5.6791   24.9177 C   0  0  0  0  0  0
  -21.6057   -4.3055   24.7214 C   0  0  0  0  0  0
  -21.8823   -3.8142   23.4334 C   0  0  0  0  0  0
  -21.9209   -4.6964   22.3396 C   0  0  0  0  0  0
  -22.7880  -13.5258   21.1852 C   0  0  0  0  0  0
  -22.1657   -4.2157   21.0969 F   0  0  0  0  0  0
  -21.5647   -3.4537   25.7720 F   0  0  0  0  0  0
  -30.0121  -13.4331   20.3638 N   0  0  0  0  0  0
  -26.2988  -12.9337   20.3283 N   0  0  0  0  0  0
  -25.9336  -11.6517   20.5780 N   0  0  0  0  0  0
  -22.0491  -12.8285   22.0400 N   0  0  0  0  0  0
  -25.4371  -15.1898   20.4101 N   0  0  0  0  0  0
  -31.9229  -14.6487   20.2829 O   0  0  0  0  0  0
  -21.6649   -6.8882   21.4246 O   0  0  0  0  0  0
  -22.3579  -14.5560   20.6660 O   0  0  0  0  0  0
  -24.6172  -31.8651   23.2078 C   0  0  0  0  0  0
  -25.9045  -32.4812   23.8382 C   0  0  1  0  0  0
  -27.2315  -27.3967   20.1249 C   0  0  0  0  0  0
  -25.5892  -33.8614   24.2311 N   0  0  0  0  0  0
  -23.4086  -30.4856   21.5493 C   0  0  2  0  0  0
  -24.8562  -28.9393   20.1242 C   0  0  0  0  0  0
  -22.7426  -29.4633   22.4992 C   0  0  0  0  0  0
  -18.0260  -28.1384   22.8485 C   0  0  0  0  0  0
  -24.1487  -36.7322   23.2641 C   0  0  0  0  0  0
  -25.9379  -30.8198   21.3642 C   0  0  0  0  0  0
  -26.0166  -29.4463   20.7245 C   0  0  0  0  0  0
  -27.2104  -28.6835   20.7186 C   0  0  0  0  0  0
  -26.0573  -26.9062   19.5202 C   0  0  0  0  0  0
  -24.8722  -27.6698   19.5188 C   0  0  0  0  0  0
  -23.6221  -29.8153   20.1651 C   0  0  0  0  0  0
  -25.4108  -36.3114   24.0337 C   0  0  1  0  0  0
  -20.5853  -28.3673   23.1322 C   0  0  2  0  0  0
  -20.6754  -26.9409   22.5424 C   0  0  0  0  0  0
  -19.5734  -26.6385   21.5216 C   0  0  0  0  0  0
  -18.1912  -26.7932   22.1622 C   0  0  0  0  0  0
  -19.1512  -28.8843   23.2901 C   0  0  0  0  0  0
  -18.9450  -30.1446   23.8906 C   0  0  0  0  0  0
  -17.6457  -30.6594   24.0565 C   0  0  0  0  0  0
  -25.9035  -34.9475   23.5126 C   0  0  0  0  0  0
  -16.5343  -29.9099   23.6327 C   0  0  0  0  0  0
  -16.7253  -28.6520   23.0344 C   0  0  0  0  0  0
  -26.4470  -31.6596   25.0716 C   0  0  0  0  0  0
  -25.3744  -31.3696   26.1472 C   0  0  0  0  0  0
  -27.0304  -30.3049   24.6072 C   0  0  0  0  0  0
  -27.6051  -32.4311   25.7465 C   0  0  0  0  0  0
  -27.5575  -37.1824   24.8473 C   0  0  0  0  0  0
  -21.4146  -29.3036   22.3733 N   0  0  0  0  0  0
  -26.4302  -37.3795   23.9398 N   0  0  0  0  0  0
  -24.6731  -31.0728   22.0993 N   0  0  0  0  0  0
  -23.4187  -28.8177   23.3046 O   0  0  0  0  0  0
  -28.3841  -26.6405   20.0478 O   0  0  0  0  0  0
  -26.5607  -34.8929   22.4692 O   0  0  0  0  0  0
  -23.5354  -32.1404   23.7455 O   0  0  0  0  0  0
  -28.5555  -21.6439   22.9410 C   0  0  0  0  0  0
  -28.3149  -20.3562   23.4337 C   0  0  0  0  0  0
  -29.0461  -21.7604   21.6370 C   0  0  0  0  0  0
  -29.0035  -19.4360   21.4462 C   0  0  0  0  0  0
  -27.7971  -20.1566   24.8434 C   0  0  0  0  0  0
  -29.3500  -16.8858   17.6184 C   0  0  0  0  0  0
  -29.4381  -23.1496   21.0906 C   0  0  0  0  0  0
  -29.0865  -18.1781   20.5425 C   0  0  0  0  0  0
  -28.2924  -24.1580   20.7301 C   0  0  0  0  0  0
  -30.2191  -16.0312   18.5934 C   0  0  0  0  0  0
  -29.9625  -16.9338   20.9869 C   0  0  0  0  0  0
  -28.6128  -25.6539   21.0772 C   0  0  0  0  0  0
  -28.5312  -19.2599   22.6780 N   0  0  0  0  0  0
  -29.2659  -20.6394   20.8976 N   0  0  0  0  0  0
  -29.9924  -15.7426   20.0479 N   0  0  0  0  0  0
  -31.4703  -12.4564   19.1353 H   0  0  0  0  0  0
  -30.3380  -11.3880   19.9270 H   0  0  0  0  0  0
  -29.7566  -11.6852   17.4877 H   0  0  0  0  0  0
  -29.6540  -13.4110   17.7015 H   0  0  0  0  0  0
  -27.8706  -11.2683   18.8960 H   0  0  0  0  0  0
  -27.3689  -12.5132   17.7851 H   0  0  0  0  0  0
  -27.6327  -14.2317   19.4560 H   0  0  0  0  0  0
  -28.7150  -12.1797   21.4529 H   0  0  0  0  0  0
  -28.4759  -13.8928   21.7396 H   0  0  0  0  0  0
  -25.2788   -9.5717   22.4751 H   0  0  0  0  0  0
  -24.0032   -7.4664   22.7465 H   0  0  0  0  0  0
  -21.0847   -8.8766   19.8965 H   0  0  0  0  0  0
  -22.3670  -10.9691   19.6168 H   0  0  0  0  0  0
  -21.1976   -7.6138   23.9706 H   0  0  0  0  0  0
  -21.1498   -6.0517   25.9079 H   0  0  0  0  0  0
  -22.0595   -2.7605   23.2818 H   0  0  0  0  0  0
  -22.4061  -11.9956   22.4845 H   0  0  0  0  0  0
  -21.1105  -13.1353   22.2534 H   0  0  0  0  0  0
  -24.6816  -15.8547   20.5294 H   0  0  0  0  0  0
  -26.3011  -15.6191   20.1075 H   0  0  0  0  0  0
  -26.7113  -32.5529   23.1139 H   0  0  0  0  0  0
  -25.0028  -33.9774   25.0446 H   0  0  0  0  0  0
  -22.6985  -31.3026   21.4066 H   0  0  0  0  0  0
  -23.3732  -35.9679   23.3353 H   0  0  0  0  0  0
  -24.3561  -36.8887   22.2045 H   0  0  0  0  0  0
  -23.7265  -37.6552   23.6623 H   0  0  0  0  0  0
  -26.0453  -31.5769   20.5864 H   0  0  0  0  0  0
  -26.8276  -30.8842   21.9785 H   0  0  0  0  0  0
  -28.1119  -29.0770   21.1675 H   0  0  0  0  0  0
  -26.0631  -25.9339   19.0479 H   0  0  0  0  0  0
  -23.9820  -27.2751   19.0480 H   0  0  0  0  0  0
  -23.7445  -30.5902   19.4073 H   0  0  0  0  0  0
  -22.7434  -29.2425   19.8638 H   0  0  0  0  0  0
  -25.1291  -36.1982   25.0834 H   0  0  0  0  0  0
  -20.9925  -28.3226   24.1447 H   0  0  0  0  0  0
  -20.5642  -26.2278   23.3608 H   0  0  0  0  0  0
  -21.6629  -26.7441   22.1219 H   0  0  0  0  0  0
  -19.6898  -25.6291   21.1248 H   0  0  0  0  0  0
  -19.6690  -27.3191   20.6742 H   0  0  0  0  0  0
  -17.4184  -26.6666   21.4025 H   0  0  0  0  0  0
  -18.0323  -26.0073   22.9021 H   0  0  0  0  0  0
  -19.7933  -30.7253   24.2288 H   0  0  0  0  0  0
  -17.5022  -31.6273   24.5168 H   0  0  0  0  0  0
  -15.5349  -30.3017   23.7650 H   0  0  0  0  0  0
  -15.8650  -28.0855   22.7050 H   0  0  0  0  0  0
  -24.5905  -30.7053   25.7807 H   0  0  0  0  0  0
  -24.8952  -32.2856   26.4949 H   0  0  0  0  0  0
  -25.8114  -30.8841   27.0210 H   0  0  0  0  0  0
  -26.2838  -29.6796   24.1161 H   0  0  0  0  0  0
  -27.4131  -29.7291   25.4506 H   0  0  0  0  0  0
  -27.8645  -30.4383   23.9179 H   0  0  0  0  0  0
  -27.2681  -33.3604   26.2062 H   0  0  0  0  0  0
  -28.3846  -32.6873   25.0281 H   0  0  0  0  0  0
  -28.0730  -31.8421   26.5357 H   0  0  0  0  0  0
  -28.2638  -38.0076   24.7467 H   0  0  0  0  0  0
  -28.1029  -36.2612   24.6377 H   0  0  0  0  0  0
  -27.2291  -37.1570   25.8878 H   0  0  0  0  0  0
  -20.9307  -29.8800   21.6990 H   0  0  0  0  0  0
  -26.0197  -38.2881   24.1378 H   0  0  0  0  0  0
  -28.3977  -22.5186   23.5612 H   0  0  0  0  0  0
  -28.4355  -20.6769   25.5572 H   0  0  0  0  0  0
  -27.7683  -19.1049   25.1239 H   0  0  0  0  0  0
  -26.7902  -20.5616   24.9390 H   0  0  0  0  0  0
  -28.4493  -17.3196   18.0584 H   0  0  0  0  0  0
  -29.0257  -16.2943   16.7591 H   0  0  0  0  0  0
  -29.9194  -17.7175   17.1920 H   0  0  0  0  0  0
  -30.0932  -23.0337   20.2283 H   0  0  0  0  0  0
  -30.0660  -23.5938   21.8632 H   0  0  0  0  0  0
  -29.4638  -18.5595   19.5960 H   0  0  0  0  0  0
  -28.0653  -17.8463   20.3552 H   0  0  0  0  0  0
  -27.3862  -23.8752   21.2703 H   0  0  0  0  0  0
  -28.0463  -24.0549   19.6731 H   0  0  0  0  0  0
  -29.2197  -15.6061   18.6850 H   0  0  0  0  0  0
  -30.7474  -16.9454   18.8607 H   0  0  0  0  0  0
  -29.5960  -16.5892   21.9538 H   0  0  0  0  0  0
  -30.9856  -17.2677   21.1687 H   0  0  0  0  0  0
  -29.6760  -25.7386   21.3028 H   0  0  0  0  0  0
  -28.1040  -25.9358   22.0006 H   0  0  0  0  0  0
  1 25  1  0  0  0
  1 30  2  0  0  0
  1 85  1  0  0  0
  2  3  1  0  0  0
  2 25  1  0  0  0
  2 86  1  0  0  0
  2 87  1  0  0  0
  3  4  1  0  0  0
  3 88  1  0  0  0
  3 89  1  0  0  0
  4  5  1  0  0  0
  4 90  1  0  0  0
  4 91  1  0  0  0
  5  6  1  0  0  0
  5 26  1  0  0  0
  5 92  1  0  0  0
  6 25  1  0  0  0
  6 93  1  0  0  0
  6 94  1  0  0  0
  7  8  2  0  0  0
  7 26  1  0  0  0
  7 29  1  0  0  0
  8  9  1  0  0  0
  8 22  1  0  0  0
  9 10  1  0  0  0
  9 27  2  0  0  0
 10 11  2  0  0  0
 10 15  1  0  0  0
 11 12  1  0  0  0
 11 95  1  0  0  0
 12 13  2  0  0  0
 12 96  1  0  0  0
 13 14  1  0  0  0
 13 31  1  0  0  0
 14 15  2  0  0  0
 14 97  1  0  0  0
 15 98  1  0  0  0
 16 17  2  0  0  0
 16 21  1  0  0  0
 16 31  1  0  0  0
 17 18  1  0  0  0
 17 99  1  0  0  0
 18 19  2  0  0  0
 18100  1  0  0  0
 19 20  1  0  0  0
 19 24  1  0  0  0
 20 21  2  0  0  0
 20101  1  0  0  0
 21 23  1  0  0  0
 22 28  1  0  0  0
 22 32  2  0  0  0
 26 27  1  0  0  0
 28102  1  0  0  0
 28103  1  0  0  0
 29104  1  0  0  0
 29105  1  0  0  0
 33 34  1  0  0  0
 33 66  1  0  0  0
 33 70  2  0  0  0
 34 36  1  0  0  0
 34 59  1  0  0  0
 34106  1  0  0  0
 35 44  2  0  0  0
 35 45  1  0  0  0
 35 68  1  0  0  0
 36 56  1  0  0  0
 36107  1  0  0  0
 37 39  1  0  0  0
 37 47  1  0  0  0
 37 66  1  0  0  0
 37108  1  0  0  0
 38 43  2  0  0  0
 38 46  1  0  0  0
 38 47  1  0  0  0
 39 64  1  0  0  0
 39 67  2  0  0  0
 40 52  1  0  0  0
 40 53  2  0  0  0
 40 58  1  0  0  0
 41109  1  0  0  0
 41110  1  0  0  0
 41111  1  0  0  0
 41 48  1  0  0  0
 42 43  1  0  0  0
 42 66  1  0  0  0
 42112  1  0  0  0
 42113  1  0  0  0
 43 44  1  0  0  0
 44114  1  0  0  0
 45 46  2  0  0  0
 45115  1  0  0  0
 46116  1  0  0  0
 47117  1  0  0  0
 47118  1  0  0  0
 48 56  1  0  0  0
 48 65  1  0  0  0
 48119  1  0  0  0
 49 50  1  0  0  0
 49 53  1  0  0  0
 49 64  1  0  0  0
 49120  1  0  0  0
 50 51  1  0  0  0
 50121  1  0  0  0
 50122  1  0  0  0
 51 52  1  0  0  0
 51123  1  0  0  0
 51124  1  0  0  0
 52125  1  0  0  0
 52126  1  0  0  0
 53 54  1  0  0  0
 54 55  2  0  0  0
 54127  1  0  0  0
 55 57  1  0  0  0
 55128  1  0  0  0
 56 69  2  0  0  0
 57 58  2  0  0  0
 57129  1  0  0  0
 58130  1  0  0  0
 59 60  1  0  0  0
 59 61  1  0  0  0
 59 62  1  0  0  0
 60131  1  0  0  0
 60132  1  0  0  0
 60133  1  0  0  0
 61134  1  0  0  0
 61135  1  0  0  0
 61136  1  0  0  0
 62137  1  0  0  0
 62138  1  0  0  0
 62139  1  0  0  0
 63 65  1  0  0  0
 63140  1  0  0  0
 63141  1  0  0  0
 63142  1  0  0  0
 64143  1  0  0  0
 65144  1  0  0  0
 68 82  1  0  0  0
 71 72  2  0  0  0
 71 73  1  0  0  0
 71145  1  0  0  0
 72 75  1  0  0  0
 72 83  1  0  0  0
 73 77  1  0  0  0
 73 84  2  0  0  0
 74 78  1  0  0  0
 74 83  2  0  0  0
 74 84  1  0  0  0
 75146  1  0  0  0
 75147  1  0  0  0
 75148  1  0  0  0
 76 80  1  0  0  0
 76149  1  0  0  0
 76150  1  0  0  0
 76151  1  0  0  0
 77 79  1  0  0  0
 77152  1  0  0  0
 77153  1  0  0  0
 78 81  1  0  0  0
 78154  1  0  0  0
 78155  1  0  0  0
 79 82  1  0  0  0
 79156  1  0  0  0
 79157  1  0  0  0
 80 85  1  0  0  0
 80158  1  0  0  0
 80159  1  0  0  0
 81 85  1  0  0  0
 81160  1  0  0  0
 81161  1  0  0  0
 82162  1  0  0  0
 82163  1  0  0  0
M  ISO  4   1 100  68 101  82 101  85 100
M  END
> <chiral flag>
0

> <version>
0

> <s_m_source_file>
/data/baiqing/PycharmProjects/Reinvent-master-3.2/result/LINK_invent/BTK/process_docking_weight1_custom_sum_contain_oxygen_bond_distance_aromatic_linkinvent_7_9_3/rearranged_h_0049.sdf

> <i_m_source_file_index>
43

> <r_mmod_Potential_Energy-OPLS-2005>
76.4743041992188

> <r_mmod_Stretch_Energy-OPLS-2005>
60.8722152709961

> <r_mmod_Bend_Energy-OPLS-2005>
359.969970703125

> <r_mmod_Torsional_Energy-OPLS-2005>
355.896362304688

> <r_mmod_Improper_Torsional_Energy-OPLS-2005>
22.4893474578857

> <r_mmod_Van_der_Waal_Energy-OPLS-2005>
162.466873168945

> <r_mmod_Electrostatic_Energy-OPLS-2005>
-710.424133300781

> <r_mmod_Solvation_Energy-OPLS-2005>
-218.683456420898

> <b_mmod_Minimization_Converged-OPLS-2005>
0

> <r_mmod_RMS_Derivative-OPLS-2005>
3.31875348091125

$$$$
45
                    3D
 Structure written by MMmdl.
171179  0  0  1  0            999 V2000
  -30.6884  -14.6344   20.5327 C   0  0  0  0  0  0
  -30.4230  -12.4102   19.4486 C   0  0  0  0  0  0
  -29.4989  -12.5258   18.2177 C   0  0  0  0  0  0
  -28.0229  -12.3622   18.6293 C   0  0  0  0  0  0
  -27.6491  -13.2266   19.8637 C   0  0  2  0  0  0
  -28.6966  -13.0647   20.9845 C   0  0  0  0  0  0
  -25.2535  -13.8196   20.5708 C   0  0  0  0  0  0
  -24.1818  -13.0454   20.9199 C   0  0  0  0  0  0
  -24.6402  -11.6925   20.8728 C   0  0  0  0  0  0
  -23.9081  -10.4303   21.0385 C   0  0  0  0  0  0
  -24.3624   -9.4213   21.9165 C   0  0  0  0  0  0
  -23.6298   -8.2250   22.0737 C   0  0  0  0  0  0
  -22.4277   -8.0286   21.3534 C   0  0  0  0  0  0
  -21.9917   -9.0259   20.4630 C   0  0  0  0  0  0
  -22.7250  -10.2139   20.3039 C   0  0  0  0  0  0
  -21.6865   -6.0738   22.5277 C   0  0  0  0  0  0
  -21.4013   -6.5637   23.8210 C   0  0  0  0  0  0
  -21.3652   -5.6789   24.9174 C   0  0  0  0  0  0
  -21.6037   -4.3053   24.7223 C   0  0  0  0  0  0
  -21.8816   -3.8145   23.4343 C   0  0  0  0  0  0
  -21.9200   -4.6963   22.3401 C   0  0  0  0  0  0
  -22.7835  -13.5223   21.1870 C   0  0  0  0  0  0
  -22.1678   -4.2153   21.0980 F   0  0  0  0  0  0
  -21.5625   -3.4531   25.7730 F   0  0  0  0  0  0
  -30.0019  -13.4443   20.4229 N   0  0  0  0  0  0
  -26.2970  -12.9400   20.3334 N   0  0  0  0  0  0
  -25.9331  -11.6538   20.5743 N   0  0  0  0  0  0
  -22.0503  -12.8183   22.0411 N   0  0  0  0  0  0
  -25.4245  -15.1916   20.4129 N   0  0  0  0  0  0
  -31.8446  -14.6945   20.1003 O   0  0  0  0  0  0
  -21.6645   -6.8882   21.4241 O   0  0  0  0  0  0
  -22.3508  -14.5539   20.6744 O   0  0  0  0  0  0
  -24.6262  -31.8620   23.2055 C   0  0  0  0  0  0
  -25.9107  -32.4794   23.8375 C   0  0  1  0  0  0
  -27.2168  -27.3246   20.0991 C   0  0  0  0  0  0
  -25.5930  -33.8595   24.2298 N   0  0  0  0  0  0
  -23.4180  -30.4885   21.5496 C   0  0  2  0  0  0
  -24.8609  -28.9491   20.1114 C   0  0  0  0  0  0
  -22.7466  -29.4648   22.4952 C   0  0  0  0  0  0
  -18.0283  -28.1393   22.8486 C   0  0  0  0  0  0
  -24.1488  -36.7302   23.2634 C   0  0  0  0  0  0
  -25.9607  -30.7921   21.3766 C   0  0  0  0  0  0
  -26.0331  -29.4215   20.7152 C   0  0  0  0  0  0
  -27.2147  -28.6205   20.7025 C   0  0  0  0  0  0
  -26.0173  -26.9120   19.4682 C   0  0  0  0  0  0
  -24.8546  -27.6983   19.4822 C   0  0  0  0  0  0
  -23.6306  -29.8296   20.1636 C   0  0  0  0  0  0
  -25.4112  -36.3091   24.0323 C   0  0  1  0  0  0
  -20.5880  -28.3703   23.1281 C   0  0  2  0  0  0
  -20.6778  -26.9433   22.5407 C   0  0  0  0  0  0
  -19.5755  -26.6399   21.5209 C   0  0  0  0  0  0
  -18.1931  -26.7938   22.1622 C   0  0  0  0  0  0
  -19.1532  -28.8861   23.2880 C   0  0  0  0  0  0
  -18.9460  -30.1457   23.8909 C   0  0  0  0  0  0
  -17.6461  -30.6598   24.0564 C   0  0  0  0  0  0
  -25.9048  -34.9459   23.5106 C   0  0  0  0  0  0
  -16.5350  -29.9101   23.6330 C   0  0  0  0  0  0
  -16.7268  -28.6512   23.0359 C   0  0  0  0  0  0
  -26.4487  -31.6593   25.0739 C   0  0  0  0  0  0
  -25.3723  -31.3717   26.1464 C   0  0  0  0  0  0
  -27.0320  -30.3016   24.6188 C   0  0  0  0  0  0
  -27.6054  -32.4317   25.7507 C   0  0  0  0  0  0
  -27.5582  -37.1803   24.8458 C   0  0  0  0  0  0
  -21.4182  -29.3059   22.3681 N   0  0  0  0  0  0
  -26.4288  -37.3787   23.9412 N   0  0  0  0  0  0
  -24.6874  -31.0632   22.1009 N   0  0  0  0  0  0
  -23.4193  -28.8182   23.3021 O   0  0  0  0  0  0
  -28.3286  -26.4644   20.1431 O   0  0  0  0  0  0
  -26.5621  -34.8913   22.4675 O   0  0  0  0  0  0
  -23.5428  -32.1429   23.7379 O   0  0  0  0  0  0
  -30.8256  -19.5798   20.6019 C   0  0  0  0  0  0
  -29.9067  -18.5493   20.2735 C   0  0  0  0  0  0
  -30.4513  -20.9564   20.6360 C   0  0  0  0  0  0
  -28.5872  -19.0019   20.0207 C   0  0  0  0  0  0
  -29.1085  -21.3112   20.3179 C   0  0  0  0  0  0
  -31.4776  -22.3093   22.5245 C   0  0  0  0  0  0
  -27.2594  -17.9808   18.1130 C   0  0  0  0  0  0
  -29.1400  -15.8625   24.5784 C   0  0  0  0  0  0
  -31.5290  -21.9586   21.0315 C   0  0  0  0  0  0
  -30.4311  -17.0736   20.0288 C   0  0  0  0  0  0
  -27.4732  -18.0442   19.6295 C   0  0  0  0  0  0
  -29.9279  -15.5089   23.3138 C   0  0  0  0  0  0
  -29.2655  -16.0809   22.0410 C   0  0  0  0  0  0
  -28.0700  -25.0260   19.9028 C   0  0  0  0  0  0
  -29.1304  -23.8932   20.2245 C   0  0  0  0  0  0
  -28.2238  -20.3176   20.0471 N   0  0  0  0  0  0
  -30.0160  -15.8267   20.7944 N   0  0  0  0  0  0
  -28.4890  -22.5775   20.2636 O   0  0  0  0  0  0
  -31.4641  -12.5102   19.1395 H   0  0  0  0  0  0
  -30.3478  -11.4159   19.8907 H   0  0  0  0  0  0
  -29.7661  -11.7754   17.4724 H   0  0  0  0  0  0
  -29.6409  -13.4961   17.7385 H   0  0  0  0  0  0
  -27.8618  -11.3080   18.8563 H   0  0  0  0  0  0
  -27.3681  -12.5978   17.7895 H   0  0  0  0  0  0
  -27.6700  -14.2672   19.5377 H   0  0  0  0  0  0
  -28.7270  -12.0280   21.3211 H   0  0  0  0  0  0
  -28.4209  -13.6260   21.8700 H   0  0  0  0  0  0
  -25.2771   -9.5683   22.4737 H   0  0  0  0  0  0
  -24.0002   -7.4635   22.7447 H   0  0  0  0  0  0
  -21.0855   -8.8782   19.8931 H   0  0  0  0  0  0
  -22.3711  -10.9679   19.6141 H   0  0  0  0  0  0
  -21.2000   -7.6140   23.9715 H   0  0  0  0  0  0
  -21.1479   -6.0517   25.9077 H   0  0  0  0  0  0
  -22.0599   -2.7607   23.2842 H   0  0  0  0  0  0
  -22.4168  -11.9854   22.4773 H   0  0  0  0  0  0
  -21.1124  -13.1183   22.2638 H   0  0  0  0  0  0
  -24.6585  -15.8475   20.5160 H   0  0  0  0  0  0
  -26.2766  -15.6206   20.0820 H   0  0  0  0  0  0
  -26.7169  -32.5463   23.1119 H   0  0  0  0  0  0
  -25.0053  -33.9745   25.0425 H   0  0  0  0  0  0
  -22.7112  -31.3090   21.4097 H   0  0  0  0  0  0
  -23.3753  -35.9632   23.3284 H   0  0  0  0  0  0
  -24.3581  -36.8947   22.2053 H   0  0  0  0  0  0
  -23.7232  -37.6492   23.6672 H   0  0  0  0  0  0
  -26.0891  -31.5568   20.6090 H   0  0  0  0  0  0
  -26.8422  -30.8407   22.0052 H   0  0  0  0  0  0
  -28.1127  -28.9769   21.1886 H   0  0  0  0  0  0
  -25.9344  -25.9636   18.9600 H   0  0  0  0  0  0
  -23.9572  -27.3309   19.0039 H   0  0  0  0  0  0
  -23.7509  -30.6090   19.4104 H   0  0  0  0  0  0
  -22.7499  -29.2613   19.8596 H   0  0  0  0  0  0
  -25.1289  -36.1943   25.0813 H   0  0  0  0  0  0
  -20.9962  -28.3286   24.1405 H   0  0  0  0  0  0
  -20.5692  -26.2318   23.3606 H   0  0  0  0  0  0
  -21.6647  -26.7480   22.1194 H   0  0  0  0  0  0
  -19.6927  -25.6308   21.1246 H   0  0  0  0  0  0
  -19.6689  -27.3200   20.6728 H   0  0  0  0  0  0
  -17.4200  -26.6673   21.4027 H   0  0  0  0  0  0
  -18.0337  -26.0080   22.9020 H   0  0  0  0  0  0
  -19.7934  -30.7258   24.2307 H   0  0  0  0  0  0
  -17.5020  -31.6281   24.5164 H   0  0  0  0  0  0
  -15.5353  -30.3012   23.7650 H   0  0  0  0  0  0
  -15.8663  -28.0828   22.7092 H   0  0  0  0  0  0
  -24.5913  -30.7047   25.7789 H   0  0  0  0  0  0
  -24.8889  -32.2872   26.4885 H   0  0  0  0  0  0
  -25.8051  -30.8905   27.0244 H   0  0  0  0  0  0
  -26.2888  -29.6781   24.1202 H   0  0  0  0  0  0
  -27.3996  -29.7254   25.4687 H   0  0  0  0  0  0
  -27.8768  -30.4294   23.9417 H   0  0  0  0  0  0
  -27.2680  -33.3624   26.2078 H   0  0  0  0  0  0
  -28.3869  -32.6866   25.0336 H   0  0  0  0  0  0
  -28.0714  -31.8444   26.5431 H   0  0  0  0  0  0
  -28.2579  -38.0121   24.7535 H   0  0  0  0  0  0
  -28.1099  -36.2651   24.6248 H   0  0  0  0  0  0
  -27.2300  -37.1406   25.8859 H   0  0  0  0  0  0
  -20.9361  -29.8785   21.6892 H   0  0  0  0  0  0
  -26.0171  -38.2856   24.1437 H   0  0  0  0  0  0
  -31.8532  -19.3136   20.8047 H   0  0  0  0  0  0
  -32.2493  -23.0370   22.7786 H   0  0  0  0  0  0
  -31.6430  -21.4238   23.1395 H   0  0  0  0  0  0
  -30.5159  -22.7351   22.8098 H   0  0  0  0  0  0
  -26.4445  -17.3021   17.8642 H   0  0  0  0  0  0
  -28.1566  -17.6290   17.6037 H   0  0  0  0  0  0
  -27.0067  -18.9641   17.7151 H   0  0  0  0  0  0
  -29.6106  -15.4345   25.4650 H   0  0  0  0  0  0
  -28.1199  -15.4790   24.5269 H   0  0  0  0  0  0
  -29.0881  -16.9424   24.7223 H   0  0  0  0  0  0
  -31.4934  -22.8529   20.4169 H   0  0  0  0  0  0
  -32.5074  -21.5292   20.8096 H   0  0  0  0  0  0
  -31.5190  -17.1421   20.0888 H   0  0  0  0  0  0
  -30.2325  -16.8612   18.9769 H   0  0  0  0  0  0
  -26.5490  -18.3545   20.1188 H   0  0  0  0  0  0
  -27.6814  -17.0472   20.0072 H   0  0  0  0  0  0
  -30.0243  -14.4238   23.2618 H   0  0  0  0  0  0
  -30.9422  -15.8998   23.4065 H   0  0  0  0  0  0
  -29.1519  -17.1500   22.2069 H   0  0  0  0  0  0
  -28.2426  -15.7235   21.9310 H   0  0  0  0  0  0
  -27.1806  -24.7586   20.4761 H   0  0  0  0  0  0
  -27.8097  -24.9032   18.8508 H   0  0  0  0  0  0
  -29.5975  -24.1025   21.1851 H   0  0  0  0  0  0
  -29.9008  -23.9154   19.4542 H   0  0  0  0  0  0
  1 25  1  0  0  0
  1 30  2  0  0  0
  1 87  1  0  0  0
  2  3  1  0  0  0
  2 25  1  0  0  0
  2 89  1  0  0  0
  2 90  1  0  0  0
  3  4  1  0  0  0
  3 91  1  0  0  0
  3 92  1  0  0  0
  4  5  1  0  0  0
  4 93  1  0  0  0
  4 94  1  0  0  0
  5  6  1  0  0  0
  5 26  1  0  0  0
  5 95  1  0  0  0
  6 25  1  0  0  0
  6 96  1  0  0  0
  6 97  1  0  0  0
  7  8  2  0  0  0
  7 26  1  0  0  0
  7 29  1  0  0  0
  8  9  1  0  0  0
  8 22  1  0  0  0
  9 10  1  0  0  0
  9 27  2  0  0  0
 10 11  2  0  0  0
 10 15  1  0  0  0
 11 12  1  0  0  0
 11 98  1  0  0  0
 12 13  2  0  0  0
 12 99  1  0  0  0
 13 14  1  0  0  0
 13 31  1  0  0  0
 14 15  2  0  0  0
 14100  1  0  0  0
 15101  1  0  0  0
 16 17  2  0  0  0
 16 21  1  0  0  0
 16 31  1  0  0  0
 17 18  1  0  0  0
 17102  1  0  0  0
 18 19  2  0  0  0
 18103  1  0  0  0
 19 20  1  0  0  0
 19 24  1  0  0  0
 20 21  2  0  0  0
 20104  1  0  0  0
 21 23  1  0  0  0
 22 28  1  0  0  0
 22 32  2  0  0  0
 26 27  1  0  0  0
 28105  1  0  0  0
 28106  1  0  0  0
 29107  1  0  0  0
 29108  1  0  0  0
 33 34  1  0  0  0
 33 66  1  0  0  0
 33 70  2  0  0  0
 34 36  1  0  0  0
 34 59  1  0  0  0
 34109  1  0  0  0
 35 44  2  0  0  0
 35 45  1  0  0  0
 35 68  1  0  0  0
 36 56  1  0  0  0
 36110  1  0  0  0
 37 39  1  0  0  0
 37 47  1  0  0  0
 37 66  1  0  0  0
 37111  1  0  0  0
 38 43  2  0  0  0
 38 46  1  0  0  0
 38 47  1  0  0  0
 39 64  1  0  0  0
 39 67  2  0  0  0
 40 52  1  0  0  0
 40 53  2  0  0  0
 40 58  1  0  0  0
 41112  1  0  0  0
 41113  1  0  0  0
 41114  1  0  0  0
 41 48  1  0  0  0
 42 43  1  0  0  0
 42 66  1  0  0  0
 42115  1  0  0  0
 42116  1  0  0  0
 43 44  1  0  0  0
 44117  1  0  0  0
 45 46  2  0  0  0
 45118  1  0  0  0
 46119  1  0  0  0
 47120  1  0  0  0
 47121  1  0  0  0
 48 56  1  0  0  0
 48 65  1  0  0  0
 48122  1  0  0  0
 49 50  1  0  0  0
 49 53  1  0  0  0
 49 64  1  0  0  0
 49123  1  0  0  0
 50 51  1  0  0  0
 50124  1  0  0  0
 50125  1  0  0  0
 51 52  1  0  0  0
 51126  1  0  0  0
 51127  1  0  0  0
 52128  1  0  0  0
 52129  1  0  0  0
 53 54  1  0  0  0
 54 55  2  0  0  0
 54130  1  0  0  0
 55 57  1  0  0  0
 55131  1  0  0  0
 56 69  2  0  0  0
 57 58  2  0  0  0
 57132  1  0  0  0
 58133  1  0  0  0
 59 60  1  0  0  0
 59 61  1  0  0  0
 59 62  1  0  0  0
 60134  1  0  0  0
 60135  1  0  0  0
 60136  1  0  0  0
 61137  1  0  0  0
 61138  1  0  0  0
 61139  1  0  0  0
 62140  1  0  0  0
 62141  1  0  0  0
 62142  1  0  0  0
 63 65  1  0  0  0
 63143  1  0  0  0
 63144  1  0  0  0
 63145  1  0  0  0
 64146  1  0  0  0
 65147  1  0  0  0
 68 84  1  0  0  0
 71 72  2  0  0  0
 71 73  1  0  0  0
 71148  1  0  0  0
 72 74  1  0  0  0
 72 80  1  0  0  0
 73 75  2  0  0  0
 73 79  1  0  0  0
 74 81  1  0  0  0
 74 86  2  0  0  0
 75 86  1  0  0  0
 75 88  1  0  0  0
 76 79  1  0  0  0
 76149  1  0  0  0
 76150  1  0  0  0
 76151  1  0  0  0
 77 81  1  0  0  0
 77152  1  0  0  0
 77153  1  0  0  0
 77154  1  0  0  0
 78 82  1  0  0  0
 78155  1  0  0  0
 78156  1  0  0  0
 78157  1  0  0  0
 79158  1  0  0  0
 79159  1  0  0  0
 80 87  1  0  0  0
 80160  1  0  0  0
 80161  1  0  0  0
 81162  1  0  0  0
 81163  1  0  0  0
 82 83  1  0  0  0
 82164  1  0  0  0
 82165  1  0  0  0
 83 87  1  0  0  0
 83166  1  0  0  0
 83167  1  0  0  0
 84 85  1  0  0  0
 84168  1  0  0  0
 84169  1  0  0  0
 85 88  1  0  0  0
 85170  1  0  0  0
 85171  1  0  0  0
M  ISO  4   1 100  68 101  84 101  87 100
M  END
> <chiral flag>
0

> <version>
0

> <s_m_source_file>
/data/baiqing/PycharmProjects/Reinvent-master-3.2/result/LINK_invent/BTK/process_docking_weight1_custom_sum_contain_oxygen_bond_distance_aromatic_linkinvent_7_9_3/rearranged_h_0049.sdf

> <i_m_source_file_index>
44

> <r_mmod_Potential_Energy-OPLS-2005>
93.1235733032227

> <r_mmod_Stretch_Energy-OPLS-2005>
87.2437896728516

> <r_mmod_Bend_Energy-OPLS-2005>
196.939697265625

> <r_mmod_Torsional_Energy-OPLS-2005>
255.505798339844

> <r_mmod_Improper_Torsional_Energy-OPLS-2005>
10.7038955688477

> <r_mmod_Van_der_Waal_Energy-OPLS-2005>
153.844390869141

> <r_mmod_Electrostatic_Energy-OPLS-2005>
-458.115295410156

> <r_mmod_Solvation_Energy-OPLS-2005>
-198.760330200195

> <b_mmod_Minimization_Converged-OPLS-2005>
0

> <r_mmod_RMS_Derivative-OPLS-2005>
1.64050614833832

$$$$
46
                    3D
 Structure written by MMmdl.
163171  0  0  1  0            999 V2000
  -30.7451  -14.4629   20.5888 C   0  0  0  0  0  0
  -30.4138  -12.3172   19.4157 C   0  0  0  0  0  0
  -29.4800  -12.4997   18.2015 C   0  0  0  0  0  0
  -28.0047  -12.3572   18.6200 C   0  0  0  0  0  0
  -27.6550  -13.2057   19.8720 C   0  0  2  0  0  0
  -28.7014  -12.9686   20.9836 C   0  0  0  0  0  0
  -25.2578  -13.8159   20.5678 C   0  0  0  0  0  0
  -24.1827  -13.0458   20.9168 C   0  0  0  0  0  0
  -24.6381  -11.6927   20.8735 C   0  0  0  0  0  0
  -23.9037  -10.4325   21.0382 C   0  0  0  0  0  0
  -24.3596   -9.4254   21.9166 C   0  0  0  0  0  0
  -23.6292   -8.2279   22.0753 C   0  0  0  0  0  0
  -22.4281   -8.0295   21.3539 C   0  0  0  0  0  0
  -21.9896   -9.0259   20.4641 C   0  0  0  0  0  0
  -22.7207  -10.2152   20.3035 C   0  0  0  0  0  0
  -21.6857   -6.0741   22.5274 C   0  0  0  0  0  0
  -21.4032   -6.5635   23.8207 C   0  0  0  0  0  0
  -21.3658   -5.6776   24.9157 C   0  0  0  0  0  0
  -21.6044   -4.3039   24.7215 C   0  0  0  0  0  0
  -21.8827   -3.8137   23.4333 C   0  0  0  0  0  0
  -21.9211   -4.6967   22.3395 C   0  0  0  0  0  0
  -22.7856  -13.5272   21.1816 C   0  0  0  0  0  0
  -22.1673   -4.2150   21.0972 F   0  0  0  0  0  0
  -21.5607   -3.4531   25.7729 F   0  0  0  0  0  0
  -30.0225  -13.3112   20.4345 N   0  0  0  0  0  0
  -26.2994  -12.9327   20.3357 N   0  0  0  0  0  0
  -25.9305  -11.6493   20.5784 N   0  0  0  0  0  0
  -22.0514  -12.8264   22.0386 N   0  0  0  0  0  0
  -25.4296  -15.1866   20.4092 N   0  0  0  0  0  0
  -31.8999  -14.5350   20.1594 O   0  0  0  0  0  0
  -21.6643   -6.8899   21.4246 O   0  0  0  0  0  0
  -22.3558  -14.5596   20.6684 O   0  0  0  0  0  0
  -24.6137  -31.8682   23.2092 C   0  0  0  0  0  0
  -25.9027  -32.4824   23.8370 C   0  0  1  0  0  0
  -27.2308  -27.4577   20.0908 C   0  0  0  0  0  0
  -25.5896  -33.8627   24.2308 N   0  0  0  0  0  0
  -23.3986  -30.4919   21.5515 C   0  0  2  0  0  0
  -24.8428  -28.9605   20.1114 C   0  0  0  0  0  0
  -22.7397  -29.4662   22.5009 C   0  0  0  0  0  0
  -18.0284  -28.1370   22.8502 C   0  0  0  0  0  0
  -24.1487  -36.7331   23.2642 C   0  0  0  0  0  0
  -25.9247  -30.8455   21.3553 C   0  0  0  0  0  0
  -26.0025  -29.4815   20.6992 C   0  0  0  0  0  0
  -27.2011  -28.7384   20.6803 C   0  0  0  0  0  0
  -26.0582  -26.9452   19.4963 C   0  0  0  0  0  0
  -24.8646  -27.6916   19.5057 C   0  0  0  0  0  0
  -23.6022  -29.8224   20.1651 C   0  0  0  0  0  0
  -25.4102  -36.3116   24.0335 C   0  0  1  0  0  0
  -20.5849  -28.3646   23.1326 C   0  0  2  0  0  0
  -20.6772  -26.9395   22.5411 C   0  0  0  0  0  0
  -19.5732  -26.6373   21.5222 C   0  0  0  0  0  0
  -18.1917  -26.7917   22.1634 C   0  0  0  0  0  0
  -19.1519  -28.8815   23.2923 C   0  0  0  0  0  0
  -18.9443  -30.1430   23.8919 C   0  0  0  0  0  0
  -17.6454  -30.6577   24.0550 C   0  0  0  0  0  0
  -25.9028  -34.9486   23.5109 C   0  0  0  0  0  0
  -16.5339  -29.9067   23.6317 C   0  0  0  0  0  0
  -16.7262  -28.6481   23.0359 C   0  0  0  0  0  0
  -26.4465  -31.6610   25.0713 C   0  0  0  0  0  0
  -25.3729  -31.3720   26.1469 C   0  0  0  0  0  0
  -27.0294  -30.3050   24.6090 C   0  0  0  0  0  0
  -27.6023  -32.4337   25.7495 C   0  0  0  0  0  0
  -27.5572  -37.1825   24.8463 C   0  0  0  0  0  0
  -21.4122  -29.3036   22.3763 N   0  0  0  0  0  0
  -26.4291  -37.3788   23.9399 N   0  0  0  0  0  0
  -24.6634  -31.0803   22.0975 N   0  0  0  0  0  0
  -23.4187  -28.8224   23.3036 O   0  0  0  0  0  0
  -28.4079  -26.7317   20.1148 O   0  0  0  0  0  0
  -26.5584  -34.8933   22.4674 O   0  0  0  0  0  0
  -23.5328  -32.1429   23.7508 O   0  0  0  0  0  0
  -28.5637  -20.8113   21.7344 C   0  0  0  0  0  0
  -27.4614  -18.3886   21.2611 C   0  0  0  0  0  0
  -27.3527  -20.6810   21.0043 C   0  0  0  0  0  0
  -28.6579  -18.5109   22.0107 C   0  0  0  0  0  0
  -31.5820  -17.6010   20.2292 C   0  0  0  0  0  0
  -26.5328  -21.8596   20.4820 C   0  0  0  0  0  0
  -29.3482  -17.3077   22.6602 C   0  0  0  0  0  0
  -26.9148  -23.2715   20.9784 C   0  0  0  0  0  0
  -27.9054  -24.0252   20.0566 C   0  0  0  0  0  0
  -30.3388  -16.7550   19.8680 C   0  0  0  0  0  0
  -29.2089  -15.9155   21.9689 C   0  0  0  0  0  0
  -28.4496  -25.3730   20.6292 C   0  0  0  0  0  0
  -26.8137  -19.4646   20.7566 N   0  0  0  0  0  0
  -29.2126  -19.7303   22.2413 N   0  0  0  0  0  0
  -30.0598  -15.6314   20.7883 N   0  0  0  0  0  0
  -31.4542  -12.4107   19.0955 H   0  0  0  0  0  0
  -30.3202  -11.3082   19.8203 H   0  0  0  0  0  0
  -29.7195  -11.7649   17.4309 H   0  0  0  0  0  0
  -29.6345  -13.4813   17.7524 H   0  0  0  0  0  0
  -27.8211  -11.3017   18.8276 H   0  0  0  0  0  0
  -27.3474  -12.6151   17.7874 H   0  0  0  0  0  0
  -27.6971  -14.2549   19.5766 H   0  0  0  0  0  0
  -28.6940  -11.9177   21.2718 H   0  0  0  0  0  0
  -28.4486  -13.4907   21.8998 H   0  0  0  0  0  0
  -25.2759   -9.5726   22.4717 H   0  0  0  0  0  0
  -24.0018   -7.4681   22.7466 H   0  0  0  0  0  0
  -21.0830   -8.8737   19.8957 H   0  0  0  0  0  0
  -22.3643  -10.9660   19.6110 H   0  0  0  0  0  0
  -21.2033   -7.6148   23.9691 H   0  0  0  0  0  0
  -21.1457   -6.0517   25.9042 H   0  0  0  0  0  0
  -22.0613   -2.7605   23.2823 H   0  0  0  0  0  0
  -22.4157  -11.9957   22.4816 H   0  0  0  0  0  0
  -21.1104  -13.1224   22.2532 H   0  0  0  0  0  0
  -24.6534  -15.8331   20.4937 H   0  0  0  0  0  0
  -26.2685  -15.6136   20.0421 H   0  0  0  0  0  0
  -26.7121  -32.5541   23.1157 H   0  0  0  0  0  0
  -25.0077  -33.9762   25.0472 H   0  0  0  0  0  0
  -22.6850  -31.3086   21.4130 H   0  0  0  0  0  0
  -23.3731  -35.9683   23.3319 H   0  0  0  0  0  0
  -24.3584  -36.8928   22.2053 H   0  0  0  0  0  0
  -23.7256  -37.6548   23.6646 H   0  0  0  0  0  0
  -26.0302  -31.6161   20.5899 H   0  0  0  0  0  0
  -26.8159  -30.8968   21.9717 H   0  0  0  0  0  0
  -28.1004  -29.1365   21.1277 H   0  0  0  0  0  0
  -26.0593  -25.9763   19.0218 H   0  0  0  0  0  0
  -23.9727  -27.2852   19.0501 H   0  0  0  0  0  0
  -23.7079  -30.5981   19.4055 H   0  0  0  0  0  0
  -22.7259  -29.2398   19.8716 H   0  0  0  0  0  0
  -25.1290  -36.1978   25.0827 H   0  0  0  0  0  0
  -20.9946  -28.3188   24.1456 H   0  0  0  0  0  0
  -20.5699  -26.2257   23.3586 H   0  0  0  0  0  0
  -21.6649  -26.7474   22.1205 H   0  0  0  0  0  0
  -19.6897  -25.6297   21.1231 H   0  0  0  0  0  0
  -19.6666  -27.3197   20.6749 H   0  0  0  0  0  0
  -17.4187  -26.6689   21.4012 H   0  0  0  0  0  0
  -18.0305  -26.0037   22.9003 H   0  0  0  0  0  0
  -19.7917  -30.7232   24.2302 H   0  0  0  0  0  0
  -17.4999  -31.6263   24.5144 H   0  0  0  0  0  0
  -15.5338  -30.2973   23.7638 H   0  0  0  0  0  0
  -15.8657  -28.0810   22.7049 H   0  0  0  0  0  0
  -24.5886  -30.7091   25.7806 H   0  0  0  0  0  0
  -24.8966  -32.2890   26.4942 H   0  0  0  0  0  0
  -25.8097  -30.8869   27.0208 H   0  0  0  0  0  0
  -26.2830  -29.6807   24.1173 H   0  0  0  0  0  0
  -27.4078  -29.7304   25.4552 H   0  0  0  0  0  0
  -27.8657  -30.4366   23.9224 H   0  0  0  0  0  0
  -27.2607  -33.3606   26.2121 H   0  0  0  0  0  0
  -28.3828  -32.6946   25.0333 H   0  0  0  0  0  0
  -28.0707  -31.8442   26.5388 H   0  0  0  0  0  0
  -28.2617  -38.0100   24.7483 H   0  0  0  0  0  0
  -28.1050  -36.2628   24.6333 H   0  0  0  0  0  0
  -27.2297  -37.1534   25.8872 H   0  0  0  0  0  0
  -20.9262  -29.8784   21.7022 H   0  0  0  0  0  0
  -26.0190  -38.2880   24.1359 H   0  0  0  0  0  0
  -29.0055  -21.7759   21.9332 H   0  0  0  0  0  0
  -27.0012  -17.4341   21.0704 H   0  0  0  0  0  0
  -31.8583  -18.2419   19.3887 H   0  0  0  0  0  0
  -32.4532  -16.9889   20.4589 H   0  0  0  0  0  0
  -31.4136  -18.2570   21.0788 H   0  0  0  0  0  0
  -25.5041  -21.6737   20.7950 H   0  0  0  0  0  0
  -26.5106  -21.8270   19.3907 H   0  0  0  0  0  0
  -28.9000  -17.2333   23.6535 H   0  0  0  0  0  0
  -30.3975  -17.5261   22.8538 H   0  0  0  0  0  0
  -27.2492  -23.2504   22.0154 H   0  0  0  0  0  0
  -25.9942  -23.8570   20.9960 H   0  0  0  0  0  0
  -27.4047  -24.1675   19.0961 H   0  0  0  0  0  0
  -28.7552  -23.3682   19.8502 H   0  0  0  0  0  0
  -30.4975  -16.3504   18.8648 H   0  0  0  0  0  0
  -29.4660  -17.3936   19.7559 H   0  0  0  0  0  0
  -28.1664  -15.7108   21.7326 H   0  0  0  0  0  0
  -29.4841  -15.2009   22.7465 H   0  0  0  0  0  0
  -27.5065  -25.5390   21.1471 H   0  0  0  0  0  0
  -28.8258  -25.4319   19.6082 H   0  0  0  0  0  0
  1 25  1  0  0  0
  1 30  2  0  0  0
  1 85  1  0  0  0
  2  3  1  0  0  0
  2 25  1  0  0  0
  2 86  1  0  0  0
  2 87  1  0  0  0
  3  4  1  0  0  0
  3 88  1  0  0  0
  3 89  1  0  0  0
  4  5  1  0  0  0
  4 90  1  0  0  0
  4 91  1  0  0  0
  5  6  1  0  0  0
  5 26  1  0  0  0
  5 92  1  0  0  0
  6 25  1  0  0  0
  6 93  1  0  0  0
  6 94  1  0  0  0
  7  8  2  0  0  0
  7 26  1  0  0  0
  7 29  1  0  0  0
  8  9  1  0  0  0
  8 22  1  0  0  0
  9 10  1  0  0  0
  9 27  2  0  0  0
 10 11  2  0  0  0
 10 15  1  0  0  0
 11 12  1  0  0  0
 11 95  1  0  0  0
 12 13  2  0  0  0
 12 96  1  0  0  0
 13 14  1  0  0  0
 13 31  1  0  0  0
 14 15  2  0  0  0
 14 97  1  0  0  0
 15 98  1  0  0  0
 16 17  2  0  0  0
 16 21  1  0  0  0
 16 31  1  0  0  0
 17 18  1  0  0  0
 17 99  1  0  0  0
 18 19  2  0  0  0
 18100  1  0  0  0
 19 20  1  0  0  0
 19 24  1  0  0  0
 20 21  2  0  0  0
 20101  1  0  0  0
 21 23  1  0  0  0
 22 28  1  0  0  0
 22 32  2  0  0  0
 26 27  1  0  0  0
 28102  1  0  0  0
 28103  1  0  0  0
 29104  1  0  0  0
 29105  1  0  0  0
 33 34  1  0  0  0
 33 66  1  0  0  0
 33 70  2  0  0  0
 34 36  1  0  0  0
 34 59  1  0  0  0
 34106  1  0  0  0
 35 44  2  0  0  0
 35 45  1  0  0  0
 35 68  1  0  0  0
 36 56  1  0  0  0
 36107  1  0  0  0
 37 39  1  0  0  0
 37 47  1  0  0  0
 37 66  1  0  0  0
 37108  1  0  0  0
 38 43  2  0  0  0
 38 46  1  0  0  0
 38 47  1  0  0  0
 39 64  1  0  0  0
 39 67  2  0  0  0
 40 52  1  0  0  0
 40 53  2  0  0  0
 40 58  1  0  0  0
 41109  1  0  0  0
 41110  1  0  0  0
 41111  1  0  0  0
 41 48  1  0  0  0
 42 43  1  0  0  0
 42 66  1  0  0  0
 42112  1  0  0  0
 42113  1  0  0  0
 43 44  1  0  0  0
 44114  1  0  0  0
 45 46  2  0  0  0
 45115  1  0  0  0
 46116  1  0  0  0
 47117  1  0  0  0
 47118  1  0  0  0
 48 56  1  0  0  0
 48 65  1  0  0  0
 48119  1  0  0  0
 49 50  1  0  0  0
 49 53  1  0  0  0
 49 64  1  0  0  0
 49120  1  0  0  0
 50 51  1  0  0  0
 50121  1  0  0  0
 50122  1  0  0  0
 51 52  1  0  0  0
 51123  1  0  0  0
 51124  1  0  0  0
 52125  1  0  0  0
 52126  1  0  0  0
 53 54  1  0  0  0
 54 55  2  0  0  0
 54127  1  0  0  0
 55 57  1  0  0  0
 55128  1  0  0  0
 56 69  2  0  0  0
 57 58  2  0  0  0
 57129  1  0  0  0
 58130  1  0  0  0
 59 60  1  0  0  0
 59 61  1  0  0  0
 59 62  1  0  0  0
 60131  1  0  0  0
 60132  1  0  0  0
 60133  1  0  0  0
 61134  1  0  0  0
 61135  1  0  0  0
 61136  1  0  0  0
 62137  1  0  0  0
 62138  1  0  0  0
 62139  1  0  0  0
 63 65  1  0  0  0
 63140  1  0  0  0
 63141  1  0  0  0
 63142  1  0  0  0
 64143  1  0  0  0
 65144  1  0  0  0
 68 82  1  0  0  0
 71 73  2  0  0  0
 71 84  1  0  0  0
 71145  1  0  0  0
 72 74  1  0  0  0
 72 83  2  0  0  0
 72146  1  0  0  0
 73 76  1  0  0  0
 73 83  1  0  0  0
 74 77  1  0  0  0
 74 84  2  0  0  0
 75 80  1  0  0  0
 75147  1  0  0  0
 75148  1  0  0  0
 75149  1  0  0  0
 76 78  1  0  0  0
 76150  1  0  0  0
 76151  1  0  0  0
 77 81  1  0  0  0
 77152  1  0  0  0
 77153  1  0  0  0
 78 79  1  0  0  0
 78154  1  0  0  0
 78155  1  0  0  0
 79 82  1  0  0  0
 79156  1  0  0  0
 79157  1  0  0  0
 80 85  1  0  0  0
 80158  1  0  0  0
 80159  1  0  0  0
 81 85  1  0  0  0
 81160  1  0  0  0
 81161  1  0  0  0
 82162  1  0  0  0
 82163  1  0  0  0
M  ISO  4   1 100  68 101  82 101  85 100
M  END
> <chiral flag>
0

> <version>
0

> <s_m_source_file>
/data/baiqing/PycharmProjects/Reinvent-master-3.2/result/LINK_invent/BTK/process_docking_weight1_custom_sum_contain_oxygen_bond_distance_aromatic_linkinvent_7_9_3/rearranged_h_0049.sdf

> <i_m_source_file_index>
45

> <r_mmod_Potential_Energy-OPLS-2005>
527.924987792969

> <r_mmod_Stretch_Energy-OPLS-2005>
46.1819763183594

> <r_mmod_Bend_Energy-OPLS-2005>
355.691345214844

> <r_mmod_Torsional_Energy-OPLS-2005>
316.428375244141

> <r_mmod_Improper_Torsional_Energy-OPLS-2005>
14.0651350021362

> <r_mmod_Van_der_Waal_Energy-OPLS-2005>
180.735107421875

> <r_mmod_Electrostatic_Energy-OPLS-2005>
-198.414123535156

> <r_mmod_Solvation_Energy-OPLS-2005>
-202.276885986328

> <b_mmod_Minimization_Converged-OPLS-2005>
0

> <r_mmod_RMS_Derivative-OPLS-2005>
4.29620504379272

$$$$
47
                    3D
 Structure written by MMmdl.
170178  0  0  1  0            999 V2000
  -30.6345  -14.6223   20.4886 C   0  0  0  0  0  0
  -30.4270  -12.3796   19.4512 C   0  0  0  0  0  0
  -29.5009  -12.5104   18.2204 C   0  0  0  0  0  0
  -28.0230  -12.3627   18.6294 C   0  0  0  0  0  0
  -27.6532  -13.2197   19.8683 C   0  0  2  0  0  0
  -28.6985  -13.0744   20.9984 C   0  0  0  0  0  0
  -25.2556  -13.8183   20.5697 C   0  0  0  0  0  0
  -24.1815  -13.0447   20.9180 C   0  0  0  0  0  0
  -24.6379  -11.6919   20.8695 C   0  0  0  0  0  0
  -23.9066  -10.4294   21.0376 C   0  0  0  0  0  0
  -24.3619   -9.4218   21.9148 C   0  0  0  0  0  0
  -23.6314   -8.2241   22.0716 C   0  0  0  0  0  0
  -22.4286   -8.0274   21.3529 C   0  0  0  0  0  0
  -21.9927   -9.0238   20.4630 C   0  0  0  0  0  0
  -22.7239  -10.2135   20.3033 C   0  0  0  0  0  0
  -21.6875   -6.0739   22.5253 C   0  0  0  0  0  0
  -21.4019   -6.5637   23.8186 C   0  0  0  0  0  0
  -21.3663   -5.6790   24.9149 C   0  0  0  0  0  0
  -21.6052   -4.3050   24.7196 C   0  0  0  0  0  0
  -21.8819   -3.8151   23.4309 C   0  0  0  0  0  0
  -21.9199   -4.6963   22.3370 C   0  0  0  0  0  0
  -22.7838  -13.5220   21.1870 C   0  0  0  0  0  0
  -22.1666   -4.2155   21.0953 F   0  0  0  0  0  0
  -21.5662   -3.4534   25.7714 F   0  0  0  0  0  0
  -30.0166  -13.4009   20.4327 N   0  0  0  0  0  0
  -26.2989  -12.9373   20.3350 N   0  0  0  0  0  0
  -25.9316  -11.6521   20.5743 N   0  0  0  0  0  0
  -22.0505  -12.8170   22.0422 N   0  0  0  0  0  0
  -25.4308  -15.1903   20.4128 N   0  0  0  0  0  0
  -31.7897  -14.7819   20.0860 O   0  0  0  0  0  0
  -21.6649   -6.8879   21.4223 O   0  0  0  0  0  0
  -22.3514  -14.5540   20.6758 O   0  0  0  0  0  0
  -24.6264  -31.8599   23.2039 C   0  0  0  0  0  0
  -25.9122  -32.4764   23.8360 C   0  0  1  0  0  0
  -27.2344  -27.3379   20.1333 C   0  0  0  0  0  0
  -25.5931  -33.8555   24.2315 N   0  0  0  0  0  0
  -23.4219  -30.4916   21.5341 C   0  0  2  0  0  0
  -24.8731  -28.9452   20.1092 C   0  0  0  0  0  0
  -22.7477  -29.4669   22.4798 C   0  0  0  0  0  0
  -18.0319  -28.1419   22.8482 C   0  0  0  0  0  0
  -24.1485  -36.7302   23.2629 C   0  0  0  0  0  0
  -25.9614  -30.8070   21.3661 C   0  0  0  0  0  0
  -26.0379  -29.4326   20.7136 C   0  0  0  0  0  0
  -27.2223  -28.6408   20.7127 C   0  0  0  0  0  0
  -26.0496  -26.8986   19.5002 C   0  0  0  0  0  0
  -24.8788  -27.6836   19.4931 C   0  0  0  0  0  0
  -23.6450  -29.8307   20.1476 C   0  0  0  0  0  0
  -25.4089  -36.3060   24.0342 C   0  0  1  0  0  0
  -20.5926  -28.3749   23.1230 C   0  0  2  0  0  0
  -20.6808  -26.9455   22.5386 C   0  0  0  0  0  0
  -19.5776  -26.6412   21.5205 C   0  0  0  0  0  0
  -18.1964  -26.7964   22.1624 C   0  0  0  0  0  0
  -19.1571  -28.8892   23.2886 C   0  0  0  0  0  0
  -18.9474  -30.1477   23.8929 C   0  0  0  0  0  0
  -17.6473  -30.6603   24.0579 C   0  0  0  0  0  0
  -25.9026  -34.9433   23.5127 C   0  0  0  0  0  0
  -16.5374  -29.9116   23.6294 C   0  0  0  0  0  0
  -16.7310  -28.6539   23.0321 C   0  0  0  0  0  0
  -26.4542  -31.6534   25.0693 C   0  0  0  0  0  0
  -25.3796  -31.3655   26.1433 C   0  0  0  0  0  0
  -27.0380  -30.2947   24.6119 C   0  0  0  0  0  0
  -27.6117  -32.4241   25.7477 C   0  0  0  0  0  0
  -27.5584  -37.1778   24.8453 C   0  0  0  0  0  0
  -21.4180  -29.3120   22.3587 N   0  0  0  0  0  0
  -26.4273  -37.3758   23.9431 N   0  0  0  0  0  0
  -24.6885  -31.0680   22.0930 N   0  0  0  0  0  0
  -23.4200  -28.8166   23.2839 O   0  0  0  0  0  0
  -28.3624  -26.5089   20.2077 O   0  0  0  0  0  0
  -26.5587  -34.8909   22.4684 O   0  0  0  0  0  0
  -23.5432  -32.1361   23.7380 O   0  0  0  0  0  0
  -30.2852  -21.9063   19.9928 C   0  0  0  0  0  0
  -30.4810  -20.5018   20.1184 C   0  0  0  0  0  0
  -29.3444  -22.5947   20.8057 C   0  0  0  0  0  0
  -29.7239  -19.7587   21.0480 C   0  0  0  0  0  0
  -28.6018  -21.7599   21.6873 C   0  0  0  0  0  0
  -29.9516  -19.3861   25.0737 C   0  0  0  0  0  0
  -27.5837  -19.9469   25.4344 C   0  0  0  0  0  0
  -29.3299  -24.1776   20.8377 C   0  0  0  0  0  0
  -30.0054  -18.2513   21.4137 C   0  0  0  0  0  0
  -27.5796  -22.3148   22.6696 C   0  0  0  0  0  0
  -28.1282  -22.6360   24.0792 C   0  0  0  0  0  0
  -29.9499  -17.1221   20.3081 C   0  0  0  0  0  0
  -29.1987  -21.6792   24.6591 C   0  0  0  0  0  0
  -28.1789  -25.0416   20.1647 C   0  0  0  0  0  0
  -28.7911  -20.4069   21.7968 N   0  0  0  0  0  0
  -29.8345  -15.6904   20.7800 N   0  0  0  0  0  0
  -28.8158  -20.2441   24.6662 N   0  3  0  0  0  0
  -31.4696  -12.4853   19.1482 H   0  0  0  0  0  0
  -30.3411  -11.3809   19.8839 H   0  0  0  0  0  0
  -29.7599  -11.7596   17.4745 H   0  0  0  0  0  0
  -29.6506  -13.4819   17.7459 H   0  0  0  0  0  0
  -27.8352  -11.3099   18.8409 H   0  0  0  0  0  0
  -27.3706  -12.6214   17.7938 H   0  0  0  0  0  0
  -27.6729  -14.2558   19.5344 H   0  0  0  0  0  0
  -28.6940  -12.0611   21.4004 H   0  0  0  0  0  0
  -28.4493  -13.7280   21.8371 H   0  0  0  0  0  0
  -25.2758   -9.5719   22.4730 H   0  0  0  0  0  0
  -24.0044   -7.4643   22.7420 H   0  0  0  0  0  0
  -21.0874   -8.8738   19.8930 H   0  0  0  0  0  0
  -22.3657  -10.9676   19.6158 H   0  0  0  0  0  0
  -21.1976   -7.6147   23.9686 H   0  0  0  0  0  0
  -21.1522   -6.0517   25.9068 H   0  0  0  0  0  0
  -22.0603   -2.7604   23.2782 H   0  0  0  0  0  0
  -22.4166  -11.9835   22.4784 H   0  0  0  0  0  0
  -21.1128  -13.1159   22.2680 H   0  0  0  0  0  0
  -24.6643  -15.8485   20.5193 H   0  0  0  0  0  0
  -26.2786  -15.6249   20.0751 H   0  0  0  0  0  0
  -26.7194  -32.5477   23.1114 H   0  0  0  0  0  0
  -25.0068  -33.9702   25.0456 H   0  0  0  0  0  0
  -22.7143  -31.3112   21.3851 H   0  0  0  0  0  0
  -23.3744  -35.9636   23.3239 H   0  0  0  0  0  0
  -24.3590  -36.8968   22.2054 H   0  0  0  0  0  0
  -23.7251  -37.6495   23.6677 H   0  0  0  0  0  0
  -26.0832  -31.5707   20.5959 H   0  0  0  0  0  0
  -26.8481  -30.8637   21.9868 H   0  0  0  0  0  0
  -28.1178  -29.0127   21.1916 H   0  0  0  0  0  0
  -26.0129  -25.9348   19.0156 H   0  0  0  0  0  0
  -23.9867  -27.3070   19.0116 H   0  0  0  0  0  0
  -23.7882  -30.6121   19.4002 H   0  0  0  0  0  0
  -22.7657  -29.2721   19.8244 H   0  0  0  0  0  0
  -25.1259  -36.1898   25.0835 H   0  0  0  0  0  0
  -21.0113  -28.3390   24.1311 H   0  0  0  0  0  0
  -20.5708  -26.2379   23.3612 H   0  0  0  0  0  0
  -21.6669  -26.7458   22.1172 H   0  0  0  0  0  0
  -19.6931  -25.6315   21.1259 H   0  0  0  0  0  0
  -19.6718  -27.3201   20.6714 H   0  0  0  0  0  0
  -17.4221  -26.6719   21.4042 H   0  0  0  0  0  0
  -18.0368  -26.0124   22.9033 H   0  0  0  0  0  0
  -19.7942  -30.7293   24.2331 H   0  0  0  0  0  0
  -17.5013  -31.6275   24.5191 H   0  0  0  0  0  0
  -15.5373  -30.3030   23.7568 H   0  0  0  0  0  0
  -15.8722  -28.0868   22.6983 H   0  0  0  0  0  0
  -24.5975  -30.6999   25.7772 H   0  0  0  0  0  0
  -24.8989  -32.2815   26.4865 H   0  0  0  0  0  0
  -25.8144  -30.8823   27.0190 H   0  0  0  0  0  0
  -26.2938  -29.6655   24.1219 H   0  0  0  0  0  0
  -27.4175  -29.7224   25.4599 H   0  0  0  0  0  0
  -27.8765  -30.4219   23.9265 H   0  0  0  0  0  0
  -27.2751  -33.3537   26.2078 H   0  0  0  0  0  0
  -28.3945  -32.6794   25.0320 H   0  0  0  0  0  0
  -28.0775  -31.8325   26.5373 H   0  0  0  0  0  0
  -28.2539  -38.0130   24.7532 H   0  0  0  0  0  0
  -28.1136  -36.2657   24.6208 H   0  0  0  0  0  0
  -27.2314  -37.1350   25.8856 H   0  0  0  0  0  0
  -20.9307  -29.8867   21.6851 H   0  0  0  0  0  0
  -26.0145  -38.2822   24.1460 H   0  0  0  0  0  0
  -30.9116  -22.4620   19.3118 H   0  0  0  0  0  0
  -31.2496  -20.0121   19.5350 H   0  0  0  0  0  0
  -29.7125  -18.3284   24.9625 H   0  0  0  0  0  0
  -30.2262  -19.5628   26.1140 H   0  0  0  0  0  0
  -30.8280  -19.5885   24.4578 H   0  0  0  0  0  0
  -27.4114  -18.8723   25.5044 H   0  0  0  0  0  0
  -26.7052  -20.3805   24.9569 H   0  0  0  0  0  0
  -27.6490  -20.3417   26.4486 H   0  0  0  0  0  0
  -30.2771  -24.5081   20.4106 H   0  0  0  0  0  0
  -29.4000  -24.4790   21.8834 H   0  0  0  0  0  0
  -29.3057  -17.9808   22.2048 H   0  0  0  0  0  0
  -30.9895  -18.2113   21.8851 H   0  0  0  0  0  0
  -26.7768  -21.5824   22.7639 H   0  0  0  0  0  0
  -27.0984  -23.1974   22.2527 H   0  0  0  0  0  0
  -27.2997  -22.7536   24.7780 H   0  0  0  0  0  0
  -28.5878  -23.6222   24.0363 H   0  0  0  0  0  0
  -30.7977  -17.2310   19.6311 H   0  0  0  0  0  0
  -29.0690  -17.3102   19.6920 H   0  0  0  0  0  0
  -29.4511  -21.9865   25.6744 H   0  0  0  0  0  0
  -30.1172  -21.7904   24.0802 H   0  0  0  0  0  0
  -27.2400  -24.7918   20.6575 H   0  0  0  0  0  0
  -28.0702  -24.7508   19.1198 H   0  0  0  0  0  0
  -28.9197  -15.4252   21.1156 H   0  0  0  0  0  0
  -28.6284  -20.0209   23.6903 H   0  0  0  0  0  0
  1 25  1  0  0  0
  1 30  2  0  0  0
  1 86  1  0  0  0
  2  3  1  0  0  0
  2 25  1  0  0  0
  2 88  1  0  0  0
  2 89  1  0  0  0
  3  4  1  0  0  0
  3 90  1  0  0  0
  3 91  1  0  0  0
  4  5  1  0  0  0
  4 92  1  0  0  0
  4 93  1  0  0  0
  5  6  1  0  0  0
  5 26  1  0  0  0
  5 94  1  0  0  0
  6 25  1  0  0  0
  6 95  1  0  0  0
  6 96  1  0  0  0
  7  8  2  0  0  0
  7 26  1  0  0  0
  7 29  1  0  0  0
  8  9  1  0  0  0
  8 22  1  0  0  0
  9 10  1  0  0  0
  9 27  2  0  0  0
 10 11  2  0  0  0
 10 15  1  0  0  0
 11 12  1  0  0  0
 11 97  1  0  0  0
 12 13  2  0  0  0
 12 98  1  0  0  0
 13 14  1  0  0  0
 13 31  1  0  0  0
 14 15  2  0  0  0
 14 99  1  0  0  0
 15100  1  0  0  0
 16 17  2  0  0  0
 16 21  1  0  0  0
 16 31  1  0  0  0
 17 18  1  0  0  0
 17101  1  0  0  0
 18 19  2  0  0  0
 18102  1  0  0  0
 19 20  1  0  0  0
 19 24  1  0  0  0
 20 21  2  0  0  0
 20103  1  0  0  0
 21 23  1  0  0  0
 22 28  1  0  0  0
 22 32  2  0  0  0
 26 27  1  0  0  0
 28104  1  0  0  0
 28105  1  0  0  0
 29106  1  0  0  0
 29107  1  0  0  0
 33 34  1  0  0  0
 33 66  1  0  0  0
 33 70  2  0  0  0
 34 36  1  0  0  0
 34 59  1  0  0  0
 34108  1  0  0  0
 35 44  2  0  0  0
 35 45  1  0  0  0
 35 68  1  0  0  0
 36 56  1  0  0  0
 36109  1  0  0  0
 37 39  1  0  0  0
 37 47  1  0  0  0
 37 66  1  0  0  0
 37110  1  0  0  0
 38 43  2  0  0  0
 38 46  1  0  0  0
 38 47  1  0  0  0
 39 64  1  0  0  0
 39 67  2  0  0  0
 40 52  1  0  0  0
 40 53  2  0  0  0
 40 58  1  0  0  0
 41111  1  0  0  0
 41112  1  0  0  0
 41113  1  0  0  0
 41 48  1  0  0  0
 42 43  1  0  0  0
 42 66  1  0  0  0
 42114  1  0  0  0
 42115  1  0  0  0
 43 44  1  0  0  0
 44116  1  0  0  0
 45 46  2  0  0  0
 45117  1  0  0  0
 46118  1  0  0  0
 47119  1  0  0  0
 47120  1  0  0  0
 48 56  1  0  0  0
 48 65  1  0  0  0
 48121  1  0  0  0
 49 50  1  0  0  0
 49 53  1  0  0  0
 49 64  1  0  0  0
 49122  1  0  0  0
 50 51  1  0  0  0
 50123  1  0  0  0
 50124  1  0  0  0
 51 52  1  0  0  0
 51125  1  0  0  0
 51126  1  0  0  0
 52127  1  0  0  0
 52128  1  0  0  0
 53 54  1  0  0  0
 54 55  2  0  0  0
 54129  1  0  0  0
 55 57  1  0  0  0
 55130  1  0  0  0
 56 69  2  0  0  0
 57 58  2  0  0  0
 57131  1  0  0  0
 58132  1  0  0  0
 59 60  1  0  0  0
 59 61  1  0  0  0
 59 62  1  0  0  0
 60133  1  0  0  0
 60134  1  0  0  0
 60135  1  0  0  0
 61136  1  0  0  0
 61137  1  0  0  0
 61138  1  0  0  0
 62139  1  0  0  0
 62140  1  0  0  0
 62141  1  0  0  0
 63 65  1  0  0  0
 63142  1  0  0  0
 63143  1  0  0  0
 63144  1  0  0  0
 64145  1  0  0  0
 65146  1  0  0  0
 68 84  1  0  0  0
 71 72  2  0  0  0
 71 73  1  0  0  0
 71147  1  0  0  0
 72 74  1  0  0  0
 72148  1  0  0  0
 73 75  2  0  0  0
 73 78  1  0  0  0
 74 79  1  0  0  0
 74 85  2  0  0  0
 75 80  1  0  0  0
 75 85  1  0  0  0
 76149  1  0  0  0
 76150  1  0  0  0
 76151  1  0  0  0
 76 87  1  0  0  0
 77 87  1  0  0  0
 77152  1  0  0  0
 77153  1  0  0  0
 77154  1  0  0  0
 78 84  1  0  0  0
 78155  1  0  0  0
 78156  1  0  0  0
 79 82  1  0  0  0
 79157  1  0  0  0
 79158  1  0  0  0
 80 81  1  0  0  0
 80159  1  0  0  0
 80160  1  0  0  0
 81 83  1  0  0  0
 81161  1  0  0  0
 81162  1  0  0  0
 82 86  1  0  0  0
 82163  1  0  0  0
 82164  1  0  0  0
 83 87  1  0  0  0
 83165  1  0  0  0
 83166  1  0  0  0
 84167  1  0  0  0
 84168  1  0  0  0
 86169  1  0  0  0
 87170  1  0  0  0
M  CHG  1  87   1
M  ISO  4   1 100  68 101  84 101  86 100
M  END
> <chiral flag>
0

> <version>
0

> <s_m_source_file>
/data/baiqing/PycharmProjects/Reinvent-master-3.2/result/LINK_invent/BTK/process_docking_weight1_custom_sum_contain_oxygen_bond_distance_aromatic_linkinvent_7_9_3/rearranged_h_0049.sdf

> <i_m_source_file_index>
46

> <r_mmod_Potential_Energy-OPLS-2005>
-274.420501708984

> <r_mmod_Stretch_Energy-OPLS-2005>
78.5277862548828

> <r_mmod_Bend_Energy-OPLS-2005>
141.44743347168

> <r_mmod_Torsional_Energy-OPLS-2005>
222.115493774414

> <r_mmod_Improper_Torsional_Energy-OPLS-2005>
8.31974411010742

> <r_mmod_Van_der_Waal_Energy-OPLS-2005>
142.120147705078

> <r_mmod_Electrostatic_Energy-OPLS-2005>
-482.788146972656

> <r_mmod_Solvation_Energy-OPLS-2005>
-427.458801269531

> <b_mmod_Minimization_Converged-OPLS-2005>
0

> <r_mmod_RMS_Derivative-OPLS-2005>
4.01820611953735

$$$$
48
                    3D
 Structure written by MMmdl.
176184  0  0  1  0            999 V2000
  -30.8237  -14.2997   20.7637 C   0  0  0  0  0  0
  -30.4069  -12.2995   19.3748 C   0  0  0  0  0  0
  -29.4695  -12.5345   18.1807 C   0  0  0  0  0  0
  -28.0000  -12.3770   18.6071 C   0  0  0  0  0  0
  -27.6645  -13.2007   19.8764 C   0  0  2  0  0  0
  -28.7018  -12.9558   20.9926 C   0  0  0  0  0  0
  -25.2600  -13.8152   20.5663 C   0  0  0  0  0  0
  -24.1832  -13.0441   20.9153 C   0  0  0  0  0  0
  -24.6382  -11.6904   20.8730 C   0  0  0  0  0  0
  -23.9040  -10.4294   21.0410 C   0  0  0  0  0  0
  -24.3590   -9.4211   21.9198 C   0  0  0  0  0  0
  -23.6269   -8.2244   22.0766 C   0  0  0  0  0  0
  -22.4260   -8.0281   21.3547 C   0  0  0  0  0  0
  -21.9895   -9.0252   20.4647 C   0  0  0  0  0  0
  -22.7219  -10.2132   20.3056 C   0  0  0  0  0  0
  -21.6847   -6.0729   22.5272 C   0  0  0  0  0  0
  -21.4010   -6.5633   23.8208 C   0  0  0  0  0  0
  -21.3650   -5.6787   24.9169 C   0  0  0  0  0  0
  -21.6039   -4.3051   24.7221 C   0  0  0  0  0  0
  -21.8811   -3.8144   23.4341 C   0  0  0  0  0  0
  -21.9184   -4.6959   22.3396 C   0  0  0  0  0  0
  -22.7864  -13.5263   21.1824 C   0  0  0  0  0  0
  -22.1655   -4.2147   21.0976 F   0  0  0  0  0  0
  -21.5617   -3.4537   25.7734 F   0  0  0  0  0  0
  -30.0456  -13.2305   20.4536 N   0  0  0  0  0  0
  -26.3035  -12.9314   20.3381 N   0  0  0  0  0  0
  -25.9305  -11.6475   20.5765 N   0  0  0  0  0  0
  -22.0486  -12.8262   22.0376 N   0  0  0  0  0  0
  -25.4350  -15.1850   20.4065 N   0  0  0  0  0  0
  -31.7574  -14.6609   20.0354 O   0  0  0  0  0  0
  -21.6630   -6.8875   21.4237 O   0  0  0  0  0  0
  -22.3564  -14.5580   20.6689 O   0  0  0  0  0  0
  -24.6090  -31.8716   23.2132 C   0  0  0  0  0  0
  -25.9003  -32.4844   23.8422 C   0  0  1  0  0  0
  -27.2509  -27.4771   20.0978 C   0  0  0  0  0  0
  -25.5874  -33.8642   24.2357 N   0  0  0  0  0  0
  -23.3962  -30.4924   21.5519 C   0  0  2  0  0  0
  -24.8482  -28.9620   20.1174 C   0  0  0  0  0  0
  -22.7380  -29.4672   22.5019 C   0  0  0  0  0  0
  -18.0262  -28.1381   22.8497 C   0  0  0  0  0  0
  -24.1487  -36.7314   23.2650 C   0  0  0  0  0  0
  -25.9184  -30.8494   21.3620 C   0  0  0  0  0  0
  -25.9998  -29.4835   20.7186 C   0  0  0  0  0  0
  -27.2013  -28.7466   20.7179 C   0  0  0  0  0  0
  -26.0878  -26.9674   19.4863 C   0  0  0  0  0  0
  -24.8839  -27.6982   19.5008 C   0  0  0  0  0  0
  -23.6041  -29.8192   20.1674 C   0  0  0  0  0  0
  -25.4115  -36.3130   24.0346 C   0  0  1  0  0  0
  -20.5847  -28.3658   23.1334 C   0  0  2  0  0  0
  -20.6757  -26.9399   22.5422 C   0  0  0  0  0  0
  -19.5734  -26.6384   21.5220 C   0  0  0  0  0  0
  -18.1904  -26.7936   22.1612 C   0  0  0  0  0  0
  -19.1511  -28.8837   23.2915 C   0  0  0  0  0  0
  -18.9446  -30.1448   23.8925 C   0  0  0  0  0  0
  -17.6449  -30.6587   24.0573 C   0  0  0  0  0  0
  -25.9030  -34.9489   23.5150 C   0  0  0  0  0  0
  -16.5340  -29.9091   23.6332 C   0  0  0  0  0  0
  -16.7252  -28.6505   23.0357 C   0  0  0  0  0  0
  -26.4453  -31.6607   25.0726 C   0  0  0  0  0  0
  -25.3734  -31.3695   26.1489 C   0  0  0  0  0  0
  -27.0271  -30.3056   24.6067 C   0  0  0  0  0  0
  -27.6040  -32.4318   25.7484 C   0  0  0  0  0  0
  -27.5580  -37.1835   24.8481 C   0  0  0  0  0  0
  -21.4113  -29.3031   22.3752 N   0  0  0  0  0  0
  -26.4310  -37.3802   23.9394 N   0  0  0  0  0  0
  -24.6587  -31.0852   22.1015 N   0  0  0  0  0  0
  -23.4172  -28.8221   23.3052 O   0  0  0  0  0  0
  -28.3878  -26.7058   20.0395 O   0  0  0  0  0  0
  -26.5598  -34.8924   22.4715 O   0  0  0  0  0  0
  -23.5293  -32.1450   23.7549 O   0  0  0  0  0  0
  -30.4485  -17.5095   21.3893 C   0  0  0  0  0  0
  -28.7677  -16.6766   22.5971 C   0  0  0  0  0  0
  -29.9660  -16.3319   22.0330 C   0  0  0  0  0  0
  -29.5754  -18.5355   21.6213 C   0  0  0  0  0  0
  -26.2267  -18.7680   21.8522 C   0  0  0  0  0  0
  -32.0361  -15.1498   22.8321 C   0  0  0  0  0  0
  -33.3526  -24.7644   22.9340 C   0  0  0  0  0  0
  -29.6800  -19.9808   21.2359 C   0  0  0  0  0  0
  -30.5250  -20.7822   22.2401 C   0  0  0  0  0  0
  -30.6743  -22.2684   21.8713 C   0  0  0  0  0  0
  -30.2258  -25.5841   21.0994 C   0  0  0  0  0  0
  -27.3687  -18.7458   22.8743 C   0  0  0  0  0  0
  -31.6357  -23.0173   22.8169 C   0  0  0  0  0  0
  -31.0419  -25.4215   22.3964 C   0  0  0  0  0  0
  -29.2846  -26.7968   21.1409 C   0  0  0  0  0  0
  -30.6685  -14.9905   22.1403 C   0  0  2  0  0  0
  -28.5272  -18.0209   22.3723 N   0  0  0  0  0  0
  -32.0730  -24.3483   22.3087 N   0  3  1  0  0  0
  -31.4473  -12.4028   19.0615 H   0  0  0  0  0  0
  -30.3115  -11.2745   19.7353 H   0  0  0  0  0  0
  -29.7007  -11.8349   17.3763 H   0  0  0  0  0  0
  -29.6313  -13.5344   17.7758 H   0  0  0  0  0  0
  -27.8151  -11.3181   18.7919 H   0  0  0  0  0  0
  -27.3375  -12.6632   17.7894 H   0  0  0  0  0  0
  -27.7222  -14.2543   19.6007 H   0  0  0  0  0  0
  -28.6553  -11.9226   21.3406 H   0  0  0  0  0  0
  -28.4291  -13.5738   21.8451 H   0  0  0  0  0  0
  -25.2729   -9.5686   22.4785 H   0  0  0  0  0  0
  -23.9964   -7.4645   22.7501 H   0  0  0  0  0  0
  -21.0826   -8.8771   19.8962 H   0  0  0  0  0  0
  -22.3687  -10.9666   19.6161 H   0  0  0  0  0  0
  -21.2011   -7.6147   23.9708 H   0  0  0  0  0  0
  -21.1468   -6.0522   25.9068 H   0  0  0  0  0  0
  -22.0590   -2.7604   23.2842 H   0  0  0  0  0  0
  -22.4072  -11.9892   22.4720 H   0  0  0  0  0  0
  -21.1128  -13.1327   22.2611 H   0  0  0  0  0  0
  -24.6782  -15.8479   20.5289 H   0  0  0  0  0  0
  -26.3068  -15.6224   20.1332 H   0  0  0  0  0  0
  -26.7085  -32.5584   23.1206 H   0  0  0  0  0  0
  -25.0034  -33.9828   25.0507 H   0  0  0  0  0  0
  -22.6827  -31.3068   21.4106 H   0  0  0  0  0  0
  -23.3769  -35.9625   23.3293 H   0  0  0  0  0  0
  -24.3585  -36.8954   22.2064 H   0  0  0  0  0  0
  -23.7197  -37.6495   23.6675 H   0  0  0  0  0  0
  -26.0208  -31.6126   20.5891 H   0  0  0  0  0  0
  -26.8095  -30.9120   21.9744 H   0  0  0  0  0  0
  -28.0822  -29.1693   21.1795 H   0  0  0  0  0  0
  -26.1154  -25.9993   19.0058 H   0  0  0  0  0  0
  -23.9993  -27.2899   19.0315 H   0  0  0  0  0  0
  -23.6996  -30.5907   19.4022 H   0  0  0  0  0  0
  -22.7331  -29.2272   19.8795 H   0  0  0  0  0  0
  -25.1303  -36.2016   25.0844 H   0  0  0  0  0  0
  -20.9940  -28.3220   24.1452 H   0  0  0  0  0  0
  -20.5671  -26.2265   23.3608 H   0  0  0  0  0  0
  -21.6628  -26.7449   22.1201 H   0  0  0  0  0  0
  -19.6890  -25.6294   21.1244 H   0  0  0  0  0  0
  -19.6690  -27.3209   20.6764 H   0  0  0  0  0  0
  -17.4192  -26.6729   21.3994 H   0  0  0  0  0  0
  -18.0269  -26.0062   22.8982 H   0  0  0  0  0  0
  -19.7924  -30.7265   24.2299 H   0  0  0  0  0  0
  -17.5001  -31.6279   24.5149 H   0  0  0  0  0  0
  -15.5344  -30.3005   23.7643 H   0  0  0  0  0  0
  -15.8653  -28.0839   22.7062 H   0  0  0  0  0  0
  -24.5863  -30.7116   25.7798 H   0  0  0  0  0  0
  -24.8993  -32.2852   26.5036 H   0  0  0  0  0  0
  -25.8087  -30.8756   27.0186 H   0  0  0  0  0  0
  -26.2790  -29.6827   24.1157 H   0  0  0  0  0  0
  -27.4087  -29.7294   25.4501 H   0  0  0  0  0  0
  -27.8607  -30.4389   23.9170 H   0  0  0  0  0  0
  -27.2696  -33.3668   26.2006 H   0  0  0  0  0  0
  -28.3889  -32.6800   25.0321 H   0  0  0  0  0  0
  -28.0653  -31.8461   26.5449 H   0  0  0  0  0  0
  -28.2643  -38.0086   24.7469 H   0  0  0  0  0  0
  -28.1033  -36.2613   24.6401 H   0  0  0  0  0  0
  -27.2279  -37.1600   25.8884 H   0  0  0  0  0  0
  -20.9272  -29.8752   21.6977 H   0  0  0  0  0  0
  -26.0210  -38.2897   24.1354 H   0  0  0  0  0  0
  -31.3787  -17.6061   20.8447 H   0  0  0  0  0  0
  -28.0703  -16.0877   23.1795 H   0  0  0  0  0  0
  -25.3520  -19.2762   22.2579 H   0  0  0  0  0  0
  -25.9251  -17.7566   21.5811 H   0  0  0  0  0  0
  -26.5176  -19.2874   20.9390 H   0  0  0  0  0  0
  -31.9170  -15.5526   23.8377 H   0  0  0  0  0  0
  -32.6951  -15.8226   22.2823 H   0  0  0  0  0  0
  -32.5433  -14.1884   22.9219 H   0  0  0  0  0  0
  -34.1328  -24.0217   22.7661 H   0  0  0  0  0  0
  -33.2392  -24.8991   24.0100 H   0  0  0  0  0  0
  -33.7139  -25.7014   22.5097 H   0  0  0  0  0  0
  -28.6910  -20.4285   21.1362 H   0  0  0  0  0  0
  -30.1292  -20.0511   20.2445 H   0  0  0  0  0  0
  -31.5132  -20.3229   22.3005 H   0  0  0  0  0  0
  -30.0889  -20.6954   23.2363 H   0  0  0  0  0  0
  -29.6880  -22.7304   21.8968 H   0  0  0  0  0  0
  -31.0370  -22.3423   20.8451 H   0  0  0  0  0  0
  -29.6287  -24.6934   20.9202 H   0  0  0  0  0  0
  -30.8926  -25.6845   20.2426 H   0  0  0  0  0  0
  -27.0333  -18.2727   23.7982 H   0  0  0  0  0  0
  -27.6645  -19.7596   23.1447 H   0  0  0  0  0  0
  -32.5223  -22.3931   22.9409 H   0  0  0  0  0  0
  -31.2017  -23.1131   23.8138 H   0  0  0  0  0  0
  -30.3820  -25.2492   23.2479 H   0  0  0  0  0  0
  -31.5267  -26.3784   22.5975 H   0  0  0  0  0  0
  -29.8610  -27.7217   21.0920 H   0  0  0  0  0  0
  -28.7262  -26.7981   22.0785 H   0  0  0  0  0  0
  -30.0919  -14.3583   22.8121 H   0  0  0  0  0  0
  -32.2996  -24.2320   21.3322 H   0  0  0  0  0  0
  1 25  1  0  0  0
  1 30  2  0  0  0
  1 86  1  0  0  0
  2  3  1  0  0  0
  2 25  1  0  0  0
  2 89  1  0  0  0
  2 90  1  0  0  0
  3  4  1  0  0  0
  3 91  1  0  0  0
  3 92  1  0  0  0
  4  5  1  0  0  0
  4 93  1  0  0  0
  4 94  1  0  0  0
  5  6  1  0  0  0
  5 26  1  0  0  0
  5 95  1  0  0  0
  6 25  1  0  0  0
  6 96  1  0  0  0
  6 97  1  0  0  0
  7  8  2  0  0  0
  7 26  1  0  0  0
  7 29  1  0  0  0
  8  9  1  0  0  0
  8 22  1  0  0  0
  9 10  1  0  0  0
  9 27  2  0  0  0
 10 11  2  0  0  0
 10 15  1  0  0  0
 11 12  1  0  0  0
 11 98  1  0  0  0
 12 13  2  0  0  0
 12 99  1  0  0  0
 13 14  1  0  0  0
 13 31  1  0  0  0
 14 15  2  0  0  0
 14100  1  0  0  0
 15101  1  0  0  0
 16 17  2  0  0  0
 16 21  1  0  0  0
 16 31  1  0  0  0
 17 18  1  0  0  0
 17102  1  0  0  0
 18 19  2  0  0  0
 18103  1  0  0  0
 19 20  1  0  0  0
 19 24  1  0  0  0
 20 21  2  0  0  0
 20104  1  0  0  0
 21 23  1  0  0  0
 22 28  1  0  0  0
 22 32  2  0  0  0
 26 27  1  0  0  0
 28105  1  0  0  0
 28106  1  0  0  0
 29107  1  0  0  0
 29108  1  0  0  0
 33 34  1  0  0  0
 33 66  1  0  0  0
 33 70  2  0  0  0
 34 36  1  0  0  0
 34 59  1  0  0  0
 34109  1  0  0  0
 35 44  2  0  0  0
 35 45  1  0  0  0
 35 68  1  0  0  0
 36 56  1  0  0  0
 36110  1  0  0  0
 37 39  1  0  0  0
 37 47  1  0  0  0
 37 66  1  0  0  0
 37111  1  0  0  0
 38 43  2  0  0  0
 38 46  1  0  0  0
 38 47  1  0  0  0
 39 64  1  0  0  0
 39 67  2  0  0  0
 40 52  1  0  0  0
 40 53  2  0  0  0
 40 58  1  0  0  0
 41112  1  0  0  0
 41113  1  0  0  0
 41114  1  0  0  0
 41 48  1  0  0  0
 42 43  1  0  0  0
 42 66  1  0  0  0
 42115  1  0  0  0
 42116  1  0  0  0
 43 44  1  0  0  0
 44117  1  0  0  0
 45 46  2  0  0  0
 45118  1  0  0  0
 46119  1  0  0  0
 47120  1  0  0  0
 47121  1  0  0  0
 48 56  1  0  0  0
 48 65  1  0  0  0
 48122  1  0  0  0
 49 50  1  0  0  0
 49 53  1  0  0  0
 49 64  1  0  0  0
 49123  1  0  0  0
 50 51  1  0  0  0
 50124  1  0  0  0
 50125  1  0  0  0
 51 52  1  0  0  0
 51126  1  0  0  0
 51127  1  0  0  0
 52128  1  0  0  0
 52129  1  0  0  0
 53 54  1  0  0  0
 54 55  2  0  0  0
 54130  1  0  0  0
 55 57  1  0  0  0
 55131  1  0  0  0
 56 69  2  0  0  0
 57 58  2  0  0  0
 57132  1  0  0  0
 58133  1  0  0  0
 59 60  1  0  0  0
 59 61  1  0  0  0
 59 62  1  0  0  0
 60134  1  0  0  0
 60135  1  0  0  0
 60136  1  0  0  0
 61137  1  0  0  0
 61138  1  0  0  0
 61139  1  0  0  0
 62140  1  0  0  0
 62141  1  0  0  0
 62142  1  0  0  0
 63 65  1  0  0  0
 63143  1  0  0  0
 63144  1  0  0  0
 63145  1  0  0  0
 64146  1  0  0  0
 65147  1  0  0  0
 68 85  1  0  0  0
 71 73  1  0  0  0
 71 74  2  0  0  0
 71148  1  0  0  0
 72 73  2  0  0  0
 72 87  1  0  0  0
 72149  1  0  0  0
 73 86  1  0  0  0
 74 78  1  0  0  0
 74 87  1  0  0  0
 75 82  1  0  0  0
 75150  1  0  0  0
 75151  1  0  0  0
 75152  1  0  0  0
 76153  1  0  0  0
 76154  1  0  0  0
 76155  1  0  0  0
 76 86  1  0  0  0
 77156  1  0  0  0
 77157  1  0  0  0
 77158  1  0  0  0
 77 88  1  0  0  0
 78 79  1  0  0  0
 78159  1  0  0  0
 78160  1  0  0  0
 79 80  1  0  0  0
 79161  1  0  0  0
 79162  1  0  0  0
 80 83  1  0  0  0
 80163  1  0  0  0
 80164  1  0  0  0
 81 84  1  0  0  0
 81 85  1  0  0  0
 81165  1  0  0  0
 81166  1  0  0  0
 82 87  1  0  0  0
 82167  1  0  0  0
 82168  1  0  0  0
 83 88  1  0  0  0
 83169  1  0  0  0
 83170  1  0  0  0
 84 88  1  0  0  0
 84171  1  0  0  0
 84172  1  0  0  0
 85173  1  0  0  0
 85174  1  0  0  0
 86175  1  0  0  0
 88176  1  0  0  0
M  CHG  1  88   1
M  ISO  4   1 100  68 101  85 101  86 100
M  END
> <chiral flag>
0

> <version>
0

> <s_m_source_file>
/data/baiqing/PycharmProjects/Reinvent-master-3.2/result/LINK_invent/BTK/process_docking_weight1_custom_sum_contain_oxygen_bond_distance_aromatic_linkinvent_7_9_3/rearranged_h_0049.sdf

> <i_m_source_file_index>
47

> <r_mmod_Potential_Energy-OPLS-2005>
-135.187576293945

> <r_mmod_Stretch_Energy-OPLS-2005>
32.3325614929199

> <r_mmod_Bend_Energy-OPLS-2005>
96.0666732788086

> <r_mmod_Torsional_Energy-OPLS-2005>
211.406463623047

> <r_mmod_Improper_Torsional_Energy-OPLS-2005>
3.0063419342041

> <r_mmod_Van_der_Waal_Energy-OPLS-2005>
121.770980834961

> <r_mmod_Electrostatic_Energy-OPLS-2005>
-185.791915893555

> <r_mmod_Solvation_Energy-OPLS-2005>
-421.643402099609

> <b_mmod_Minimization_Converged-OPLS-2005>
0

> <r_mmod_RMS_Derivative-OPLS-2005>
1.34633386135101

$$$$
49
                    3D
 Structure written by MMmdl.
166174  0  0  1  0            999 V2000
  -29.4072  -15.6137   20.2955 C   0  0  0  0  0  0
  -30.2533  -13.2135   19.5623 C   0  0  0  0  0  0
  -29.4783  -12.6180   18.3553 C   0  0  0  0  0  0
  -28.0636  -12.1757   18.7736 C   0  0  0  0  0  0
  -27.4818  -13.1824   19.7991 C   0  0  2  0  0  0
  -28.3963  -13.3946   20.9949 C   0  0  0  0  0  0
  -25.1725  -13.7948   20.5549 C   0  0  0  0  0  0
  -24.1118  -13.0118   20.9199 C   0  0  0  0  0  0
  -24.5713  -11.6668   20.8719 C   0  0  0  0  0  0
  -23.8731  -10.4135   21.0575 C   0  0  0  0  0  0
  -24.3426   -9.4061   21.9245 C   0  0  0  0  0  0
  -23.6168   -8.2051   22.0812 C   0  0  0  0  0  0
  -22.4135   -8.0081   21.3583 C   0  0  0  0  0  0
  -21.9696   -9.0043   20.4665 C   0  0  0  0  0  0
  -22.7025  -10.1957   20.3110 C   0  0  0  0  0  0
  -21.6754   -6.0600   22.5301 C   0  0  0  0  0  0
  -21.3976   -6.5599   23.8187 C   0  0  0  0  0  0
  -21.3585   -5.6815   24.9163 C   0  0  0  0  0  0
  -21.6066   -4.3079   24.7291 C   0  0  0  0  0  0
  -21.8787   -3.8092   23.4416 C   0  0  0  0  0  0
  -21.9217   -4.6871   22.3440 C   0  0  0  0  0  0
  -22.7263  -13.4964   21.1884 C   0  0  0  0  0  0
  -22.1659   -4.2075   21.0987 F   0  0  0  0  0  0
  -21.5627   -3.4488   25.7771 F   0  0  0  0  0  0
  -29.4361  -14.2134   20.3907 N   0  0  0  0  0  0
  -26.1676  -12.8903   20.2486 N   0  0  0  0  0  0
  -25.8388  -11.6191   20.5455 N   0  0  0  0  0  0
  -21.9959  -12.8095   22.0642 N   0  0  0  0  0  0
  -25.2758  -15.1653   20.4214 N   0  0  0  0  0  0
  -30.6561  -15.9322   20.2692 O   0  0  0  0  0  0
  -21.6494   -6.8667   21.4262 O   0  0  0  0  0  0
  -22.3016  -14.5400   20.6939 O   0  0  0  0  0  0
  -24.6280  -31.9206   22.7689 C   0  0  0  0  0  0
  -25.8873  -32.4638   23.6316 C   0  0  1  0  0  0
  -26.2283  -28.1108   21.5145 C   0  0  0  0  0  0
  -25.5582  -33.8406   24.0970 N   0  0  0  0  0  0
  -23.6266  -29.8434   20.9168 C   0  0  2  0  0  0
  -25.1764  -29.1410   19.4979 C   0  0  0  0  0  0
  -23.2501  -27.9707   21.3827 C   0  0  0  0  0  0
  -18.3691  -28.1653   23.2743 C   0  0  0  0  0  0
  -24.1424  -36.7341   23.2749 C   0  0  0  0  0  0
  -25.9360  -31.1258   20.8816 C   0  0  0  0  0  0
  -26.1856  -29.7935   20.2684 C   0  0  0  0  0  0
  -27.1090  -28.9858   20.9470 C   0  0  0  0  0  0
  -25.9523  -27.1687   20.4323 C   0  0  0  0  0  0
  -25.2336  -27.7526   19.3672 C   0  0  0  0  0  0
  -23.8667  -29.7754   19.4525 C   0  0  0  0  0  0
  -25.4095  -36.3048   24.0268 C   0  0  1  0  0  0
  -21.1849  -27.8960   23.8221 C   0  0  2  0  0  0
  -21.2353  -26.4970   24.2272 C   0  0  0  0  0  0
  -20.2734  -26.3823   23.1558 C   0  0  0  0  0  0
  -18.7987  -27.0683   22.6982 C   0  0  0  0  0  0
  -19.6305  -28.6497   23.8512 C   0  0  0  0  0  0
  -19.1746  -29.9129   24.4591 C   0  0  0  0  0  0
  -17.8425  -30.4390   24.3369 C   0  0  0  0  0  0
  -25.9171  -34.9668   23.4639 C   0  0  0  0  0  0
  -16.7706  -29.8723   23.6535 C   0  0  0  0  0  0
  -17.0855  -28.6690   23.0548 C   0  0  0  0  0  0
  -26.3928  -31.6664   24.9402 C   0  0  0  0  0  0
  -25.3289  -31.4439   26.0561 C   0  0  0  0  0  0
  -27.0288  -30.3052   24.5799 C   0  0  0  0  0  0
  -27.5518  -32.4638   25.6288 C   0  0  0  0  0  0
  -27.5605  -37.1680   24.8413 C   0  0  0  0  0  0
  -22.4602  -27.5248   22.5919 N   0  0  0  0  0  0
  -26.4158  -37.3881   23.9515 N   0  0  0  0  0  0
  -24.6808  -31.0397   21.6064 N   0  0  0  0  0  0
  -23.9019  -27.1356   22.1062 O   0  0  0  0  0  0
  -25.3414  -28.8643   22.5788 O   0  0  0  0  0  0
  -26.6003  -34.9432   22.4395 O   0  0  0  0  0  0
  -23.5290  -32.3251   23.2459 O   0  0  0  0  0  0
  -20.8797  -25.5573   19.0216 C   0  0  0  0  0  0
  -20.9053  -26.9548   19.3263 C   0  0  0  0  0  0
  -20.9423  -24.6276   20.1675 C   0  0  0  0  0  0
  -20.0193  -25.6218   20.8208 C   0  0  0  0  0  0
  -18.9502  -24.5048   21.9679 C   0  0  0  0  0  0
  -22.2366  -21.3485   18.9150 C   0  0  0  0  0  0
  -21.4920  -22.8824   20.7061 C   0  0  0  0  0  0
  -25.2849  -19.1481   20.1625 C   0  0  0  0  0  0
  -21.2375  -29.2251   21.6861 C   0  0  0  0  0  0
  -26.8929  -17.9965   20.7993 C   0  0  0  0  0  0
  -23.8864  -20.5233   20.8332 C   0  0  0  0  0  0
  -23.3659  -29.4809   23.1858 C   0  0  0  0  0  0
  -20.6960  -27.2514   20.7716 N   0  0  0  0  0  0
  -28.0875  -16.5567   20.3343 N   0  0  0  0  0  0
  -22.7852  -21.7850   20.1613 N   0  3  1  0  0  0
  -31.1016  -13.7335   19.1592 H   0  0  0  0  0  0
  -30.6564  -12.4451   20.1615 H   0  0  0  0  0  0
  -30.0174  -11.7782   17.9021 H   0  0  0  0  0  0
  -29.3752  -13.3508   17.5496 H   0  0  0  0  0  0
  -28.1702  -11.1764   19.2516 H   0  0  0  0  0  0
  -27.4286  -11.9875   17.8904 H   0  0  0  0  0  0
  -27.3473  -14.0808   19.1955 H   0  0  0  0  0  0
  -28.7294  -12.4601   21.3846 H   0  0  0  0  0  0
  -27.8337  -13.8880   21.7708 H   0  0  0  0  0  0
  -25.2487   -9.5542   22.4838 H   0  0  0  0  0  0
  -23.9847   -7.4400   22.7502 H   0  0  0  0  0  0
  -21.0578   -8.8496   19.8936 H   0  0  0  0  0  0
  -22.3391  -10.9465   19.6233 H   0  0  0  0  0  0
  -21.1931   -7.6057   23.9703 H   0  0  0  0  0  0
  -21.1448   -6.0472   25.9086 H   0  0  0  0  0  0
  -22.0666   -2.7520   23.2905 H   0  0  0  0  0  0
  -22.3515  -11.9656   22.5085 H   0  0  0  0  0  0
  -21.0603  -13.1281   22.2995 H   0  0  0  0  0  0
  -24.4157  -15.6834   20.5770 H   0  0  0  0  0  0
  -26.0709  -15.7856   20.2920 H   0  0  0  0  0  0
  -26.7720  -32.5938   23.0260 H   0  0  0  0  0  0
  -24.9253  -33.9300   24.8865 H   0  0  0  0  0  0
  -22.8399  -30.6168   20.8591 H   0  0  0  0  0  0
  -23.3844  -35.9565   23.3062 H   0  0  0  0  0  0
  -24.3491  -36.9475   22.2222 H   0  0  0  0  0  0
  -23.6994  -37.6299   23.7128 H   0  0  0  0  0  0
  -25.8372  -31.8779   20.1067 H   0  0  0  0  0  0
  -26.8094  -31.4089   21.4526 H   0  0  0  0  0  0
  -27.7982  -29.5450   21.5608 H   0  0  0  0  0  0
  -25.7243  -26.1461   20.6935 H   0  0  0  0  0  0
  -24.5062  -27.1685   18.8530 H   0  0  0  0  0  0
  -23.8483  -30.7615   19.0012 H   0  0  0  0  0  0
  -23.0694  -29.1695   19.0589 H   0  0  0  0  0  0
  -25.1347  -36.1594   25.0710 H   0  0  0  0  0  0
  -21.5500  -28.1223   24.8241 H   0  0  0  0  0  0
  -20.7421  -25.6920   24.8210 H   0  0  0  0  0  0
  -22.2542  -26.0243   24.0410 H   0  0  0  0  0  0
  -20.6287  -25.4348   23.0027 H   0  0  0  0  0  0
  -21.0616  -25.9474   22.5844 H   0  0  0  0  0  0
  -18.8957  -27.6418   21.7293 H   0  0  0  0  0  0
  -18.0960  -26.5180   22.2727 H   0  0  0  0  0  0
  -19.9365  -30.2145   25.0973 H   0  0  0  0  0  0
  -17.6822  -31.3595   24.9357 H   0  0  0  0  0  0
  -15.8169  -30.2984   23.5570 H   0  0  0  0  0  0
  -16.3690  -28.1961   22.3701 H   0  0  0  0  0  0
  -24.7679  -30.5115   25.9239 H   0  0  0  0  0  0
  -24.6015  -32.2506   26.1023 H   0  0  0  0  0  0
  -25.7857  -31.3624   27.0425 H   0  0  0  0  0  0
  -26.3143  -29.4951   24.6830 H   0  0  0  0  0  0
  -27.8571  -30.0480   25.2338 H   0  0  0  0  0  0
  -27.4143  -30.3110   23.5653 H   0  0  0  0  0  0
  -27.2302  -33.4361   26.0288 H   0  0  0  0  0  0
  -28.3664  -32.6632   24.9213 H   0  0  0  0  0  0
  -27.9915  -31.9180   26.4764 H   0  0  0  0  0  0
  -28.2303  -38.0247   24.7951 H   0  0  0  0  0  0
  -28.1370  -36.2898   24.5607 H   0  0  0  0  0  0
  -27.2465  -37.0519   25.8801 H   0  0  0  0  0  0
  -23.1241  -26.8934   22.9774 H   0  0  0  0  0  0
  -26.0009  -38.2850   24.1991 H   0  0  0  0  0  0
  -20.6967  -25.1096   17.9854 H   0  0  0  0  0  0
  -20.8748  -27.7821   18.6335 H   0  0  0  0  0  0
  -19.5145  -24.1273   22.8441 H   0  0  0  0  0  0
  -18.0539  -23.9126   22.0015 H   0  0  0  0  0  0
  -18.5520  -24.8861   22.9611 H   0  0  0  0  0  0
  -21.5122  -22.0694   18.4711 H   0  0  0  0  0  0
  -21.6779  -20.3665   19.0182 H   0  0  0  0  0  0
  -23.0734  -21.2293   18.1676 H   0  0  0  0  0  0
  -20.6234  -22.2103   20.6422 H   0  0  0  0  0  0
  -21.5153  -22.8060   21.7604 H   0  0  0  0  0  0
  -24.6283  -18.4585   19.6504 H   0  0  0  0  0  0
  -25.7388  -19.7044   19.3620 H   0  0  0  0  0  0
  -20.9355  -30.1354   21.0957 H   0  0  0  0  0  0
  -20.6133  -29.7614   22.3957 H   0  0  0  0  0  0
  -26.4454  -17.5782   21.6907 H   0  0  0  0  0  0
  -27.4555  -18.7383   21.1623 H   0  0  0  0  0  0
  -24.5179  -21.1896   21.4676 H   0  0  0  0  0  0
  -23.2129  -19.9292   21.5093 H   0  0  0  0  0  0
  -23.3895  -28.9309   24.0964 H   0  0  0  0  0  0
  -23.3793  -30.2550   23.9661 H   0  0  0  0  0  0
  -27.5098  -15.8645   19.8248 H   0  0  0  0  0  0
  -23.3827  -22.5349   19.9718 H   0  0  0  0  0  0
  1 25  1  0  0  0
  1 30  2  0  0  0
  1 84  1  0  0  0
  2  3  1  0  0  0
  2 25  1  0  0  0
  2 86  1  0  0  0
  2 87  1  0  0  0
  3  4  1  0  0  0
  3 88  1  0  0  0
  3 89  1  0  0  0
  4  5  1  0  0  0
  4 90  1  0  0  0
  4 91  1  0  0  0
  5  6  1  0  0  0
  5 26  1  0  0  0
  5 92  1  0  0  0
  6 25  1  0  0  0
  6 93  1  0  0  0
  6 94  1  0  0  0
  7  8  2  0  0  0
  7 26  1  0  0  0
  7 29  1  0  0  0
  8  9  1  0  0  0
  8 22  1  0  0  0
  9 10  1  0  0  0
  9 27  2  0  0  0
 10 11  2  0  0  0
 10 15  1  0  0  0
 11 12  1  0  0  0
 11 95  1  0  0  0
 12 13  2  0  0  0
 12 96  1  0  0  0
 13 14  1  0  0  0
 13 31  1  0  0  0
 14 15  2  0  0  0
 14 97  1  0  0  0
 15 98  1  0  0  0
 16 17  2  0  0  0
 16 21  1  0  0  0
 16 31  1  0  0  0
 17 18  1  0  0  0
 17 99  1  0  0  0
 18 19  2  0  0  0
 18100  1  0  0  0
 19 20  1  0  0  0
 19 24  1  0  0  0
 20 21  2  0  0  0
 20101  1  0  0  0
 21 23  1  0  0  0
 22 28  1  0  0  0
 22 32  2  0  0  0
 26 27  1  0  0  0
 28102  1  0  0  0
 28103  1  0  0  0
 29104  1  0  0  0
 29105  1  0  0  0
 33 34  1  0  0  0
 33 66  1  0  0  0
 33 70  2  0  0  0
 34 36  1  0  0  0
 34 59  1  0  0  0
 34106  1  0  0  0
 35 44  2  0  0  0
 35 45  1  0  0  0
 35 68  1  0  0  0
 36 56  1  0  0  0
 36107  1  0  0  0
 37 39  1  0  0  0
 37 47  1  0  0  0
 37 66  1  0  0  0
 37108  1  0  0  0
 38 43  2  0  0  0
 38 46  1  0  0  0
 38 47  1  0  0  0
 39 64  1  0  0  0
 39 67  2  0  0  0
 40 52  1  0  0  0
 40 53  2  0  0  0
 40 58  1  0  0  0
 41109  1  0  0  0
 41110  1  0  0  0
 41111  1  0  0  0
 41 48  1  0  0  0
 42 43  1  0  0  0
 42 66  1  0  0  0
 42112  1  0  0  0
 42113  1  0  0  0
 43 44  1  0  0  0
 44114  1  0  0  0
 45 46  2  0  0  0
 45115  1  0  0  0
 46116  1  0  0  0
 47117  1  0  0  0
 47118  1  0  0  0
 48 56  1  0  0  0
 48 65  1  0  0  0
 48119  1  0  0  0
 49 50  1  0  0  0
 49 53  1  0  0  0
 49 64  1  0  0  0
 49120  1  0  0  0
 50 51  1  0  0  0
 50121  1  0  0  0
 50122  1  0  0  0
 51 52  1  0  0  0
 51123  1  0  0  0
 51124  1  0  0  0
 52125  1  0  0  0
 52126  1  0  0  0
 53 54  1  0  0  0
 54 55  2  0  0  0
 54127  1  0  0  0
 55 57  1  0  0  0
 55128  1  0  0  0
 56 69  2  0  0  0
 57 58  2  0  0  0
 57129  1  0  0  0
 58130  1  0  0  0
 59 60  1  0  0  0
 59 61  1  0  0  0
 59 62  1  0  0  0
 60131  1  0  0  0
 60132  1  0  0  0
 60133  1  0  0  0
 61134  1  0  0  0
 61135  1  0  0  0
 61136  1  0  0  0
 62137  1  0  0  0
 62138  1  0  0  0
 62139  1  0  0  0
 63 65  1  0  0  0
 63140  1  0  0  0
 63141  1  0  0  0
 63142  1  0  0  0
 64143  1  0  0  0
 65144  1  0  0  0
 68 82  1  0  0  0
 71 72  2  0  0  0
 71 73  1  0  0  0
 71145  1  0  0  0
 72 83  1  0  0  0
 72146  1  0  0  0
 73 74  2  0  0  0
 73 77  1  0  0  0
 74 75  1  0  0  0
 74 83  1  0  0  0
 75147  1  0  0  0
 75148  1  0  0  0
 75149  1  0  0  0
 76150  1  0  0  0
 76151  1  0  0  0
 76152  1  0  0  0
 76 85  1  0  0  0
 77 85  1  0  0  0
 77153  1  0  0  0
 77154  1  0  0  0
 78 80  1  0  0  0
 78 81  1  0  0  0
 78155  1  0  0  0
 78156  1  0  0  0
 79 82  1  0  0  0
 79 83  1  0  0  0
 79157  1  0  0  0
 79158  1  0  0  0
 80 84  1  0  0  0
 80159  1  0  0  0
 80160  1  0  0  0
 81 85  1  0  0  0
 81161  1  0  0  0
 81162  1  0  0  0
 82163  1  0  0  0
 82164  1  0  0  0
 84165  1  0  0  0
 85166  1  0  0  0
M  CHG  1  85   1
M  ISO  4   1 100  68 101  82 101  84 100
M  END
> <chiral flag>
0

> <version>
0

> <s_m_source_file>
/data/baiqing/PycharmProjects/Reinvent-master-3.2/result/LINK_invent/BTK/process_docking_weight1_custom_sum_contain_oxygen_bond_distance_aromatic_linkinvent_7_9_3/rearranged_h_0049.sdf

> <i_m_source_file_index>
48

> <r_mmod_Potential_Energy-OPLS-2005>
17883.078125

> <r_mmod_Stretch_Energy-OPLS-2005>
6278.875

> <r_mmod_Bend_Energy-OPLS-2005>
2961.4208984375

> <r_mmod_Torsional_Energy-OPLS-2005>
824.56689453125

> <r_mmod_Improper_Torsional_Energy-OPLS-2005>
127.058219909668

> <r_mmod_Van_der_Waal_Energy-OPLS-2005>
2346.84643554688

> <r_mmod_Electrostatic_Energy-OPLS-2005>
-289.976409912109

> <r_mmod_Solvation_Energy-OPLS-2005>
-439.55859375

> <b_mmod_Minimization_Converged-OPLS-2005>
0

> <r_mmod_RMS_Derivative-OPLS-2005>
99.9990005493164

$$$$
50
                    3D
 Structure written by MMmdl.
183192  0  0  1  0            999 V2000
  -30.7346  -14.5285   20.4210 C   0  0  0  0  0  0
  -30.4071  -12.3183   19.4201 C   0  0  0  0  0  0
  -29.4772  -12.4433   18.1956 C   0  0  0  0  0  0
  -28.0055  -12.3209   18.6353 C   0  0  0  0  0  0
  -27.6468  -13.2133   19.8565 C   0  0  2  0  0  0
  -28.7049  -13.0902   20.9748 C   0  0  0  0  0  0
  -25.2558  -13.8170   20.5828 C   0  0  0  0  0  0
  -24.1817  -13.0455   20.9286 C   0  0  0  0  0  0
  -24.6360  -11.6914   20.8754 C   0  0  0  0  0  0
  -23.9019  -10.4328   21.0391 C   0  0  0  0  0  0
  -24.3590   -9.4267   21.9174 C   0  0  0  0  0  0
  -23.6301   -8.2286   22.0765 C   0  0  0  0  0  0
  -22.4322   -8.0288   21.3536 C   0  0  0  0  0  0
  -21.9882   -9.0242   20.4662 C   0  0  0  0  0  0
  -22.7157  -10.2159   20.3059 C   0  0  0  0  0  0
  -21.6893   -6.0717   22.5269 C   0  0  0  0  0  0
  -21.3977   -6.5624   23.8184 C   0  0  0  0  0  0
  -21.3680   -5.6798   24.9168 C   0  0  0  0  0  0
  -21.6088   -4.3064   24.7231 C   0  0  0  0  0  0
  -21.8816   -3.8132   23.4357 C   0  0  0  0  0  0
  -21.9203   -4.6934   22.3401 C   0  0  0  0  0  0
  -22.7862  -13.5255   21.1944 C   0  0  0  0  0  0
  -22.1693   -4.2099   21.0996 F   0  0  0  0  0  0
  -21.5667   -3.4571   25.7764 F   0  0  0  0  0  0
  -30.0079  -13.3774   20.3605 N   0  0  0  0  0  0
  -26.2978  -12.9343   20.3416 N   0  0  0  0  0  0
  -25.9291  -11.6506   20.5817 N   0  0  0  0  0  0
  -22.0479  -12.8195   22.0424 N   0  0  0  0  0  0
  -25.4301  -15.1867   20.4208 N   0  0  0  0  0  0
  -31.9543  -14.4836   20.2732 O   0  0  0  0  0  0
  -21.6730   -6.8851   21.4235 O   0  0  0  0  0  0
  -22.3611  -14.5627   20.6830 O   0  0  0  0  0  0
  -24.6075  -31.8711   23.2214 C   0  0  0  0  0  0
  -25.9014  -32.4801   23.8470 C   0  0  1  0  0  0
  -27.2212  -27.4558   20.0695 C   0  0  0  0  0  0
  -25.5903  -33.8621   24.2381 N   0  0  0  0  0  0
  -23.3925  -30.4991   21.5601 C   0  0  2  0  0  0
  -24.8362  -28.9730   20.1156 C   0  0  0  0  0  0
  -22.7378  -29.4688   22.5061 C   0  0  0  0  0  0
  -18.0273  -28.1335   22.8520 C   0  0  0  0  0  0
  -24.1553  -36.7296   23.2659 C   0  0  0  0  0  0
  -25.9217  -30.8376   21.3753 C   0  0  0  0  0  0
  -25.9995  -29.4758   20.7165 C   0  0  0  0  0  0
  -27.1900  -28.7144   20.7081 C   0  0  0  0  0  0
  -26.0382  -26.9521   19.4880 C   0  0  0  0  0  0
  -24.8515  -27.7039   19.5062 C   0  0  0  0  0  0
  -23.5987  -29.8410   20.1719 C   0  0  0  0  0  0
  -25.4153  -36.3090   24.0374 C   0  0  1  0  0  0
  -20.5866  -28.3623   23.1361 C   0  0  2  0  0  0
  -20.6778  -26.9369   22.5432 C   0  0  0  0  0  0
  -19.5759  -26.6365   21.5240 C   0  0  0  0  0  0
  -18.1925  -26.7887   22.1636 C   0  0  0  0  0  0
  -19.1492  -28.8778   23.2939 C   0  0  0  0  0  0
  -18.9430  -30.1392   23.8958 C   0  0  0  0  0  0
  -17.6425  -30.6551   24.0556 C   0  0  0  0  0  0
  -25.9084  -34.9451   23.5173 C   0  0  0  0  0  0
  -16.5330  -29.9056   23.6312 C   0  0  0  0  0  0
  -16.7257  -28.6447   23.0374 C   0  0  0  0  0  0
  -26.4465  -31.6515   25.0737 C   0  0  0  0  0  0
  -25.3772  -31.3596   26.1517 C   0  0  0  0  0  0
  -27.0227  -30.2957   24.5982 C   0  0  0  0  0  0
  -27.6047  -32.4204   25.7491 C   0  0  0  0  0  0
  -27.5627  -37.1817   24.8487 C   0  0  0  0  0  0
  -21.4099  -29.3000   22.3765 N   0  0  0  0  0  0
  -26.4345  -37.3766   23.9424 N   0  0  0  0  0  0
  -24.6579  -31.0825   22.1102 N   0  0  0  0  0  0
  -23.4171  -28.8206   23.3066 O   0  0  0  0  0  0
  -28.3728  -26.7045   20.0821 O   0  0  0  0  0  0
  -26.5612  -34.8891   22.4741 O   0  0  0  0  0  0
  -23.5275  -32.1421   23.7649 O   0  0  0  0  0  0
  -28.4474  -23.4626   20.2765 C   0  0  0  0  0  0
  -28.3111  -23.7648   18.9446 C   0  0  0  0  0  0
  -31.4684  -18.4919   16.8178 C   0  0  0  0  0  0
  -32.0308  -18.3972   18.2439 C   0  0  0  0  0  0
  -30.1001  -17.7907   16.6618 C   0  0  0  0  0  0
  -31.9726  -16.9592   18.7860 C   0  0  0  0  0  0
  -29.5439  -17.2125   17.9818 C   0  0  0  0  0  0
  -30.5658  -16.2921   18.6980 C   0  0  0  0  0  0
  -27.4282  -17.9760   22.6543 C   0  0  0  0  0  0
  -31.0567  -18.1033   23.8953 C   0  0  0  0  0  0
  -28.4080  -25.0295   18.1408 C   0  0  0  0  0  0
  -28.4151  -19.6862   20.9995 C   0  0  0  0  0  0
  -28.3163  -21.1660   21.4652 C   0  0  0  0  0  0
  -29.1701  -16.4392   20.8172 C   0  0  0  0  0  0
  -28.9297  -26.3161   18.8225 C   0  0  0  0  0  0
  -28.7106  -18.6332   22.0946 C   0  0  2  0  0  0
  -29.8034  -17.5958   21.6484 C   0  0  1  0  0  0
  -30.7045  -17.0762   22.8094 C   0  0  0  0  0  0
  -28.0029  -22.5908   18.2676 N   0  0  0  0  0  0
  -27.9548  -21.6096   19.0974 N   0  0  0  0  0  0
  -28.2484  -22.0902   20.3304 N   0  0  0  0  0  0
  -30.1002  -15.6556   19.9750 N   0  0  0  0  0  0
  -31.8711  -16.6809   22.3023 F   0  0  0  0  0  0
  -30.1347  -16.0419   23.4289 F   0  0  0  0  0  0
  -31.4545  -12.4033   19.1208 H   0  0  0  0  0  0
  -30.3071  -11.3377   19.8852 H   0  0  0  0  0  0
  -29.7070  -11.6630   17.4665 H   0  0  0  0  0  0
  -29.6329  -13.3992   17.6922 H   0  0  0  0  0  0
  -27.8394  -11.2753   18.8933 H   0  0  0  0  0  0
  -27.3369  -12.5333   17.8007 H   0  0  0  0  0  0
  -27.6568  -14.2429   19.4953 H   0  0  0  0  0  0
  -28.7110  -12.0782   21.3774 H   0  0  0  0  0  0
  -28.5022  -13.7442   21.8193 H   0  0  0  0  0  0
  -25.2697   -9.5817   22.4781 H   0  0  0  0  0  0
  -24.0053   -7.4692   22.7456 H   0  0  0  0  0  0
  -21.0816   -8.8676   19.8972 H   0  0  0  0  0  0
  -22.3480  -10.9713   19.6227 H   0  0  0  0  0  0
  -21.1908   -7.6121   23.9629 H   0  0  0  0  0  0
  -21.1550   -6.0581   25.9064 H   0  0  0  0  0  0
  -22.0575   -2.7606   23.2884 H   0  0  0  0  0  0
  -22.4133  -11.9824   22.4710 H   0  0  0  0  0  0
  -21.1110  -13.1150   22.2756 H   0  0  0  0  0  0
  -24.6677  -15.8458   20.5358 H   0  0  0  0  0  0
  -26.2820  -15.6176   20.0899 H   0  0  0  0  0  0
  -26.7052  -32.5520   23.1220 H   0  0  0  0  0  0
  -25.0009  -33.9803   25.0469 H   0  0  0  0  0  0
  -22.6802  -31.3161   21.4350 H   0  0  0  0  0  0
  -23.3808  -35.9645   23.3293 H   0  0  0  0  0  0
  -24.3671  -36.8905   22.2082 H   0  0  0  0  0  0
  -23.7325  -37.6525   23.6634 H   0  0  0  0  0  0
  -26.0370  -31.6148   20.6181 H   0  0  0  0  0  0
  -26.8085  -30.8811   21.9948 H   0  0  0  0  0  0
  -28.0831  -29.0848   21.1919 H   0  0  0  0  0  0
  -26.0161  -25.9653   19.0525 H   0  0  0  0  0  0
  -23.9522  -27.3004   19.0636 H   0  0  0  0  0  0
  -23.7045  -30.6274   19.4234 H   0  0  0  0  0  0
  -22.7201  -29.2696   19.8691 H   0  0  0  0  0  0
  -25.1358  -36.1957   25.0860 H   0  0  0  0  0  0
  -20.9938  -28.3162   24.1504 H   0  0  0  0  0  0
  -20.5751  -26.2194   23.3589 H   0  0  0  0  0  0
  -21.6643  -26.7486   22.1190 H   0  0  0  0  0  0
  -19.6938  -25.6294   21.1222 H   0  0  0  0  0  0
  -19.6704  -27.3194   20.6787 H   0  0  0  0  0  0
  -17.4228  -26.6667   21.4001 H   0  0  0  0  0  0
  -18.0314  -25.9973   22.8965 H   0  0  0  0  0  0
  -19.7886  -30.7170   24.2381 H   0  0  0  0  0  0
  -17.4977  -31.6246   24.5121 H   0  0  0  0  0  0
  -15.5317  -30.2985   23.7571 H   0  0  0  0  0  0
  -15.8647  -28.0748   22.7147 H   0  0  0  0  0  0
  -24.5902  -30.6981   25.7872 H   0  0  0  0  0  0
  -24.9011  -32.2736   26.5063 H   0  0  0  0  0  0
  -25.8164  -30.8707   27.0216 H   0  0  0  0  0  0
  -26.2714  -29.6820   24.0980 H   0  0  0  0  0  0
  -27.3970  -29.7077   25.4360 H   0  0  0  0  0  0
  -27.8576  -30.4269   23.9100 H   0  0  0  0  0  0
  -27.2649  -33.3476   26.2094 H   0  0  0  0  0  0
  -28.3824  -32.6770   25.0306 H   0  0  0  0  0  0
  -28.0705  -31.8294   26.5369 H   0  0  0  0  0  0
  -28.2639  -38.0119   24.7532 H   0  0  0  0  0  0
  -28.1122  -36.2647   24.6308 H   0  0  0  0  0  0
  -27.2331  -37.1491   25.8886 H   0  0  0  0  0  0
  -20.9257  -29.8629   21.6917 H   0  0  0  0  0  0
  -26.0239  -38.2875   24.1338 H   0  0  0  0  0  0
  -28.6769  -24.0729   21.1401 H   0  0  0  0  0  0
  -32.1798  -18.0417   16.1182 H   0  0  0  0  0  0
  -31.4038  -19.5396   16.5133 H   0  0  0  0  0  0
  -31.4730  -19.0686   18.8973 H   0  0  0  0  0  0
  -33.0598  -18.7639   18.2562 H   0  0  0  0  0  0
  -30.1772  -16.9923   15.9214 H   0  0  0  0  0  0
  -29.3899  -18.5029   16.2401 H   0  0  0  0  0  0
  -32.6657  -16.3389   18.2165 H   0  0  0  0  0  0
  -32.3580  -16.9719   19.8034 H   0  0  0  0  0  0
  -28.6395  -16.6433   17.7645 H   0  0  0  0  0  0
  -29.2572  -18.0471   18.6198 H   0  0  0  0  0  0
  -30.6817  -15.4679   17.9911 H   0  0  0  0  0  0
  -26.9178  -17.3485   21.9193 H   0  0  0  0  0  0
  -26.7135  -18.7327   22.9832 H   0  0  0  0  0  0
  -27.6575  -17.3372   23.5081 H   0  0  0  0  0  0
  -30.1806  -18.3481   24.4962 H   0  0  0  0  0  0
  -31.4365  -19.0278   23.4556 H   0  0  0  0  0  0
  -31.8018  -17.7101   24.5892 H   0  0  0  0  0  0
  -27.4476  -25.2189   17.6658 H   0  0  0  0  0  0
  -29.0715  -24.8282   17.3001 H   0  0  0  0  0  0
  -29.2341  -19.6768   20.2796 H   0  0  0  0  0  0
  -27.5115  -19.4206   20.4478 H   0  0  0  0  0  0
  -29.2017  -21.4217   22.0467 H   0  0  0  0  0  0
  -27.4559  -21.3289   22.1193 H   0  0  0  0  0  0
  -28.6730  -15.7897   21.5287 H   0  0  0  0  0  0
  -28.3523  -16.8196   20.2066 H   0  0  0  0  0  0
  -28.8333  -27.1360   18.1077 H   0  0  0  0  0  0
  -29.9986  -26.1996   18.9962 H   0  0  0  0  0  0
  -29.1019  -19.2340   22.9049 H   0  0  0  0  0  0
  -30.4920  -18.1385   20.9995 H   0  0  0  0  0  0
  1 25  1  0  0  0
  1 30  2  0  0  0
  1 92  1  0  0  0
  2  3  1  0  0  0
  2 25  1  0  0  0
  2 95  1  0  0  0
  2 96  1  0  0  0
  3  4  1  0  0  0
  3 97  1  0  0  0
  3 98  1  0  0  0
  4  5  1  0  0  0
  4 99  1  0  0  0
  4100  1  0  0  0
  5  6  1  0  0  0
  5 26  1  0  0  0
  5101  1  0  0  0
  6 25  1  0  0  0
  6102  1  0  0  0
  6103  1  0  0  0
  7  8  2  0  0  0
  7 26  1  0  0  0
  7 29  1  0  0  0
  8  9  1  0  0  0
  8 22  1  0  0  0
  9 10  1  0  0  0
  9 27  2  0  0  0
 10 11  2  0  0  0
 10 15  1  0  0  0
 11 12  1  0  0  0
 11104  1  0  0  0
 12 13  2  0  0  0
 12105  1  0  0  0
 13 14  1  0  0  0
 13 31  1  0  0  0
 14 15  2  0  0  0
 14106  1  0  0  0
 15107  1  0  0  0
 16 17  2  0  0  0
 16 21  1  0  0  0
 16 31  1  0  0  0
 17 18  1  0  0  0
 17108  1  0  0  0
 18 19  2  0  0  0
 18109  1  0  0  0
 19 20  1  0  0  0
 19 24  1  0  0  0
 20 21  2  0  0  0
 20110  1  0  0  0
 21 23  1  0  0  0
 22 28  1  0  0  0
 22 32  2  0  0  0
 26 27  1  0  0  0
 28111  1  0  0  0
 28112  1  0  0  0
 29113  1  0  0  0
 29114  1  0  0  0
 33 34  1  0  0  0
 33 66  1  0  0  0
 33 70  2  0  0  0
 34 36  1  0  0  0
 34 59  1  0  0  0
 34115  1  0  0  0
 35 44  2  0  0  0
 35 45  1  0  0  0
 35 68  1  0  0  0
 36 56  1  0  0  0
 36116  1  0  0  0
 37 39  1  0  0  0
 37 47  1  0  0  0
 37 66  1  0  0  0
 37117  1  0  0  0
 38 43  2  0  0  0
 38 46  1  0  0  0
 38 47  1  0  0  0
 39 64  1  0  0  0
 39 67  2  0  0  0
 40 52  1  0  0  0
 40 53  2  0  0  0
 40 58  1  0  0  0
 41118  1  0  0  0
 41119  1  0  0  0
 41120  1  0  0  0
 41 48  1  0  0  0
 42 43  1  0  0  0
 42 66  1  0  0  0
 42121  1  0  0  0
 42122  1  0  0  0
 43 44  1  0  0  0
 44123  1  0  0  0
 45 46  2  0  0  0
 45124  1  0  0  0
 46125  1  0  0  0
 47126  1  0  0  0
 47127  1  0  0  0
 48 56  1  0  0  0
 48 65  1  0  0  0
 48128  1  0  0  0
 49 50  1  0  0  0
 49 53  1  0  0  0
 49 64  1  0  0  0
 49129  1  0  0  0
 50 51  1  0  0  0
 50130  1  0  0  0
 50131  1  0  0  0
 51 52  1  0  0  0
 51132  1  0  0  0
 51133  1  0  0  0
 52134  1  0  0  0
 52135  1  0  0  0
 53 54  1  0  0  0
 54 55  2  0  0  0
 54136  1  0  0  0
 55 57  1  0  0  0
 55137  1  0  0  0
 56 69  2  0  0  0
 57 58  2  0  0  0
 57138  1  0  0  0
 58139  1  0  0  0
 59 60  1  0  0  0
 59 61  1  0  0  0
 59 62  1  0  0  0
 60140  1  0  0  0
 60141  1  0  0  0
 60142  1  0  0  0
 61143  1  0  0  0
 61144  1  0  0  0
 61145  1  0  0  0
 62146  1  0  0  0
 62147  1  0  0  0
 62148  1  0  0  0
 63 65  1  0  0  0
 63149  1  0  0  0
 63150  1  0  0  0
 63151  1  0  0  0
 64152  1  0  0  0
 65153  1  0  0  0
 68 85  1  0  0  0
 71 72  2  0  0  0
 71 91  1  0  0  0
 71154  1  0  0  0
 72 81  1  0  0  0
 72 89  1  0  0  0
 73 74  1  0  0  0
 73 75  1  0  0  0
 73155  1  0  0  0
 73156  1  0  0  0
 74 76  1  0  0  0
 74157  1  0  0  0
 74158  1  0  0  0
 75 77  1  0  0  0
 75159  1  0  0  0
 75160  1  0  0  0
 76 78  1  0  0  0
 76161  1  0  0  0
 76162  1  0  0  0
 77 78  1  0  0  0
 77163  1  0  0  0
 77164  1  0  0  0
 78 92  1  0  0  0
 78165  1  0  0  0
 79166  1  0  0  0
 79167  1  0  0  0
 79168  1  0  0  0
 79 86  1  0  0  0
 80169  1  0  0  0
 80170  1  0  0  0
 80171  1  0  0  0
 80 88  1  0  0  0
 81 85  1  0  0  0
 81172  1  0  0  0
 81173  1  0  0  0
 82 83  1  0  0  0
 82 86  1  0  0  0
 82174  1  0  0  0
 82175  1  0  0  0
 83 91  1  0  0  0
 83176  1  0  0  0
 83177  1  0  0  0
 84 92  1  0  0  0
 84178  1  0  0  0
 84179  1  0  0  0
 84 87  1  0  0  0
 85180  1  0  0  0
 85181  1  0  0  0
 86 87  1  0  0  0
 86182  1  0  0  0
 87 88  1  0  0  0
 87183  1  0  0  0
 88 93  1  0  0  0
 88 94  1  0  0  0
 89 90  2  0  0  0
 90 91  1  0  0  0
M  ISO  4   1 100  68 101  85 101  92 100
M  END
> <chiral flag>
0

> <version>
0

> <s_m_source_file>
/data/baiqing/PycharmProjects/Reinvent-master-3.2/result/LINK_invent/BTK/process_docking_weight1_custom_sum_contain_oxygen_bond_distance_aromatic_linkinvent_7_9_3/rearranged_h_0049.sdf

> <i_m_source_file_index>
49

> <r_mmod_Potential_Energy-OPLS-2005>
318.634216308594

> <r_mmod_Stretch_Energy-OPLS-2005>
45.8415946960449

> <r_mmod_Bend_Energy-OPLS-2005>
141.984252929688

> <r_mmod_Torsional_Energy-OPLS-2005>
414.996246337891

> <r_mmod_Improper_Torsional_Energy-OPLS-2005>
25.5506801605225

> <r_mmod_Van_der_Waal_Energy-OPLS-2005>
143.798614501953

> <r_mmod_Electrostatic_Energy-OPLS-2005>
-295.651885986328

> <r_mmod_Solvation_Energy-OPLS-2005>
-193.749435424805

> <b_mmod_Minimization_Converged-OPLS-2005>
0

> <r_mmod_RMS_Derivative-OPLS-2005>
7.8696608543396

$$$$
51
                    3D
 Structure written by MMmdl.
164172  0  0  1  0            999 V2000
  -30.6111  -14.6784   20.5082 C   0  0  0  0  0  0
  -30.4388  -12.4179   19.4603 C   0  0  0  0  0  0
  -29.5098  -12.5201   18.2298 C   0  0  0  0  0  0
  -28.0343  -12.3468   18.6405 C   0  0  0  0  0  0
  -27.6526  -13.2234   19.8630 C   0  0  2  0  0  0
  -28.6968  -13.0939   20.9940 C   0  0  0  0  0  0
  -25.2558  -13.8182   20.5706 C   0  0  0  0  0  0
  -24.1834  -13.0440   20.9190 C   0  0  0  0  0  0
  -24.6413  -11.6912   20.8741 C   0  0  0  0  0  0
  -23.9085  -10.4294   21.0411 C   0  0  0  0  0  0
  -24.3628   -9.4202   21.9191 C   0  0  0  0  0  0
  -23.6300   -8.2237   22.0758 C   0  0  0  0  0  0
  -22.4278   -8.0282   21.3546 C   0  0  0  0  0  0
  -21.9921   -9.0262   20.4647 C   0  0  0  0  0  0
  -22.7257  -10.2138   20.3059 C   0  0  0  0  0  0
  -21.6853   -6.0741   22.5286 C   0  0  0  0  0  0
  -21.4021   -6.5651   23.8218 C   0  0  0  0  0  0
  -21.3655   -5.6805   24.9179 C   0  0  0  0  0  0
  -21.6031   -4.3063   24.7228 C   0  0  0  0  0  0
  -21.8823   -3.8151   23.4350 C   0  0  0  0  0  0
  -21.9196   -4.6969   22.3408 C   0  0  0  0  0  0
  -22.7850  -13.5220   21.1855 C   0  0  0  0  0  0
  -22.1662   -4.2151   21.0990 F   0  0  0  0  0  0
  -21.5621   -3.4550   25.7743 F   0  0  0  0  0  0
  -30.0071  -13.4459   20.4316 N   0  0  0  0  0  0
  -26.2997  -12.9384   20.3329 N   0  0  0  0  0  0
  -25.9348  -11.6530   20.5759 N   0  0  0  0  0  0
  -22.0500  -12.8208   22.0405 N   0  0  0  0  0  0
  -25.4260  -15.1911   20.4145 N   0  0  0  0  0  0
  -31.7632  -14.8175   20.0856 O   0  0  0  0  0  0
  -21.6629   -6.8885   21.4248 O   0  0  0  0  0  0
  -22.3530  -14.5527   20.6704 O   0  0  0  0  0  0
  -24.6271  -31.8588   23.2021 C   0  0  0  0  0  0
  -25.9112  -32.4777   23.8352 C   0  0  1  0  0  0
  -27.2239  -27.3053   20.1174 C   0  0  0  0  0  0
  -25.5924  -33.8581   24.2275 N   0  0  0  0  0  0
  -23.4204  -30.4824   21.5450 C   0  0  2  0  0  0
  -24.8667  -28.9355   20.1106 C   0  0  0  0  0  0
  -22.7469  -29.4624   22.4939 C   0  0  0  0  0  0
  -18.0282  -28.1372   22.8479 C   0  0  0  0  0  0
  -24.1491  -36.7297   23.2640 C   0  0  0  0  0  0
  -25.9627  -30.7850   21.3741 C   0  0  0  0  0  0
  -26.0368  -29.4117   20.7153 C   0  0  0  0  0  0
  -27.2180  -28.6087   20.7086 C   0  0  0  0  0  0
  -26.0305  -26.8894   19.4818 C   0  0  0  0  0  0
  -24.8665  -27.6804   19.4843 C   0  0  0  0  0  0
  -23.6345  -29.8162   20.1609 C   0  0  0  0  0  0
  -25.4115  -36.3085   24.0331 C   0  0  1  0  0  0
  -20.5882  -28.3679   23.1278 C   0  0  2  0  0  0
  -20.6767  -26.9403   22.5403 C   0  0  0  0  0  0
  -19.5756  -26.6370   21.5197 C   0  0  0  0  0  0
  -18.1931  -26.7916   22.1609 C   0  0  0  0  0  0
  -19.1533  -28.8840   23.2876 C   0  0  0  0  0  0
  -18.9458  -30.1439   23.8899 C   0  0  0  0  0  0
  -17.6459  -30.6578   24.0553 C   0  0  0  0  0  0
  -25.9050  -34.9455   23.5102 C   0  0  0  0  0  0
  -16.5350  -29.9074   23.6324 C   0  0  0  0  0  0
  -16.7272  -28.6486   23.0362 C   0  0  0  0  0  0
  -26.4491  -31.6596   25.0730 C   0  0  0  0  0  0
  -25.3722  -31.3732   26.1455 C   0  0  0  0  0  0
  -27.0339  -30.3020   24.6193 C   0  0  0  0  0  0
  -27.6044  -32.4339   25.7509 C   0  0  0  0  0  0
  -27.5586  -37.1804   24.8465 C   0  0  0  0  0  0
  -21.4180  -29.3044   22.3680 N   0  0  0  0  0  0
  -26.4297  -37.3777   23.9410 N   0  0  0  0  0  0
  -24.6890  -31.0589   22.0976 N   0  0  0  0  0  0
  -23.4192  -28.8166   23.3023 O   0  0  0  0  0  0
  -28.3373  -26.4458   20.1824 O   0  0  0  0  0  0
  -26.5619  -34.8922   22.4670 O   0  0  0  0  0  0
  -23.5436  -32.1394   23.7344 O   0  0  0  0  0  0
  -28.3965  -20.4360   19.4381 C   0  0  0  0  0  0
  -29.2096  -20.0907   20.4951 C   0  0  0  0  0  0
  -29.0399  -22.3991   20.3306 C   0  0  0  0  0  0
  -32.9302  -21.4270   22.9713 C   0  0  0  0  0  0
  -29.3881  -17.3644   18.8887 C   0  0  0  0  0  0
  -29.5280  -18.6900   21.1347 C   0  0  0  0  0  0
  -29.2132  -23.9478   20.5407 C   0  0  0  0  0  0
  -29.8505  -15.9797   21.0336 C   0  0  0  0  0  0
  -31.9746  -21.2679   21.7827 C   0  0  0  0  0  0
  -30.5059  -21.5365   22.1573 C   0  0  0  0  0  0
  -28.1379  -24.9834   19.9739 C   0  0  0  0  0  0
  -30.0142  -17.4057   20.2938 C   0  0  1  0  0  0
  -29.6022  -21.3442   21.0086 N   0  0  0  0  0  0
  -28.3314  -21.8110   19.3584 N   0  3  0  0  0  0
  -31.4799  -12.5417   19.1583 H   0  0  0  0  0  0
  -30.3771  -11.4260   19.9096 H   0  0  0  0  0  0
  -29.7813  -11.7716   17.4851 H   0  0  0  0  0  0
  -29.6433  -13.4922   17.7518 H   0  0  0  0  0  0
  -27.8800  -11.2939   18.8792 H   0  0  0  0  0  0
  -27.3785  -12.5666   17.7968 H   0  0  0  0  0  0
  -27.6661  -14.2564   19.5154 H   0  0  0  0  0  0
  -28.7173  -12.0753   21.3846 H   0  0  0  0  0  0
  -28.4414  -13.7266   21.8440 H   0  0  0  0  0  0
  -25.2785   -9.5668   22.4748 H   0  0  0  0  0  0
  -24.0006   -7.4633   22.7482 H   0  0  0  0  0  0
  -21.0854   -8.8795   19.8950 H   0  0  0  0  0  0
  -22.3737  -10.9678   19.6155 H   0  0  0  0  0  0
  -21.2013   -7.6160   23.9720 H   0  0  0  0  0  0
  -21.1471   -6.0536   25.9083 H   0  0  0  0  0  0
  -22.0599   -2.7608   23.2858 H   0  0  0  0  0  0
  -22.4145  -11.9882   22.4795 H   0  0  0  0  0  0
  -21.1109  -13.1203   22.2601 H   0  0  0  0  0  0
  -24.6603  -15.8465   20.5266 H   0  0  0  0  0  0
  -26.2824  -15.6322   20.1030 H   0  0  0  0  0  0
  -26.7183  -32.5441   23.1102 H   0  0  0  0  0  0
  -25.0075  -33.9727   25.0422 H   0  0  0  0  0  0
  -22.7150  -31.3038   21.4012 H   0  0  0  0  0  0
  -23.3759  -35.9623   23.3291 H   0  0  0  0  0  0
  -24.3578  -36.8934   22.2056 H   0  0  0  0  0  0
  -23.7241  -37.6491   23.6674 H   0  0  0  0  0  0
  -26.0955  -31.5480   20.6055 H   0  0  0  0  0  0
  -26.8433  -30.8336   22.0028 H   0  0  0  0  0  0
  -28.1146  -28.9683   21.1939 H   0  0  0  0  0  0
  -25.9664  -25.9335   18.9843 H   0  0  0  0  0  0
  -23.9699  -27.3106   19.0042 H   0  0  0  0  0  0
  -23.7513  -30.5915   19.4028 H   0  0  0  0  0  0
  -22.7538  -29.2450   19.8614 H   0  0  0  0  0  0
  -25.1295  -36.1931   25.0825 H   0  0  0  0  0  0
  -20.9972  -28.3245   24.1400 H   0  0  0  0  0  0
  -20.5640  -26.2296   23.3596 H   0  0  0  0  0  0
  -21.6640  -26.7416   22.1223 H   0  0  0  0  0  0
  -19.6915  -25.6272   21.1244 H   0  0  0  0  0  0
  -19.6695  -27.3159   20.6710 H   0  0  0  0  0  0
  -17.4200  -26.6666   21.4009 H   0  0  0  0  0  0
  -18.0331  -26.0042   22.8990 H   0  0  0  0  0  0
  -19.7940  -30.7241   24.2288 H   0  0  0  0  0  0
  -17.5024  -31.6268   24.5138 H   0  0  0  0  0  0
  -15.5352  -30.2988   23.7643 H   0  0  0  0  0  0
  -15.8672  -28.0798   22.7107 H   0  0  0  0  0  0
  -24.5888  -30.7096   25.7778 H   0  0  0  0  0  0
  -24.8924  -32.2900   26.4894 H   0  0  0  0  0  0
  -25.8042  -30.8893   27.0222 H   0  0  0  0  0  0
  -26.2916  -29.6772   24.1213 H   0  0  0  0  0  0
  -27.4026  -29.7280   25.4703 H   0  0  0  0  0  0
  -27.8790  -30.4312   23.9430 H   0  0  0  0  0  0
  -27.2640  -33.3625   26.2103 H   0  0  0  0  0  0
  -28.3843  -32.6928   25.0337 H   0  0  0  0  0  0
  -28.0725  -31.8460   26.5411 H   0  0  0  0  0  0
  -28.2600  -38.0108   24.7518 H   0  0  0  0  0  0
  -28.1091  -36.2637   24.6282 H   0  0  0  0  0  0
  -27.2308  -37.1444   25.8872 H   0  0  0  0  0  0
  -20.9352  -29.8771   21.6896 H   0  0  0  0  0  0
  -26.0177  -38.2858   24.1398 H   0  0  0  0  0  0
  -27.8406  -19.8105   18.7538 H   0  0  0  0  0  0
  -33.9581  -21.2140   22.6751 H   0  0  0  0  0  0
  -32.6739  -20.7436   23.7819 H   0  0  0  0  0  0
  -32.9056  -22.4423   23.3687 H   0  0  0  0  0  0
  -29.6701  -18.2403   18.3044 H   0  0  0  0  0  0
  -28.2994  -17.3209   18.9379 H   0  0  0  0  0  0
  -29.7280  -16.4953   18.3251 H   0  0  0  0  0  0
  -28.6046  -18.3993   21.6374 H   0  0  0  0  0  0
  -30.2369  -18.8264   21.9493 H   0  0  0  0  0  0
  -30.1969  -24.1852   20.1369 H   0  0  0  0  0  0
  -29.2733  -24.1091   21.6149 H   0  0  0  0  0  0
  -28.7835  -15.7751   21.0948 H   0  0  0  0  0  0
  -30.1740  -16.1005   22.0672 H   0  0  0  0  0  0
  -32.0765  -20.2593   21.3803 H   0  0  0  0  0  0
  -32.2784  -21.9446   20.9833 H   0  0  0  0  0  0
  -30.3956  -22.5432   22.5537 H   0  0  0  0  0  0
  -30.1770  -20.8689   22.9541 H   0  0  0  0  0  0
  -27.1840  -24.6943   20.4182 H   0  0  0  0  0  0
  -28.0431  -24.8233   18.8992 H   0  0  0  0  0  0
  -31.0838  -17.5494   20.1284 H   0  0  0  0  0  0
  -27.8042  -22.3066   18.6503 H   0  0  0  0  0  0
  1 25  1  0  0  0
  1 30  2  0  0  0
  1 78  1  0  0  0
  2  3  1  0  0  0
  2 25  1  0  0  0
  2 85  1  0  0  0
  2 86  1  0  0  0
  3  4  1  0  0  0
  3 87  1  0  0  0
  3 88  1  0  0  0
  4  5  1  0  0  0
  4 89  1  0  0  0
  4 90  1  0  0  0
  5  6  1  0  0  0
  5 26  1  0  0  0
  5 91  1  0  0  0
  6 25  1  0  0  0
  6 92  1  0  0  0
  6 93  1  0  0  0
  7  8  2  0  0  0
  7 26  1  0  0  0
  7 29  1  0  0  0
  8  9  1  0  0  0
  8 22  1  0  0  0
  9 10  1  0  0  0
  9 27  2  0  0  0
 10 11  2  0  0  0
 10 15  1  0  0  0
 11 12  1  0  0  0
 11 94  1  0  0  0
 12 13  2  0  0  0
 12 95  1  0  0  0
 13 14  1  0  0  0
 13 31  1  0  0  0
 14 15  2  0  0  0
 14 96  1  0  0  0
 15 97  1  0  0  0
 16 17  2  0  0  0
 16 21  1  0  0  0
 16 31  1  0  0  0
 17 18  1  0  0  0
 17 98  1  0  0  0
 18 19  2  0  0  0
 18 99  1  0  0  0
 19 20  1  0  0  0
 19 24  1  0  0  0
 20 21  2  0  0  0
 20100  1  0  0  0
 21 23  1  0  0  0
 22 28  1  0  0  0
 22 32  2  0  0  0
 26 27  1  0  0  0
 28101  1  0  0  0
 28102  1  0  0  0
 29103  1  0  0  0
 29104  1  0  0  0
 33 34  1  0  0  0
 33 66  1  0  0  0
 33 70  2  0  0  0
 34 36  1  0  0  0
 34 59  1  0  0  0
 34105  1  0  0  0
 35 44  2  0  0  0
 35 45  1  0  0  0
 35 68  1  0  0  0
 36 56  1  0  0  0
 36106  1  0  0  0
 37 39  1  0  0  0
 37 47  1  0  0  0
 37 66  1  0  0  0
 37107  1  0  0  0
 38 43  2  0  0  0
 38 46  1  0  0  0
 38 47  1  0  0  0
 39 64  1  0  0  0
 39 67  2  0  0  0
 40 52  1  0  0  0
 40 53  2  0  0  0
 40 58  1  0  0  0
 41108  1  0  0  0
 41109  1  0  0  0
 41110  1  0  0  0
 41 48  1  0  0  0
 42 43  1  0  0  0
 42 66  1  0  0  0
 42111  1  0  0  0
 42112  1  0  0  0
 43 44  1  0  0  0
 44113  1  0  0  0
 45 46  2  0  0  0
 45114  1  0  0  0
 46115  1  0  0  0
 47116  1  0  0  0
 47117  1  0  0  0
 48 56  1  0  0  0
 48 65  1  0  0  0
 48118  1  0  0  0
 49 50  1  0  0  0
 49 53  1  0  0  0
 49 64  1  0  0  0
 49119  1  0  0  0
 50 51  1  0  0  0
 50120  1  0  0  0
 50121  1  0  0  0
 51 52  1  0  0  0
 51122  1  0  0  0
 51123  1  0  0  0
 52124  1  0  0  0
 52125  1  0  0  0
 53 54  1  0  0  0
 54 55  2  0  0  0
 54126  1  0  0  0
 55 57  1  0  0  0
 55127  1  0  0  0
 56 69  2  0  0  0
 57 58  2  0  0  0
 57128  1  0  0  0
 58129  1  0  0  0
 59 60  1  0  0  0
 59 61  1  0  0  0
 59 62  1  0  0  0
 60130  1  0  0  0
 60131  1  0  0  0
 60132  1  0  0  0
 61133  1  0  0  0
 61134  1  0  0  0
 61135  1  0  0  0
 62136  1  0  0  0
 62137  1  0  0  0
 62138  1  0  0  0
 63 65  1  0  0  0
 63139  1  0  0  0
 63140  1  0  0  0
 63141  1  0  0  0
 64142  1  0  0  0
 65143  1  0  0  0
 68 81  1  0  0  0
 71 72  2  0  0  0
 71 84  1  0  0  0
 71144  1  0  0  0
 72 76  1  0  0  0
 72 83  1  0  0  0
 73 77  1  0  0  0
 73 83  1  0  0  0
 73 84  2  0  0  0
 74 79  1  0  0  0
 74145  1  0  0  0
 74146  1  0  0  0
 74147  1  0  0  0
 75148  1  0  0  0
 75149  1  0  0  0
 75150  1  0  0  0
 75 82  1  0  0  0
 76 82  1  0  0  0
 76151  1  0  0  0
 76152  1  0  0  0
 77 81  1  0  0  0
 77153  1  0  0  0
 77154  1  0  0  0
 78 82  1  0  0  0
 78155  1  0  0  0
 78156  1  0  0  0
 79 80  1  0  0  0
 79157  1  0  0  0
 79158  1  0  0  0
 80 83  1  0  0  0
 80159  1  0  0  0
 80160  1  0  0  0
 81161  1  0  0  0
 81162  1  0  0  0
 82163  1  0  0  0
 84164  1  0  0  0
M  CHG  1  84   1
M  ISO  4   1 100  68 101  78 100  81 101
M  END
> <chiral flag>
0

> <version>
0

> <s_m_source_file>
/data/baiqing/PycharmProjects/Reinvent-master-3.2/result/LINK_invent/BTK/process_docking_weight1_custom_sum_contain_oxygen_bond_distance_aromatic_linkinvent_7_9_3/rearranged_h_0049.sdf

> <i_m_source_file_index>
50

> <r_mmod_Potential_Energy-OPLS-2005>
52.7834777832031

> <r_mmod_Stretch_Energy-OPLS-2005>
100.798065185547

> <r_mmod_Bend_Energy-OPLS-2005>
147.38395690918

> <r_mmod_Torsional_Energy-OPLS-2005>
186.947128295898

> <r_mmod_Improper_Torsional_Energy-OPLS-2005>
2.8935661315918

> <r_mmod_Van_der_Waal_Energy-OPLS-2005>
115.897537231445

> <r_mmod_Electrostatic_Energy-OPLS-2005>
-150.863327026367

> <r_mmod_Solvation_Energy-OPLS-2005>
-407.758392333984

> <b_mmod_Minimization_Converged-OPLS-2005>
0

> <r_mmod_RMS_Derivative-OPLS-2005>
1.41271901130676

$$$$
52
                    3D
 Structure written by MMmdl.
162170  0  0  1  0            999 V2000
  -30.5211  -15.0208   20.4098 C   0  0  0  0  0  0
  -30.4405  -12.6374   19.5084 C   0  0  0  0  0  0
  -29.5254  -12.5400   18.2647 C   0  0  0  0  0  0
  -28.0610  -12.3131   18.6828 C   0  0  0  0  0  0
  -27.6257  -13.2550   19.8356 C   0  0  2  0  0  0
  -28.6665  -13.3170   20.9739 C   0  0  0  0  0  0
  -25.2446  -13.8227   20.5719 C   0  0  0  0  0  0
  -24.1771  -13.0441   20.9237 C   0  0  0  0  0  0
  -24.6397  -11.6928   20.8755 C   0  0  0  0  0  0
  -23.9082  -10.4295   21.0406 C   0  0  0  0  0  0
  -24.3630   -9.4209   21.9182 C   0  0  0  0  0  0
  -23.6304   -8.2246   22.0752 C   0  0  0  0  0  0
  -22.4286   -8.0283   21.3543 C   0  0  0  0  0  0
  -21.9923   -9.0256   20.4644 C   0  0  0  0  0  0
  -22.7254  -10.2134   20.3055 C   0  0  0  0  0  0
  -21.6858   -6.0739   22.5277 C   0  0  0  0  0  0
  -21.4016   -6.5641   23.8210 C   0  0  0  0  0  0
  -21.3660   -5.6794   24.9172 C   0  0  0  0  0  0
  -21.6047   -4.3056   24.7223 C   0  0  0  0  0  0
  -21.8819   -3.8149   23.4344 C   0  0  0  0  0  0
  -21.9196   -4.6966   22.3401 C   0  0  0  0  0  0
  -22.7790  -13.5205   21.1887 C   0  0  0  0  0  0
  -22.1663   -4.2152   21.0980 F   0  0  0  0  0  0
  -21.5628   -3.4538   25.7736 F   0  0  0  0  0  0
  -29.9336  -13.7496   20.3703 N   0  0  0  0  0  0
  -26.2871  -12.9467   20.3241 N   0  0  0  0  0  0
  -25.9331  -11.6590   20.5735 N   0  0  0  0  0  0
  -22.0447  -12.8188   22.0442 N   0  0  0  0  0  0
  -25.4101  -15.1958   20.4137 N   0  0  0  0  0  0
  -31.7271  -15.0709   20.1430 O   0  0  0  0  0  0
  -21.6647   -6.8883   21.4241 O   0  0  0  0  0  0
  -22.3470  -14.5507   20.6730 O   0  0  0  0  0  0
  -24.6495  -31.8389   23.1846 C   0  0  0  0  0  0
  -25.9239  -32.4669   23.8255 C   0  0  1  0  0  0
  -27.2127  -27.0747   20.1592 C   0  0  0  0  0  0
  -25.5963  -33.8478   24.2164 N   0  0  0  0  0  0
  -23.4562  -30.4577   21.5313 C   0  0  2  0  0  0
  -24.9070  -28.8780   20.1091 C   0  0  0  0  0  0
  -22.7601  -29.4521   22.4838 C   0  0  0  0  0  0
  -18.0312  -28.1399   22.8477 C   0  0  0  0  0  0
  -24.1493  -36.7242   23.2643 C   0  0  0  0  0  0
  -26.0178  -30.6922   21.3949 C   0  0  0  0  0  0
  -26.0873  -29.2986   20.7354 C   0  0  0  0  0  0
  -27.2394  -28.4138   20.7436 C   0  0  0  0  0  0
  -26.0072  -26.7797   19.4811 C   0  0  0  0  0  0
  -24.8840  -27.6342   19.4644 C   0  0  0  0  0  0
  -23.6867  -29.7871   20.1515 C   0  0  0  0  0  0
  -25.4128  -36.3016   24.0311 C   0  0  1  0  0  0
  -20.5929  -28.3732   23.1220 C   0  0  2  0  0  0
  -20.6795  -26.9428   22.5403 C   0  0  0  0  0  0
  -19.5766  -26.6380   21.5215 C   0  0  0  0  0  0
  -18.1948  -26.7936   22.1626 C   0  0  0  0  0  0
  -19.1570  -28.8885   23.2839 C   0  0  0  0  0  0
  -18.9483  -30.1479   23.8867 C   0  0  0  0  0  0
  -17.6478  -30.6593   24.0557 C   0  0  0  0  0  0
  -25.9083  -34.9393   23.5049 C   0  0  0  0  0  0
  -16.5369  -29.9084   23.6338 C   0  0  0  0  0  0
  -16.7295  -28.6503   23.0360 C   0  0  0  0  0  0
  -26.4537  -31.6558   25.0722 C   0  0  0  0  0  0
  -25.3700  -31.3766   26.1401 C   0  0  0  0  0  0
  -27.0413  -30.2944   24.6355 C   0  0  0  0  0  0
  -27.6054  -32.4339   25.7513 C   0  0  0  0  0  0
  -27.5575  -37.1778   24.8465 C   0  0  0  0  0  0
  -21.4286  -29.3047   22.3585 N   0  0  0  0  0  0
  -26.4287  -37.3734   23.9406 N   0  0  0  0  0  0
  -24.7280  -31.0190   22.0913 N   0  0  0  0  0  0
  -23.4216  -28.8072   23.3014 O   0  0  0  0  0  0
  -28.2309  -26.0325   20.2468 O   0  0  0  0  0  0
  -26.5675  -34.8898   22.4632 O   0  0  0  0  0  0
  -23.5597  -32.1298   23.7022 O   0  0  0  0  0  0
  -29.1107  -20.7558   20.4641 C   0  0  0  0  0  0
  -28.2736  -21.8274   19.9965 C   0  0  0  0  0  0
  -29.8252  -22.8483   21.0788 C   0  0  0  0  0  0
  -27.0011  -21.6505   19.2305 C   0  0  0  0  0  0
  -32.2275  -23.5301   21.2723 C   0  0  0  0  0  0
  -30.7734  -23.4338   23.3222 C   0  0  0  0  0  0
  -30.5285  -25.2685   21.6901 C   0  0  0  0  0  0
  -28.9455  -19.0828   20.5629 C   0  0  0  0  0  0
  -30.0660  -17.7976   20.3807 C   0  0  0  0  0  0
  -27.8535  -24.5456   20.0203 C   0  0  0  0  0  0
  -30.8007  -23.7661   21.8147 C   0  0  0  0  0  0
  -30.0673  -21.5012   21.1574 N   0  0  0  0  0  0
  -28.6897  -23.1946   20.3727 N   0  0  0  0  0  0
  -29.7480  -16.2265   20.5398 N   0  0  0  0  0  0
  -31.4717  -12.8038   19.1935 H   0  0  0  0  0  0
  -30.4489  -11.6956   20.0596 H   0  0  0  0  0  0
  -29.8583  -11.7334   17.6100 H   0  0  0  0  0  0
  -29.6012  -13.4601   17.6830 H   0  0  0  0  0  0
  -27.9687  -11.2745   19.0026 H   0  0  0  0  0  0
  -27.3978  -12.4280   17.8244 H   0  0  0  0  0  0
  -27.5781  -14.2500   19.3919 H   0  0  0  0  0  0
  -28.7713  -12.3498   21.4679 H   0  0  0  0  0  0
  -28.3524  -14.0258   21.7414 H   0  0  0  0  0  0
  -25.2772   -9.5687   22.4760 H   0  0  0  0  0  0
  -24.0013   -7.4638   22.7473 H   0  0  0  0  0  0
  -21.0854   -8.8776   19.8948 H   0  0  0  0  0  0
  -22.3710  -10.9674   19.6166 H   0  0  0  0  0  0
  -21.2005   -7.6148   23.9713 H   0  0  0  0  0  0
  -21.1483   -6.0523   25.9075 H   0  0  0  0  0  0
  -22.0598   -2.7611   23.2843 H   0  0  0  0  0  0
  -22.4080  -11.9857   22.4831 H   0  0  0  0  0  0
  -21.1057  -13.1191   22.2643 H   0  0  0  0  0  0
  -24.6376  -15.8443   20.5201 H   0  0  0  0  0  0
  -26.2465  -15.6348   20.0521 H   0  0  0  0  0  0
  -26.7306  -32.5254   23.0979 H   0  0  0  0  0  0
  -25.0075  -33.9587   25.0287 H   0  0  0  0  0  0
  -22.7615  -31.2855   21.3738 H   0  0  0  0  0  0
  -23.3764  -35.9565   23.3288 H   0  0  0  0  0  0
  -24.3575  -36.8897   22.2060 H   0  0  0  0  0  0
  -23.7242  -37.6428   23.6698 H   0  0  0  0  0  0
  -26.1830  -31.4435   20.6215 H   0  0  0  0  0  0
  -26.8843  -30.7422   22.0426 H   0  0  0  0  0  0
  -28.1334  -28.7276   21.2639 H   0  0  0  0  0  0
  -25.8878  -25.8342   18.9752 H   0  0  0  0  0  0
  -23.9861  -27.3084   18.9573 H   0  0  0  0  0  0
  -23.8285  -30.5616   19.3970 H   0  0  0  0  0  0
  -22.8001  -29.2332   19.8377 H   0  0  0  0  0  0
  -25.1319  -36.1836   25.0803 H   0  0  0  0  0  0
  -21.0021  -28.3328   24.1341 H   0  0  0  0  0  0
  -20.5689  -26.2347   23.3629 H   0  0  0  0  0  0
  -21.6659  -26.7426   22.1198 H   0  0  0  0  0  0
  -19.6925  -25.6283   21.1264 H   0  0  0  0  0  0
  -19.6702  -27.3175   20.6732 H   0  0  0  0  0  0
  -17.4216  -26.6683   21.4030 H   0  0  0  0  0  0
  -18.0344  -26.0085   22.9030 H   0  0  0  0  0  0
  -19.7957  -30.7305   24.2224 H   0  0  0  0  0  0
  -17.5028  -31.6270   24.5164 H   0  0  0  0  0  0
  -15.5367  -30.2974   23.7680 H   0  0  0  0  0  0
  -15.8697  -28.0809   22.7093 H   0  0  0  0  0  0
  -24.5891  -30.7105   25.7713 H   0  0  0  0  0  0
  -24.8876  -32.2954   26.4747 H   0  0  0  0  0  0
  -25.7962  -30.8987   27.0231 H   0  0  0  0  0  0
  -26.3050  -29.6651   24.1343 H   0  0  0  0  0  0
  -27.3977  -29.7263   25.4958 H   0  0  0  0  0  0
  -27.8979  -30.4159   23.9721 H   0  0  0  0  0  0
  -27.2637  -33.3666   26.2015 H   0  0  0  0  0  0
  -28.3904  -32.6858   25.0371 H   0  0  0  0  0  0
  -28.0679  -31.8517   26.5494 H   0  0  0  0  0  0
  -28.2579  -38.0086   24.7512 H   0  0  0  0  0  0
  -28.1085  -36.2614   24.6294 H   0  0  0  0  0  0
  -27.2291  -37.1423   25.8867 H   0  0  0  0  0  0
  -20.9510  -29.8755   21.6749 H   0  0  0  0  0  0
  -26.0149  -38.2800   24.1410 H   0  0  0  0  0  0
  -26.7949  -20.5986   19.0342 H   0  0  0  0  0  0
  -27.0509  -22.1597   18.2680 H   0  0  0  0  0  0
  -26.1532  -22.0545   19.7840 H   0  0  0  0  0  0
  -32.5511  -22.4991   21.4188 H   0  0  0  0  0  0
  -32.9593  -24.1671   21.7700 H   0  0  0  0  0  0
  -32.2813  -23.7392   20.2032 H   0  0  0  0  0  0
  -31.0602  -22.3993   23.5134 H   0  0  0  0  0  0
  -29.7756  -23.5766   23.7390 H   0  0  0  0  0  0
  -31.4599  -24.0656   23.8865 H   0  0  0  0  0  0
  -30.5543  -25.5902   20.6495 H   0  0  0  0  0  0
  -31.2849  -25.8531   22.2148 H   0  0  0  0  0  0
  -29.5728  -25.5333   22.1409 H   0  0  0  0  0  0
  -28.1438  -18.8265   19.8710 H   0  0  0  0  0  0
  -28.4928  -18.8992   21.5373 H   0  0  0  0  0  0
  -30.8840  -17.9993   21.0726 H   0  0  0  0  0  0
  -30.5106  -17.9073   19.3913 H   0  0  0  0  0  0
  -26.8997  -24.4049   20.5298 H   0  0  0  0  0  0
  -27.6558  -24.4683   18.9514 H   0  0  0  0  0  0
  -28.7759  -16.0338   20.7306 H   0  0  0  0  0  0
  1 25  1  0  0  0
  1 30  2  0  0  0
  1 84  1  0  0  0
  2  3  1  0  0  0
  2 25  1  0  0  0
  2 85  1  0  0  0
  2 86  1  0  0  0
  3  4  1  0  0  0
  3 87  1  0  0  0
  3 88  1  0  0  0
  4  5  1  0  0  0
  4 89  1  0  0  0
  4 90  1  0  0  0
  5  6  1  0  0  0
  5 26  1  0  0  0
  5 91  1  0  0  0
  6 25  1  0  0  0
  6 92  1  0  0  0
  6 93  1  0  0  0
  7  8  2  0  0  0
  7 26  1  0  0  0
  7 29  1  0  0  0
  8  9  1  0  0  0
  8 22  1  0  0  0
  9 10  1  0  0  0
  9 27  2  0  0  0
 10 11  2  0  0  0
 10 15  1  0  0  0
 11 12  1  0  0  0
 11 94  1  0  0  0
 12 13  2  0  0  0
 12 95  1  0  0  0
 13 14  1  0  0  0
 13 31  1  0  0  0
 14 15  2  0  0  0
 14 96  1  0  0  0
 15 97  1  0  0  0
 16 17  2  0  0  0
 16 21  1  0  0  0
 16 31  1  0  0  0
 17 18  1  0  0  0
 17 98  1  0  0  0
 18 19  2  0  0  0
 18 99  1  0  0  0
 19 20  1  0  0  0
 19 24  1  0  0  0
 20 21  2  0  0  0
 20100  1  0  0  0
 21 23  1  0  0  0
 22 28  1  0  0  0
 22 32  2  0  0  0
 26 27  1  0  0  0
 28101  1  0  0  0
 28102  1  0  0  0
 29103  1  0  0  0
 29104  1  0  0  0
 33 34  1  0  0  0
 33 66  1  0  0  0
 33 70  2  0  0  0
 34 36  1  0  0  0
 34 59  1  0  0  0
 34105  1  0  0  0
 35 44  2  0  0  0
 35 45  1  0  0  0
 35 68  1  0  0  0
 36 56  1  0  0  0
 36106  1  0  0  0
 37 39  1  0  0  0
 37 47  1  0  0  0
 37 66  1  0  0  0
 37107  1  0  0  0
 38 43  2  0  0  0
 38 46  1  0  0  0
 38 47  1  0  0  0
 39 64  1  0  0  0
 39 67  2  0  0  0
 40 52  1  0  0  0
 40 53  2  0  0  0
 40 58  1  0  0  0
 41108  1  0  0  0
 41109  1  0  0  0
 41110  1  0  0  0
 41 48  1  0  0  0
 42 43  1  0  0  0
 42 66  1  0  0  0
 42111  1  0  0  0
 42112  1  0  0  0
 43 44  1  0  0  0
 44113  1  0  0  0
 45 46  2  0  0  0
 45114  1  0  0  0
 46115  1  0  0  0
 47116  1  0  0  0
 47117  1  0  0  0
 48 56  1  0  0  0
 48 65  1  0  0  0
 48118  1  0  0  0
 49 50  1  0  0  0
 49 53  1  0  0  0
 49 64  1  0  0  0
 49119  1  0  0  0
 50 51  1  0  0  0
 50120  1  0  0  0
 50121  1  0  0  0
 51 52  1  0  0  0
 51122  1  0  0  0
 51123  1  0  0  0
 52124  1  0  0  0
 52125  1  0  0  0
 53 54  1  0  0  0
 54 55  2  0  0  0
 54126  1  0  0  0
 55 57  1  0  0  0
 55127  1  0  0  0
 56 69  2  0  0  0
 57 58  2  0  0  0
 57128  1  0  0  0
 58129  1  0  0  0
 59 60  1  0  0  0
 59 61  1  0  0  0
 59 62  1  0  0  0
 60130  1  0  0  0
 60131  1  0  0  0
 60132  1  0  0  0
 61133  1  0  0  0
 61134  1  0  0  0
 61135  1  0  0  0
 62136  1  0  0  0
 62137  1  0  0  0
 62138  1  0  0  0
 63 65  1  0  0  0
 63139  1  0  0  0
 63140  1  0  0  0
 63141  1  0  0  0
 64142  1  0  0  0
 65143  1  0  0  0
 68 80  1  0  0  0
 71 72  2  0  0  0
 71 78  1  0  0  0
 71 82  1  0  0  0
 72 74  1  0  0  0
 72 83  1  0  0  0
 73 81  1  0  0  0
 73 82  2  0  0  0
 73 83  1  0  0  0
 74144  1  0  0  0
 74145  1  0  0  0
 74146  1  0  0  0
 75147  1  0  0  0
 75148  1  0  0  0
 75149  1  0  0  0
 75 81  1  0  0  0
 76 81  1  0  0  0
 76150  1  0  0  0
 76151  1  0  0  0
 76152  1  0  0  0
 77 81  1  0  0  0
 77153  1  0  0  0
 77154  1  0  0  0
 77155  1  0  0  0
 78 79  1  0  0  0
 78156  1  0  0  0
 78157  1  0  0  0
 79 84  1  0  0  0
 79158  1  0  0  0
 79159  1  0  0  0
 80 83  1  0  0  0
 80160  1  0  0  0
 80161  1  0  0  0
 84162  1  0  0  0
M  ISO  4   1 100  68 101  80 101  84 100
M  END
> <chiral flag>
0

> <version>
0

> <s_m_source_file>
/data/baiqing/PycharmProjects/Reinvent-master-3.2/result/LINK_invent/BTK/process_docking_weight1_custom_sum_contain_oxygen_bond_distance_aromatic_linkinvent_7_9_3/rearranged_h_0049.sdf

> <i_m_source_file_index>
51

> <r_mmod_Potential_Energy-OPLS-2005>
675.502258300781

> <r_mmod_Stretch_Energy-OPLS-2005>
335.195892333984

> <r_mmod_Bend_Energy-OPLS-2005>
348.097198486328

> <r_mmod_Torsional_Energy-OPLS-2005>
203.957107543945

> <r_mmod_Improper_Torsional_Energy-OPLS-2005>
6.17469453811646

> <r_mmod_Van_der_Waal_Energy-OPLS-2005>
121.007652282715

> <r_mmod_Electrostatic_Energy-OPLS-2005>
-371.174743652344

> <r_mmod_Solvation_Energy-OPLS-2005>
-220.538146972656

> <b_mmod_Minimization_Converged-OPLS-2005>
0

> <r_mmod_RMS_Derivative-OPLS-2005>
0.408471822738647

$$$$
53
                    3D
 Structure written by MMmdl.
164172  0  0  1  0            999 V2000
  -30.7352  -14.4758   20.4769 C   0  0  0  0  0  0
  -30.4071  -12.2770   19.4584 C   0  0  0  0  0  0
  -29.4939  -12.4354   18.2263 C   0  0  0  0  0  0
  -28.0150  -12.3101   18.6390 C   0  0  0  0  0  0
  -27.6415  -13.1997   19.8537 C   0  0  2  0  0  0
  -28.6897  -13.0970   20.9855 C   0  0  0  0  0  0
  -25.2520  -13.8140   20.5712 C   0  0  0  0  0  0
  -24.1759  -13.0411   20.9170 C   0  0  0  0  0  0
  -24.6320  -11.6888   20.8764 C   0  0  0  0  0  0
  -23.9010  -10.4279   21.0428 C   0  0  0  0  0  0
  -24.3579   -9.4206   21.9197 C   0  0  0  0  0  0
  -23.6259   -8.2241   22.0752 C   0  0  0  0  0  0
  -22.4243   -8.0280   21.3549 C   0  0  0  0  0  0
  -21.9885   -9.0248   20.4648 C   0  0  0  0  0  0
  -22.7201  -10.2128   20.3061 C   0  0  0  0  0  0
  -21.6842   -6.0725   22.5273 C   0  0  0  0  0  0
  -21.4009   -6.5626   23.8205 C   0  0  0  0  0  0
  -21.3647   -5.6782   24.9159 C   0  0  0  0  0  0
  -21.6035   -4.3049   24.7209 C   0  0  0  0  0  0
  -21.8825   -3.8135   23.4333 C   0  0  0  0  0  0
  -21.9188   -4.6955   22.3393 C   0  0  0  0  0  0
  -22.7795  -13.5220   21.1845 C   0  0  0  0  0  0
  -22.1667   -4.2148   21.0968 F   0  0  0  0  0  0
  -21.5625   -3.4548   25.7727 F   0  0  0  0  0  0
  -30.0281  -13.3182   20.4212 N   0  0  0  0  0  0
  -26.2909  -12.9267   20.3315 N   0  0  0  0  0  0
  -25.9231  -11.6446   20.5763 N   0  0  0  0  0  0
  -22.0475  -12.8197   22.0426 N   0  0  0  0  0  0
  -25.4273  -15.1863   20.4249 N   0  0  0  0  0  0
  -31.9379  -14.5509   20.2227 O   0  0  0  0  0  0
  -21.6616   -6.8873   21.4238 O   0  0  0  0  0  0
  -22.3493  -14.5554   20.6738 O   0  0  0  0  0  0
  -24.6164  -31.8690   23.2103 C   0  0  0  0  0  0
  -25.9058  -32.4820   23.8377 C   0  0  1  0  0  0
  -27.2307  -27.4191   20.0783 C   0  0  0  0  0  0
  -25.5930  -33.8606   24.2342 N   0  0  0  0  0  0
  -23.4011  -30.4943   21.5544 C   0  0  2  0  0  0
  -24.8426  -28.9568   20.1175 C   0  0  0  0  0  0
  -22.7380  -29.4677   22.5000 C   0  0  0  0  0  0
  -18.0281  -28.1326   22.8509 C   0  0  0  0  0  0
  -24.1496  -36.7302   23.2622 C   0  0  0  0  0  0
  -25.9310  -30.8281   21.3637 C   0  0  0  0  0  0
  -26.0075  -29.4630   20.7050 C   0  0  0  0  0  0
  -27.2009  -28.7021   20.6794 C   0  0  0  0  0  0
  -26.0319  -26.9266   19.5072 C   0  0  0  0  0  0
  -24.8499  -27.6897   19.5180 C   0  0  0  0  0  0
  -23.6047  -29.8247   20.1705 C   0  0  0  0  0  0
  -25.4124  -36.3091   24.0326 C   0  0  1  0  0  0
  -20.5866  -28.3649   23.1304 C   0  0  2  0  0  0
  -20.6777  -26.9378   22.5402 C   0  0  0  0  0  0
  -19.5750  -26.6349   21.5206 C   0  0  0  0  0  0
  -18.1924  -26.7880   22.1613 C   0  0  0  0  0  0
  -19.1521  -28.8805   23.2901 C   0  0  0  0  0  0
  -18.9452  -30.1419   23.8898 C   0  0  0  0  0  0
  -17.6451  -30.6543   24.0574 C   0  0  0  0  0  0
  -25.9038  -34.9453   23.5121 C   0  0  0  0  0  0
  -16.5350  -29.9044   23.6312 C   0  0  0  0  0  0
  -16.7268  -28.6447   23.0355 C   0  0  0  0  0  0
  -26.4498  -31.6571   25.0678 C   0  0  0  0  0  0
  -25.3757  -31.3673   26.1428 C   0  0  0  0  0  0
  -27.0334  -30.3006   24.6071 C   0  0  0  0  0  0
  -27.6054  -32.4308   25.7438 C   0  0  0  0  0  0
  -27.5584  -37.1811   24.8455 C   0  0  0  0  0  0
  -21.4111  -29.3032   22.3697 N   0  0  0  0  0  0
  -26.4314  -37.3766   23.9386 N   0  0  0  0  0  0
  -24.6684  -31.0767   22.1026 N   0  0  0  0  0  0
  -23.4133  -28.8195   23.3033 O   0  0  0  0  0  0
  -28.4313  -26.7236   20.0720 O   0  0  0  0  0  0
  -26.5560  -34.8895   22.4660 O   0  0  0  0  0  0
  -23.5370  -32.1460   23.7508 O   0  0  0  0  0  0
  -30.3436  -16.9556   21.0215 C   0  0  0  0  0  0
  -29.9915  -15.7830   20.4043 C   0  0  0  0  0  0
  -29.1774  -17.4395   19.1754 C   0  0  0  0  0  0
  -27.8205  -16.0888   16.4918 C   0  0  0  0  0  0
  -28.5916  -18.1210   17.9704 C   0  0  0  0  0  0
  -27.4345  -17.3660   17.2689 C   0  0  0  0  0  0
  -29.3761  -21.8258   20.9817 C   0  0  0  0  0  0
  -28.4820  -22.8557   20.2410 C   0  0  0  0  0  0
  -28.9658  -20.3419   20.7652 C   0  0  0  0  0  0
  -28.6508  -24.3302   20.7020 C   0  0  0  0  0  0
  -30.1481  -19.4167   20.3744 C   0  0  0  0  0  0
  -28.5264  -25.3763   19.5654 C   0  0  0  0  0  0
  -29.8409  -17.9714   20.2288 N   0  0  0  0  0  0
  -29.2994  -16.1140   19.2795 N   0  3  0  0  0  0
  -31.4573  -12.3361   19.1633 H   0  0  0  0  0  0
  -30.2777  -11.2938   19.9140 H   0  0  0  0  0  0
  -29.7326  -11.6695   17.4883 H   0  0  0  0  0  0
  -29.6701  -13.3923   17.7367 H   0  0  0  0  0  0
  -27.8369  -11.2636   18.8841 H   0  0  0  0  0  0
  -27.3659  -12.5264   17.7907 H   0  0  0  0  0  0
  -27.6303  -14.2202   19.4898 H   0  0  0  0  0  0
  -28.6504  -12.1142   21.4575 H   0  0  0  0  0  0
  -28.4726  -13.8223   21.7702 H   0  0  0  0  0  0
  -25.2739   -9.5674   22.4747 H   0  0  0  0  0  0
  -23.9987   -7.4611   22.7439 H   0  0  0  0  0  0
  -21.0844   -8.8735   19.8935 H   0  0  0  0  0  0
  -22.3674  -10.9650   19.6154 H   0  0  0  0  0  0
  -21.2016   -7.6135   23.9718 H   0  0  0  0  0  0
  -21.1460   -6.0505   25.9059 H   0  0  0  0  0  0
  -22.0621   -2.7603   23.2824 H   0  0  0  0  0  0
  -22.4118  -11.9847   22.4768 H   0  0  0  0  0  0
  -21.1110  -13.1205   22.2736 H   0  0  0  0  0  0
  -24.6621  -15.8368   20.5629 H   0  0  0  0  0  0
  -26.2956  -15.6498   20.1951 H   0  0  0  0  0  0
  -26.7091  -32.5543   23.1110 H   0  0  0  0  0  0
  -25.0145  -33.9763   25.0542 H   0  0  0  0  0  0
  -22.6932  -31.3138   21.4167 H   0  0  0  0  0  0
  -23.3744  -35.9632   23.3302 H   0  0  0  0  0  0
  -24.3573  -36.8940   22.2022 H   0  0  0  0  0  0
  -23.7285  -37.6536   23.6644 H   0  0  0  0  0  0
  -26.0415  -31.5967   20.5984 H   0  0  0  0  0  0
  -26.8138  -30.8802   21.9863 H   0  0  0  0  0  0
  -28.1058  -29.0949   21.1212 H   0  0  0  0  0  0
  -25.9530  -25.9588   19.0446 H   0  0  0  0  0  0
  -23.9499  -27.2898   19.0732 H   0  0  0  0  0  0
  -23.7078  -30.5958   19.4057 H   0  0  0  0  0  0
  -22.7274  -29.2420   19.8832 H   0  0  0  0  0  0
  -25.1317  -36.1956   25.0821 H   0  0  0  0  0  0
  -20.9997  -28.3245   24.1412 H   0  0  0  0  0  0
  -20.5708  -26.2246   23.3592 H   0  0  0  0  0  0
  -21.6647  -26.7426   22.1183 H   0  0  0  0  0  0
  -19.6917  -25.6263   21.1227 H   0  0  0  0  0  0
  -19.6695  -27.3168   20.6743 H   0  0  0  0  0  0
  -17.4216  -26.6661   21.3986 H   0  0  0  0  0  0
  -18.0319  -25.9974   22.8957 H   0  0  0  0  0  0
  -19.7935  -30.7249   24.2220 H   0  0  0  0  0  0
  -17.5017  -31.6234   24.5167 H   0  0  0  0  0  0
  -15.5350  -30.2971   23.7614 H   0  0  0  0  0  0
  -15.8666  -28.0786   22.7058 H   0  0  0  0  0  0
  -24.5901  -30.7037   25.7800 H   0  0  0  0  0  0
  -24.8914  -32.2805   26.4875 H   0  0  0  0  0  0
  -25.8068  -30.8839   27.0188 H   0  0  0  0  0  0
  -26.2872  -29.6743   24.1163 H   0  0  0  0  0  0
  -27.4164  -29.7290   25.4543 H   0  0  0  0  0  0
  -27.8670  -30.4316   23.9166 H   0  0  0  0  0  0
  -27.2640  -33.3592   26.1995 H   0  0  0  0  0  0
  -28.3834  -32.6915   25.0258 H   0  0  0  0  0  0
  -28.0717  -31.8455   26.5367 H   0  0  0  0  0  0
  -28.2608  -38.0098   24.7543 H   0  0  0  0  0  0
  -28.1093  -36.2653   24.6281 H   0  0  0  0  0  0
  -27.2287  -37.1483   25.8849 H   0  0  0  0  0  0
  -20.9254  -29.8749   21.6926 H   0  0  0  0  0  0
  -26.0218  -38.2841   24.1412 H   0  0  0  0  0  0
  -31.0002  -17.1284   21.8641 H   0  0  0  0  0  0
  -26.9751  -15.7397   15.8971 H   0  0  0  0  0  0
  -28.1015  -15.2608   17.1380 H   0  0  0  0  0  0
  -28.6419  -16.2712   15.7981 H   0  0  0  0  0  0
  -29.4164  -18.3023   17.2821 H   0  0  0  0  0  0
  -28.2343  -19.0971   18.2840 H   0  0  0  0  0  0
  -26.6425  -17.1385   17.9844 H   0  0  0  0  0  0
  -26.9864  -18.0515   16.5510 H   0  0  0  0  0  0
  -29.3736  -22.0401   22.0519 H   0  0  0  0  0  0
  -30.4105  -21.9740   20.6621 H   0  0  0  0  0  0
  -27.4283  -22.5877   20.3634 H   0  0  0  0  0  0
  -28.6913  -22.7778   19.1718 H   0  0  0  0  0  0
  -28.1878  -20.3006   20.0072 H   0  0  0  0  0  0
  -28.4949  -19.9654   21.6752 H   0  0  0  0  0  0
  -29.6183  -24.4732   21.1870 H   0  0  0  0  0  0
  -27.8990  -24.5422   21.4631 H   0  0  0  0  0  0
  -30.9367  -19.4995   21.1234 H   0  0  0  0  0  0
  -30.5893  -19.7458   19.4335 H   0  0  0  0  0  0
  -27.7516  -25.0886   18.8601 H   0  0  0  0  0  0
  -29.4393  -25.3352   18.9703 H   0  0  0  0  0  0
  -29.0517  -15.4719   18.5380 H   0  0  0  0  0  0
  1 25  1  0  0  0
  1 30  2  0  0  0
  1 72  1  0  0  0
  2  3  1  0  0  0
  2 25  1  0  0  0
  2 85  1  0  0  0
  2 86  1  0  0  0
  3  4  1  0  0  0
  3 87  1  0  0  0
  3 88  1  0  0  0
  4  5  1  0  0  0
  4 89  1  0  0  0
  4 90  1  0  0  0
  5  6  1  0  0  0
  5 26  1  0  0  0
  5 91  1  0  0  0
  6 25  1  0  0  0
  6 92  1  0  0  0
  6 93  1  0  0  0
  7  8  2  0  0  0
  7 26  1  0  0  0
  7 29  1  0  0  0
  8  9  1  0  0  0
  8 22  1  0  0  0
  9 10  1  0  0  0
  9 27  2  0  0  0
 10 11  2  0  0  0
 10 15  1  0  0  0
 11 12  1  0  0  0
 11 94  1  0  0  0
 12 13  2  0  0  0
 12 95  1  0  0  0
 13 14  1  0  0  0
 13 31  1  0  0  0
 14 15  2  0  0  0
 14 96  1  0  0  0
 15 97  1  0  0  0
 16 17  2  0  0  0
 16 21  1  0  0  0
 16 31  1  0  0  0
 17 18  1  0  0  0
 17 98  1  0  0  0
 18 19  2  0  0  0
 18 99  1  0  0  0
 19 20  1  0  0  0
 19 24  1  0  0  0
 20 21  2  0  0  0
 20100  1  0  0  0
 21 23  1  0  0  0
 22 28  1  0  0  0
 22 32  2  0  0  0
 26 27  1  0  0  0
 28101  1  0  0  0
 28102  1  0  0  0
 29103  1  0  0  0
 29104  1  0  0  0
 33 34  1  0  0  0
 33 66  1  0  0  0
 33 70  2  0  0  0
 34 36  1  0  0  0
 34 59  1  0  0  0
 34105  1  0  0  0
 35 44  2  0  0  0
 35 45  1  0  0  0
 35 68  1  0  0  0
 36 56  1  0  0  0
 36106  1  0  0  0
 37 39  1  0  0  0
 37 47  1  0  0  0
 37 66  1  0  0  0
 37107  1  0  0  0
 38 43  2  0  0  0
 38 46  1  0  0  0
 38 47  1  0  0  0
 39 64  1  0  0  0
 39 67  2  0  0  0
 40 52  1  0  0  0
 40 53  2  0  0  0
 40 58  1  0  0  0
 41108  1  0  0  0
 41109  1  0  0  0
 41110  1  0  0  0
 41 48  1  0  0  0
 42 43  1  0  0  0
 42 66  1  0  0  0
 42111  1  0  0  0
 42112  1  0  0  0
 43 44  1  0  0  0
 44113  1  0  0  0
 45 46  2  0  0  0
 45114  1  0  0  0
 46115  1  0  0  0
 47116  1  0  0  0
 47117  1  0  0  0
 48 56  1  0  0  0
 48 65  1  0  0  0
 48118  1  0  0  0
 49 50  1  0  0  0
 49 53  1  0  0  0
 49 64  1  0  0  0
 49119  1  0  0  0
 50 51  1  0  0  0
 50120  1  0  0  0
 50121  1  0  0  0
 51 52  1  0  0  0
 51122  1  0  0  0
 51123  1  0  0  0
 52124  1  0  0  0
 52125  1  0  0  0
 53 54  1  0  0  0
 54 55  2  0  0  0
 54126  1  0  0  0
 55 57  1  0  0  0
 55127  1  0  0  0
 56 69  2  0  0  0
 57 58  2  0  0  0
 57128  1  0  0  0
 58129  1  0  0  0
 59 60  1  0  0  0
 59 61  1  0  0  0
 59 62  1  0  0  0
 60130  1  0  0  0
 60131  1  0  0  0
 60132  1  0  0  0
 61133  1  0  0  0
 61134  1  0  0  0
 61135  1  0  0  0
 62136  1  0  0  0
 62137  1  0  0  0
 62138  1  0  0  0
 63 65  1  0  0  0
 63139  1  0  0  0
 63140  1  0  0  0
 63141  1  0  0  0
 64142  1  0  0  0
 65143  1  0  0  0
 68 82  1  0  0  0
 71 72  2  0  0  0
 71 83  1  0  0  0
 71144  1  0  0  0
 72 84  1  0  0  0
 73 75  1  0  0  0
 73 83  1  0  0  0
 73 84  2  0  0  0
 74 76  1  0  0  0
 74145  1  0  0  0
 74146  1  0  0  0
 74147  1  0  0  0
 75 76  1  0  0  0
 75148  1  0  0  0
 75149  1  0  0  0
 76150  1  0  0  0
 76151  1  0  0  0
 77 78  1  0  0  0
 77 79  1  0  0  0
 77152  1  0  0  0
 77153  1  0  0  0
 78 80  1  0  0  0
 78154  1  0  0  0
 78155  1  0  0  0
 79 81  1  0  0  0
 79156  1  0  0  0
 79157  1  0  0  0
 80 82  1  0  0  0
 80158  1  0  0  0
 80159  1  0  0  0
 81 83  1  0  0  0
 81160  1  0  0  0
 81161  1  0  0  0
 82162  1  0  0  0
 82163  1  0  0  0
 84164  1  0  0  0
M  CHG  1  84   1
M  ISO  4   1 100  68 101  72 100  82 101
M  END
> <chiral flag>
0

> <version>
0

> <s_m_source_file>
/data/baiqing/PycharmProjects/Reinvent-master-3.2/result/LINK_invent/BTK/process_docking_weight1_custom_sum_contain_oxygen_bond_distance_aromatic_linkinvent_7_9_3/rearranged_h_0049.sdf

> <i_m_source_file_index>
52

> <r_mmod_Potential_Energy-OPLS-2005>
25.8134632110596

> <r_mmod_Stretch_Energy-OPLS-2005>
37.2137031555176

> <r_mmod_Bend_Energy-OPLS-2005>
116.228187561035

> <r_mmod_Torsional_Energy-OPLS-2005>
274.623779296875

> <r_mmod_Improper_Torsional_Energy-OPLS-2005>
19.6546306610107

> <r_mmod_Van_der_Waal_Energy-OPLS-2005>
118.797439575195

> <r_mmod_Electrostatic_Energy-OPLS-2005>
-171.089218139648

> <r_mmod_Solvation_Energy-OPLS-2005>
-396.083099365234

> <b_mmod_Minimization_Converged-OPLS-2005>
0

> <r_mmod_RMS_Derivative-OPLS-2005>
3.88717794418335

$$$$
54
                    3D
 Structure written by MMmdl.
160168  0  0  1  0            999 V2000
  -30.6979  -14.4832   20.5949 C   0  0  0  0  0  0
  -30.4244  -12.3279   19.4117 C   0  0  0  0  0  0
  -29.4901  -12.5099   18.1984 C   0  0  0  0  0  0
  -28.0131  -12.3624   18.6157 C   0  0  0  0  0  0
  -27.6577  -13.2065   19.8687 C   0  0  2  0  0  0
  -28.6996  -12.9919   20.9871 C   0  0  0  0  0  0
  -25.2577  -13.8159   20.5671 C   0  0  0  0  0  0
  -24.1829  -13.0438   20.9179 C   0  0  0  0  0  0
  -24.6381  -11.6905   20.8727 C   0  0  0  0  0  0
  -23.9050  -10.4294   21.0400 C   0  0  0  0  0  0
  -24.3608   -9.4211   21.9178 C   0  0  0  0  0  0
  -23.6288   -8.2243   22.0748 C   0  0  0  0  0  0
  -22.4269   -8.0280   21.3540 C   0  0  0  0  0  0
  -21.9902   -9.0249   20.4641 C   0  0  0  0  0  0
  -22.7224  -10.2134   20.3049 C   0  0  0  0  0  0
  -21.6854   -6.0735   22.5280 C   0  0  0  0  0  0
  -21.4013   -6.5640   23.8213 C   0  0  0  0  0  0
  -21.3659   -5.6793   24.9174 C   0  0  0  0  0  0
  -21.6044   -4.3054   24.7226 C   0  0  0  0  0  0
  -21.8821   -3.8147   23.4346 C   0  0  0  0  0  0
  -21.9192   -4.6963   22.3400 C   0  0  0  0  0  0
  -22.7857  -13.5239   21.1851 C   0  0  0  0  0  0
  -22.1663   -4.2150   21.0978 F   0  0  0  0  0  0
  -21.5628   -3.4538   25.7738 F   0  0  0  0  0  0
  -30.0254  -13.3110   20.4307 N   0  0  0  0  0  0
  -26.2999  -12.9325   20.3333 N   0  0  0  0  0  0
  -25.9304  -11.6484   20.5741 N   0  0  0  0  0  0
  -22.0497  -12.8224   22.0409 N   0  0  0  0  0  0
  -25.4312  -15.1873   20.4088 N   0  0  0  0  0  0
  -31.8244  -14.6796   20.1308 O   0  0  0  0  0  0
  -21.6636   -6.8875   21.4240 O   0  0  0  0  0  0
  -22.3548  -14.5551   20.6715 O   0  0  0  0  0  0
  -24.6158  -31.8688   23.2087 C   0  0  0  0  0  0
  -25.9047  -32.4825   23.8393 C   0  0  1  0  0  0
  -27.2326  -27.4141   20.1004 C   0  0  0  0  0  0
  -25.5900  -33.8628   24.2330 N   0  0  0  0  0  0
  -23.4043  -30.4893   21.5517 C   0  0  2  0  0  0
  -24.8497  -28.9511   20.1219 C   0  0  0  0  0  0
  -22.7415  -29.4646   22.5006 C   0  0  0  0  0  0
  -18.0269  -28.1362   22.8490 C   0  0  0  0  0  0
  -24.1490  -36.7306   23.2637 C   0  0  0  0  0  0
  -25.9348  -30.8267   21.3660 C   0  0  0  0  0  0
  -26.0123  -29.4581   20.7153 C   0  0  0  0  0  0
  -27.2076  -28.6989   20.6976 C   0  0  0  0  0  0
  -26.0522  -26.9302   19.4970 C   0  0  0  0  0  0
  -24.8654  -27.6870   19.5088 C   0  0  0  0  0  0
  -23.6131  -29.8200   20.1680 C   0  0  0  0  0  0
  -25.4112  -36.3120   24.0339 C   0  0  1  0  0  0
  -20.5856  -28.3657   23.1316 C   0  0  2  0  0  0
  -20.6762  -26.9397   22.5414 C   0  0  0  0  0  0
  -19.5745  -26.6381   21.5203 C   0  0  0  0  0  0
  -18.1918  -26.7908   22.1615 C   0  0  0  0  0  0
  -19.1516  -28.8828   23.2896 C   0  0  0  0  0  0
  -18.9454  -30.1432   23.8908 C   0  0  0  0  0  0
  -17.6458  -30.6580   24.0553 C   0  0  0  0  0  0
  -25.9033  -34.9484   23.5133 C   0  0  0  0  0  0
  -16.5347  -29.9080   23.6323 C   0  0  0  0  0  0
  -16.7257  -28.6491   23.0350 C   0  0  0  0  0  0
  -26.4480  -31.6597   25.0719 C   0  0  0  0  0  0
  -25.3732  -31.3701   26.1458 C   0  0  0  0  0  0
  -27.0320  -30.3040   24.6091 C   0  0  0  0  0  0
  -27.6060  -32.4321   25.7478 C   0  0  0  0  0  0
  -27.5592  -37.1804   24.8469 C   0  0  0  0  0  0
  -21.4145  -29.3026   22.3739 N   0  0  0  0  0  0
  -26.4311  -37.3794   23.9402 N   0  0  0  0  0  0
  -24.6697  -31.0762   22.1002 N   0  0  0  0  0  0
  -23.4182  -28.8198   23.3066 O   0  0  0  0  0  0
  -28.4095  -26.6906   20.0547 O   0  0  0  0  0  0
  -26.5606  -34.8944   22.4699 O   0  0  0  0  0  0
  -23.5346  -32.1465   23.7461 O   0  0  0  0  0  0
  -29.5435  -20.7936   19.3700 C   0  0  0  0  0  0
  -27.8337  -22.0625   21.0443 C   0  0  0  0  0  0
  -28.9090  -20.0871   20.4295 C   0  0  0  0  0  0
  -28.4501  -22.7632   19.9709 C   0  0  0  0  0  0
  -30.4744  -20.1177   18.3839 C   0  0  0  0  0  0
  -26.8272  -22.7114   21.9755 C   0  0  0  0  0  0
  -29.0220  -18.5615   20.6506 C   0  0  0  0  0  0
  -28.0861  -24.2073   19.5668 C   0  0  0  0  0  0
  -30.4490  -17.9912   20.8682 C   0  0  0  0  0  0
  -30.5746  -16.7206   21.7608 C   0  0  0  0  0  0
  -28.4203  -25.3415   20.5787 C   0  0  0  0  0  0
  -28.0791  -20.7460   21.2786 N   0  0  0  0  0  0
  -29.3278  -22.1199   19.1577 N   0  0  0  0  0  0
  -30.0204  -15.4617   21.2294 N   0  0  0  0  0  0
  -31.4658  -12.4422   19.1056 H   0  0  0  0  0  0
  -30.3411  -11.3168   19.8127 H   0  0  0  0  0  0
  -29.7330  -11.7820   17.4229 H   0  0  0  0  0  0
  -29.6493  -13.4940   17.7545 H   0  0  0  0  0  0
  -27.8310  -11.3065   18.8178 H   0  0  0  0  0  0
  -27.3588  -12.6277   17.7844 H   0  0  0  0  0  0
  -27.7004  -14.2536   19.5681 H   0  0  0  0  0  0
  -28.6837  -11.9547   21.3247 H   0  0  0  0  0  0
  -28.4534  -13.5852   21.8685 H   0  0  0  0  0  0
  -25.2755   -9.5692   22.4750 H   0  0  0  0  0  0
  -24.0004   -7.4634   22.7464 H   0  0  0  0  0  0
  -21.0837   -8.8763   19.8942 H   0  0  0  0  0  0
  -22.3681  -10.9669   19.6158 H   0  0  0  0  0  0
  -21.2007   -7.6150   23.9717 H   0  0  0  0  0  0
  -21.1480   -6.0522   25.9078 H   0  0  0  0  0  0
  -22.0600   -2.7610   23.2845 H   0  0  0  0  0  0
  -22.4115  -11.9881   22.4786 H   0  0  0  0  0  0
  -21.1113  -13.1246   22.2614 H   0  0  0  0  0  0
  -24.6667  -15.8448   20.5167 H   0  0  0  0  0  0
  -26.2864  -15.6232   20.0881 H   0  0  0  0  0  0
  -26.7113  -32.5544   23.1154 H   0  0  0  0  0  0
  -25.0061  -33.9793   25.0484 H   0  0  0  0  0  0
  -22.6920  -31.3052   21.4115 H   0  0  0  0  0  0
  -23.3765  -35.9628   23.3326 H   0  0  0  0  0  0
  -24.3582  -36.8896   22.2048 H   0  0  0  0  0  0
  -23.7240  -37.6512   23.6640 H   0  0  0  0  0  0
  -26.0466  -31.5930   20.5979 H   0  0  0  0  0  0
  -26.8208  -30.8808   21.9866 H   0  0  0  0  0  0
  -28.1098  -29.0927   21.1453 H   0  0  0  0  0  0
  -26.0359  -25.9855   18.9812 H   0  0  0  0  0  0
  -23.9751  -27.2968   19.0347 H   0  0  0  0  0  0
  -23.7229  -30.5939   19.4073 H   0  0  0  0  0  0
  -22.7371  -29.2389   19.8735 H   0  0  0  0  0  0
  -25.1286  -36.1994   25.0832 H   0  0  0  0  0  0
  -20.9928  -28.3236   24.1440 H   0  0  0  0  0  0
  -20.5663  -26.2267   23.3602 H   0  0  0  0  0  0
  -21.6634  -26.7449   22.1203 H   0  0  0  0  0  0
  -19.6920  -25.6295   21.1229 H   0  0  0  0  0  0
  -19.6684  -27.3198   20.6740 H   0  0  0  0  0  0
  -17.4184  -26.6652   21.4017 H   0  0  0  0  0  0
  -18.0322  -26.0038   22.9001 H   0  0  0  0  0  0
  -19.7939  -30.7225   24.2290 H   0  0  0  0  0  0
  -17.5025  -31.6262   24.5156 H   0  0  0  0  0  0
  -15.5348  -30.2988   23.7645 H   0  0  0  0  0  0
  -15.8651  -28.0816   22.7064 H   0  0  0  0  0  0
  -24.5903  -30.7059   25.7781 H   0  0  0  0  0  0
  -24.8919  -32.2852   26.4917 H   0  0  0  0  0  0
  -25.8068  -30.8858   27.0212 H   0  0  0  0  0  0
  -26.2871  -29.6783   24.1163 H   0  0  0  0  0  0
  -27.4113  -29.7296   25.4549 H   0  0  0  0  0  0
  -27.8693  -30.4358   23.9235 H   0  0  0  0  0  0
  -27.2683  -33.3618   26.2078 H   0  0  0  0  0  0
  -28.3853  -32.6886   25.0286 H   0  0  0  0  0  0
  -28.0744  -31.8424   26.5371 H   0  0  0  0  0  0
  -28.2612  -38.0104   24.7522 H   0  0  0  0  0  0
  -28.1093  -36.2631   24.6294 H   0  0  0  0  0  0
  -27.2301  -37.1441   25.8873 H   0  0  0  0  0  0
  -20.9315  -29.8764   21.6965 H   0  0  0  0  0  0
  -26.0217  -38.2879   24.1395 H   0  0  0  0  0  0
  -30.0556  -19.1733   18.0378 H   0  0  0  0  0  0
  -31.4396  -19.9225   18.8511 H   0  0  0  0  0  0
  -30.6479  -20.7423   17.5069 H   0  0  0  0  0  0
  -27.3393  -23.3230   22.7181 H   0  0  0  0  0  0
  -26.2409  -21.9627   22.5099 H   0  0  0  0  0  0
  -26.1308  -23.3422   21.4239 H   0  0  0  0  0  0
  -28.5511  -18.0512   19.8100 H   0  0  0  0  0  0
  -28.4134  -18.3071   21.5190 H   0  0  0  0  0  0
  -27.0222  -24.1948   19.3473 H   0  0  0  0  0  0
  -28.5788  -24.4367   18.6215 H   0  0  0  0  0  0
  -31.0340  -18.7678   21.3615 H   0  0  0  0  0  0
  -30.9407  -17.8215   19.9110 H   0  0  0  0  0  0
  -30.0967  -16.9113   22.7224 H   0  0  0  0  0  0
  -31.6296  -16.5657   21.9962 H   0  0  0  0  0  0
  -29.4370  -25.1763   20.9368 H   0  0  0  0  0  0
  -27.7828  -25.2817   21.4606 H   0  0  0  0  0  0
  -29.0824  -15.2254   21.5181 H   0  0  0  0  0  0
  1 25  1  0  0  0
  1 30  2  0  0  0
  1 84  1  0  0  0
  2  3  1  0  0  0
  2 25  1  0  0  0
  2 85  1  0  0  0
  2 86  1  0  0  0
  3  4  1  0  0  0
  3 87  1  0  0  0
  3 88  1  0  0  0
  4  5  1  0  0  0
  4 89  1  0  0  0
  4 90  1  0  0  0
  5  6  1  0  0  0
  5 26  1  0  0  0
  5 91  1  0  0  0
  6 25  1  0  0  0
  6 92  1  0  0  0
  6 93  1  0  0  0
  7  8  2  0  0  0
  7 26  1  0  0  0
  7 29  1  0  0  0
  8  9  1  0  0  0
  8 22  1  0  0  0
  9 10  1  0  0  0
  9 27  2  0  0  0
 10 11  2  0  0  0
 10 15  1  0  0  0
 11 12  1  0  0  0
 11 94  1  0  0  0
 12 13  2  0  0  0
 12 95  1  0  0  0
 13 14  1  0  0  0
 13 31  1  0  0  0
 14 15  2  0  0  0
 14 96  1  0  0  0
 15 97  1  0  0  0
 16 17  2  0  0  0
 16 21  1  0  0  0
 16 31  1  0  0  0
 17 18  1  0  0  0
 17 98  1  0  0  0
 18 19  2  0  0  0
 18 99  1  0  0  0
 19 20  1  0  0  0
 19 24  1  0  0  0
 20 21  2  0  0  0
 20100  1  0  0  0
 21 23  1  0  0  0
 22 28  1  0  0  0
 22 32  2  0  0  0
 26 27  1  0  0  0
 28101  1  0  0  0
 28102  1  0  0  0
 29103  1  0  0  0
 29104  1  0  0  0
 33 34  1  0  0  0
 33 66  1  0  0  0
 33 70  2  0  0  0
 34 36  1  0  0  0
 34 59  1  0  0  0
 34105  1  0  0  0
 35 44  2  0  0  0
 35 45  1  0  0  0
 35 68  1  0  0  0
 36 56  1  0  0  0
 36106  1  0  0  0
 37 39  1  0  0  0
 37 47  1  0  0  0
 37 66  1  0  0  0
 37107  1  0  0  0
 38 43  2  0  0  0
 38 46  1  0  0  0
 38 47  1  0  0  0
 39 64  1  0  0  0
 39 67  2  0  0  0
 40 52  1  0  0  0
 40 53  2  0  0  0
 40 58  1  0  0  0
 41108  1  0  0  0
 41109  1  0  0  0
 41110  1  0  0  0
 41 48  1  0  0  0
 42 43  1  0  0  0
 42 66  1  0  0  0
 42111  1  0  0  0
 42112  1  0  0  0
 43 44  1  0  0  0
 44113  1  0  0  0
 45 46  2  0  0  0
 45114  1  0  0  0
 46115  1  0  0  0
 47116  1  0  0  0
 47117  1  0  0  0
 48 56  1  0  0  0
 48 65  1  0  0  0
 48118  1  0  0  0
 49 50  1  0  0  0
 49 53  1  0  0  0
 49 64  1  0  0  0
 49119  1  0  0  0
 50 51  1  0  0  0
 50120  1  0  0  0
 50121  1  0  0  0
 51 52  1  0  0  0
 51122  1  0  0  0
 51123  1  0  0  0
 52124  1  0  0  0
 52125  1  0  0  0
 53 54  1  0  0  0
 54 55  2  0  0  0
 54126  1  0  0  0
 55 57  1  0  0  0
 55127  1  0  0  0
 56 69  2  0  0  0
 57 58  2  0  0  0
 57128  1  0  0  0
 58129  1  0  0  0
 59 60  1  0  0  0
 59 61  1  0  0  0
 59 62  1  0  0  0
 60130  1  0  0  0
 60131  1  0  0  0
 60132  1  0  0  0
 61133  1  0  0  0
 61134  1  0  0  0
 61135  1  0  0  0
 62136  1  0  0  0
 62137  1  0  0  0
 62138  1  0  0  0
 63 65  1  0  0  0
 63139  1  0  0  0
 63140  1  0  0  0
 63141  1  0  0  0
 64142  1  0  0  0
 65143  1  0  0  0
 68 81  1  0  0  0
 71 73  2  0  0  0
 71 75  1  0  0  0
 71 83  1  0  0  0
 72 74  1  0  0  0
 72 76  1  0  0  0
 72 82  2  0  0  0
 73 77  1  0  0  0
 73 82  1  0  0  0
 74 78  1  0  0  0
 74 83  2  0  0  0
 75144  1  0  0  0
 75145  1  0  0  0
 75146  1  0  0  0
 76147  1  0  0  0
 76148  1  0  0  0
 76149  1  0  0  0
 77 79  1  0  0  0
 77150  1  0  0  0
 77151  1  0  0  0
 78 81  1  0  0  0
 78152  1  0  0  0
 78153  1  0  0  0
 79 80  1  0  0  0
 79154  1  0  0  0
 79155  1  0  0  0
 80 84  1  0  0  0
 80156  1  0  0  0
 80157  1  0  0  0
 81158  1  0  0  0
 81159  1  0  0  0
 84160  1  0  0  0
M  ISO  4   1 100  68 101  81 101  84 100
M  END
> <chiral flag>
0

> <version>
0

> <s_m_source_file>
/data/baiqing/PycharmProjects/Reinvent-master-3.2/result/LINK_invent/BTK/process_docking_weight1_custom_sum_contain_oxygen_bond_distance_aromatic_linkinvent_7_9_3/rearranged_h_0049.sdf

> <i_m_source_file_index>
53

> <r_mmod_Potential_Energy-OPLS-2005>
-51.7948112487793

> <r_mmod_Stretch_Energy-OPLS-2005>
44.2139167785645

> <r_mmod_Bend_Energy-OPLS-2005>
112.529190063477

> <r_mmod_Torsional_Energy-OPLS-2005>
217.24626159668

> <r_mmod_Improper_Torsional_Energy-OPLS-2005>
3.1684627532959

> <r_mmod_Van_der_Waal_Energy-OPLS-2005>
150.443984985352

> <r_mmod_Electrostatic_Energy-OPLS-2005>
-370.294189453125

> <r_mmod_Solvation_Energy-OPLS-2005>
-222.69416809082

> <b_mmod_Minimization_Converged-OPLS-2005>
0

> <r_mmod_RMS_Derivative-OPLS-2005>
1.25639081001282

$$$$
55
                    3D
 Structure written by MMmdl.
176184  0  0  1  0            999 V2000
  -30.6385  -14.7341   20.3983 C   0  0  0  0  0  0
  -30.4391  -12.4235   19.4773 C   0  0  0  0  0  0
  -29.5160  -12.3963   18.2377 C   0  0  0  0  0  0
  -28.0317  -12.2844   18.6504 C   0  0  0  0  0  0
  -27.6324  -13.2000   19.8406 C   0  0  2  0  0  0
  -28.6910  -13.1892   20.9664 C   0  0  0  0  0  0
  -25.2541  -13.8125   20.5758 C   0  0  0  0  0  0
  -24.1781  -13.0418   20.9241 C   0  0  0  0  0  0
  -24.6326  -11.6884   20.8791 C   0  0  0  0  0  0
  -23.9014  -10.4277   21.0446 C   0  0  0  0  0  0
  -24.3595   -9.4196   21.9207 C   0  0  0  0  0  0
  -23.6273   -8.2225   22.0767 C   0  0  0  0  0  0
  -22.4245   -8.0282   21.3568 C   0  0  0  0  0  0
  -21.9887   -9.0238   20.4655 C   0  0  0  0  0  0
  -22.7209  -10.2118   20.3067 C   0  0  0  0  0  0
  -21.6848   -6.0719   22.5265 C   0  0  0  0  0  0
  -21.3998   -6.5621   23.8196 C   0  0  0  0  0  0
  -21.3668   -5.6781   24.9165 C   0  0  0  0  0  0
  -21.6046   -4.3043   24.7216 C   0  0  0  0  0  0
  -21.8826   -3.8137   23.4339 C   0  0  0  0  0  0
  -21.9202   -4.6953   22.3392 C   0  0  0  0  0  0
  -22.7816  -13.5235   21.1896 C   0  0  0  0  0  0
  -22.1681   -4.2140   21.0974 F   0  0  0  0  0  0
  -21.5646   -3.4533   25.7733 F   0  0  0  0  0  0
  -29.9870  -13.5199   20.3583 N   0  0  0  0  0  0
  -26.2907  -12.9232   20.3335 N   0  0  0  0  0  0
  -25.9238  -11.6421   20.5802 N   0  0  0  0  0  0
  -22.0464  -12.8227   22.0461 N   0  0  0  0  0  0
  -25.4324  -15.1848   20.4198 N   0  0  0  0  0  0
  -31.8627  -14.7846   20.2674 O   0  0  0  0  0  0
  -21.6646   -6.8857   21.4226 O   0  0  0  0  0  0
  -22.3497  -14.5527   20.6712 O   0  0  0  0  0  0
  -24.6244  -31.8569   23.2003 C   0  0  0  0  0  0
  -25.9073  -32.4784   23.8343 C   0  0  1  0  0  0
  -27.2465  -27.3217   20.1372 C   0  0  0  0  0  0
  -25.5872  -33.8580   24.2258 N   0  0  0  0  0  0
  -23.4208  -30.4775   21.5411 C   0  0  2  0  0  0
  -24.8759  -28.9309   20.1113 C   0  0  0  0  0  0
  -22.7469  -29.4586   22.4924 C   0  0  0  0  0  0
  -18.0287  -28.1401   22.8495 C   0  0  0  0  0  0
  -24.1486  -36.7309   23.2635 C   0  0  0  0  0  0
  -25.9580  -30.7993   21.3627 C   0  0  0  0  0  0
  -26.0406  -29.4220   20.7133 C   0  0  0  0  0  0
  -27.2276  -28.6309   20.7111 C   0  0  0  0  0  0
  -26.0578  -26.8796   19.5123 C   0  0  0  0  0  0
  -24.8870  -27.6658   19.5005 C   0  0  0  0  0  0
  -23.6379  -29.8063   20.1578 C   0  0  0  0  0  0
  -25.4107  -36.3082   24.0315 C   0  0  1  0  0  0
  -20.5892  -28.3676   23.1301 C   0  0  2  0  0  0
  -20.6773  -26.9395   22.5433 C   0  0  0  0  0  0
  -19.5745  -26.6388   21.5231 C   0  0  0  0  0  0
  -18.1926  -26.7946   22.1637 C   0  0  0  0  0  0
  -19.1550  -28.8857   23.2897 C   0  0  0  0  0  0
  -18.9460  -30.1477   23.8894 C   0  0  0  0  0  0
  -17.6459  -30.6591   24.0575 C   0  0  0  0  0  0
  -25.9032  -34.9456   23.5092 C   0  0  0  0  0  0
  -16.5348  -29.9089   23.6346 C   0  0  0  0  0  0
  -16.7280  -28.6523   23.0330 C   0  0  0  0  0  0
  -26.4470  -31.6582   25.0702 C   0  0  0  0  0  0
  -25.3713  -31.3699   26.1429 C   0  0  0  0  0  0
  -27.0274  -30.2998   24.6107 C   0  0  0  0  0  0
  -27.6027  -32.4296   25.7495 C   0  0  0  0  0  0
  -27.5574  -37.1807   24.8457 C   0  0  0  0  0  0
  -21.4176  -29.3018   22.3667 N   0  0  0  0  0  0
  -26.4282  -37.3781   23.9406 N   0  0  0  0  0  0
  -24.6868  -31.0605   22.0936 N   0  0  0  0  0  0
  -23.4187  -28.8118   23.2994 O   0  0  0  0  0  0
  -28.3824  -26.4947   20.2089 O   0  0  0  0  0  0
  -26.5632  -34.8925   22.4683 O   0  0  0  0  0  0
  -23.5396  -32.1345   23.7339 O   0  0  0  0  0  0
  -30.2866  -21.9359   19.4014 C   0  0  0  0  0  0
  -29.5378  -22.5841   20.3749 C   0  0  0  0  0  0
  -29.5637  -19.9940   20.4873 C   0  0  0  0  0  0
  -27.1685  -24.4391   14.0045 C   0  0  0  0  0  0
  -30.7299  -25.9909   14.2112 C   0  0  0  0  0  0
  -29.2033  -16.0488   18.9741 C   0  0  0  0  0  0
  -31.1486  -22.5725   18.3362 C   0  0  0  0  0  0
  -29.4270  -24.1216   20.6641 C   0  0  0  0  0  0
  -29.2229  -18.4809   20.6578 C   0  0  0  0  0  0
  -28.2769  -25.4981   13.9235 C   0  0  0  0  0  0
  -29.3446  -25.2521   16.2313 C   0  0  0  0  0  0
  -30.3371  -17.3102   20.6715 C   0  0  0  0  0  0
  -30.4424  -24.6321   17.1261 C   0  0  0  0  0  0
  -28.2471  -25.0217   20.0781 C   0  0  0  0  0  0
  -29.5568  -25.1226   14.7029 C   0  0  2  0  0  0
  -30.2416  -20.5166   19.4530 N   0  0  0  0  0  0
  -29.8861  -15.9038   20.2728 N   0  0  0  0  0  0
  -30.3173  -23.1625   17.2701 N   0  3  0  0  0  0
  -28.8400  -21.3367   21.4360 S   0  0  0  0  0  0
  -31.4794  -12.5509   19.1723 H   0  0  0  0  0  0
  -30.3953  -11.4725   20.0121 H   0  0  0  0  0  0
  -29.7769  -11.5414   17.6115 H   0  0  0  0  0  0
  -29.6870  -13.2605   17.5987 H   0  0  0  0  0  0
  -27.8597  -11.2444   18.9280 H   0  0  0  0  0  0
  -27.3842  -12.4779   17.7949 H   0  0  0  0  0  0
  -27.5758  -14.1928   19.4217 H   0  0  0  0  0  0
  -28.7353  -12.2116   21.4465 H   0  0  0  0  0  0
  -28.4355  -13.9070   21.7492 H   0  0  0  0  0  0
  -25.2754   -9.5667   22.4759 H   0  0  0  0  0  0
  -24.0027   -7.4587   22.7437 H   0  0  0  0  0  0
  -21.0856   -8.8708   19.8901 H   0  0  0  0  0  0
  -22.3696  -10.9640   19.6151 H   0  0  0  0  0  0
  -21.1962   -7.6121   23.9684 H   0  0  0  0  0  0
  -21.1501   -6.0524   25.9069 H   0  0  0  0  0  0
  -22.0604   -2.7598   23.2832 H   0  0  0  0  0  0
  -22.4094  -11.9890   22.4842 H   0  0  0  0  0  0
  -21.1026  -13.1141   22.2583 H   0  0  0  0  0  0
  -24.6829  -15.8555   20.5503 H   0  0  0  0  0  0
  -26.3083  -15.6149   20.1528 H   0  0  0  0  0  0
  -26.7154  -32.5468   23.1109 H   0  0  0  0  0  0
  -24.9956  -33.9727   25.0353 H   0  0  0  0  0  0
  -22.7142  -31.2968   21.3947 H   0  0  0  0  0  0
  -23.3730  -35.9659   23.3289 H   0  0  0  0  0  0
  -24.3580  -36.8942   22.2052 H   0  0  0  0  0  0
  -23.7265  -37.6514   23.6678 H   0  0  0  0  0  0
  -26.0697  -31.5598   20.5884 H   0  0  0  0  0  0
  -26.8454  -30.8656   21.9814 H   0  0  0  0  0  0
  -28.1228  -29.0077   21.1871 H   0  0  0  0  0  0
  -26.0128  -25.9093   19.0412 H   0  0  0  0  0  0
  -23.9955  -27.2806   19.0264 H   0  0  0  0  0  0
  -23.7493  -30.5802   19.3970 H   0  0  0  0  0  0
  -22.7627  -29.2267   19.8605 H   0  0  0  0  0  0
  -25.1300  -36.1921   25.0806 H   0  0  0  0  0  0
  -21.0017  -28.3262   24.1408 H   0  0  0  0  0  0
  -20.5683  -26.2274   23.3626 H   0  0  0  0  0  0
  -21.6634  -26.7421   22.1214 H   0  0  0  0  0  0
  -19.6884  -25.6301   21.1250 H   0  0  0  0  0  0
  -19.6698  -27.3213   20.6771 H   0  0  0  0  0  0
  -17.4199  -26.6713   21.4032 H   0  0  0  0  0  0
  -18.0299  -26.0102   22.9044 H   0  0  0  0  0  0
  -19.7935  -30.7319   24.2224 H   0  0  0  0  0  0
  -17.5001  -31.6271   24.5172 H   0  0  0  0  0  0
  -15.5350  -30.2970   23.7685 H   0  0  0  0  0  0
  -15.8685  -28.0864   22.6986 H   0  0  0  0  0  0
  -24.5910  -30.7018   25.7763 H   0  0  0  0  0  0
  -24.8885  -32.2853   26.4853 H   0  0  0  0  0  0
  -25.8058  -30.8894   27.0198 H   0  0  0  0  0  0
  -26.2809  -29.6783   24.1136 H   0  0  0  0  0  0
  -27.3969  -29.7224   25.4590 H   0  0  0  0  0  0
  -27.8697  -30.4273   23.9301 H   0  0  0  0  0  0
  -27.2622  -33.3572   26.2106 H   0  0  0  0  0  0
  -28.3849  -32.6865   25.0345 H   0  0  0  0  0  0
  -28.0671  -31.8383   26.5393 H   0  0  0  0  0  0
  -28.2579  -38.0112   24.7497 H   0  0  0  0  0  0
  -28.1079  -36.2639   24.6289 H   0  0  0  0  0  0
  -27.2294  -37.1468   25.8860 H   0  0  0  0  0  0
  -20.9321  -29.8742   21.6903 H   0  0  0  0  0  0
  -26.0145  -38.2842   24.1433 H   0  0  0  0  0  0
  -26.3456  -24.6924   13.3351 H   0  0  0  0  0  0
  -26.7559  -24.3565   15.0092 H   0  0  0  0  0  0
  -27.5397  -23.4572   13.7096 H   0  0  0  0  0  0
  -30.8632  -25.8962   13.1324 H   0  0  0  0  0  0
  -31.6754  -25.7029   14.6689 H   0  0  0  0  0  0
  -30.5649  -27.0472   14.4279 H   0  0  0  0  0  0
  -28.1449  -16.2616   19.1154 H   0  0  0  0  0  0
  -29.6226  -16.8621   18.3788 H   0  0  0  0  0  0
  -29.2758  -15.1787   18.3305 H   0  0  0  0  0  0
  -31.7942  -21.8253   17.8723 H   0  0  0  0  0  0
  -31.8268  -23.3077   18.7727 H   0  0  0  0  0  0
  -30.3676  -24.5871   20.3707 H   0  0  0  0  0  0
  -29.4074  -24.2498   21.7464 H   0  0  0  0  0  0
  -28.4818  -18.2907   19.8878 H   0  0  0  0  0  0
  -28.6565  -18.3917   21.5853 H   0  0  0  0  0  0
  -27.8925  -26.4604   14.2676 H   0  0  0  0  0  0
  -28.5218  -25.6390   12.8694 H   0  0  0  0  0  0
  -29.2659  -26.3129   16.4743 H   0  0  0  0  0  0
  -28.3820  -24.8306   16.5204 H   0  0  0  0  0  0
  -30.8033  -17.2753   21.6577 H   0  0  0  0  0  0
  -31.1426  -17.5925   19.9912 H   0  0  0  0  0  0
  -30.3559  -25.0852   18.1121 H   0  0  0  0  0  0
  -31.4425  -24.8912   16.7788 H   0  0  0  0  0  0
  -27.3224  -24.6925   20.5538 H   0  0  0  0  0  0
  -28.1397  -24.8013   19.0178 H   0  0  0  0  0  0
  -29.7971  -24.0859   14.4625 H   0  0  0  0  0  0
  -29.3689  -22.8993   17.4786 H   0  0  0  0  0  0
  -30.5730  -22.7160   16.4050 H   0  0  0  0  0  0
  1 25  1  0  0  0
  1 30  2  0  0  0
  1 87  1  0  0  0
  2  3  1  0  0  0
  2 25  1  0  0  0
  2 90  1  0  0  0
  2 91  1  0  0  0
  3  4  1  0  0  0
  3 92  1  0  0  0
  3 93  1  0  0  0
  4  5  1  0  0  0
  4 94  1  0  0  0
  4 95  1  0  0  0
  5  6  1  0  0  0
  5 26  1  0  0  0
  5 96  1  0  0  0
  6 25  1  0  0  0
  6 97  1  0  0  0
  6 98  1  0  0  0
  7  8  2  0  0  0
  7 26  1  0  0  0
  7 29  1  0  0  0
  8  9  1  0  0  0
  8 22  1  0  0  0
  9 10  1  0  0  0
  9 27  2  0  0  0
 10 11  2  0  0  0
 10 15  1  0  0  0
 11 12  1  0  0  0
 11 99  1  0  0  0
 12 13  2  0  0  0
 12100  1  0  0  0
 13 14  1  0  0  0
 13 31  1  0  0  0
 14 15  2  0  0  0
 14101  1  0  0  0
 15102  1  0  0  0
 16 17  2  0  0  0
 16 21  1  0  0  0
 16 31  1  0  0  0
 17 18  1  0  0  0
 17103  1  0  0  0
 18 19  2  0  0  0
 18104  1  0  0  0
 19 20  1  0  0  0
 19 24  1  0  0  0
 20 21  2  0  0  0
 20105  1  0  0  0
 21 23  1  0  0  0
 22 28  1  0  0  0
 22 32  2  0  0  0
 26 27  1  0  0  0
 28106  1  0  0  0
 28107  1  0  0  0
 29108  1  0  0  0
 29109  1  0  0  0
 33 34  1  0  0  0
 33 66  1  0  0  0
 33 70  2  0  0  0
 34 36  1  0  0  0
 34 59  1  0  0  0
 34110  1  0  0  0
 35 44  2  0  0  0
 35 45  1  0  0  0
 35 68  1  0  0  0
 36 56  1  0  0  0
 36111  1  0  0  0
 37 39  1  0  0  0
 37 47  1  0  0  0
 37 66  1  0  0  0
 37112  1  0  0  0
 38 43  2  0  0  0
 38 46  1  0  0  0
 38 47  1  0  0  0
 39 64  1  0  0  0
 39 67  2  0  0  0
 40 52  1  0  0  0
 40 53  2  0  0  0
 40 58  1  0  0  0
 41113  1  0  0  0
 41114  1  0  0  0
 41115  1  0  0  0
 41 48  1  0  0  0
 42 43  1  0  0  0
 42 66  1  0  0  0
 42116  1  0  0  0
 42117  1  0  0  0
 43 44  1  0  0  0
 44118  1  0  0  0
 45 46  2  0  0  0
 45119  1  0  0  0
 46120  1  0  0  0
 47121  1  0  0  0
 47122  1  0  0  0
 48 56  1  0  0  0
 48 65  1  0  0  0
 48123  1  0  0  0
 49 50  1  0  0  0
 49 53  1  0  0  0
 49 64  1  0  0  0
 49124  1  0  0  0
 50 51  1  0  0  0
 50125  1  0  0  0
 50126  1  0  0  0
 51 52  1  0  0  0
 51127  1  0  0  0
 51128  1  0  0  0
 52129  1  0  0  0
 52130  1  0  0  0
 53 54  1  0  0  0
 54 55  2  0  0  0
 54131  1  0  0  0
 55 57  1  0  0  0
 55132  1  0  0  0
 56 69  2  0  0  0
 57 58  2  0  0  0
 57133  1  0  0  0
 58134  1  0  0  0
 59 60  1  0  0  0
 59 61  1  0  0  0
 59 62  1  0  0  0
 60135  1  0  0  0
 60136  1  0  0  0
 60137  1  0  0  0
 61138  1  0  0  0
 61139  1  0  0  0
 61140  1  0  0  0
 62141  1  0  0  0
 62142  1  0  0  0
 62143  1  0  0  0
 63 65  1  0  0  0
 63144  1  0  0  0
 63145  1  0  0  0
 63146  1  0  0  0
 64147  1  0  0  0
 65148  1  0  0  0
 68 84  1  0  0  0
 71 72  2  0  0  0
 71 77  1  0  0  0
 71 86  1  0  0  0
 72 78  1  0  0  0
 72 89  1  0  0  0
 73 79  1  0  0  0
 73 86  2  0  0  0
 73 89  1  0  0  0
 74 80  1  0  0  0
 74149  1  0  0  0
 74150  1  0  0  0
 74151  1  0  0  0
 75152  1  0  0  0
 75153  1  0  0  0
 75154  1  0  0  0
 75 85  1  0  0  0
 76 87  1  0  0  0
 76155  1  0  0  0
 76156  1  0  0  0
 76157  1  0  0  0
 77 88  1  0  0  0
 77158  1  0  0  0
 77159  1  0  0  0
 78 84  1  0  0  0
 78160  1  0  0  0
 78161  1  0  0  0
 79 82  1  0  0  0
 79162  1  0  0  0
 79163  1  0  0  0
 80 85  1  0  0  0
 80164  1  0  0  0
 80165  1  0  0  0
 81 83  1  0  0  0
 81 85  1  0  0  0
 81166  1  0  0  0
 81167  1  0  0  0
 82 87  1  0  0  0
 82168  1  0  0  0
 82169  1  0  0  0
 83 88  1  0  0  0
 83170  1  0  0  0
 83171  1  0  0  0
 84172  1  0  0  0
 84173  1  0  0  0
 85174  1  0  0  0
 88175  1  0  0  0
 88176  1  0  0  0
M  CHG  1  88   1
M  ISO  4   1 100  68 101  84 101  87 100
M  END
> <chiral flag>
0

> <version>
0

> <s_m_source_file>
/data/baiqing/PycharmProjects/Reinvent-master-3.2/result/LINK_invent/BTK/process_docking_weight1_custom_sum_contain_oxygen_bond_distance_aromatic_linkinvent_7_9_3/rearranged_h_0049.sdf

> <i_m_source_file_index>
54

> <r_mmod_Potential_Energy-OPLS-2005>
60.3868408203125

> <r_mmod_Stretch_Energy-OPLS-2005>
98.9926300048828

> <r_mmod_Bend_Energy-OPLS-2005>
166.785354614258

> <r_mmod_Torsional_Energy-OPLS-2005>
301.140777587891

> <r_mmod_Improper_Torsional_Energy-OPLS-2005>
13.1875143051147

> <r_mmod_Van_der_Waal_Energy-OPLS-2005>
122.620986938477

> <r_mmod_Electrostatic_Energy-OPLS-2005>
-273.458099365234

> <r_mmod_Solvation_Energy-OPLS-2005>
-447.078125

> <b_mmod_Minimization_Converged-OPLS-2005>
0

> <r_mmod_RMS_Derivative-OPLS-2005>
2.65462112426758

$$$$
56
                    3D
 Structure written by MMmdl.
159167  0  0  1  0            999 V2000
  -30.6349  -14.5282   20.5770 C   0  0  0  0  0  0
  -30.4221  -12.3440   19.4226 C   0  0  0  0  0  0
  -29.4980  -12.5307   18.2013 C   0  0  0  0  0  0
  -28.0149  -12.3827   18.6034 C   0  0  0  0  0  0
  -27.6551  -13.1991   19.8746 C   0  0  2  0  0  0
  -28.6886  -12.9310   20.9807 C   0  0  0  0  0  0
  -25.2571  -13.8163   20.5675 C   0  0  0  0  0  0
  -24.1820  -13.0433   20.9133 C   0  0  0  0  0  0
  -24.6353  -11.6877   20.8689 C   0  0  0  0  0  0
  -23.9023  -10.4288   21.0397 C   0  0  0  0  0  0
  -24.3606   -9.4218   21.9175 C   0  0  0  0  0  0
  -23.6293   -8.2252   22.0757 C   0  0  0  0  0  0
  -22.4271   -8.0276   21.3545 C   0  0  0  0  0  0
  -21.9898   -9.0241   20.4646 C   0  0  0  0  0  0
  -22.7203  -10.2123   20.3035 C   0  0  0  0  0  0
  -21.6858   -6.0718   22.5262 C   0  0  0  0  0  0
  -21.4035   -6.5638   23.8209 C   0  0  0  0  0  0
  -21.3663   -5.6780   24.9170 C   0  0  0  0  0  0
  -21.6035   -4.3044   24.7215 C   0  0  0  0  0  0
  -21.8820   -3.8129   23.4344 C   0  0  0  0  0  0
  -21.9210   -4.6944   22.3398 C   0  0  0  0  0  0
  -22.7884  -13.5241   21.1864 C   0  0  0  0  0  0
  -22.1662   -4.2138   21.0968 F   0  0  0  0  0  0
  -21.5618   -3.4528   25.7729 F   0  0  0  0  0  0
  -30.0044  -13.3200   20.4474 N   0  0  0  0  0  0
  -26.2968  -12.9297   20.3329 N   0  0  0  0  0  0
  -25.9268  -11.6453   20.5669 N   0  0  0  0  0  0
  -22.0527  -12.8233   22.0413 N   0  0  0  0  0  0
  -25.4326  -15.1912   20.4216 N   0  0  0  0  0  0
  -31.7656  -14.7029   20.0989 O   0  0  0  0  0  0
  -21.6632   -6.8861   21.4229 O   0  0  0  0  0  0
  -22.3589  -14.5562   20.6732 O   0  0  0  0  0  0
  -24.6203  -31.8638   23.2064 C   0  0  0  0  0  0
  -25.9071  -32.4803   23.8367 C   0  0  1  0  0  0
  -27.2210  -27.3776   20.1209 C   0  0  0  0  0  0
  -25.5899  -33.8611   24.2305 N   0  0  0  0  0  0
  -23.4113  -30.4864   21.5516 C   0  0  2  0  0  0
  -24.8537  -28.9481   20.1189 C   0  0  0  0  0  0
  -22.7453  -29.4640   22.5014 C   0  0  0  0  0  0
  -18.0282  -28.1383   22.8501 C   0  0  0  0  0  0
  -24.1476  -36.7301   23.2642 C   0  0  0  0  0  0
  -25.9453  -30.8173   21.3647 C   0  0  0  0  0  0
  -26.0204  -29.4471   20.7138 C   0  0  0  0  0  0
  -27.2099  -28.6723   20.7044 C   0  0  0  0  0  0
  -26.0387  -26.9141   19.5020 C   0  0  0  0  0  0
  -24.8610  -27.6830   19.5092 C   0  0  0  0  0  0
  -23.6188  -29.8218   20.1651 C   0  0  0  0  0  0
  -25.4098  -36.3105   24.0346 C   0  0  1  0  0  0
  -20.5881  -28.3668   23.1326 C   0  0  2  0  0  0
  -20.6765  -26.9398   22.5426 C   0  0  0  0  0  0
  -19.5734  -26.6388   21.5227 C   0  0  0  0  0  0
  -18.1921  -26.7932   22.1640 C   0  0  0  0  0  0
  -19.1536  -28.8854   23.2909 C   0  0  0  0  0  0
  -18.9446  -30.1460   23.8907 C   0  0  0  0  0  0
  -17.6440  -30.6589   24.0558 C   0  0  0  0  0  0
  -25.9044  -34.9477   23.5138 C   0  0  0  0  0  0
  -16.5336  -29.9077   23.6323 C   0  0  0  0  0  0
  -16.7269  -28.6499   23.0355 C   0  0  0  0  0  0
  -26.4483  -31.6588   25.0716 C   0  0  0  0  0  0
  -25.3730  -31.3687   26.1449 C   0  0  0  0  0  0
  -27.0337  -30.3032   24.6125 C   0  0  0  0  0  0
  -27.6062  -32.4309   25.7463 C   0  0  0  0  0  0
  -27.5579  -37.1808   24.8480 C   0  0  0  0  0  0
  -21.4182  -29.3020   22.3729 N   0  0  0  0  0  0
  -26.4291  -37.3778   23.9426 N   0  0  0  0  0  0
  -24.6782  -31.0706   22.0985 N   0  0  0  0  0  0
  -23.4206  -28.8201   23.3086 O   0  0  0  0  0  0
  -28.3588  -26.5807   20.1372 O   0  0  0  0  0  0
  -26.5628  -34.8936   22.4705 O   0  0  0  0  0  0
  -23.5383  -32.1403   23.7424 O   0  0  0  0  0  0
  -27.3736  -20.1115   18.5847 C   0  0  0  0  0  0
  -27.3270  -22.2339   18.8543 C   0  0  0  0  0  0
  -28.3630  -20.4161   19.4963 C   0  0  0  0  0  0
  -29.3638  -15.6348   22.3623 C   0  0  0  0  0  0
  -29.3585  -19.4608   20.1346 C   0  0  0  0  0  0
  -28.9385  -17.9518   20.2912 C   0  0  0  0  0  0
  -29.2733  -24.2144   20.0589 C   0  0  0  0  0  0
  -29.1542  -22.7050   20.5014 C   0  0  0  0  0  0
  -30.1617  -16.9857   20.4872 C   0  0  0  0  0  0
  -28.1887  -25.2051   20.5894 C   0  0  0  0  0  0
  -26.7169  -21.2676   18.1805 N   0  0  0  0  0  0
  -28.3290  -21.8264   19.6508 N   0  0  0  0  0  0
  -29.8808  -15.6030   20.9854 N   0  0  0  0  0  0
  -31.4676  -12.4542   19.1354 H   0  0  0  0  0  0
  -30.3362  -11.3294   19.8078 H   0  0  0  0  0  0
  -29.7481  -11.8096   17.4238 H   0  0  0  0  0  0
  -29.6629  -13.5164   17.7612 H   0  0  0  0  0  0
  -27.8214  -11.3223   18.7717 H   0  0  0  0  0  0
  -27.3723  -12.6785   17.7734 H   0  0  0  0  0  0
  -27.7071  -14.2553   19.6125 H   0  0  0  0  0  0
  -28.6997  -11.8685   21.2294 H   0  0  0  0  0  0
  -28.4032  -13.4090   21.9099 H   0  0  0  0  0  0
  -25.2777   -9.5695   22.4722 H   0  0  0  0  0  0
  -24.0012   -7.4644   22.7489 H   0  0  0  0  0  0
  -21.0830   -8.8719   19.8965 H   0  0  0  0  0  0
  -22.3655  -10.9644   19.6115 H   0  0  0  0  0  0
  -21.2026   -7.6155   23.9688 H   0  0  0  0  0  0
  -21.1490   -6.0532   25.9066 H   0  0  0  0  0  0
  -22.0606   -2.7597   23.2831 H   0  0  0  0  0  0
  -22.4144  -11.9879   22.4805 H   0  0  0  0  0  0
  -21.1105  -13.1209   22.2550 H   0  0  0  0  0  0
  -24.6750  -15.8527   20.5525 H   0  0  0  0  0  0
  -26.3084  -15.6397   20.1821 H   0  0  0  0  0  0
  -26.7169  -32.5499   23.1142 H   0  0  0  0  0  0
  -24.9967  -33.9741   25.0399 H   0  0  0  0  0  0
  -22.7026  -31.3051   21.4147 H   0  0  0  0  0  0
  -23.3737  -35.9635   23.3313 H   0  0  0  0  0  0
  -24.3559  -36.8892   22.2053 H   0  0  0  0  0  0
  -23.7229  -37.6513   23.6641 H   0  0  0  0  0  0
  -26.0663  -31.5826   20.5960 H   0  0  0  0  0  0
  -26.8288  -30.8689   21.9873 H   0  0  0  0  0  0
  -28.1107  -29.0489   21.1701 H   0  0  0  0  0  0
  -26.0108  -25.9525   19.0097 H   0  0  0  0  0  0
  -23.9658  -27.2936   19.0431 H   0  0  0  0  0  0
  -23.7303  -30.5987   19.4084 H   0  0  0  0  0  0
  -22.7386  -29.2483   19.8664 H   0  0  0  0  0  0
  -25.1268  -36.1968   25.0840 H   0  0  0  0  0  0
  -20.9977  -28.3234   24.1444 H   0  0  0  0  0  0
  -20.5697  -26.2268   23.3617 H   0  0  0  0  0  0
  -21.6638  -26.7447   22.1207 H   0  0  0  0  0  0
  -19.6904  -25.6309   21.1242 H   0  0  0  0  0  0
  -19.6682  -27.3211   20.6772 H   0  0  0  0  0  0
  -17.4195  -26.6687   21.4034 H   0  0  0  0  0  0
  -18.0314  -26.0070   22.9035 H   0  0  0  0  0  0
  -19.7925  -30.7278   24.2284 H   0  0  0  0  0  0
  -17.4990  -31.6266   24.5149 H   0  0  0  0  0  0
  -15.5343  -30.2969   23.7649 H   0  0  0  0  0  0
  -15.8671  -28.0805   22.7071 H   0  0  0  0  0  0
  -24.5906  -30.7048   25.7735 H   0  0  0  0  0  0
  -24.8914  -32.2848   26.4902 H   0  0  0  0  0  0
  -25.8063  -30.8821   27.0203 H   0  0  0  0  0  0
  -26.2910  -29.6782   24.1160 H   0  0  0  0  0  0
  -27.4078  -29.7281   25.4607 H   0  0  0  0  0  0
  -27.8747  -30.4339   23.9309 H   0  0  0  0  0  0
  -27.2691  -33.3592   26.2088 H   0  0  0  0  0  0
  -28.3831  -32.6900   25.0256 H   0  0  0  0  0  0
  -28.0795  -31.8410   26.5322 H   0  0  0  0  0  0
  -28.2621  -38.0078   24.7500 H   0  0  0  0  0  0
  -28.1065  -36.2630   24.6337 H   0  0  0  0  0  0
  -27.2322  -37.1473   25.8887 H   0  0  0  0  0  0
  -20.9377  -29.8679   21.6872 H   0  0  0  0  0  0
  -26.0199  -38.2875   24.1371 H   0  0  0  0  0  0
  -27.0951  -19.1523   18.1716 H   0  0  0  0  0  0
  -27.0456  -23.2696   18.7367 H   0  0  0  0  0  0
  -29.6426  -16.5514   22.8851 H   0  0  0  0  0  0
  -29.7461  -14.8110   22.9742 H   0  0  0  0  0  0
  -28.2744  -15.5894   22.3539 H   0  0  0  0  0  0
  -29.6506  -19.8435   21.1132 H   0  0  0  0  0  0
  -30.2644  -19.4925   19.5281 H   0  0  0  0  0  0
  -28.3773  -17.6172   19.4182 H   0  0  0  0  0  0
  -28.2392  -17.8784   21.1260 H   0  0  0  0  0  0
  -29.3511  -24.2701   18.9741 H   0  0  0  0  0  0
  -30.2314  -24.5820   20.4285 H   0  0  0  0  0  0
  -28.7899  -22.6345   21.5254 H   0  0  0  0  0  0
  -30.1558  -22.2751   20.5081 H   0  0  0  0  0  0
  -30.6730  -16.9310   19.5233 H   0  0  0  0  0  0
  -30.8766  -17.4556   21.1612 H   0  0  0  0  0  0
  -28.2466  -25.2167   21.6783 H   0  0  0  0  0  0
  -27.2034  -24.8011   20.3707 H   0  0  0  0  0  0
  1 25  1  0  0  0
  1 30  2  0  0  0
  1 83  1  0  0  0
  2  3  1  0  0  0
  2 25  1  0  0  0
  2 84  1  0  0  0
  2 85  1  0  0  0
  3  4  1  0  0  0
  3 86  1  0  0  0
  3 87  1  0  0  0
  4  5  1  0  0  0
  4 88  1  0  0  0
  4 89  1  0  0  0
  5  6  1  0  0  0
  5 26  1  0  0  0
  5 90  1  0  0  0
  6 25  1  0  0  0
  6 91  1  0  0  0
  6 92  1  0  0  0
  7  8  2  0  0  0
  7 26  1  0  0  0
  7 29  1  0  0  0
  8  9  1  0  0  0
  8 22  1  0  0  0
  9 10  1  0  0  0
  9 27  2  0  0  0
 10 11  2  0  0  0
 10 15  1  0  0  0
 11 12  1  0  0  0
 11 93  1  0  0  0
 12 13  2  0  0  0
 12 94  1  0  0  0
 13 14  1  0  0  0
 13 31  1  0  0  0
 14 15  2  0  0  0
 14 95  1  0  0  0
 15 96  1  0  0  0
 16 17  2  0  0  0
 16 21  1  0  0  0
 16 31  1  0  0  0
 17 18  1  0  0  0
 17 97  1  0  0  0
 18 19  2  0  0  0
 18 98  1  0  0  0
 19 20  1  0  0  0
 19 24  1  0  0  0
 20 21  2  0  0  0
 20 99  1  0  0  0
 21 23  1  0  0  0
 22 28  1  0  0  0
 22 32  2  0  0  0
 26 27  1  0  0  0
 28100  1  0  0  0
 28101  1  0  0  0
 29102  1  0  0  0
 29103  1  0  0  0
 33 34  1  0  0  0
 33 66  1  0  0  0
 33 70  2  0  0  0
 34 36  1  0  0  0
 34 59  1  0  0  0
 34104  1  0  0  0
 35 44  2  0  0  0
 35 45  1  0  0  0
 35 68  1  0  0  0
 36 56  1  0  0  0
 36105  1  0  0  0
 37 39  1  0  0  0
 37 47  1  0  0  0
 37 66  1  0  0  0
 37106  1  0  0  0
 38 43  2  0  0  0
 38 46  1  0  0  0
 38 47  1  0  0  0
 39 64  1  0  0  0
 39 67  2  0  0  0
 40 52  1  0  0  0
 40 53  2  0  0  0
 40 58  1  0  0  0
 41107  1  0  0  0
 41108  1  0  0  0
 41109  1  0  0  0
 41 48  1  0  0  0
 42 43  1  0  0  0
 42 66  1  0  0  0
 42110  1  0  0  0
 42111  1  0  0  0
 43 44  1  0  0  0
 44112  1  0  0  0
 45 46  2  0  0  0
 45113  1  0  0  0
 46114  1  0  0  0
 47115  1  0  0  0
 47116  1  0  0  0
 48 56  1  0  0  0
 48 65  1  0  0  0
 48117  1  0  0  0
 49 50  1  0  0  0
 49 53  1  0  0  0
 49 64  1  0  0  0
 49118  1  0  0  0
 50 51  1  0  0  0
 50119  1  0  0  0
 50120  1  0  0  0
 51 52  1  0  0  0
 51121  1  0  0  0
 51122  1  0  0  0
 52123  1  0  0  0
 52124  1  0  0  0
 53 54  1  0  0  0
 54 55  2  0  0  0
 54125  1  0  0  0
 55 57  1  0  0  0
 55126  1  0  0  0
 56 69  2  0  0  0
 57 58  2  0  0  0
 57127  1  0  0  0
 58128  1  0  0  0
 59 60  1  0  0  0
 59 61  1  0  0  0
 59 62  1  0  0  0
 60129  1  0  0  0
 60130  1  0  0  0
 60131  1  0  0  0
 61132  1  0  0  0
 61133  1  0  0  0
 61134  1  0  0  0
 62135  1  0  0  0
 62136  1  0  0  0
 62137  1  0  0  0
 63 65  1  0  0  0
 63138  1  0  0  0
 63139  1  0  0  0
 63140  1  0  0  0
 64141  1  0  0  0
 65142  1  0  0  0
 68 80  1  0  0  0
 71 73  2  0  0  0
 71 81  1  0  0  0
 71143  1  0  0  0
 72 81  2  0  0  0
 72 82  1  0  0  0
 72144  1  0  0  0
 73 75  1  0  0  0
 73 82  1  0  0  0
 74 83  1  0  0  0
 74145  1  0  0  0
 74146  1  0  0  0
 74147  1  0  0  0
 75 76  1  0  0  0
 75148  1  0  0  0
 75149  1  0  0  0
 76 79  1  0  0  0
 76150  1  0  0  0
 76151  1  0  0  0
 77 78  1  0  0  0
 77 80  1  0  0  0
 77152  1  0  0  0
 77153  1  0  0  0
 78 82  1  0  0  0
 78154  1  0  0  0
 78155  1  0  0  0
 79 83  1  0  0  0
 79156  1  0  0  0
 79157  1  0  0  0
 80158  1  0  0  0
 80159  1  0  0  0
M  ISO  4   1 100  68 101  80 101  83 100
M  END
> <chiral flag>
0

> <version>
0

> <s_m_source_file>
/data/baiqing/PycharmProjects/Reinvent-master-3.2/result/LINK_invent/BTK/process_docking_weight1_custom_sum_contain_oxygen_bond_distance_aromatic_linkinvent_7_9_3/rearranged_h_0049.sdf

> <i_m_source_file_index>
55

> <r_mmod_Potential_Energy-OPLS-2005>
155.337677001953

> <r_mmod_Stretch_Energy-OPLS-2005>
56.9562606811523

> <r_mmod_Bend_Energy-OPLS-2005>
125.14298248291

> <r_mmod_Torsional_Energy-OPLS-2005>
295.803680419922

> <r_mmod_Improper_Torsional_Energy-OPLS-2005>
9.57953357696533

> <r_mmod_Van_der_Waal_Energy-OPLS-2005>
134.375396728516

> <r_mmod_Electrostatic_Energy-OPLS-2005>
-274.923278808594

> <r_mmod_Solvation_Energy-OPLS-2005>
-213.973709106445

> <b_mmod_Minimization_Converged-OPLS-2005>
0

> <r_mmod_RMS_Derivative-OPLS-2005>
4.35140562057495

$$$$
57
                    3D
 Structure written by MMmdl.
168176  0  0  1  0            999 V2000
  -30.7522  -14.4381   20.7166 C   0  0  0  0  0  0
  -30.4129  -12.3510   19.3977 C   0  0  0  0  0  0
  -29.4759  -12.5564   18.1931 C   0  0  0  0  0  0
  -28.0049  -12.3712   18.6037 C   0  0  0  0  0  0
  -27.6553  -13.1941   19.8682 C   0  0  2  0  0  0
  -28.6988  -12.9753   20.9896 C   0  0  0  0  0  0
  -25.2506  -13.8076   20.5557 C   0  0  0  0  0  0
  -24.1797  -13.0363   20.9171 C   0  0  0  0  0  0
  -24.6383  -11.6846   20.8757 C   0  0  0  0  0  0
  -23.9072  -10.4229   21.0413 C   0  0  0  0  0  0
  -24.3636   -9.4170   21.9204 C   0  0  0  0  0  0
  -23.6308   -8.2203   22.0755 C   0  0  0  0  0  0
  -22.4287   -8.0259   21.3547 C   0  0  0  0  0  0
  -21.9922   -9.0218   20.4646 C   0  0  0  0  0  0
  -22.7245  -10.2089   20.3069 C   0  0  0  0  0  0
  -21.6870   -6.0744   22.5284 C   0  0  0  0  0  0
  -21.4025   -6.5646   23.8215 C   0  0  0  0  0  0
  -21.3664   -5.6804   24.9181 C   0  0  0  0  0  0
  -21.6040   -4.3066   24.7230 C   0  0  0  0  0  0
  -21.8839   -3.8162   23.4355 C   0  0  0  0  0  0
  -21.9185   -4.6973   22.3410 C   0  0  0  0  0  0
  -22.7824  -13.5181   21.1829 C   0  0  0  0  0  0
  -22.1652   -4.2158   21.0989 F   0  0  0  0  0  0
  -21.5620   -3.4545   25.7742 F   0  0  0  0  0  0
  -30.0329  -13.3039   20.4606 N   0  0  0  0  0  0
  -26.2983  -12.9258   20.3322 N   0  0  0  0  0  0
  -25.9309  -11.6436   20.5767 N   0  0  0  0  0  0
  -22.0489  -12.8189   22.0428 N   0  0  0  0  0  0
  -25.4037  -15.1774   20.3790 N   0  0  0  0  0  0
  -31.7304  -14.7343   20.0232 O   0  0  0  0  0  0
  -21.6667   -6.8865   21.4232 O   0  0  0  0  0  0
  -22.3507  -14.5478   20.6661 O   0  0  0  0  0  0
  -24.6180  -31.8633   23.2064 C   0  0  0  0  0  0
  -25.9056  -32.4784   23.8353 C   0  0  1  0  0  0
  -27.2328  -27.3876   20.0798 C   0  0  0  0  0  0
  -25.5912  -33.8584   24.2281 N   0  0  0  0  0  0
  -23.4081  -30.4883   21.5477 C   0  0  2  0  0  0
  -24.8515  -28.9464   20.1136 C   0  0  0  0  0  0
  -22.7430  -29.4633   22.4934 C   0  0  0  0  0  0
  -18.0284  -28.1389   22.8479 C   0  0  0  0  0  0
  -24.1502  -36.7321   23.2637 C   0  0  0  0  0  0
  -25.9424  -30.8105   21.3695 C   0  0  0  0  0  0
  -26.0140  -29.4414   20.7126 C   0  0  0  0  0  0
  -27.2031  -28.6693   20.6935 C   0  0  0  0  0  0
  -26.0390  -26.9096   19.4936 C   0  0  0  0  0  0
  -24.8603  -27.6811   19.5035 C   0  0  0  0  0  0
  -23.6190  -29.8239   20.1614 C   0  0  0  0  0  0
  -25.4121  -36.3079   24.0322 C   0  0  1  0  0  0
  -20.5889  -28.3672   23.1315 C   0  0  2  0  0  0
  -20.6787  -26.9399   22.5437 C   0  0  0  0  0  0
  -19.5755  -26.6387   21.5242 C   0  0  0  0  0  0
  -18.1926  -26.7938   22.1633 C   0  0  0  0  0  0
  -19.1540  -28.8837   23.2893 C   0  0  0  0  0  0
  -18.9459  -30.1452   23.8889 C   0  0  0  0  0  0
  -17.6457  -30.6581   24.0571 C   0  0  0  0  0  0
  -25.9042  -34.9445   23.5094 C   0  0  0  0  0  0
  -16.5347  -29.9087   23.6337 C   0  0  0  0  0  0
  -16.7278  -28.6528   23.0323 C   0  0  0  0  0  0
  -26.4477  -31.6577   25.0704 C   0  0  0  0  0  0
  -25.3747  -31.3699   26.1459 C   0  0  0  0  0  0
  -27.0305  -30.3010   24.6113 C   0  0  0  0  0  0
  -27.6027  -32.4314   25.7498 C   0  0  0  0  0  0
  -27.5578  -37.1817   24.8455 C   0  0  0  0  0  0
  -21.4153  -29.3029   22.3700 N   0  0  0  0  0  0
  -26.4293  -37.3774   23.9391 N   0  0  0  0  0  0
  -24.6745  -31.0691   22.0984 N   0  0  0  0  0  0
  -23.4185  -28.8153   23.2978 O   0  0  0  0  0  0
  -28.4219  -26.6670   20.0818 O   0  0  0  0  0  0
  -26.5610  -34.8903   22.4659 O   0  0  0  0  0  0
  -23.5366  -32.1408   23.7437 O   0  0  0  0  0  0
  -28.9923  -19.5715   22.7863 C   0  0  0  0  0  0
  -29.5686  -20.3515   20.5806 C   0  0  0  0  0  0
  -29.6146  -19.3058   21.5462 C   0  0  0  0  0  0
  -28.3439  -20.8025   22.9918 C   0  0  0  0  0  0
  -28.9131  -21.5808   20.8754 C   0  0  0  0  0  0
  -27.6669  -21.1072   24.3118 C   0  0  0  0  0  0
  -31.6969  -16.1282   24.1571 C   0  0  0  0  0  0
  -28.3162  -16.4555   21.0765 C   0  0  0  0  0  0
  -30.3518  -17.9622   21.2930 C   0  0  0  0  0  0
  -28.8133  -22.7452   19.8599 C   0  0  0  0  0  0
  -31.8232  -15.5304   22.7450 C   0  0  0  0  0  0
  -28.4179  -24.1573   20.4342 C   0  0  0  0  0  0
  -28.5471  -25.3643   19.4527 C   0  0  0  0  0  0
  -30.4815  -15.3205   21.9865 C   0  0  1  0  0  0
  -29.6409  -16.6596   21.8163 C   0  0  2  0  0  0
  -28.2925  -21.7750   22.0582 N   0  0  0  0  0  0
  -31.4527  -12.4652   19.0872 H   0  0  0  0  0  0
  -30.3261  -11.3273   19.7682 H   0  0  0  0  0  0
  -29.7340  -11.8670   17.3884 H   0  0  0  0  0  0
  -29.6149  -13.5594   17.7879 H   0  0  0  0  0  0
  -27.8235  -11.3092   18.7766 H   0  0  0  0  0  0
  -27.3485  -12.6566   17.7795 H   0  0  0  0  0  0
  -27.6877  -14.2342   19.5573 H   0  0  0  0  0  0
  -28.6893  -11.9345   21.3165 H   0  0  0  0  0  0
  -28.4125  -13.5533   21.8628 H   0  0  0  0  0  0
  -25.2767   -9.5668   22.4810 H   0  0  0  0  0  0
  -24.0012   -7.4604   22.7486 H   0  0  0  0  0  0
  -21.0842   -8.8760   19.8958 H   0  0  0  0  0  0
  -22.3693  -10.9657   19.6224 H   0  0  0  0  0  0
  -21.2044   -7.6160   23.9724 H   0  0  0  0  0  0
  -21.1471   -6.0539   25.9083 H   0  0  0  0  0  0
  -22.0616   -2.7621   23.2861 H   0  0  0  0  0  0
  -22.4068  -11.9833   22.4802 H   0  0  0  0  0  0
  -21.1101  -13.1220   22.2619 H   0  0  0  0  0  0
  -24.6314  -15.8253   20.4911 H   0  0  0  0  0  0
  -26.2649  -15.6277   20.0946 H   0  0  0  0  0  0
  -26.7104  -32.5480   23.1086 H   0  0  0  0  0  0
  -25.0092  -33.9757   25.0444 H   0  0  0  0  0  0
  -22.6995  -31.3073   21.4062 H   0  0  0  0  0  0
  -23.3736  -35.9678   23.3311 H   0  0  0  0  0  0
  -24.3589  -36.8949   22.2046 H   0  0  0  0  0  0
  -23.7297  -37.6543   23.6667 H   0  0  0  0  0  0
  -26.0683  -31.5744   20.6004 H   0  0  0  0  0  0
  -26.8245  -30.8563   21.9951 H   0  0  0  0  0  0
  -28.1006  -29.0496   21.1583 H   0  0  0  0  0  0
  -25.9875  -25.9380   19.0271 H   0  0  0  0  0  0
  -23.9636  -27.2933   19.0419 H   0  0  0  0  0  0
  -23.7396  -30.6013   19.4073 H   0  0  0  0  0  0
  -22.7401  -29.2548   19.8545 H   0  0  0  0  0  0
  -25.1301  -36.1931   25.0815 H   0  0  0  0  0  0
  -20.9976  -28.3246   24.1442 H   0  0  0  0  0  0
  -20.5750  -26.2249   23.3618 H   0  0  0  0  0  0
  -21.6640  -26.7476   22.1167 H   0  0  0  0  0  0
  -19.6927  -25.6312   21.1241 H   0  0  0  0  0  0
  -19.6713  -27.3217   20.6790 H   0  0  0  0  0  0
  -17.4211  -26.6698   21.4022 H   0  0  0  0  0  0
  -18.0292  -26.0093   22.9035 H   0  0  0  0  0  0
  -19.7934  -30.7287   24.2234 H   0  0  0  0  0  0
  -17.5015  -31.6261   24.5178 H   0  0  0  0  0  0
  -15.5348  -30.2972   23.7694 H   0  0  0  0  0  0
  -15.8687  -28.0877   22.6985 H   0  0  0  0  0  0
  -24.5935  -30.7015   25.7831 H   0  0  0  0  0  0
  -24.8918  -32.2852   26.4882 H   0  0  0  0  0  0
  -25.8114  -30.8916   27.0234 H   0  0  0  0  0  0
  -26.2842  -29.6771   24.1183 H   0  0  0  0  0  0
  -27.4071  -29.7251   25.4572 H   0  0  0  0  0  0
  -27.8676  -30.4307   23.9251 H   0  0  0  0  0  0
  -27.2612  -33.3615   26.2061 H   0  0  0  0  0  0
  -28.3858  -32.6890   25.0350 H   0  0  0  0  0  0
  -28.0653  -31.8447   26.5446 H   0  0  0  0  0  0
  -28.2583  -38.0128   24.7492 H   0  0  0  0  0  0
  -28.1093  -36.2655   24.6288 H   0  0  0  0  0  0
  -27.2294  -37.1466   25.8861 H   0  0  0  0  0  0
  -20.9299  -29.8792   21.6970 H   0  0  0  0  0  0
  -26.0179  -38.2854   24.1384 H   0  0  0  0  0  0
  -29.0084  -18.8496   23.5904 H   0  0  0  0  0  0
  -30.0364  -20.2082   19.6156 H   0  0  0  0  0  0
  -26.8979  -20.3650   24.5219 H   0  0  0  0  0  0
  -27.1932  -22.0897   24.3025 H   0  0  0  0  0  0
  -28.3919  -21.0870   25.1262 H   0  0  0  0  0  0
  -32.6815  -16.2236   24.6186 H   0  0  0  0  0  0
  -31.0884  -15.4950   24.8057 H   0  0  0  0  0  0
  -31.2570  -17.1247   24.1450 H   0  0  0  0  0  0
  -27.7244  -15.6797   21.5563 H   0  0  0  0  0  0
  -28.4912  -16.1927   20.0342 H   0  0  0  0  0  0
  -27.7053  -17.3588   21.0851 H   0  0  0  0  0  0
  -31.3236  -18.0638   21.7727 H   0  0  0  0  0  0
  -30.5663  -17.8606   20.2289 H   0  0  0  0  0  0
  -28.1021  -22.4497   19.0887 H   0  0  0  0  0  0
  -29.7802  -22.8273   19.3613 H   0  0  0  0  0  0
  -32.3252  -14.5655   22.8498 H   0  0  0  0  0  0
  -32.5001  -16.1426   22.1484 H   0  0  0  0  0  0
  -29.0531  -24.3667   21.2935 H   0  0  0  0  0  0
  -27.3970  -24.1178   20.8167 H   0  0  0  0  0  0
  -27.9032  -25.2451   18.5822 H   0  0  0  0  0  0
  -29.5539  -25.3450   19.0352 H   0  0  0  0  0  0
  -29.9170  -14.6938   22.6720 H   0  0  0  0  0  0
  -29.3393  -16.8744   22.8384 H   0  0  0  0  0  0
  1 25  1  0  0  0
  1 30  2  0  0  0
  1 84  1  0  0  0
  2  3  1  0  0  0
  2 25  1  0  0  0
  2 87  1  0  0  0
  2 88  1  0  0  0
  3  4  1  0  0  0
  3 89  1  0  0  0
  3 90  1  0  0  0
  4  5  1  0  0  0
  4 91  1  0  0  0
  4 92  1  0  0  0
  5  6  1  0  0  0
  5 26  1  0  0  0
  5 93  1  0  0  0
  6 25  1  0  0  0
  6 94  1  0  0  0
  6 95  1  0  0  0
  7  8  2  0  0  0
  7 26  1  0  0  0
  7 29  1  0  0  0
  8  9  1  0  0  0
  8 22  1  0  0  0
  9 10  1  0  0  0
  9 27  2  0  0  0
 10 11  2  0  0  0
 10 15  1  0  0  0
 11 12  1  0  0  0
 11 96  1  0  0  0
 12 13  2  0  0  0
 12 97  1  0  0  0
 13 14  1  0  0  0
 13 31  1  0  0  0
 14 15  2  0  0  0
 14 98  1  0  0  0
 15 99  1  0  0  0
 16 17  2  0  0  0
 16 21  1  0  0  0
 16 31  1  0  0  0
 17 18  1  0  0  0
 17100  1  0  0  0
 18 19  2  0  0  0
 18101  1  0  0  0
 19 20  1  0  0  0
 19 24  1  0  0  0
 20 21  2  0  0  0
 20102  1  0  0  0
 21 23  1  0  0  0
 22 28  1  0  0  0
 22 32  2  0  0  0
 26 27  1  0  0  0
 28103  1  0  0  0
 28104  1  0  0  0
 29105  1  0  0  0
 29106  1  0  0  0
 33 34  1  0  0  0
 33 66  1  0  0  0
 33 70  2  0  0  0
 34 36  1  0  0  0
 34 59  1  0  0  0
 34107  1  0  0  0
 35 44  2  0  0  0
 35 45  1  0  0  0
 35 68  1  0  0  0
 36 56  1  0  0  0
 36108  1  0  0  0
 37 39  1  0  0  0
 37 47  1  0  0  0
 37 66  1  0  0  0
 37109  1  0  0  0
 38 43  2  0  0  0
 38 46  1  0  0  0
 38 47  1  0  0  0
 39 64  1  0  0  0
 39 67  2  0  0  0
 40 52  1  0  0  0
 40 53  2  0  0  0
 40 58  1  0  0  0
 41110  1  0  0  0
 41111  1  0  0  0
 41112  1  0  0  0
 41 48  1  0  0  0
 42 43  1  0  0  0
 42 66  1  0  0  0
 42113  1  0  0  0
 42114  1  0  0  0
 43 44  1  0  0  0
 44115  1  0  0  0
 45 46  2  0  0  0
 45116  1  0  0  0
 46117  1  0  0  0
 47118  1  0  0  0
 47119  1  0  0  0
 48 56  1  0  0  0
 48 65  1  0  0  0
 48120  1  0  0  0
 49 50  1  0  0  0
 49 53  1  0  0  0
 49 64  1  0  0  0
 49121  1  0  0  0
 50 51  1  0  0  0
 50122  1  0  0  0
 50123  1  0  0  0
 51 52  1  0  0  0
 51124  1  0  0  0
 51125  1  0  0  0
 52126  1  0  0  0
 52127  1  0  0  0
 53 54  1  0  0  0
 54 55  2  0  0  0
 54128  1  0  0  0
 55 57  1  0  0  0
 55129  1  0  0  0
 56 69  2  0  0  0
 57 58  2  0  0  0
 57130  1  0  0  0
 58131  1  0  0  0
 59 60  1  0  0  0
 59 61  1  0  0  0
 59 62  1  0  0  0
 60132  1  0  0  0
 60133  1  0  0  0
 60134  1  0  0  0
 61135  1  0  0  0
 61136  1  0  0  0
 61137  1  0  0  0
 62138  1  0  0  0
 62139  1  0  0  0
 62140  1  0  0  0
 63 65  1  0  0  0
 63141  1  0  0  0
 63142  1  0  0  0
 63143  1  0  0  0
 64144  1  0  0  0
 65145  1  0  0  0
 68 83  1  0  0  0
 71 73  2  0  0  0
 71 74  1  0  0  0
 71146  1  0  0  0
 72 73  1  0  0  0
 72 75  2  0  0  0
 72147  1  0  0  0
 73 79  1  0  0  0
 74 76  1  0  0  0
 74 86  2  0  0  0
 75 80  1  0  0  0
 75 86  1  0  0  0
 76148  1  0  0  0
 76149  1  0  0  0
 76150  1  0  0  0
 77 81  1  0  0  0
 77151  1  0  0  0
 77152  1  0  0  0
 77153  1  0  0  0
 78154  1  0  0  0
 78155  1  0  0  0
 78156  1  0  0  0
 78 85  1  0  0  0
 79 85  1  0  0  0
 79157  1  0  0  0
 79158  1  0  0  0
 80 82  1  0  0  0
 80159  1  0  0  0
 80160  1  0  0  0
 81161  1  0  0  0
 81162  1  0  0  0
 81 84  1  0  0  0
 82 83  1  0  0  0
 82163  1  0  0  0
 82164  1  0  0  0
 83165  1  0  0  0
 83166  1  0  0  0
 84 85  1  0  0  0
 84167  1  0  0  0
 85168  1  0  0  0
M  ISO  4   1 100  68 101  83 101  84 100
M  END
> <chiral flag>
0

> <version>
0

> <s_m_source_file>
/data/baiqing/PycharmProjects/Reinvent-master-3.2/result/LINK_invent/BTK/process_docking_weight1_custom_sum_contain_oxygen_bond_distance_aromatic_linkinvent_7_9_3/rearranged_h_0049.sdf

> <i_m_source_file_index>
56

> <r_mmod_Potential_Energy-OPLS-2005>
-120.245719909668

> <r_mmod_Stretch_Energy-OPLS-2005>
55.9911308288574

> <r_mmod_Bend_Energy-OPLS-2005>
132.363525390625

> <r_mmod_Torsional_Energy-OPLS-2005>
168.874877929688

> <r_mmod_Improper_Torsional_Energy-OPLS-2005>
2.94240808486938

> <r_mmod_Van_der_Waal_Energy-OPLS-2005>
150.493255615234

> <r_mmod_Electrostatic_Energy-OPLS-2005>
-453.738220214844

> <r_mmod_Solvation_Energy-OPLS-2005>
-192.46630859375

> <b_mmod_Minimization_Converged-OPLS-2005>
0

> <r_mmod_RMS_Derivative-OPLS-2005>
3.73322105407715

$$$$
58
                    3D
 Structure written by MMmdl.
162170  0  0  1  0            999 V2000
  -30.7011  -14.5971   20.4061 C   0  0  0  0  0  0
  -30.4260  -12.3445   19.4366 C   0  0  0  0  0  0
  -29.4979  -12.4186   18.2066 C   0  0  0  0  0  0
  -28.0087  -12.3472   18.6158 C   0  0  0  0  0  0
  -27.6419  -13.2150   19.8542 C   0  0  2  0  0  0
  -28.7087  -13.1156   20.9645 C   0  0  0  0  0  0
  -25.2539  -13.8158   20.5734 C   0  0  0  0  0  0
  -24.1799  -13.0414   20.9206 C   0  0  0  0  0  0
  -24.6380  -11.6896   20.8756 C   0  0  0  0  0  0
  -23.9053  -10.4278   21.0409 C   0  0  0  0  0  0
  -24.3619   -9.4198   21.9182 C   0  0  0  0  0  0
  -23.6297   -8.2232   22.0748 C   0  0  0  0  0  0
  -22.4280   -8.0275   21.3538 C   0  0  0  0  0  0
  -21.9908   -9.0248   20.4645 C   0  0  0  0  0  0
  -22.7228  -10.2130   20.3055 C   0  0  0  0  0  0
  -21.6849   -6.0735   22.5282 C   0  0  0  0  0  0
  -21.4006   -6.5643   23.8214 C   0  0  0  0  0  0
  -21.3648   -5.6794   24.9173 C   0  0  0  0  0  0
  -21.6047   -4.3055   24.7225 C   0  0  0  0  0  0
  -21.8827   -3.8151   23.4342 C   0  0  0  0  0  0
  -21.9200   -4.6965   22.3404 C   0  0  0  0  0  0
  -22.7822  -13.5216   21.1860 C   0  0  0  0  0  0
  -22.1671   -4.2154   21.0976 F   0  0  0  0  0  0
  -21.5628   -3.4538   25.7731 F   0  0  0  0  0  0
  -30.0118  -13.4154   20.3553 N   0  0  0  0  0  0
  -26.2956  -12.9327   20.3383 N   0  0  0  0  0  0
  -25.9316  -11.6484   20.5829 N   0  0  0  0  0  0
  -22.0469  -12.8189   22.0406 N   0  0  0  0  0  0
  -25.4221  -15.1883   20.4155 N   0  0  0  0  0  0
  -31.9266  -14.6285   20.2855 O   0  0  0  0  0  0
  -21.6634   -6.8879   21.4245 O   0  0  0  0  0  0
  -22.3508  -14.5515   20.6704 O   0  0  0  0  0  0
  -24.6196  -31.8604   23.2051 C   0  0  0  0  0  0
  -25.9057  -32.4790   23.8359 C   0  0  1  0  0  0
  -27.2333  -27.3732   20.1028 C   0  0  0  0  0  0
  -25.5871  -33.8596   24.2285 N   0  0  0  0  0  0
  -23.4132  -30.4842   21.5480 C   0  0  2  0  0  0
  -24.8587  -28.9426   20.1146 C   0  0  0  0  0  0
  -22.7441  -29.4613   22.4965 C   0  0  0  0  0  0
  -18.0268  -28.1409   22.8474 C   0  0  0  0  0  0
  -24.1490  -36.7319   23.2645 C   0  0  0  0  0  0
  -25.9491  -30.8065   21.3699 C   0  0  0  0  0  0
  -26.0220  -29.4382   20.7157 C   0  0  0  0  0  0
  -27.2086  -28.6610   20.7034 C   0  0  0  0  0  0
  -26.0427  -26.9035   19.4994 C   0  0  0  0  0  0
  -24.8660  -27.6772   19.5063 C   0  0  0  0  0  0
  -23.6270  -29.8193   20.1630 C   0  0  0  0  0  0
  -25.4111  -36.3096   24.0333 C   0  0  1  0  0  0
  -20.5856  -28.3702   23.1299 C   0  0  2  0  0  0
  -20.6767  -26.9435   22.5420 C   0  0  0  0  0  0
  -19.5764  -26.6409   21.5208 C   0  0  0  0  0  0
  -18.1925  -26.7952   22.1595 C   0  0  0  0  0  0
  -19.1514  -28.8864   23.2879 C   0  0  0  0  0  0
  -18.9446  -30.1457   23.8922 C   0  0  0  0  0  0
  -17.6452  -30.6614   24.0571 C   0  0  0  0  0  0
  -25.9025  -34.9461   23.5122 C   0  0  0  0  0  0
  -16.5339  -29.9124   23.6334 C   0  0  0  0  0  0
  -16.7248  -28.6541   23.0348 C   0  0  0  0  0  0
  -26.4481  -31.6585   25.0701 C   0  0  0  0  0  0
  -25.3733  -31.3736   26.1448 C   0  0  0  0  0  0
  -27.0296  -30.3002   24.6134 C   0  0  0  0  0  0
  -27.6060  -32.4325   25.7433 C   0  0  0  0  0  0
  -27.5593  -37.1796   24.8467 C   0  0  0  0  0  0
  -21.4160  -29.3039   22.3699 N   0  0  0  0  0  0
  -26.4311  -37.3777   23.9404 N   0  0  0  0  0  0
  -24.6800  -31.0658   22.0998 N   0  0  0  0  0  0
  -23.4172  -28.8169   23.3054 O   0  0  0  0  0  0
  -28.4033  -26.6184   20.1462 O   0  0  0  0  0  0
  -26.5625  -34.8922   22.4704 O   0  0  0  0  0  0
  -23.5359  -32.1366   23.7393 O   0  0  0  0  0  0
  -30.7603  -20.8151   18.9131 C   0  0  0  0  0  0
  -29.4827  -21.8626   20.4025 C   0  0  0  0  0  0
  -29.7069  -19.6067   20.4597 C   0  0  0  0  0  0
  -31.7473  -20.8585   17.7660 C   0  0  0  0  0  0
  -30.7315  -16.3889   17.8620 C   0  0  0  0  0  0
  -28.9806  -23.2029   21.0004 C   0  0  0  0  0  0
  -29.3528  -18.2036   21.0328 C   0  0  0  0  0  0
  -27.9785  -24.0535   20.1421 C   0  0  0  0  0  0
  -29.5767  -16.0648   18.8370 C   0  0  0  0  0  0
  -30.4282  -17.0398   20.9023 C   0  0  0  0  0  0
  -28.5192  -25.3492   19.4445 C   0  0  0  0  0  0
  -30.2935  -21.9766   19.3568 N   0  0  0  0  0  0
  -30.4895  -19.6100   19.3903 N   0  0  0  0  0  0
  -29.1488  -20.7045   21.0031 N   0  0  0  0  0  0
  -29.9936  -15.7655   20.2318 N   0  0  0  0  0  0
  -31.4683  -12.4407   19.1253 H   0  0  0  0  0  0
  -30.3455  -11.3722   19.9268 H   0  0  0  0  0  0
  -29.7260  -11.5950   17.5297 H   0  0  0  0  0  0
  -29.7003  -13.3218   17.6334 H   0  0  0  0  0  0
  -27.7851  -11.3009   18.8231 H   0  0  0  0  0  0
  -27.3787  -12.6252   17.7684 H   0  0  0  0  0  0
  -27.6164  -14.2459   19.5233 H   0  0  0  0  0  0
  -28.7180  -12.1118   21.3933 H   0  0  0  0  0  0
  -28.4901  -13.8052   21.7819 H   0  0  0  0  0  0
  -25.2777   -9.5672   22.4732 H   0  0  0  0  0  0
  -24.0021   -7.4620   22.7458 H   0  0  0  0  0  0
  -21.0838   -8.8763   19.8946 H   0  0  0  0  0  0
  -22.3696  -10.9666   19.6155 H   0  0  0  0  0  0
  -21.1989   -7.6150   23.9713 H   0  0  0  0  0  0
  -21.1458   -6.0521   25.9073 H   0  0  0  0  0  0
  -22.0616   -2.7615   23.2837 H   0  0  0  0  0  0
  -22.4100  -11.9857   22.4781 H   0  0  0  0  0  0
  -21.1067  -13.1174   22.2593 H   0  0  0  0  0  0
  -24.6557  -15.8440   20.5270 H   0  0  0  0  0  0
  -26.2857  -15.6330   20.1327 H   0  0  0  0  0  0
  -26.7121  -32.5481   23.1105 H   0  0  0  0  0  0
  -24.9963  -33.9747   25.0388 H   0  0  0  0  0  0
  -22.7049  -31.3043   21.4057 H   0  0  0  0  0  0
  -23.3741  -35.9658   23.3293 H   0  0  0  0  0  0
  -24.3581  -36.8960   22.2067 H   0  0  0  0  0  0
  -23.7257  -37.6522   23.6678 H   0  0  0  0  0  0
  -26.0679  -31.5685   20.5996 H   0  0  0  0  0  0
  -26.8365  -30.8585   21.9894 H   0  0  0  0  0  0
  -28.1073  -29.0415   21.1702 H   0  0  0  0  0  0
  -25.9955  -25.9292   19.0336 H   0  0  0  0  0  0
  -23.9677  -27.2920   19.0425 H   0  0  0  0  0  0
  -23.7459  -30.5984   19.4089 H   0  0  0  0  0  0
  -22.7493  -29.2463   19.8588 H   0  0  0  0  0  0
  -25.1288  -36.1965   25.0820 H   0  0  0  0  0  0
  -20.9886  -28.3302   24.1441 H   0  0  0  0  0  0
  -20.5675  -26.2321   23.3627 H   0  0  0  0  0  0
  -21.6652  -26.7509   22.1224 H   0  0  0  0  0  0
  -19.6950  -25.6317   21.1264 H   0  0  0  0  0  0
  -19.6729  -27.3202   20.6732 H   0  0  0  0  0  0
  -17.4205  -26.6689   21.3997 H   0  0  0  0  0  0
  -18.0315  -26.0100   22.8994 H   0  0  0  0  0  0
  -19.7925  -30.7248   24.2327 H   0  0  0  0  0  0
  -17.5024  -31.6294   24.5182 H   0  0  0  0  0  0
  -15.5341  -30.3050   23.7671 H   0  0  0  0  0  0
  -15.8634  -28.0886   22.7059 H   0  0  0  0  0  0
  -24.5879  -30.7109   25.7795 H   0  0  0  0  0  0
  -24.8936  -32.2894   26.4890 H   0  0  0  0  0  0
  -25.8059  -30.8900   27.0211 H   0  0  0  0  0  0
  -26.2831  -29.6730   24.1224 H   0  0  0  0  0  0
  -27.4076  -29.7282   25.4625 H   0  0  0  0  0  0
  -27.8685  -30.4287   23.9285 H   0  0  0  0  0  0
  -27.2706  -33.3650   26.1988 H   0  0  0  0  0  0
  -28.3852  -32.6837   25.0220 H   0  0  0  0  0  0
  -28.0739  -31.8447   26.5339 H   0  0  0  0  0  0
  -28.2625  -38.0078   24.7470 H   0  0  0  0  0  0
  -28.1079  -36.2603   24.6347 H   0  0  0  0  0  0
  -27.2306  -37.1523   25.8871 H   0  0  0  0  0  0
  -20.9349  -29.8749   21.6892 H   0  0  0  0  0  0
  -26.0202  -38.2863   24.1364 H   0  0  0  0  0  0
  -32.0312  -21.8792   17.5157 H   0  0  0  0  0  0
  -31.3248  -20.3916   16.8770 H   0  0  0  0  0  0
  -32.6542  -20.3133   18.0305 H   0  0  0  0  0  0
  -30.3354  -16.6218   16.8731 H   0  0  0  0  0  0
  -31.4206  -15.5524   17.7413 H   0  0  0  0  0  0
  -31.3116  -17.2561   18.1762 H   0  0  0  0  0  0
  -29.8392  -23.8130   21.2838 H   0  0  0  0  0  0
  -28.4870  -22.9685   21.9446 H   0  0  0  0  0  0
  -28.3804  -17.9023   20.6479 H   0  0  0  0  0  0
  -29.1779  -18.3452   22.0995 H   0  0  0  0  0  0
  -27.1242  -24.3304   20.7611 H   0  0  0  0  0  0
  -27.5609  -23.3959   19.3783 H   0  0  0  0  0  0
  -29.0447  -15.2251   18.4064 H   0  0  0  0  0  0
  -28.8509  -16.8736   18.8073 H   0  0  0  0  0  0
  -30.7685  -16.7940   21.9088 H   0  0  0  0  0  0
  -31.3345  -17.4061   20.4190 H   0  0  0  0  0  0
  -28.0590  -25.4477   18.4601 H   0  0  0  0  0  0
  -29.5774  -25.1982   19.2266 H   0  0  0  0  0  0
  1 25  1  0  0  0
  1 30  2  0  0  0
  1 85  1  0  0  0
  2  3  1  0  0  0
  2 25  1  0  0  0
  2 86  1  0  0  0
  2 87  1  0  0  0
  3  4  1  0  0  0
  3 88  1  0  0  0
  3 89  1  0  0  0
  4  5  1  0  0  0
  4 90  1  0  0  0
  4 91  1  0  0  0
  5  6  1  0  0  0
  5 26  1  0  0  0
  5 92  1  0  0  0
  6 25  1  0  0  0
  6 93  1  0  0  0
  6 94  1  0  0  0
  7  8  2  0  0  0
  7 26  1  0  0  0
  7 29  1  0  0  0
  8  9  1  0  0  0
  8 22  1  0  0  0
  9 10  1  0  0  0
  9 27  2  0  0  0
 10 11  2  0  0  0
 10 15  1  0  0  0
 11 12  1  0  0  0
 11 95  1  0  0  0
 12 13  2  0  0  0
 12 96  1  0  0  0
 13 14  1  0  0  0
 13 31  1  0  0  0
 14 15  2  0  0  0
 14 97  1  0  0  0
 15 98  1  0  0  0
 16 17  2  0  0  0
 16 21  1  0  0  0
 16 31  1  0  0  0
 17 18  1  0  0  0
 17 99  1  0  0  0
 18 19  2  0  0  0
 18100  1  0  0  0
 19 20  1  0  0  0
 19 24  1  0  0  0
 20 21  2  0  0  0
 20101  1  0  0  0
 21 23  1  0  0  0
 22 28  1  0  0  0
 22 32  2  0  0  0
 26 27  1  0  0  0
 28102  1  0  0  0
 28103  1  0  0  0
 29104  1  0  0  0
 29105  1  0  0  0
 33 34  1  0  0  0
 33 66  1  0  0  0
 33 70  2  0  0  0
 34 36  1  0  0  0
 34 59  1  0  0  0
 34106  1  0  0  0
 35 44  2  0  0  0
 35 45  1  0  0  0
 35 68  1  0  0  0
 36 56  1  0  0  0
 36107  1  0  0  0
 37 39  1  0  0  0
 37 47  1  0  0  0
 37 66  1  0  0  0
 37108  1  0  0  0
 38 43  2  0  0  0
 38 46  1  0  0  0
 38 47  1  0  0  0
 39 64  1  0  0  0
 39 67  2  0  0  0
 40 52  1  0  0  0
 40 53  2  0  0  0
 40 58  1  0  0  0
 41109  1  0  0  0
 41110  1  0  0  0
 41111  1  0  0  0
 41 48  1  0  0  0
 42 43  1  0  0  0
 42 66  1  0  0  0
 42112  1  0  0  0
 42113  1  0  0  0
 43 44  1  0  0  0
 44114  1  0  0  0
 45 46  2  0  0  0
 45115  1  0  0  0
 46116  1  0  0  0
 47117  1  0  0  0
 47118  1  0  0  0
 48 56  1  0  0  0
 48 65  1  0  0  0
 48119  1  0  0  0
 49 50  1  0  0  0
 49 53  1  0  0  0
 49 64  1  0  0  0
 49120  1  0  0  0
 50 51  1  0  0  0
 50121  1  0  0  0
 50122  1  0  0  0
 51 52  1  0  0  0
 51123  1  0  0  0
 51124  1  0  0  0
 52125  1  0  0  0
 52126  1  0  0  0
 53 54  1  0  0  0
 54 55  2  0  0  0
 54127  1  0  0  0
 55 57  1  0  0  0
 55128  1  0  0  0
 56 69  2  0  0  0
 57 58  2  0  0  0
 57129  1  0  0  0
 58130  1  0  0  0
 59 60  1  0  0  0
 59 61  1  0  0  0
 59 62  1  0  0  0
 60131  1  0  0  0
 60132  1  0  0  0
 60133  1  0  0  0
 61134  1  0  0  0
 61135  1  0  0  0
 61136  1  0  0  0
 62137  1  0  0  0
 62138  1  0  0  0
 62139  1  0  0  0
 63 65  1  0  0  0
 63140  1  0  0  0
 63141  1  0  0  0
 63142  1  0  0  0
 64143  1  0  0  0
 65144  1  0  0  0
 68 81  1  0  0  0
 71 74  1  0  0  0
 71 82  2  0  0  0
 71 83  1  0  0  0
 72 76  1  0  0  0
 72 82  1  0  0  0
 72 84  2  0  0  0
 73 77  1  0  0  0
 73 83  2  0  0  0
 73 84  1  0  0  0
 74145  1  0  0  0
 74146  1  0  0  0
 74147  1  0  0  0
 75 79  1  0  0  0
 75148  1  0  0  0
 75149  1  0  0  0
 75150  1  0  0  0
 76 78  1  0  0  0
 76151  1  0  0  0
 76152  1  0  0  0
 77 80  1  0  0  0
 77153  1  0  0  0
 77154  1  0  0  0
 78 81  1  0  0  0
 78155  1  0  0  0
 78156  1  0  0  0
 79 85  1  0  0  0
 79157  1  0  0  0
 79158  1  0  0  0
 80 85  1  0  0  0
 80159  1  0  0  0
 80160  1  0  0  0
 81161  1  0  0  0
 81162  1  0  0  0
M  ISO  4   1 100  68 101  81 101  85 100
M  END
> <chiral flag>
0

> <version>
0

> <s_m_source_file>
/data/baiqing/PycharmProjects/Reinvent-master-3.2/result/LINK_invent/BTK/process_docking_weight1_custom_sum_contain_oxygen_bond_distance_aromatic_linkinvent_7_9_3/rearranged_h_0049.sdf

> <i_m_source_file_index>
57

> <r_mmod_Potential_Energy-OPLS-2005>
-408.226348876953

> <r_mmod_Stretch_Energy-OPLS-2005>
60.9729881286621

> <r_mmod_Bend_Energy-OPLS-2005>
138.910278320312

> <r_mmod_Torsional_Energy-OPLS-2005>
325.900238037109

> <r_mmod_Improper_Torsional_Energy-OPLS-2005>
13.3165140151978

> <r_mmod_Van_der_Waal_Energy-OPLS-2005>
168.693298339844

> <r_mmod_Electrostatic_Energy-OPLS-2005>
-941.37744140625

> <r_mmod_Solvation_Energy-OPLS-2005>
-220.122955322266

> <b_mmod_Minimization_Converged-OPLS-2005>
0

> <r_mmod_RMS_Derivative-OPLS-2005>
2.95445919036865

$$$$
59
                    3D
 Structure written by MMmdl.
169177  0  0  1  0            999 V2000
  -30.6421  -14.5116   20.5918 C   0  0  0  0  0  0
  -30.4404  -12.3095   19.4720 C   0  0  0  0  0  0
  -29.5144  -12.4685   18.2495 C   0  0  0  0  0  0
  -28.0448  -12.2743   18.6675 C   0  0  0  0  0  0
  -27.6627  -13.1705   19.8726 C   0  0  2  0  0  0
  -28.6867  -12.9799   21.0045 C   0  0  0  0  0  0
  -25.2682  -13.8112   20.5619 C   0  0  0  0  0  0
  -24.1884  -13.0372   20.9156 C   0  0  0  0  0  0
  -24.6418  -11.6872   20.8710 C   0  0  0  0  0  0
  -23.9100  -10.4254   21.0445 C   0  0  0  0  0  0
  -24.3627   -9.4171   21.9227 C   0  0  0  0  0  0
  -23.6279   -8.2210   22.0801 C   0  0  0  0  0  0
  -22.4268   -8.0264   21.3552 C   0  0  0  0  0  0
  -21.9913   -9.0280   20.4666 C   0  0  0  0  0  0
  -22.7294  -10.2133   20.3090 C   0  0  0  0  0  0
  -21.6851   -6.0737   22.5297 C   0  0  0  0  0  0
  -21.4015   -6.5650   23.8226 C   0  0  0  0  0  0
  -21.3661   -5.6804   24.9183 C   0  0  0  0  0  0
  -21.6039   -4.3062   24.7232 C   0  0  0  0  0  0
  -21.8813   -3.8158   23.4348 C   0  0  0  0  0  0
  -21.9182   -4.6968   22.3409 C   0  0  0  0  0  0
  -22.7908  -13.5233   21.1800 C   0  0  0  0  0  0
  -22.1653   -4.2159   21.0975 F   0  0  0  0  0  0
  -21.5634   -3.4546   25.7739 F   0  0  0  0  0  0
  -30.0149  -13.3029   20.4734 N   0  0  0  0  0  0
  -26.3031  -12.9170   20.3302 N   0  0  0  0  0  0
  -25.9321  -11.6359   20.5728 N   0  0  0  0  0  0
  -22.0555  -12.8230   22.0374 N   0  0  0  0  0  0
  -25.4308  -15.1778   20.3959 N   0  0  0  0  0  0
  -31.8182  -14.6556   20.2589 O   0  0  0  0  0  0
  -21.6608   -6.8868   21.4252 O   0  0  0  0  0  0
  -22.3600  -14.5543   20.6689 O   0  0  0  0  0  0
  -24.6212  -31.8545   23.2101 C   0  0  0  0  0  0
  -25.9043  -32.4751   23.8399 C   0  0  1  0  0  0
  -27.2410  -27.4023   20.0838 C   0  0  0  0  0  0
  -25.5863  -33.8563   24.2305 N   0  0  0  0  0  0
  -23.4143  -30.4902   21.5427 C   0  0  2  0  0  0
  -24.8620  -28.9518   20.1058 C   0  0  0  0  0  0
  -22.7408  -29.4710   22.4843 C   0  0  0  0  0  0
  -18.0202  -28.1540   22.8612 C   0  0  0  0  0  0
  -24.1484  -36.7286   23.2629 C   0  0  0  0  0  0
  -25.9452  -30.8242   21.3544 C   0  0  0  0  0  0
  -26.0251  -29.4578   20.7002 C   0  0  0  0  0  0
  -27.2132  -28.6916   20.6827 C   0  0  0  0  0  0
  -26.0541  -26.9059   19.5041 C   0  0  0  0  0  0
  -24.8698  -27.6763   19.5151 C   0  0  0  0  0  0
  -23.6331  -29.8362   20.1522 C   0  0  0  0  0  0
  -25.4116  -36.3088   24.0331 C   0  0  1  0  0  0
  -20.5825  -28.3936   23.1235 C   0  0  2  0  0  0
  -20.6679  -26.9587   22.5503 C   0  0  0  0  0  0
  -19.5631  -26.6535   21.5345 C   0  0  0  0  0  0
  -18.1857  -26.7993   22.1944 C   0  0  0  0  0  0
  -19.1456  -28.9057   23.2948 C   0  0  0  0  0  0
  -18.9361  -30.1628   23.9042 C   0  0  0  0  0  0
  -17.6325  -30.6743   24.0626 C   0  0  0  0  0  0
  -25.9031  -34.9447   23.5143 C   0  0  0  0  0  0
  -16.5227  -29.9292   23.6290 C   0  0  0  0  0  0
  -16.7193  -28.6702   23.0310 C   0  0  0  0  0  0
  -26.4489  -31.6564   25.0747 C   0  0  0  0  0  0
  -25.3818  -31.3668   26.1554 C   0  0  0  0  0  0
  -27.0275  -30.3017   24.6071 C   0  0  0  0  0  0
  -27.6016  -32.4353   25.7535 C   0  0  0  0  0  0
  -27.5567  -37.1800   24.8455 C   0  0  0  0  0  0
  -21.4120  -29.3195   22.3493 N   0  0  0  0  0  0
  -26.4273  -37.3810   23.9410 N   0  0  0  0  0  0
  -24.6831  -31.0690   22.0999 N   0  0  0  0  0  0
  -23.4082  -28.8223   23.2965 O   0  0  0  0  0  0
  -28.4105  -26.6615   20.1340 O   0  0  0  0  0  0
  -26.5590  -34.8899   22.4698 O   0  0  0  0  0  0
  -23.5395  -32.1297   23.7437 O   0  0  0  0  0  0
  -27.7925  -23.6263   20.8003 C   0  0  0  0  0  0
  -28.3349  -24.1484   19.6519 C   0  0  0  0  0  0
  -28.6464  -22.9793   18.8913 C   0  0  0  0  0  0
  -29.3631  -22.8501   17.5836 C   0  0  0  0  0  0
  -31.5447  -17.5727   21.6186 C   0  0  0  0  0  0
  -30.5075  -16.0690   23.2916 C   0  0  0  0  0  0
  -28.9043  -18.3674   23.5883 C   0  0  0  0  0  0
  -28.6399  -25.5770   19.2077 C   0  0  0  0  0  0
  -29.7982  -15.8138   20.8659 C   0  0  0  0  0  0
  -27.5418  -19.6955   21.1211 C   0  0  0  0  0  0
  -27.3727  -21.1788   21.6150 C   0  0  0  0  0  0
  -28.9601  -19.0378   21.1986 C   0  0  0  0  0  0
  -30.2165  -16.8640   21.9811 C   0  0  0  0  0  0
  -28.2904  -21.8592   19.4887 N   0  0  0  0  0  0
  -27.7950  -22.2332   20.6802 N   0  0  0  0  0  0
  -29.0925  -17.9007   22.1872 N   0  3  1  0  0  0
  -31.4792  -12.4443   19.1710 H   0  0  0  0  0  0
  -30.3651  -11.2940   19.8745 H   0  0  0  0  0  0
  -29.7837  -11.7320   17.4981 H   0  0  0  0  0  0
  -29.6648  -13.4438   17.7834 H   0  0  0  0  0  0
  -27.9354  -11.2226   18.9463 H   0  0  0  0  0  0
  -27.3760  -12.4145   17.8250 H   0  0  0  0  0  0
  -27.7158  -14.2047   19.5490 H   0  0  0  0  0  0
  -28.6595  -11.9408   21.3366 H   0  0  0  0  0  0
  -28.4286  -13.5839   21.8738 H   0  0  0  0  0  0
  -25.2809   -9.5580   22.4739 H   0  0  0  0  0  0
  -24.0006   -7.4575   22.7505 H   0  0  0  0  0  0
  -21.0859   -8.8797   19.8940 H   0  0  0  0  0  0
  -22.3843  -10.9632   19.6131 H   0  0  0  0  0  0
  -21.2017   -7.6157   23.9725 H   0  0  0  0  0  0
  -21.1498   -6.0536   25.9084 H   0  0  0  0  0  0
  -22.0582   -2.7614   23.2848 H   0  0  0  0  0  0
  -22.4205  -11.9938   22.4780 H   0  0  0  0  0  0
  -21.1138  -13.1164   22.2539 H   0  0  0  0  0  0
  -24.6310  -15.7937   20.4852 H   0  0  0  0  0  0
  -26.2413  -15.6232   19.9849 H   0  0  0  0  0  0
  -26.7043  -32.5498   23.1088 H   0  0  0  0  0  0
  -25.0027  -33.9719   25.0464 H   0  0  0  0  0  0
  -22.7192  -31.3170   21.4167 H   0  0  0  0  0  0
  -23.3760  -35.9599   23.3302 H   0  0  0  0  0  0
  -24.3522  -36.8895   22.2029 H   0  0  0  0  0  0
  -23.7244  -37.6508   23.6644 H   0  0  0  0  0  0
  -26.0486  -31.5895   20.5798 H   0  0  0  0  0  0
  -26.8395  -30.8878   21.9607 H   0  0  0  0  0  0
  -28.1175  -29.0895   21.1241 H   0  0  0  0  0  0
  -26.0276  -25.9160   19.0647 H   0  0  0  0  0  0
  -23.9686  -27.2655   19.0802 H   0  0  0  0  0  0
  -23.7612  -30.6263   19.4057 H   0  0  0  0  0  0
  -22.7597  -29.2656   19.8357 H   0  0  0  0  0  0
  -25.1295  -36.1947   25.0825 H   0  0  0  0  0  0
  -21.0031  -28.3841   24.1313 H   0  0  0  0  0  0
  -20.5532  -26.2537   23.3751 H   0  0  0  0  0  0
  -21.6494  -26.7637   22.1211 H   0  0  0  0  0  0
  -19.6717  -25.6496   21.1293 H   0  0  0  0  0  0
  -19.6397  -27.3488   20.6943 H   0  0  0  0  0  0
  -17.3932  -26.6324   21.4599 H   0  0  0  0  0  0
  -18.0621  -26.0338   22.9606 H   0  0  0  0  0  0
  -19.7771  -30.7551   24.2415 H   0  0  0  0  0  0
  -17.4854  -31.6442   24.5276 H   0  0  0  0  0  0
  -15.5217  -30.3197   23.7591 H   0  0  0  0  0  0
  -15.8584  -28.1199   22.6879 H   0  0  0  0  0  0
  -24.5936  -30.7029   25.7986 H   0  0  0  0  0  0
  -24.9065  -32.2834   26.5084 H   0  0  0  0  0  0
  -25.8200  -30.8835   27.0290 H   0  0  0  0  0  0
  -26.2796  -29.6855   24.1039 H   0  0  0  0  0  0
  -27.4006  -29.7172   25.4483 H   0  0  0  0  0  0
  -27.8693  -30.4385   23.9267 H   0  0  0  0  0  0
  -27.2530  -33.3595   26.2162 H   0  0  0  0  0  0
  -28.3794  -32.7016   25.0384 H   0  0  0  0  0  0
  -28.0742  -31.8506   26.5433 H   0  0  0  0  0  0
  -28.2612  -38.0070   24.7527 H   0  0  0  0  0  0
  -28.1036  -36.2623   24.6280 H   0  0  0  0  0  0
  -27.2256  -37.1462   25.8840 H   0  0  0  0  0  0
  -20.9276  -29.8875   21.6666 H   0  0  0  0  0  0
  -26.0137  -38.2862   24.1483 H   0  0  0  0  0  0
  -27.4281  -24.1460   21.6780 H   0  0  0  0  0  0
  -29.0624  -21.9434   17.0549 H   0  0  0  0  0  0
  -30.4410  -22.7761   17.7664 H   0  0  0  0  0  0
  -29.1713  -23.6960   16.9164 H   0  0  0  0  0  0
  -31.7372  -18.4522   22.2361 H   0  0  0  0  0  0
  -31.5456  -17.8983   20.5787 H   0  0  0  0  0  0
  -32.4051  -16.9075   21.7350 H   0  0  0  0  0  0
  -30.7136  -16.7004   24.1539 H   0  0  0  0  0  0
  -29.6811  -15.4157   23.5610 H   0  0  0  0  0  0
  -31.3990  -15.4428   23.2088 H   0  0  0  0  0  0
  -28.7003  -17.5355   24.2579 H   0  0  0  0  0  0
  -28.0303  -19.0014   23.6688 H   0  0  0  0  0  0
  -29.7569  -18.9208   23.9787 H   0  0  0  0  0  0
  -28.1982  -25.7830   18.2337 H   0  0  0  0  0  0
  -29.7120  -25.6262   19.0187 H   0  0  0  0  0  0
  -29.7763  -16.3416   19.9188 H   0  0  0  0  0  0
  -28.7628  -15.5373   20.9908 H   0  0  0  0  0  0
  -27.2400  -19.6599   20.0747 H   0  0  0  0  0  0
  -26.7823  -19.0597   21.5750 H   0  0  0  0  0  0
  -27.8669  -21.3465   22.5705 H   0  0  0  0  0  0
  -26.3036  -21.3224   21.7877 H   0  0  0  0  0  0
  -29.7143  -19.8171   21.3214 H   0  0  0  0  0  0
  -29.0952  -18.6126   20.2074 H   0  0  0  0  0  0
  -28.2499  -17.3637   22.0413 H   0  0  0  0  0  0
  1 25  1  0  0  0
  1 30  2  0  0  0
  1 79  1  0  0  0
  2  3  1  0  0  0
  2 25  1  0  0  0
  2 87  1  0  0  0
  2 88  1  0  0  0
  3  4  1  0  0  0
  3 89  1  0  0  0
  3 90  1  0  0  0
  4  5  1  0  0  0
  4 91  1  0  0  0
  4 92  1  0  0  0
  5  6  1  0  0  0
  5 26  1  0  0  0
  5 93  1  0  0  0
  6 25  1  0  0  0
  6 94  1  0  0  0
  6 95  1  0  0  0
  7  8  2  0  0  0
  7 26  1  0  0  0
  7 29  1  0  0  0
  8  9  1  0  0  0
  8 22  1  0  0  0
  9 10  1  0  0  0
  9 27  2  0  0  0
 10 11  2  0  0  0
 10 15  1  0  0  0
 11 12  1  0  0  0
 11 96  1  0  0  0
 12 13  2  0  0  0
 12 97  1  0  0  0
 13 14  1  0  0  0
 13 31  1  0  0  0
 14 15  2  0  0  0
 14 98  1  0  0  0
 15 99  1  0  0  0
 16 17  2  0  0  0
 16 21  1  0  0  0
 16 31  1  0  0  0
 17 18  1  0  0  0
 17100  1  0  0  0
 18 19  2  0  0  0
 18101  1  0  0  0
 19 20  1  0  0  0
 19 24  1  0  0  0
 20 21  2  0  0  0
 20102  1  0  0  0
 21 23  1  0  0  0
 22 28  1  0  0  0
 22 32  2  0  0  0
 26 27  1  0  0  0
 28103  1  0  0  0
 28104  1  0  0  0
 29105  1  0  0  0
 29106  1  0  0  0
 33 34  1  0  0  0
 33 66  1  0  0  0
 33 70  2  0  0  0
 34 36  1  0  0  0
 34 59  1  0  0  0
 34107  1  0  0  0
 35 44  2  0  0  0
 35 45  1  0  0  0
 35 68  1  0  0  0
 36 56  1  0  0  0
 36108  1  0  0  0
 37 39  1  0  0  0
 37 47  1  0  0  0
 37 66  1  0  0  0
 37109  1  0  0  0
 38 43  2  0  0  0
 38 46  1  0  0  0
 38 47  1  0  0  0
 39 64  1  0  0  0
 39 67  2  0  0  0
 40 52  1  0  0  0
 40 53  2  0  0  0
 40 58  1  0  0  0
 41110  1  0  0  0
 41111  1  0  0  0
 41112  1  0  0  0
 41 48  1  0  0  0
 42 43  1  0  0  0
 42 66  1  0  0  0
 42113  1  0  0  0
 42114  1  0  0  0
 43 44  1  0  0  0
 44115  1  0  0  0
 45 46  2  0  0  0
 45116  1  0  0  0
 46117  1  0  0  0
 47118  1  0  0  0
 47119  1  0  0  0
 48 56  1  0  0  0
 48 65  1  0  0  0
 48120  1  0  0  0
 49 50  1  0  0  0
 49 53  1  0  0  0
 49 64  1  0  0  0
 49121  1  0  0  0
 50 51  1  0  0  0
 50122  1  0  0  0
 50123  1  0  0  0
 51 52  1  0  0  0
 51124  1  0  0  0
 51125  1  0  0  0
 52126  1  0  0  0
 52127  1  0  0  0
 53 54  1  0  0  0
 54 55  2  0  0  0
 54128  1  0  0  0
 55 57  1  0  0  0
 55129  1  0  0  0
 56 69  2  0  0  0
 57 58  2  0  0  0
 57130  1  0  0  0
 58131  1  0  0  0
 59 60  1  0  0  0
 59 61  1  0  0  0
 59 62  1  0  0  0
 60132  1  0  0  0
 60133  1  0  0  0
 60134  1  0  0  0
 61135  1  0  0  0
 61136  1  0  0  0
 61137  1  0  0  0
 62138  1  0  0  0
 62139  1  0  0  0
 62140  1  0  0  0
 63 65  1  0  0  0
 63141  1  0  0  0
 63142  1  0  0  0
 63143  1  0  0  0
 64144  1  0  0  0
 65145  1  0  0  0
 68 78  1  0  0  0
 71 72  2  0  0  0
 71 85  1  0  0  0
 71146  1  0  0  0
 72 73  1  0  0  0
 72 78  1  0  0  0
 73 74  1  0  0  0
 73 84  2  0  0  0
 74147  1  0  0  0
 74148  1  0  0  0
 74149  1  0  0  0
 75150  1  0  0  0
 75151  1  0  0  0
 75152  1  0  0  0
 75 83  1  0  0  0
 76 83  1  0  0  0
 76153  1  0  0  0
 76154  1  0  0  0
 76155  1  0  0  0
 77156  1  0  0  0
 77157  1  0  0  0
 77158  1  0  0  0
 77 86  1  0  0  0
 78159  1  0  0  0
 78160  1  0  0  0
 79 83  1  0  0  0
 79161  1  0  0  0
 79162  1  0  0  0
 80 81  1  0  0  0
 80 82  1  0  0  0
 80163  1  0  0  0
 80164  1  0  0  0
 81 85  1  0  0  0
 81165  1  0  0  0
 81166  1  0  0  0
 82 86  1  0  0  0
 82167  1  0  0  0
 82168  1  0  0  0
 83 86  1  0  0  0
 84 85  1  0  0  0
 86169  1  0  0  0
M  CHG  1  86   1
M  ISO  4   1 100  68 101  78 101  79 100
M  END
> <chiral flag>
0

> <version>
0

> <s_m_source_file>
/data/baiqing/PycharmProjects/Reinvent-master-3.2/result/LINK_invent/BTK/process_docking_weight1_custom_sum_contain_oxygen_bond_distance_aromatic_linkinvent_7_9_3/rearranged_h_0049.sdf

> <i_m_source_file_index>
58

> <r_mmod_Potential_Energy-OPLS-2005>
-68.4927368164062

> <r_mmod_Stretch_Energy-OPLS-2005>
60.3960876464844

> <r_mmod_Bend_Energy-OPLS-2005>
149.729110717773

> <r_mmod_Torsional_Energy-OPLS-2005>
216.576416015625

> <r_mmod_Improper_Torsional_Energy-OPLS-2005>
6.89039373397827

> <r_mmod_Van_der_Waal_Energy-OPLS-2005>
137.172821044922

> <r_mmod_Electrostatic_Energy-OPLS-2005>
-249.408950805664

> <r_mmod_Solvation_Energy-OPLS-2005>
-415.564331054688

> <b_mmod_Minimization_Converged-OPLS-2005>
0

> <r_mmod_RMS_Derivative-OPLS-2005>
14.2390928268433

$$$$
60
                    3D
 Structure written by MMmdl.
165173  0  0  1  0            999 V2000
  -30.6742  -14.4717   20.4914 C   0  0  0  0  0  0
  -30.3883  -12.2670   19.4907 C   0  0  0  0  0  0
  -29.5076  -12.5285   18.2525 C   0  0  0  0  0  0
  -28.0254  -12.3525   18.6372 C   0  0  0  0  0  0
  -27.6471  -13.2047   19.8808 C   0  0  2  0  0  0
  -28.6776  -13.0331   21.0266 C   0  0  0  0  0  0
  -25.2461  -13.8096   20.5688 C   0  0  0  0  0  0
  -24.1745  -13.0388   20.9160 C   0  0  0  0  0  0
  -24.6307  -11.6859   20.8725 C   0  0  0  0  0  0
  -23.8984  -10.4276   21.0353 C   0  0  0  0  0  0
  -24.3557   -9.4217   21.9153 C   0  0  0  0  0  0
  -23.6268   -8.2242   22.0732 C   0  0  0  0  0  0
  -22.4248   -8.0246   21.3536 C   0  0  0  0  0  0
  -21.9851   -9.0199   20.4635 C   0  0  0  0  0  0
  -22.7144  -10.2091   20.3015 C   0  0  0  0  0  0
  -21.6861   -6.0718   22.5282 C   0  0  0  0  0  0
  -21.4028   -6.5613   23.8217 C   0  0  0  0  0  0
  -21.3659   -5.6760   24.9174 C   0  0  0  0  0  0
  -21.6054   -4.3027   24.7214 C   0  0  0  0  0  0
  -21.8818   -3.8123   23.4329 C   0  0  0  0  0  0
  -21.9206   -4.6954   22.3391 C   0  0  0  0  0  0
  -22.7778  -13.5202   21.1830 C   0  0  0  0  0  0
  -22.1658   -4.2128   21.0977 F   0  0  0  0  0  0
  -21.5626   -3.4509   25.7720 F   0  0  0  0  0  0
  -30.0256  -13.2798   20.4869 N   0  0  0  0  0  0
  -26.2913  -12.9293   20.3363 N   0  0  0  0  0  0
  -25.9235  -11.6460   20.5784 N   0  0  0  0  0  0
  -22.0417  -12.8281   22.0425 N   0  0  0  0  0  0
  -25.4076  -15.1845   20.4089 N   0  0  0  0  0  0
  -31.8454  -14.6155   20.1225 O   0  0  0  0  0  0
  -21.6638   -6.8834   21.4230 O   0  0  0  0  0  0
  -22.3503  -14.5539   20.6656 O   0  0  0  0  0  0
  -24.6234  -31.8611   23.2022 C   0  0  0  0  0  0
  -25.9116  -32.4804   23.8295 C   0  0  1  0  0  0
  -27.1981  -27.3991   20.0530 C   0  0  0  0  0  0
  -25.6001  -33.8619   24.2193 N   0  0  0  0  0  0
  -23.4049  -30.4879   21.5497 C   0  0  2  0  0  0
  -24.8301  -28.9580   20.0938 C   0  0  0  0  0  0
  -22.7459  -29.4566   22.4945 C   0  0  0  0  0  0
  -18.0280  -28.1382   22.8443 C   0  0  0  0  0  0
  -24.1490  -36.7328   23.2621 C   0  0  0  0  0  0
  -25.9372  -30.8050   21.3521 C   0  0  0  0  0  0
  -25.9978  -29.4411   20.6989 C   0  0  0  0  0  0
  -27.1838  -28.6712   20.6733 C   0  0  0  0  0  0
  -25.9979  -26.9228   19.4680 C   0  0  0  0  0  0
  -24.8310  -27.7013   19.4670 C   0  0  0  0  0  0
  -23.6045  -29.8393   20.1534 C   0  0  0  0  0  0
  -25.4118  -36.3103   24.0279 C   0  0  1  0  0  0
  -20.5870  -28.3609   23.1306 C   0  0  2  0  0  0
  -20.6758  -26.9347   22.5380 C   0  0  0  0  0  0
  -19.5749  -26.6348   21.5188 C   0  0  0  0  0  0
  -18.1911  -26.7917   22.1590 C   0  0  0  0  0  0
  -19.1522  -28.8815   23.2857 C   0  0  0  0  0  0
  -18.9485  -30.1456   23.8825 C   0  0  0  0  0  0
  -17.6479  -30.6571   24.0548 C   0  0  0  0  0  0
  -25.9078  -34.9505   23.5014 C   0  0  0  0  0  0
  -16.5362  -29.9070   23.6360 C   0  0  0  0  0  0
  -16.7255  -28.6514   23.0297 C   0  0  0  0  0  0
  -26.4462  -31.6679   25.0737 C   0  0  0  0  0  0
  -25.3758  -31.3871   26.1520 C   0  0  0  0  0  0
  -27.0182  -30.3097   24.6106 C   0  0  0  0  0  0
  -27.5947  -32.4442   25.7608 C   0  0  0  0  0  0
  -27.5547  -37.1822   24.8446 C   0  0  0  0  0  0
  -21.4164  -29.3015   22.3771 N   0  0  0  0  0  0
  -26.4251  -37.3840   23.9418 N   0  0  0  0  0  0
  -24.6760  -31.0658   22.0938 N   0  0  0  0  0  0
  -23.4244  -28.8063   23.2922 O   0  0  0  0  0  0
  -28.3720  -26.6649   20.0253 O   0  0  0  0  0  0
  -26.5604  -34.8994   22.4559 O   0  0  0  0  0  0
  -23.5418  -32.1355   23.7408 O   0  0  0  0  0  0
  -30.9390  -18.7595   19.4279 C   0  0  0  0  0  0
  -29.8114  -17.9423   19.6887 C   0  0  0  0  0  0
  -28.5218  -19.8492   19.9680 C   0  0  0  0  0  0
  -29.6640  -20.6672   19.7007 C   0  0  0  0  0  0
  -32.2615  -18.2119   18.9348 C   0  0  0  0  0  0
  -27.1088  -20.4027   20.0607 C   0  0  0  0  0  0
  -30.4375  -23.0649   17.2860 C   0  0  0  0  0  0
  -29.8177  -16.4488   19.3761 C   0  0  0  0  0  0
  -29.4166  -24.4468   20.3797 C   0  0  0  0  0  0
  -29.3494  -22.2260   17.9728 C   0  0  0  0  0  0
  -29.1180  -22.9236   20.4770 C   0  0  0  0  0  0
  -28.2534  -25.2519   19.7728 C   0  0  0  0  0  0
  -28.6135  -18.4907   20.0093 N   0  0  0  0  0  0
  -30.8701  -20.1094   19.4778 N   0  0  0  0  0  0
  -29.8460  -15.5238   20.5156 N   0  0  0  0  0  0
  -29.6204  -22.0460   19.4063 N   0  0  0  0  0  0
  -31.4506  -12.2811   19.2452 H   0  0  0  0  0  0
  -30.1774  -11.2743   19.8921 H   0  0  0  0  0  0
  -29.7887  -11.8610   17.4403 H   0  0  0  0  0  0
  -29.6674  -13.5465   17.8904 H   0  0  0  0  0  0
  -27.8642  -11.2955   18.8486 H   0  0  0  0  0  0
  -27.3762  -12.5888   17.7948 H   0  0  0  0  0  0
  -27.6620  -14.2452   19.5580 H   0  0  0  0  0  0
  -28.6284  -12.0239   21.4328 H   0  0  0  0  0  0
  -28.4491  -13.6913   21.8664 H   0  0  0  0  0  0
  -25.2674   -9.5740   22.4768 H   0  0  0  0  0  0
  -23.9979   -7.4644   22.7446 H   0  0  0  0  0  0
  -21.0784   -8.8667   19.8967 H   0  0  0  0  0  0
  -22.3528  -10.9615   19.6139 H   0  0  0  0  0  0
  -21.2020   -7.6117   23.9708 H   0  0  0  0  0  0
  -21.1490   -6.0494   25.9083 H   0  0  0  0  0  0
  -22.0615   -2.7589   23.2830 H   0  0  0  0  0  0
  -22.4008  -11.9962   22.4896 H   0  0  0  0  0  0
  -21.1015  -13.1330   22.2548 H   0  0  0  0  0  0
  -24.6104  -15.8054   20.4898 H   0  0  0  0  0  0
  -26.2594  -15.6649   20.1530 H   0  0  0  0  0  0
  -26.7205  -32.5412   23.1050 H   0  0  0  0  0  0
  -25.0361  -33.9757   25.0475 H   0  0  0  0  0  0
  -22.6972  -31.3084   21.4214 H   0  0  0  0  0  0
  -23.3734  -35.9687   23.3316 H   0  0  0  0  0  0
  -24.3520  -36.8937   22.2025 H   0  0  0  0  0  0
  -23.7300  -37.6564   23.6624 H   0  0  0  0  0  0
  -26.0498  -31.5472   20.5635 H   0  0  0  0  0  0
  -26.8328  -30.8614   21.9586 H   0  0  0  0  0  0
  -28.0847  -29.0408   21.1418 H   0  0  0  0  0  0
  -25.9302  -25.9523   18.9909 H   0  0  0  0  0  0
  -23.9454  -27.3250   18.9725 H   0  0  0  0  0  0
  -23.7283  -30.6232   19.4057 H   0  0  0  0  0  0
  -22.7206  -29.2755   19.8473 H   0  0  0  0  0  0
  -25.1326  -36.1901   25.0758 H   0  0  0  0  0  0
  -20.9922  -28.3139   24.1427 H   0  0  0  0  0  0
  -20.5639  -26.2216   23.3558 H   0  0  0  0  0  0
  -21.6639  -26.7362   22.1197 H   0  0  0  0  0  0
  -19.6910  -25.6258   21.1225 H   0  0  0  0  0  0
  -19.6736  -27.3148   20.6713 H   0  0  0  0  0  0
  -17.4191  -26.6621   21.3982 H   0  0  0  0  0  0
  -18.0302  -26.0076   22.9003 H   0  0  0  0  0  0
  -19.7968  -30.7277   24.2106 H   0  0  0  0  0  0
  -17.5059  -31.6243   24.5178 H   0  0  0  0  0  0
  -15.5368  -30.2948   23.7769 H   0  0  0  0  0  0
  -15.8645  -28.0880   22.6956 H   0  0  0  0  0  0
  -24.5888  -30.7216   25.7975 H   0  0  0  0  0  0
  -24.9009  -32.3075   26.4962 H   0  0  0  0  0  0
  -25.8200  -30.9134   27.0306 H   0  0  0  0  0  0
  -26.2614  -29.7036   24.1121 H   0  0  0  0  0  0
  -27.3871  -29.7206   25.4524 H   0  0  0  0  0  0
  -27.8545  -30.4378   23.9232 H   0  0  0  0  0  0
  -27.2397  -33.3678   26.2208 H   0  0  0  0  0  0
  -28.3822  -32.7147   25.0574 H   0  0  0  0  0  0
  -28.0561  -31.8613   26.5597 H   0  0  0  0  0  0
  -28.2573  -38.0114   24.7470 H   0  0  0  0  0  0
  -28.1027  -36.2640   24.6267 H   0  0  0  0  0  0
  -27.2246  -37.1483   25.8845 H   0  0  0  0  0  0
  -20.9307  -29.8913   21.7171 H   0  0  0  0  0  0
  -26.0112  -38.2905   24.1470 H   0  0  0  0  0  0
  -33.0598  -18.9429   19.0731 H   0  0  0  0  0  0
  -32.1913  -17.9785   17.8696 H   0  0  0  0  0  0
  -32.5284  -17.3081   19.4830 H   0  0  0  0  0  0
  -26.9227  -20.8547   21.0345 H   0  0  0  0  0  0
  -26.3769  -19.6041   19.9170 H   0  0  0  0  0  0
  -26.9437  -21.1496   19.2799 H   0  0  0  0  0  0
  -30.5330  -22.8161   16.2258 H   0  0  0  0  0  0
  -31.4139  -22.8945   17.7421 H   0  0  0  0  0  0
  -30.2229  -24.1293   17.3574 H   0  0  0  0  0  0
  -28.8999  -16.2325   18.8301 H   0  0  0  0  0  0
  -30.5964  -16.2239   18.6432 H   0  0  0  0  0  0
  -30.3757  -24.6818   19.9184 H   0  0  0  0  0  0
  -29.4929  -24.8079   21.4060 H   0  0  0  0  0  0
  -29.3229  -21.2425   17.4895 H   0  0  0  0  0  0
  -28.3570  -22.6467   17.8033 H   0  0  0  0  0  0
  -28.0477  -22.7912   20.5898 H   0  0  0  0  0  0
  -29.5456  -22.5714   21.4189 H   0  0  0  0  0  0
  -28.1215  -25.0231   18.7121 H   0  0  0  0  0  0
  -27.3656  -24.8937   20.2851 H   0  0  0  0  0  0
  -28.9442  -15.3646   20.9380 H   0  0  0  0  0  0
  1 25  1  0  0  0
  1 30  2  0  0  0
  1 85  1  0  0  0
  2  3  1  0  0  0
  2 25  1  0  0  0
  2 87  1  0  0  0
  2 88  1  0  0  0
  3  4  1  0  0  0
  3 89  1  0  0  0
  3 90  1  0  0  0
  4  5  1  0  0  0
  4 91  1  0  0  0
  4 92  1  0  0  0
  5  6  1  0  0  0
  5 26  1  0  0  0
  5 93  1  0  0  0
  6 25  1  0  0  0
  6 94  1  0  0  0
  6 95  1  0  0  0
  7  8  2  0  0  0
  7 26  1  0  0  0
  7 29  1  0  0  0
  8  9  1  0  0  0
  8 22  1  0  0  0
  9 10  1  0  0  0
  9 27  2  0  0  0
 10 11  2  0  0  0
 10 15  1  0  0  0
 11 12  1  0  0  0
 11 96  1  0  0  0
 12 13  2  0  0  0
 12 97  1  0  0  0
 13 14  1  0  0  0
 13 31  1  0  0  0
 14 15  2  0  0  0
 14 98  1  0  0  0
 15 99  1  0  0  0
 16 17  2  0  0  0
 16 21  1  0  0  0
 16 31  1  0  0  0
 17 18  1  0  0  0
 17100  1  0  0  0
 18 19  2  0  0  0
 18101  1  0  0  0
 19 20  1  0  0  0
 19 24  1  0  0  0
 20 21  2  0  0  0
 20102  1  0  0  0
 21 23  1  0  0  0
 22 28  1  0  0  0
 22 32  2  0  0  0
 26 27  1  0  0  0
 28103  1  0  0  0
 28104  1  0  0  0
 29105  1  0  0  0
 29106  1  0  0  0
 33 34  1  0  0  0
 33 66  1  0  0  0
 33 70  2  0  0  0
 34 36  1  0  0  0
 34 59  1  0  0  0
 34107  1  0  0  0
 35 44  2  0  0  0
 35 45  1  0  0  0
 35 68  1  0  0  0
 36 56  1  0  0  0
 36108  1  0  0  0
 37 39  1  0  0  0
 37 47  1  0  0  0
 37 66  1  0  0  0
 37109  1  0  0  0
 38 43  2  0  0  0
 38 46  1  0  0  0
 38 47  1  0  0  0
 39 64  1  0  0  0
 39 67  2  0  0  0
 40 52  1  0  0  0
 40 53  2  0  0  0
 40 58  1  0  0  0
 41110  1  0  0  0
 41111  1  0  0  0
 41112  1  0  0  0
 41 48  1  0  0  0
 42 43  1  0  0  0
 42 66  1  0  0  0
 42113  1  0  0  0
 42114  1  0  0  0
 43 44  1  0  0  0
 44115  1  0  0  0
 45 46  2  0  0  0
 45116  1  0  0  0
 46117  1  0  0  0
 47118  1  0  0  0
 47119  1  0  0  0
 48 56  1  0  0  0
 48 65  1  0  0  0
 48120  1  0  0  0
 49 50  1  0  0  0
 49 53  1  0  0  0
 49 64  1  0  0  0
 49121  1  0  0  0
 50 51  1  0  0  0
 50122  1  0  0  0
 50123  1  0  0  0
 51 52  1  0  0  0
 51124  1  0  0  0
 51125  1  0  0  0
 52126  1  0  0  0
 52127  1  0  0  0
 53 54  1  0  0  0
 54 55  2  0  0  0
 54128  1  0  0  0
 55 57  1  0  0  0
 55129  1  0  0  0
 56 69  2  0  0  0
 57 58  2  0  0  0
 57130  1  0  0  0
 58131  1  0  0  0
 59 60  1  0  0  0
 59 61  1  0  0  0
 59 62  1  0  0  0
 60132  1  0  0  0
 60133  1  0  0  0
 60134  1  0  0  0
 61135  1  0  0  0
 61136  1  0  0  0
 61137  1  0  0  0
 62138  1  0  0  0
 62139  1  0  0  0
 62140  1  0  0  0
 63 65  1  0  0  0
 63141  1  0  0  0
 63142  1  0  0  0
 63143  1  0  0  0
 64144  1  0  0  0
 65145  1  0  0  0
 68 82  1  0  0  0
 71 72  2  0  0  0
 71 75  1  0  0  0
 71 84  1  0  0  0
 72 78  1  0  0  0
 72 83  1  0  0  0
 73 74  1  0  0  0
 73 76  1  0  0  0
 73 83  2  0  0  0
 74 84  2  0  0  0
 74 86  1  0  0  0
 75146  1  0  0  0
 75147  1  0  0  0
 75148  1  0  0  0
 76149  1  0  0  0
 76150  1  0  0  0
 76151  1  0  0  0
 77 80  1  0  0  0
 77152  1  0  0  0
 77153  1  0  0  0
 77154  1  0  0  0
 78 85  1  0  0  0
 78155  1  0  0  0
 78156  1  0  0  0
 79 81  1  0  0  0
 79 82  1  0  0  0
 79157  1  0  0  0
 79158  1  0  0  0
 80 86  1  0  0  0
 80159  1  0  0  0
 80160  1  0  0  0
 81 86  1  0  0  0
 81161  1  0  0  0
 81162  1  0  0  0
 82163  1  0  0  0
 82164  1  0  0  0
 85165  1  0  0  0
M  ISO  4   1 100  68 101  82 101  85 100
M  END
> <chiral flag>
0

> <version>
0

> <s_m_source_file>
/data/baiqing/PycharmProjects/Reinvent-master-3.2/result/LINK_invent/BTK/process_docking_weight1_custom_sum_contain_oxygen_bond_distance_aromatic_linkinvent_7_9_3/rearranged_h_0049.sdf

> <i_m_source_file_index>
59

> <r_mmod_Potential_Energy-OPLS-2005>
8.9299783706665

> <r_mmod_Stretch_Energy-OPLS-2005>
40.5497512817383

> <r_mmod_Bend_Energy-OPLS-2005>
120.6162109375

> <r_mmod_Torsional_Energy-OPLS-2005>
288.679229736328

> <r_mmod_Improper_Torsional_Energy-OPLS-2005>
20.8376541137695

> <r_mmod_Van_der_Waal_Energy-OPLS-2005>
163.418685913086

> <r_mmod_Electrostatic_Energy-OPLS-2005>
-420.48828125

> <r_mmod_Solvation_Energy-OPLS-2005>
-227.565521240234

> <b_mmod_Minimization_Converged-OPLS-2005>
0

> <r_mmod_RMS_Derivative-OPLS-2005>
8.59964466094971

$$$$
61
                    3D
 Structure written by MMmdl.
177185  0  0  1  0            999 V2000
  -30.6623  -14.7542   20.2969 C   0  0  0  0  0  0
  -30.4574  -12.4066   19.4793 C   0  0  0  0  0  0
  -29.5189  -12.2546   18.2619 C   0  0  0  0  0  0
  -28.0255  -12.2448   18.6627 C   0  0  0  0  0  0
  -27.6331  -13.2130   19.8164 C   0  0  2  0  0  0
  -28.7045  -13.2462   20.9278 C   0  0  0  0  0  0
  -25.2323  -13.7953   20.5739 C   0  0  0  0  0  0
  -24.1691  -13.0220   20.9307 C   0  0  0  0  0  0
  -24.6366  -11.6772   20.8848 C   0  0  0  0  0  0
  -23.9051  -10.4189   21.0454 C   0  0  0  0  0  0
  -24.3609   -9.4128   21.9230 C   0  0  0  0  0  0
  -23.6273   -8.2177   22.0774 C   0  0  0  0  0  0
  -22.4255   -8.0238   21.3550 C   0  0  0  0  0  0
  -21.9895   -9.0219   20.4651 C   0  0  0  0  0  0
  -22.7238  -10.2080   20.3076 C   0  0  0  0  0  0
  -21.6843   -6.0705   22.5279 C   0  0  0  0  0  0
  -21.4008   -6.5617   23.8211 C   0  0  0  0  0  0
  -21.3653   -5.6774   24.9177 C   0  0  0  0  0  0
  -21.6050   -4.3037   24.7229 C   0  0  0  0  0  0
  -21.8832   -3.8125   23.4353 C   0  0  0  0  0  0
  -21.9190   -4.6933   22.3406 C   0  0  0  0  0  0
  -22.7714  -13.5037   21.1914 C   0  0  0  0  0  0
  -22.1654   -4.2122   21.0982 F   0  0  0  0  0  0
  -21.5637   -3.4524   25.7742 F   0  0  0  0  0  0
  -29.9933  -13.5484   20.2874 N   0  0  0  0  0  0
  -26.2897  -12.9291   20.3290 N   0  0  0  0  0  0
  -25.9316  -11.6455   20.5901 N   0  0  0  0  0  0
  -22.0325  -12.8079   22.0482 N   0  0  0  0  0  0
  -25.3440  -15.1614   20.4118 N   0  0  0  0  0  0
  -31.8846  -14.7902   20.4207 O   0  0  0  0  0  0
  -21.6624   -6.8845   21.4240 O   0  0  0  0  0  0
  -22.3429  -14.5356   20.6739 O   0  0  0  0  0  0
  -24.6213  -31.8613   23.2037 C   0  0  0  0  0  0
  -25.9074  -32.4794   23.8367 C   0  0  1  0  0  0
  -27.2541  -27.3591   20.1431 C   0  0  0  0  0  0
  -25.5901  -33.8596   24.2293 N   0  0  0  0  0  0
  -23.4170  -30.4799   21.5427 C   0  0  2  0  0  0
  -24.8731  -28.9275   20.1231 C   0  0  0  0  0  0
  -22.7459  -29.4621   22.4947 C   0  0  0  0  0  0
  -18.0278  -28.1386   22.8491 C   0  0  0  0  0  0
  -24.1478  -36.7306   23.2643 C   0  0  0  0  0  0
  -25.9514  -30.8045   21.3700 C   0  0  0  0  0  0
  -26.0337  -29.4285   20.7274 C   0  0  0  0  0  0
  -27.2277  -28.6561   20.7288 C   0  0  0  0  0  0
  -26.0750  -26.8869   19.5295 C   0  0  0  0  0  0
  -24.8926  -27.6586   19.5159 C   0  0  0  0  0  0
  -23.6363  -29.8038   20.1615 C   0  0  0  0  0  0
  -25.4104  -36.3092   24.0333 C   0  0  1  0  0  0
  -20.5876  -28.3686   23.1296 C   0  0  2  0  0  0
  -20.6767  -26.9411   22.5420 C   0  0  0  0  0  0
  -19.5745  -26.6375   21.5223 C   0  0  0  0  0  0
  -18.1920  -26.7928   22.1627 C   0  0  0  0  0  0
  -19.1531  -28.8851   23.2888 C   0  0  0  0  0  0
  -18.9459  -30.1456   23.8900 C   0  0  0  0  0  0
  -17.6459  -30.6589   24.0561 C   0  0  0  0  0  0
  -25.9038  -34.9464   23.5112 C   0  0  0  0  0  0
  -16.5348  -29.9090   23.6326 C   0  0  0  0  0  0
  -16.7264  -28.6506   23.0346 C   0  0  0  0  0  0
  -26.4477  -31.6600   25.0732 C   0  0  0  0  0  0
  -25.3727  -31.3730   26.1471 C   0  0  0  0  0  0
  -27.0333  -30.3035   24.6162 C   0  0  0  0  0  0
  -27.6021  -32.4351   25.7514 C   0  0  0  0  0  0
  -27.5574  -37.1810   24.8463 C   0  0  0  0  0  0
  -21.4176  -29.3044   22.3693 N   0  0  0  0  0  0
  -26.4283  -37.3788   23.9408 N   0  0  0  0  0  0
  -24.6809  -31.0649   22.0967 N   0  0  0  0  0  0
  -23.4190  -28.8170   23.3026 O   0  0  0  0  0  0
  -28.4092  -26.5818   20.0754 O   0  0  0  0  0  0
  -26.5602  -34.8925   22.4677 O   0  0  0  0  0  0
  -23.5386  -32.1391   23.7386 O   0  0  0  0  0  0
  -29.2801  -19.8737   22.4927 C   0  0  0  0  0  0
  -29.0528  -21.2205   22.3745 C   0  0  0  0  0  0
  -30.1750  -19.5318   21.4355 C   0  0  0  0  0  0
  -30.4767  -16.2212   15.1174 C   0  0  0  0  0  0
  -27.9313  -18.9096   17.2269 C   0  0  0  0  0  0
  -27.4240  -16.9819   19.4215 C   0  0  0  0  0  0
  -30.6660  -18.0766   21.1000 C   0  0  0  0  0  0
  -31.1747  -15.1197   15.9251 C   0  0  0  0  0  0
  -28.5170  -19.1690   18.6257 C   0  0  0  0  0  0
  -31.3083  -15.4113   17.4301 C   0  0  0  0  0  0
  -28.6727  -23.9948   20.5353 C   0  0  0  0  0  0
  -29.9561  -23.1310   20.9065 C   0  0  0  0  0  0
  -29.9559  -15.6316   18.1637 C   0  0  0  0  0  0
  -28.6038  -25.5009   21.0429 C   0  0  0  0  0  0
  -28.5617  -17.9669   19.6123 C   0  0  2  0  0  0
  -29.9966  -17.3513   19.8578 C   0  0  2  0  0  0
  -30.5002  -20.6547   20.7513 N   0  0  0  0  0  0
  -29.7775  -21.6971   21.3024 N   0  0  0  0  0  0
  -30.0437  -15.8182   19.6407 N   0  0  0  0  0  0
  -31.4872  -12.5404   19.1426 H   0  0  0  0  0  0
  -30.4574  -11.5002   20.0869 H   0  0  0  0  0  0
  -29.7474  -11.3025   17.7802 H   0  0  0  0  0  0
  -29.7327  -12.9754   17.4841 H   0  0  0  0  0  0
  -27.8121  -11.2207   18.9721 H   0  0  0  0  0  0
  -27.3967  -12.4190   17.7893 H   0  0  0  0  0  0
  -27.5873  -14.1991   19.3650 H   0  0  0  0  0  0
  -28.7497  -12.2975   21.4649 H   0  0  0  0  0  0
  -28.4633  -14.0145   21.6641 H   0  0  0  0  0  0
  -25.2751   -9.5593   22.4813 H   0  0  0  0  0  0
  -23.9974   -7.4557   22.7482 H   0  0  0  0  0  0
  -21.0825   -8.8740   19.8954 H   0  0  0  0  0  0
  -22.3718  -10.9635   19.6186 H   0  0  0  0  0  0
  -21.2000   -7.6129   23.9700 H   0  0  0  0  0  0
  -21.1454   -6.0507   25.9074 H   0  0  0  0  0  0
  -22.0617   -2.7587   23.2865 H   0  0  0  0  0  0
  -22.3893  -11.9748   22.4928 H   0  0  0  0  0  0
  -21.0959  -13.1148   22.2660 H   0  0  0  0  0  0
  -24.5502  -15.7817   20.5249 H   0  0  0  0  0  0
  -26.1605  -15.6284   20.0393 H   0  0  0  0  0  0
  -26.7157  -32.5491   23.1141 H   0  0  0  0  0  0
  -25.0064  -33.9745   25.0442 H   0  0  0  0  0  0
  -22.7101  -31.2986   21.3943 H   0  0  0  0  0  0
  -23.3739  -35.9641   23.3305 H   0  0  0  0  0  0
  -24.3571  -36.8924   22.2059 H   0  0  0  0  0  0
  -23.7231  -37.6509   23.6665 H   0  0  0  0  0  0
  -26.0716  -31.5622   20.5944 H   0  0  0  0  0  0
  -26.8357  -30.8636   21.9930 H   0  0  0  0  0  0
  -28.1266  -29.0473   21.1852 H   0  0  0  0  0  0
  -26.0755  -25.9153   19.0549 H   0  0  0  0  0  0
  -24.0053  -27.2683   19.0367 H   0  0  0  0  0  0
  -23.7549  -30.5757   19.3996 H   0  0  0  0  0  0
  -22.7595  -29.2273   19.8611 H   0  0  0  0  0  0
  -25.1283  -36.1951   25.0827 H   0  0  0  0  0  0
  -20.9966  -28.3253   24.1417 H   0  0  0  0  0  0
  -20.5661  -26.2298   23.3619 H   0  0  0  0  0  0
  -21.6634  -26.7437   22.1211 H   0  0  0  0  0  0
  -19.6901  -25.6280   21.1258 H   0  0  0  0  0  0
  -19.6684  -27.3179   20.6750 H   0  0  0  0  0  0
  -17.4196  -26.6682   21.4022 H   0  0  0  0  0  0
  -18.0310  -26.0065   22.9016 H   0  0  0  0  0  0
  -19.7940  -30.7269   24.2263 H   0  0  0  0  0  0
  -17.5018  -31.6274   24.5160 H   0  0  0  0  0  0
  -15.5348  -30.3000   23.7644 H   0  0  0  0  0  0
  -15.8660  -28.0829   22.7054 H   0  0  0  0  0  0
  -24.5879  -30.7103   25.7806 H   0  0  0  0  0  0
  -24.8955  -32.2903   26.4934 H   0  0  0  0  0  0
  -25.8066  -30.8881   27.0226 H   0  0  0  0  0  0
  -26.2915  -29.6796   24.1163 H   0  0  0  0  0  0
  -27.4027  -29.7275   25.4657 H   0  0  0  0  0  0
  -27.8776  -30.4346   23.9389 H   0  0  0  0  0  0
  -27.2599  -33.3641   26.2093 H   0  0  0  0  0  0
  -28.3837  -32.6936   25.0357 H   0  0  0  0  0  0
  -28.0685  -31.8488   26.5442 H   0  0  0  0  0  0
  -28.2582  -38.0113   24.7506 H   0  0  0  0  0  0
  -28.1069  -36.2642   24.6281 H   0  0  0  0  0  0
  -27.2293  -37.1454   25.8865 H   0  0  0  0  0  0
  -20.9342  -29.8795   21.6933 H   0  0  0  0  0  0
  -26.0162  -38.2862   24.1409 H   0  0  0  0  0  0
  -28.8467  -19.2146   23.2311 H   0  0  0  0  0  0
  -28.4522  -21.8826   22.9827 H   0  0  0  0  0  0
  -30.4899  -15.9787   14.0548 H   0  0  0  0  0  0
  -30.9679  -17.1859   15.2441 H   0  0  0  0  0  0
  -29.4313  -16.3274   15.4075 H   0  0  0  0  0  0
  -27.9679  -19.8194   16.6273 H   0  0  0  0  0  0
  -26.8857  -18.6068   17.2778 H   0  0  0  0  0  0
  -28.4795  -18.1464   16.6795 H   0  0  0  0  0  0
  -26.4628  -17.4876   19.5255 H   0  0  0  0  0  0
  -27.5205  -16.2550   20.2232 H   0  0  0  0  0  0
  -27.4247  -16.4699   18.4611 H   0  0  0  0  0  0
  -30.4989  -17.4564   21.9803 H   0  0  0  0  0  0
  -31.7477  -18.0793   20.9630 H   0  0  0  0  0  0
  -32.1764  -14.9697   15.5193 H   0  0  0  0  0  0
  -30.6524  -14.1755   15.7710 H   0  0  0  0  0  0
  -27.9271  -19.9633   19.0857 H   0  0  0  0  0  0
  -29.5114  -19.5980   18.5024 H   0  0  0  0  0  0
  -31.9428  -16.2865   17.5712 H   0  0  0  0  0  0
  -31.8632  -14.5776   17.8583 H   0  0  0  0  0  0
  -27.7893  -23.4842   20.9194 H   0  0  0  0  0  0
  -28.5513  -23.9814   19.4521 H   0  0  0  0  0  0
  -30.4575  -23.6059   21.7502 H   0  0  0  0  0  0
  -30.6721  -23.1806   20.0851 H   0  0  0  0  0  0
  -29.2240  -14.8683   17.9412 H   0  0  0  0  0  0
  -29.5120  -16.4976   17.6859 H   0  0  0  0  0  0
  -29.5395  -25.7327   21.5522 H   0  0  0  0  0  0
  -27.8459  -25.5736   21.8258 H   0  0  0  0  0  0
  -28.2330  -18.3784   20.5627 H   0  0  0  0  0  0
  -30.6219  -17.7532   19.0578 H   0  0  0  0  0  0
  1 25  1  0  0  0
  1 30  2  0  0  0
  1 89  1  0  0  0
  2  3  1  0  0  0
  2 25  1  0  0  0
  2 90  1  0  0  0
  2 91  1  0  0  0
  3  4  1  0  0  0
  3 92  1  0  0  0
  3 93  1  0  0  0
  4  5  1  0  0  0
  4 94  1  0  0  0
  4 95  1  0  0  0
  5  6  1  0  0  0
  5 26  1  0  0  0
  5 96  1  0  0  0
  6 25  1  0  0  0
  6 97  1  0  0  0
  6 98  1  0  0  0
  7  8  2  0  0  0
  7 26  1  0  0  0
  7 29  1  0  0  0
  8  9  1  0  0  0
  8 22  1  0  0  0
  9 10  1  0  0  0
  9 27  2  0  0  0
 10 11  2  0  0  0
 10 15  1  0  0  0
 11 12  1  0  0  0
 11 99  1  0  0  0
 12 13  2  0  0  0
 12100  1  0  0  0
 13 14  1  0  0  0
 13 31  1  0  0  0
 14 15  2  0  0  0
 14101  1  0  0  0
 15102  1  0  0  0
 16 17  2  0  0  0
 16 21  1  0  0  0
 16 31  1  0  0  0
 17 18  1  0  0  0
 17103  1  0  0  0
 18 19  2  0  0  0
 18104  1  0  0  0
 19 20  1  0  0  0
 19 24  1  0  0  0
 20 21  2  0  0  0
 20105  1  0  0  0
 21 23  1  0  0  0
 22 28  1  0  0  0
 22 32  2  0  0  0
 26 27  1  0  0  0
 28106  1  0  0  0
 28107  1  0  0  0
 29108  1  0  0  0
 29109  1  0  0  0
 33 34  1  0  0  0
 33 66  1  0  0  0
 33 70  2  0  0  0
 34 36  1  0  0  0
 34 59  1  0  0  0
 34110  1  0  0  0
 35 44  2  0  0  0
 35 45  1  0  0  0
 35 68  1  0  0  0
 36 56  1  0  0  0
 36111  1  0  0  0
 37 39  1  0  0  0
 37 47  1  0  0  0
 37 66  1  0  0  0
 37112  1  0  0  0
 38 43  2  0  0  0
 38 46  1  0  0  0
 38 47  1  0  0  0
 39 64  1  0  0  0
 39 67  2  0  0  0
 40 52  1  0  0  0
 40 53  2  0  0  0
 40 58  1  0  0  0
 41113  1  0  0  0
 41114  1  0  0  0
 41115  1  0  0  0
 41 48  1  0  0  0
 42 43  1  0  0  0
 42 66  1  0  0  0
 42116  1  0  0  0
 42117  1  0  0  0
 43 44  1  0  0  0
 44118  1  0  0  0
 45 46  2  0  0  0
 45119  1  0  0  0
 46120  1  0  0  0
 47121  1  0  0  0
 47122  1  0  0  0
 48 56  1  0  0  0
 48 65  1  0  0  0
 48123  1  0  0  0
 49 50  1  0  0  0
 49 53  1  0  0  0
 49 64  1  0  0  0
 49124  1  0  0  0
 50 51  1  0  0  0
 50125  1  0  0  0
 50126  1  0  0  0
 51 52  1  0  0  0
 51127  1  0  0  0
 51128  1  0  0  0
 52129  1  0  0  0
 52130  1  0  0  0
 53 54  1  0  0  0
 54 55  2  0  0  0
 54131  1  0  0  0
 55 57  1  0  0  0
 55132  1  0  0  0
 56 69  2  0  0  0
 57 58  2  0  0  0
 57133  1  0  0  0
 58134  1  0  0  0
 59 60  1  0  0  0
 59 61  1  0  0  0
 59 62  1  0  0  0
 60135  1  0  0  0
 60136  1  0  0  0
 60137  1  0  0  0
 61138  1  0  0  0
 61139  1  0  0  0
 61140  1  0  0  0
 62141  1  0  0  0
 62142  1  0  0  0
 62143  1  0  0  0
 63 65  1  0  0  0
 63144  1  0  0  0
 63145  1  0  0  0
 63146  1  0  0  0
 64147  1  0  0  0
 65148  1  0  0  0
 68 84  1  0  0  0
 71 72  2  0  0  0
 71 73  1  0  0  0
 71149  1  0  0  0
 72 88  1  0  0  0
 72150  1  0  0  0
 73 77  1  0  0  0
 73 87  2  0  0  0
 74 78  1  0  0  0
 74151  1  0  0  0
 74152  1  0  0  0
 74153  1  0  0  0
 75 79  1  0  0  0
 75154  1  0  0  0
 75155  1  0  0  0
 75156  1  0  0  0
 76157  1  0  0  0
 76158  1  0  0  0
 76159  1  0  0  0
 76 85  1  0  0  0
 77160  1  0  0  0
 77161  1  0  0  0
 77 86  1  0  0  0
 78 80  1  0  0  0
 78162  1  0  0  0
 78163  1  0  0  0
 79 85  1  0  0  0
 79164  1  0  0  0
 79165  1  0  0  0
 80 83  1  0  0  0
 80166  1  0  0  0
 80167  1  0  0  0
 81 82  1  0  0  0
 81 84  1  0  0  0
 81168  1  0  0  0
 81169  1  0  0  0
 82 88  1  0  0  0
 82170  1  0  0  0
 82171  1  0  0  0
 83 89  1  0  0  0
 83172  1  0  0  0
 83173  1  0  0  0
 84174  1  0  0  0
 84175  1  0  0  0
 85 86  1  0  0  0
 85176  1  0  0  0
 86 89  1  0  0  0
 86177  1  0  0  0
 87 88  1  0  0  0
M  ISO  4   1 100  68 101  84 101  89 100
M  END
> <chiral flag>
0

> <version>
0

> <s_m_source_file>
/data/baiqing/PycharmProjects/Reinvent-master-3.2/result/LINK_invent/BTK/process_docking_weight1_custom_sum_contain_oxygen_bond_distance_aromatic_linkinvent_7_9_3/rearranged_h_0049.sdf

> <i_m_source_file_index>
60

> <r_mmod_Potential_Energy-OPLS-2005>
478.112548828125

> <r_mmod_Stretch_Energy-OPLS-2005>
96.5691604614258

> <r_mmod_Bend_Energy-OPLS-2005>
201.898696899414

> <r_mmod_Torsional_Energy-OPLS-2005>
413.778015136719

> <r_mmod_Improper_Torsional_Energy-OPLS-2005>
20.7371597290039

> <r_mmod_Van_der_Waal_Energy-OPLS-2005>
142.444137573242

> <r_mmod_Electrostatic_Energy-OPLS-2005>
-307.302673339844

> <r_mmod_Solvation_Energy-OPLS-2005>
-190.7685546875

> <b_mmod_Minimization_Converged-OPLS-2005>
0

> <r_mmod_RMS_Derivative-OPLS-2005>
1.89955532550812

$$$$
62
                    3D
 Structure written by MMmdl.
163171  0  0  1  0            999 V2000
  -30.6205  -14.7056   20.4676 C   0  0  0  0  0  0
  -30.4349  -12.4236   19.4813 C   0  0  0  0  0  0
  -29.5198  -12.5111   18.2403 C   0  0  0  0  0  0
  -28.0428  -12.3414   18.6477 C   0  0  0  0  0  0
  -27.6494  -13.2313   19.8591 C   0  0  2  0  0  0
  -28.6937  -13.1341   20.9945 C   0  0  0  0  0  0
  -25.2531  -13.8214   20.5710 C   0  0  0  0  0  0
  -24.1830  -13.0456   20.9229 C   0  0  0  0  0  0
  -24.6430  -11.6936   20.8758 C   0  0  0  0  0  0
  -23.9110  -10.4307   21.0427 C   0  0  0  0  0  0
  -24.3648   -9.4206   21.9192 C   0  0  0  0  0  0
  -23.6301   -8.2244   22.0745 C   0  0  0  0  0  0
  -22.4272   -8.0298   21.3546 C   0  0  0  0  0  0
  -21.9942   -9.0291   20.4644 C   0  0  0  0  0  0
  -22.7295  -10.2158   20.3059 C   0  0  0  0  0  0
  -21.6856   -6.0749   22.5297 C   0  0  0  0  0  0
  -21.4014   -6.5641   23.8237 C   0  0  0  0  0  0
  -21.3662   -5.6780   24.9191 C   0  0  0  0  0  0
  -21.6043   -4.3041   24.7235 C   0  0  0  0  0  0
  -21.8813   -3.8144   23.4354 C   0  0  0  0  0  0
  -21.9192   -4.6969   22.3422 C   0  0  0  0  0  0
  -22.7836  -13.5218   21.1895 C   0  0  0  0  0  0
  -22.1657   -4.2162   21.0998 F   0  0  0  0  0  0
  -21.5635   -3.4524   25.7758 F   0  0  0  0  0  0
  -30.0000  -13.4789   20.4225 N   0  0  0  0  0  0
  -26.2975  -12.9428   20.3313 N   0  0  0  0  0  0
  -25.9366  -11.6571   20.5757 N   0  0  0  0  0  0
  -22.0453  -12.8217   22.0434 N   0  0  0  0  0  0
  -25.4158  -15.1939   20.4132 N   0  0  0  0  0  0
  -31.7967  -14.8206   20.1129 O   0  0  0  0  0  0
  -21.6620   -6.8899   21.4261 O   0  0  0  0  0  0
  -22.3535  -14.5541   20.6750 O   0  0  0  0  0  0
  -24.6290  -31.8558   23.1996 C   0  0  0  0  0  0
  -25.9126  -32.4753   23.8319 C   0  0  1  0  0  0
  -27.2139  -27.2675   20.1324 C   0  0  0  0  0  0
  -25.5932  -33.8554   24.2242 N   0  0  0  0  0  0
  -23.4241  -30.4816   21.5417 C   0  0  2  0  0  0
  -24.8702  -28.9299   20.1064 C   0  0  0  0  0  0
  -22.7475  -29.4632   22.4903 C   0  0  0  0  0  0
  -18.0305  -28.1383   22.8511 C   0  0  0  0  0  0
  -24.1493  -36.7279   23.2639 C   0  0  0  0  0  0
  -25.9698  -30.7697   21.3819 C   0  0  0  0  0  0
  -26.0404  -29.3931   20.7224 C   0  0  0  0  0  0
  -27.2116  -28.5722   20.7297 C   0  0  0  0  0  0
  -26.0293  -26.8817   19.4629 C   0  0  0  0  0  0
  -24.8692  -27.6808   19.4691 C   0  0  0  0  0  0
  -23.6400  -29.8163   20.1564 C   0  0  0  0  0  0
  -25.4122  -36.3065   24.0325 C   0  0  1  0  0  0
  -20.5905  -28.3698   23.1271 C   0  0  2  0  0  0
  -20.6797  -26.9416   22.5404 C   0  0  0  0  0  0
  -19.5758  -26.6384   21.5225 C   0  0  0  0  0  0
  -18.1948  -26.7937   22.1638 C   0  0  0  0  0  0
  -19.1558  -28.8862   23.2894 C   0  0  0  0  0  0
  -18.9474  -30.1479   23.8886 C   0  0  0  0  0  0
  -17.6468  -30.6584   24.0583 C   0  0  0  0  0  0
  -25.9065  -34.9445   23.5088 C   0  0  0  0  0  0
  -16.5360  -29.9078   23.6348 C   0  0  0  0  0  0
  -16.7295  -28.6501   23.0363 C   0  0  0  0  0  0
  -26.4492  -31.6564   25.0696 C   0  0  0  0  0  0
  -25.3721  -31.3735   26.1418 C   0  0  0  0  0  0
  -27.0361  -30.2983   24.6207 C   0  0  0  0  0  0
  -27.6040  -32.4309   25.7470 C   0  0  0  0  0  0
  -27.5584  -37.1802   24.8467 C   0  0  0  0  0  0
  -21.4186  -29.3048   22.3644 N   0  0  0  0  0  0
  -26.4295  -37.3764   23.9400 N   0  0  0  0  0  0
  -24.6927  -31.0537   22.0965 N   0  0  0  0  0  0
  -23.4194  -28.8202   23.3008 O   0  0  0  0  0  0
  -28.3108  -26.3786   20.2245 O   0  0  0  0  0  0
  -26.5619  -34.8914   22.4649 O   0  0  0  0  0  0
  -23.5445  -32.1367   23.7315 O   0  0  0  0  0  0
  -29.2019  -20.4029   19.1505 C   0  0  0  0  0  0
  -29.2508  -19.9444   20.4472 C   0  0  0  0  0  0
  -29.0555  -22.2735   20.4090 C   0  0  0  0  0  0
  -27.8230  -21.1109   24.8139 C   0  0  0  0  0  0
  -30.3971  -22.1214   23.2140 C   0  0  0  0  0  0
  -29.2064  -18.4459   20.9695 C   0  0  0  0  0  0
  -29.0159  -23.8185   20.7735 C   0  0  0  0  0  0
  -27.8834  -21.4575   23.3189 C   0  0  0  0  0  0
  -30.1496  -17.2891   20.3557 C   0  0  0  0  0  0
  -28.1383  -24.9048   19.9649 C   0  0  0  0  0  0
  -29.2719  -21.2083   22.6863 C   0  0  1  0  0  0
  -29.2024  -21.1469   21.2026 N   0  0  0  0  0  0
  -29.0869  -21.7797   19.1638 N   0  3  0  0  0  0
  -29.8413  -15.8271   20.6881 N   0  0  0  0  0  0
  -31.4799  -12.5334   19.1870 H   0  0  0  0  0  0
  -30.3567  -11.4398   19.9484 H   0  0  0  0  0  0
  -29.8015  -11.7505   17.5116 H   0  0  0  0  0  0
  -29.6609  -13.4739   17.7469 H   0  0  0  0  0  0
  -27.8910  -11.2909   18.8986 H   0  0  0  0  0  0
  -27.3910  -12.5450   17.7969 H   0  0  0  0  0  0
  -27.6520  -14.2589   19.4977 H   0  0  0  0  0  0
  -28.7219  -12.1241   21.4067 H   0  0  0  0  0  0
  -28.4368  -13.7946   21.8241 H   0  0  0  0  0  0
  -25.2784   -9.5673   22.4783 H   0  0  0  0  0  0
  -24.0016   -7.4621   22.7447 H   0  0  0  0  0  0
  -21.0873   -8.8820   19.8953 H   0  0  0  0  0  0
  -22.3759  -10.9695   19.6163 H   0  0  0  0  0  0
  -21.1989   -7.6132   23.9765 H   0  0  0  0  0  0
  -21.1491   -6.0495   25.9114 H   0  0  0  0  0  0
  -22.0586   -2.7604   23.2858 H   0  0  0  0  0  0
  -22.4012  -11.9863   22.4839 H   0  0  0  0  0  0
  -21.1082  -13.1272   22.2643 H   0  0  0  0  0  0
  -24.6368  -15.8354   20.5293 H   0  0  0  0  0  0
  -26.2543  -15.6485   20.0752 H   0  0  0  0  0  0
  -26.7206  -32.5408   23.1068 H   0  0  0  0  0  0
  -25.0123  -33.9688   25.0420 H   0  0  0  0  0  0
  -22.7218  -31.3066   21.3992 H   0  0  0  0  0  0
  -23.3756  -35.9614   23.3297 H   0  0  0  0  0  0
  -24.3598  -36.8888   22.2058 H   0  0  0  0  0  0
  -23.7244  -37.6482   23.6653 H   0  0  0  0  0  0
  -26.1119  -31.5388   20.6216 H   0  0  0  0  0  0
  -26.8443  -30.8112   22.0191 H   0  0  0  0  0  0
  -28.1024  -28.9145   21.2381 H   0  0  0  0  0  0
  -25.9644  -25.9404   18.9373 H   0  0  0  0  0  0
  -23.9776  -27.3237   18.9718 H   0  0  0  0  0  0
  -23.7634  -30.5920   19.4000 H   0  0  0  0  0  0
  -22.7564  -29.2507   19.8546 H   0  0  0  0  0  0
  -25.1319  -36.1908   25.0820 H   0  0  0  0  0  0
  -21.0044  -28.3291   24.1372 H   0  0  0  0  0  0
  -20.5731  -26.2317   23.3617 H   0  0  0  0  0  0
  -21.6673  -26.7467   22.1184 H   0  0  0  0  0  0
  -19.6918  -25.6297   21.1257 H   0  0  0  0  0  0
  -19.6677  -27.3210   20.6765 H   0  0  0  0  0  0
  -17.4226  -26.6726   21.4021 H   0  0  0  0  0  0
  -18.0324  -26.0058   22.9005 H   0  0  0  0  0  0
  -19.7949  -30.7333   24.2204 H   0  0  0  0  0  0
  -17.5009  -31.6258   24.5193 H   0  0  0  0  0  0
  -15.5361  -30.2962   23.7666 H   0  0  0  0  0  0
  -15.8710  -28.0816   22.7038 H   0  0  0  0  0  0
  -24.5895  -30.7081   25.7745 H   0  0  0  0  0  0
  -24.8922  -32.2927   26.4794 H   0  0  0  0  0  0
  -25.8035  -30.8936   27.0213 H   0  0  0  0  0  0
  -26.2964  -29.6699   24.1236 H   0  0  0  0  0  0
  -27.4044  -29.7263   25.4730 H   0  0  0  0  0  0
  -27.8830  -30.4236   23.9461 H   0  0  0  0  0  0
  -27.2643  -33.3624   26.2006 H   0  0  0  0  0  0
  -28.3874  -32.6835   25.0312 H   0  0  0  0  0  0
  -28.0681  -31.8459   26.5416 H   0  0  0  0  0  0
  -28.2609  -38.0093   24.7532 H   0  0  0  0  0  0
  -28.1076  -36.2635   24.6285 H   0  0  0  0  0  0
  -27.2315  -37.1449   25.8871 H   0  0  0  0  0  0
  -20.9349  -29.8726   21.6826 H   0  0  0  0  0  0
  -26.0174  -38.2838   24.1379 H   0  0  0  0  0  0
  -29.2032  -19.8486   18.2227 H   0  0  0  0  0  0
  -28.5233  -21.7125   25.3933 H   0  0  0  0  0  0
  -28.0593  -20.0613   24.9898 H   0  0  0  0  0  0
  -26.8248  -21.2869   25.2149 H   0  0  0  0  0  0
  -30.6730  -21.8455   24.2334 H   0  0  0  0  0  0
  -30.1204  -23.1733   23.2418 H   0  0  0  0  0  0
  -31.2983  -22.0259   22.6078 H   0  0  0  0  0  0
  -28.1779  -18.1223   20.8115 H   0  0  0  0  0  0
  -29.3279  -18.4209   22.0485 H   0  0  0  0  0  0
  -30.0577  -24.1382   20.7671 H   0  0  0  0  0  0
  -28.6820  -23.8755   21.8048 H   0  0  0  0  0  0
  -27.5641  -22.4897   23.1762 H   0  0  0  0  0  0
  -27.1443  -20.8425   22.8018 H   0  0  0  0  0  0
  -30.1241  -17.3679   19.2686 H   0  0  0  0  0  0
  -31.1823  -17.4955   20.6421 H   0  0  0  0  0  0
  -27.1051  -24.6166   20.1527 H   0  0  0  0  0  0
  -28.2987  -24.7612   18.8963 H   0  0  0  0  0  0
  -29.5840  -20.2220   23.0137 H   0  0  0  0  0  0
  -29.0360  -22.3452   18.3245 H   0  0  0  0  0  0
  -28.8903  -15.6250   20.9545 H   0  0  0  0  0  0
  1 25  1  0  0  0
  1 30  2  0  0  0
  1 84  1  0  0  0
  2  3  1  0  0  0
  2 25  1  0  0  0
  2 85  1  0  0  0
  2 86  1  0  0  0
  3  4  1  0  0  0
  3 87  1  0  0  0
  3 88  1  0  0  0
  4  5  1  0  0  0
  4 89  1  0  0  0
  4 90  1  0  0  0
  5  6  1  0  0  0
  5 26  1  0  0  0
  5 91  1  0  0  0
  6 25  1  0  0  0
  6 92  1  0  0  0
  6 93  1  0  0  0
  7  8  2  0  0  0
  7 26  1  0  0  0
  7 29  1  0  0  0
  8  9  1  0  0  0
  8 22  1  0  0  0
  9 10  1  0  0  0
  9 27  2  0  0  0
 10 11  2  0  0  0
 10 15  1  0  0  0
 11 12  1  0  0  0
 11 94  1  0  0  0
 12 13  2  0  0  0
 12 95  1  0  0  0
 13 14  1  0  0  0
 13 31  1  0  0  0
 14 15  2  0  0  0
 14 96  1  0  0  0
 15 97  1  0  0  0
 16 17  2  0  0  0
 16 21  1  0  0  0
 16 31  1  0  0  0
 17 18  1  0  0  0
 17 98  1  0  0  0
 18 19  2  0  0  0
 18 99  1  0  0  0
 19 20  1  0  0  0
 19 24  1  0  0  0
 20 21  2  0  0  0
 20100  1  0  0  0
 21 23  1  0  0  0
 22 28  1  0  0  0
 22 32  2  0  0  0
 26 27  1  0  0  0
 28101  1  0  0  0
 28102  1  0  0  0
 29103  1  0  0  0
 29104  1  0  0  0
 33 34  1  0  0  0
 33 66  1  0  0  0
 33 70  2  0  0  0
 34 36  1  0  0  0
 34 59  1  0  0  0
 34105  1  0  0  0
 35 44  2  0  0  0
 35 45  1  0  0  0
 35 68  1  0  0  0
 36 56  1  0  0  0
 36106  1  0  0  0
 37 39  1  0  0  0
 37 47  1  0  0  0
 37 66  1  0  0  0
 37107  1  0  0  0
 38 43  2  0  0  0
 38 46  1  0  0  0
 38 47  1  0  0  0
 39 64  1  0  0  0
 39 67  2  0  0  0
 40 52  1  0  0  0
 40 53  2  0  0  0
 40 58  1  0  0  0
 41108  1  0  0  0
 41109  1  0  0  0
 41110  1  0  0  0
 41 48  1  0  0  0
 42 43  1  0  0  0
 42 66  1  0  0  0
 42111  1  0  0  0
 42112  1  0  0  0
 43 44  1  0  0  0
 44113  1  0  0  0
 45 46  2  0  0  0
 45114  1  0  0  0
 46115  1  0  0  0
 47116  1  0  0  0
 47117  1  0  0  0
 48 56  1  0  0  0
 48 65  1  0  0  0
 48118  1  0  0  0
 49 50  1  0  0  0
 49 53  1  0  0  0
 49 64  1  0  0  0
 49119  1  0  0  0
 50 51  1  0  0  0
 50120  1  0  0  0
 50121  1  0  0  0
 51 52  1  0  0  0
 51122  1  0  0  0
 51123  1  0  0  0
 52124  1  0  0  0
 52125  1  0  0  0
 53 54  1  0  0  0
 54 55  2  0  0  0
 54126  1  0  0  0
 55 57  1  0  0  0
 55127  1  0  0  0
 56 69  2  0  0  0
 57 58  2  0  0  0
 57128  1  0  0  0
 58129  1  0  0  0
 59 60  1  0  0  0
 59 61  1  0  0  0
 59 62  1  0  0  0
 60130  1  0  0  0
 60131  1  0  0  0
 60132  1  0  0  0
 61133  1  0  0  0
 61134  1  0  0  0
 61135  1  0  0  0
 62136  1  0  0  0
 62137  1  0  0  0
 62138  1  0  0  0
 63 65  1  0  0  0
 63139  1  0  0  0
 63140  1  0  0  0
 63141  1  0  0  0
 64142  1  0  0  0
 65143  1  0  0  0
 68 80  1  0  0  0
 71 72  2  0  0  0
 71 83  1  0  0  0
 71144  1  0  0  0
 72 76  1  0  0  0
 72 82  1  0  0  0
 73 77  1  0  0  0
 73 82  1  0  0  0
 73 83  2  0  0  0
 74 78  1  0  0  0
 74145  1  0  0  0
 74146  1  0  0  0
 74147  1  0  0  0
 75148  1  0  0  0
 75149  1  0  0  0
 75150  1  0  0  0
 75 81  1  0  0  0
 76 79  1  0  0  0
 76151  1  0  0  0
 76152  1  0  0  0
 77 80  1  0  0  0
 77153  1  0  0  0
 77154  1  0  0  0
 78 81  1  0  0  0
 78155  1  0  0  0
 78156  1  0  0  0
 79 84  1  0  0  0
 79157  1  0  0  0
 79158  1  0  0  0
 80159  1  0  0  0
 80160  1  0  0  0
 81 82  1  0  0  0
 81161  1  0  0  0
 83162  1  0  0  0
 84163  1  0  0  0
M  CHG  1  83   1
M  ISO  4   1 100  68 101  80 101  84 100
M  END
> <chiral flag>
0

> <version>
0

> <s_m_source_file>
/data/baiqing/PycharmProjects/Reinvent-master-3.2/result/LINK_invent/BTK/process_docking_weight1_custom_sum_contain_oxygen_bond_distance_aromatic_linkinvent_7_9_3/rearranged_h_0049.sdf

> <i_m_source_file_index>
61

> <r_mmod_Potential_Energy-OPLS-2005>
85.1851654052734

> <r_mmod_Stretch_Energy-OPLS-2005>
121.167976379395

> <r_mmod_Bend_Energy-OPLS-2005>
162.873519897461

> <r_mmod_Torsional_Energy-OPLS-2005>
244.188781738281

> <r_mmod_Improper_Torsional_Energy-OPLS-2005>
6.37130355834961

> <r_mmod_Van_der_Waal_Energy-OPLS-2005>
120.492805480957

> <r_mmod_Electrostatic_Energy-OPLS-2005>
-213.615447998047

> <r_mmod_Solvation_Energy-OPLS-2005>
-432.115417480469

> <b_mmod_Minimization_Converged-OPLS-2005>
0

> <r_mmod_RMS_Derivative-OPLS-2005>
3.12238955497742

$$$$
63
                    3D
 Structure written by MMmdl.
152160  0  0  1  0            999 V2000
  -30.6312  -14.6979   20.4636 C   0  0  0  0  0  0
  -30.4231  -12.4251   19.4705 C   0  0  0  0  0  0
  -29.5045  -12.5043   18.2327 C   0  0  0  0  0  0
  -28.0264  -12.3516   18.6435 C   0  0  0  0  0  0
  -27.6420  -13.2377   19.8579 C   0  0  2  0  0  0
  -28.6859  -13.1498   20.9916 C   0  0  0  0  0  0
  -25.2473  -13.8211   20.5713 C   0  0  0  0  0  0
  -24.1789  -13.0443   20.9232 C   0  0  0  0  0  0
  -24.6397  -11.6929   20.8784 C   0  0  0  0  0  0
  -23.9092  -10.4296   21.0448 C   0  0  0  0  0  0
  -24.3639   -9.4193   21.9206 C   0  0  0  0  0  0
  -23.6309   -8.2226   22.0761 C   0  0  0  0  0  0
  -22.4284   -8.0276   21.3557 C   0  0  0  0  0  0
  -21.9939   -9.0257   20.4654 C   0  0  0  0  0  0
  -22.7280  -10.2131   20.3084 C   0  0  0  0  0  0
  -21.6844   -6.0742   22.5286 C   0  0  0  0  0  0
  -21.4014   -6.5657   23.8217 C   0  0  0  0  0  0
  -21.3660   -5.6809   24.9188 C   0  0  0  0  0  0
  -21.6044   -4.3070   24.7239 C   0  0  0  0  0  0
  -21.8819   -3.8154   23.4359 C   0  0  0  0  0  0
  -21.9194   -4.6968   22.3408 C   0  0  0  0  0  0
  -22.7798  -13.5188   21.1910 C   0  0  0  0  0  0
  -22.1654   -4.2155   21.0989 F   0  0  0  0  0  0
  -21.5645   -3.4559   25.7752 F   0  0  0  0  0  0
  -29.9892  -13.4850   20.4073 N   0  0  0  0  0  0
  -26.2926  -12.9445   20.3319 N   0  0  0  0  0  0
  -25.9325  -11.6583   20.5784 N   0  0  0  0  0  0
  -22.0475  -12.8138   22.0452 N   0  0  0  0  0  0
  -25.4157  -15.1935   20.4095 N   0  0  0  0  0  0
  -31.8208  -14.7797   20.1481 O   0  0  0  0  0  0
  -21.6628   -6.8882   21.4247 O   0  0  0  0  0  0
  -22.3475  -14.5518   20.6810 O   0  0  0  0  0  0
  -24.6288  -31.8580   23.2022 C   0  0  0  0  0  0
  -25.9125  -32.4771   23.8368 C   0  0  1  0  0  0
  -27.2104  -27.2840   20.1355 C   0  0  0  0  0  0
  -25.5941  -33.8571   24.2316 N   0  0  0  0  0  0
  -23.4241  -30.4818   21.5442 C   0  0  2  0  0  0
  -24.8706  -28.9347   20.1113 C   0  0  0  0  0  0
  -22.7484  -29.4630   22.4932 C   0  0  0  0  0  0
  -18.0293  -28.1367   22.8492 C   0  0  0  0  0  0
  -24.1490  -36.7283   23.2639 C   0  0  0  0  0  0
  -25.9673  -30.7816   21.3770 C   0  0  0  0  0  0
  -26.0408  -29.4047   20.7218 C   0  0  0  0  0  0
  -27.2169  -28.5912   20.7221 C   0  0  0  0  0  0
  -26.0256  -26.8856   19.4794 C   0  0  0  0  0  0
  -24.8670  -27.6837   19.4774 C   0  0  0  0  0  0
  -23.6395  -29.8159   20.1601 C   0  0  0  0  0  0
  -25.4112  -36.3087   24.0344 C   0  0  1  0  0  0
  -20.5891  -28.3688   23.1280 C   0  0  2  0  0  0
  -20.6790  -26.9414   22.5403 C   0  0  0  0  0  0
  -19.5770  -26.6380   21.5210 C   0  0  0  0  0  0
  -18.1945  -26.7919   22.1616 C   0  0  0  0  0  0
  -19.1541  -28.8846   23.2879 C   0  0  0  0  0  0
  -18.9450  -30.1442   23.8906 C   0  0  0  0  0  0
  -17.6450  -30.6577   24.0551 C   0  0  0  0  0  0
  -25.9046  -34.9446   23.5130 C   0  0  0  0  0  0
  -16.5346  -29.9068   23.6320 C   0  0  0  0  0  0
  -16.7279  -28.6472   23.0376 C   0  0  0  0  0  0
  -26.4520  -31.6559   25.0720 C   0  0  0  0  0  0
  -25.3751  -31.3650   26.1434 C   0  0  0  0  0  0
  -27.0374  -30.2994   24.6148 C   0  0  0  0  0  0
  -27.6106  -32.4259   25.7481 C   0  0  0  0  0  0
  -27.5590  -37.1793   24.8465 C   0  0  0  0  0  0
  -21.4198  -29.3035   22.3662 N   0  0  0  0  0  0
  -26.4296  -37.3776   23.9416 N   0  0  0  0  0  0
  -24.6924  -31.0579   22.0978 N   0  0  0  0  0  0
  -23.4196  -28.8185   23.3038 O   0  0  0  0  0  0
  -28.3028  -26.3964   20.1734 O   0  0  0  0  0  0
  -26.5601  -34.8916   22.4687 O   0  0  0  0  0  0
  -23.5446  -32.1386   23.7337 O   0  0  0  0  0  0
  -30.8890  -21.7324   19.0149 C   0  0  0  0  0  0
  -30.1719  -19.8942   19.7570 C   0  0  0  0  0  0
  -29.4767  -18.6119   20.3488 C   0  0  0  0  0  0
  -29.0463  -23.8187   20.0164 C   0  0  0  0  0  0
  -28.8502  -22.2355   20.3632 C   0  0  0  0  0  0
  -30.4088  -17.2711   20.4138 C   0  0  0  0  0  0
  -28.0495  -24.9624   20.5372 C   0  0  0  0  0  0
  -31.7250  -20.8293   18.5223 N   0  0  0  0  0  0
  -31.2504  -19.6435   18.9907 N   0  0  0  0  0  0
  -29.8773  -21.2764   19.7823 N   0  0  0  0  0  0
  -29.8895  -15.8531   20.6475 N   0  0  0  0  0  0
  -31.4688  -12.5280   19.1750 H   0  0  0  0  0  0
  -30.3471  -11.4460   19.9457 H   0  0  0  0  0  0
  -29.7707  -11.7303   17.5124 H   0  0  0  0  0  0
  -29.6533  -13.4589   17.7233 H   0  0  0  0  0  0
  -27.8595  -11.3009   18.8854 H   0  0  0  0  0  0
  -27.3759  -12.5753   17.7963 H   0  0  0  0  0  0
  -27.6437  -14.2663   19.4928 H   0  0  0  0  0  0
  -28.7063  -12.1488   21.4262 H   0  0  0  0  0  0
  -28.4358  -13.8323   21.8054 H   0  0  0  0  0  0
  -25.2791   -9.5653   22.4783 H   0  0  0  0  0  0
  -24.0019   -7.4608   22.7479 H   0  0  0  0  0  0
  -21.0879   -8.8797   19.8945 H   0  0  0  0  0  0
  -22.3765  -10.9680   19.6193 H   0  0  0  0  0  0
  -21.1992   -7.6160   23.9725 H   0  0  0  0  0  0
  -21.1493   -6.0543   25.9093 H   0  0  0  0  0  0
  -22.0594   -2.7611   23.2864 H   0  0  0  0  0  0
  -22.4094  -11.9763   22.4751 H   0  0  0  0  0  0
  -21.1117  -13.1154   22.2770 H   0  0  0  0  0  0
  -24.6496  -15.8493   20.5232 H   0  0  0  0  0  0
  -26.2593  -15.6266   20.0557 H   0  0  0  0  0  0
  -26.7193  -32.5454   23.1122 H   0  0  0  0  0  0
  -25.0143  -33.9708   25.0502 H   0  0  0  0  0  0
  -22.7185  -31.3023   21.3997 H   0  0  0  0  0  0
  -23.3769  -35.9594   23.3277 H   0  0  0  0  0  0
  -24.3592  -36.8912   22.2054 H   0  0  0  0  0  0
  -23.7203  -37.6469   23.6660 H   0  0  0  0  0  0
  -26.0974  -31.5439   20.6081 H   0  0  0  0  0  0
  -26.8472  -30.8356   22.0048 H   0  0  0  0  0  0
  -28.1148  -28.9428   21.2110 H   0  0  0  0  0  0
  -25.9774  -25.9395   18.9601 H   0  0  0  0  0  0
  -23.9751  -27.3259   18.9815 H   0  0  0  0  0  0
  -23.7560  -30.5901   19.4012 H   0  0  0  0  0  0
  -22.7590  -29.2429   19.8623 H   0  0  0  0  0  0
  -25.1282  -36.1960   25.0837 H   0  0  0  0  0  0
  -20.9988  -28.3269   24.1403 H   0  0  0  0  0  0
  -20.5714  -26.2295   23.3599 H   0  0  0  0  0  0
  -21.6657  -26.7460   22.1190 H   0  0  0  0  0  0
  -19.6942  -25.6292   21.1244 H   0  0  0  0  0  0
  -19.6711  -27.3183   20.6737 H   0  0  0  0  0  0
  -17.4222  -26.6671   21.4009 H   0  0  0  0  0  0
  -18.0344  -26.0043   22.8995 H   0  0  0  0  0  0
  -19.7917  -30.7241   24.2308 H   0  0  0  0  0  0
  -17.4997  -31.6264   24.5132 H   0  0  0  0  0  0
  -15.5346  -30.2971   23.7620 H   0  0  0  0  0  0
  -15.8685  -28.0768   22.7133 H   0  0  0  0  0  0
  -24.5973  -30.6960   25.7738 H   0  0  0  0  0  0
  -24.8888  -32.2782   26.4864 H   0  0  0  0  0  0
  -25.8082  -30.8824   27.0203 H   0  0  0  0  0  0
  -26.2947  -29.6712   24.1218 H   0  0  0  0  0  0
  -27.4150  -29.7271   25.4631 H   0  0  0  0  0  0
  -27.8785  -30.4304   23.9335 H   0  0  0  0  0  0
  -27.2786  -33.3588   26.2044 H   0  0  0  0  0  0
  -28.3936  -32.6738   25.0302 H   0  0  0  0  0  0
  -28.0754  -31.8360   26.5390 H   0  0  0  0  0  0
  -28.2590  -38.0110   24.7554 H   0  0  0  0  0  0
  -28.1108  -36.2641   24.6254 H   0  0  0  0  0  0
  -27.2309  -37.1395   25.8867 H   0  0  0  0  0  0
  -20.9388  -29.8695   21.6808 H   0  0  0  0  0  0
  -26.0191  -38.2859   24.1401 H   0  0  0  0  0  0
  -31.0372  -22.7759   18.7801 H   0  0  0  0  0  0
  -28.5988  -18.4095   19.7365 H   0  0  0  0  0  0
  -29.1002  -18.8495   21.3432 H   0  0  0  0  0  0
  -29.0621  -23.9171   18.9310 H   0  0  0  0  0  0
  -30.0399  -24.1128   20.3573 H   0  0  0  0  0  0
  -27.8664  -21.9158   20.0167 H   0  0  0  0  0  0
  -28.8484  -22.1022   21.4452 H   0  0  0  0  0  0
  -31.1988  -17.4497   21.1440 H   0  0  0  0  0  0
  -30.9219  -17.1925   19.4552 H   0  0  0  0  0  0
  -28.0542  -24.9288   21.6272 H   0  0  0  0  0  0
  -27.0416  -24.6517   20.2684 H   0  0  0  0  0  0
  -28.9115  -15.7410   20.8641 H   0  0  0  0  0  0
  1 25  1  0  0  0
  1 30  2  0  0  0
  1 81  1  0  0  0
  2  3  1  0  0  0
  2 25  1  0  0  0
  2 82  1  0  0  0
  2 83  1  0  0  0
  3  4  1  0  0  0
  3 84  1  0  0  0
  3 85  1  0  0  0
  4  5  1  0  0  0
  4 86  1  0  0  0
  4 87  1  0  0  0
  5  6  1  0  0  0
  5 26  1  0  0  0
  5 88  1  0  0  0
  6 25  1  0  0  0
  6 89  1  0  0  0
  6 90  1  0  0  0
  7  8  2  0  0  0
  7 26  1  0  0  0
  7 29  1  0  0  0
  8  9  1  0  0  0
  8 22  1  0  0  0
  9 10  1  0  0  0
  9 27  2  0  0  0
 10 11  2  0  0  0
 10 15  1  0  0  0
 11 12  1  0  0  0
 11 91  1  0  0  0
 12 13  2  0  0  0
 12 92  1  0  0  0
 13 14  1  0  0  0
 13 31  1  0  0  0
 14 15  2  0  0  0
 14 93  1  0  0  0
 15 94  1  0  0  0
 16 17  2  0  0  0
 16 21  1  0  0  0
 16 31  1  0  0  0
 17 18  1  0  0  0
 17 95  1  0  0  0
 18 19  2  0  0  0
 18 96  1  0  0  0
 19 20  1  0  0  0
 19 24  1  0  0  0
 20 21  2  0  0  0
 20 97  1  0  0  0
 21 23  1  0  0  0
 22 28  1  0  0  0
 22 32  2  0  0  0
 26 27  1  0  0  0
 28 98  1  0  0  0
 28 99  1  0  0  0
 29100  1  0  0  0
 29101  1  0  0  0
 33 34  1  0  0  0
 33 66  1  0  0  0
 33 70  2  0  0  0
 34 36  1  0  0  0
 34 59  1  0  0  0
 34102  1  0  0  0
 35 44  2  0  0  0
 35 45  1  0  0  0
 35 68  1  0  0  0
 36 56  1  0  0  0
 36103  1  0  0  0
 37 39  1  0  0  0
 37 47  1  0  0  0
 37 66  1  0  0  0
 37104  1  0  0  0
 38 43  2  0  0  0
 38 46  1  0  0  0
 38 47  1  0  0  0
 39 64  1  0  0  0
 39 67  2  0  0  0
 40 52  1  0  0  0
 40 53  2  0  0  0
 40 58  1  0  0  0
 41105  1  0  0  0
 41106  1  0  0  0
 41107  1  0  0  0
 41 48  1  0  0  0
 42 43  1  0  0  0
 42 66  1  0  0  0
 42108  1  0  0  0
 42109  1  0  0  0
 43 44  1  0  0  0
 44110  1  0  0  0
 45 46  2  0  0  0
 45111  1  0  0  0
 46112  1  0  0  0
 47113  1  0  0  0
 47114  1  0  0  0
 48 56  1  0  0  0
 48 65  1  0  0  0
 48115  1  0  0  0
 49 50  1  0  0  0
 49 53  1  0  0  0
 49 64  1  0  0  0
 49116  1  0  0  0
 50 51  1  0  0  0
 50117  1  0  0  0
 50118  1  0  0  0
 51 52  1  0  0  0
 51119  1  0  0  0
 51120  1  0  0  0
 52121  1  0  0  0
 52122  1  0  0  0
 53 54  1  0  0  0
 54 55  2  0  0  0
 54123  1  0  0  0
 55 57  1  0  0  0
 55124  1  0  0  0
 56 69  2  0  0  0
 57 58  2  0  0  0
 57125  1  0  0  0
 58126  1  0  0  0
 59 60  1  0  0  0
 59 61  1  0  0  0
 59 62  1  0  0  0
 60127  1  0  0  0
 60128  1  0  0  0
 60129  1  0  0  0
 61130  1  0  0  0
 61131  1  0  0  0
 61132  1  0  0  0
 62133  1  0  0  0
 62134  1  0  0  0
 62135  1  0  0  0
 63 65  1  0  0  0
 63136  1  0  0  0
 63137  1  0  0  0
 63138  1  0  0  0
 64139  1  0  0  0
 65140  1  0  0  0
 68 77  1  0  0  0
 71 78  2  0  0  0
 71 80  1  0  0  0
 71141  1  0  0  0
 72 73  1  0  0  0
 72 79  2  0  0  0
 72 80  1  0  0  0
 73 76  1  0  0  0
 73142  1  0  0  0
 73143  1  0  0  0
 74 75  1  0  0  0
 74 77  1  0  0  0
 74144  1  0  0  0
 74145  1  0  0  0
 75 80  1  0  0  0
 75146  1  0  0  0
 75147  1  0  0  0
 76 81  1  0  0  0
 76148  1  0  0  0
 76149  1  0  0  0
 77150  1  0  0  0
 77151  1  0  0  0
 78 79  1  0  0  0
 81152  1  0  0  0
M  ISO  4   1 100  68 101  77 101  81 100
M  END
> <chiral flag>
0

> <version>
0

> <s_m_source_file>
/data/baiqing/PycharmProjects/Reinvent-master-3.2/result/LINK_invent/BTK/process_docking_weight1_custom_sum_contain_oxygen_bond_distance_aromatic_linkinvent_7_9_3/rearranged_h_0049.sdf

> <i_m_source_file_index>
62

> <r_mmod_Potential_Energy-OPLS-2005>
148.294982910156

> <r_mmod_Stretch_Energy-OPLS-2005>
123.335899353027

> <r_mmod_Bend_Energy-OPLS-2005>
192.241546630859

> <r_mmod_Torsional_Energy-OPLS-2005>
231.309020996094

> <r_mmod_Improper_Torsional_Energy-OPLS-2005>
5.34824705123901

> <r_mmod_Van_der_Waal_Energy-OPLS-2005>
129.245529174805

> <r_mmod_Electrostatic_Energy-OPLS-2005>
-347.555603027344

> <r_mmod_Solvation_Energy-OPLS-2005>
-255.582672119141

> <b_mmod_Minimization_Converged-OPLS-2005>
0

> <r_mmod_RMS_Derivative-OPLS-2005>
1.95817613601685

$$$$
64
                    3D
 Structure written by MMmdl.
148156  0  0  1  0            999 V2000
  -30.4154  -15.2975   20.3525 C   0  0  0  0  0  0
  -30.4339  -12.8274   19.5337 C   0  0  0  0  0  0
  -29.5360  -12.5623   18.2971 C   0  0  0  0  0  0
  -28.0850  -12.2840   18.7245 C   0  0  0  0  0  0
  -27.6012  -13.2783   19.8081 C   0  0  2  0  0  0
  -28.6269  -13.4804   20.9375 C   0  0  0  0  0  0
  -25.2359  -13.8261   20.5759 C   0  0  0  0  0  0
  -24.1712  -13.0438   20.9272 C   0  0  0  0  0  0
  -24.6380  -11.6949   20.8789 C   0  0  0  0  0  0
  -23.9086  -10.4292   21.0438 C   0  0  0  0  0  0
  -24.3635   -9.4201   21.9213 C   0  0  0  0  0  0
  -23.6303   -8.2237   22.0770 C   0  0  0  0  0  0
  -22.4287   -8.0279   21.3556 C   0  0  0  0  0  0
  -21.9928   -9.0255   20.4667 C   0  0  0  0  0  0
  -22.7263  -10.2133   20.3077 C   0  0  0  0  0  0
  -21.6853   -6.0738   22.5280 C   0  0  0  0  0  0
  -21.4019   -6.5643   23.8215 C   0  0  0  0  0  0
  -21.3655   -5.6796   24.9178 C   0  0  0  0  0  0
  -21.6038   -4.3059   24.7227 C   0  0  0  0  0  0
  -21.8814   -3.8147   23.4352 C   0  0  0  0  0  0
  -21.9193   -4.6963   22.3408 C   0  0  0  0  0  0
  -22.7731  -13.5190   21.1906 C   0  0  0  0  0  0
  -22.1659   -4.2153   21.0988 F   0  0  0  0  0  0
  -21.5623   -3.4533   25.7741 F   0  0  0  0  0  0
  -29.8573  -13.9858   20.3150 N   0  0  0  0  0  0
  -26.2764  -12.9534   20.3184 N   0  0  0  0  0  0
  -25.9310  -11.6650   20.5737 N   0  0  0  0  0  0
  -22.0396  -12.8166   22.0470 N   0  0  0  0  0  0
  -25.4023  -15.1984   20.4214 N   0  0  0  0  0  0
  -31.6492  -15.2570   20.2249 O   0  0  0  0  0  0
  -21.6640   -6.8883   21.4249 O   0  0  0  0  0  0
  -22.3403  -14.5485   20.6749 O   0  0  0  0  0  0
  -24.6669  -31.8189   23.1685 C   0  0  0  0  0  0
  -25.9334  -32.4552   23.8159 C   0  0  1  0  0  0
  -27.1967  -26.8897   20.1937 C   0  0  0  0  0  0
  -25.5990  -33.8374   24.2041 N   0  0  0  0  0  0
  -23.4808  -30.4356   21.5177 C   0  0  2  0  0  0
  -24.9260  -28.8132   20.1146 C   0  0  0  0  0  0
  -22.7670  -29.4441   22.4752 C   0  0  0  0  0  0
  -18.0339  -28.1412   22.8455 C   0  0  0  0  0  0
  -24.1496  -36.7216   23.2647 C   0  0  0  0  0  0
  -26.0512  -30.6134   21.4031 C   0  0  0  0  0  0
  -26.1126  -29.2005   20.7491 C   0  0  0  0  0  0
  -27.2442  -28.2627   20.7590 C   0  0  0  0  0  0
  -25.9817  -26.6619   19.5104 C   0  0  0  0  0  0
  -24.8870  -27.5647   19.4730 C   0  0  0  0  0  0
  -23.7207  -29.7536   20.1437 C   0  0  0  0  0  0
  -25.4138  -36.2945   24.0285 C   0  0  1  0  0  0
  -20.5959  -28.3765   23.1153 C   0  0  2  0  0  0
  -20.6813  -26.9446   22.5376 C   0  0  0  0  0  0
  -19.5780  -26.6382   21.5189 C   0  0  0  0  0  0
  -18.1967  -26.7946   22.1615 C   0  0  0  0  0  0
  -19.1598  -28.8910   23.2797 C   0  0  0  0  0  0
  -18.9509  -30.1500   23.8838 C   0  0  0  0  0  0
  -17.6499  -30.6596   24.0557 C   0  0  0  0  0  0
  -25.9105  -34.9330   23.4982 C   0  0  0  0  0  0
  -16.5390  -29.9078   23.6348 C   0  0  0  0  0  0
  -16.7322  -28.6502   23.0358 C   0  0  0  0  0  0
  -26.4585  -31.6528   25.0714 C   0  0  0  0  0  0
  -25.3709  -31.3774   26.1363 C   0  0  0  0  0  0
  -27.0500  -30.2895   24.6489 C   0  0  0  0  0  0
  -27.6048  -32.4378   25.7524 C   0  0  0  0  0  0
  -27.5567  -37.1772   24.8464 C   0  0  0  0  0  0
  -21.4341  -29.3053   22.3495 N   0  0  0  0  0  0
  -26.4280  -37.3685   23.9398 N   0  0  0  0  0  0
  -24.7553  -30.9836   22.0827 N   0  0  0  0  0  0
  -23.4192  -28.8020   23.3020 O   0  0  0  0  0  0
  -28.1981  -25.7741   20.2123 O   0  0  0  0  0  0
  -26.5719  -34.8871   22.4583 O   0  0  0  0  0  0
  -23.5735  -32.1175   23.6764 O   0  0  0  0  0  0
  -28.8365  -17.3276   19.2155 C   0  0  0  0  0  0
  -29.6842  -16.8262   20.2646 C   0  0  0  0  0  0
  -29.8307  -18.1180   20.9297 C   0  0  0  0  0  0
  -30.5822  -18.3457   22.1966 C   0  0  0  0  0  0
  -28.7503  -22.5528   20.0439 C   0  0  0  0  0  0
  -28.6960  -20.8892   20.7688 C   0  0  0  0  0  0
  -27.9452  -24.1432   20.4514 C   0  0  0  0  0  0
  -28.5184  -18.6694   19.2629 N   0  0  0  0  0  0
  -29.1251  -19.3079   20.3190 N   0  0  0  0  0  0
  -31.4521  -13.0322   19.1994 H   0  0  0  0  0  0
  -30.5089  -11.9367   20.1605 H   0  0  0  0  0  0
  -29.9264  -11.7244   17.7186 H   0  0  0  0  0  0
  -29.5598  -13.4315   17.6394 H   0  0  0  0  0  0
  -28.0491  -11.2693   19.1212 H   0  0  0  0  0  0
  -27.4174  -12.2958   17.8624 H   0  0  0  0  0  0
  -27.5064  -14.2349   19.2926 H   0  0  0  0  0  0
  -28.8005  -12.5550   21.4873 H   0  0  0  0  0  0
  -28.2609  -14.2084   21.6623 H   0  0  0  0  0  0
  -25.2772   -9.5651   22.4797 H   0  0  0  0  0  0
  -23.9999   -7.4609   22.7473 H   0  0  0  0  0  0
  -21.0859   -8.8769   19.8966 H   0  0  0  0  0  0
  -22.3723  -10.9668   19.6183 H   0  0  0  0  0  0
  -21.2018   -7.6151   23.9711 H   0  0  0  0  0  0
  -21.1488   -6.0541   25.9078 H   0  0  0  0  0  0
  -22.0602   -2.7614   23.2854 H   0  0  0  0  0  0
  -22.4029  -11.9833   22.4862 H   0  0  0  0  0  0
  -21.1020  -13.1194   22.2696 H   0  0  0  0  0  0
  -24.6372  -15.8547   20.5319 H   0  0  0  0  0  0
  -26.2594  -15.6391   20.1135 H   0  0  0  0  0  0
  -26.7399  -32.5065   23.0861 H   0  0  0  0  0  0
  -25.0085  -33.9449   25.0159 H   0  0  0  0  0  0
  -22.7960  -31.2692   21.3478 H   0  0  0  0  0  0
  -23.3746  -35.9559   23.3283 H   0  0  0  0  0  0
  -24.3564  -36.8903   22.2065 H   0  0  0  0  0  0
  -23.7275  -37.6404   23.6737 H   0  0  0  0  0  0
  -26.2383  -31.3523   20.6222 H   0  0  0  0  0  0
  -26.9064  -30.6630   22.0640 H   0  0  0  0  0  0
  -28.1454  -28.5644   21.2732 H   0  0  0  0  0  0
  -25.8531  -25.7172   19.0022 H   0  0  0  0  0  0
  -23.9868  -27.2656   18.9516 H   0  0  0  0  0  0
  -23.8860  -30.5213   19.3861 H   0  0  0  0  0  0
  -22.8249  -29.2187   19.8245 H   0  0  0  0  0  0
  -25.1342  -36.1726   25.0777 H   0  0  0  0  0  0
  -21.0059  -28.3384   24.1273 H   0  0  0  0  0  0
  -20.5665  -26.2405   23.3636 H   0  0  0  0  0  0
  -21.6684  -26.7404   22.1202 H   0  0  0  0  0  0
  -19.6941  -25.6267   21.1280 H   0  0  0  0  0  0
  -19.6722  -27.3144   20.6678 H   0  0  0  0  0  0
  -17.4238  -26.6677   21.4027 H   0  0  0  0  0  0
  -18.0381  -26.0098   22.9027 H   0  0  0  0  0  0
  -19.7988  -30.7334   24.2173 H   0  0  0  0  0  0
  -17.5055  -31.6272   24.5173 H   0  0  0  0  0  0
  -15.5386  -30.2960   23.7708 H   0  0  0  0  0  0
  -15.8731  -28.0805   22.7090 H   0  0  0  0  0  0
  -24.5858  -30.7174   25.7656 H   0  0  0  0  0  0
  -24.8949  -32.2981   26.4749 H   0  0  0  0  0  0
  -25.7931  -30.8935   27.0179 H   0  0  0  0  0  0
  -26.3176  -29.6545   24.1488 H   0  0  0  0  0  0
  -27.4003  -29.7287   25.5168 H   0  0  0  0  0  0
  -27.9133  -30.4076   23.9934 H   0  0  0  0  0  0
  -27.2556  -33.3669   26.2044 H   0  0  0  0  0  0
  -28.3884  -32.6977   25.0393 H   0  0  0  0  0  0
  -28.0711  -31.8579   26.5500 H   0  0  0  0  0  0
  -28.2568  -38.0077   24.7474 H   0  0  0  0  0  0
  -28.1077  -36.2604   24.6329 H   0  0  0  0  0  0
  -27.2291  -37.1459   25.8868 H   0  0  0  0  0  0
  -20.9582  -29.8757   21.6640 H   0  0  0  0  0  0
  -26.0117  -38.2746   24.1380 H   0  0  0  0  0  0
  -28.4481  -16.7640   18.3800 H   0  0  0  0  0  0
  -31.0781  -19.3142   22.1893 H   0  0  0  0  0  0
  -31.3416  -17.5793   22.3455 H   0  0  0  0  0  0
  -29.9039  -18.3224   23.0496 H   0  0  0  0  0  0
  -29.8134  -22.7835   20.0329 H   0  0  0  0  0  0
  -28.5085  -22.3947   18.9929 H   0  0  0  0  0  0
  -29.1686  -21.0104   21.7443 H   0  0  0  0  0  0
  -27.6400  -20.7858   21.0216 H   0  0  0  0  0  0
  -26.9183  -23.9943   20.1188 H   0  0  0  0  0  0
  -27.8579  -24.1038   21.5378 H   0  0  0  0  0  0
  1 25  1  0  0  0
  1 30  2  0  0  0
  1 72  1  0  0  0
  2  3  1  0  0  0
  2 25  1  0  0  0
  2 80  1  0  0  0
  2 81  1  0  0  0
  3  4  1  0  0  0
  3 82  1  0  0  0
  3 83  1  0  0  0
  4  5  1  0  0  0
  4 84  1  0  0  0
  4 85  1  0  0  0
  5  6  1  0  0  0
  5 26  1  0  0  0
  5 86  1  0  0  0
  6 25  1  0  0  0
  6 87  1  0  0  0
  6 88  1  0  0  0
  7  8  2  0  0  0
  7 26  1  0  0  0
  7 29  1  0  0  0
  8  9  1  0  0  0
  8 22  1  0  0  0
  9 10  1  0  0  0
  9 27  2  0  0  0
 10 11  2  0  0  0
 10 15  1  0  0  0
 11 12  1  0  0  0
 11 89  1  0  0  0
 12 13  2  0  0  0
 12 90  1  0  0  0
 13 14  1  0  0  0
 13 31  1  0  0  0
 14 15  2  0  0  0
 14 91  1  0  0  0
 15 92  1  0  0  0
 16 17  2  0  0  0
 16 21  1  0  0  0
 16 31  1  0  0  0
 17 18  1  0  0  0
 17 93  1  0  0  0
 18 19  2  0  0  0
 18 94  1  0  0  0
 19 20  1  0  0  0
 19 24  1  0  0  0
 20 21  2  0  0  0
 20 95  1  0  0  0
 21 23  1  0  0  0
 22 28  1  0  0  0
 22 32  2  0  0  0
 26 27  1  0  0  0
 28 96  1  0  0  0
 28 97  1  0  0  0
 29 98  1  0  0  0
 29 99  1  0  0  0
 33 34  1  0  0  0
 33 66  1  0  0  0
 33 70  2  0  0  0
 34 36  1  0  0  0
 34 59  1  0  0  0
 34100  1  0  0  0
 35 44  2  0  0  0
 35 45  1  0  0  0
 35 68  1  0  0  0
 36 56  1  0  0  0
 36101  1  0  0  0
 37 39  1  0  0  0
 37 47  1  0  0  0
 37 66  1  0  0  0
 37102  1  0  0  0
 38 43  2  0  0  0
 38 46  1  0  0  0
 38 47  1  0  0  0
 39 64  1  0  0  0
 39 67  2  0  0  0
 40 52  1  0  0  0
 40 53  2  0  0  0
 40 58  1  0  0  0
 41103  1  0  0  0
 41104  1  0  0  0
 41105  1  0  0  0
 41 48  1  0  0  0
 42 43  1  0  0  0
 42 66  1  0  0  0
 42106  1  0  0  0
 42107  1  0  0  0
 43 44  1  0  0  0
 44108  1  0  0  0
 45 46  2  0  0  0
 45109  1  0  0  0
 46110  1  0  0  0
 47111  1  0  0  0
 47112  1  0  0  0
 48 56  1  0  0  0
 48 65  1  0  0  0
 48113  1  0  0  0
 49 50  1  0  0  0
 49 53  1  0  0  0
 49 64  1  0  0  0
 49114  1  0  0  0
 50 51  1  0  0  0
 50115  1  0  0  0
 50116  1  0  0  0
 51 52  1  0  0  0
 51117  1  0  0  0
 51118  1  0  0  0
 52119  1  0  0  0
 52120  1  0  0  0
 53 54  1  0  0  0
 54 55  2  0  0  0
 54121  1  0  0  0
 55 57  1  0  0  0
 55122  1  0  0  0
 56 69  2  0  0  0
 57 58  2  0  0  0
 57123  1  0  0  0
 58124  1  0  0  0
 59 60  1  0  0  0
 59 61  1  0  0  0
 59 62  1  0  0  0
 60125  1  0  0  0
 60126  1  0  0  0
 60127  1  0  0  0
 61128  1  0  0  0
 61129  1  0  0  0
 61130  1  0  0  0
 62131  1  0  0  0
 62132  1  0  0  0
 62133  1  0  0  0
 63 65  1  0  0  0
 63134  1  0  0  0
 63135  1  0  0  0
 63136  1  0  0  0
 64137  1  0  0  0
 65138  1  0  0  0
 68 77  1  0  0  0
 71 72  1  0  0  0
 71 78  2  0  0  0
 71139  1  0  0  0
 72 73  2  0  0  0
 73 74  1  0  0  0
 73 79  1  0  0  0
 74140  1  0  0  0
 74141  1  0  0  0
 74142  1  0  0  0
 75 76  1  0  0  0
 75 77  1  0  0  0
 75143  1  0  0  0
 75144  1  0  0  0
 76 79  1  0  0  0
 76145  1  0  0  0
 76146  1  0  0  0
 77147  1  0  0  0
 77148  1  0  0  0
 78 79  1  0  0  0
M  ISO  4   1 100  68 101  72 100  77 101
M  END
> <chiral flag>
0

> <version>
0

> <s_m_source_file>
/data/baiqing/PycharmProjects/Reinvent-master-3.2/result/LINK_invent/BTK/process_docking_weight1_custom_sum_contain_oxygen_bond_distance_aromatic_linkinvent_7_9_3/rearranged_h_0049.sdf

> <i_m_source_file_index>
63

> <r_mmod_Potential_Energy-OPLS-2005>
1395.24816894531

> <r_mmod_Stretch_Energy-OPLS-2005>
616.577270507812

> <r_mmod_Bend_Energy-OPLS-2005>
467.068420410156

> <r_mmod_Torsional_Energy-OPLS-2005>
240.89436340332

> <r_mmod_Improper_Torsional_Energy-OPLS-2005>
8.6420316696167

> <r_mmod_Van_der_Waal_Energy-OPLS-2005>
101.570205688477

> <r_mmod_Electrostatic_Energy-OPLS-2005>
-335.139434814453

> <r_mmod_Solvation_Energy-OPLS-2005>
-205.244705200195

> <b_mmod_Minimization_Converged-OPLS-2005>
0

> <r_mmod_RMS_Derivative-OPLS-2005>
2.45190501213074

$$$$
65
                    3D
 Structure written by MMmdl.
160168  0  0  1  0            999 V2000
  -30.6222  -14.7318   20.5005 C   0  0  0  0  0  0
  -30.4280  -12.4535   19.4775 C   0  0  0  0  0  0
  -29.5074  -12.5113   18.2386 C   0  0  0  0  0  0
  -28.0366  -12.3250   18.6518 C   0  0  0  0  0  0
  -27.6415  -13.2287   19.8474 C   0  0  2  0  0  0
  -28.6776  -13.1627   20.9883 C   0  0  0  0  0  0
  -25.2514  -13.8219   20.5668 C   0  0  0  0  0  0
  -24.1806  -13.0460   20.9202 C   0  0  0  0  0  0
  -24.6411  -11.6941   20.8745 C   0  0  0  0  0  0
  -23.9084  -10.4310   21.0422 C   0  0  0  0  0  0
  -24.3633   -9.4221   21.9207 C   0  0  0  0  0  0
  -23.6299   -8.2261   22.0761 C   0  0  0  0  0  0
  -22.4292   -8.0307   21.3534 C   0  0  0  0  0  0
  -21.9941   -9.0286   20.4642 C   0  0  0  0  0  0
  -22.7269  -10.2152   20.3061 C   0  0  0  0  0  0
  -21.6869   -6.0757   22.5288 C   0  0  0  0  0  0
  -21.4021   -6.5649   23.8223 C   0  0  0  0  0  0
  -21.3638   -5.6792   24.9178 C   0  0  0  0  0  0
  -21.6043   -4.3060   24.7219 C   0  0  0  0  0  0
  -21.8821   -3.8158   23.4338 C   0  0  0  0  0  0
  -21.9192   -4.6983   22.3403 C   0  0  0  0  0  0
  -22.7821  -13.5232   21.1866 C   0  0  0  0  0  0
  -22.1661   -4.2168   21.0979 F   0  0  0  0  0  0
  -21.5607   -3.4550   25.7725 F   0  0  0  0  0  0
  -29.9875  -13.5081   20.4223 N   0  0  0  0  0  0
  -26.2928  -12.9414   20.3257 N   0  0  0  0  0  0
  -25.9343  -11.6552   20.5757 N   0  0  0  0  0  0
  -22.0464  -12.8208   22.0403 N   0  0  0  0  0  0
  -25.4293  -15.1935   20.4091 N   0  0  0  0  0  0
  -31.7622  -14.8570   20.0428 O   0  0  0  0  0  0
  -21.6640   -6.8910   21.4253 O   0  0  0  0  0  0
  -22.3506  -14.5554   20.6750 O   0  0  0  0  0  0
  -24.6329  -31.8591   23.1978 C   0  0  0  0  0  0
  -25.9152  -32.4790   23.8314 C   0  0  1  0  0  0
  -27.1935  -27.2555   20.1301 C   0  0  0  0  0  0
  -25.5953  -33.8590   24.2237 N   0  0  0  0  0  0
  -23.4283  -30.4864   21.5420 C   0  0  2  0  0  0
  -24.8726  -28.9384   20.1024 C   0  0  0  0  0  0
  -22.7522  -29.4640   22.4897 C   0  0  0  0  0  0
  -18.0317  -28.1428   22.8434 C   0  0  0  0  0  0
  -24.1503  -36.7276   23.2638 C   0  0  0  0  0  0
  -25.9776  -30.7670   21.3827 C   0  0  0  0  0  0
  -26.0469  -29.3932   20.7175 C   0  0  0  0  0  0
  -27.2144  -28.5622   20.7249 C   0  0  0  0  0  0
  -26.0108  -26.8851   19.4546 C   0  0  0  0  0  0
  -24.8620  -27.6924   19.4579 C   0  0  0  0  0  0
  -23.6462  -29.8280   20.1540 C   0  0  0  0  0  0
  -25.4136  -36.3090   24.0315 C   0  0  1  0  0  0
  -20.5901  -28.3722   23.1281 C   0  0  2  0  0  0
  -20.6826  -26.9451   22.5414 C   0  0  0  0  0  0
  -19.5781  -26.6402   21.5240 C   0  0  0  0  0  0
  -18.1934  -26.7969   22.1602 C   0  0  0  0  0  0
  -19.1558  -28.8883   23.2848 C   0  0  0  0  0  0
  -18.9479  -30.1467   23.8874 C   0  0  0  0  0  0
  -17.6484  -30.6604   24.0539 C   0  0  0  0  0  0
  -25.9086  -34.9469   23.5112 C   0  0  0  0  0  0
  -16.5373  -29.9087   23.6344 C   0  0  0  0  0  0
  -16.7302  -28.6520   23.0333 C   0  0  0  0  0  0
  -26.4503  -31.6647   25.0725 C   0  0  0  0  0  0
  -25.3665  -31.3793   26.1403 C   0  0  0  0  0  0
  -27.0391  -30.3080   24.6244 C   0  0  0  0  0  0
  -27.6039  -32.4417   25.7477 C   0  0  0  0  0  0
  -27.5582  -37.1797   24.8464 C   0  0  0  0  0  0
  -21.4224  -29.3043   22.3640 N   0  0  0  0  0  0
  -26.4301  -37.3798   23.9405 N   0  0  0  0  0  0
  -24.6981  -31.0540   22.0959 N   0  0  0  0  0  0
  -23.4213  -28.8219   23.3030 O   0  0  0  0  0  0
  -28.2260  -26.2954   20.1937 O   0  0  0  0  0  0
  -26.5683  -34.8924   22.4683 O   0  0  0  0  0  0
  -23.5481  -32.1493   23.7257 O   0  0  0  0  0  0
  -29.9599  -22.0470   19.4930 C   0  0  0  0  0  0
  -29.7080  -23.4533   19.6378 C   0  0  0  0  0  0
  -28.9701  -21.3151   20.1019 C   0  0  0  0  0  0
  -28.5533  -23.6506   20.3424 C   0  0  0  0  0  0
  -27.1701  -21.6491   22.8683 C   0  0  0  0  0  0
  -29.9410  -16.0948   22.3882 C   0  0  0  0  0  0
  -28.7027  -19.7493   20.0675 C   0  0  0  0  0  0
  -27.8195  -24.9750   20.7949 C   0  0  0  0  0  0
  -29.7415  -18.6126   20.5635 C   0  0  0  0  0  0
  -26.8787  -22.0118   21.4014 C   0  0  0  0  0  0
  -29.4534  -17.0650   20.1319 C   0  0  0  0  0  0
  -28.0993  -22.3189   20.6429 N   0  0  0  0  0  0
  -29.9162  -15.8479   20.9459 N   0  0  0  0  0  0
  -31.4692  -12.5750   19.1722 H   0  0  0  0  0  0
  -30.3716  -11.4748   19.9556 H   0  0  0  0  0  0
  -29.7947  -11.7398   17.5236 H   0  0  0  0  0  0
  -29.6280  -13.4659   17.7259 H   0  0  0  0  0  0
  -27.9111  -11.2781   18.9306 H   0  0  0  0  0  0
  -27.3741  -12.4966   17.8015 H   0  0  0  0  0  0
  -27.6417  -14.2493   19.4606 H   0  0  0  0  0  0
  -28.7045  -12.1757   21.4522 H   0  0  0  0  0  0
  -28.3872  -13.8576   21.7749 H   0  0  0  0  0  0
  -25.2788   -9.5689   22.4774 H   0  0  0  0  0  0
  -24.0006   -7.4657   22.7490 H   0  0  0  0  0  0
  -21.0880   -8.8826   19.8939 H   0  0  0  0  0  0
  -22.3780  -10.9696   19.6151 H   0  0  0  0  0  0
  -21.2041   -7.6168   23.9738 H   0  0  0  0  0  0
  -21.1437   -6.0520   25.9073 H   0  0  0  0  0  0
  -22.0617   -2.7633   23.2839 H   0  0  0  0  0  0
  -22.4058  -11.9822   22.4716 H   0  0  0  0  0  0
  -21.1097  -13.1239   22.2643 H   0  0  0  0  0  0
  -24.6775  -15.8634   20.5219 H   0  0  0  0  0  0
  -26.2998  -15.6197   20.1197 H   0  0  0  0  0  0
  -26.7197  -32.5422   23.1015 H   0  0  0  0  0  0
  -25.0076  -33.9698   25.0372 H   0  0  0  0  0  0
  -22.7268  -31.3112   21.3977 H   0  0  0  0  0  0
  -23.3794  -35.9584   23.3334 H   0  0  0  0  0  0
  -24.3543  -36.8890   22.2045 H   0  0  0  0  0  0
  -23.7246  -37.6449   23.6675 H   0  0  0  0  0  0
  -26.1373  -31.5293   20.6190 H   0  0  0  0  0  0
  -26.8473  -30.8010   22.0252 H   0  0  0  0  0  0
  -28.1059  -28.8916   21.2411 H   0  0  0  0  0  0
  -25.9565  -25.9329   18.9448 H   0  0  0  0  0  0
  -23.9651  -27.3462   18.9638 H   0  0  0  0  0  0
  -23.7786  -30.6097   19.4054 H   0  0  0  0  0  0
  -22.7639  -29.2654   19.8426 H   0  0  0  0  0  0
  -25.1343  -36.1927   25.0816 H   0  0  0  0  0  0
  -20.9950  -28.3309   24.1423 H   0  0  0  0  0  0
  -20.5811  -26.2297   23.3615 H   0  0  0  0  0  0
  -21.6678  -26.7568   22.1119 H   0  0  0  0  0  0
  -19.6972  -25.6322   21.1256 H   0  0  0  0  0  0
  -19.6731  -27.3209   20.6767 H   0  0  0  0  0  0
  -17.4242  -26.6714   21.3970 H   0  0  0  0  0  0
  -18.0273  -26.0152   22.9027 H   0  0  0  0  0  0
  -19.7965  -30.7269   24.2199 H   0  0  0  0  0  0
  -17.5066  -31.6266   24.5183 H   0  0  0  0  0  0
  -15.5359  -30.2986   23.7709 H   0  0  0  0  0  0
  -15.8697  -28.0847   22.7065 H   0  0  0  0  0  0
  -24.5855  -30.7171   25.7686 H   0  0  0  0  0  0
  -24.8826  -32.2946   26.4809 H   0  0  0  0  0  0
  -25.7898  -30.8955   27.0212 H   0  0  0  0  0  0
  -26.2996  -29.6749   24.1328 H   0  0  0  0  0  0
  -27.4174  -29.7426   25.4762 H   0  0  0  0  0  0
  -27.8805  -30.4395   23.9443 H   0  0  0  0  0  0
  -27.2683  -33.3761   26.1961 H   0  0  0  0  0  0
  -28.3843  -32.6925   25.0310 H   0  0  0  0  0  0
  -28.0708  -31.8630   26.5463 H   0  0  0  0  0  0
  -28.2628  -38.0063   24.7557 H   0  0  0  0  0  0
  -28.1064  -36.2615   24.6284 H   0  0  0  0  0  0
  -27.2281  -37.1418   25.8854 H   0  0  0  0  0  0
  -20.9472  -29.8746   21.6780 H   0  0  0  0  0  0
  -26.0195  -38.2881   24.1413 H   0  0  0  0  0  0
  -30.7875  -21.6178   18.9411 H   0  0  0  0  0  0
  -30.3179  -24.2602   19.2470 H   0  0  0  0  0  0
  -26.2503  -21.5255   23.4482 H   0  0  0  0  0  0
  -27.7583  -22.4220   23.3648 H   0  0  0  0  0  0
  -27.7199  -20.7124   22.9382 H   0  0  0  0  0  0
  -29.1395  -16.7683   22.6976 H   0  0  0  0  0  0
  -30.8966  -16.5397   22.6731 H   0  0  0  0  0  0
  -29.8211  -15.1720   22.9589 H   0  0  0  0  0  0
  -28.4904  -19.5099   19.0261 H   0  0  0  0  0  0
  -27.7600  -19.5342   20.5662 H   0  0  0  0  0  0
  -27.9495  -25.0832   21.8723 H   0  0  0  0  0  0
  -26.7489  -24.8168   20.6691 H   0  0  0  0  0  0
  -29.8139  -18.7016   21.6471 H   0  0  0  0  0  0
  -30.7296  -18.8715   20.1829 H   0  0  0  0  0  0
  -26.1979  -22.8610   21.3801 H   0  0  0  0  0  0
  -26.3345  -21.2030   20.9073 H   0  0  0  0  0  0
  -29.7998  -16.9340   19.1057 H   0  0  0  0  0  0
  -28.3693  -16.9492   20.0840 H   0  0  0  0  0  0
  1 25  1  0  0  0
  1 30  2  0  0  0
  1 83  1  0  0  0
  2  3  1  0  0  0
  2 25  1  0  0  0
  2 84  1  0  0  0
  2 85  1  0  0  0
  3  4  1  0  0  0
  3 86  1  0  0  0
  3 87  1  0  0  0
  4  5  1  0  0  0
  4 88  1  0  0  0
  4 89  1  0  0  0
  5  6  1  0  0  0
  5 26  1  0  0  0
  5 90  1  0  0  0
  6 25  1  0  0  0
  6 91  1  0  0  0
  6 92  1  0  0  0
  7  8  2  0  0  0
  7 26  1  0  0  0
  7 29  1  0  0  0
  8  9  1  0  0  0
  8 22  1  0  0  0
  9 10  1  0  0  0
  9 27  2  0  0  0
 10 11  2  0  0  0
 10 15  1  0  0  0
 11 12  1  0  0  0
 11 93  1  0  0  0
 12 13  2  0  0  0
 12 94  1  0  0  0
 13 14  1  0  0  0
 13 31  1  0  0  0
 14 15  2  0  0  0
 14 95  1  0  0  0
 15 96  1  0  0  0
 16 17  2  0  0  0
 16 21  1  0  0  0
 16 31  1  0  0  0
 17 18  1  0  0  0
 17 97  1  0  0  0
 18 19  2  0  0  0
 18 98  1  0  0  0
 19 20  1  0  0  0
 19 24  1  0  0  0
 20 21  2  0  0  0
 20 99  1  0  0  0
 21 23  1  0  0  0
 22 28  1  0  0  0
 22 32  2  0  0  0
 26 27  1  0  0  0
 28100  1  0  0  0
 28101  1  0  0  0
 29102  1  0  0  0
 29103  1  0  0  0
 33 34  1  0  0  0
 33 66  1  0  0  0
 33 70  2  0  0  0
 34 36  1  0  0  0
 34 59  1  0  0  0
 34104  1  0  0  0
 35 44  2  0  0  0
 35 45  1  0  0  0
 35 68  1  0  0  0
 36 56  1  0  0  0
 36105  1  0  0  0
 37 39  1  0  0  0
 37 47  1  0  0  0
 37 66  1  0  0  0
 37106  1  0  0  0
 38 43  2  0  0  0
 38 46  1  0  0  0
 38 47  1  0  0  0
 39 64  1  0  0  0
 39 67  2  0  0  0
 40 52  1  0  0  0
 40 53  2  0  0  0
 40 58  1  0  0  0
 41107  1  0  0  0
 41108  1  0  0  0
 41109  1  0  0  0
 41 48  1  0  0  0
 42 43  1  0  0  0
 42 66  1  0  0  0
 42110  1  0  0  0
 42111  1  0  0  0
 43 44  1  0  0  0
 44112  1  0  0  0
 45 46  2  0  0  0
 45113  1  0  0  0
 46114  1  0  0  0
 47115  1  0  0  0
 47116  1  0  0  0
 48 56  1  0  0  0
 48 65  1  0  0  0
 48117  1  0  0  0
 49 50  1  0  0  0
 49 53  1  0  0  0
 49 64  1  0  0  0
 49118  1  0  0  0
 50 51  1  0  0  0
 50119  1  0  0  0
 50120  1  0  0  0
 51 52  1  0  0  0
 51121  1  0  0  0
 51122  1  0  0  0
 52123  1  0  0  0
 52124  1  0  0  0
 53 54  1  0  0  0
 54 55  2  0  0  0
 54125  1  0  0  0
 55 57  1  0  0  0
 55126  1  0  0  0
 56 69  2  0  0  0
 57 58  2  0  0  0
 57127  1  0  0  0
 58128  1  0  0  0
 59 60  1  0  0  0
 59 61  1  0  0  0
 59 62  1  0  0  0
 60129  1  0  0  0
 60130  1  0  0  0
 60131  1  0  0  0
 61132  1  0  0  0
 61133  1  0  0  0
 61134  1  0  0  0
 62135  1  0  0  0
 62136  1  0  0  0
 62137  1  0  0  0
 63 65  1  0  0  0
 63138  1  0  0  0
 63139  1  0  0  0
 63140  1  0  0  0
 64141  1  0  0  0
 65142  1  0  0  0
 68 78  1  0  0  0
 71 72  1  0  0  0
 71 73  2  0  0  0
 71143  1  0  0  0
 72 74  2  0  0  0
 72144  1  0  0  0
 73 77  1  0  0  0
 73 82  1  0  0  0
 74 78  1  0  0  0
 74 82  1  0  0  0
 75 80  1  0  0  0
 75145  1  0  0  0
 75146  1  0  0  0
 75147  1  0  0  0
 76 83  1  0  0  0
 76148  1  0  0  0
 76149  1  0  0  0
 76150  1  0  0  0
 77 79  1  0  0  0
 77151  1  0  0  0
 77152  1  0  0  0
 78153  1  0  0  0
 78154  1  0  0  0
 79 81  1  0  0  0
 79155  1  0  0  0
 79156  1  0  0  0
 80 82  1  0  0  0
 80157  1  0  0  0
 80158  1  0  0  0
 81 83  1  0  0  0
 81159  1  0  0  0
 81160  1  0  0  0
M  ISO  4   1 100  68 101  78 101  83 100
M  END
> <chiral flag>
0

> <version>
0

> <s_m_source_file>
/data/baiqing/PycharmProjects/Reinvent-master-3.2/result/LINK_invent/BTK/process_docking_weight1_custom_sum_contain_oxygen_bond_distance_aromatic_linkinvent_7_9_3/rearranged_h_0049.sdf

> <i_m_source_file_index>
64

> <r_mmod_Potential_Energy-OPLS-2005>
382.644073486328

> <r_mmod_Stretch_Energy-OPLS-2005>
128.621246337891

> <r_mmod_Bend_Energy-OPLS-2005>
171.028106689453

> <r_mmod_Torsional_Energy-OPLS-2005>
344.858062744141

> <r_mmod_Improper_Torsional_Energy-OPLS-2005>
4.85847473144531

> <r_mmod_Van_der_Waal_Energy-OPLS-2005>
117.912986755371

> <r_mmod_Electrostatic_Energy-OPLS-2005>
-279.282623291016

> <r_mmod_Solvation_Energy-OPLS-2005>
-197.025482177734

> <b_mmod_Minimization_Converged-OPLS-2005>
0

> <r_mmod_RMS_Derivative-OPLS-2005>
5.60273170471191

$$$$
66
                    3D
 Structure written by MMmdl.
168176  0  0  1  0            999 V2000
  -30.6068  -14.5878   20.3927 C   0  0  0  0  0  0
  -30.4328  -12.3495   19.3945 C   0  0  0  0  0  0
  -29.4908  -12.4767   18.1788 C   0  0  0  0  0  0
  -28.0127  -12.3353   18.6061 C   0  0  0  0  0  0
  -27.6434  -13.2057   19.8382 C   0  0  2  0  0  0
  -28.6982  -13.0658   20.9554 C   0  0  0  0  0  0
  -25.2556  -13.8129   20.5649 C   0  0  0  0  0  0
  -24.1834  -13.0384   20.9174 C   0  0  0  0  0  0
  -24.6406  -11.6864   20.8698 C   0  0  0  0  0  0
  -23.9072  -10.4254   21.0387 C   0  0  0  0  0  0
  -24.3629   -9.4170   21.9159 C   0  0  0  0  0  0
  -23.6291   -8.2213   22.0747 C   0  0  0  0  0  0
  -22.4266   -8.0255   21.3543 C   0  0  0  0  0  0
  -21.9904   -9.0229   20.4641 C   0  0  0  0  0  0
  -22.7247  -10.2097   20.3040 C   0  0  0  0  0  0
  -21.6854   -6.0704   22.5276 C   0  0  0  0  0  0
  -21.3998   -6.5625   23.8192 C   0  0  0  0  0  0
  -21.3662   -5.6788   24.9151 C   0  0  0  0  0  0
  -21.6050   -4.3051   24.7223 C   0  0  0  0  0  0
  -21.8826   -3.8128   23.4353 C   0  0  0  0  0  0
  -21.9201   -4.6927   22.3401 C   0  0  0  0  0  0
  -22.7855  -13.5182   21.1862 C   0  0  0  0  0  0
  -22.1671   -4.2113   21.0974 F   0  0  0  0  0  0
  -21.5646   -3.4549   25.7737 F   0  0  0  0  0  0
  -30.0083  -13.3680   20.3620 N   0  0  0  0  0  0
  -26.2951  -12.9299   20.3222 N   0  0  0  0  0  0
  -25.9325  -11.6465   20.5687 N   0  0  0  0  0  0
  -22.0542  -12.8149   22.0431 N   0  0  0  0  0  0
  -25.4166  -15.1849   20.4061 N   0  0  0  0  0  0
  -31.8198  -14.7414   20.2229 O   0  0  0  0  0  0
  -21.6652   -6.8843   21.4231 O   0  0  0  0  0  0
  -22.3525  -14.5478   20.6711 O   0  0  0  0  0  0
  -24.6167  -31.8667   23.2074 C   0  0  0  0  0  0
  -25.9038  -32.4831   23.8401 C   0  0  1  0  0  0
  -27.2444  -27.4104   20.0734 C   0  0  0  0  0  0
  -25.5858  -33.8639   24.2294 N   0  0  0  0  0  0
  -23.4092  -30.4848   21.5476 C   0  0  2  0  0  0
  -24.8560  -28.9475   20.1076 C   0  0  0  0  0  0
  -22.7426  -29.4618   22.4949 C   0  0  0  0  0  0
  -18.0248  -28.1365   22.8467 C   0  0  0  0  0  0
  -24.1497  -36.7285   23.2658 C   0  0  0  0  0  0
  -25.9453  -30.8099   21.3746 C   0  0  0  0  0  0
  -26.0154  -29.4493   20.7062 C   0  0  0  0  0  0
  -27.2118  -28.6939   20.6750 C   0  0  0  0  0  0
  -26.0632  -26.9246   19.4705 C   0  0  0  0  0  0
  -24.8778  -27.6861   19.4843 C   0  0  0  0  0  0
  -23.6202  -29.8175   20.1616 C   0  0  0  0  0  0
  -25.4116  -36.3117   24.0355 C   0  0  1  0  0  0
  -20.5845  -28.3657   23.1321 C   0  0  2  0  0  0
  -20.6733  -26.9402   22.5406 C   0  0  0  0  0  0
  -19.5739  -26.6354   21.5209 C   0  0  0  0  0  0
  -18.1902  -26.7921   22.1584 C   0  0  0  0  0  0
  -19.1479  -28.8824   23.2903 C   0  0  0  0  0  0
  -18.9437  -30.1416   23.8946 C   0  0  0  0  0  0
  -17.6452  -30.6595   24.0535 C   0  0  0  0  0  0
  -25.9038  -34.9483   23.5121 C   0  0  0  0  0  0
  -16.5341  -29.9095   23.6338 C   0  0  0  0  0  0
  -16.7225  -28.6485   23.0389 C   0  0  0  0  0  0
  -26.4400  -31.6644   25.0779 C   0  0  0  0  0  0
  -25.3606  -31.3734   26.1484 C   0  0  0  0  0  0
  -27.0191  -30.3087   24.6164 C   0  0  0  0  0  0
  -27.6039  -32.4324   25.7493 C   0  0  0  0  0  0
  -27.5597  -37.1810   24.8482 C   0  0  0  0  0  0
  -21.4142  -29.3017   22.3740 N   0  0  0  0  0  0
  -26.4296  -37.3812   23.9426 N   0  0  0  0  0  0
  -24.6742  -31.0709   22.0992 N   0  0  0  0  0  0
  -23.4201  -28.8139   23.2990 O   0  0  0  0  0  0
  -28.4271  -26.6853   20.0774 O   0  0  0  0  0  0
  -26.5666  -34.8951   22.4712 O   0  0  0  0  0  0
  -23.5335  -32.1383   23.7455 O   0  0  0  0  0  0
  -29.1746  -23.1853   18.5875 C   0  0  0  0  0  0
  -28.7484  -24.5490   18.7544 C   0  0  0  0  0  0
  -28.8721  -24.7755   16.4750 C   0  0  0  0  0  0
  -26.7758  -26.4590   13.6283 C   0  0  0  0  0  0
  -27.5006  -20.5670   19.1096 C   0  0  0  0  0  0
  -29.3591  -22.1160   19.6906 C   0  0  0  0  0  0
  -28.4011  -25.2294   20.0913 C   0  0  0  0  0  0
  -28.5741  -25.5950   15.2288 C   0  0  0  0  0  0
  -27.0668  -25.7028   14.9319 C   0  0  0  0  0  0
  -29.2836  -18.1317   19.6395 C   0  0  0  0  0  0
  -30.0575  -17.0831   20.5219 C   0  0  0  0  0  0
  -29.6396  -19.6196   20.0255 C   0  0  0  0  0  0
  -28.6076  -25.3331   17.6571 N   0  0  0  0  0  0
  -29.4741  -22.7315   17.3416 N   0  0  0  0  0  0
  -29.2983  -23.5181   16.2762 N   0  0  0  0  0  0
  -29.7490  -15.6407   20.3497 N   0  0  0  0  0  0
  -28.9716  -20.7274   19.2472 N   0  3  1  0  0  0
  -31.4714  -12.4910   19.0822 H   0  0  0  0  0  0
  -30.3747  -11.3518   19.8310 H   0  0  0  0  0  0
  -29.7351  -11.7156   17.4373 H   0  0  0  0  0  0
  -29.6453  -13.4370   17.6839 H   0  0  0  0  0  0
  -27.8412  -11.2827   18.8325 H   0  0  0  0  0  0
  -27.3584  -12.5742   17.7663 H   0  0  0  0  0  0
  -27.6469  -14.2343   19.4863 H   0  0  0  0  0  0
  -28.7005  -12.0590   21.3749 H   0  0  0  0  0  0
  -28.4804  -13.7441   21.7825 H   0  0  0  0  0  0
  -25.2784   -9.5642   22.4704 H   0  0  0  0  0  0
  -24.0009   -7.4605   22.7478 H   0  0  0  0  0  0
  -21.0825   -8.8728   19.8959 H   0  0  0  0  0  0
  -22.3703  -10.9611   19.6128 H   0  0  0  0  0  0
  -21.1966   -7.6129   23.9661 H   0  0  0  0  0  0
  -21.1489   -6.0530   25.9046 H   0  0  0  0  0  0
  -22.0609   -2.7593   23.2865 H   0  0  0  0  0  0
  -22.4216  -11.9826   22.4793 H   0  0  0  0  0  0
  -21.1143  -13.1133   22.2652 H   0  0  0  0  0  0
  -24.6347  -15.8209   20.5159 H   0  0  0  0  0  0
  -26.2514  -15.6468   20.0721 H   0  0  0  0  0  0
  -26.7122  -32.5460   23.1169 H   0  0  0  0  0  0
  -25.0011  -33.9837   25.0444 H   0  0  0  0  0  0
  -22.6964  -31.2999   21.4050 H   0  0  0  0  0  0
  -23.3822  -35.9567   23.3306 H   0  0  0  0  0  0
  -24.3587  -36.8882   22.2075 H   0  0  0  0  0  0
  -23.7159  -37.6452   23.6650 H   0  0  0  0  0  0
  -26.0939  -31.5829   20.6198 H   0  0  0  0  0  0
  -26.8247  -30.8383   22.0053 H   0  0  0  0  0  0
  -28.1105  -29.0846   21.1297 H   0  0  0  0  0  0
  -26.0538  -25.9699   18.9608 H   0  0  0  0  0  0
  -23.9895  -27.2991   19.0053 H   0  0  0  0  0  0
  -23.7314  -30.5994   19.4093 H   0  0  0  0  0  0
  -22.7440  -29.2457   19.8523 H   0  0  0  0  0  0
  -25.1285  -36.2022   25.0852 H   0  0  0  0  0  0
  -20.9886  -28.3201   24.1468 H   0  0  0  0  0  0
  -20.5626  -26.2264   23.3582 H   0  0  0  0  0  0
  -21.6602  -26.7429   22.1209 H   0  0  0  0  0  0
  -19.6922  -25.6272   21.1261 H   0  0  0  0  0  0
  -19.6742  -27.3154   20.6766 H   0  0  0  0  0  0
  -17.4180  -26.6703   21.3988 H   0  0  0  0  0  0
  -18.0274  -26.0061   22.8966 H   0  0  0  0  0  0
  -19.7916  -30.7151   24.2426 H   0  0  0  0  0  0
  -17.5026  -31.6322   24.5048 H   0  0  0  0  0  0
  -15.5356  -30.3022   23.7638 H   0  0  0  0  0  0
  -15.8601  -28.0786   22.7195 H   0  0  0  0  0  0
  -24.5908  -30.6927   25.7793 H   0  0  0  0  0  0
  -24.8611  -32.2850   26.4816 H   0  0  0  0  0  0
  -25.7909  -30.9014   27.0329 H   0  0  0  0  0  0
  -26.2686  -29.6959   24.1144 H   0  0  0  0  0  0
  -27.3855  -29.7249   25.4624 H   0  0  0  0  0  0
  -27.8605  -30.4431   23.9356 H   0  0  0  0  0  0
  -27.2767  -33.3699   26.2013 H   0  0  0  0  0  0
  -28.3851  -32.6742   25.0267 H   0  0  0  0  0  0
  -28.0694  -31.8453   26.5429 H   0  0  0  0  0  0
  -28.2634  -38.0112   24.7521 H   0  0  0  0  0  0
  -28.1051  -36.2620   24.6261 H   0  0  0  0  0  0
  -27.2308  -37.1381   25.8895 H   0  0  0  0  0  0
  -20.9322  -29.8780   21.6988 H   0  0  0  0  0  0
  -26.0208  -38.2899   24.1431 H   0  0  0  0  0  0
  -25.7044  -26.5206   13.4377 H   0  0  0  0  0  0
  -27.2392  -25.9629   12.7741 H   0  0  0  0  0  0
  -27.1614  -27.4775   13.6741 H   0  0  0  0  0  0
  -27.0486  -21.4498   18.6585 H   0  0  0  0  0  0
  -27.0179  -20.4113   20.0738 H   0  0  0  0  0  0
  -27.2628  -19.7290   18.4520 H   0  0  0  0  0  0
  -28.8339  -22.3882   20.6079 H   0  0  0  0  0  0
  -30.4246  -22.1104   19.9332 H   0  0  0  0  0  0
  -29.1426  -24.9145   20.8282 H   0  0  0  0  0  0
  -27.4520  -24.8389   20.4574 H   0  0  0  0  0  0
  -29.0649  -25.1222   14.3778 H   0  0  0  0  0  0
  -29.0216  -26.5830   15.3358 H   0  0  0  0  0  0
  -26.6311  -24.7059   14.8680 H   0  0  0  0  0  0
  -26.5704  -26.1939   15.7691 H   0  0  0  0  0  0
  -28.2082  -17.9745   19.7440 H   0  0  0  0  0  0
  -29.5145  -17.9680   18.5831 H   0  0  0  0  0  0
  -29.8315  -17.2974   21.5679 H   0  0  0  0  0  0
  -31.1283  -17.2457   20.3985 H   0  0  0  0  0  0
  -30.7205  -19.7430   19.9210 H   0  0  0  0  0  0
  -29.4260  -19.7676   21.0863 H   0  0  0  0  0  0
  -28.7766  -15.3914   20.2553 H   0  0  0  0  0  0
  -29.3373  -20.6831   18.3062 H   0  0  0  0  0  0
  1 25  1  0  0  0
  1 30  2  0  0  0
  1 86  1  0  0  0
  2  3  1  0  0  0
  2 25  1  0  0  0
  2 88  1  0  0  0
  2 89  1  0  0  0
  3  4  1  0  0  0
  3 90  1  0  0  0
  3 91  1  0  0  0
  4  5  1  0  0  0
  4 92  1  0  0  0
  4 93  1  0  0  0
  5  6  1  0  0  0
  5 26  1  0  0  0
  5 94  1  0  0  0
  6 25  1  0  0  0
  6 95  1  0  0  0
  6 96  1  0  0  0
  7  8  2  0  0  0
  7 26  1  0  0  0
  7 29  1  0  0  0
  8  9  1  0  0  0
  8 22  1  0  0  0
  9 10  1  0  0  0
  9 27  2  0  0  0
 10 11  2  0  0  0
 10 15  1  0  0  0
 11 12  1  0  0  0
 11 97  1  0  0  0
 12 13  2  0  0  0
 12 98  1  0  0  0
 13 14  1  0  0  0
 13 31  1  0  0  0
 14 15  2  0  0  0
 14 99  1  0  0  0
 15100  1  0  0  0
 16 17  2  0  0  0
 16 21  1  0  0  0
 16 31  1  0  0  0
 17 18  1  0  0  0
 17101  1  0  0  0
 18 19  2  0  0  0
 18102  1  0  0  0
 19 20  1  0  0  0
 19 24  1  0  0  0
 20 21  2  0  0  0
 20103  1  0  0  0
 21 23  1  0  0  0
 22 28  1  0  0  0
 22 32  2  0  0  0
 26 27  1  0  0  0
 28104  1  0  0  0
 28105  1  0  0  0
 29106  1  0  0  0
 29107  1  0  0  0
 33 34  1  0  0  0
 33 66  1  0  0  0
 33 70  2  0  0  0
 34 36  1  0  0  0
 34 59  1  0  0  0
 34108  1  0  0  0
 35 44  2  0  0  0
 35 45  1  0  0  0
 35 68  1  0  0  0
 36 56  1  0  0  0
 36109  1  0  0  0
 37 39  1  0  0  0
 37 47  1  0  0  0
 37 66  1  0  0  0
 37110  1  0  0  0
 38 43  2  0  0  0
 38 46  1  0  0  0
 38 47  1  0  0  0
 39 64  1  0  0  0
 39 67  2  0  0  0
 40 52  1  0  0  0
 40 53  2  0  0  0
 40 58  1  0  0  0
 41111  1  0  0  0
 41112  1  0  0  0
 41113  1  0  0  0
 41 48  1  0  0  0
 42 43  1  0  0  0
 42 66  1  0  0  0
 42114  1  0  0  0
 42115  1  0  0  0
 43 44  1  0  0  0
 44116  1  0  0  0
 45 46  2  0  0  0
 45117  1  0  0  0
 46118  1  0  0  0
 47119  1  0  0  0
 47120  1  0  0  0
 48 56  1  0  0  0
 48 65  1  0  0  0
 48121  1  0  0  0
 49 50  1  0  0  0
 49 53  1  0  0  0
 49 64  1  0  0  0
 49122  1  0  0  0
 50 51  1  0  0  0
 50123  1  0  0  0
 50124  1  0  0  0
 51 52  1  0  0  0
 51125  1  0  0  0
 51126  1  0  0  0
 52127  1  0  0  0
 52128  1  0  0  0
 53 54  1  0  0  0
 54 55  2  0  0  0
 54129  1  0  0  0
 55 57  1  0  0  0
 55130  1  0  0  0
 56 69  2  0  0  0
 57 58  2  0  0  0
 57131  1  0  0  0
 58132  1  0  0  0
 59 60  1  0  0  0
 59 61  1  0  0  0
 59 62  1  0  0  0
 60133  1  0  0  0
 60134  1  0  0  0
 60135  1  0  0  0
 61136  1  0  0  0
 61137  1  0  0  0
 61138  1  0  0  0
 62139  1  0  0  0
 62140  1  0  0  0
 62141  1  0  0  0
 63 65  1  0  0  0
 63142  1  0  0  0
 63143  1  0  0  0
 63144  1  0  0  0
 64145  1  0  0  0
 65146  1  0  0  0
 68 77  1  0  0  0
 71 72  2  0  0  0
 71 76  1  0  0  0
 71 84  1  0  0  0
 72 77  1  0  0  0
 72 83  1  0  0  0
 73 78  1  0  0  0
 73 83  2  0  0  0
 73 85  1  0  0  0
 74 79  1  0  0  0
 74147  1  0  0  0
 74148  1  0  0  0
 74149  1  0  0  0
 75150  1  0  0  0
 75151  1  0  0  0
 75152  1  0  0  0
 75 87  1  0  0  0
 76 87  1  0  0  0
 76153  1  0  0  0
 76154  1  0  0  0
 77155  1  0  0  0
 77156  1  0  0  0
 78 79  1  0  0  0
 78157  1  0  0  0
 78158  1  0  0  0
 79159  1  0  0  0
 79160  1  0  0  0
 80 81  1  0  0  0
 80 82  1  0  0  0
 80161  1  0  0  0
 80162  1  0  0  0
 81 86  1  0  0  0
 81163  1  0  0  0
 81164  1  0  0  0
 82 87  1  0  0  0
 82165  1  0  0  0
 82166  1  0  0  0
 84 85  2  0  0  0
 86167  1  0  0  0
 87168  1  0  0  0
M  CHG  1  87   1
M  ISO  4   1 100  68 101  77 101  86 100
M  END
> <chiral flag>
0

> <version>
0

> <s_m_source_file>
/data/baiqing/PycharmProjects/Reinvent-master-3.2/result/LINK_invent/BTK/process_docking_weight1_custom_sum_contain_oxygen_bond_distance_aromatic_linkinvent_7_9_3/rearranged_h_0049.sdf

> <i_m_source_file_index>
65

> <r_mmod_Potential_Energy-OPLS-2005>
-166.517486572266

> <r_mmod_Stretch_Energy-OPLS-2005>
55.7048263549805

> <r_mmod_Bend_Energy-OPLS-2005>
125.942718505859

> <r_mmod_Torsional_Energy-OPLS-2005>
211.981964111328

> <r_mmod_Improper_Torsional_Energy-OPLS-2005>
6.55794191360474

> <r_mmod_Van_der_Waal_Energy-OPLS-2005>
152.238189697266

> <r_mmod_Electrostatic_Energy-OPLS-2005>
-267.998840332031

> <r_mmod_Solvation_Energy-OPLS-2005>
-486.686584472656

> <b_mmod_Minimization_Converged-OPLS-2005>
0

> <r_mmod_RMS_Derivative-OPLS-2005>
6.2018895149231

$$$$
67
                    3D
 Structure written by MMmdl.
165173  0  0  1  0            999 V2000
  -30.6605  -14.7744   20.3964 C   0  0  0  0  0  0
  -30.4271  -12.4698   19.4526 C   0  0  0  0  0  0
  -29.4922  -12.4303   18.2243 C   0  0  0  0  0  0
  -28.0213  -12.3001   18.6554 C   0  0  0  0  0  0
  -27.6328  -13.2385   19.8313 C   0  0  2  0  0  0
  -28.6930  -13.2451   20.9510 C   0  0  0  0  0  0
  -25.2510  -13.8224   20.5749 C   0  0  0  0  0  0
  -24.1802  -13.0463   20.9250 C   0  0  0  0  0  0
  -24.6396  -11.6944   20.8782 C   0  0  0  0  0  0
  -23.9073  -10.4316   21.0406 C   0  0  0  0  0  0
  -24.3634   -9.4228   21.9175 C   0  0  0  0  0  0
  -23.6312   -8.2255   22.0742 C   0  0  0  0  0  0
  -22.4290   -8.0282   21.3535 C   0  0  0  0  0  0
  -21.9930   -9.0254   20.4640 C   0  0  0  0  0  0
  -22.7248  -10.2139   20.3051 C   0  0  0  0  0  0
  -21.6863   -6.0738   22.5275 C   0  0  0  0  0  0
  -21.4014   -6.5640   23.8210 C   0  0  0  0  0  0
  -21.3662   -5.6796   24.9173 C   0  0  0  0  0  0
  -21.6043   -4.3059   24.7217 C   0  0  0  0  0  0
  -21.8817   -3.8146   23.4342 C   0  0  0  0  0  0
  -21.9201   -4.6963   22.3398 C   0  0  0  0  0  0
  -22.7824  -13.5240   21.1875 C   0  0  0  0  0  0
  -22.1666   -4.2153   21.0972 F   0  0  0  0  0  0
  -21.5636   -3.4538   25.7726 F   0  0  0  0  0  0
  -29.9715  -13.5823   20.3170 N   0  0  0  0  0  0
  -26.2934  -12.9446   20.3315 N   0  0  0  0  0  0
  -25.9332  -11.6584   20.5824 N   0  0  0  0  0  0
  -22.0455  -12.8233   22.0421 N   0  0  0  0  0  0
  -25.4209  -15.1954   20.4170 N   0  0  0  0  0  0
  -31.8898  -14.7336   20.3214 O   0  0  0  0  0  0
  -21.6658   -6.8875   21.4234 O   0  0  0  0  0  0
  -22.3511  -14.5526   20.6696 O   0  0  0  0  0  0
  -24.6313  -31.8546   23.1991 C   0  0  0  0  0  0
  -25.9138  -32.4761   23.8344 C   0  0  1  0  0  0
  -27.2171  -27.2670   20.1346 C   0  0  0  0  0  0
  -25.5927  -33.8565   24.2267 N   0  0  0  0  0  0
  -23.4286  -30.4787   21.5411 C   0  0  2  0  0  0
  -24.8765  -28.9270   20.1094 C   0  0  0  0  0  0
  -22.7497  -29.4605   22.4901 C   0  0  0  0  0  0
  -18.0288  -28.1383   22.8481 C   0  0  0  0  0  0
  -24.1490  -36.7294   23.2646 C   0  0  0  0  0  0
  -25.9742  -30.7718   21.3767 C   0  0  0  0  0  0
  -26.0470  -29.3944   20.7196 C   0  0  0  0  0  0
  -27.2233  -28.5789   20.7162 C   0  0  0  0  0  0
  -26.0300  -26.8702   19.4826 C   0  0  0  0  0  0
  -24.8729  -27.6741   19.4769 C   0  0  0  0  0  0
  -23.6464  -29.8130   20.1571 C   0  0  0  0  0  0
  -25.4114  -36.3079   24.0332 C   0  0  1  0  0  0
  -20.5892  -28.3696   23.1270 C   0  0  2  0  0  0
  -20.6776  -26.9411   22.5412 C   0  0  0  0  0  0
  -19.5751  -26.6379   21.5218 C   0  0  0  0  0  0
  -18.1933  -26.7930   22.1624 C   0  0  0  0  0  0
  -19.1543  -28.8858   23.2879 C   0  0  0  0  0  0
  -18.9461  -30.1456   23.8900 C   0  0  0  0  0  0
  -17.6460  -30.6587   24.0561 C   0  0  0  0  0  0
  -25.9048  -34.9444   23.5102 C   0  0  0  0  0  0
  -16.5349  -29.9083   23.6325 C   0  0  0  0  0  0
  -16.7275  -28.6499   23.0353 C   0  0  0  0  0  0
  -26.4503  -31.6582   25.0725 C   0  0  0  0  0  0
  -25.3723  -31.3713   26.1443 C   0  0  0  0  0  0
  -27.0347  -30.3002   24.6205 C   0  0  0  0  0  0
  -27.6060  -32.4323   25.7489 C   0  0  0  0  0  0
  -27.5581  -37.1803   24.8467 C   0  0  0  0  0  0
  -21.4201  -29.3049   22.3654 N   0  0  0  0  0  0
  -26.4291  -37.3775   23.9414 N   0  0  0  0  0  0
  -24.6976  -31.0521   22.0958 N   0  0  0  0  0  0
  -23.4209  -28.8133   23.2989 O   0  0  0  0  0  0
  -28.3116  -26.3756   20.1637 O   0  0  0  0  0  0
  -26.5630  -34.8913   22.4671 O   0  0  0  0  0  0
  -23.5456  -32.1358   23.7278 O   0  0  0  0  0  0
  -29.8319  -21.1833   20.0724 C   0  0  0  0  0  0
  -29.3222  -19.9267   20.5931 C   0  0  0  0  0  0
  -28.9138  -22.2088   20.3135 C   0  0  0  0  0  0
  -32.1677  -16.7560   16.7145 C   0  0  0  0  0  0
  -25.6853  -21.0554   22.1245 C   0  0  0  0  0  0
  -30.0284  -18.5079   20.7393 C   0  0  0  0  0  0
  -28.9699  -23.7473   19.9078 C   0  0  0  0  0  0
  -31.5720  -17.0289   18.1003 C   0  0  0  0  0  0
  -26.6164  -22.0789   21.4476 C   0  0  0  0  0  0
  -29.2866  -17.0990   20.4314 C   0  0  0  0  0  0
  -30.3449  -16.1397   18.4010 C   0  0  0  0  0  0
  -28.0846  -24.9361   20.5529 C   0  0  0  0  0  0
  -28.1480  -20.1914   21.1509 N   0  0  0  0  0  0
  -27.8805  -21.5311   20.9634 N   0  0  0  0  0  0
  -30.0610  -15.9123   19.8388 N   0  0  0  0  0  0
  -31.4602  -12.5963   19.1229 H   0  0  0  0  0  0
  -30.3965  -11.5247   19.9959 H   0  0  0  0  0  0
  -29.7614  -11.5907   17.5819 H   0  0  0  0  0  0
  -29.6122  -13.3163   17.6083 H   0  0  0  0  0  0
  -27.8724  -11.2618   18.9509 H   0  0  0  0  0  0
  -27.3621  -12.4709   17.8031 H   0  0  0  0  0  0
  -27.6067  -14.2459   19.4130 H   0  0  0  0  0  0
  -28.7490  -12.2759   21.4494 H   0  0  0  0  0  0
  -28.4398  -13.9833   21.7144 H   0  0  0  0  0  0
  -25.2761   -9.5713   22.4776 H   0  0  0  0  0  0
  -24.0021   -7.4646   22.7462 H   0  0  0  0  0  0
  -21.0862   -8.8756   19.8955 H   0  0  0  0  0  0
  -22.3674  -10.9677   19.6180 H   0  0  0  0  0  0
  -21.1989   -7.6146   23.9707 H   0  0  0  0  0  0
  -21.1498   -6.0528   25.9080 H   0  0  0  0  0  0
  -22.0593   -2.7609   23.2839 H   0  0  0  0  0  0
  -22.4085  -11.9930   22.4873 H   0  0  0  0  0  0
  -21.1039  -13.1215   22.2542 H   0  0  0  0  0  0
  -24.6607  -15.8528   20.5466 H   0  0  0  0  0  0
  -26.2796  -15.6385   20.1175 H   0  0  0  0  0  0
  -26.7194  -32.5408   23.1082 H   0  0  0  0  0  0
  -25.0064  -33.9728   25.0409 H   0  0  0  0  0  0
  -22.7252  -31.3012   21.3943 H   0  0  0  0  0  0
  -23.3759  -35.9621   23.3295 H   0  0  0  0  0  0
  -24.3580  -36.8926   22.2065 H   0  0  0  0  0  0
  -23.7225  -37.6488   23.6669 H   0  0  0  0  0  0
  -26.1103  -31.5312   20.6057 H   0  0  0  0  0  0
  -26.8541  -30.8228   22.0072 H   0  0  0  0  0  0
  -28.1219  -28.9364   21.1988 H   0  0  0  0  0  0
  -25.9850  -25.9171   18.9748 H   0  0  0  0  0  0
  -23.9809  -27.3176   18.9803 H   0  0  0  0  0  0
  -23.7699  -30.5908   19.4022 H   0  0  0  0  0  0
  -22.7650  -29.2471   19.8510 H   0  0  0  0  0  0
  -25.1288  -36.1932   25.0824 H   0  0  0  0  0  0
  -20.9999  -28.3273   24.1385 H   0  0  0  0  0  0
  -20.5682  -26.2303   23.3622 H   0  0  0  0  0  0
  -21.6637  -26.7435   22.1191 H   0  0  0  0  0  0
  -19.6914  -25.6293   21.1245 H   0  0  0  0  0  0
  -19.6688  -27.3193   20.6755 H   0  0  0  0  0  0
  -17.4202  -26.6682   21.4029 H   0  0  0  0  0  0
  -18.0315  -26.0080   22.9023 H   0  0  0  0  0  0
  -19.7935  -30.7267   24.2281 H   0  0  0  0  0  0
  -17.5008  -31.6264   24.5155 H   0  0  0  0  0  0
  -15.5351  -30.2984   23.7648 H   0  0  0  0  0  0
  -15.8674  -28.0816   22.7077 H   0  0  0  0  0  0
  -24.5910  -30.7052   25.7764 H   0  0  0  0  0  0
  -24.8905  -32.2872   26.4871 H   0  0  0  0  0  0
  -25.8044  -30.8883   27.0215 H   0  0  0  0  0  0
  -26.2924  -29.6749   24.1232 H   0  0  0  0  0  0
  -27.4035  -29.7267   25.4720 H   0  0  0  0  0  0
  -27.8793  -30.4288   23.9431 H   0  0  0  0  0  0
  -27.2679  -33.3633   26.2047 H   0  0  0  0  0  0
  -28.3874  -32.6867   25.0315 H   0  0  0  0  0  0
  -28.0723  -31.8456   26.5418 H   0  0  0  0  0  0
  -28.2590  -38.0113   24.7519 H   0  0  0  0  0  0
  -28.1074  -36.2637   24.6262 H   0  0  0  0  0  0
  -27.2296  -37.1412   25.8871 H   0  0  0  0  0  0
  -20.9381  -29.8780   21.6866 H   0  0  0  0  0  0
  -26.0169  -38.2847   24.1415 H   0  0  0  0  0  0
  -30.7900  -21.3215   19.5915 H   0  0  0  0  0  0
  -33.0095  -17.4205   16.5116 H   0  0  0  0  0  0
  -31.4262  -16.9050   15.9290 H   0  0  0  0  0  0
  -32.5332  -15.7318   16.6382 H   0  0  0  0  0  0
  -24.7489  -21.5236   22.4268 H   0  0  0  0  0  0
  -26.1443  -20.6310   23.0185 H   0  0  0  0  0  0
  -25.4394  -20.2363   21.4498 H   0  0  0  0  0  0
  -30.3890  -18.4377   21.7657 H   0  0  0  0  0  0
  -30.9543  -18.5528   20.1766 H   0  0  0  0  0  0
  -28.8095  -23.7946   18.8307 H   0  0  0  0  0  0
  -30.0053  -24.0616   20.0334 H   0  0  0  0  0  0
  -31.2781  -18.0777   18.1242 H   0  0  0  0  0  0
  -32.3522  -16.8980   18.8521 H   0  0  0  0  0  0
  -26.8402  -22.8789   22.1547 H   0  0  0  0  0  0
  -26.0981  -22.5319   20.6012 H   0  0  0  0  0  0
  -28.4661  -17.3141   19.7457 H   0  0  0  0  0  0
  -28.7851  -16.7654   21.3396 H   0  0  0  0  0  0
  -30.5252  -15.1804   17.9221 H   0  0  0  0  0  0
  -29.4662  -16.5373   17.8897 H   0  0  0  0  0  0
  -28.2423  -24.9070   21.6317 H   0  0  0  0  0  0
  -27.0392  -24.6729   20.4187 H   0  0  0  0  0  0
  1 25  1  0  0  0
  1 30  2  0  0  0
  1 85  1  0  0  0
  2  3  1  0  0  0
  2 25  1  0  0  0
  2 86  1  0  0  0
  2 87  1  0  0  0
  3  4  1  0  0  0
  3 88  1  0  0  0
  3 89  1  0  0  0
  4  5  1  0  0  0
  4 90  1  0  0  0
  4 91  1  0  0  0
  5  6  1  0  0  0
  5 26  1  0  0  0
  5 92  1  0  0  0
  6 25  1  0  0  0
  6 93  1  0  0  0
  6 94  1  0  0  0
  7  8  2  0  0  0
  7 26  1  0  0  0
  7 29  1  0  0  0
  8  9  1  0  0  0
  8 22  1  0  0  0
  9 10  1  0  0  0
  9 27  2  0  0  0
 10 11  2  0  0  0
 10 15  1  0  0  0
 11 12  1  0  0  0
 11 95  1  0  0  0
 12 13  2  0  0  0
 12 96  1  0  0  0
 13 14  1  0  0  0
 13 31  1  0  0  0
 14 15  2  0  0  0
 14 97  1  0  0  0
 15 98  1  0  0  0
 16 17  2  0  0  0
 16 21  1  0  0  0
 16 31  1  0  0  0
 17 18  1  0  0  0
 17 99  1  0  0  0
 18 19  2  0  0  0
 18100  1  0  0  0
 19 20  1  0  0  0
 19 24  1  0  0  0
 20 21  2  0  0  0
 20101  1  0  0  0
 21 23  1  0  0  0
 22 28  1  0  0  0
 22 32  2  0  0  0
 26 27  1  0  0  0
 28102  1  0  0  0
 28103  1  0  0  0
 29104  1  0  0  0
 29105  1  0  0  0
 33 34  1  0  0  0
 33 66  1  0  0  0
 33 70  2  0  0  0
 34 36  1  0  0  0
 34 59  1  0  0  0
 34106  1  0  0  0
 35 44  2  0  0  0
 35 45  1  0  0  0
 35 68  1  0  0  0
 36 56  1  0  0  0
 36107  1  0  0  0
 37 39  1  0  0  0
 37 47  1  0  0  0
 37 66  1  0  0  0
 37108  1  0  0  0
 38 43  2  0  0  0
 38 46  1  0  0  0
 38 47  1  0  0  0
 39 64  1  0  0  0
 39 67  2  0  0  0
 40 52  1  0  0  0
 40 53  2  0  0  0
 40 58  1  0  0  0
 41109  1  0  0  0
 41110  1  0  0  0
 41111  1  0  0  0
 41 48  1  0  0  0
 42 43  1  0  0  0
 42 66  1  0  0  0
 42112  1  0  0  0
 42113  1  0  0  0
 43 44  1  0  0  0
 44114  1  0  0  0
 45 46  2  0  0  0
 45115  1  0  0  0
 46116  1  0  0  0
 47117  1  0  0  0
 47118  1  0  0  0
 48 56  1  0  0  0
 48 65  1  0  0  0
 48119  1  0  0  0
 49 50  1  0  0  0
 49 53  1  0  0  0
 49 64  1  0  0  0
 49120  1  0  0  0
 50 51  1  0  0  0
 50121  1  0  0  0
 50122  1  0  0  0
 51 52  1  0  0  0
 51123  1  0  0  0
 51124  1  0  0  0
 52125  1  0  0  0
 52126  1  0  0  0
 53 54  1  0  0  0
 54 55  2  0  0  0
 54127  1  0  0  0
 55 57  1  0  0  0
 55128  1  0  0  0
 56 69  2  0  0  0
 57 58  2  0  0  0
 57129  1  0  0  0
 58130  1  0  0  0
 59 60  1  0  0  0
 59 61  1  0  0  0
 59 62  1  0  0  0
 60131  1  0  0  0
 60132  1  0  0  0
 60133  1  0  0  0
 61134  1  0  0  0
 61135  1  0  0  0
 61136  1  0  0  0
 62137  1  0  0  0
 62138  1  0  0  0
 62139  1  0  0  0
 63 65  1  0  0  0
 63140  1  0  0  0
 63141  1  0  0  0
 63142  1  0  0  0
 64143  1  0  0  0
 65144  1  0  0  0
 68 82  1  0  0  0
 71 72  1  0  0  0
 71 73  2  0  0  0
 71145  1  0  0  0
 72 76  1  0  0  0
 72 83  2  0  0  0
 73 77  1  0  0  0
 73 84  1  0  0  0
 74 78  1  0  0  0
 74146  1  0  0  0
 74147  1  0  0  0
 74148  1  0  0  0
 75 79  1  0  0  0
 75149  1  0  0  0
 75150  1  0  0  0
 75151  1  0  0  0
 76 80  1  0  0  0
 76152  1  0  0  0
 76153  1  0  0  0
 77 82  1  0  0  0
 77154  1  0  0  0
 77155  1  0  0  0
 78 81  1  0  0  0
 78156  1  0  0  0
 78157  1  0  0  0
 79 84  1  0  0  0
 79158  1  0  0  0
 79159  1  0  0  0
 80 85  1  0  0  0
 80160  1  0  0  0
 80161  1  0  0  0
 81 85  1  0  0  0
 81162  1  0  0  0
 81163  1  0  0  0
 82164  1  0  0  0
 82165  1  0  0  0
 83 84  1  0  0  0
M  ISO  4   1 100  68 101  82 101  85 100
M  END
> <chiral flag>
0

> <version>
0

> <s_m_source_file>
/data/baiqing/PycharmProjects/Reinvent-master-3.2/result/LINK_invent/BTK/process_docking_weight1_custom_sum_contain_oxygen_bond_distance_aromatic_linkinvent_7_9_3/rearranged_h_0049.sdf

> <i_m_source_file_index>
66

> <r_mmod_Potential_Energy-OPLS-2005>
404.017059326172

> <r_mmod_Stretch_Energy-OPLS-2005>
125.601348876953

> <r_mmod_Bend_Energy-OPLS-2005>
193.276062011719

> <r_mmod_Torsional_Energy-OPLS-2005>
350.992065429688

> <r_mmod_Improper_Torsional_Energy-OPLS-2005>
29.1334190368652

> <r_mmod_Van_der_Waal_Energy-OPLS-2005>
116.249374389648

> <r_mmod_Electrostatic_Energy-OPLS-2005>
-318.311737060547

> <r_mmod_Solvation_Energy-OPLS-2005>
-197.707641601562

> <b_mmod_Minimization_Converged-OPLS-2005>
0

> <r_mmod_RMS_Derivative-OPLS-2005>
2.31045055389404

$$$$
68
                    3D
 Structure written by MMmdl.
150158  0  0  1  0            999 V2000
  -30.2889  -15.6812   20.3174 C   0  0  0  0  0  0
  -30.4254  -13.1097   19.5626 C   0  0  0  0  0  0
  -29.5598  -12.6772   18.3412 C   0  0  0  0  0  0
  -28.1337  -12.3120   18.7773 C   0  0  0  0  0  0
  -27.5977  -13.3188   19.8197 C   0  0  2  0  0  0
  -28.6067  -13.6632   20.9454 C   0  0  0  0  0  0
  -25.2312  -13.8301   20.5797 C   0  0  0  0  0  0
  -24.1711  -13.0436   20.9277 C   0  0  0  0  0  0
  -24.6424  -11.6952   20.8744 C   0  0  0  0  0  0
  -23.9126  -10.4300   21.0384 C   0  0  0  0  0  0
  -24.3657   -9.4209   21.9170 C   0  0  0  0  0  0
  -23.6318   -8.2250   22.0740 C   0  0  0  0  0  0
  -22.4297   -8.0292   21.3539 C   0  0  0  0  0  0
  -21.9946   -9.0264   20.4634 C   0  0  0  0  0  0
  -22.7285  -10.2135   20.3041 C   0  0  0  0  0  0
  -21.6863   -6.0739   22.5280 C   0  0  0  0  0  0
  -21.4024   -6.5641   23.8217 C   0  0  0  0  0  0
  -21.3659   -5.6788   24.9172 C   0  0  0  0  0  0
  -21.6047   -4.3058   24.7224 C   0  0  0  0  0  0
  -21.8813   -3.8149   23.4350 C   0  0  0  0  0  0
  -21.9193   -4.6961   22.3403 C   0  0  0  0  0  0
  -22.7716  -13.5153   21.1928 C   0  0  0  0  0  0
  -22.1655   -4.2153   21.0974 F   0  0  0  0  0  0
  -21.5628   -3.4533   25.7733 F   0  0  0  0  0  0
  -29.7880  -14.2969   20.3071 N   0  0  0  0  0  0
  -26.2781  -12.9664   20.3242 N   0  0  0  0  0  0
  -25.9379  -11.6722   20.5688 N   0  0  0  0  0  0
  -22.0378  -12.8136   22.0480 N   0  0  0  0  0  0
  -25.3882  -15.2048   20.4231 N   0  0  0  0  0  0
  -31.5073  -15.6239   20.0587 O   0  0  0  0  0  0
  -21.6648   -6.8894   21.4247 O   0  0  0  0  0  0
  -22.3383  -14.5444   20.6748 O   0  0  0  0  0  0
  -24.6857  -31.7961   23.1480 C   0  0  0  0  0  0
  -25.9429  -32.4443   23.8050 C   0  0  1  0  0  0
  -27.2332  -26.6704   20.2131 C   0  0  0  0  0  0
  -25.5991  -33.8269   24.1925 N   0  0  0  0  0  0
  -23.5144  -30.3939   21.5038 C   0  0  2  0  0  0
  -24.9748  -28.7293   20.1136 C   0  0  0  0  0  0
  -22.7770  -29.4286   22.4717 C   0  0  0  0  0  0
  -18.0337  -28.1423   22.8460 C   0  0  0  0  0  0
  -24.1497  -36.7137   23.2652 C   0  0  0  0  0  0
  -26.0948  -30.5173   21.4193 C   0  0  0  0  0  0
  -26.1615  -29.0789   20.7675 C   0  0  0  0  0  0
  -27.2710  -28.0766   20.7863 C   0  0  0  0  0  0
  -26.0165  -26.5412   19.4931 C   0  0  0  0  0  0
  -24.9435  -27.4879   19.4524 C   0  0  0  0  0  0
  -23.7707  -29.6874   20.1398 C   0  0  0  0  0  0
  -25.4150  -36.2868   24.0272 C   0  0  1  0  0  0
  -20.5973  -28.3773   23.1156 C   0  0  2  0  0  0
  -20.6808  -26.9440   22.5414 C   0  0  0  0  0  0
  -19.5787  -26.6372   21.5225 C   0  0  0  0  0  0
  -18.1961  -26.7949   22.1621 C   0  0  0  0  0  0
  -19.1603  -28.8926   23.2784 C   0  0  0  0  0  0
  -18.9508  -30.1515   23.8820 C   0  0  0  0  0  0
  -17.6498  -30.6610   24.0551 C   0  0  0  0  0  0
  -25.9130  -34.9261   23.4938 C   0  0  0  0  0  0
  -16.5389  -29.9089   23.6363 C   0  0  0  0  0  0
  -16.7311  -28.6515   23.0371 C   0  0  0  0  0  0
  -26.4596  -31.6489   25.0688 C   0  0  0  0  0  0
  -25.3658  -31.3826   26.1306 C   0  0  0  0  0  0
  -27.0530  -30.2815   24.6611 C   0  0  0  0  0  0
  -27.6031  -32.4358   25.7506 C   0  0  0  0  0  0
  -27.5561  -37.1727   24.8466 C   0  0  0  0  0  0
  -21.4415  -29.3014   22.3467 N   0  0  0  0  0  0
  -26.4266  -37.3643   23.9405 N   0  0  0  0  0  0
  -24.7887  -30.9357   22.0761 N   0  0  0  0  0  0
  -23.4194  -28.7907   23.3095 O   0  0  0  0  0  0
  -28.1839  -25.4338   20.3412 O   0  0  0  0  0  0
  -26.5776  -34.8847   22.4558 O   0  0  0  0  0  0
  -23.5868  -32.1055   23.6411 O   0  0  0  0  0  0
  -28.8283  -22.1045   20.6722 C   0  0  0  0  0  0
  -29.2229  -20.5219   20.7193 C   0  0  0  0  0  0
  -29.7496  -21.6195   22.6298 C   0  0  0  0  0  0
  -30.2639  -21.8637   24.0138 C   0  0  0  0  0  0
  -30.4160  -19.2430   22.5941 C   0  0  0  0  0  0
  -28.1026  -23.6937   19.9698 C   0  0  0  0  0  0
  -29.4366  -18.7954   19.9790 C   0  0  0  0  0  0
  -29.2102  -22.5797   21.9191 N   0  0  0  0  0  0
  -29.8110  -20.4360   22.0041 N   0  0  0  0  0  0
  -29.5262  -17.0500   20.4436 N   0  0  0  0  0  0
  -31.4187  -13.3690   19.1946 H   0  0  0  0  0  0
  -30.5912  -12.2679   20.2354 H   0  0  0  0  0  0
  -30.0242  -11.8372   17.8219 H   0  0  0  0  0  0
  -29.5198  -13.4990   17.6237 H   0  0  0  0  0  0
  -28.1654  -11.3147   19.2171 H   0  0  0  0  0  0
  -27.4702  -12.2488   17.9143 H   0  0  0  0  0  0
  -27.4590  -14.2378   19.2483 H   0  0  0  0  0  0
  -28.8675  -12.7838   21.5360 H   0  0  0  0  0  0
  -28.1639  -14.3780   21.6398 H   0  0  0  0  0  0
  -25.2794   -9.5679   22.4753 H   0  0  0  0  0  0
  -24.0012   -7.4642   22.7463 H   0  0  0  0  0  0
  -21.0876   -8.8795   19.8944 H   0  0  0  0  0  0
  -22.3746  -10.9672   19.6154 H   0  0  0  0  0  0
  -21.2022   -7.6152   23.9726 H   0  0  0  0  0  0
  -21.1485   -6.0514   25.9076 H   0  0  0  0  0  0
  -22.0595   -2.7615   23.2841 H   0  0  0  0  0  0
  -22.4014  -11.9823   22.4909 H   0  0  0  0  0  0
  -21.0973  -13.1123   22.2650 H   0  0  0  0  0  0
  -24.6154  -15.8507   20.5383 H   0  0  0  0  0  0
  -26.2264  -15.6499   20.0740 H   0  0  0  0  0  0
  -26.7500  -32.4904   23.0760 H   0  0  0  0  0  0
  -25.0053  -33.9314   25.0015 H   0  0  0  0  0  0
  -22.8399  -31.2305   21.3108 H   0  0  0  0  0  0
  -23.3777  -35.9452   23.3266 H   0  0  0  0  0  0
  -24.3555  -36.8853   22.2075 H   0  0  0  0  0  0
  -23.7246  -37.6294   23.6770 H   0  0  0  0  0  0
  -26.3002  -31.2435   20.6320 H   0  0  0  0  0  0
  -26.9432  -30.5856   22.0884 H   0  0  0  0  0  0
  -28.1593  -28.3466   21.3388 H   0  0  0  0  0  0
  -25.8428  -25.6022   18.9887 H   0  0  0  0  0  0
  -24.0488  -27.2142   18.9114 H   0  0  0  0  0  0
  -23.9431  -30.4480   19.3768 H   0  0  0  0  0  0
  -22.8757  -29.1527   19.8182 H   0  0  0  0  0  0
  -25.1365  -36.1623   25.0761 H   0  0  0  0  0  0
  -21.0034  -28.3391   24.1292 H   0  0  0  0  0  0
  -20.5685  -26.2387   23.3667 H   0  0  0  0  0  0
  -21.6665  -26.7401   22.1225 H   0  0  0  0  0  0
  -19.6945  -25.6264   21.1301 H   0  0  0  0  0  0
  -19.6735  -27.3145   20.6724 H   0  0  0  0  0  0
  -17.4240  -26.6696   21.4019 H   0  0  0  0  0  0
  -18.0346  -26.0113   22.9032 H   0  0  0  0  0  0
  -19.7982  -30.7355   24.2142 H   0  0  0  0  0  0
  -17.5050  -31.6280   24.5164 H   0  0  0  0  0  0
  -15.5385  -30.2962   23.7739 H   0  0  0  0  0  0
  -15.8709  -28.0804   22.7128 H   0  0  0  0  0  0
  -24.5851  -30.7162   25.7616 H   0  0  0  0  0  0
  -24.8848  -32.3061   26.4530 H   0  0  0  0  0  0
  -25.7838  -30.9119   27.0215 H   0  0  0  0  0  0
  -26.3254  -29.6422   24.1598 H   0  0  0  0  0  0
  -27.3933  -29.7266   25.5363 H   0  0  0  0  0  0
  -27.9245  -30.3924   24.0159 H   0  0  0  0  0  0
  -27.2551  -33.3727   26.1875 H   0  0  0  0  0  0
  -28.3956  -32.6819   25.0423 H   0  0  0  0  0  0
  -28.0582  -31.8638   26.5605 H   0  0  0  0  0  0
  -28.2545  -38.0052   24.7505 H   0  0  0  0  0  0
  -28.1090  -36.2569   24.6307 H   0  0  0  0  0  0
  -27.2272  -37.1377   25.8868 H   0  0  0  0  0  0
  -20.9716  -29.8624   21.6502 H   0  0  0  0  0  0
  -26.0086  -38.2686   24.1424 H   0  0  0  0  0  0
  -30.0044  -22.8691   24.3479 H   0  0  0  0  0  0
  -31.3495  -21.7660   24.0381 H   0  0  0  0  0  0
  -29.8270  -21.1559   24.7175 H   0  0  0  0  0  0
  -31.1782  -18.8377   21.9290 H   0  0  0  0  0  0
  -29.6484  -18.4932   22.7856 H   0  0  0  0  0  0
  -30.9148  -19.4580   23.5377 H   0  0  0  0  0  0
  -27.0253  -23.5233   19.9815 H   0  0  0  0  0  0
  -28.3353  -23.6736   18.9057 H   0  0  0  0  0  0
  -30.3487  -18.8862   19.3877 H   0  0  0  0  0  0
  -28.6641  -18.7557   19.2112 H   0  0  0  0  0  0
  -28.6102  -16.8050   20.7919 H   0  0  0  0  0  0
  1 25  1  0  0  0
  1 30  2  0  0  0
  1 80  1  0  0  0
  2  3  1  0  0  0
  2 25  1  0  0  0
  2 81  1  0  0  0
  2 82  1  0  0  0
  3  4  1  0  0  0
  3 83  1  0  0  0
  3 84  1  0  0  0
  4  5  1  0  0  0
  4 85  1  0  0  0
  4 86  1  0  0  0
  5  6  1  0  0  0
  5 26  1  0  0  0
  5 87  1  0  0  0
  6 25  1  0  0  0
  6 88  1  0  0  0
  6 89  1  0  0  0
  7  8  2  0  0  0
  7 26  1  0  0  0
  7 29  1  0  0  0
  8  9  1  0  0  0
  8 22  1  0  0  0
  9 10  1  0  0  0
  9 27  2  0  0  0
 10 11  2  0  0  0
 10 15  1  0  0  0
 11 12  1  0  0  0
 11 90  1  0  0  0
 12 13  2  0  0  0
 12 91  1  0  0  0
 13 14  1  0  0  0
 13 31  1  0  0  0
 14 15  2  0  0  0
 14 92  1  0  0  0
 15 93  1  0  0  0
 16 17  2  0  0  0
 16 21  1  0  0  0
 16 31  1  0  0  0
 17 18  1  0  0  0
 17 94  1  0  0  0
 18 19  2  0  0  0
 18 95  1  0  0  0
 19 20  1  0  0  0
 19 24  1  0  0  0
 20 21  2  0  0  0
 20 96  1  0  0  0
 21 23  1  0  0  0
 22 28  1  0  0  0
 22 32  2  0  0  0
 26 27  1  0  0  0
 28 97  1  0  0  0
 28 98  1  0  0  0
 29 99  1  0  0  0
 29100  1  0  0  0
 33 34  1  0  0  0
 33 66  1  0  0  0
 33 70  2  0  0  0
 34 36  1  0  0  0
 34 59  1  0  0  0
 34101  1  0  0  0
 35 44  2  0  0  0
 35 45  1  0  0  0
 35 68  1  0  0  0
 36 56  1  0  0  0
 36102  1  0  0  0
 37 39  1  0  0  0
 37 47  1  0  0  0
 37 66  1  0  0  0
 37103  1  0  0  0
 38 43  2  0  0  0
 38 46  1  0  0  0
 38 47  1  0  0  0
 39 64  1  0  0  0
 39 67  2  0  0  0
 40 52  1  0  0  0
 40 53  2  0  0  0
 40 58  1  0  0  0
 41104  1  0  0  0
 41105  1  0  0  0
 41106  1  0  0  0
 41 48  1  0  0  0
 42 43  1  0  0  0
 42 66  1  0  0  0
 42107  1  0  0  0
 42108  1  0  0  0
 43 44  1  0  0  0
 44109  1  0  0  0
 45 46  2  0  0  0
 45110  1  0  0  0
 46111  1  0  0  0
 47112  1  0  0  0
 47113  1  0  0  0
 48 56  1  0  0  0
 48 65  1  0  0  0
 48114  1  0  0  0
 49 50  1  0  0  0
 49 53  1  0  0  0
 49 64  1  0  0  0
 49115  1  0  0  0
 50 51  1  0  0  0
 50116  1  0  0  0
 50117  1  0  0  0
 51 52  1  0  0  0
 51118  1  0  0  0
 51119  1  0  0  0
 52120  1  0  0  0
 52121  1  0  0  0
 53 54  1  0  0  0
 54 55  2  0  0  0
 54122  1  0  0  0
 55 57  1  0  0  0
 55123  1  0  0  0
 56 69  2  0  0  0
 57 58  2  0  0  0
 57124  1  0  0  0
 58125  1  0  0  0
 59 60  1  0  0  0
 59 61  1  0  0  0
 59 62  1  0  0  0
 60126  1  0  0  0
 60127  1  0  0  0
 60128  1  0  0  0
 61129  1  0  0  0
 61130  1  0  0  0
 61131  1  0  0  0
 62132  1  0  0  0
 62133  1  0  0  0
 62134  1  0  0  0
 63 65  1  0  0  0
 63135  1  0  0  0
 63136  1  0  0  0
 63137  1  0  0  0
 64138  1  0  0  0
 65139  1  0  0  0
 68 76  1  0  0  0
 71 72  2  0  0  0
 71 76  1  0  0  0
 71 78  1  0  0  0
 72 77  1  0  0  0
 72 79  1  0  0  0
 73 74  1  0  0  0
 73 78  2  0  0  0
 73 79  1  0  0  0
 74140  1  0  0  0
 74141  1  0  0  0
 74142  1  0  0  0
 75 79  1  0  0  0
 75143  1  0  0  0
 75144  1  0  0  0
 75145  1  0  0  0
 76146  1  0  0  0
 76147  1  0  0  0
 77 80  1  0  0  0
 77148  1  0  0  0
 77149  1  0  0  0
 80150  1  0  0  0
M  ISO  4   1 100  68 101  76 101  80 100
M  END
> <chiral flag>
0

> <version>
0

> <s_m_source_file>
/data/baiqing/PycharmProjects/Reinvent-master-3.2/result/LINK_invent/BTK/process_docking_weight1_custom_sum_contain_oxygen_bond_distance_aromatic_linkinvent_7_9_3/rearranged_h_0049.sdf

> <i_m_source_file_index>
67

> <r_mmod_Potential_Energy-OPLS-2005>
2636.31884765625

> <r_mmod_Stretch_Energy-OPLS-2005>
1241.49255371094

> <r_mmod_Bend_Energy-OPLS-2005>
709.107116699219

> <r_mmod_Torsional_Energy-OPLS-2005>
213.479034423828

> <r_mmod_Improper_Torsional_Energy-OPLS-2005>
4.18395233154297

> <r_mmod_Van_der_Waal_Energy-OPLS-2005>
117.596351623535

> <r_mmod_Electrostatic_Energy-OPLS-2005>
-379.931610107422

> <r_mmod_Solvation_Energy-OPLS-2005>
-243.256576538086

> <b_mmod_Minimization_Converged-OPLS-2005>
0

> <r_mmod_RMS_Derivative-OPLS-2005>
2.3805775642395

$$$$
69
                    3D
 Structure written by MMmdl.
166174  0  0  1  0            999 V2000
  -30.7045  -14.4456   20.5671 C   0  0  0  0  0  0
  -30.4209  -12.2883   19.4164 C   0  0  0  0  0  0
  -29.4908  -12.5096   18.2052 C   0  0  0  0  0  0
  -28.0120  -12.3749   18.6202 C   0  0  0  0  0  0
  -27.6658  -13.2071   19.8834 C   0  0  2  0  0  0
  -28.7088  -12.9732   21.0014 C   0  0  0  0  0  0
  -25.2600  -13.8166   20.5679 C   0  0  0  0  0  0
  -24.1862  -13.0438   20.9189 C   0  0  0  0  0  0
  -24.6424  -11.6905   20.8769 C   0  0  0  0  0  0
  -23.9095  -10.4284   21.0428 C   0  0  0  0  0  0
  -24.3629   -9.4180   21.9188 C   0  0  0  0  0  0
  -23.6305   -8.2218   22.0743 C   0  0  0  0  0  0
  -22.4284   -8.0279   21.3549 C   0  0  0  0  0  0
  -21.9932   -9.0255   20.4644 C   0  0  0  0  0  0
  -22.7271  -10.2131   20.3062 C   0  0  0  0  0  0
  -21.6843   -6.0745   22.5291 C   0  0  0  0  0  0
  -21.3998   -6.5644   23.8225 C   0  0  0  0  0  0
  -21.3660   -5.6794   24.9192 C   0  0  0  0  0  0
  -21.6054   -4.3061   24.7235 C   0  0  0  0  0  0
  -21.8819   -3.8156   23.4352 C   0  0  0  0  0  0
  -21.9180   -4.6972   22.3411 C   0  0  0  0  0  0
  -22.7880  -13.5212   21.1864 C   0  0  0  0  0  0
  -22.1652   -4.2160   21.0987 F   0  0  0  0  0  0
  -21.5631   -3.4538   25.7742 F   0  0  0  0  0  0
  -30.0438  -13.2637   20.4510 N   0  0  0  0  0  0
  -26.3056  -12.9337   20.3453 N   0  0  0  0  0  0
  -25.9351  -11.6486   20.5822 N   0  0  0  0  0  0
  -22.0540  -12.8170   22.0427 N   0  0  0  0  0  0
  -25.4293  -15.1882   20.3975 N   0  0  0  0  0  0
  -31.8240  -14.6441   20.0871 O   0  0  0  0  0  0
  -21.6635   -6.8886   21.4254 O   0  0  0  0  0  0
  -22.3540  -14.5518   20.6726 O   0  0  0  0  0  0
  -24.6100  -31.8703   23.2136 C   0  0  0  0  0  0
  -25.9013  -32.4846   23.8401 C   0  0  1  0  0  0
  -27.2308  -27.4698   20.0886 C   0  0  0  0  0  0
  -25.5896  -33.8646   24.2352 N   0  0  0  0  0  0
  -23.3949  -30.4936   21.5556 C   0  0  2  0  0  0
  -24.8411  -28.9626   20.1176 C   0  0  0  0  0  0
  -22.7389  -29.4648   22.5034 C   0  0  0  0  0  0
  -18.0265  -28.1371   22.8480 C   0  0  0  0  0  0
  -24.1501  -36.7317   23.2631 C   0  0  0  0  0  0
  -25.9192  -30.8474   21.3598 C   0  0  0  0  0  0
  -25.9970  -29.4816   20.7145 C   0  0  0  0  0  0
  -27.1951  -28.7384   20.7049 C   0  0  0  0  0  0
  -26.0671  -26.9560   19.4852 C   0  0  0  0  0  0
  -24.8678  -27.6954   19.5064 C   0  0  0  0  0  0
  -23.6020  -29.8276   20.1697 C   0  0  0  0  0  0
  -25.4123  -36.3137   24.0339 C   0  0  1  0  0  0
  -20.5857  -28.3634   23.1363 C   0  0  2  0  0  0
  -20.6759  -26.9381   22.5438 C   0  0  0  0  0  0
  -19.5750  -26.6391   21.5221 C   0  0  0  0  0  0
  -18.1916  -26.7918   22.1620 C   0  0  0  0  0  0
  -19.1518  -28.8822   23.2912 C   0  0  0  0  0  0
  -18.9446  -30.1424   23.8912 C   0  0  0  0  0  0
  -17.6452  -30.6570   24.0563 C   0  0  0  0  0  0
  -25.9064  -34.9494   23.5163 C   0  0  0  0  0  0
  -16.5341  -29.9073   23.6322 C   0  0  0  0  0  0
  -16.7261  -28.6507   23.0324 C   0  0  0  0  0  0
  -26.4459  -31.6593   25.0701 C   0  0  0  0  0  0
  -25.3732  -31.3639   26.1450 C   0  0  0  0  0  0
  -27.0276  -30.3060   24.5995 C   0  0  0  0  0  0
  -27.6075  -32.4254   25.7456 C   0  0  0  0  0  0
  -27.5588  -37.1795   24.8461 C   0  0  0  0  0  0
  -21.4125  -29.2999   22.3772 N   0  0  0  0  0  0
  -26.4312  -37.3811   23.9410 N   0  0  0  0  0  0
  -24.6602  -31.0839   22.1022 N   0  0  0  0  0  0
  -23.4180  -28.8188   23.3060 O   0  0  0  0  0  0
  -28.3893  -26.7401   20.0470 O   0  0  0  0  0  0
  -26.5632  -34.8926   22.4716 O   0  0  0  0  0  0
  -23.5310  -32.1423   23.7560 O   0  0  0  0  0  0
  -26.6437  -21.9852   22.8391 C   0  0  0  0  0  0
  -26.2714  -20.6524   22.6377 C   0  0  0  0  0  0
  -27.8943  -22.3722   22.3496 C   0  0  0  0  0  0
  -28.2745  -20.2271   21.5918 C   0  0  0  0  0  0
  -24.9124  -20.1465   23.0702 C   0  0  0  0  0  0
  -28.4413  -19.1463   19.3382 C   0  0  0  0  0  0
  -30.5511  -19.8417   20.5269 C   0  0  0  0  0  0
  -28.3878  -23.8042   22.4715 C   0  0  0  0  0  0
  -28.0135  -24.6570   21.2488 C   0  0  0  0  0  0
  -29.2454  -17.8579   21.4011 C   0  0  0  0  0  0
  -30.2481  -16.8673   20.7503 C   0  0  0  0  0  0
  -28.6834  -26.0400   21.2527 C   0  0  0  0  0  0
  -29.1243  -19.2652   20.7218 C   0  0  0  0  0  0
  -27.0885  -19.7836   22.0121 N   0  0  0  0  0  0
  -28.6867  -21.4926   21.7109 N   0  0  0  0  0  0
  -29.9766  -15.4592   21.0625 N   0  0  0  0  0  0
  -31.4659  -12.3772   19.1145 H   0  0  0  0  0  0
  -30.3107  -11.2724   19.8008 H   0  0  0  0  0  0
  -29.7180  -11.7900   17.4177 H   0  0  0  0  0  0
  -29.6644  -13.4989   17.7772 H   0  0  0  0  0  0
  -27.8138  -11.3182   18.8055 H   0  0  0  0  0  0
  -27.3621  -12.6668   17.7952 H   0  0  0  0  0  0
  -27.7139  -14.2580   19.5946 H   0  0  0  0  0  0
  -28.6743  -11.9373   21.3427 H   0  0  0  0  0  0
  -28.4808  -13.5732   21.8828 H   0  0  0  0  0  0
  -25.2772   -9.5631   22.4769 H   0  0  0  0  0  0
  -24.0017   -7.4591   22.7441 H   0  0  0  0  0  0
  -21.0875   -8.8779   19.8929 H   0  0  0  0  0  0
  -22.3752  -10.9673   19.6171 H   0  0  0  0  0  0
  -21.1979   -7.6146   23.9737 H   0  0  0  0  0  0
  -21.1493   -6.0522   25.9095 H   0  0  0  0  0  0
  -22.0596   -2.7617   23.2856 H   0  0  0  0  0  0
  -22.4173  -11.9820   22.4791 H   0  0  0  0  0  0
  -21.1161  -13.1180   22.2661 H   0  0  0  0  0  0
  -24.6552  -15.8390   20.4729 H   0  0  0  0  0  0
  -26.2718  -15.6175   20.0360 H   0  0  0  0  0  0
  -26.7054  -32.5590   23.1142 H   0  0  0  0  0  0
  -25.0004  -33.9810   25.0468 H   0  0  0  0  0  0
  -22.6816  -31.3088   21.4173 H   0  0  0  0  0  0
  -23.3794  -35.9625   23.3328 H   0  0  0  0  0  0
  -24.3574  -36.8918   22.2038 H   0  0  0  0  0  0
  -23.7234  -37.6513   23.6635 H   0  0  0  0  0  0
  -26.0243  -31.6137   20.5895 H   0  0  0  0  0  0
  -26.8109  -30.9072   21.9703 H   0  0  0  0  0  0
  -28.0906  -29.1353   21.1619 H   0  0  0  0  0  0
  -26.0873  -25.9846   19.0089 H   0  0  0  0  0  0
  -23.9745  -27.2925   19.0482 H   0  0  0  0  0  0
  -23.7064  -30.6065   19.4143 H   0  0  0  0  0  0
  -22.7252  -29.2491   19.8719 H   0  0  0  0  0  0
  -25.1285  -36.2015   25.0831 H   0  0  0  0  0  0
  -20.9905  -28.3190   24.1504 H   0  0  0  0  0  0
  -20.5692  -26.2212   23.3596 H   0  0  0  0  0  0
  -21.6614  -26.7448   22.1192 H   0  0  0  0  0  0
  -19.6926  -25.6323   21.1202 H   0  0  0  0  0  0
  -19.6721  -27.3235   20.6783 H   0  0  0  0  0  0
  -17.4184  -26.6683   21.4018 H   0  0  0  0  0  0
  -18.0304  -26.0059   22.9016 H   0  0  0  0  0  0
  -19.7932  -30.7225   24.2286 H   0  0  0  0  0  0
  -17.5017  -31.6248   24.5162 H   0  0  0  0  0  0
  -15.5342  -30.2974   23.7652 H   0  0  0  0  0  0
  -15.8668  -28.0839   22.7006 H   0  0  0  0  0  0
  -24.5961  -30.6935   25.7771 H   0  0  0  0  0  0
  -24.8835  -32.2752   26.4881 H   0  0  0  0  0  0
  -25.8091  -30.8821   27.0210 H   0  0  0  0  0  0
  -26.2785  -29.6821   24.1111 H   0  0  0  0  0  0
  -27.4177  -29.7275   25.4375 H   0  0  0  0  0  0
  -27.8558  -30.4436   23.9043 H   0  0  0  0  0  0
  -27.2779  -33.3571   26.2042 H   0  0  0  0  0  0
  -28.3883  -32.6755   25.0274 H   0  0  0  0  0  0
  -28.0730  -31.8340   26.5342 H   0  0  0  0  0  0
  -28.2598  -38.0093   24.7520 H   0  0  0  0  0  0
  -28.1091  -36.2626   24.6295 H   0  0  0  0  0  0
  -27.2280  -37.1432   25.8850 H   0  0  0  0  0  0
  -20.9283  -29.8721   21.6997 H   0  0  0  0  0  0
  -26.0236  -38.2904   24.1413 H   0  0  0  0  0  0
  -25.9870  -22.6921   23.3307 H   0  0  0  0  0  0
  -24.5693  -20.6625   23.9693 H   0  0  0  0  0  0
  -24.9321  -19.0773   23.2793 H   0  0  0  0  0  0
  -24.1860  -20.3267   22.2781 H   0  0  0  0  0  0
  -28.3179  -20.1285   18.8817 H   0  0  0  0  0  0
  -27.4464  -18.7084   19.4256 H   0  0  0  0  0  0
  -29.0068  -18.5306   18.6389 H   0  0  0  0  0  0
  -30.5226  -20.8113   20.0297 H   0  0  0  0  0  0
  -31.1776  -19.2044   19.9066 H   0  0  0  0  0  0
  -31.0576  -19.9793   21.4838 H   0  0  0  0  0  0
  -29.4701  -23.7993   22.5985 H   0  0  0  0  0  0
  -27.9803  -24.2558   23.3785 H   0  0  0  0  0  0
  -26.9299  -24.7601   21.2111 H   0  0  0  0  0  0
  -28.3104  -24.1306   20.3408 H   0  0  0  0  0  0
  -29.5406  -17.9921   22.4432 H   0  0  0  0  0  0
  -28.2555  -17.4041   21.4309 H   0  0  0  0  0  0
  -31.2660  -17.1135   21.0589 H   0  0  0  0  0  0
  -30.2250  -16.9622   19.6636 H   0  0  0  0  0  0
  -29.7657  -25.9244   21.3073 H   0  0  0  0  0  0
  -28.3892  -26.6120   22.1346 H   0  0  0  0  0  0
  -29.0717  -15.2257   21.4406 H   0  0  0  0  0  0
  1 25  1  0  0  0
  1 30  2  0  0  0
  1 86  1  0  0  0
  2  3  1  0  0  0
  2 25  1  0  0  0
  2 87  1  0  0  0
  2 88  1  0  0  0
  3  4  1  0  0  0
  3 89  1  0  0  0
  3 90  1  0  0  0
  4  5  1  0  0  0
  4 91  1  0  0  0
  4 92  1  0  0  0
  5  6  1  0  0  0
  5 26  1  0  0  0
  5 93  1  0  0  0
  6 25  1  0  0  0
  6 94  1  0  0  0
  6 95  1  0  0  0
  7  8  2  0  0  0
  7 26  1  0  0  0
  7 29  1  0  0  0
  8  9  1  0  0  0
  8 22  1  0  0  0
  9 10  1  0  0  0
  9 27  2  0  0  0
 10 11  2  0  0  0
 10 15  1  0  0  0
 11 12  1  0  0  0
 11 96  1  0  0  0
 12 13  2  0  0  0
 12 97  1  0  0  0
 13 14  1  0  0  0
 13 31  1  0  0  0
 14 15  2  0  0  0
 14 98  1  0  0  0
 15 99  1  0  0  0
 16 17  2  0  0  0
 16 21  1  0  0  0
 16 31  1  0  0  0
 17 18  1  0  0  0
 17100  1  0  0  0
 18 19  2  0  0  0
 18101  1  0  0  0
 19 20  1  0  0  0
 19 24  1  0  0  0
 20 21  2  0  0  0
 20102  1  0  0  0
 21 23  1  0  0  0
 22 28  1  0  0  0
 22 32  2  0  0  0
 26 27  1  0  0  0
 28103  1  0  0  0
 28104  1  0  0  0
 29105  1  0  0  0
 29106  1  0  0  0
 33 34  1  0  0  0
 33 66  1  0  0  0
 33 70  2  0  0  0
 34 36  1  0  0  0
 34 59  1  0  0  0
 34107  1  0  0  0
 35 44  2  0  0  0
 35 45  1  0  0  0
 35 68  1  0  0  0
 36 56  1  0  0  0
 36108  1  0  0  0
 37 39  1  0  0  0
 37 47  1  0  0  0
 37 66  1  0  0  0
 37109  1  0  0  0
 38 43  2  0  0  0
 38 46  1  0  0  0
 38 47  1  0  0  0
 39 64  1  0  0  0
 39 67  2  0  0  0
 40 52  1  0  0  0
 40 53  2  0  0  0
 40 58  1  0  0  0
 41110  1  0  0  0
 41111  1  0  0  0
 41112  1  0  0  0
 41 48  1  0  0  0
 42 43  1  0  0  0
 42 66  1  0  0  0
 42113  1  0  0  0
 42114  1  0  0  0
 43 44  1  0  0  0
 44115  1  0  0  0
 45 46  2  0  0  0
 45116  1  0  0  0
 46117  1  0  0  0
 47118  1  0  0  0
 47119  1  0  0  0
 48 56  1  0  0  0
 48 65  1  0  0  0
 48120  1  0  0  0
 49 50  1  0  0  0
 49 53  1  0  0  0
 49 64  1  0  0  0
 49121  1  0  0  0
 50 51  1  0  0  0
 50122  1  0  0  0
 50123  1  0  0  0
 51 52  1  0  0  0
 51124  1  0  0  0
 51125  1  0  0  0
 52126  1  0  0  0
 52127  1  0  0  0
 53 54  1  0  0  0
 54 55  2  0  0  0
 54128  1  0  0  0
 55 57  1  0  0  0
 55129  1  0  0  0
 56 69  2  0  0  0
 57 58  2  0  0  0
 57130  1  0  0  0
 58131  1  0  0  0
 59 60  1  0  0  0
 59 61  1  0  0  0
 59 62  1  0  0  0
 60132  1  0  0  0
 60133  1  0  0  0
 60134  1  0  0  0
 61135  1  0  0  0
 61136  1  0  0  0
 61137  1  0  0  0
 62138  1  0  0  0
 62139  1  0  0  0
 62140  1  0  0  0
 63 65  1  0  0  0
 63141  1  0  0  0
 63142  1  0  0  0
 63143  1  0  0  0
 64144  1  0  0  0
 65145  1  0  0  0
 68 82  1  0  0  0
 71 72  2  0  0  0
 71 73  1  0  0  0
 71146  1  0  0  0
 72 75  1  0  0  0
 72 84  1  0  0  0
 73 78  1  0  0  0
 73 85  2  0  0  0
 74 83  1  0  0  0
 74 84  2  0  0  0
 74 85  1  0  0  0
 75147  1  0  0  0
 75148  1  0  0  0
 75149  1  0  0  0
 76150  1  0  0  0
 76151  1  0  0  0
 76152  1  0  0  0
 76 83  1  0  0  0
 77 83  1  0  0  0
 77153  1  0  0  0
 77154  1  0  0  0
 77155  1  0  0  0
 78 79  1  0  0  0
 78156  1  0  0  0
 78157  1  0  0  0
 79 82  1  0  0  0
 79158  1  0  0  0
 79159  1  0  0  0
 80 81  1  0  0  0
 80 83  1  0  0  0
 80160  1  0  0  0
 80161  1  0  0  0
 81 86  1  0  0  0
 81162  1  0  0  0
 81163  1  0  0  0
 82164  1  0  0  0
 82165  1  0  0  0
 86166  1  0  0  0
M  ISO  4   1 100  68 101  82 101  86 100
M  END
> <chiral flag>
0

> <version>
0

> <s_m_source_file>
/data/baiqing/PycharmProjects/Reinvent-master-3.2/result/LINK_invent/BTK/process_docking_weight1_custom_sum_contain_oxygen_bond_distance_aromatic_linkinvent_7_9_3/rearranged_h_0049.sdf

> <i_m_source_file_index>
68

> <r_mmod_Potential_Energy-OPLS-2005>
-557.31494140625

> <r_mmod_Stretch_Energy-OPLS-2005>
35.5484886169434

> <r_mmod_Bend_Energy-OPLS-2005>
93.2533645629883

> <r_mmod_Torsional_Energy-OPLS-2005>
216.774154663086

> <r_mmod_Improper_Torsional_Energy-OPLS-2005>
6.61194801330566

> <r_mmod_Van_der_Waal_Energy-OPLS-2005>
164.027755737305

> <r_mmod_Electrostatic_Energy-OPLS-2005>
-864.156127929688

> <r_mmod_Solvation_Energy-OPLS-2005>
-218.383163452148

> <b_mmod_Minimization_Converged-OPLS-2005>
0

> <r_mmod_RMS_Derivative-OPLS-2005>
3.12103009223938

$$$$
70
                    3D
 Structure written by MMmdl.
166174  0  0  1  0            999 V2000
  -30.7556  -14.3767   20.6772 C   0  0  0  0  0  0
  -30.4170  -12.2949   19.3920 C   0  0  0  0  0  0
  -29.4821  -12.5253   18.1899 C   0  0  0  0  0  0
  -28.0063  -12.3814   18.6076 C   0  0  0  0  0  0
  -27.6648  -13.2020   19.8788 C   0  0  2  0  0  0
  -28.7033  -12.9413   20.9913 C   0  0  0  0  0  0
  -25.2602  -13.8157   20.5675 C   0  0  0  0  0  0
  -24.1846  -13.0442   20.9171 C   0  0  0  0  0  0
  -24.6388  -11.6905   20.8729 C   0  0  0  0  0  0
  -23.9051  -10.4294   21.0403 C   0  0  0  0  0  0
  -24.3606   -9.4212   21.9184 C   0  0  0  0  0  0
  -23.6284   -8.2248   22.0756 C   0  0  0  0  0  0
  -22.4270   -8.0280   21.3544 C   0  0  0  0  0  0
  -21.9902   -9.0252   20.4645 C   0  0  0  0  0  0
  -22.7226  -10.2134   20.3053 C   0  0  0  0  0  0
  -21.6851   -6.0733   22.5280 C   0  0  0  0  0  0
  -21.4014   -6.5638   23.8214 C   0  0  0  0  0  0
  -21.3659   -5.6792   24.9176 C   0  0  0  0  0  0
  -21.6046   -4.3054   24.7227 C   0  0  0  0  0  0
  -21.8819   -3.8145   23.4348 C   0  0  0  0  0  0
  -21.9193   -4.6961   22.3403 C   0  0  0  0  0  0
  -22.7871  -13.5248   21.1837 C   0  0  0  0  0  0
  -22.1662   -4.2147   21.0981 F   0  0  0  0  0  0
  -21.5630   -3.4538   25.7739 F   0  0  0  0  0  0
  -30.0435  -13.2421   20.4525 N   0  0  0  0  0  0
  -26.3035  -12.9316   20.3373 N   0  0  0  0  0  0
  -25.9312  -11.6479   20.5756 N   0  0  0  0  0  0
  -22.0506  -12.8232   22.0385 N   0  0  0  0  0  0
  -25.4340  -15.1870   20.4070 N   0  0  0  0  0  0
  -31.7934  -14.6599   20.0716 O   0  0  0  0  0  0
  -21.6637   -6.8876   21.4240 O   0  0  0  0  0  0
  -22.3561  -14.5560   20.6696 O   0  0  0  0  0  0
  -24.6115  -31.8695   23.2126 C   0  0  0  0  0  0
  -25.9017  -32.4833   23.8411 C   0  0  1  0  0  0
  -27.2412  -27.4644   20.0751 C   0  0  0  0  0  0
  -25.5873  -33.8632   24.2336 N   0  0  0  0  0  0
  -23.3992  -30.4933   21.5520 C   0  0  2  0  0  0
  -24.8465  -28.9590   20.1173 C   0  0  0  0  0  0
  -22.7390  -29.4671   22.4998 C   0  0  0  0  0  0
  -18.0264  -28.1379   22.8493 C   0  0  0  0  0  0
  -24.1482  -36.7329   23.2640 C   0  0  0  0  0  0
  -25.9260  -30.8384   21.3654 C   0  0  0  0  0  0
  -26.0036  -29.4727   20.7169 C   0  0  0  0  0  0
  -27.2014  -28.7253   20.7072 C   0  0  0  0  0  0
  -26.0641  -26.9491   19.4903 C   0  0  0  0  0  0
  -24.8683  -27.6917   19.5082 C   0  0  0  0  0  0
  -23.6073  -29.8240   20.1667 C   0  0  0  0  0  0
  -25.4102  -36.3123   24.0341 C   0  0  1  0  0  0
  -20.5853  -28.3665   23.1324 C   0  0  2  0  0  0
  -20.6758  -26.9405   22.5418 C   0  0  0  0  0  0
  -19.5738  -26.6390   21.5213 C   0  0  0  0  0  0
  -18.1915  -26.7925   22.1624 C   0  0  0  0  0  0
  -19.1514  -28.8836   23.2907 C   0  0  0  0  0  0
  -18.9443  -30.1440   23.8917 C   0  0  0  0  0  0
  -17.6448  -30.6586   24.0569 C   0  0  0  0  0  0
  -25.9025  -34.9483   23.5139 C   0  0  0  0  0  0
  -16.5337  -29.9092   23.6326 C   0  0  0  0  0  0
  -16.7255  -28.6509   23.0346 C   0  0  0  0  0  0
  -26.4459  -31.6607   25.0731 C   0  0  0  0  0  0
  -25.3735  -31.3685   26.1479 C   0  0  0  0  0  0
  -27.0310  -30.3061   24.6100 C   0  0  0  0  0  0
  -27.6026  -32.4333   25.7494 C   0  0  0  0  0  0
  -27.5580  -37.1822   24.8463 C   0  0  0  0  0  0
  -21.4120  -29.3037   22.3732 N   0  0  0  0  0  0
  -26.4293  -37.3801   23.9406 N   0  0  0  0  0  0
  -24.6636  -31.0810   22.1019 N   0  0  0  0  0  0
  -23.4168  -28.8211   23.3035 O   0  0  0  0  0  0
  -28.4101  -26.7427   20.0540 O   0  0  0  0  0  0
  -26.5597  -34.8928   22.4706 O   0  0  0  0  0  0
  -23.5315  -32.1442   23.7529 O   0  0  0  0  0  0
  -30.1213  -23.4074   20.3478 C   0  0  0  0  0  0
  -28.9047  -22.0045   18.3797 C   0  0  0  0  0  0
  -29.7424  -24.0210   19.1288 C   0  0  0  0  0  0
  -29.3036  -21.3838   19.5873 C   0  0  0  0  0  0
  -26.3145  -19.3307   21.2015 C   0  0  0  0  0  0
  -30.0970  -25.4679   18.8164 C   0  0  0  0  0  0
  -29.1010  -19.8853   19.7957 C   0  0  0  0  0  0
  -30.5994  -17.6751   21.4792 C   0  0  0  0  0  0
  -30.9278  -16.3506   22.2047 C   0  0  0  0  0  0
  -27.5684  -20.0282   21.7666 C   0  0  0  0  0  0
  -29.1104  -18.0878   21.5462 C   0  0  0  0  0  0
  -28.8925  -26.4222   18.7498 C   0  0  0  0  0  0
  -29.1280  -23.3197   18.1432 N   0  0  0  0  0  0
  -29.9088  -22.0866   20.5820 N   0  0  0  0  0  0
  -30.2653  -15.1744   21.6366 N   0  0  0  0  0  0
  -28.8608  -19.5224   21.2186 N   0  3  1  0  0  0
  -31.4593  -12.3995   19.0855 H   0  0  0  0  0  0
  -30.3191  -11.2722   19.7595 H   0  0  0  0  0  0
  -29.7139  -11.8197   17.3908 H   0  0  0  0  0  0
  -29.6518  -13.5210   17.7775 H   0  0  0  0  0  0
  -27.8114  -11.3232   18.7856 H   0  0  0  0  0  0
  -27.3527  -12.6750   17.7855 H   0  0  0  0  0  0
  -27.7238  -14.2566   19.6085 H   0  0  0  0  0  0
  -28.6691  -11.8951   21.2995 H   0  0  0  0  0  0
  -28.4493  -13.5082   21.8870 H   0  0  0  0  0  0
  -25.2750   -9.5694   22.4757 H   0  0  0  0  0  0
  -23.9995   -7.4642   22.7478 H   0  0  0  0  0  0
  -21.0835   -8.8767   19.8949 H   0  0  0  0  0  0
  -22.3682  -10.9671   19.6160 H   0  0  0  0  0  0
  -21.2005   -7.6146   23.9716 H   0  0  0  0  0  0
  -21.1482   -6.0522   25.9081 H   0  0  0  0  0  0
  -22.0599   -2.7608   23.2850 H   0  0  0  0  0  0
  -22.4108  -11.9876   22.4752 H   0  0  0  0  0  0
  -21.1127  -13.1261   22.2595 H   0  0  0  0  0  0
  -24.6652  -15.8416   20.5008 H   0  0  0  0  0  0
  -26.2830  -15.6154   20.0621 H   0  0  0  0  0  0
  -26.7088  -32.5557   23.1180 H   0  0  0  0  0  0
  -24.9997  -33.9796   25.0462 H   0  0  0  0  0  0
  -22.6868  -31.3093   21.4138 H   0  0  0  0  0  0
  -23.3742  -35.9663   23.3302 H   0  0  0  0  0  0
  -24.3576  -36.8951   22.2054 H   0  0  0  0  0  0
  -23.7237  -37.6533   23.6661 H   0  0  0  0  0  0
  -26.0356  -31.6022   20.5944 H   0  0  0  0  0  0
  -26.8150  -30.8941   21.9819 H   0  0  0  0  0  0
  -28.0972  -29.1185   21.1675 H   0  0  0  0  0  0
  -26.0663  -25.9726   19.0272 H   0  0  0  0  0  0
  -23.9760  -27.2858   19.0514 H   0  0  0  0  0  0
  -23.7136  -30.5981   19.4061 H   0  0  0  0  0  0
  -22.7317  -29.2420   19.8730 H   0  0  0  0  0  0
  -25.1279  -36.1995   25.0836 H   0  0  0  0  0  0
  -20.9948  -28.3237   24.1445 H   0  0  0  0  0  0
  -20.5672  -26.2271   23.3602 H   0  0  0  0  0  0
  -21.6629  -26.7461   22.1206 H   0  0  0  0  0  0
  -19.6903  -25.6307   21.1229 H   0  0  0  0  0  0
  -19.6676  -27.3209   20.6751 H   0  0  0  0  0  0
  -17.4188  -26.6672   21.4024 H   0  0  0  0  0  0
  -18.0316  -26.0062   22.9017 H   0  0  0  0  0  0
  -19.7921  -30.7246   24.2298 H   0  0  0  0  0  0
  -17.5009  -31.6267   24.5168 H   0  0  0  0  0  0
  -15.5340  -30.3005   23.7642 H   0  0  0  0  0  0
  -15.8651  -28.0839   22.7053 H   0  0  0  0  0  0
  -24.5891  -30.7062   25.7800 H   0  0  0  0  0  0
  -24.8942  -32.2831   26.4977 H   0  0  0  0  0  0
  -25.8088  -30.8803   27.0206 H   0  0  0  0  0  0
  -26.2863  -29.6808   24.1162 H   0  0  0  0  0  0
  -27.4109  -29.7305   25.4552 H   0  0  0  0  0  0
  -27.8676  -30.4401   23.9238 H   0  0  0  0  0  0
  -27.2636  -33.3624   26.2084 H   0  0  0  0  0  0
  -28.3820  -32.6909   25.0312 H   0  0  0  0  0  0
  -28.0709  -31.8457   26.5400 H   0  0  0  0  0  0
  -28.2595  -38.0122   24.7515 H   0  0  0  0  0  0
  -28.1079  -36.2653   24.6287 H   0  0  0  0  0  0
  -27.2291  -37.1467   25.8863 H   0  0  0  0  0  0
  -20.9273  -29.8756   21.6954 H   0  0  0  0  0  0
  -26.0189  -38.2883   24.1399 H   0  0  0  0  0  0
  -30.6259  -23.9673   21.1226 H   0  0  0  0  0  0
  -28.4301  -21.4409   17.5893 H   0  0  0  0  0  0
  -25.4176  -19.7444   21.6626 H   0  0  0  0  0  0
  -26.3105  -18.2600   21.4054 H   0  0  0  0  0  0
  -26.2109  -19.4733   20.1266 H   0  0  0  0  0  0
  -30.6102  -25.4791   17.8542 H   0  0  0  0  0  0
  -30.8219  -25.8370   19.5422 H   0  0  0  0  0  0
  -30.0053  -19.4031   19.4284 H   0  0  0  0  0  0
  -28.2911  -19.5217   19.1632 H   0  0  0  0  0  0
  -30.9315  -17.6060   20.4432 H   0  0  0  0  0  0
  -31.2070  -18.4568   21.9377 H   0  0  0  0  0  0
  -30.6402  -16.4247   23.2546 H   0  0  0  0  0  0
  -32.0087  -16.1965   22.2093 H   0  0  0  0  0  0
  -27.5812  -19.9093   22.8512 H   0  0  0  0  0  0
  -27.4866  -21.1026   21.6001 H   0  0  0  0  0  0
  -28.7579  -17.9043   22.5623 H   0  0  0  0  0  0
  -28.5143  -17.4436   20.8985 H   0  0  0  0  0  0
  -28.1244  -25.9944   18.1055 H   0  0  0  0  0  0
  -29.2081  -27.3543   18.2791 H   0  0  0  0  0  0
  -29.4233  -14.8504   22.0903 H   0  0  0  0  0  0
  -29.5643  -20.0580   21.7087 H   0  0  0  0  0  0
  1 25  1  0  0  0
  1 30  2  0  0  0
  1 85  1  0  0  0
  2  3  1  0  0  0
  2 25  1  0  0  0
  2 87  1  0  0  0
  2 88  1  0  0  0
  3  4  1  0  0  0
  3 89  1  0  0  0
  3 90  1  0  0  0
  4  5  1  0  0  0
  4 91  1  0  0  0
  4 92  1  0  0  0
  5  6  1  0  0  0
  5 26  1  0  0  0
  5 93  1  0  0  0
  6 25  1  0  0  0
  6 94  1  0  0  0
  6 95  1  0  0  0
  7  8  2  0  0  0
  7 26  1  0  0  0
  7 29  1  0  0  0
  8  9  1  0  0  0
  8 22  1  0  0  0
  9 10  1  0  0  0
  9 27  2  0  0  0
 10 11  2  0  0  0
 10 15  1  0  0  0
 11 12  1  0  0  0
 11 96  1  0  0  0
 12 13  2  0  0  0
 12 97  1  0  0  0
 13 14  1  0  0  0
 13 31  1  0  0  0
 14 15  2  0  0  0
 14 98  1  0  0  0
 15 99  1  0  0  0
 16 17  2  0  0  0
 16 21  1  0  0  0
 16 31  1  0  0  0
 17 18  1  0  0  0
 17100  1  0  0  0
 18 19  2  0  0  0
 18101  1  0  0  0
 19 20  1  0  0  0
 19 24  1  0  0  0
 20 21  2  0  0  0
 20102  1  0  0  0
 21 23  1  0  0  0
 22 28  1  0  0  0
 22 32  2  0  0  0
 26 27  1  0  0  0
 28103  1  0  0  0
 28104  1  0  0  0
 29105  1  0  0  0
 29106  1  0  0  0
 33 34  1  0  0  0
 33 66  1  0  0  0
 33 70  2  0  0  0
 34 36  1  0  0  0
 34 59  1  0  0  0
 34107  1  0  0  0
 35 44  2  0  0  0
 35 45  1  0  0  0
 35 68  1  0  0  0
 36 56  1  0  0  0
 36108  1  0  0  0
 37 39  1  0  0  0
 37 47  1  0  0  0
 37 66  1  0  0  0
 37109  1  0  0  0
 38 43  2  0  0  0
 38 46  1  0  0  0
 38 47  1  0  0  0
 39 64  1  0  0  0
 39 67  2  0  0  0
 40 52  1  0  0  0
 40 53  2  0  0  0
 40 58  1  0  0  0
 41110  1  0  0  0
 41111  1  0  0  0
 41112  1  0  0  0
 41 48  1  0  0  0
 42 43  1  0  0  0
 42 66  1  0  0  0
 42113  1  0  0  0
 42114  1  0  0  0
 43 44  1  0  0  0
 44115  1  0  0  0
 45 46  2  0  0  0
 45116  1  0  0  0
 46117  1  0  0  0
 47118  1  0  0  0
 47119  1  0  0  0
 48 56  1  0  0  0
 48 65  1  0  0  0
 48120  1  0  0  0
 49 50  1  0  0  0
 49 53  1  0  0  0
 49 64  1  0  0  0
 49121  1  0  0  0
 50 51  1  0  0  0
 50122  1  0  0  0
 50123  1  0  0  0
 51 52  1  0  0  0
 51124  1  0  0  0
 51125  1  0  0  0
 52126  1  0  0  0
 52127  1  0  0  0
 53 54  1  0  0  0
 54 55  2  0  0  0
 54128  1  0  0  0
 55 57  1  0  0  0
 55129  1  0  0  0
 56 69  2  0  0  0
 57 58  2  0  0  0
 57130  1  0  0  0
 58131  1  0  0  0
 59 60  1  0  0  0
 59 61  1  0  0  0
 59 62  1  0  0  0
 60132  1  0  0  0
 60133  1  0  0  0
 60134  1  0  0  0
 61135  1  0  0  0
 61136  1  0  0  0
 61137  1  0  0  0
 62138  1  0  0  0
 62139  1  0  0  0
 62140  1  0  0  0
 63 65  1  0  0  0
 63141  1  0  0  0
 63142  1  0  0  0
 63143  1  0  0  0
 64144  1  0  0  0
 65145  1  0  0  0
 68 82  1  0  0  0
 71 73  2  0  0  0
 71 84  1  0  0  0
 71146  1  0  0  0
 72 74  1  0  0  0
 72 83  2  0  0  0
 72147  1  0  0  0
 73 76  1  0  0  0
 73 83  1  0  0  0
 74 77  1  0  0  0
 74 84  2  0  0  0
 75 80  1  0  0  0
 75148  1  0  0  0
 75149  1  0  0  0
 75150  1  0  0  0
 76 82  1  0  0  0
 76151  1  0  0  0
 76152  1  0  0  0
 77153  1  0  0  0
 77154  1  0  0  0
 77 86  1  0  0  0
 78 79  1  0  0  0
 78 81  1  0  0  0
 78155  1  0  0  0
 78156  1  0  0  0
 79 85  1  0  0  0
 79157  1  0  0  0
 79158  1  0  0  0
 80 86  1  0  0  0
 80159  1  0  0  0
 80160  1  0  0  0
 81 86  1  0  0  0
 81161  1  0  0  0
 81162  1  0  0  0
 82163  1  0  0  0
 82164  1  0  0  0
 85165  1  0  0  0
 86166  1  0  0  0
M  CHG  1  86   1
M  ISO  4   1 100  68 101  82 101  85 100
M  END
> <chiral flag>
0

> <version>
0

> <s_m_source_file>
/data/baiqing/PycharmProjects/Reinvent-master-3.2/result/LINK_invent/BTK/process_docking_weight1_custom_sum_contain_oxygen_bond_distance_aromatic_linkinvent_7_9_3/rearranged_h_0049.sdf

> <i_m_source_file_index>
69

> <r_mmod_Potential_Energy-OPLS-2005>
-176.213821411133

> <r_mmod_Stretch_Energy-OPLS-2005>
36.3179321289062

> <r_mmod_Bend_Energy-OPLS-2005>
95.2771377563477

> <r_mmod_Torsional_Energy-OPLS-2005>
215.028076171875

> <r_mmod_Improper_Torsional_Energy-OPLS-2005>
2.27673268318176

> <r_mmod_Van_der_Waal_Energy-OPLS-2005>
156.369369506836

> <r_mmod_Electrostatic_Energy-OPLS-2005>
-238.220428466797

> <r_mmod_Solvation_Energy-OPLS-2005>
-450.098236083984

> <b_mmod_Minimization_Converged-OPLS-2005>
0

> <r_mmod_RMS_Derivative-OPLS-2005>
0.583026528358459

$$$$
71
                    3D
 Structure written by MMmdl.
159167  0  0  1  0            999 V2000
  -30.6510  -14.5570   20.5216 C   0  0  0  0  0  0
  -30.4294  -12.3401   19.4449 C   0  0  0  0  0  0
  -29.5023  -12.4807   18.2178 C   0  0  0  0  0  0
  -28.0251  -12.3194   18.6301 C   0  0  0  0  0  0
  -27.6496  -13.2016   19.8493 C   0  0  2  0  0  0
  -28.6894  -13.0510   20.9812 C   0  0  0  0  0  0
  -25.2575  -13.8150   20.5654 C   0  0  0  0  0  0
  -24.1831  -13.0441   20.9165 C   0  0  0  0  0  0
  -24.6369  -11.6896   20.8720 C   0  0  0  0  0  0
  -23.9037  -10.4291   21.0404 C   0  0  0  0  0  0
  -24.3602   -9.4211   21.9185 C   0  0  0  0  0  0
  -23.6283   -8.2249   22.0758 C   0  0  0  0  0  0
  -22.4266   -8.0284   21.3541 C   0  0  0  0  0  0
  -21.9899   -9.0255   20.4641 C   0  0  0  0  0  0
  -22.7224  -10.2131   20.3052 C   0  0  0  0  0  0
  -21.6848   -6.0739   22.5287 C   0  0  0  0  0  0
  -21.4002   -6.5641   23.8224 C   0  0  0  0  0  0
  -21.3656   -5.6794   24.9182 C   0  0  0  0  0  0
  -21.6044   -4.3058   24.7229 C   0  0  0  0  0  0
  -21.8820   -3.8149   23.4354 C   0  0  0  0  0  0
  -21.9189   -4.6966   22.3407 C   0  0  0  0  0  0
  -22.7852  -13.5230   21.1848 C   0  0  0  0  0  0
  -22.1661   -4.2152   21.0986 F   0  0  0  0  0  0
  -21.5631   -3.4546   25.7745 F   0  0  0  0  0  0
  -30.0150  -13.3545   20.4292 N   0  0  0  0  0  0
  -26.2966  -12.9290   20.3231 N   0  0  0  0  0  0
  -25.9278  -11.6462   20.5710 N   0  0  0  0  0  0
  -22.0490  -12.8226   22.0388 N   0  0  0  0  0  0
  -25.4343  -15.1877   20.4095 N   0  0  0  0  0  0
  -31.8187  -14.6851   20.1395 O   0  0  0  0  0  0
  -21.6637   -6.8883   21.4250 O   0  0  0  0  0  0
  -22.3542  -14.5545   20.6707 O   0  0  0  0  0  0
  -24.6214  -31.8650   23.2039 C   0  0  0  0  0  0
  -25.9094  -32.4809   23.8342 C   0  0  1  0  0  0
  -27.2177  -27.3900   20.1187 C   0  0  0  0  0  0
  -25.5920  -33.8596   24.2292 N   0  0  0  0  0  0
  -23.4069  -30.4883   21.5492 C   0  0  2  0  0  0
  -24.8492  -28.9476   20.1130 C   0  0  0  0  0  0
  -22.7441  -29.4625   22.4966 C   0  0  0  0  0  0
  -18.0267  -28.1345   22.8478 C   0  0  0  0  0  0
  -24.1494  -36.7304   23.2635 C   0  0  0  0  0  0
  -25.9383  -30.8232   21.3561 C   0  0  0  0  0  0
  -26.0128  -29.4521   20.7078 C   0  0  0  0  0  0
  -27.2057  -28.6848   20.6965 C   0  0  0  0  0  0
  -26.0376  -26.9097   19.5136 C   0  0  0  0  0  0
  -24.8589  -27.6786   19.5075 C   0  0  0  0  0  0
  -23.6146  -29.8207   20.1636 C   0  0  0  0  0  0
  -25.4111  -36.3088   24.0325 C   0  0  1  0  0  0
  -20.5863  -28.3651   23.1289 C   0  0  2  0  0  0
  -20.6767  -26.9384   22.5398 C   0  0  0  0  0  0
  -19.5751  -26.6369   21.5187 C   0  0  0  0  0  0
  -18.1916  -26.7898   22.1590 C   0  0  0  0  0  0
  -19.1519  -28.8812   23.2882 C   0  0  0  0  0  0
  -18.9455  -30.1410   23.8904 C   0  0  0  0  0  0
  -17.6459  -30.6568   24.0536 C   0  0  0  0  0  0
  -25.9028  -34.9462   23.5096 C   0  0  0  0  0  0
  -16.5344  -29.9061   23.6313 C   0  0  0  0  0  0
  -16.7262  -28.6479   23.0331 C   0  0  0  0  0  0
  -26.4488  -31.6585   25.0679 C   0  0  0  0  0  0
  -25.3762  -31.3697   26.1433 C   0  0  0  0  0  0
  -27.0293  -30.3016   24.6032 C   0  0  0  0  0  0
  -27.6062  -32.4301   25.7447 C   0  0  0  0  0  0
  -27.5599  -37.1791   24.8450 C   0  0  0  0  0  0
  -21.4160  -29.3009   22.3697 N   0  0  0  0  0  0
  -26.4286  -37.3781   23.9421 N   0  0  0  0  0  0
  -24.6755  -31.0716   22.0964 N   0  0  0  0  0  0
  -23.4206  -28.8162   23.3010 O   0  0  0  0  0  0
  -28.3620  -26.6143   20.1307 O   0  0  0  0  0  0
  -26.5592  -34.8938   22.4655 O   0  0  0  0  0  0
  -23.5398  -32.1406   23.7428 O   0  0  0  0  0  0
  -29.6210  -19.5478   20.8205 C   0  0  0  0  0  0
  -28.0044  -19.9291   19.3308 C   0  0  0  0  0  0
  -28.7311  -20.5500   20.3049 C   0  0  0  0  0  0
  -29.4885  -18.3872   20.0838 C   0  0  0  0  0  0
  -29.9992  -16.1610   22.4170 C   0  0  0  0  0  0
  -27.9284  -17.7380   18.1548 C   0  0  0  0  0  0
  -30.3214  -17.1019   20.0664 C   0  0  0  0  0  0
  -27.9571  -24.1340   19.6485 C   0  0  0  0  0  0
  -28.2523  -25.2685   20.6735 C   0  0  0  0  0  0
  -28.8694  -22.8619   19.6850 C   0  0  0  0  0  0
  -29.8660  -15.8616   20.9135 C   0  0  1  0  0  0
  -28.4592  -18.6298   19.1728 N   0  0  0  0  0  0
  -28.5959  -21.8739   20.7038 O   0  0  0  0  0  0
  -31.4731  -12.4472   19.1445 H   0  0  0  0  0  0
  -30.3461  -11.3429   19.8802 H   0  0  0  0  0  0
  -29.7624  -11.7345   17.4659 H   0  0  0  0  0  0
  -29.6517  -13.4540   17.7483 H   0  0  0  0  0  0
  -27.8662  -11.2684   18.8746 H   0  0  0  0  0  0
  -27.3690  -12.5348   17.7855 H   0  0  0  0  0  0
  -27.6672  -14.2296   19.4909 H   0  0  0  0  0  0
  -28.6778  -12.0337   21.3760 H   0  0  0  0  0  0
  -28.4410  -13.6992   21.8216 H   0  0  0  0  0  0
  -25.2747   -9.5704   22.4751 H   0  0  0  0  0  0
  -24.0002   -7.4645   22.7475 H   0  0  0  0  0  0
  -21.0837   -8.8758   19.8943 H   0  0  0  0  0  0
  -22.3679  -10.9666   19.6154 H   0  0  0  0  0  0
  -21.1987   -7.6149   23.9723 H   0  0  0  0  0  0
  -21.1475   -6.0525   25.9085 H   0  0  0  0  0  0
  -22.0599   -2.7615   23.2853 H   0  0  0  0  0  0
  -22.4079  -11.9873   22.4776 H   0  0  0  0  0  0
  -21.1105  -13.1259   22.2581 H   0  0  0  0  0  0
  -24.6767  -15.8503   20.5348 H   0  0  0  0  0  0
  -26.3013  -15.6267   20.1284 H   0  0  0  0  0  0
  -26.7177  -32.5492   23.1115 H   0  0  0  0  0  0
  -25.0102  -33.9727   25.0460 H   0  0  0  0  0  0
  -22.6934  -31.3044   21.4101 H   0  0  0  0  0  0
  -23.3747  -35.9644   23.3247 H   0  0  0  0  0  0
  -24.3598  -36.8956   22.2051 H   0  0  0  0  0  0
  -23.7252  -37.6500   23.6670 H   0  0  0  0  0  0
  -26.0385  -31.5851   20.5827 H   0  0  0  0  0  0
  -26.8312  -30.8858   21.9663 H   0  0  0  0  0  0
  -28.1065  -29.0723   21.1502 H   0  0  0  0  0  0
  -26.0184  -25.9359   19.0470 H   0  0  0  0  0  0
  -23.9649  -27.2821   19.0451 H   0  0  0  0  0  0
  -23.7252  -30.5968   19.4036 H   0  0  0  0  0  0
  -22.7370  -29.2404   19.8729 H   0  0  0  0  0  0
  -25.1287  -36.1925   25.0804 H   0  0  0  0  0  0
  -20.9948  -28.3238   24.1412 H   0  0  0  0  0  0
  -20.5645  -26.2267   23.3589 H   0  0  0  0  0  0
  -21.6648  -26.7421   22.1202 H   0  0  0  0  0  0
  -19.6907  -25.6297   21.1181 H   0  0  0  0  0  0
  -19.6675  -27.3208   20.6738 H   0  0  0  0  0  0
  -17.4189  -26.6631   21.3983 H   0  0  0  0  0  0
  -18.0314  -26.0038   22.8980 H   0  0  0  0  0  0
  -19.7943  -30.7206   24.2284 H   0  0  0  0  0  0
  -17.5022  -31.6251   24.5154 H   0  0  0  0  0  0
  -15.5341  -30.2958   23.7649 H   0  0  0  0  0  0
  -15.8655  -28.0800   22.7037 H   0  0  0  0  0  0
  -24.5962  -30.6978   25.7806 H   0  0  0  0  0  0
  -24.8911  -32.2849   26.4843 H   0  0  0  0  0  0
  -25.8156  -30.8931   27.0204 H   0  0  0  0  0  0
  -26.2797  -29.6762   24.1160 H   0  0  0  0  0  0
  -27.4122  -29.7262   25.4464 H   0  0  0  0  0  0
  -27.8608  -30.4279   23.9103 H   0  0  0  0  0  0
  -27.2695  -33.3649   26.1943 H   0  0  0  0  0  0
  -28.3947  -32.6768   25.0328 H   0  0  0  0  0  0
  -28.0626  -31.8443   26.5434 H   0  0  0  0  0  0
  -28.2560  -38.0145   24.7580 H   0  0  0  0  0  0
  -28.1142  -36.2672   24.6166 H   0  0  0  0  0  0
  -27.2303  -37.1324   25.8844 H   0  0  0  0  0  0
  -20.9312  -29.8779   21.6965 H   0  0  0  0  0  0
  -26.0148  -38.2834   24.1488 H   0  0  0  0  0  0
  -30.3402  -19.6827   21.6171 H   0  0  0  0  0  0
  -27.2129  -20.3140   18.7021 H   0  0  0  0  0  0
  -29.2674  -16.9094   22.7223 H   0  0  0  0  0  0
  -30.9886  -16.5539   22.6544 H   0  0  0  0  0  0
  -29.8394  -15.2735   23.0299 H   0  0  0  0  0  0
  -26.8423  -17.6932   18.2376 H   0  0  0  0  0  0
  -28.3260  -16.7290   18.2412 H   0  0  0  0  0  0
  -28.1731  -18.1296   17.1670 H   0  0  0  0  0  0
  -31.3372  -17.3593   20.3699 H   0  0  0  0  0  0
  -30.4441  -16.7870   19.0292 H   0  0  0  0  0  0
  -28.0654  -24.5685   18.6547 H   0  0  0  0  0  0
  -26.9081  -23.8422   19.7105 H   0  0  0  0  0  0
  -29.1953  -25.0514   21.1765 H   0  0  0  0  0  0
  -27.5029  -25.2414   21.4673 H   0  0  0  0  0  0
  -29.9125  -23.1629   19.7750 H   0  0  0  0  0  0
  -28.7953  -22.4005   18.6985 H   0  0  0  0  0  0
  -28.8132  -15.7035   20.6903 H   0  0  0  0  0  0
  1 25  1  0  0  0
  1 30  2  0  0  0
  1 81  1  0  0  0
  2  3  1  0  0  0
  2 25  1  0  0  0
  2 84  1  0  0  0
  2 85  1  0  0  0
  3  4  1  0  0  0
  3 86  1  0  0  0
  3 87  1  0  0  0
  4  5  1  0  0  0
  4 88  1  0  0  0
  4 89  1  0  0  0
  5  6  1  0  0  0
  5 26  1  0  0  0
  5 90  1  0  0  0
  6 25  1  0  0  0
  6 91  1  0  0  0
  6 92  1  0  0  0
  7  8  2  0  0  0
  7 26  1  0  0  0
  7 29  1  0  0  0
  8  9  1  0  0  0
  8 22  1  0  0  0
  9 10  1  0  0  0
  9 27  2  0  0  0
 10 11  2  0  0  0
 10 15  1  0  0  0
 11 12  1  0  0  0
 11 93  1  0  0  0
 12 13  2  0  0  0
 12 94  1  0  0  0
 13 14  1  0  0  0
 13 31  1  0  0  0
 14 15  2  0  0  0
 14 95  1  0  0  0
 15 96  1  0  0  0
 16 17  2  0  0  0
 16 21  1  0  0  0
 16 31  1  0  0  0
 17 18  1  0  0  0
 17 97  1  0  0  0
 18 19  2  0  0  0
 18 98  1  0  0  0
 19 20  1  0  0  0
 19 24  1  0  0  0
 20 21  2  0  0  0
 20 99  1  0  0  0
 21 23  1  0  0  0
 22 28  1  0  0  0
 22 32  2  0  0  0
 26 27  1  0  0  0
 28100  1  0  0  0
 28101  1  0  0  0
 29102  1  0  0  0
 29103  1  0  0  0
 33 34  1  0  0  0
 33 66  1  0  0  0
 33 70  2  0  0  0
 34 36  1  0  0  0
 34 59  1  0  0  0
 34104  1  0  0  0
 35 44  2  0  0  0
 35 45  1  0  0  0
 35 68  1  0  0  0
 36 56  1  0  0  0
 36105  1  0  0  0
 37 39  1  0  0  0
 37 47  1  0  0  0
 37 66  1  0  0  0
 37106  1  0  0  0
 38 43  2  0  0  0
 38 46  1  0  0  0
 38 47  1  0  0  0
 39 64  1  0  0  0
 39 67  2  0  0  0
 40 52  1  0  0  0
 40 53  2  0  0  0
 40 58  1  0  0  0
 41107  1  0  0  0
 41108  1  0  0  0
 41109  1  0  0  0
 41 48  1  0  0  0
 42 43  1  0  0  0
 42 66  1  0  0  0
 42110  1  0  0  0
 42111  1  0  0  0
 43 44  1  0  0  0
 44112  1  0  0  0
 45 46  2  0  0  0
 45113  1  0  0  0
 46114  1  0  0  0
 47115  1  0  0  0
 47116  1  0  0  0
 48 56  1  0  0  0
 48 65  1  0  0  0
 48117  1  0  0  0
 49 50  1  0  0  0
 49 53  1  0  0  0
 49 64  1  0  0  0
 49118  1  0  0  0
 50 51  1  0  0  0
 50119  1  0  0  0
 50120  1  0  0  0
 51 52  1  0  0  0
 51121  1  0  0  0
 51122  1  0  0  0
 52123  1  0  0  0
 52124  1  0  0  0
 53 54  1  0  0  0
 54 55  2  0  0  0
 54125  1  0  0  0
 55 57  1  0  0  0
 55126  1  0  0  0
 56 69  2  0  0  0
 57 58  2  0  0  0
 57127  1  0  0  0
 58128  1  0  0  0
 59 60  1  0  0  0
 59 61  1  0  0  0
 59 62  1  0  0  0
 60129  1  0  0  0
 60130  1  0  0  0
 60131  1  0  0  0
 61132  1  0  0  0
 61133  1  0  0  0
 61134  1  0  0  0
 62135  1  0  0  0
 62136  1  0  0  0
 62137  1  0  0  0
 63 65  1  0  0  0
 63138  1  0  0  0
 63139  1  0  0  0
 63140  1  0  0  0
 64141  1  0  0  0
 65142  1  0  0  0
 68 79  1  0  0  0
 71 73  1  0  0  0
 71 74  2  0  0  0
 71143  1  0  0  0
 72 73  2  0  0  0
 72 82  1  0  0  0
 72144  1  0  0  0
 73 83  1  0  0  0
 74 77  1  0  0  0
 74 82  1  0  0  0
 75145  1  0  0  0
 75146  1  0  0  0
 75147  1  0  0  0
 75 81  1  0  0  0
 76 82  1  0  0  0
 76148  1  0  0  0
 76149  1  0  0  0
 76150  1  0  0  0
 77 81  1  0  0  0
 77151  1  0  0  0
 77152  1  0  0  0
 78 79  1  0  0  0
 78 80  1  0  0  0
 78153  1  0  0  0
 78154  1  0  0  0
 79155  1  0  0  0
 79156  1  0  0  0
 80 83  1  0  0  0
 80157  1  0  0  0
 80158  1  0  0  0
 81159  1  0  0  0
M  ISO  4   1 100  68 101  79 101  81 100
M  END
> <chiral flag>
0

> <version>
0

> <s_m_source_file>
/data/baiqing/PycharmProjects/Reinvent-master-3.2/result/LINK_invent/BTK/process_docking_weight1_custom_sum_contain_oxygen_bond_distance_aromatic_linkinvent_7_9_3/rearranged_h_0049.sdf

> <i_m_source_file_index>
70

> <r_mmod_Potential_Energy-OPLS-2005>
-6.93015289306641

> <r_mmod_Stretch_Energy-OPLS-2005>
47.579460144043

> <r_mmod_Bend_Energy-OPLS-2005>
110.163841247559

> <r_mmod_Torsional_Energy-OPLS-2005>
230.947967529297

> <r_mmod_Improper_Torsional_Energy-OPLS-2005>
4.39326572418213

> <r_mmod_Van_der_Waal_Energy-OPLS-2005>
118.463516235352

> <r_mmod_Electrostatic_Energy-OPLS-2005>
-342.215576171875

> <r_mmod_Solvation_Energy-OPLS-2005>
-202.391784667969

> <b_mmod_Minimization_Converged-OPLS-2005>
0

> <r_mmod_RMS_Derivative-OPLS-2005>
3.1849148273468

$$$$
72
                    3D
 Structure written by MMmdl.
165173  0  0  1  0            999 V2000
  -30.5674  -14.9036   20.4178 C   0  0  0  0  0  0
  -30.4316  -12.5538   19.4683 C   0  0  0  0  0  0
  -29.5178  -12.5480   18.2231 C   0  0  0  0  0  0
  -28.0397  -12.3619   18.6207 C   0  0  0  0  0  0
  -27.6339  -13.2575   19.8247 C   0  0  2  0  0  0
  -28.6828  -13.2424   20.9595 C   0  0  0  0  0  0
  -25.2479  -13.8255   20.5612 C   0  0  0  0  0  0
  -24.1806  -13.0466   20.9123 C   0  0  0  0  0  0
  -24.6445  -11.6961   20.8644 C   0  0  0  0  0  0
  -23.9136  -10.4322   21.0322 C   0  0  0  0  0  0
  -24.3701   -9.4259   21.9120 C   0  0  0  0  0  0
  -23.6373   -8.2284   22.0733 C   0  0  0  0  0  0
  -22.4347   -8.0296   21.3527 C   0  0  0  0  0  0
  -21.9994   -9.0261   20.4639 C   0  0  0  0  0  0
  -22.7293  -10.2147   20.2983 C   0  0  0  0  0  0
  -21.6906   -6.0755   22.5311 C   0  0  0  0  0  0
  -21.4049   -6.5643   23.8252 C   0  0  0  0  0  0
  -21.3642   -5.6768   24.9188 C   0  0  0  0  0  0
  -21.6026   -4.3029   24.7230 C   0  0  0  0  0  0
  -21.8825   -3.8145   23.4350 C   0  0  0  0  0  0
  -21.9228   -4.6972   22.3419 C   0  0  0  0  0  0
  -22.7822  -13.5221   21.1793 C   0  0  0  0  0  0
  -22.1669   -4.2147   21.0986 F   0  0  0  0  0  0
  -21.5615   -3.4496   25.7727 F   0  0  0  0  0  0
  -29.9606  -13.6491   20.3652 N   0  0  0  0  0  0
  -26.2910  -12.9502   20.3110 N   0  0  0  0  0  0
  -25.9376  -11.6621   20.5622 N   0  0  0  0  0  0
  -22.0518  -12.8207   22.0381 N   0  0  0  0  0  0
  -25.4118  -15.1990   20.4075 N   0  0  0  0  0  0
  -31.7733  -14.9656   20.1548 O   0  0  0  0  0  0
  -21.6693   -6.8899   21.4266 O   0  0  0  0  0  0
  -22.3463  -14.5505   20.6611 O   0  0  0  0  0  0
  -24.6461  -31.8431   23.1922 C   0  0  0  0  0  0
  -25.9225  -32.4686   23.8330 C   0  0  1  0  0  0
  -27.2281  -27.1293   20.1486 C   0  0  0  0  0  0
  -25.5944  -33.8491   24.2218 N   0  0  0  0  0  0
  -23.4517  -30.4615   21.5380 C   0  0  2  0  0  0
  -24.9005  -28.8828   20.1166 C   0  0  0  0  0  0
  -22.7586  -29.4558   22.4899 C   0  0  0  0  0  0
  -18.0324  -28.1415   22.8497 C   0  0  0  0  0  0
  -24.1486  -36.7257   23.2644 C   0  0  0  0  0  0
  -26.0084  -30.7116   21.3918 C   0  0  0  0  0  0
  -26.0789  -29.3224   20.7292 C   0  0  0  0  0  0
  -27.2405  -28.4615   20.7337 C   0  0  0  0  0  0
  -26.0209  -26.7906   19.4942 C   0  0  0  0  0  0
  -24.8807  -27.6269   19.4884 C   0  0  0  0  0  0
  -23.6782  -29.7892   20.1577 C   0  0  0  0  0  0
  -25.4117  -36.3038   24.0334 C   0  0  1  0  0  0
  -20.5930  -28.3749   23.1264 C   0  0  2  0  0  0
  -20.6821  -26.9447   22.5426 C   0  0  0  0  0  0
  -19.5789  -26.6368   21.5257 C   0  0  0  0  0  0
  -18.1947  -26.7966   22.1620 C   0  0  0  0  0  0
  -19.1574  -28.8919   23.2856 C   0  0  0  0  0  0
  -18.9478  -30.1507   23.8845 C   0  0  0  0  0  0
  -17.6461  -30.6590   24.0586 C   0  0  0  0  0  0
  -25.9075  -34.9399   23.5088 C   0  0  0  0  0  0
  -16.5360  -29.9082   23.6351 C   0  0  0  0  0  0
  -16.7292  -28.6524   23.0359 C   0  0  0  0  0  0
  -26.4488  -31.6584   25.0802 C   0  0  0  0  0  0
  -25.3650  -31.3815   26.1492 C   0  0  0  0  0  0
  -27.0370  -30.2973   24.6441 C   0  0  0  0  0  0
  -27.6010  -32.4374   25.7591 C   0  0  0  0  0  0
  -27.5597  -37.1790   24.8466 C   0  0  0  0  0  0
  -21.4293  -29.3056   22.3630 N   0  0  0  0  0  0
  -26.4295  -37.3748   23.9418 N   0  0  0  0  0  0
  -24.7220  -31.0282   22.0934 N   0  0  0  0  0  0
  -23.4218  -28.8107   23.3065 O   0  0  0  0  0  0
  -28.2965  -26.1594   20.2364 O   0  0  0  0  0  0
  -26.5664  -34.8903   22.4668 O   0  0  0  0  0  0
  -23.5573  -32.1291   23.7134 O   0  0  0  0  0  0
  -26.1399  -22.9612   16.6966 C   0  0  0  0  0  0
  -28.2522  -23.3016   16.4261 C   0  0  0  0  0  0
  -28.1051  -22.4333   17.4969 C   0  0  0  0  0  0
  -26.0676  -21.3391   18.5920 C   0  0  0  0  0  0
  -29.1541  -21.7840   18.3612 C   0  0  0  0  0  0
  -29.2303  -18.9580   20.2468 C   0  0  0  0  0  0
  -30.2155  -17.6252   20.5938 C   0  0  0  0  0  0
  -29.6438  -20.5890   20.5001 C   0  0  0  0  0  0
  -29.0555  -23.3227   20.3918 C   0  0  0  0  0  0
  -28.1420  -24.6519   19.8662 C   0  0  0  0  0  0
  -29.5221  -23.8503   15.8107 C   0  0  0  0  0  0
  -26.9859  -23.6483   15.9392 N   0  0  0  0  0  0
  -26.7327  -22.2082   17.6373 N   0  0  0  0  0  0
  -29.8058  -16.0953   20.5626 N   0  0  0  0  0  0
  -28.8940  -21.8306   19.8323 N   0  3  1  0  0  0
  -30.2779  -24.4510   16.7297 F   0  0  0  0  0  0
  -30.2535  -22.8796   15.2626 F   0  0  0  0  0  0
  -29.2697  -24.7482   14.8553 F   0  0  0  0  0  0
  -31.4669  -12.6906   19.1554 H   0  0  0  0  0  0
  -30.4000  -11.5832   19.9661 H   0  0  0  0  0  0
  -29.8308  -11.7716   17.5217 H   0  0  0  0  0  0
  -29.6260  -13.4988   17.6992 H   0  0  0  0  0  0
  -27.8769  -11.3101   18.8544 H   0  0  0  0  0  0
  -27.4064  -12.5799   17.7555 H   0  0  0  0  0  0
  -27.6102  -14.2749   19.4324 H   0  0  0  0  0  0
  -28.7550  -12.2483   21.4064 H   0  0  0  0  0  0
  -28.4044  -13.9300   21.7592 H   0  0  0  0  0  0
  -25.2871   -9.5732   22.4672 H   0  0  0  0  0  0
  -24.0090   -7.4704   22.7483 H   0  0  0  0  0  0
  -21.0908   -8.8759   19.9011 H   0  0  0  0  0  0
  -22.3734  -10.9640   19.6061 H   0  0  0  0  0  0
  -21.2052   -7.6144   23.9752 H   0  0  0  0  0  0
  -21.1431   -6.0483   25.9084 H   0  0  0  0  0  0
  -22.0634   -2.7608   23.2853 H   0  0  0  0  0  0
  -22.4191  -11.9873   22.4715 H   0  0  0  0  0  0
  -21.1128  -13.1184   22.2604 H   0  0  0  0  0  0
  -24.6405  -15.8466   20.5324 H   0  0  0  0  0  0
  -26.2553  -15.6516   20.0827 H   0  0  0  0  0  0
  -26.7328  -32.5302   23.1101 H   0  0  0  0  0  0
  -25.0115  -33.9609   25.0384 H   0  0  0  0  0  0
  -22.7542  -31.2873   21.3852 H   0  0  0  0  0  0
  -23.3767  -35.9577   23.3282 H   0  0  0  0  0  0
  -24.3580  -36.8894   22.2060 H   0  0  0  0  0  0
  -23.7186  -37.6426   23.6693 H   0  0  0  0  0  0
  -26.1741  -31.4677   20.6233 H   0  0  0  0  0  0
  -26.8736  -30.7595   22.0417 H   0  0  0  0  0  0
  -28.1365  -28.7920   21.2388 H   0  0  0  0  0  0
  -25.9097  -25.8362   19.0012 H   0  0  0  0  0  0
  -23.9732  -27.2841   19.0094 H   0  0  0  0  0  0
  -23.8181  -30.5610   19.4009 H   0  0  0  0  0  0
  -22.7926  -29.2317   19.8524 H   0  0  0  0  0  0
  -25.1288  -36.1897   25.0830 H   0  0  0  0  0  0
  -21.0011  -28.3363   24.1402 H   0  0  0  0  0  0
  -20.5774  -26.2350   23.3656 H   0  0  0  0  0  0
  -21.6676  -26.7493   22.1191 H   0  0  0  0  0  0
  -19.6950  -25.6263   21.1320 H   0  0  0  0  0  0
  -19.6751  -27.3164   20.6779 H   0  0  0  0  0  0
  -17.4256  -26.6756   21.3985 H   0  0  0  0  0  0
  -18.0299  -26.0077   22.8978 H   0  0  0  0  0  0
  -19.7934  -30.7373   24.2133 H   0  0  0  0  0  0
  -17.4998  -31.6246   24.5218 H   0  0  0  0  0  0
  -15.5350  -30.2962   23.7697 H   0  0  0  0  0  0
  -15.8691  -28.0815   22.7085 H   0  0  0  0  0  0
  -24.5833  -30.7145   25.7832 H   0  0  0  0  0  0
  -24.8817  -32.3007   26.4832 H   0  0  0  0  0  0
  -25.7893  -30.9049   27.0336 H   0  0  0  0  0  0
  -26.3026  -29.6692   24.1377 H   0  0  0  0  0  0
  -27.3867  -29.7292   25.5068 H   0  0  0  0  0  0
  -27.8981  -30.4188   23.9870 H   0  0  0  0  0  0
  -27.2587  -33.3692   26.2118 H   0  0  0  0  0  0
  -28.3844  -32.6894   25.0440 H   0  0  0  0  0  0
  -28.0664  -31.8538   26.5539 H   0  0  0  0  0  0
  -28.2573  -38.0124   24.7530 H   0  0  0  0  0  0
  -28.1116  -36.2637   24.6259 H   0  0  0  0  0  0
  -27.2337  -37.1415   25.8875 H   0  0  0  0  0  0
  -20.9543  -29.8702   21.6721 H   0  0  0  0  0  0
  -26.0172  -38.2835   24.1374 H   0  0  0  0  0  0
  -25.0653  -23.0041   16.5620 H   0  0  0  0  0  0
  -25.0205  -21.2088   18.3225 H   0  0  0  0  0  0
  -26.1115  -21.7787   19.5903 H   0  0  0  0  0  0
  -26.5365  -20.3546   18.5976 H   0  0  0  0  0  0
  -30.1347  -22.2221   18.1721 H   0  0  0  0  0  0
  -29.2498  -20.7512   18.0291 H   0  0  0  0  0  0
  -28.2937  -18.8015   20.7812 H   0  0  0  0  0  0
  -28.9553  -18.8501   19.1996 H   0  0  0  0  0  0
  -30.6065  -17.7930   21.5978 H   0  0  0  0  0  0
  -31.0897  -17.7071   19.9465 H   0  0  0  0  0  0
  -30.6928  -20.6975   20.2213 H   0  0  0  0  0  0
  -29.6330  -20.7562   21.5775 H   0  0  0  0  0  0
  -28.9188  -23.2627   21.4726 H   0  0  0  0  0  0
  -30.1054  -23.5838   20.2572 H   0  0  0  0  0  0
  -27.1112  -24.3687   20.0675 H   0  0  0  0  0  0
  -28.2309  -24.6796   18.7825 H   0  0  0  0  0  0
  -28.8292  -15.9130   20.7455 H   0  0  0  0  0  0
  -27.9179  -21.6117   19.9484 H   0  0  0  0  0  0
  1 25  1  0  0  0
  1 30  2  0  0  0
  1 84  1  0  0  0
  2  3  1  0  0  0
  2 25  1  0  0  0
  2 89  1  0  0  0
  2 90  1  0  0  0
  3  4  1  0  0  0
  3 91  1  0  0  0
  3 92  1  0  0  0
  4  5  1  0  0  0
  4 93  1  0  0  0
  4 94  1  0  0  0
  5  6  1  0  0  0
  5 26  1  0  0  0
  5 95  1  0  0  0
  6 25  1  0  0  0
  6 96  1  0  0  0
  6 97  1  0  0  0
  7  8  2  0  0  0
  7 26  1  0  0  0
  7 29  1  0  0  0
  8  9  1  0  0  0
  8 22  1  0  0  0
  9 10  1  0  0  0
  9 27  2  0  0  0
 10 11  2  0  0  0
 10 15  1  0  0  0
 11 12  1  0  0  0
 11 98  1  0  0  0
 12 13  2  0  0  0
 12 99  1  0  0  0
 13 14  1  0  0  0
 13 31  1  0  0  0
 14 15  2  0  0  0
 14100  1  0  0  0
 15101  1  0  0  0
 16 17  2  0  0  0
 16 21  1  0  0  0
 16 31  1  0  0  0
 17 18  1  0  0  0
 17102  1  0  0  0
 18 19  2  0  0  0
 18103  1  0  0  0
 19 20  1  0  0  0
 19 24  1  0  0  0
 20 21  2  0  0  0
 20104  1  0  0  0
 21 23  1  0  0  0
 22 28  1  0  0  0
 22 32  2  0  0  0
 26 27  1  0  0  0
 28105  1  0  0  0
 28106  1  0  0  0
 29107  1  0  0  0
 29108  1  0  0  0
 33 34  1  0  0  0
 33 66  1  0  0  0
 33 70  2  0  0  0
 34 36  1  0  0  0
 34 59  1  0  0  0
 34109  1  0  0  0
 35 44  2  0  0  0
 35 45  1  0  0  0
 35 68  1  0  0  0
 36 56  1  0  0  0
 36110  1  0  0  0
 37 39  1  0  0  0
 37 47  1  0  0  0
 37 66  1  0  0  0
 37111  1  0  0  0
 38 43  2  0  0  0
 38 46  1  0  0  0
 38 47  1  0  0  0
 39 64  1  0  0  0
 39 67  2  0  0  0
 40 52  1  0  0  0
 40 53  2  0  0  0
 40 58  1  0  0  0
 41112  1  0  0  0
 41113  1  0  0  0
 41114  1  0  0  0
 41 48  1  0  0  0
 42 43  1  0  0  0
 42 66  1  0  0  0
 42115  1  0  0  0
 42116  1  0  0  0
 43 44  1  0  0  0
 44117  1  0  0  0
 45 46  2  0  0  0
 45118  1  0  0  0
 46119  1  0  0  0
 47120  1  0  0  0
 47121  1  0  0  0
 48 56  1  0  0  0
 48 65  1  0  0  0
 48122  1  0  0  0
 49 50  1  0  0  0
 49 53  1  0  0  0
 49 64  1  0  0  0
 49123  1  0  0  0
 50 51  1  0  0  0
 50124  1  0  0  0
 50125  1  0  0  0
 51 52  1  0  0  0
 51126  1  0  0  0
 51127  1  0  0  0
 52128  1  0  0  0
 52129  1  0  0  0
 53 54  1  0  0  0
 54 55  2  0  0  0
 54130  1  0  0  0
 55 57  1  0  0  0
 55131  1  0  0  0
 56 69  2  0  0  0
 57 58  2  0  0  0
 57132  1  0  0  0
 58133  1  0  0  0
 59 60  1  0  0  0
 59 61  1  0  0  0
 59 62  1  0  0  0
 60134  1  0  0  0
 60135  1  0  0  0
 60136  1  0  0  0
 61137  1  0  0  0
 61138  1  0  0  0
 61139  1  0  0  0
 62140  1  0  0  0
 62141  1  0  0  0
 62142  1  0  0  0
 63 65  1  0  0  0
 63143  1  0  0  0
 63144  1  0  0  0
 63145  1  0  0  0
 64146  1  0  0  0
 65147  1  0  0  0
 68 80  1  0  0  0
 71 82  2  0  0  0
 71 83  1  0  0  0
 71148  1  0  0  0
 72 73  2  0  0  0
 72 81  1  0  0  0
 72 82  1  0  0  0
 73 75  1  0  0  0
 73 83  1  0  0  0
 74 83  1  0  0  0
 74149  1  0  0  0
 74150  1  0  0  0
 74151  1  0  0  0
 75152  1  0  0  0
 75153  1  0  0  0
 75 85  1  0  0  0
 76 77  1  0  0  0
 76 78  1  0  0  0
 76154  1  0  0  0
 76155  1  0  0  0
 77 84  1  0  0  0
 77156  1  0  0  0
 77157  1  0  0  0
 78 85  1  0  0  0
 78158  1  0  0  0
 78159  1  0  0  0
 79 80  1  0  0  0
 79 85  1  0  0  0
 79160  1  0  0  0
 79161  1  0  0  0
 80162  1  0  0  0
 80163  1  0  0  0
 81 86  1  0  0  0
 81 87  1  0  0  0
 81 88  1  0  0  0
 84164  1  0  0  0
 85165  1  0  0  0
M  CHG  1  85   1
M  ISO  4   1 100  68 101  80 101  84 100
M  END
> <chiral flag>
0

> <version>
0

> <s_m_source_file>
/data/baiqing/PycharmProjects/Reinvent-master-3.2/result/LINK_invent/BTK/process_docking_weight1_custom_sum_contain_oxygen_bond_distance_aromatic_linkinvent_7_9_3/rearranged_h_0049.sdf

> <i_m_source_file_index>
71

> <r_mmod_Potential_Energy-OPLS-2005>
419.049957275391

> <r_mmod_Stretch_Energy-OPLS-2005>
284.228240966797

> <r_mmod_Bend_Energy-OPLS-2005>
275.621612548828

> <r_mmod_Torsional_Energy-OPLS-2005>
214.291473388672

> <r_mmod_Improper_Torsional_Energy-OPLS-2005>
4.2265510559082

> <r_mmod_Van_der_Waal_Energy-OPLS-2005>
101.425956726074

> <r_mmod_Electrostatic_Energy-OPLS-2005>
-152.08415222168

> <r_mmod_Solvation_Energy-OPLS-2005>
-484.357147216797

> <b_mmod_Minimization_Converged-OPLS-2005>
0

> <r_mmod_RMS_Derivative-OPLS-2005>
5.56884622573853

$$$$
73
                    3D
 Structure written by MMmdl.
163171  0  0  1  0            999 V2000
  -30.7280  -14.4300   20.5828 C   0  0  0  0  0  0
  -30.4262  -12.2901   19.3999 C   0  0  0  0  0  0
  -29.4904  -12.5098   18.1933 C   0  0  0  0  0  0
  -28.0121  -12.3743   18.6121 C   0  0  0  0  0  0
  -27.6691  -13.2045   19.8781 C   0  0  2  0  0  0
  -28.7168  -12.9632   20.9897 C   0  0  0  0  0  0
  -25.2638  -13.8159   20.5691 C   0  0  0  0  0  0
  -24.1883  -13.0437   20.9183 C   0  0  0  0  0  0
  -24.6446  -11.6906   20.8752 C   0  0  0  0  0  0
  -23.9102  -10.4293   21.0421 C   0  0  0  0  0  0
  -24.3646   -9.4206   21.9202 C   0  0  0  0  0  0
  -23.6313   -8.2238   22.0763 C   0  0  0  0  0  0
  -22.4289   -8.0298   21.3548 C   0  0  0  0  0  0
  -21.9932   -9.0279   20.4651 C   0  0  0  0  0  0
  -22.7276  -10.2156   20.3066 C   0  0  0  0  0  0
  -21.6852   -6.0755   22.5296 C   0  0  0  0  0  0
  -21.4013   -6.5644   23.8229 C   0  0  0  0  0  0
  -21.3652   -5.6797   24.9189 C   0  0  0  0  0  0
  -21.6029   -4.3062   24.7226 C   0  0  0  0  0  0
  -21.8824   -3.8161   23.4347 C   0  0  0  0  0  0
  -21.9188   -4.6983   22.3412 C   0  0  0  0  0  0
  -22.7894  -13.5236   21.1839 C   0  0  0  0  0  0
  -22.1655   -4.2170   21.0983 F   0  0  0  0  0  0
  -21.5629   -3.4547   25.7739 F   0  0  0  0  0  0
  -30.0491  -13.2628   20.4337 N   0  0  0  0  0  0
  -26.3090  -12.9328   20.3413 N   0  0  0  0  0  0
  -25.9371  -11.6488   20.5788 N   0  0  0  0  0  0
  -22.0531  -12.8226   22.0396 N   0  0  0  0  0  0
  -25.4321  -15.1878   20.4120 N   0  0  0  0  0  0
  -31.8514  -14.6300   20.1154 O   0  0  0  0  0  0
  -21.6635   -6.8911   21.4260 O   0  0  0  0  0  0
  -22.3576  -14.5546   20.6701 O   0  0  0  0  0  0
  -24.6129  -31.8700   23.2069 C   0  0  0  0  0  0
  -25.9012  -32.4828   23.8388 C   0  0  1  0  0  0
  -27.2413  -27.4497   20.0952 C   0  0  0  0  0  0
  -25.5861  -33.8631   24.2303 N   0  0  0  0  0  0
  -23.4043  -30.4873   21.5507 C   0  0  2  0  0  0
  -24.8526  -28.9513   20.1164 C   0  0  0  0  0  0
  -22.7419  -29.4654   22.5023 C   0  0  0  0  0  0
  -18.0269  -28.1372   22.8496 C   0  0  0  0  0  0
  -24.1489  -36.7323   23.2633 C   0  0  0  0  0  0
  -25.9308  -30.8357   21.3603 C   0  0  0  0  0  0
  -26.0112  -29.4710   20.7114 C   0  0  0  0  0  0
  -27.2118  -28.7251   20.6975 C   0  0  0  0  0  0
  -26.0720  -26.9381   19.4956 C   0  0  0  0  0  0
  -24.8770  -27.6822   19.5083 C   0  0  0  0  0  0
  -23.6114  -29.8142   20.1669 C   0  0  0  0  0  0
  -25.4110  -36.3119   24.0318 C   0  0  1  0  0  0
  -20.5859  -28.3658   23.1333 C   0  0  2  0  0  0
  -20.6776  -26.9398   22.5434 C   0  0  0  0  0  0
  -19.5749  -26.6389   21.5224 C   0  0  0  0  0  0
  -18.1918  -26.7920   22.1617 C   0  0  0  0  0  0
  -19.1516  -28.8832   23.2906 C   0  0  0  0  0  0
  -18.9440  -30.1441   23.8920 C   0  0  0  0  0  0
  -17.6443  -30.6581   24.0565 C   0  0  0  0  0  0
  -25.9052  -34.9481   23.5129 C   0  0  0  0  0  0
  -16.5336  -29.9084   23.6335 C   0  0  0  0  0  0
  -16.7259  -28.6502   23.0362 C   0  0  0  0  0  0
  -26.4432  -31.6604   25.0736 C   0  0  0  0  0  0
  -25.3694  -31.3661   26.1495 C   0  0  0  0  0  0
  -27.0241  -30.3064   24.6062 C   0  0  0  0  0  0
  -27.6057  -32.4304   25.7439 C   0  0  0  0  0  0
  -27.5592  -37.1775   24.8438 C   0  0  0  0  0  0
  -21.4143  -29.3019   22.3739 N   0  0  0  0  0  0
  -26.4297  -37.3811   23.9413 N   0  0  0  0  0  0
  -24.6674  -31.0778   22.0977 N   0  0  0  0  0  0
  -23.4171  -28.8219   23.3084 O   0  0  0  0  0  0
  -28.3920  -26.6999   20.0915 O   0  0  0  0  0  0
  -26.5640  -34.8925   22.4707 O   0  0  0  0  0  0
  -23.5315  -32.1429   23.7458 O   0  0  0  0  0  0
  -30.5284  -21.1194   21.3455 C   0  0  0  0  0  0
  -29.3519  -21.7868   20.9525 C   0  0  0  0  0  0
  -28.4621  -21.0316   20.1623 C   0  0  0  0  0  0
  -29.8226  -19.1860   20.3466 C   0  0  0  0  0  0
  -27.3272  -22.0257   18.1161 C   0  0  0  0  0  0
  -30.9867  -17.5238   18.8280 C   0  0  0  0  0  0
  -29.0248  -23.1882   21.4913 C   0  0  0  0  0  0
  -27.1680  -21.5775   19.5797 C   0  0  0  0  0  0
  -29.1067  -24.3766   20.4998 C   0  0  0  0  0  0
  -30.3900  -16.8391   21.2677 C   0  0  0  0  0  0
  -28.3756  -25.6236   21.0348 C   0  0  0  0  0  0
  -30.0286  -17.6971   20.0208 C   0  0  1  0  0  0
  -30.7636  -19.8290   21.0304 N   0  0  0  0  0  0
  -28.7150  -19.7416   19.8693 N   0  0  0  0  0  0
  -30.0259  -15.4166   21.1543 N   0  0  0  0  0  0
  -31.4704  -12.3839   19.0946 H   0  0  0  0  0  0
  -30.3219  -11.2752   19.7857 H   0  0  0  0  0  0
  -29.7200  -11.7908   17.4054 H   0  0  0  0  0  0
  -29.6627  -13.4968   17.7638 H   0  0  0  0  0  0
  -27.8178  -11.3180   18.7990 H   0  0  0  0  0  0
  -27.3611  -12.6630   17.7859 H   0  0  0  0  0  0
  -27.7214  -14.2551   19.5936 H   0  0  0  0  0  0
  -28.6889  -11.9225   21.3153 H   0  0  0  0  0  0
  -28.4894  -13.5490   21.8820 H   0  0  0  0  0  0
  -25.2805   -9.5653   22.4772 H   0  0  0  0  0  0
  -24.0011   -7.4618   22.7478 H   0  0  0  0  0  0
  -21.0857   -8.8825   19.8951 H   0  0  0  0  0  0
  -22.3771  -10.9704   19.6163 H   0  0  0  0  0  0
  -21.2013   -7.6154   23.9746 H   0  0  0  0  0  0
  -21.1457   -6.0520   25.9094 H   0  0  0  0  0  0
  -22.0606   -2.7619   23.2847 H   0  0  0  0  0  0
  -22.4120  -11.9869   22.4763 H   0  0  0  0  0  0
  -21.1157  -13.1260   22.2616 H   0  0  0  0  0  0
  -24.6654  -15.8419   20.5276 H   0  0  0  0  0  0
  -26.2851  -15.6337   20.0940 H   0  0  0  0  0  0
  -26.7105  -32.5550   23.1176 H   0  0  0  0  0  0
  -24.9987  -33.9796   25.0444 H   0  0  0  0  0  0
  -22.6941  -31.3046   21.4066 H   0  0  0  0  0  0
  -23.3747  -35.9658   23.3297 H   0  0  0  0  0  0
  -24.3632  -36.8987   22.2066 H   0  0  0  0  0  0
  -23.7228  -37.6513   23.6678 H   0  0  0  0  0  0
  -26.0475  -31.5959   20.5871 H   0  0  0  0  0  0
  -26.8168  -30.8910   21.9800 H   0  0  0  0  0  0
  -28.1094  -29.1143   21.1572 H   0  0  0  0  0  0
  -26.0870  -25.9622   19.0296 H   0  0  0  0  0  0
  -23.9823  -27.2751   19.0534 H   0  0  0  0  0  0
  -23.7116  -30.5861   19.4024 H   0  0  0  0  0  0
  -22.7369  -29.2281   19.8786 H   0  0  0  0  0  0
  -25.1271  -36.2002   25.0816 H   0  0  0  0  0  0
  -20.9945  -28.3233   24.1445 H   0  0  0  0  0  0
  -20.5721  -26.2251   23.3613 H   0  0  0  0  0  0
  -21.6646  -26.7484   22.1183 H   0  0  0  0  0  0
  -19.6940  -25.6310   21.1236 H   0  0  0  0  0  0
  -19.6706  -27.3206   20.6760 H   0  0  0  0  0  0
  -17.4206  -26.6688   21.3999 H   0  0  0  0  0  0
  -18.0315  -26.0033   22.8995 H   0  0  0  0  0  0
  -19.7918  -30.7253   24.2304 H   0  0  0  0  0  0
  -17.4996  -31.6264   24.5151 H   0  0  0  0  0  0
  -15.5338  -30.2990   23.7645 H   0  0  0  0  0  0
  -15.8661  -28.0819   22.7089 H   0  0  0  0  0  0
  -24.5852  -30.7037   25.7784 H   0  0  0  0  0  0
  -24.8874  -32.2783   26.5026 H   0  0  0  0  0  0
  -25.8045  -30.8739   27.0210 H   0  0  0  0  0  0
  -26.2752  -29.6855   24.1136 H   0  0  0  0  0  0
  -27.4067  -29.7273   25.4468 H   0  0  0  0  0  0
  -27.8544  -30.4409   23.9137 H   0  0  0  0  0  0
  -27.2744  -33.3610   26.2038 H   0  0  0  0  0  0
  -28.3788  -32.6868   25.0188 H   0  0  0  0  0  0
  -28.0782  -31.8411   26.5305 H   0  0  0  0  0  0
  -28.2529  -38.0145   24.7646 H   0  0  0  0  0  0
  -28.1170  -36.2697   24.6075 H   0  0  0  0  0  0
  -27.2360  -37.1257   25.8849 H   0  0  0  0  0  0
  -20.9341  -29.8700   21.6900 H   0  0  0  0  0  0
  -26.0179  -38.2884   24.1472 H   0  0  0  0  0  0
  -31.2695  -21.6066   21.9617 H   0  0  0  0  0  0
  -26.3669  -22.3017   17.6836 H   0  0  0  0  0  0
  -27.7589  -21.2317   17.5079 H   0  0  0  0  0  0
  -27.9829  -22.8863   18.0148 H   0  0  0  0  0  0
  -30.6523  -18.1175   17.9774 H   0  0  0  0  0  0
  -31.0367  -16.4882   18.4960 H   0  0  0  0  0  0
  -31.9948  -17.8526   19.0816 H   0  0  0  0  0  0
  -29.6678  -23.4009   22.3470 H   0  0  0  0  0  0
  -28.0206  -23.1382   21.9133 H   0  0  0  0  0  0
  -26.7770  -22.3909   20.1895 H   0  0  0  0  0  0
  -26.4131  -20.7916   19.6341 H   0  0  0  0  0  0
  -28.6382  -24.1238   19.5572 H   0  0  0  0  0  0
  -30.1449  -24.6128   20.2666 H   0  0  0  0  0  0
  -29.8298  -17.2194   22.1221 H   0  0  0  0  0  0
  -31.4440  -16.9619   21.5257 H   0  0  0  0  0  0
  -28.8412  -25.9628   21.9605 H   0  0  0  0  0  0
  -27.3530  -25.3370   21.2927 H   0  0  0  0  0  0
  -29.0579  -17.3339   19.6807 H   0  0  0  0  0  0
  -29.1180  -15.1519   21.5053 H   0  0  0  0  0  0
  1 25  1  0  0  0
  1 30  2  0  0  0
  1 85  1  0  0  0
  2  3  1  0  0  0
  2 25  1  0  0  0
  2 86  1  0  0  0
  2 87  1  0  0  0
  3  4  1  0  0  0
  3 88  1  0  0  0
  3 89  1  0  0  0
  4  5  1  0  0  0
  4 90  1  0  0  0
  4 91  1  0  0  0
  5  6  1  0  0  0
  5 26  1  0  0  0
  5 92  1  0  0  0
  6 25  1  0  0  0
  6 93  1  0  0  0
  6 94  1  0  0  0
  7  8  2  0  0  0
  7 26  1  0  0  0
  7 29  1  0  0  0
  8  9  1  0  0  0
  8 22  1  0  0  0
  9 10  1  0  0  0
  9 27  2  0  0  0
 10 11  2  0  0  0
 10 15  1  0  0  0
 11 12  1  0  0  0
 11 95  1  0  0  0
 12 13  2  0  0  0
 12 96  1  0  0  0
 13 14  1  0  0  0
 13 31  1  0  0  0
 14 15  2  0  0  0
 14 97  1  0  0  0
 15 98  1  0  0  0
 16 17  2  0  0  0
 16 21  1  0  0  0
 16 31  1  0  0  0
 17 18  1  0  0  0
 17 99  1  0  0  0
 18 19  2  0  0  0
 18100  1  0  0  0
 19 20  1  0  0  0
 19 24  1  0  0  0
 20 21  2  0  0  0
 20101  1  0  0  0
 21 23  1  0  0  0
 22 28  1  0  0  0
 22 32  2  0  0  0
 26 27  1  0  0  0
 28102  1  0  0  0
 28103  1  0  0  0
 29104  1  0  0  0
 29105  1  0  0  0
 33 34  1  0  0  0
 33 66  1  0  0  0
 33 70  2  0  0  0
 34 36  1  0  0  0
 34 59  1  0  0  0
 34106  1  0  0  0
 35 44  2  0  0  0
 35 45  1  0  0  0
 35 68  1  0  0  0
 36 56  1  0  0  0
 36107  1  0  0  0
 37 39  1  0  0  0
 37 47  1  0  0  0
 37 66  1  0  0  0
 37108  1  0  0  0
 38 43  2  0  0  0
 38 46  1  0  0  0
 38 47  1  0  0  0
 39 64  1  0  0  0
 39 67  2  0  0  0
 40 52  1  0  0  0
 40 53  2  0  0  0
 40 58  1  0  0  0
 41109  1  0  0  0
 41110  1  0  0  0
 41111  1  0  0  0
 41 48  1  0  0  0
 42 43  1  0  0  0
 42 66  1  0  0  0
 42112  1  0  0  0
 42113  1  0  0  0
 43 44  1  0  0  0
 44114  1  0  0  0
 45 46  2  0  0  0
 45115  1  0  0  0
 46116  1  0  0  0
 47117  1  0  0  0
 47118  1  0  0  0
 48 56  1  0  0  0
 48 65  1  0  0  0
 48119  1  0  0  0
 49 50  1  0  0  0
 49 53  1  0  0  0
 49 64  1  0  0  0
 49120  1  0  0  0
 50 51  1  0  0  0
 50121  1  0  0  0
 50122  1  0  0  0
 51 52  1  0  0  0
 51123  1  0  0  0
 51124  1  0  0  0
 52125  1  0  0  0
 52126  1  0  0  0
 53 54  1  0  0  0
 54 55  2  0  0  0
 54127  1  0  0  0
 55 57  1  0  0  0
 55128  1  0  0  0
 56 69  2  0  0  0
 57 58  2  0  0  0
 57129  1  0  0  0
 58130  1  0  0  0
 59 60  1  0  0  0
 59 61  1  0  0  0
 59 62  1  0  0  0
 60131  1  0  0  0
 60132  1  0  0  0
 60133  1  0  0  0
 61134  1  0  0  0
 61135  1  0  0  0
 61136  1  0  0  0
 62137  1  0  0  0
 62138  1  0  0  0
 62139  1  0  0  0
 63 65  1  0  0  0
 63140  1  0  0  0
 63141  1  0  0  0
 63142  1  0  0  0
 64143  1  0  0  0
 65144  1  0  0  0
 68 81  1  0  0  0
 71 72  2  0  0  0
 71 83  1  0  0  0
 71145  1  0  0  0
 72 73  1  0  0  0
 72 77  1  0  0  0
 73 78  1  0  0  0
 73 84  2  0  0  0
 74 82  1  0  0  0
 74 83  2  0  0  0
 74 84  1  0  0  0
 75 78  1  0  0  0
 75146  1  0  0  0
 75147  1  0  0  0
 75148  1  0  0  0
 76149  1  0  0  0
 76150  1  0  0  0
 76151  1  0  0  0
 76 82  1  0  0  0
 77 79  1  0  0  0
 77152  1  0  0  0
 77153  1  0  0  0
 78154  1  0  0  0
 78155  1  0  0  0
 79 81  1  0  0  0
 79156  1  0  0  0
 79157  1  0  0  0
 80 82  1  0  0  0
 80 85  1  0  0  0
 80158  1  0  0  0
 80159  1  0  0  0
 81160  1  0  0  0
 81161  1  0  0  0
 82162  1  0  0  0
 85163  1  0  0  0
M  ISO  4   1 100  68 101  81 101  85 100
M  END
> <chiral flag>
0

> <version>
0

> <s_m_source_file>
/data/baiqing/PycharmProjects/Reinvent-master-3.2/result/LINK_invent/BTK/process_docking_weight1_custom_sum_contain_oxygen_bond_distance_aromatic_linkinvent_7_9_3/rearranged_h_0049.sdf

> <i_m_source_file_index>
72

> <r_mmod_Potential_Energy-OPLS-2005>
-460.304321289062

> <r_mmod_Stretch_Energy-OPLS-2005>
35.278434753418

> <r_mmod_Bend_Energy-OPLS-2005>
99.9360656738281

> <r_mmod_Torsional_Energy-OPLS-2005>
208.712966918945

> <r_mmod_Improper_Torsional_Energy-OPLS-2005>
3.67752814292908

> <r_mmod_Van_der_Waal_Energy-OPLS-2005>
154.26611328125

> <r_mmod_Electrostatic_Energy-OPLS-2005>
-749.140930175781

> <r_mmod_Solvation_Energy-OPLS-2005>
-223.252365112305

> <b_mmod_Minimization_Converged-OPLS-2005>
0

> <r_mmod_RMS_Derivative-OPLS-2005>
3.63349986076355

$$$$
74
                    3D
 Structure written by MMmdl.
163171  0  0  1  0            999 V2000
  -30.6795  -14.5393   20.6189 C   0  0  0  0  0  0
  -30.4253  -12.3643   19.4337 C   0  0  0  0  0  0
  -29.5027  -12.5368   18.2072 C   0  0  0  0  0  0
  -28.0247  -12.3654   18.6110 C   0  0  0  0  0  0
  -27.6552  -13.2077   19.8614 C   0  0  2  0  0  0
  -28.6854  -12.9949   20.9841 C   0  0  0  0  0  0
  -25.2540  -13.8145   20.5618 C   0  0  0  0  0  0
  -24.1818  -13.0404   20.9144 C   0  0  0  0  0  0
  -24.6388  -11.6879   20.8673 C   0  0  0  0  0  0
  -23.9041  -10.4275   21.0384 C   0  0  0  0  0  0
  -24.3596   -9.4195   21.9164 C   0  0  0  0  0  0
  -23.6286   -8.2225   22.0759 C   0  0  0  0  0  0
  -22.4265   -8.0252   21.3547 C   0  0  0  0  0  0
  -21.9886   -9.0221   20.4637 C   0  0  0  0  0  0
  -22.7207  -10.2102   20.3041 C   0  0  0  0  0  0
  -21.6851   -6.0726   22.5283 C   0  0  0  0  0  0
  -21.4005   -6.5633   23.8216 C   0  0  0  0  0  0
  -21.3676   -5.6780   24.9168 C   0  0  0  0  0  0
  -21.6060   -4.3052   24.7220 C   0  0  0  0  0  0
  -21.8839   -3.8136   23.4346 C   0  0  0  0  0  0
  -21.9184   -4.6951   22.3393 C   0  0  0  0  0  0
  -22.7851  -13.5200   21.1836 C   0  0  0  0  0  0
  -22.1657   -4.2147   21.0969 F   0  0  0  0  0  0
  -21.5639   -3.4531   25.7740 F   0  0  0  0  0  0
  -30.0117  -13.3518   20.4571 N   0  0  0  0  0  0
  -26.2975  -12.9322   20.3242 N   0  0  0  0  0  0
  -25.9300  -11.6474   20.5681 N   0  0  0  0  0  0
  -22.0500  -12.8177   22.0383 N   0  0  0  0  0  0
  -25.4251  -15.1872   20.4081 N   0  0  0  0  0  0
  -31.7792  -14.7144   20.0771 O   0  0  0  0  0  0
  -21.6632   -6.8854   21.4249 O   0  0  0  0  0  0
  -22.3515  -14.5503   20.6681 O   0  0  0  0  0  0
  -24.6228  -31.8621   23.2066 C   0  0  0  0  0  0
  -25.9091  -32.4798   23.8370 C   0  0  1  0  0  0
  -27.2175  -27.3410   20.1349 C   0  0  0  0  0  0
  -25.5927  -33.8591   24.2312 N   0  0  0  0  0  0
  -23.4152  -30.4864   21.5490 C   0  0  2  0  0  0
  -24.8606  -28.9348   20.1230 C   0  0  0  0  0  0
  -22.7457  -29.4617   22.4991 C   0  0  0  0  0  0
  -18.0287  -28.1349   22.8499 C   0  0  0  0  0  0
  -24.1481  -36.7291   23.2646 C   0  0  0  0  0  0
  -25.9521  -30.7962   21.3788 C   0  0  0  0  0  0
  -26.0249  -29.4193   20.7347 C   0  0  0  0  0  0
  -27.2094  -28.6300   20.7387 C   0  0  0  0  0  0
  -26.0409  -26.8954   19.5039 C   0  0  0  0  0  0
  -24.8663  -27.6722   19.5059 C   0  0  0  0  0  0
  -23.6317  -29.8186   20.1649 C   0  0  0  0  0  0
  -25.4110  -36.3084   24.0343 C   0  0  1  0  0  0
  -20.5882  -28.3641   23.1323 C   0  0  2  0  0  0
  -20.6775  -26.9365   22.5448 C   0  0  0  0  0  0
  -19.5761  -26.6351   21.5238 C   0  0  0  0  0  0
  -18.1928  -26.7889   22.1633 C   0  0  0  0  0  0
  -19.1541  -28.8816   23.2899 C   0  0  0  0  0  0
  -18.9466  -30.1426   23.8897 C   0  0  0  0  0  0
  -17.6466  -30.6568   24.0536 C   0  0  0  0  0  0
  -25.9048  -34.9456   23.5136 C   0  0  0  0  0  0
  -16.5355  -29.9055   23.6320 C   0  0  0  0  0  0
  -16.7278  -28.6467   23.0350 C   0  0  0  0  0  0
  -26.4491  -31.6593   25.0722 C   0  0  0  0  0  0
  -25.3745  -31.3671   26.1458 C   0  0  0  0  0  0
  -27.0348  -30.3029   24.6135 C   0  0  0  0  0  0
  -27.6061  -32.4299   25.7483 C   0  0  0  0  0  0
  -27.5574  -37.1808   24.8468 C   0  0  0  0  0  0
  -21.4178  -29.3022   22.3724 N   0  0  0  0  0  0
  -26.4288  -37.3789   23.9415 N   0  0  0  0  0  0
  -24.6809  -31.0655   22.1007 N   0  0  0  0  0  0
  -23.4204  -28.8137   23.3034 O   0  0  0  0  0  0
  -28.3390  -26.5310   20.0293 O   0  0  0  0  0  0
  -26.5595  -34.8922   22.4689 O   0  0  0  0  0  0
  -23.5404  -32.1413   23.7431 O   0  0  0  0  0  0
  -27.1338  -22.8382   19.3296 C   0  0  0  0  0  0
  -27.9905  -22.9649   20.4413 C   0  0  0  0  0  0
  -27.8582  -20.6638   18.9474 C   0  0  0  0  0  0
  -28.7138  -20.7263   20.0878 C   0  0  0  0  0  0
  -27.5489  -19.7298   16.5555 C   0  0  0  0  0  0
  -29.7193  -15.5485   22.6288 C   0  0  0  0  0  0
  -27.8591  -24.2325   21.3391 C   0  0  0  0  0  0
  -27.7381  -19.4269   18.0554 C   0  0  0  0  0  0
  -29.7090  -19.5651   20.4248 C   0  0  0  0  0  0
  -29.2034  -18.1147   20.8302 C   0  0  0  0  0  0
  -30.3297  -17.0064   20.7437 C   0  0  0  0  0  0
  -28.6593  -25.5771   21.0854 C   0  0  0  0  0  0
  -27.0515  -21.7007   18.6022 N   0  0  0  0  0  0
  -28.7726  -21.8929   20.8287 N   0  0  0  0  0  0
  -30.0131  -15.6042   21.1873 N   0  0  0  0  0  0
  -31.4699  -12.4765   19.1347 H   0  0  0  0  0  0
  -30.3457  -11.3496   19.8272 H   0  0  0  0  0  0
  -29.7674  -11.8204   17.4268 H   0  0  0  0  0  0
  -29.6506  -13.5254   17.7704 H   0  0  0  0  0  0
  -27.8469  -11.3082   18.8104 H   0  0  0  0  0  0
  -27.3752  -12.6284   17.7749 H   0  0  0  0  0  0
  -27.6989  -14.2557   19.5645 H   0  0  0  0  0  0
  -28.6850  -11.9503   21.2973 H   0  0  0  0  0  0
  -28.3886  -13.5541   21.8651 H   0  0  0  0  0  0
  -25.2761   -9.5687   22.4695 H   0  0  0  0  0  0
  -24.0019   -7.4620   22.7484 H   0  0  0  0  0  0
  -21.0823   -8.8739   19.8913 H   0  0  0  0  0  0
  -22.3693  -10.9634   19.6131 H   0  0  0  0  0  0
  -21.1998   -7.6142   23.9729 H   0  0  0  0  0  0
  -21.1490   -6.0497   25.9081 H   0  0  0  0  0  0
  -22.0602   -2.7603   23.2846 H   0  0  0  0  0  0
  -22.4134  -11.9843   22.4776 H   0  0  0  0  0  0
  -21.1147  -13.1237   22.2611 H   0  0  0  0  0  0
  -24.6596  -15.8409   20.5285 H   0  0  0  0  0  0
  -26.2852  -15.6299   20.1114 H   0  0  0  0  0  0
  -26.7147  -32.5477   23.1108 H   0  0  0  0  0  0
  -25.0078  -33.9738   25.0451 H   0  0  0  0  0  0
  -22.7068  -31.3057   21.4079 H   0  0  0  0  0  0
  -23.3747  -35.9619   23.3311 H   0  0  0  0  0  0
  -24.3570  -36.8910   22.2058 H   0  0  0  0  0  0
  -23.7228  -37.6497   23.6655 H   0  0  0  0  0  0
  -26.0838  -31.5515   20.6038 H   0  0  0  0  0  0
  -26.8337  -30.8472   22.0059 H   0  0  0  0  0  0
  -28.1117  -28.9997   21.2061 H   0  0  0  0  0  0
  -26.0339  -25.9381   19.0028 H   0  0  0  0  0  0
  -23.9733  -27.2988   19.0219 H   0  0  0  0  0  0
  -23.7557  -30.5960   19.4092 H   0  0  0  0  0  0
  -22.7482  -29.2546   19.8590 H   0  0  0  0  0  0
  -25.1286  -36.1946   25.0839 H   0  0  0  0  0  0
  -20.9972  -28.3182   24.1445 H   0  0  0  0  0  0
  -20.5644  -26.2238   23.3643 H   0  0  0  0  0  0
  -21.6649  -26.7372   22.1264 H   0  0  0  0  0  0
  -19.6924  -25.6259   21.1271 H   0  0  0  0  0  0
  -19.6722  -27.3158   20.6766 H   0  0  0  0  0  0
  -17.4203  -26.6626   21.4022 H   0  0  0  0  0  0
  -18.0328  -26.0032   22.9038 H   0  0  0  0  0  0
  -19.7941  -30.7249   24.2256 H   0  0  0  0  0  0
  -17.5014  -31.6264   24.5100 H   0  0  0  0  0  0
  -15.5347  -30.2950   23.7658 H   0  0  0  0  0  0
  -15.8670  -28.0791   22.7074 H   0  0  0  0  0  0
  -24.5952  -30.6987   25.7776 H   0  0  0  0  0  0
  -24.8902  -32.2811   26.4895 H   0  0  0  0  0  0
  -25.8117  -30.8845   27.0213 H   0  0  0  0  0  0
  -26.2920  -29.6767   24.1171 H   0  0  0  0  0  0
  -27.4097  -29.7279   25.4619 H   0  0  0  0  0  0
  -27.8766  -30.4346   23.9327 H   0  0  0  0  0  0
  -27.2694  -33.3604   26.2056 H   0  0  0  0  0  0
  -28.3872  -32.6846   25.0305 H   0  0  0  0  0  0
  -28.0711  -31.8409   26.5399 H   0  0  0  0  0  0
  -28.2589  -38.0100   24.7523 H   0  0  0  0  0  0
  -28.1073  -36.2647   24.6284 H   0  0  0  0  0  0
  -27.2295  -37.1439   25.8867 H   0  0  0  0  0  0
  -20.9317  -29.8787   21.7002 H   0  0  0  0  0  0
  -26.0170  -38.2871   24.1403 H   0  0  0  0  0  0
  -26.4563  -23.6350   19.0582 H   0  0  0  0  0  0
  -27.5450  -18.8092   15.9679 H   0  0  0  0  0  0
  -28.3507  -20.3639   16.1749 H   0  0  0  0  0  0
  -26.5964  -20.2314   16.3707 H   0  0  0  0  0  0
  -30.2447  -16.3277   23.1778 H   0  0  0  0  0  0
  -30.0190  -14.6014   23.0818 H   0  0  0  0  0  0
  -28.6523  -15.6757   22.8121 H   0  0  0  0  0  0
  -28.1408  -23.9034   22.3400 H   0  0  0  0  0  0
  -26.8007  -24.4770   21.4149 H   0  0  0  0  0  0
  -26.9107  -18.8123   18.4162 H   0  0  0  0  0  0
  -28.6396  -18.8205   18.1398 H   0  0  0  0  0  0
  -30.3932  -19.9108   21.1983 H   0  0  0  0  0  0
  -30.3297  -19.4608   19.5344 H   0  0  0  0  0  0
  -28.3842  -17.8033   20.1827 H   0  0  0  0  0  0
  -28.7837  -18.1494   21.8373 H   0  0  0  0  0  0
  -31.2117  -17.3473   21.2924 H   0  0  0  0  0  0
  -30.6477  -16.9616   19.7008 H   0  0  0  0  0  0
  -29.7127  -25.3202   20.9788 H   0  0  0  0  0  0
  -28.6101  -26.1525   22.0113 H   0  0  0  0  0  0
  1 25  1  0  0  0
  1 30  2  0  0  0
  1 85  1  0  0  0
  2  3  1  0  0  0
  2 25  1  0  0  0
  2 86  1  0  0  0
  2 87  1  0  0  0
  3  4  1  0  0  0
  3 88  1  0  0  0
  3 89  1  0  0  0
  4  5  1  0  0  0
  4 90  1  0  0  0
  4 91  1  0  0  0
  5  6  1  0  0  0
  5 26  1  0  0  0
  5 92  1  0  0  0
  6 25  1  0  0  0
  6 93  1  0  0  0
  6 94  1  0  0  0
  7  8  2  0  0  0
  7 26  1  0  0  0
  7 29  1  0  0  0
  8  9  1  0  0  0
  8 22  1  0  0  0
  9 10  1  0  0  0
  9 27  2  0  0  0
 10 11  2  0  0  0
 10 15  1  0  0  0
 11 12  1  0  0  0
 11 95  1  0  0  0
 12 13  2  0  0  0
 12 96  1  0  0  0
 13 14  1  0  0  0
 13 31  1  0  0  0
 14 15  2  0  0  0
 14 97  1  0  0  0
 15 98  1  0  0  0
 16 17  2  0  0  0
 16 21  1  0  0  0
 16 31  1  0  0  0
 17 18  1  0  0  0
 17 99  1  0  0  0
 18 19  2  0  0  0
 18100  1  0  0  0
 19 20  1  0  0  0
 19 24  1  0  0  0
 20 21  2  0  0  0
 20101  1  0  0  0
 21 23  1  0  0  0
 22 28  1  0  0  0
 22 32  2  0  0  0
 26 27  1  0  0  0
 28102  1  0  0  0
 28103  1  0  0  0
 29104  1  0  0  0
 29105  1  0  0  0
 33 34  1  0  0  0
 33 66  1  0  0  0
 33 70  2  0  0  0
 34 36  1  0  0  0
 34 59  1  0  0  0
 34106  1  0  0  0
 35 44  2  0  0  0
 35 45  1  0  0  0
 35 68  1  0  0  0
 36 56  1  0  0  0
 36107  1  0  0  0
 37 39  1  0  0  0
 37 47  1  0  0  0
 37 66  1  0  0  0
 37108  1  0  0  0
 38 43  2  0  0  0
 38 46  1  0  0  0
 38 47  1  0  0  0
 39 64  1  0  0  0
 39 67  2  0  0  0
 40 52  1  0  0  0
 40 53  2  0  0  0
 40 58  1  0  0  0
 41109  1  0  0  0
 41110  1  0  0  0
 41111  1  0  0  0
 41 48  1  0  0  0
 42 43  1  0  0  0
 42 66  1  0  0  0
 42112  1  0  0  0
 42113  1  0  0  0
 43 44  1  0  0  0
 44114  1  0  0  0
 45 46  2  0  0  0
 45115  1  0  0  0
 46116  1  0  0  0
 47117  1  0  0  0
 47118  1  0  0  0
 48 56  1  0  0  0
 48 65  1  0  0  0
 48119  1  0  0  0
 49 50  1  0  0  0
 49 53  1  0  0  0
 49 64  1  0  0  0
 49120  1  0  0  0
 50 51  1  0  0  0
 50121  1  0  0  0
 50122  1  0  0  0
 51 52  1  0  0  0
 51123  1  0  0  0
 51124  1  0  0  0
 52125  1  0  0  0
 52126  1  0  0  0
 53 54  1  0  0  0
 54 55  2  0  0  0
 54127  1  0  0  0
 55 57  1  0  0  0
 55128  1  0  0  0
 56 69  2  0  0  0
 57 58  2  0  0  0
 57129  1  0  0  0
 58130  1  0  0  0
 59 60  1  0  0  0
 59 61  1  0  0  0
 59 62  1  0  0  0
 60131  1  0  0  0
 60132  1  0  0  0
 60133  1  0  0  0
 61134  1  0  0  0
 61135  1  0  0  0
 61136  1  0  0  0
 62137  1  0  0  0
 62138  1  0  0  0
 62139  1  0  0  0
 63 65  1  0  0  0
 63140  1  0  0  0
 63141  1  0  0  0
 63142  1  0  0  0
 64143  1  0  0  0
 65144  1  0  0  0
 68 82  1  0  0  0
 71 72  2  0  0  0
 71 83  1  0  0  0
 71145  1  0  0  0
 72 77  1  0  0  0
 72 84  1  0  0  0
 73 74  1  0  0  0
 73 78  1  0  0  0
 73 83  2  0  0  0
 74 79  1  0  0  0
 74 84  2  0  0  0
 75 78  1  0  0  0
 75146  1  0  0  0
 75147  1  0  0  0
 75148  1  0  0  0
 76 85  1  0  0  0
 76149  1  0  0  0
 76150  1  0  0  0
 76151  1  0  0  0
 77 82  1  0  0  0
 77152  1  0  0  0
 77153  1  0  0  0
 78154  1  0  0  0
 78155  1  0  0  0
 79 80  1  0  0  0
 79156  1  0  0  0
 79157  1  0  0  0
 80 81  1  0  0  0
 80158  1  0  0  0
 80159  1  0  0  0
 81 85  1  0  0  0
 81160  1  0  0  0
 81161  1  0  0  0
 82162  1  0  0  0
 82163  1  0  0  0
M  ISO  4   1 100  68 101  82 101  85 100
M  END
> <chiral flag>
0

> <version>
0

> <s_m_source_file>
/data/baiqing/PycharmProjects/Reinvent-master-3.2/result/LINK_invent/BTK/process_docking_weight1_custom_sum_contain_oxygen_bond_distance_aromatic_linkinvent_7_9_3/rearranged_h_0049.sdf

> <i_m_source_file_index>
73

> <r_mmod_Potential_Energy-OPLS-2005>
242.743408203125

> <r_mmod_Stretch_Energy-OPLS-2005>
75.7713165283203

> <r_mmod_Bend_Energy-OPLS-2005>
161.755752563477

> <r_mmod_Torsional_Energy-OPLS-2005>
277.458038330078

> <r_mmod_Improper_Torsional_Energy-OPLS-2005>
10.1152763366699

> <r_mmod_Van_der_Waal_Energy-OPLS-2005>
147.859146118164

> <r_mmod_Electrostatic_Energy-OPLS-2005>
-250.25910949707

> <r_mmod_Solvation_Energy-OPLS-2005>
-206.387268066406

> <b_mmod_Minimization_Converged-OPLS-2005>
0

> <r_mmod_RMS_Derivative-OPLS-2005>
4.34631109237671

$$$$
75
                    3D
 Structure written by MMmdl.
159167  0  0  1  0            999 V2000
  -30.7203  -14.4956   20.5712 C   0  0  0  0  0  0
  -30.4154  -12.3242   19.4308 C   0  0  0  0  0  0
  -29.4925  -12.5061   18.2096 C   0  0  0  0  0  0
  -28.0143  -12.3690   18.6205 C   0  0  0  0  0  0
  -27.6576  -13.2180   19.8709 C   0  0  2  0  0  0
  -28.7011  -13.0317   20.9957 C   0  0  0  0  0  0
  -25.2571  -13.8184   20.5697 C   0  0  0  0  0  0
  -24.1825  -13.0452   20.9180 C   0  0  0  0  0  0
  -24.6393  -11.6923   20.8738 C   0  0  0  0  0  0
  -23.9054  -10.4300   21.0406 C   0  0  0  0  0  0
  -24.3605   -9.4215   21.9184 C   0  0  0  0  0  0
  -23.6286   -8.2243   22.0749 C   0  0  0  0  0  0
  -22.4272   -8.0267   21.3534 C   0  0  0  0  0  0
  -21.9897   -9.0242   20.4641 C   0  0  0  0  0  0
  -22.7225  -10.2128   20.3055 C   0  0  0  0  0  0
  -21.6851   -6.0722   22.5272 C   0  0  0  0  0  0
  -21.4025   -6.5632   23.8204 C   0  0  0  0  0  0
  -21.3661   -5.6788   24.9167 C   0  0  0  0  0  0
  -21.6039   -4.3050   24.7224 C   0  0  0  0  0  0
  -21.8824   -3.8137   23.4349 C   0  0  0  0  0  0
  -21.9201   -4.6950   22.3402 C   0  0  0  0  0  0
  -22.7844  -13.5239   21.1840 C   0  0  0  0  0  0
  -22.1661   -4.2133   21.0980 F   0  0  0  0  0  0
  -21.5624   -3.4538   25.7741 F   0  0  0  0  0  0
  -30.0275  -13.3297   20.4347 N   0  0  0  0  0  0
  -26.3013  -12.9377   20.3365 N   0  0  0  0  0  0
  -25.9328  -11.6527   20.5765 N   0  0  0  0  0  0
  -22.0476  -12.8239   22.0401 N   0  0  0  0  0  0
  -25.4307  -15.1895   20.4101 N   0  0  0  0  0  0
  -31.8508  -14.6463   20.1014 O   0  0  0  0  0  0
  -21.6634   -6.8865   21.4234 O   0  0  0  0  0  0
  -22.3532  -14.5533   20.6665 O   0  0  0  0  0  0
  -24.6177  -31.8662   23.2074 C   0  0  0  0  0  0
  -25.9056  -32.4809   23.8380 C   0  0  1  0  0  0
  -27.2262  -27.4006   20.1047 C   0  0  0  0  0  0
  -25.5907  -33.8609   24.2314 N   0  0  0  0  0  0
  -23.4067  -30.4926   21.5477 C   0  0  2  0  0  0
  -24.8525  -28.9602   20.1114 C   0  0  0  0  0  0
  -22.7427  -29.4663   22.4946 C   0  0  0  0  0  0
  -18.0277  -28.1376   22.8489 C   0  0  0  0  0  0
  -24.1493  -36.7311   23.2640 C   0  0  0  0  0  0
  -25.9403  -30.8250   21.3644 C   0  0  0  0  0  0
  -26.0167  -29.4588   20.7080 C   0  0  0  0  0  0
  -27.2092  -28.6909   20.6946 C   0  0  0  0  0  0
  -26.0410  -26.9318   19.4925 C   0  0  0  0  0  0
  -24.8624  -27.6990   19.4954 C   0  0  0  0  0  0
  -23.6173  -29.8309   20.1606 C   0  0  0  0  0  0
  -25.4116  -36.3099   24.0332 C   0  0  1  0  0  0
  -20.5872  -28.3674   23.1294 C   0  0  2  0  0  0
  -20.6767  -26.9404   22.5403 C   0  0  0  0  0  0
  -19.5743  -26.6383   21.5201 C   0  0  0  0  0  0
  -18.1928  -26.7919   22.1619 C   0  0  0  0  0  0
  -19.1528  -28.8835   23.2894 C   0  0  0  0  0  0
  -18.9455  -30.1436   23.8913 C   0  0  0  0  0  0
  -17.6458  -30.6579   24.0564 C   0  0  0  0  0  0
  -25.9040  -34.9466   23.5117 C   0  0  0  0  0  0
  -16.5351  -29.9083   23.6316 C   0  0  0  0  0  0
  -16.7266  -28.6497   23.0344 C   0  0  0  0  0  0
  -26.4480  -31.6586   25.0707 C   0  0  0  0  0  0
  -25.3755  -31.3690   26.1460 C   0  0  0  0  0  0
  -27.0294  -30.3020   24.6075 C   0  0  0  0  0  0
  -27.6053  -32.4308   25.7480 C   0  0  0  0  0  0
  -27.5586  -37.1809   24.8463 C   0  0  0  0  0  0
  -21.4150  -29.3046   22.3693 N   0  0  0  0  0  0
  -26.4297  -37.3787   23.9404 N   0  0  0  0  0  0
  -24.6729  -31.0760   22.0975 N   0  0  0  0  0  0
  -23.4191  -28.8196   23.2984 O   0  0  0  0  0  0
  -28.3737  -26.6205   20.1424 O   0  0  0  0  0  0
  -26.5600  -34.8918   22.4681 O   0  0  0  0  0  0
  -23.5357  -32.1421   23.7450 O   0  0  0  0  0  0
  -30.1942  -21.9119   20.6611 C   0  0  0  0  0  0
  -29.7194  -20.7639   21.2522 C   0  0  0  0  0  0
  -28.4440  -21.1782   21.7470 C   0  0  0  0  0  0
  -26.2027  -20.0288   21.6908 C   0  0  0  0  0  0
  -30.4696  -19.4403   21.4585 C   0  0  0  0  0  0
  -27.4347  -20.3834   22.5329 C   0  0  0  0  0  0
  -29.7845  -18.1014   21.0364 C   0  0  0  0  0  0
  -29.4537  -24.3852   20.5897 C   0  0  0  0  0  0
  -30.6552  -16.8643   21.4320 C   0  0  0  0  0  0
  -28.1778  -25.1814   20.1906 C   0  0  0  0  0  0
  -28.1982  -22.4663   21.5100 N   0  0  0  0  0  0
  -29.2797  -22.9390   20.8489 N   0  0  0  0  0  0
  -30.0702  -15.5310   21.1477 N   0  0  0  0  0  0
  -31.4609  -12.4108   19.1305 H   0  0  0  0  0  0
  -30.3066  -11.3209   19.8440 H   0  0  0  0  0  0
  -29.7354  -11.7705   17.4418 H   0  0  0  0  0  0
  -29.6616  -13.4858   17.7604 H   0  0  0  0  0  0
  -27.8255  -11.3142   18.8213 H   0  0  0  0  0  0
  -27.3656  -12.6394   17.7855 H   0  0  0  0  0  0
  -27.6925  -14.2629   19.5615 H   0  0  0  0  0  0
  -28.6840  -12.0068   21.3670 H   0  0  0  0  0  0
  -28.4617  -13.6597   21.8554 H   0  0  0  0  0  0
  -25.2751   -9.5694   22.4759 H   0  0  0  0  0  0
  -23.9996   -7.4637   22.7471 H   0  0  0  0  0  0
  -21.0819   -8.8758   19.8947 H   0  0  0  0  0  0
  -22.3676  -10.9658   19.6157 H   0  0  0  0  0  0
  -21.2022   -7.6143   23.9707 H   0  0  0  0  0  0
  -21.1475   -6.0517   25.9069 H   0  0  0  0  0  0
  -22.0606   -2.7598   23.2853 H   0  0  0  0  0  0
  -22.4073  -11.9907   22.4817 H   0  0  0  0  0  0
  -21.1079  -13.1248   22.2562 H   0  0  0  0  0  0
  -24.6711  -15.8516   20.5236 H   0  0  0  0  0  0
  -26.2886  -15.6233   20.0938 H   0  0  0  0  0  0
  -26.7133  -32.5504   23.1146 H   0  0  0  0  0  0
  -25.0064  -33.9773   25.0460 H   0  0  0  0  0  0
  -22.6962  -31.3099   21.4093 H   0  0  0  0  0  0
  -23.3744  -35.9655   23.3298 H   0  0  0  0  0  0
  -24.3592  -36.8916   22.2055 H   0  0  0  0  0  0
  -23.7249  -37.6518   23.6653 H   0  0  0  0  0  0
  -26.0607  -31.5928   20.5982 H   0  0  0  0  0  0
  -26.8268  -30.8731   21.9853 H   0  0  0  0  0  0
  -28.1073  -29.0753   21.1584 H   0  0  0  0  0  0
  -26.0028  -25.9699   19.0043 H   0  0  0  0  0  0
  -23.9702  -27.3109   19.0223 H   0  0  0  0  0  0
  -23.7309  -30.6088   19.4042 H   0  0  0  0  0  0
  -22.7395  -29.2556   19.8601 H   0  0  0  0  0  0
  -25.1292  -36.1971   25.0824 H   0  0  0  0  0  0
  -20.9980  -28.3242   24.1406 H   0  0  0  0  0  0
  -20.5644  -26.2293   23.3592 H   0  0  0  0  0  0
  -21.6643  -26.7421   22.1212 H   0  0  0  0  0  0
  -19.6896  -25.6292   21.1223 H   0  0  0  0  0  0
  -19.6678  -27.3204   20.6735 H   0  0  0  0  0  0
  -17.4192  -26.6661   21.4027 H   0  0  0  0  0  0
  -18.0335  -26.0061   22.9013 H   0  0  0  0  0  0
  -19.7931  -30.7241   24.2305 H   0  0  0  0  0  0
  -17.5013  -31.6261   24.5163 H   0  0  0  0  0  0
  -15.5349  -30.2995   23.7622 H   0  0  0  0  0  0
  -15.8668  -28.0817   22.7058 H   0  0  0  0  0  0
  -24.5941  -30.7018   25.7807 H   0  0  0  0  0  0
  -24.8951  -32.2844   26.4921 H   0  0  0  0  0  0
  -25.8136  -30.8861   27.0205 H   0  0  0  0  0  0
  -26.2817  -29.6792   24.1148 H   0  0  0  0  0  0
  -27.4076  -29.7240   25.4518 H   0  0  0  0  0  0
  -27.8655  -30.4319   23.9201 H   0  0  0  0  0  0
  -27.2666  -33.3604   26.2071 H   0  0  0  0  0  0
  -28.3871  -32.6872   25.0317 H   0  0  0  0  0  0
  -28.0710  -31.8420   26.5390 H   0  0  0  0  0  0
  -28.2603  -38.0107   24.7513 H   0  0  0  0  0  0
  -28.1078  -36.2635   24.6289 H   0  0  0  0  0  0
  -27.2296  -37.1461   25.8863 H   0  0  0  0  0  0
  -20.9291  -29.8818   21.6970 H   0  0  0  0  0  0
  -26.0174  -38.2855   24.1411 H   0  0  0  0  0  0
  -31.1473  -22.1027   20.1859 H   0  0  0  0  0  0
  -26.4792  -19.4422   20.8146 H   0  0  0  0  0  0
  -25.6971  -20.9314   21.3455 H   0  0  0  0  0  0
  -25.4875  -19.4461   22.2712 H   0  0  0  0  0  0
  -30.7302  -19.3548   22.5148 H   0  0  0  0  0  0
  -31.4341  -19.4908   20.9513 H   0  0  0  0  0  0
  -27.1185  -20.9489   23.4090 H   0  0  0  0  0  0
  -27.8860  -19.4739   22.9288 H   0  0  0  0  0  0
  -29.6113  -18.1054   19.9593 H   0  0  0  0  0  0
  -28.8068  -18.0141   21.5070 H   0  0  0  0  0  0
  -29.8763  -24.8216   21.4947 H   0  0  0  0  0  0
  -30.2111  -24.5034   19.8130 H   0  0  0  0  0  0
  -30.8555  -16.8948   22.5042 H   0  0  0  0  0  0
  -31.6327  -16.9667   20.9574 H   0  0  0  0  0  0
  -27.3846  -24.9621   20.9081 H   0  0  0  0  0  0
  -27.8429  -24.8163   19.2191 H   0  0  0  0  0  0
  -29.1371  -15.3479   21.4859 H   0  0  0  0  0  0
  1 25  1  0  0  0
  1 30  2  0  0  0
  1 83  1  0  0  0
  2  3  1  0  0  0
  2 25  1  0  0  0
  2 84  1  0  0  0
  2 85  1  0  0  0
  3  4  1  0  0  0
  3 86  1  0  0  0
  3 87  1  0  0  0
  4  5  1  0  0  0
  4 88  1  0  0  0
  4 89  1  0  0  0
  5  6  1  0  0  0
  5 26  1  0  0  0
  5 90  1  0  0  0
  6 25  1  0  0  0
  6 91  1  0  0  0
  6 92  1  0  0  0
  7  8  2  0  0  0
  7 26  1  0  0  0
  7 29  1  0  0  0
  8  9  1  0  0  0
  8 22  1  0  0  0
  9 10  1  0  0  0
  9 27  2  0  0  0
 10 11  2  0  0  0
 10 15  1  0  0  0
 11 12  1  0  0  0
 11 93  1  0  0  0
 12 13  2  0  0  0
 12 94  1  0  0  0
 13 14  1  0  0  0
 13 31  1  0  0  0
 14 15  2  0  0  0
 14 95  1  0  0  0
 15 96  1  0  0  0
 16 17  2  0  0  0
 16 21  1  0  0  0
 16 31  1  0  0  0
 17 18  1  0  0  0
 17 97  1  0  0  0
 18 19  2  0  0  0
 18 98  1  0  0  0
 19 20  1  0  0  0
 19 24  1  0  0  0
 20 21  2  0  0  0
 20 99  1  0  0  0
 21 23  1  0  0  0
 22 28  1  0  0  0
 22 32  2  0  0  0
 26 27  1  0  0  0
 28100  1  0  0  0
 28101  1  0  0  0
 29102  1  0  0  0
 29103  1  0  0  0
 33 34  1  0  0  0
 33 66  1  0  0  0
 33 70  2  0  0  0
 34 36  1  0  0  0
 34 59  1  0  0  0
 34104  1  0  0  0
 35 44  2  0  0  0
 35 45  1  0  0  0
 35 68  1  0  0  0
 36 56  1  0  0  0
 36105  1  0  0  0
 37 39  1  0  0  0
 37 47  1  0  0  0
 37 66  1  0  0  0
 37106  1  0  0  0
 38 43  2  0  0  0
 38 46  1  0  0  0
 38 47  1  0  0  0
 39 64  1  0  0  0
 39 67  2  0  0  0
 40 52  1  0  0  0
 40 53  2  0  0  0
 40 58  1  0  0  0
 41107  1  0  0  0
 41108  1  0  0  0
 41109  1  0  0  0
 41 48  1  0  0  0
 42 43  1  0  0  0
 42 66  1  0  0  0
 42110  1  0  0  0
 42111  1  0  0  0
 43 44  1  0  0  0
 44112  1  0  0  0
 45 46  2  0  0  0
 45113  1  0  0  0
 46114  1  0  0  0
 47115  1  0  0  0
 47116  1  0  0  0
 48 56  1  0  0  0
 48 65  1  0  0  0
 48117  1  0  0  0
 49 50  1  0  0  0
 49 53  1  0  0  0
 49 64  1  0  0  0
 49118  1  0  0  0
 50 51  1  0  0  0
 50119  1  0  0  0
 50120  1  0  0  0
 51 52  1  0  0  0
 51121  1  0  0  0
 51122  1  0  0  0
 52123  1  0  0  0
 52124  1  0  0  0
 53 54  1  0  0  0
 54 55  2  0  0  0
 54125  1  0  0  0
 55 57  1  0  0  0
 55126  1  0  0  0
 56 69  2  0  0  0
 57 58  2  0  0  0
 57127  1  0  0  0
 58128  1  0  0  0
 59 60  1  0  0  0
 59 61  1  0  0  0
 59 62  1  0  0  0
 60129  1  0  0  0
 60130  1  0  0  0
 60131  1  0  0  0
 61132  1  0  0  0
 61133  1  0  0  0
 61134  1  0  0  0
 62135  1  0  0  0
 62136  1  0  0  0
 62137  1  0  0  0
 63 65  1  0  0  0
 63138  1  0  0  0
 63139  1  0  0  0
 63140  1  0  0  0
 64141  1  0  0  0
 65142  1  0  0  0
 68 80  1  0  0  0
 71 72  2  0  0  0
 71 82  1  0  0  0
 71143  1  0  0  0
 72 73  1  0  0  0
 72 75  1  0  0  0
 73 76  1  0  0  0
 73 81  2  0  0  0
 74 76  1  0  0  0
 74144  1  0  0  0
 74145  1  0  0  0
 74146  1  0  0  0
 75 77  1  0  0  0
 75147  1  0  0  0
 75148  1  0  0  0
 76149  1  0  0  0
 76150  1  0  0  0
 77 79  1  0  0  0
 77151  1  0  0  0
 77152  1  0  0  0
 78 80  1  0  0  0
 78 82  1  0  0  0
 78153  1  0  0  0
 78154  1  0  0  0
 79 83  1  0  0  0
 79155  1  0  0  0
 79156  1  0  0  0
 80157  1  0  0  0
 80158  1  0  0  0
 81 82  1  0  0  0
 83159  1  0  0  0
M  ISO  4   1 100  68 101  80 101  83 100
M  END
> <chiral flag>
0

> <version>
0

> <s_m_source_file>
/data/baiqing/PycharmProjects/Reinvent-master-3.2/result/LINK_invent/BTK/process_docking_weight1_custom_sum_contain_oxygen_bond_distance_aromatic_linkinvent_7_9_3/rearranged_h_0049.sdf

> <i_m_source_file_index>
74

> <r_mmod_Potential_Energy-OPLS-2005>
-111.479598999023

> <r_mmod_Stretch_Energy-OPLS-2005>
43.5784645080566

> <r_mmod_Bend_Energy-OPLS-2005>
103.297554016113

> <r_mmod_Torsional_Energy-OPLS-2005>
199.919998168945

> <r_mmod_Improper_Torsional_Energy-OPLS-2005>
4.10083532333374

> <r_mmod_Van_der_Waal_Energy-OPLS-2005>
126.434173583984

> <r_mmod_Electrostatic_Energy-OPLS-2005>
-385.929840087891

> <r_mmod_Solvation_Energy-OPLS-2005>
-221.428207397461

> <b_mmod_Minimization_Converged-OPLS-2005>
0

> <r_mmod_RMS_Derivative-OPLS-2005>
1.8986394405365

$$$$
76
                    3D
 Structure written by MMmdl.
176184  0  0  1  0            999 V2000
  -30.6981  -14.4616   20.5607 C   0  0  0  0  0  0
  -30.4251  -12.2946   19.4147 C   0  0  0  0  0  0
  -29.4923  -12.5032   18.2039 C   0  0  0  0  0  0
  -28.0134  -12.3565   18.6187 C   0  0  0  0  0  0
  -27.6612  -13.1858   19.8823 C   0  0  2  0  0  0
  -28.7114  -12.9687   20.9943 C   0  0  0  0  0  0
  -25.2623  -13.8092   20.5692 C   0  0  0  0  0  0
  -24.1828  -13.0410   20.9155 C   0  0  0  0  0  0
  -24.6386  -11.6872   20.8766 C   0  0  0  0  0  0
  -23.9055  -10.4274   21.0424 C   0  0  0  0  0  0
  -24.3627   -9.4185   21.9181 C   0  0  0  0  0  0
  -23.6295   -8.2230   22.0764 C   0  0  0  0  0  0
  -22.4281   -8.0278   21.3535 C   0  0  0  0  0  0
  -21.9911   -9.0265   20.4651 C   0  0  0  0  0  0
  -22.7249  -10.2132   20.3057 C   0  0  0  0  0  0
  -21.6853   -6.0720   22.5264 C   0  0  0  0  0  0
  -21.3996   -6.5620   23.8198 C   0  0  0  0  0  0
  -21.3656   -5.6781   24.9162 C   0  0  0  0  0  0
  -21.6051   -4.3045   24.7227 C   0  0  0  0  0  0
  -21.8833   -3.8133   23.4358 C   0  0  0  0  0  0
  -21.9182   -4.6938   22.3402 C   0  0  0  0  0  0
  -22.7869  -13.5248   21.1786 C   0  0  0  0  0  0
  -22.1657   -4.2120   21.0981 F   0  0  0  0  0  0
  -21.5644   -3.4542   25.7742 F   0  0  0  0  0  0
  -30.0356  -13.2791   20.4343 N   0  0  0  0  0  0
  -26.3032  -12.9218   20.3450 N   0  0  0  0  0  0
  -25.9308  -11.6407   20.5847 N   0  0  0  0  0  0
  -22.0523  -12.8249   22.0373 N   0  0  0  0  0  0
  -25.4378  -15.1796   20.4108 N   0  0  0  0  0  0
  -31.8517  -14.6278   20.1514 O   0  0  0  0  0  0
  -21.6647   -6.8874   21.4231 O   0  0  0  0  0  0
  -22.3560  -14.5536   20.6591 O   0  0  0  0  0  0
  -24.6147  -31.8698   23.2113 C   0  0  0  0  0  0
  -25.9042  -32.4827   23.8398 C   0  0  1  0  0  0
  -27.2354  -27.4494   20.0765 C   0  0  0  0  0  0
  -25.5902  -33.8625   24.2326 N   0  0  0  0  0  0
  -23.3990  -30.4946   21.5538 C   0  0  2  0  0  0
  -24.8416  -28.9622   20.1185 C   0  0  0  0  0  0
  -22.7396  -29.4667   22.5018 C   0  0  0  0  0  0
  -18.0271  -28.1372   22.8495 C   0  0  0  0  0  0
  -24.1489  -36.7312   23.2636 C   0  0  0  0  0  0
  -25.9287  -30.8380   21.3623 C   0  0  0  0  0  0
  -26.0041  -29.4755   20.7056 C   0  0  0  0  0  0
  -27.2017  -28.7271   20.6792 C   0  0  0  0  0  0
  -26.0443  -26.9443   19.4997 C   0  0  0  0  0  0
  -24.8551  -27.6930   19.5185 C   0  0  0  0  0  0
  -23.6046  -29.8282   20.1688 C   0  0  0  0  0  0
  -25.4111  -36.3112   24.0335 C   0  0  1  0  0  0
  -20.5862  -28.3651   23.1326 C   0  0  2  0  0  0
  -20.6768  -26.9392   22.5421 C   0  0  0  0  0  0
  -19.5754  -26.6377   21.5216 C   0  0  0  0  0  0
  -18.1926  -26.7917   22.1625 C   0  0  0  0  0  0
  -19.1521  -28.8829   23.2907 C   0  0  0  0  0  0
  -18.9447  -30.1440   23.8911 C   0  0  0  0  0  0
  -17.6451  -30.6583   24.0562 C   0  0  0  0  0  0
  -25.9038  -34.9477   23.5129 C   0  0  0  0  0  0
  -16.5342  -29.9081   23.6325 C   0  0  0  0  0  0
  -16.7259  -28.6501   23.0345 C   0  0  0  0  0  0
  -26.4472  -31.6603   25.0723 C   0  0  0  0  0  0
  -25.3739  -31.3704   26.1472 C   0  0  0  0  0  0
  -27.0304  -30.3046   24.6095 C   0  0  0  0  0  0
  -27.6053  -32.4321   25.7482 C   0  0  0  0  0  0
  -27.5584  -37.1811   24.8467 C   0  0  0  0  0  0
  -21.4126  -29.3028   22.3742 N   0  0  0  0  0  0
  -26.4300  -37.3795   23.9406 N   0  0  0  0  0  0
  -24.6655  -31.0809   22.1010 N   0  0  0  0  0  0
  -23.4182  -28.8215   23.3052 O   0  0  0  0  0  0
  -28.4302  -26.7539   20.0730 O   0  0  0  0  0  0
  -26.5599  -34.8927   22.4689 O   0  0  0  0  0  0
  -23.5342  -32.1448   23.7516 O   0  0  0  0  0  0
  -27.8851  -20.4239   18.9251 C   0  0  0  0  0  0
  -27.4403  -21.7492   18.7620 C   0  0  0  0  0  0
  -29.0845  -20.0119   18.3135 C   0  0  0  0  0  0
  -28.2328  -22.6339   17.9941 C   0  0  0  0  0  0
  -29.8430  -20.9841   17.6210 C   0  0  0  0  0  0
  -26.0979  -22.1542   19.3512 C   0  0  0  0  0  0
  -30.9658  -20.2749   15.4560 C   0  0  0  0  0  0
  -28.2400  -16.4535   22.4217 C   0  0  0  0  0  0
  -30.3426  -15.3918   23.3107 C   0  0  0  0  0  0
  -29.4219  -18.5234   18.3025 C   0  0  0  0  0  0
  -27.7571  -24.0220   17.5764 C   0  0  0  0  0  0
  -31.1598  -20.6686   16.9257 C   0  0  0  0  0  0
  -29.7953  -17.8972   19.6624 C   0  0  0  0  0  0
  -28.5469  -25.2080   18.1646 C   0  0  0  0  0  0
  -29.5590  -16.3655   19.6100 C   0  0  0  0  0  0
  -28.4312  -25.3735   19.6919 C   0  0  0  0  0  0
  -29.7315  -16.1781   22.1289 C   0  0  0  0  0  0
  -29.4148  -22.2562   17.4664 N   0  0  0  0  0  0
  -29.9034  -15.5406   20.7991 N   0  0  0  0  0  0
  -31.4695  -12.3993   19.1120 H   0  0  0  0  0  0
  -30.3302  -11.2809   19.8112 H   0  0  0  0  0  0
  -29.7279  -11.7955   17.4076 H   0  0  0  0  0  0
  -29.6611  -13.4978   17.7872 H   0  0  0  0  0  0
  -27.8221  -11.3004   18.8098 H   0  0  0  0  0  0
  -27.3627  -12.6379   17.7914 H   0  0  0  0  0  0
  -27.6937  -14.2266   19.5822 H   0  0  0  0  0  0
  -28.6975  -11.9340   21.3409 H   0  0  0  0  0  0
  -28.4794  -13.5737   21.8683 H   0  0  0  0  0  0
  -25.2777   -9.5651   22.4757 H   0  0  0  0  0  0
  -23.9987   -7.4603   22.7494 H   0  0  0  0  0  0
  -21.0840   -8.8821   19.8951 H   0  0  0  0  0  0
  -22.3727  -10.9696   19.6178 H   0  0  0  0  0  0
  -21.1982   -7.6124   23.9703 H   0  0  0  0  0  0
  -21.1468   -6.0502   25.9068 H   0  0  0  0  0  0
  -22.0621   -2.7599   23.2872 H   0  0  0  0  0  0
  -22.4206  -11.9933   22.4742 H   0  0  0  0  0  0
  -21.1153  -13.1272   22.2606 H   0  0  0  0  0  0
  -24.6809  -15.8397   20.5495 H   0  0  0  0  0  0
  -26.3039  -15.6220   20.1336 H   0  0  0  0  0  0
  -26.7112  -32.5541   23.1162 H   0  0  0  0  0  0
  -25.0056  -33.9788   25.0473 H   0  0  0  0  0  0
  -22.6872  -31.3112   21.4176 H   0  0  0  0  0  0
  -23.3748  -35.9650   23.3317 H   0  0  0  0  0  0
  -24.3583  -36.8908   22.2047 H   0  0  0  0  0  0
  -23.7247  -37.6524   23.6641 H   0  0  0  0  0  0
  -26.0433  -31.6074   20.5974 H   0  0  0  0  0  0
  -26.8165  -30.8861   21.9810 H   0  0  0  0  0  0
  -28.1031  -29.1272   21.1224 H   0  0  0  0  0  0
  -26.0051  -25.9776   19.0239 H   0  0  0  0  0  0
  -23.9588  -27.2845   19.0718 H   0  0  0  0  0  0
  -23.7114  -30.6041   19.4100 H   0  0  0  0  0  0
  -22.7282  -29.2481   19.8744 H   0  0  0  0  0  0
  -25.1290  -36.1977   25.0828 H   0  0  0  0  0  0
  -20.9944  -28.3209   24.1453 H   0  0  0  0  0  0
  -20.5674  -26.2254   23.3599 H   0  0  0  0  0  0
  -21.6637  -26.7449   22.1216 H   0  0  0  0  0  0
  -19.6908  -25.6293   21.1230 H   0  0  0  0  0  0
  -19.6689  -27.3201   20.6756 H   0  0  0  0  0  0
  -17.4193  -26.6662   21.4023 H   0  0  0  0  0  0
  -18.0327  -26.0053   22.9017 H   0  0  0  0  0  0
  -19.7924  -30.7252   24.2284 H   0  0  0  0  0  0
  -17.5009  -31.6264   24.5159 H   0  0  0  0  0  0
  -15.5347  -30.2992   23.7640 H   0  0  0  0  0  0
  -15.8661  -28.0823   22.7053 H   0  0  0  0  0  0
  -24.5911  -30.7053   25.7802 H   0  0  0  0  0  0
  -24.8934  -32.2862   26.4929 H   0  0  0  0  0  0
  -25.8096  -30.8863   27.0220 H   0  0  0  0  0  0
  -26.2846  -29.6802   24.1155 H   0  0  0  0  0  0
  -27.4085  -29.7285   25.4551 H   0  0  0  0  0  0
  -27.8678  -30.4367   23.9235 H   0  0  0  0  0  0
  -27.2674  -33.3609   26.2092 H   0  0  0  0  0  0
  -28.3846  -32.6898   25.0295 H   0  0  0  0  0  0
  -28.0740  -31.8422   26.5372 H   0  0  0  0  0  0
  -28.2612  -38.0098   24.7512 H   0  0  0  0  0  0
  -28.1071  -36.2632   24.6301 H   0  0  0  0  0  0
  -27.2300  -37.1468   25.8869 H   0  0  0  0  0  0
  -20.9284  -29.8744   21.6963 H   0  0  0  0  0  0
  -26.0189  -38.2875   24.1402 H   0  0  0  0  0  0
  -27.2791  -19.7081   19.4630 H   0  0  0  0  0  0
  -25.6942  -21.3670   19.9887 H   0  0  0  0  0  0
  -25.3697  -22.3453   18.5627 H   0  0  0  0  0  0
  -26.1879  -23.0508   19.9636 H   0  0  0  0  0  0
  -31.9240  -20.0553   14.9825 H   0  0  0  0  0  0
  -30.4976  -21.0870   14.8998 H   0  0  0  0  0  0
  -30.3325  -19.3938   15.3552 H   0  0  0  0  0  0
  -28.1305  -17.0690   23.3171 H   0  0  0  0  0  0
  -27.6710  -15.5383   22.5893 H   0  0  0  0  0  0
  -27.7483  -16.9906   21.6099 H   0  0  0  0  0  0
  -30.1723  -15.9140   24.2546 H   0  0  0  0  0  0
  -31.4228  -15.2852   23.2056 H   0  0  0  0  0  0
  -29.9065  -14.3964   23.4156 H   0  0  0  0  0  0
  -30.1897  -18.2888   17.5678 H   0  0  0  0  0  0
  -28.5245  -18.0323   17.9242 H   0  0  0  0  0  0
  -26.6981  -24.1456   17.7893 H   0  0  0  0  0  0
  -27.8245  -24.0711   16.4890 H   0  0  0  0  0  0
  -31.7051  -19.8946   17.4645 H   0  0  0  0  0  0
  -31.8010  -21.5502   16.9740 H   0  0  0  0  0  0
  -29.1657  -18.3369   20.4346 H   0  0  0  0  0  0
  -30.8296  -18.1384   19.9134 H   0  0  0  0  0  0
  -28.1753  -26.1108   17.6796 H   0  0  0  0  0  0
  -29.5973  -25.1360   17.8818 H   0  0  0  0  0  0
  -30.0711  -15.9838   18.7204 H   0  0  0  0  0  0
  -28.5010  -16.2130   19.4106 H   0  0  0  0  0  0
  -29.2875  -24.8944   20.1664 H   0  0  0  0  0  0
  -27.5624  -24.8597   20.1000 H   0  0  0  0  0  0
  -30.2602  -17.1305   22.1081 H   0  0  0  0  0  0
  1 25  1  0  0  0
  1 30  2  0  0  0
  1 89  1  0  0  0
  2  3  1  0  0  0
  2 25  1  0  0  0
  2 90  1  0  0  0
  2 91  1  0  0  0
  3  4  1  0  0  0
  3 92  1  0  0  0
  3 93  1  0  0  0
  4  5  1  0  0  0
  4 94  1  0  0  0
  4 95  1  0  0  0
  5  6  1  0  0  0
  5 26  1  0  0  0
  5 96  1  0  0  0
  6 25  1  0  0  0
  6 97  1  0  0  0
  6 98  1  0  0  0
  7  8  2  0  0  0
  7 26  1  0  0  0
  7 29  1  0  0  0
  8  9  1  0  0  0
  8 22  1  0  0  0
  9 10  1  0  0  0
  9 27  2  0  0  0
 10 11  2  0  0  0
 10 15  1  0  0  0
 11 12  1  0  0  0
 11 99  1  0  0  0
 12 13  2  0  0  0
 12100  1  0  0  0
 13 14  1  0  0  0
 13 31  1  0  0  0
 14 15  2  0  0  0
 14101  1  0  0  0
 15102  1  0  0  0
 16 17  2  0  0  0
 16 21  1  0  0  0
 16 31  1  0  0  0
 17 18  1  0  0  0
 17103  1  0  0  0
 18 19  2  0  0  0
 18104  1  0  0  0
 19 20  1  0  0  0
 19 24  1  0  0  0
 20 21  2  0  0  0
 20105  1  0  0  0
 21 23  1  0  0  0
 22 28  1  0  0  0
 22 32  2  0  0  0
 26 27  1  0  0  0
 28106  1  0  0  0
 28107  1  0  0  0
 29108  1  0  0  0
 29109  1  0  0  0
 33 34  1  0  0  0
 33 66  1  0  0  0
 33 70  2  0  0  0
 34 36  1  0  0  0
 34 59  1  0  0  0
 34110  1  0  0  0
 35 44  2  0  0  0
 35 45  1  0  0  0
 35 68  1  0  0  0
 36 56  1  0  0  0
 36111  1  0  0  0
 37 39  1  0  0  0
 37 47  1  0  0  0
 37 66  1  0  0  0
 37112  1  0  0  0
 38 43  2  0  0  0
 38 46  1  0  0  0
 38 47  1  0  0  0
 39 64  1  0  0  0
 39 67  2  0  0  0
 40 52  1  0  0  0
 40 53  2  0  0  0
 40 58  1  0  0  0
 41113  1  0  0  0
 41114  1  0  0  0
 41115  1  0  0  0
 41 48  1  0  0  0
 42 43  1  0  0  0
 42 66  1  0  0  0
 42116  1  0  0  0
 42117  1  0  0  0
 43 44  1  0  0  0
 44118  1  0  0  0
 45 46  2  0  0  0
 45119  1  0  0  0
 46120  1  0  0  0
 47121  1  0  0  0
 47122  1  0  0  0
 48 56  1  0  0  0
 48 65  1  0  0  0
 48123  1  0  0  0
 49 50  1  0  0  0
 49 53  1  0  0  0
 49 64  1  0  0  0
 49124  1  0  0  0
 50 51  1  0  0  0
 50125  1  0  0  0
 50126  1  0  0  0
 51 52  1  0  0  0
 51127  1  0  0  0
 51128  1  0  0  0
 52129  1  0  0  0
 52130  1  0  0  0
 53 54  1  0  0  0
 54 55  2  0  0  0
 54131  1  0  0  0
 55 57  1  0  0  0
 55132  1  0  0  0
 56 69  2  0  0  0
 57 58  2  0  0  0
 57133  1  0  0  0
 58134  1  0  0  0
 59 60  1  0  0  0
 59 61  1  0  0  0
 59 62  1  0  0  0
 60135  1  0  0  0
 60136  1  0  0  0
 60137  1  0  0  0
 61138  1  0  0  0
 61139  1  0  0  0
 61140  1  0  0  0
 62141  1  0  0  0
 62142  1  0  0  0
 62143  1  0  0  0
 63 65  1  0  0  0
 63144  1  0  0  0
 63145  1  0  0  0
 63146  1  0  0  0
 64147  1  0  0  0
 65148  1  0  0  0
 68 86  1  0  0  0
 71 72  2  0  0  0
 71 73  1  0  0  0
 71149  1  0  0  0
 72 74  1  0  0  0
 72 76  1  0  0  0
 73 75  2  0  0  0
 73 80  1  0  0  0
 74 81  1  0  0  0
 74 88  2  0  0  0
 75 82  1  0  0  0
 75 88  1  0  0  0
 76150  1  0  0  0
 76151  1  0  0  0
 76152  1  0  0  0
 77 82  1  0  0  0
 77153  1  0  0  0
 77154  1  0  0  0
 77155  1  0  0  0
 78156  1  0  0  0
 78157  1  0  0  0
 78158  1  0  0  0
 78 87  1  0  0  0
 79 87  1  0  0  0
 79159  1  0  0  0
 79160  1  0  0  0
 79161  1  0  0  0
 80 83  1  0  0  0
 80162  1  0  0  0
 80163  1  0  0  0
 81 84  1  0  0  0
 81164  1  0  0  0
 81165  1  0  0  0
 82166  1  0  0  0
 82167  1  0  0  0
 83 85  1  0  0  0
 83168  1  0  0  0
 83169  1  0  0  0
 84 86  1  0  0  0
 84170  1  0  0  0
 84171  1  0  0  0
 85 89  1  0  0  0
 85172  1  0  0  0
 85173  1  0  0  0
 86174  1  0  0  0
 86175  1  0  0  0
 87 89  1  0  0  0
 87176  1  0  0  0
M  ISO  4   1 100  68 101  86 101  89 100
M  END
> <chiral flag>
0

> <version>
0

> <s_m_source_file>
/data/baiqing/PycharmProjects/Reinvent-master-3.2/result/LINK_invent/BTK/process_docking_weight1_custom_sum_contain_oxygen_bond_distance_aromatic_linkinvent_7_9_3/rearranged_h_0049.sdf

> <i_m_source_file_index>
75

> <r_mmod_Potential_Energy-OPLS-2005>
-7.55703210830688

> <r_mmod_Stretch_Energy-OPLS-2005>
39.4949111938477

> <r_mmod_Bend_Energy-OPLS-2005>
116.141403198242

> <r_mmod_Torsional_Energy-OPLS-2005>
303.387329101562

> <r_mmod_Improper_Torsional_Energy-OPLS-2005>
12.1270189285278

> <r_mmod_Van_der_Waal_Energy-OPLS-2005>
156.632614135742

> <r_mmod_Electrostatic_Energy-OPLS-2005>
-449.635803222656

> <r_mmod_Solvation_Energy-OPLS-2005>
-198.615814208984

> <b_mmod_Minimization_Converged-OPLS-2005>
0

> <r_mmod_RMS_Derivative-OPLS-2005>
2.63809823989868

$$$$
77
                    3D
 Structure written by MMmdl.
168176  0  0  1  0            999 V2000
  -30.7825  -14.4061   20.5373 C   0  0  0  0  0  0
  -30.3917  -12.2498   19.4294 C   0  0  0  0  0  0
  -29.4740  -12.4995   18.2191 C   0  0  0  0  0  0
  -27.9968  -12.3890   18.6362 C   0  0  0  0  0  0
  -27.6675  -13.2177   19.9064 C   0  0  2  0  0  0
  -28.7217  -12.9993   21.0176 C   0  0  0  0  0  0
  -25.2590  -13.8212   20.5760 C   0  0  0  0  0  0
  -24.1820  -13.0474   20.9231 C   0  0  0  0  0  0
  -24.6384  -11.6959   20.8797 C   0  0  0  0  0  0
  -23.9040  -10.4302   21.0423 C   0  0  0  0  0  0
  -24.3595   -9.4211   21.9176 C   0  0  0  0  0  0
  -23.6292   -8.2238   22.0745 C   0  0  0  0  0  0
  -22.4271   -8.0269   21.3535 C   0  0  0  0  0  0
  -21.9908   -9.0253   20.4647 C   0  0  0  0  0  0
  -22.7219  -10.2145   20.3060 C   0  0  0  0  0  0
  -21.6860   -6.0697   22.5243 C   0  0  0  0  0  0
  -21.4001   -6.5605   23.8169 C   0  0  0  0  0  0
  -21.3690   -5.6778   24.9136 C   0  0  0  0  0  0
  -21.6080   -4.3032   24.7198 C   0  0  0  0  0  0
  -21.8824   -3.8116   23.4320 C   0  0  0  0  0  0
  -21.9206   -4.6934   22.3372 C   0  0  0  0  0  0
  -22.7825  -13.5259   21.1902 C   0  0  0  0  0  0
  -22.1664   -4.2126   21.0953 F   0  0  0  0  0  0
  -21.5685   -3.4525   25.7709 F   0  0  0  0  0  0
  -30.0527  -13.2591   20.4478 N   0  0  0  0  0  0
  -26.3055  -12.9413   20.3628 N   0  0  0  0  0  0
  -25.9336  -11.6550   20.5956 N   0  0  0  0  0  0
  -22.0520  -12.8135   22.0446 N   0  0  0  0  0  0
  -25.4390  -15.1912   20.4067 N   0  0  0  0  0  0
  -31.8893  -14.5247   20.0094 O   0  0  0  0  0  0
  -21.6661   -6.8849   21.4200 O   0  0  0  0  0  0
  -22.3478  -14.5573   20.6816 O   0  0  0  0  0  0
  -24.6201  -31.8724   23.2117 C   0  0  0  0  0  0
  -25.9095  -32.4870   23.8415 C   0  0  1  0  0  0
  -27.2376  -27.4505   20.0747 C   0  0  0  0  0  0
  -25.5948  -33.8676   24.2340 N   0  0  0  0  0  0
  -23.4101  -30.4844   21.5626 C   0  0  2  0  0  0
  -24.8544  -28.9645   20.1095 C   0  0  0  0  0  0
  -22.7488  -29.4615   22.5136 C   0  0  0  0  0  0
  -18.0302  -28.1403   22.8511 C   0  0  0  0  0  0
  -24.1460  -36.7308   23.2617 C   0  0  0  0  0  0
  -25.9350  -30.8323   21.3701 C   0  0  0  0  0  0
  -26.0121  -29.4696   20.7164 C   0  0  0  0  0  0
  -27.2075  -28.7132   20.7113 C   0  0  0  0  0  0
  -26.0805  -26.9829   19.4199 C   0  0  0  0  0  0
  -24.8811  -27.7171   19.4596 C   0  0  0  0  0  0
  -23.6119  -29.8224   20.1744 C   0  0  0  0  0  0
  -25.4115  -36.3178   24.0311 C   0  0  1  0  0  0
  -20.5893  -28.3678   23.1375 C   0  0  2  0  0  0
  -20.6855  -26.9430   22.5450 C   0  0  0  0  0  0
  -19.5817  -26.6399   21.5289 C   0  0  0  0  0  0
  -18.1963  -26.7944   22.1643 C   0  0  0  0  0  0
  -19.1546  -28.8885   23.2898 C   0  0  0  0  0  0
  -18.9467  -30.1503   23.8879 C   0  0  0  0  0  0
  -17.6455  -30.6594   24.0592 C   0  0  0  0  0  0
  -25.9060  -34.9529   23.5123 C   0  0  0  0  0  0
  -16.5363  -29.9095   23.6360 C   0  0  0  0  0  0
  -16.7293  -28.6514   23.0348 C   0  0  0  0  0  0
  -26.4505  -31.6668   25.0762 C   0  0  0  0  0  0
  -25.3690  -31.3803   26.1445 C   0  0  0  0  0  0
  -27.0323  -30.3090   24.6169 C   0  0  0  0  0  0
  -27.6097  -32.4411   25.7511 C   0  0  0  0  0  0
  -27.5593  -37.1798   24.8457 C   0  0  0  0  0  0
  -21.4233  -29.2989   22.3791 N   0  0  0  0  0  0
  -26.4324  -37.3856   23.9393 N   0  0  0  0  0  0
  -24.6727  -31.0753   22.1080 N   0  0  0  0  0  0
  -23.4223  -28.8213   23.3242 O   0  0  0  0  0  0
  -28.3602  -26.6520   20.0881 O   0  0  0  0  0  0
  -26.5601  -34.8966   22.4677 O   0  0  0  0  0  0
  -23.5372  -32.1550   23.7449 O   0  0  0  0  0  0
  -26.1468  -24.7198   21.5917 C   0  0  0  0  0  0
  -27.4641  -24.6588   21.1845 C   0  0  0  0  0  0
  -26.4321  -22.7738   20.7031 C   0  0  0  0  0  0
  -25.4168  -25.8104   22.3267 C   0  0  0  0  0  0
  -26.1231  -21.4368   20.0909 C   0  0  0  0  0  0
  -30.7298  -20.7588   22.8991 C   0  0  0  0  0  0
  -28.5014  -25.7780   21.2295 C   0  0  0  0  0  0
  -30.0503  -18.0531   21.4033 C   0  0  0  0  0  0
  -28.9419  -22.6103   20.5605 C   0  0  0  0  0  0
  -30.7230  -16.8290   20.7387 C   0  0  0  0  0  0
  -30.7196  -19.3529   20.8463 C   0  0  0  0  0  0
  -28.9905  -21.1750   21.1908 C   0  0  0  0  0  0
  -25.4892  -23.5546   21.2178 N   0  0  0  0  0  0
  -27.6708  -23.3088   20.8105 N   0  0  0  0  0  0
  -30.1890  -15.4908   21.0669 N   0  0  0  0  0  0
  -30.3627  -20.6680   21.4680 N   0  3  1  0  0  0
  -31.4405  -12.2578   19.1262 H   0  0  0  0  0  0
  -30.2157  -11.2507   19.8304 H   0  0  0  0  0  0
  -29.6843  -11.7801   17.4262 H   0  0  0  0  0  0
  -29.6675  -13.4915   17.8036 H   0  0  0  0  0  0
  -27.7720  -11.3349   18.8072 H   0  0  0  0  0  0
  -27.3468  -12.7036   17.8204 H   0  0  0  0  0  0
  -27.7107  -14.2658   19.6156 H   0  0  0  0  0  0
  -28.6798  -11.9666   21.3691 H   0  0  0  0  0  0
  -28.5233  -13.6143   21.8954 H   0  0  0  0  0  0
  -25.2736   -9.5694   22.4736 H   0  0  0  0  0  0
  -24.0063   -7.4587   22.7392 H   0  0  0  0  0  0
  -21.0888   -8.8712   19.8889 H   0  0  0  0  0  0
  -22.3664  -10.9670   19.6166 H   0  0  0  0  0  0
  -21.1928   -7.6101   23.9639 H   0  0  0  0  0  0
  -21.1560   -6.0510   25.9046 H   0  0  0  0  0  0
  -22.0595   -2.7580   23.2801 H   0  0  0  0  0  0
  -22.4230  -11.9796   22.4724 H   0  0  0  0  0  0
  -21.1152  -13.1077   22.2782 H   0  0  0  0  0  0
  -24.6928  -15.8709   20.5003 H   0  0  0  0  0  0
  -26.3086  -15.6008   20.0840 H   0  0  0  0  0  0
  -26.7165  -32.5585   23.1171 H   0  0  0  0  0  0
  -25.0260  -33.9846   25.0592 H   0  0  0  0  0  0
  -22.6996  -31.3003   21.4281 H   0  0  0  0  0  0
  -23.3783  -35.9575   23.3330 H   0  0  0  0  0  0
  -24.3542  -36.8906   22.2020 H   0  0  0  0  0  0
  -23.7117  -37.6471   23.6637 H   0  0  0  0  0  0
  -26.0354  -31.5984   20.6010 H   0  0  0  0  0  0
  -26.8230  -30.8939   21.9843 H   0  0  0  0  0  0
  -28.0930  -29.0880   21.2076 H   0  0  0  0  0  0
  -26.0959  -26.0243   18.9181 H   0  0  0  0  0  0
  -23.9963  -27.3250   18.9749 H   0  0  0  0  0  0
  -23.6996  -30.6045   19.4199 H   0  0  0  0  0  0
  -22.7403  -29.2290   19.8943 H   0  0  0  0  0  0
  -25.1262  -36.2106   25.0800 H   0  0  0  0  0  0
  -20.9918  -28.3243   24.1528 H   0  0  0  0  0  0
  -20.5987  -26.2238   23.3603 H   0  0  0  0  0  0
  -21.6691  -26.7631   22.1097 H   0  0  0  0  0  0
  -19.7009  -25.6326   21.1295 H   0  0  0  0  0  0
  -19.6788  -27.3240   20.6854 H   0  0  0  0  0  0
  -17.4284  -26.6789   21.3968 H   0  0  0  0  0  0
  -18.0279  -26.0057   22.8998 H   0  0  0  0  0  0
  -19.7926  -30.7372   24.2170 H   0  0  0  0  0  0
  -17.4997  -31.6266   24.5215 H   0  0  0  0  0  0
  -15.5344  -30.2989   23.7696 H   0  0  0  0  0  0
  -15.8692  -28.0868   22.7019 H   0  0  0  0  0  0
  -24.5888  -30.7162   25.7705 H   0  0  0  0  0  0
  -24.8815  -32.2960   26.4818 H   0  0  0  0  0  0
  -25.7900  -30.8986   27.0274 H   0  0  0  0  0  0
  -26.2873  -29.6871   24.1185 H   0  0  0  0  0  0
  -27.4025  -29.7338   25.4670 H   0  0  0  0  0  0
  -27.8743  -30.4364   23.9354 H   0  0  0  0  0  0
  -27.2748  -33.3744   26.2057 H   0  0  0  0  0  0
  -28.3880  -32.6958   25.0303 H   0  0  0  0  0  0
  -28.0812  -31.8586   26.5434 H   0  0  0  0  0  0
  -28.2623  -38.0091   24.7615 H   0  0  0  0  0  0
  -28.1088  -36.2650   24.6206 H   0  0  0  0  0  0
  -27.2308  -37.1343   25.8853 H   0  0  0  0  0  0
  -20.9508  -29.8552   21.6801 H   0  0  0  0  0  0
  -26.0249  -38.2933   24.1475 H   0  0  0  0  0  0
  -25.8988  -26.7833   22.2357 H   0  0  0  0  0  0
  -25.3811  -25.5868   23.3920 H   0  0  0  0  0  0
  -24.3925  -25.9266   21.9705 H   0  0  0  0  0  0
  -25.1460  -21.4718   19.6110 H   0  0  0  0  0  0
  -26.1065  -20.6325   20.8301 H   0  0  0  0  0  0
  -26.8541  -21.1857   19.3227 H   0  0  0  0  0  0
  -31.7857  -20.5269   23.0435 H   0  0  0  0  0  0
  -30.1338  -20.0651   23.4938 H   0  0  0  0  0  0
  -30.5690  -21.7665   23.2859 H   0  0  0  0  0  0
  -29.5218  -25.3993   21.2429 H   0  0  0  0  0  0
  -28.3961  -26.3538   22.1528 H   0  0  0  0  0  0
  -30.1673  -17.9758   22.4833 H   0  0  0  0  0  0
  -28.9818  -18.0316   21.1877 H   0  0  0  0  0  0
  -29.1203  -22.5842   19.4839 H   0  0  0  0  0  0
  -29.7450  -23.2115   20.9862 H   0  0  0  0  0  0
  -31.7891  -16.8572   20.9755 H   0  0  0  0  0  0
  -30.6679  -16.9476   19.6558 H   0  0  0  0  0  0
  -30.5452  -19.4081   19.7722 H   0  0  0  0  0  0
  -31.8008  -19.2418   20.9535 H   0  0  0  0  0  0
  -28.4939  -20.4591   20.5380 H   0  0  0  0  0  0
  -28.4166  -21.1612   22.1210 H   0  0  0  0  0  0
  -29.3010  -15.3880   21.5332 H   0  0  0  0  0  0
  -30.9875  -21.3160   21.0120 H   0  0  0  0  0  0
  1 25  1  0  0  0
  1 30  2  0  0  0
  1 85  1  0  0  0
  2  3  1  0  0  0
  2 25  1  0  0  0
  2 87  1  0  0  0
  2 88  1  0  0  0
  3  4  1  0  0  0
  3 89  1  0  0  0
  3 90  1  0  0  0
  4  5  1  0  0  0
  4 91  1  0  0  0
  4 92  1  0  0  0
  5  6  1  0  0  0
  5 26  1  0  0  0
  5 93  1  0  0  0
  6 25  1  0  0  0
  6 94  1  0  0  0
  6 95  1  0  0  0
  7  8  2  0  0  0
  7 26  1  0  0  0
  7 29  1  0  0  0
  8  9  1  0  0  0
  8 22  1  0  0  0
  9 10  1  0  0  0
  9 27  2  0  0  0
 10 11  2  0  0  0
 10 15  1  0  0  0
 11 12  1  0  0  0
 11 96  1  0  0  0
 12 13  2  0  0  0
 12 97  1  0  0  0
 13 14  1  0  0  0
 13 31  1  0  0  0
 14 15  2  0  0  0
 14 98  1  0  0  0
 15 99  1  0  0  0
 16 17  2  0  0  0
 16 21  1  0  0  0
 16 31  1  0  0  0
 17 18  1  0  0  0
 17100  1  0  0  0
 18 19  2  0  0  0
 18101  1  0  0  0
 19 20  1  0  0  0
 19 24  1  0  0  0
 20 21  2  0  0  0
 20102  1  0  0  0
 21 23  1  0  0  0
 22 28  1  0  0  0
 22 32  2  0  0  0
 26 27  1  0  0  0
 28103  1  0  0  0
 28104  1  0  0  0
 29105  1  0  0  0
 29106  1  0  0  0
 33 34  1  0  0  0
 33 66  1  0  0  0
 33 70  2  0  0  0
 34 36  1  0  0  0
 34 59  1  0  0  0
 34107  1  0  0  0
 35 44  2  0  0  0
 35 45  1  0  0  0
 35 68  1  0  0  0
 36 56  1  0  0  0
 36108  1  0  0  0
 37 39  1  0  0  0
 37 47  1  0  0  0
 37 66  1  0  0  0
 37109  1  0  0  0
 38 43  2  0  0  0
 38 46  1  0  0  0
 38 47  1  0  0  0
 39 64  1  0  0  0
 39 67  2  0  0  0
 40 52  1  0  0  0
 40 53  2  0  0  0
 40 58  1  0  0  0
 41110  1  0  0  0
 41111  1  0  0  0
 41112  1  0  0  0
 41 48  1  0  0  0
 42 43  1  0  0  0
 42 66  1  0  0  0
 42113  1  0  0  0
 42114  1  0  0  0
 43 44  1  0  0  0
 44115  1  0  0  0
 45 46  2  0  0  0
 45116  1  0  0  0
 46117  1  0  0  0
 47118  1  0  0  0
 47119  1  0  0  0
 48 56  1  0  0  0
 48 65  1  0  0  0
 48120  1  0  0  0
 49 50  1  0  0  0
 49 53  1  0  0  0
 49 64  1  0  0  0
 49121  1  0  0  0
 50 51  1  0  0  0
 50122  1  0  0  0
 50123  1  0  0  0
 51 52  1  0  0  0
 51124  1  0  0  0
 51125  1  0  0  0
 52126  1  0  0  0
 52127  1  0  0  0
 53 54  1  0  0  0
 54 55  2  0  0  0
 54128  1  0  0  0
 55 57  1  0  0  0
 55129  1  0  0  0
 56 69  2  0  0  0
 57 58  2  0  0  0
 57130  1  0  0  0
 58131  1  0  0  0
 59 60  1  0  0  0
 59 61  1  0  0  0
 59 62  1  0  0  0
 60132  1  0  0  0
 60133  1  0  0  0
 60134  1  0  0  0
 61135  1  0  0  0
 61136  1  0  0  0
 61137  1  0  0  0
 62138  1  0  0  0
 62139  1  0  0  0
 62140  1  0  0  0
 63 65  1  0  0  0
 63141  1  0  0  0
 63142  1  0  0  0
 63143  1  0  0  0
 64144  1  0  0  0
 65145  1  0  0  0
 68 77  1  0  0  0
 71 72  2  0  0  0
 71 74  1  0  0  0
 71 83  1  0  0  0
 72 77  1  0  0  0
 72 84  1  0  0  0
 73 75  1  0  0  0
 73 83  2  0  0  0
 73 84  1  0  0  0
 74146  1  0  0  0
 74147  1  0  0  0
 74148  1  0  0  0
 75149  1  0  0  0
 75150  1  0  0  0
 75151  1  0  0  0
 76152  1  0  0  0
 76153  1  0  0  0
 76154  1  0  0  0
 76 86  1  0  0  0
 77155  1  0  0  0
 77156  1  0  0  0
 78 80  1  0  0  0
 78 81  1  0  0  0
 78157  1  0  0  0
 78158  1  0  0  0
 79 82  1  0  0  0
 79 84  1  0  0  0
 79159  1  0  0  0
 79160  1  0  0  0
 80 85  1  0  0  0
 80161  1  0  0  0
 80162  1  0  0  0
 81 86  1  0  0  0
 81163  1  0  0  0
 81164  1  0  0  0
 82 86  1  0  0  0
 82165  1  0  0  0
 82166  1  0  0  0
 85167  1  0  0  0
 86168  1  0  0  0
M  CHG  1  86   1
M  ISO  4   1 100  68 101  77 101  85 100
M  END
> <chiral flag>
0

> <version>
0

> <s_m_source_file>
/data/baiqing/PycharmProjects/Reinvent-master-3.2/result/LINK_invent/BTK/process_docking_weight1_custom_sum_contain_oxygen_bond_distance_aromatic_linkinvent_7_9_3/rearranged_h_0049.sdf

> <i_m_source_file_index>
76

> <r_mmod_Potential_Energy-OPLS-2005>
-167.945404052734

> <r_mmod_Stretch_Energy-OPLS-2005>
43.796817779541

> <r_mmod_Bend_Energy-OPLS-2005>
122.968467712402

> <r_mmod_Torsional_Energy-OPLS-2005>
270.875335693359

> <r_mmod_Improper_Torsional_Energy-OPLS-2005>
4.43131923675537

> <r_mmod_Van_der_Waal_Energy-OPLS-2005>
132.116546630859

> <r_mmod_Electrostatic_Energy-OPLS-2005>
-271.318023681641

> <r_mmod_Solvation_Energy-OPLS-2005>
-487.502288818359

> <b_mmod_Minimization_Converged-OPLS-2005>
0

> <r_mmod_RMS_Derivative-OPLS-2005>
6.77580881118774

$$$$
78
                    3D
 Structure written by MMmdl.
160168  0  0  1  0            999 V2000
  -30.7014  -14.4737   20.5633 C   0  0  0  0  0  0
  -30.4267  -12.2931   19.4488 C   0  0  0  0  0  0
  -29.5020  -12.4640   18.2244 C   0  0  0  0  0  0
  -28.0232  -12.3414   18.6335 C   0  0  0  0  0  0
  -27.6622  -13.2033   19.8784 C   0  0  2  0  0  0
  -28.7032  -13.0013   21.0034 C   0  0  0  0  0  0
  -25.2646  -13.8209   20.5804 C   0  0  0  0  0  0
  -24.1860  -13.0434   20.9228 C   0  0  0  0  0  0
  -24.6415  -11.6903   20.8728 C   0  0  0  0  0  0
  -23.9091  -10.4287   21.0341 C   0  0  0  0  0  0
  -24.3627   -9.4215   21.9137 C   0  0  0  0  0  0
  -23.6311   -8.2241   22.0730 C   0  0  0  0  0  0
  -22.4274   -8.0289   21.3554 C   0  0  0  0  0  0
  -21.9932   -9.0242   20.4603 C   0  0  0  0  0  0
  -22.7244  -10.2134   20.2976 C   0  0  0  0  0  0
  -21.6862   -6.0731   22.5283 C   0  0  0  0  0  0
  -21.4011   -6.5643   23.8208 C   0  0  0  0  0  0
  -21.3640   -5.6804   24.9192 C   0  0  0  0  0  0
  -21.6000   -4.3061   24.7214 C   0  0  0  0  0  0
  -21.8795   -3.8149   23.4319 C   0  0  0  0  0  0
  -21.9194   -4.6975   22.3378 C   0  0  0  0  0  0
  -22.7875  -13.5176   21.1805 C   0  0  0  0  0  0
  -22.1630   -4.2159   21.0949 F   0  0  0  0  0  0
  -21.5678   -3.4534   25.7710 F   0  0  0  0  0  0
  -30.0252  -13.2992   20.4445 N   0  0  0  0  0  0
  -26.3046  -12.9343   20.3430 N   0  0  0  0  0  0
  -25.9301  -11.6504   20.5760 N   0  0  0  0  0  0
  -22.0492  -12.8174   22.0353 N   0  0  0  0  0  0
  -25.4459  -15.1915   20.4238 N   0  0  0  0  0  0
  -31.8595  -14.6185   20.1757 O   0  0  0  0  0  0
  -21.6627   -6.8904   21.4253 O   0  0  0  0  0  0
  -22.3588  -14.5478   20.6644 O   0  0  0  0  0  0
  -24.6078  -31.8751   23.2101 C   0  0  0  0  0  0
  -25.8990  -32.4852   23.8396 C   0  0  1  0  0  0
  -27.2474  -27.4700   20.1029 C   0  0  0  0  0  0
  -25.5889  -33.8658   24.2342 N   0  0  0  0  0  0
  -23.3891  -30.4930   21.5551 C   0  0  2  0  0  0
  -24.8360  -28.9614   20.1200 C   0  0  0  0  0  0
  -22.7376  -29.4694   22.5084 C   0  0  0  0  0  0
  -18.0273  -28.1394   22.8497 C   0  0  0  0  0  0
  -24.1475  -36.7311   23.2649 C   0  0  0  0  0  0
  -25.9130  -30.8522   21.3535 C   0  0  0  0  0  0
  -25.9935  -29.4885   20.7029 C   0  0  0  0  0  0
  -27.1961  -28.7558   20.6830 C   0  0  0  0  0  0
  -26.0635  -26.9398   19.5285 C   0  0  0  0  0  0
  -24.8643  -27.6839   19.5347 C   0  0  0  0  0  0
  -23.5889  -29.8179   20.1707 C   0  0  0  0  0  0
  -25.4114  -36.3139   24.0345 C   0  0  1  0  0  0
  -20.5851  -28.3672   23.1369 C   0  0  2  0  0  0
  -20.6772  -26.9427   22.5438 C   0  0  0  0  0  0
  -19.5756  -26.6404   21.5226 C   0  0  0  0  0  0
  -18.1934  -26.7945   22.1627 C   0  0  0  0  0  0
  -19.1516  -28.8851   23.2920 C   0  0  0  0  0  0
  -18.9452  -30.1475   23.8897 C   0  0  0  0  0  0
  -17.6455  -30.6602   24.0586 C   0  0  0  0  0  0
  -25.9034  -34.9498   23.5132 C   0  0  0  0  0  0
  -16.5347  -29.9102   23.6354 C   0  0  0  0  0  0
  -16.7265  -28.6533   23.0340 C   0  0  0  0  0  0
  -26.4455  -31.6628   25.0710 C   0  0  0  0  0  0
  -25.3721  -31.3678   26.1441 C   0  0  0  0  0  0
  -27.0300  -30.3100   24.6039 C   0  0  0  0  0  0
  -27.6061  -32.4346   25.7459 C   0  0  0  0  0  0
  -27.5578  -37.1823   24.8499 C   0  0  0  0  0  0
  -21.4121  -29.3030   22.3771 N   0  0  0  0  0  0
  -26.4327  -37.3805   23.9388 N   0  0  0  0  0  0
  -24.6547  -31.0860   22.0998 N   0  0  0  0  0  0
  -23.4188  -28.8324   23.3164 O   0  0  0  0  0  0
  -28.4677  -26.8193   20.1222 O   0  0  0  0  0  0
  -26.5611  -34.8947   22.4698 O   0  0  0  0  0  0
  -23.5301  -32.1532   23.7528 O   0  0  0  0  0  0
  -29.7700  -19.9395   19.1704 C   0  0  0  0  0  0
  -29.4740  -20.0830   20.5424 C   0  0  0  0  0  0
  -28.5726  -21.8563   18.6960 C   0  0  0  0  0  0
  -28.3249  -22.0606   20.0884 C   0  0  0  0  0  0
  -27.9899  -22.7033   17.5783 C   0  0  0  0  0  0
  -29.8892  -18.9701   21.5088 C   0  0  0  0  0  0
  -27.4451  -23.1993   20.6334 C   0  0  0  0  0  0
  -28.9570  -17.7254   21.4488 C   0  0  0  0  0  0
  -28.1309  -24.5453   21.0002 C   0  0  0  0  0  0
  -29.6222  -16.3635   21.8369 C   0  0  0  0  0  0
  -28.5569  -25.4327   19.8094 C   0  0  0  0  0  0
  -29.3193  -20.8177   18.2475 N   0  0  0  0  0  0
  -28.7763  -21.1592   21.0098 N   0  0  0  0  0  0
  -29.9395  -15.5783   20.6371 N   0  0  0  0  0  0
  -31.4771  -12.3764   19.1578 H   0  0  0  0  0  0
  -30.3210  -11.2915   19.8708 H   0  0  0  0  0  0
  -29.7338  -11.7116   17.4687 H   0  0  0  0  0  0
  -29.6757  -13.4359   17.7596 H   0  0  0  0  0  0
  -27.8457  -11.2896   18.8657 H   0  0  0  0  0  0
  -27.3707  -12.5959   17.7983 H   0  0  0  0  0  0
  -27.6948  -14.2503   19.5743 H   0  0  0  0  0  0
  -28.6722  -11.9651   21.3495 H   0  0  0  0  0  0
  -28.4836  -13.6165   21.8769 H   0  0  0  0  0  0
  -25.2769   -9.5737   22.4737 H   0  0  0  0  0  0
  -23.9989   -7.4682   22.7511 H   0  0  0  0  0  0
  -21.0825   -8.8739   19.8989 H   0  0  0  0  0  0
  -22.3651  -10.9669   19.6084 H   0  0  0  0  0  0
  -21.1990   -7.6166   23.9694 H   0  0  0  0  0  0
  -21.1471   -6.0547   25.9097 H   0  0  0  0  0  0
  -22.0587   -2.7608   23.2812 H   0  0  0  0  0  0
  -22.4094  -11.9796   22.4679 H   0  0  0  0  0  0
  -21.1072  -13.1123   22.2544 H   0  0  0  0  0  0
  -24.6948  -15.8653   20.5407 H   0  0  0  0  0  0
  -26.3328  -15.6270   20.2021 H   0  0  0  0  0  0
  -26.7076  -32.5549   23.1177 H   0  0  0  0  0  0
  -24.9980  -33.9862   25.0442 H   0  0  0  0  0  0
  -22.6761  -31.3098   21.4175 H   0  0  0  0  0  0
  -23.3752  -35.9630   23.3368 H   0  0  0  0  0  0
  -24.3548  -36.8865   22.2053 H   0  0  0  0  0  0
  -23.7222  -37.6533   23.6622 H   0  0  0  0  0  0
  -26.0120  -31.6259   20.5900 H   0  0  0  0  0  0
  -26.8053  -30.9070   21.9651 H   0  0  0  0  0  0
  -28.0933  -29.1785   21.1145 H   0  0  0  0  0  0
  -26.0360  -25.9610   19.0779 H   0  0  0  0  0  0
  -23.9709  -27.2685   19.0931 H   0  0  0  0  0  0
  -23.6799  -30.5871   19.4045 H   0  0  0  0  0  0
  -22.7151  -29.2265   19.8869 H   0  0  0  0  0  0
  -25.1281  -36.2044   25.0851 H   0  0  0  0  0  0
  -20.9931  -28.3220   24.1493 H   0  0  0  0  0  0
  -20.5713  -26.2275   23.3605 H   0  0  0  0  0  0
  -21.6643  -26.7504   22.1203 H   0  0  0  0  0  0
  -19.6923  -25.6311   21.1261 H   0  0  0  0  0  0
  -19.6699  -27.3210   20.6750 H   0  0  0  0  0  0
  -17.4211  -26.6732   21.4026 H   0  0  0  0  0  0
  -18.0324  -26.0081   22.9013 H   0  0  0  0  0  0
  -19.7921  -30.7320   24.2250 H   0  0  0  0  0  0
  -17.4999  -31.6274   24.5195 H   0  0  0  0  0  0
  -15.5345  -30.3003   23.7664 H   0  0  0  0  0  0
  -15.8676  -28.0859   22.7021 H   0  0  0  0  0  0
  -24.5897  -30.7056   25.7714 H   0  0  0  0  0  0
  -24.8878  -32.2790   26.4968 H   0  0  0  0  0  0
  -25.8059  -30.8763   27.0152 H   0  0  0  0  0  0
  -26.2811  -29.6850   24.1156 H   0  0  0  0  0  0
  -27.4190  -29.7372   25.4472 H   0  0  0  0  0  0
  -27.8591  -30.4492   23.9092 H   0  0  0  0  0  0
  -27.2724  -33.3655   26.2078 H   0  0  0  0  0  0
  -28.3828  -32.6910   25.0228 H   0  0  0  0  0  0
  -28.0773  -31.8424   26.5322 H   0  0  0  0  0  0
  -28.2680  -38.0039   24.7442 H   0  0  0  0  0  0
  -28.0985  -36.2562   24.6456 H   0  0  0  0  0  0
  -27.2265  -37.1632   25.8905 H   0  0  0  0  0  0
  -20.9323  -29.8669   21.6886 H   0  0  0  0  0  0
  -26.0229  -38.2906   24.1337 H   0  0  0  0  0  0
  -30.3255  -19.0857   18.8091 H   0  0  0  0  0  0
  -27.3825  -23.5344   17.9152 H   0  0  0  0  0  0
  -27.3401  -22.0916   16.9506 H   0  0  0  0  0  0
  -28.7899  -23.0898   16.9452 H   0  0  0  0  0  0
  -29.9473  -19.3588   22.5268 H   0  0  0  0  0  0
  -30.9045  -18.6800   21.2403 H   0  0  0  0  0  0
  -26.9725  -22.8273   21.5424 H   0  0  0  0  0  0
  -26.6092  -23.3822   19.9584 H   0  0  0  0  0  0
  -28.5436  -17.6340   20.4415 H   0  0  0  0  0  0
  -28.0893  -17.9172   22.0846 H   0  0  0  0  0  0
  -28.9758  -24.3924   21.6748 H   0  0  0  0  0  0
  -27.4125  -25.1205   21.5881 H   0  0  0  0  0  0
  -28.9506  -15.7856   22.4718 H   0  0  0  0  0  0
  -30.5253  -16.5392   22.4263 H   0  0  0  0  0  0
  -27.9932  -25.2440   18.9053 H   0  0  0  0  0  0
  -29.5959  -25.2153   19.5536 H   0  0  0  0  0  0
  -30.2783  -16.2140   19.9326 H   0  0  0  0  0  0
  1 25  1  0  0  0
  1 30  2  0  0  0
  1 84  1  0  0  0
  2  3  1  0  0  0
  2 25  1  0  0  0
  2 85  1  0  0  0
  2 86  1  0  0  0
  3  4  1  0  0  0
  3 87  1  0  0  0
  3 88  1  0  0  0
  4  5  1  0  0  0
  4 89  1  0  0  0
  4 90  1  0  0  0
  5  6  1  0  0  0
  5 26  1  0  0  0
  5 91  1  0  0  0
  6 25  1  0  0  0
  6 92  1  0  0  0
  6 93  1  0  0  0
  7  8  2  0  0  0
  7 26  1  0  0  0
  7 29  1  0  0  0
  8  9  1  0  0  0
  8 22  1  0  0  0
  9 10  1  0  0  0
  9 27  2  0  0  0
 10 11  2  0  0  0
 10 15  1  0  0  0
 11 12  1  0  0  0
 11 94  1  0  0  0
 12 13  2  0  0  0
 12 95  1  0  0  0
 13 14  1  0  0  0
 13 31  1  0  0  0
 14 15  2  0  0  0
 14 96  1  0  0  0
 15 97  1  0  0  0
 16 17  2  0  0  0
 16 21  1  0  0  0
 16 31  1  0  0  0
 17 18  1  0  0  0
 17 98  1  0  0  0
 18 19  2  0  0  0
 18 99  1  0  0  0
 19 20  1  0  0  0
 19 24  1  0  0  0
 20 21  2  0  0  0
 20100  1  0  0  0
 21 23  1  0  0  0
 22 28  1  0  0  0
 22 32  2  0  0  0
 26 27  1  0  0  0
 28101  1  0  0  0
 28102  1  0  0  0
 29103  1  0  0  0
 29104  1  0  0  0
 33 34  1  0  0  0
 33 66  1  0  0  0
 33 70  2  0  0  0
 34 36  1  0  0  0
 34 59  1  0  0  0
 34105  1  0  0  0
 35 44  2  0  0  0
 35 45  1  0  0  0
 35 68  1  0  0  0
 36 56  1  0  0  0
 36106  1  0  0  0
 37 39  1  0  0  0
 37 47  1  0  0  0
 37 66  1  0  0  0
 37107  1  0  0  0
 38 43  2  0  0  0
 38 46  1  0  0  0
 38 47  1  0  0  0
 39 64  1  0  0  0
 39 67  2  0  0  0
 40 52  1  0  0  0
 40 53  2  0  0  0
 40 58  1  0  0  0
 41108  1  0  0  0
 41109  1  0  0  0
 41110  1  0  0  0
 41 48  1  0  0  0
 42 43  1  0  0  0
 42 66  1  0  0  0
 42111  1  0  0  0
 42112  1  0  0  0
 43 44  1  0  0  0
 44113  1  0  0  0
 45 46  2  0  0  0
 45114  1  0  0  0
 46115  1  0  0  0
 47116  1  0  0  0
 47117  1  0  0  0
 48 56  1  0  0  0
 48 65  1  0  0  0
 48118  1  0  0  0
 49 50  1  0  0  0
 49 53  1  0  0  0
 49 64  1  0  0  0
 49119  1  0  0  0
 50 51  1  0  0  0
 50120  1  0  0  0
 50121  1  0  0  0
 51 52  1  0  0  0
 51122  1  0  0  0
 51123  1  0  0  0
 52124  1  0  0  0
 52125  1  0  0  0
 53 54  1  0  0  0
 54 55  2  0  0  0
 54126  1  0  0  0
 55 57  1  0  0  0
 55127  1  0  0  0
 56 69  2  0  0  0
 57 58  2  0  0  0
 57128  1  0  0  0
 58129  1  0  0  0
 59 60  1  0  0  0
 59 61  1  0  0  0
 59 62  1  0  0  0
 60130  1  0  0  0
 60131  1  0  0  0
 60132  1  0  0  0
 61133  1  0  0  0
 61134  1  0  0  0
 61135  1  0  0  0
 62136  1  0  0  0
 62137  1  0  0  0
 62138  1  0  0  0
 63 65  1  0  0  0
 63139  1  0  0  0
 63140  1  0  0  0
 63141  1  0  0  0
 64142  1  0  0  0
 65143  1  0  0  0
 68 81  1  0  0  0
 71 72  2  0  0  0
 71 82  1  0  0  0
 71144  1  0  0  0
 72 76  1  0  0  0
 72 83  1  0  0  0
 73 74  1  0  0  0
 73 75  1  0  0  0
 73 82  2  0  0  0
 74 77  1  0  0  0
 74 83  2  0  0  0
 75145  1  0  0  0
 75146  1  0  0  0
 75147  1  0  0  0
 76 78  1  0  0  0
 76148  1  0  0  0
 76149  1  0  0  0
 77 79  1  0  0  0
 77150  1  0  0  0
 77151  1  0  0  0
 78 80  1  0  0  0
 78152  1  0  0  0
 78153  1  0  0  0
 79 81  1  0  0  0
 79154  1  0  0  0
 79155  1  0  0  0
 80 84  1  0  0  0
 80156  1  0  0  0
 80157  1  0  0  0
 81158  1  0  0  0
 81159  1  0  0  0
 84160  1  0  0  0
M  ISO  4   1 100  68 101  81 101  84 100
M  END
> <chiral flag>
0

> <version>
0

> <s_m_source_file>
/data/baiqing/PycharmProjects/Reinvent-master-3.2/result/LINK_invent/BTK/process_docking_weight1_custom_sum_contain_oxygen_bond_distance_aromatic_linkinvent_7_9_3/rearranged_h_0049.sdf

> <i_m_source_file_index>
77

> <r_mmod_Potential_Energy-OPLS-2005>
51.3314781188965

> <r_mmod_Stretch_Energy-OPLS-2005>
41.5596885681152

> <r_mmod_Bend_Energy-OPLS-2005>
127.526527404785

> <r_mmod_Torsional_Energy-OPLS-2005>
270.320678710938

> <r_mmod_Improper_Torsional_Energy-OPLS-2005>
20.8715991973877

> <r_mmod_Van_der_Waal_Energy-OPLS-2005>
150.876922607422

> <r_mmod_Electrostatic_Energy-OPLS-2005>
-357.813720703125

> <r_mmod_Solvation_Energy-OPLS-2005>
-218.059783935547

> <b_mmod_Minimization_Converged-OPLS-2005>
0

> <r_mmod_RMS_Derivative-OPLS-2005>
6.82648420333862

$$$$
79
                    3D
 Structure written by MMmdl.
157165  0  0  1  0            999 V2000
  -30.6973  -14.5063   20.5561 C   0  0  0  0  0  0
  -30.4276  -12.3237   19.4279 C   0  0  0  0  0  0
  -29.4955  -12.4973   18.2099 C   0  0  0  0  0  0
  -28.0188  -12.3562   18.6259 C   0  0  0  0  0  0
  -27.6621  -13.2091   19.8730 C   0  0  2  0  0  0
  -28.7076  -13.0146   20.9963 C   0  0  0  0  0  0
  -25.2596  -13.8160   20.5688 C   0  0  0  0  0  0
  -24.1848  -13.0432   20.9182 C   0  0  0  0  0  0
  -24.6410  -11.6908   20.8743 C   0  0  0  0  0  0
  -23.9070  -10.4289   21.0404 C   0  0  0  0  0  0
  -24.3618   -9.4209   21.9193 C   0  0  0  0  0  0
  -23.6291   -8.2243   22.0758 C   0  0  0  0  0  0
  -22.4272   -8.0280   21.3549 C   0  0  0  0  0  0
  -21.9918   -9.0252   20.4646 C   0  0  0  0  0  0
  -22.7245  -10.2129   20.3054 C   0  0  0  0  0  0
  -21.6862   -6.0742   22.5283 C   0  0  0  0  0  0
  -21.4009   -6.5641   23.8215 C   0  0  0  0  0  0
  -21.3656   -5.6793   24.9170 C   0  0  0  0  0  0
  -21.6043   -4.3058   24.7226 C   0  0  0  0  0  0
  -21.8823   -3.8149   23.4349 C   0  0  0  0  0  0
  -21.9189   -4.6967   22.3403 C   0  0  0  0  0  0
  -22.7872  -13.5232   21.1840 C   0  0  0  0  0  0
  -22.1664   -4.2149   21.0988 F   0  0  0  0  0  0
  -21.5625   -3.4545   25.7739 F   0  0  0  0  0  0
  -30.0355  -13.3212   20.4387 N   0  0  0  0  0  0
  -26.3044  -12.9340   20.3374 N   0  0  0  0  0  0
  -25.9338  -11.6500   20.5788 N   0  0  0  0  0  0
  -22.0504  -12.8210   22.0376 N   0  0  0  0  0  0
  -25.4318  -15.1876   20.4069 N   0  0  0  0  0  0
  -31.8290  -14.6865   20.1004 O   0  0  0  0  0  0
  -21.6645   -6.8878   21.4242 O   0  0  0  0  0  0
  -22.3566  -14.5553   20.6706 O   0  0  0  0  0  0
  -24.6197  -31.8650   23.2066 C   0  0  0  0  0  0
  -25.9068  -32.4813   23.8375 C   0  0  1  0  0  0
  -27.2445  -27.4030   20.0787 C   0  0  0  0  0  0
  -25.5915  -33.8605   24.2307 N   0  0  0  0  0  0
  -23.4094  -30.4853   21.5515 C   0  0  2  0  0  0
  -24.8559  -28.9498   20.1138 C   0  0  0  0  0  0
  -22.7428  -29.4628   22.5010 C   0  0  0  0  0  0
  -18.0265  -28.1382   22.8488 C   0  0  0  0  0  0
  -24.1477  -36.7285   23.2649 C   0  0  0  0  0  0
  -25.9411  -30.8204   21.3621 C   0  0  0  0  0  0
  -26.0197  -29.4517   20.7082 C   0  0  0  0  0  0
  -27.2147  -28.6870   20.6853 C   0  0  0  0  0  0
  -26.0535  -26.9299   19.4756 C   0  0  0  0  0  0
  -24.8699  -27.6906   19.4949 C   0  0  0  0  0  0
  -23.6162  -29.8159   20.1675 C   0  0  0  0  0  0
  -25.4107  -36.3103   24.0341 C   0  0  1  0  0  0
  -20.5852  -28.3663   23.1318 C   0  0  2  0  0  0
  -20.6762  -26.9401   22.5415 C   0  0  0  0  0  0
  -19.5743  -26.6385   21.5211 C   0  0  0  0  0  0
  -18.1918  -26.7927   22.1616 C   0  0  0  0  0  0
  -19.1510  -28.8845   23.2903 C   0  0  0  0  0  0
  -18.9443  -30.1451   23.8913 C   0  0  0  0  0  0
  -17.6451  -30.6600   24.0554 C   0  0  0  0  0  0
  -25.9044  -34.9468   23.5125 C   0  0  0  0  0  0
  -16.5339  -29.9091   23.6340 C   0  0  0  0  0  0
  -16.7251  -28.6503   23.0362 C   0  0  0  0  0  0
  -26.4485  -31.6599   25.0710 C   0  0  0  0  0  0
  -25.3738  -31.3643   26.1445 C   0  0  0  0  0  0
  -27.0339  -30.3065   24.6062 C   0  0  0  0  0  0
  -27.6048  -32.4318   25.7487 C   0  0  0  0  0  0
  -27.5561  -37.1816   24.8476 C   0  0  0  0  0  0
  -21.4148  -29.3031   22.3742 N   0  0  0  0  0  0
  -26.4281  -37.3795   23.9416 N   0  0  0  0  0  0
  -24.6759  -31.0701   22.0995 N   0  0  0  0  0  0
  -23.4174  -28.8173   23.3078 O   0  0  0  0  0  0
  -28.4151  -26.6494   20.0901 O   0  0  0  0  0  0
  -26.5599  -34.8922   22.4682 O   0  0  0  0  0  0
  -23.5377  -32.1413   23.7442 O   0  0  0  0  0  0
  -29.4451  -21.1403   22.6252 C   0  0  0  0  0  0
  -29.4629  -20.4215   20.0429 C   0  0  0  0  0  0
  -29.5211  -21.7904   20.4341 C   0  0  0  0  0  0
  -29.3667  -19.4459   21.0779 C   0  0  0  0  0  0
  -29.5004  -20.0445   18.5643 C   0  0  0  0  0  0
  -29.6104  -22.9579   19.4236 C   0  0  0  0  0  0
  -29.1299  -17.9268   20.8790 C   0  0  0  0  0  0
  -29.6318  -24.4382   19.9602 C   0  0  0  0  0  0
  -30.3533  -16.9746   21.0614 C   0  0  0  0  0  0
  -28.3439  -25.2603   19.6803 C   0  0  0  0  0  0
  -29.5121  -22.1198   21.7357 N   0  0  0  0  0  0
  -29.3695  -19.8406   22.3652 N   0  0  0  0  0  0
  -29.9787  -15.5352   21.0543 N   0  0  0  0  0  0
  -31.4717  -12.4253   19.1239 H   0  0  0  0  0  0
  -30.3373  -11.3177   19.8410 H   0  0  0  0  0  0
  -29.7364  -11.7595   17.4438 H   0  0  0  0  0  0
  -29.6591  -13.4768   17.7558 H   0  0  0  0  0  0
  -27.8352  -11.3011   18.8365 H   0  0  0  0  0  0
  -27.3651  -12.6146   17.7923 H   0  0  0  0  0  0
  -27.6984  -14.2529   19.5595 H   0  0  0  0  0  0
  -28.6921  -11.9844   21.3547 H   0  0  0  0  0  0
  -28.4688  -13.6291   21.8652 H   0  0  0  0  0  0
  -25.2760   -9.5688   22.4774 H   0  0  0  0  0  0
  -24.0003   -7.4641   22.7482 H   0  0  0  0  0  0
  -21.0856   -8.8769   19.8952 H   0  0  0  0  0  0
  -22.3712  -10.9668   19.6159 H   0  0  0  0  0  0
  -21.2001   -7.6150   23.9716 H   0  0  0  0  0  0
  -21.1475   -6.0526   25.9073 H   0  0  0  0  0  0
  -22.0601   -2.7612   23.2856 H   0  0  0  0  0  0
  -22.4113  -11.9845   22.4734 H   0  0  0  0  0  0
  -21.1116  -13.1227   22.2564 H   0  0  0  0  0  0
  -24.6614  -15.8407   20.5026 H   0  0  0  0  0  0
  -26.2770  -15.6213   20.0585 H   0  0  0  0  0  0
  -26.7134  -32.5517   23.1125 H   0  0  0  0  0  0
  -25.0115  -33.9771   25.0490 H   0  0  0  0  0  0
  -22.7009  -31.3047   21.4102 H   0  0  0  0  0  0
  -23.3756  -35.9606   23.3337 H   0  0  0  0  0  0
  -24.3556  -36.8880   22.2058 H   0  0  0  0  0  0
  -23.7205  -37.6488   23.6647 H   0  0  0  0  0  0
  -26.0494  -31.5843   20.5907 H   0  0  0  0  0  0
  -26.8315  -30.8792   21.9773 H   0  0  0  0  0  0
  -28.1148  -29.0732   21.1420 H   0  0  0  0  0  0
  -26.0125  -25.9721   18.9790 H   0  0  0  0  0  0
  -23.9779  -27.2993   19.0259 H   0  0  0  0  0  0
  -23.7149  -30.5906   19.4064 H   0  0  0  0  0  0
  -22.7413  -29.2321   19.8761 H   0  0  0  0  0  0
  -25.1274  -36.1971   25.0830 H   0  0  0  0  0  0
  -20.9918  -28.3222   24.1448 H   0  0  0  0  0  0
  -20.5696  -26.2259   23.3600 H   0  0  0  0  0  0
  -21.6632  -26.7472   22.1189 H   0  0  0  0  0  0
  -19.6927  -25.6302   21.1234 H   0  0  0  0  0  0
  -19.6698  -27.3205   20.6751 H   0  0  0  0  0  0
  -17.4190  -26.6678   21.4015 H   0  0  0  0  0  0
  -18.0323  -26.0051   22.8993 H   0  0  0  0  0  0
  -19.7923  -30.7253   24.2295 H   0  0  0  0  0  0
  -17.5005  -31.6282   24.5148 H   0  0  0  0  0  0
  -15.5345  -30.2999   23.7673 H   0  0  0  0  0  0
  -15.8635  -28.0829   22.7096 H   0  0  0  0  0  0
  -24.5968  -30.6930   25.7755 H   0  0  0  0  0  0
  -24.8856  -32.2762   26.4894 H   0  0  0  0  0  0
  -25.8098  -30.8822   27.0203 H   0  0  0  0  0  0
  -26.2892  -29.6823   24.1108 H   0  0  0  0  0  0
  -27.4151  -29.7282   25.4491 H   0  0  0  0  0  0
  -27.8683  -30.4429   23.9172 H   0  0  0  0  0  0
  -27.2693  -33.3659   26.1994 H   0  0  0  0  0  0
  -28.3893  -32.6819   25.0329 H   0  0  0  0  0  0
  -28.0658  -31.8475   26.5458 H   0  0  0  0  0  0
  -28.2597  -38.0103   24.7521 H   0  0  0  0  0  0
  -28.1039  -36.2633   24.6306 H   0  0  0  0  0  0
  -27.2266  -37.1439   25.8878 H   0  0  0  0  0  0
  -20.9340  -29.8721   21.6917 H   0  0  0  0  0  0
  -26.0168  -38.2874   24.1427 H   0  0  0  0  0  0
  -29.4296  -21.4326   23.6651 H   0  0  0  0  0  0
  -30.4391  -20.3747   18.1171 H   0  0  0  0  0  0
  -28.6848  -20.5248   18.0213 H   0  0  0  0  0  0
  -29.4283  -18.9741   18.3805 H   0  0  0  0  0  0
  -28.8006  -22.8500   18.7025 H   0  0  0  0  0  0
  -30.5218  -22.7956   18.8463 H   0  0  0  0  0  0
  -28.6526  -17.7361   19.9215 H   0  0  0  0  0  0
  -28.3736  -17.6383   21.6106 H   0  0  0  0  0  0
  -30.4515  -24.9531   19.4589 H   0  0  0  0  0  0
  -29.8912  -24.4883   21.0168 H   0  0  0  0  0  0
  -30.8499  -17.1930   22.0080 H   0  0  0  0  0  0
  -31.0808  -17.1857   20.2762 H   0  0  0  0  0  0
  -27.5156  -24.7636   20.1859 H   0  0  0  0  0  0
  -28.1399  -25.2290   18.6089 H   0  0  0  0  0  0
  -29.0670  -15.2958   21.4153 H   0  0  0  0  0  0
  1 25  1  0  0  0
  1 30  2  0  0  0
  1 83  1  0  0  0
  2  3  1  0  0  0
  2 25  1  0  0  0
  2 84  1  0  0  0
  2 85  1  0  0  0
  3  4  1  0  0  0
  3 86  1  0  0  0
  3 87  1  0  0  0
  4  5  1  0  0  0
  4 88  1  0  0  0
  4 89  1  0  0  0
  5  6  1  0  0  0
  5 26  1  0  0  0
  5 90  1  0  0  0
  6 25  1  0  0  0
  6 91  1  0  0  0
  6 92  1  0  0  0
  7  8  2  0  0  0
  7 26  1  0  0  0
  7 29  1  0  0  0
  8  9  1  0  0  0
  8 22  1  0  0  0
  9 10  1  0  0  0
  9 27  2  0  0  0
 10 11  2  0  0  0
 10 15  1  0  0  0
 11 12  1  0  0  0
 11 93  1  0  0  0
 12 13  2  0  0  0
 12 94  1  0  0  0
 13 14  1  0  0  0
 13 31  1  0  0  0
 14 15  2  0  0  0
 14 95  1  0  0  0
 15 96  1  0  0  0
 16 17  2  0  0  0
 16 21  1  0  0  0
 16 31  1  0  0  0
 17 18  1  0  0  0
 17 97  1  0  0  0
 18 19  2  0  0  0
 18 98  1  0  0  0
 19 20  1  0  0  0
 19 24  1  0  0  0
 20 21  2  0  0  0
 20 99  1  0  0  0
 21 23  1  0  0  0
 22 28  1  0  0  0
 22 32  2  0  0  0
 26 27  1  0  0  0
 28100  1  0  0  0
 28101  1  0  0  0
 29102  1  0  0  0
 29103  1  0  0  0
 33 34  1  0  0  0
 33 66  1  0  0  0
 33 70  2  0  0  0
 34 36  1  0  0  0
 34 59  1  0  0  0
 34104  1  0  0  0
 35 44  2  0  0  0
 35 45  1  0  0  0
 35 68  1  0  0  0
 36 56  1  0  0  0
 36105  1  0  0  0
 37 39  1  0  0  0
 37 47  1  0  0  0
 37 66  1  0  0  0
 37106  1  0  0  0
 38 43  2  0  0  0
 38 46  1  0  0  0
 38 47  1  0  0  0
 39 64  1  0  0  0
 39 67  2  0  0  0
 40 52  1  0  0  0
 40 53  2  0  0  0
 40 58  1  0  0  0
 41107  1  0  0  0
 41108  1  0  0  0
 41109  1  0  0  0
 41 48  1  0  0  0
 42 43  1  0  0  0
 42 66  1  0  0  0
 42110  1  0  0  0
 42111  1  0  0  0
 43 44  1  0  0  0
 44112  1  0  0  0
 45 46  2  0  0  0
 45113  1  0  0  0
 46114  1  0  0  0
 47115  1  0  0  0
 47116  1  0  0  0
 48 56  1  0  0  0
 48 65  1  0  0  0
 48117  1  0  0  0
 49 50  1  0  0  0
 49 53  1  0  0  0
 49 64  1  0  0  0
 49118  1  0  0  0
 50 51  1  0  0  0
 50119  1  0  0  0
 50120  1  0  0  0
 51 52  1  0  0  0
 51121  1  0  0  0
 51122  1  0  0  0
 52123  1  0  0  0
 52124  1  0  0  0
 53 54  1  0  0  0
 54 55  2  0  0  0
 54125  1  0  0  0
 55 57  1  0  0  0
 55126  1  0  0  0
 56 69  2  0  0  0
 57 58  2  0  0  0
 57127  1  0  0  0
 58128  1  0  0  0
 59 60  1  0  0  0
 59 61  1  0  0  0
 59 62  1  0  0  0
 60129  1  0  0  0
 60130  1  0  0  0
 60131  1  0  0  0
 61132  1  0  0  0
 61133  1  0  0  0
 61134  1  0  0  0
 62135  1  0  0  0
 62136  1  0  0  0
 62137  1  0  0  0
 63 65  1  0  0  0
 63138  1  0  0  0
 63139  1  0  0  0
 63140  1  0  0  0
 64141  1  0  0  0
 65142  1  0  0  0
 68 80  1  0  0  0
 71 81  2  0  0  0
 71 82  1  0  0  0
 71143  1  0  0  0
 72 73  2  0  0  0
 72 74  1  0  0  0
 72 75  1  0  0  0
 73 76  1  0  0  0
 73 81  1  0  0  0
 74 77  1  0  0  0
 74 82  2  0  0  0
 75144  1  0  0  0
 75145  1  0  0  0
 75146  1  0  0  0
 76 78  1  0  0  0
 76147  1  0  0  0
 76148  1  0  0  0
 77 79  1  0  0  0
 77149  1  0  0  0
 77150  1  0  0  0
 78 80  1  0  0  0
 78151  1  0  0  0
 78152  1  0  0  0
 79 83  1  0  0  0
 79153  1  0  0  0
 79154  1  0  0  0
 80155  1  0  0  0
 80156  1  0  0  0
 83157  1  0  0  0
M  ISO  4   1 100  68 101  80 101  83 100
M  END
> <chiral flag>
0

> <version>
0

> <s_m_source_file>
/data/baiqing/PycharmProjects/Reinvent-master-3.2/result/LINK_invent/BTK/process_docking_weight1_custom_sum_contain_oxygen_bond_distance_aromatic_linkinvent_7_9_3/rearranged_h_0049.sdf

> <i_m_source_file_index>
78

> <r_mmod_Potential_Energy-OPLS-2005>
-443.379638671875

> <r_mmod_Stretch_Energy-OPLS-2005>
48.0742301940918

> <r_mmod_Bend_Energy-OPLS-2005>
111.474143981934

> <r_mmod_Torsional_Energy-OPLS-2005>
201.913452148438

> <r_mmod_Improper_Torsional_Energy-OPLS-2005>
3.94551873207092

> <r_mmod_Van_der_Waal_Energy-OPLS-2005>
164.899337768555

> <r_mmod_Electrostatic_Energy-OPLS-2005>
-752.529907226562

> <r_mmod_Solvation_Energy-OPLS-2005>
-238.308944702148

> <b_mmod_Minimization_Converged-OPLS-2005>
0

> <r_mmod_RMS_Derivative-OPLS-2005>
2.13435220718384

$$$$
80
                    3D
 Structure written by MMmdl.
152160  0  0  1  0            999 V2000
  -30.6408  -14.8155   20.4095 C   0  0  0  0  0  0
  -30.4146  -12.4894   19.5111 C   0  0  0  0  0  0
  -29.5136  -12.4948   18.2574 C   0  0  0  0  0  0
  -28.0396  -12.3191   18.6624 C   0  0  0  0  0  0
  -27.6278  -13.2529   19.8325 C   0  0  2  0  0  0
  -28.6646  -13.2706   20.9729 C   0  0  0  0  0  0
  -25.2456  -13.8257   20.5727 C   0  0  0  0  0  0
  -24.1763  -13.0463   20.9206 C   0  0  0  0  0  0
  -24.6383  -11.6951   20.8739 C   0  0  0  0  0  0
  -23.9074  -10.4308   21.0396 C   0  0  0  0  0  0
  -24.3623   -9.4222   21.9172 C   0  0  0  0  0  0
  -23.6298   -8.2254   22.0746 C   0  0  0  0  0  0
  -22.4280   -8.0287   21.3537 C   0  0  0  0  0  0
  -21.9914   -9.0259   20.4640 C   0  0  0  0  0  0
  -22.7243  -10.2142   20.3046 C   0  0  0  0  0  0
  -21.6858   -6.0734   22.5276 C   0  0  0  0  0  0
  -21.4019   -6.5635   23.8212 C   0  0  0  0  0  0
  -21.3663   -5.6788   24.9173 C   0  0  0  0  0  0
  -21.6047   -4.3050   24.7222 C   0  0  0  0  0  0
  -21.8819   -3.8141   23.4342 C   0  0  0  0  0  0
  -21.9194   -4.6959   22.3399 C   0  0  0  0  0  0
  -22.7782  -13.5225   21.1872 C   0  0  0  0  0  0
  -22.1661   -4.2147   21.0975 F   0  0  0  0  0  0
  -21.5632   -3.4531   25.7732 F   0  0  0  0  0  0
  -29.9661  -13.6045   20.3896 N   0  0  0  0  0  0
  -26.2873  -12.9498   20.3225 N   0  0  0  0  0  0
  -25.9316  -11.6618   20.5724 N   0  0  0  0  0  0
  -22.0440  -12.8211   22.0436 N   0  0  0  0  0  0
  -25.4163  -15.1986   20.4243 N   0  0  0  0  0  0
  -31.8469  -14.7798   20.1440 O   0  0  0  0  0  0
  -21.6642   -6.8880   21.4240 O   0  0  0  0  0  0
  -22.3455  -14.5524   20.6718 O   0  0  0  0  0  0
  -24.6366  -31.8511   23.1945 C   0  0  0  0  0  0
  -25.9171  -32.4734   23.8310 C   0  0  1  0  0  0
  -27.2067  -27.2049   20.1344 C   0  0  0  0  0  0
  -25.5951  -33.8538   24.2238 N   0  0  0  0  0  0
  -23.4356  -30.4740   21.5388 C   0  0  2  0  0  0
  -24.8814  -28.9161   20.1055 C   0  0  0  0  0  0
  -22.7534  -29.4581   22.4881 C   0  0  0  0  0  0
  -18.0304  -28.1386   22.8478 C   0  0  0  0  0  0
  -24.1488  -36.7270   23.2636 C   0  0  0  0  0  0
  -25.9859  -30.7463   21.3819 C   0  0  0  0  0  0
  -26.0554  -29.3637   20.7242 C   0  0  0  0  0  0
  -27.2204  -28.5209   20.7277 C   0  0  0  0  0  0
  -26.0139  -26.8517   19.4640 C   0  0  0  0  0  0
  -24.8694  -27.6716   19.4614 C   0  0  0  0  0  0
  -23.6555  -29.8089   20.1549 C   0  0  0  0  0  0
  -25.4118  -36.3057   24.0320 C   0  0  1  0  0  0
  -20.5912  -28.3705   23.1244 C   0  0  2  0  0  0
  -20.6784  -26.9416   22.5396 C   0  0  0  0  0  0
  -19.5761  -26.6379   21.5195 C   0  0  0  0  0  0
  -18.1947  -26.7926   22.1616 C   0  0  0  0  0  0
  -19.1560  -28.8863   23.2858 C   0  0  0  0  0  0
  -18.9474  -30.1459   23.8886 C   0  0  0  0  0  0
  -17.6471  -30.6583   24.0558 C   0  0  0  0  0  0
  -25.9065  -34.9427   23.5083 C   0  0  0  0  0  0
  -16.5365  -29.9078   23.6326 C   0  0  0  0  0  0
  -16.7291  -28.6493   23.0354 C   0  0  0  0  0  0
  -26.4525  -31.6570   25.0715 C   0  0  0  0  0  0
  -25.3732  -31.3719   26.1421 C   0  0  0  0  0  0
  -27.0370  -30.2979   24.6225 C   0  0  0  0  0  0
  -27.6082  -32.4306   25.7495 C   0  0  0  0  0  0
  -27.5577  -37.1792   24.8471 C   0  0  0  0  0  0
  -21.4233  -29.3050   22.3631 N   0  0  0  0  0  0
  -26.4289  -37.3760   23.9413 N   0  0  0  0  0  0
  -24.7055  -31.0437   22.0942 N   0  0  0  0  0  0
  -23.4214  -28.8114   23.2990 O   0  0  0  0  0  0
  -28.2658  -26.2521   20.2222 O   0  0  0  0  0  0
  -26.5633  -34.8912   22.4650 O   0  0  0  0  0  0
  -23.5502  -32.1352   23.7212 O   0  0  0  0  0  0
  -30.5696  -17.3009   19.6018 C   0  0  0  0  0  0
  -30.0130  -16.2770   20.4433 C   0  0  0  0  0  0
  -28.7988  -18.0990   21.4275 C   0  0  0  0  0  0
  -29.4100  -19.1214   20.6086 C   0  0  0  0  0  0
  -27.8125  -18.4783   22.5134 C   0  0  0  0  0  0
  -29.4080  -20.7153   20.9367 C   0  0  0  0  0  0
  -28.6187  -21.9286   20.1581 C   0  0  0  0  0  0
  -28.9084  -23.5166   20.5316 C   0  0  0  0  0  0
  -27.9922  -24.7667   19.9799 C   0  0  0  0  0  0
  -30.2886  -18.6553   19.6729 N   0  0  0  0  0  0
  -29.0864  -16.7367   21.3508 N   0  0  0  0  0  0
  -31.4607  -12.5737   19.2139 H   0  0  0  0  0  0
  -30.3387  -11.5368   20.0381 H   0  0  0  0  0  0
  -29.8094  -11.6963   17.5755 H   0  0  0  0  0  0
  -29.6411  -13.4310   17.7124 H   0  0  0  0  0  0
  -27.9050  -11.2768   18.9545 H   0  0  0  0  0  0
  -27.3878  -12.4781   17.8025 H   0  0  0  0  0  0
  -27.5995  -14.2586   19.4115 H   0  0  0  0  0  0
  -28.7054  -12.3056   21.4791 H   0  0  0  0  0  0
  -28.3866  -14.0072   21.7280 H   0  0  0  0  0  0
  -25.2765   -9.5705   22.4749 H   0  0  0  0  0  0
  -24.0010   -7.4650   22.7468 H   0  0  0  0  0  0
  -21.0842   -8.8779   19.8952 H   0  0  0  0  0  0
  -22.3690  -10.9677   19.6159 H   0  0  0  0  0  0
  -21.2011   -7.6144   23.9715 H   0  0  0  0  0  0
  -21.1488   -6.0515   25.9077 H   0  0  0  0  0  0
  -22.0593   -2.7602   23.2840 H   0  0  0  0  0  0
  -22.4077  -11.9888   22.4837 H   0  0  0  0  0  0
  -21.1056  -13.1225   22.2649 H   0  0  0  0  0  0
  -24.6605  -15.8594   20.5674 H   0  0  0  0  0  0
  -26.2934  -15.6434   20.1812 H   0  0  0  0  0  0
  -26.7238  -32.5371   23.1047 H   0  0  0  0  0  0
  -25.0113  -33.9672   25.0396 H   0  0  0  0  0  0
  -22.7343  -31.2980   21.3914 H   0  0  0  0  0  0
  -23.3754  -35.9599   23.3290 H   0  0  0  0  0  0
  -24.3578  -36.8901   22.2052 H   0  0  0  0  0  0
  -23.7235  -37.6465   23.6669 H   0  0  0  0  0  0
  -26.1306  -31.5015   20.6080 H   0  0  0  0  0  0
  -26.8622  -30.7988   22.0167 H   0  0  0  0  0  0
  -28.1142  -28.8536   21.2359 H   0  0  0  0  0  0
  -25.9299  -25.9070   18.9483 H   0  0  0  0  0  0
  -23.9744  -27.3299   18.9600 H   0  0  0  0  0  0
  -23.7848  -30.5850   19.3998 H   0  0  0  0  0  0
  -22.7721  -29.2453   19.8483 H   0  0  0  0  0  0
  -25.1300  -36.1893   25.0810 H   0  0  0  0  0  0
  -21.0014  -28.3284   24.1359 H   0  0  0  0  0  0
  -20.5655  -26.2324   23.3611 H   0  0  0  0  0  0
  -21.6654  -26.7413   22.1209 H   0  0  0  0  0  0
  -19.6919  -25.6282   21.1242 H   0  0  0  0  0  0
  -19.6692  -27.3170   20.6711 H   0  0  0  0  0  0
  -17.4209  -26.6664   21.4028 H   0  0  0  0  0  0
  -18.0362  -26.0072   22.9020 H   0  0  0  0  0  0
  -19.7951  -30.7276   24.2257 H   0  0  0  0  0  0
  -17.5024  -31.6262   24.5159 H   0  0  0  0  0  0
  -15.5364  -30.2973   23.7648 H   0  0  0  0  0  0
  -15.8695  -28.0798   22.7082 H   0  0  0  0  0  0
  -24.5942  -30.7034   25.7735 H   0  0  0  0  0  0
  -24.8886  -32.2880   26.4805 H   0  0  0  0  0  0
  -25.8037  -30.8929   27.0223 H   0  0  0  0  0  0
  -26.2952  -29.6725   24.1246 H   0  0  0  0  0  0
  -27.4031  -29.7252   25.4755 H   0  0  0  0  0  0
  -27.8846  -30.4240   23.9486 H   0  0  0  0  0  0
  -27.2711  -33.3631   26.2035 H   0  0  0  0  0  0
  -28.3921  -32.6814   25.0335 H   0  0  0  0  0  0
  -28.0722  -31.8446   26.5443 H   0  0  0  0  0  0
  -28.2593  -38.0090   24.7519 H   0  0  0  0  0  0
  -28.1076  -36.2623   24.6298 H   0  0  0  0  0  0
  -27.2302  -37.1437   25.8875 H   0  0  0  0  0  0
  -20.9422  -29.8792   21.6849 H   0  0  0  0  0  0
  -26.0161  -38.2832   24.1411 H   0  0  0  0  0  0
  -31.3235  -17.0379   18.8731 H   0  0  0  0  0  0
  -27.1780  -17.6337   22.7839 H   0  0  0  0  0  0
  -27.1617  -19.2844   22.1734 H   0  0  0  0  0  0
  -28.3388  -18.8125   23.4078 H   0  0  0  0  0  0
  -30.4625  -20.9924   20.9189 H   0  0  0  0  0  0
  -29.1421  -20.8041   21.9895 H   0  0  0  0  0  0
  -27.5503  -21.7505   20.2827 H   0  0  0  0  0  0
  -28.8045  -21.8090   19.0904 H   0  0  0  0  0  0
  -28.9052  -23.5920   21.6190 H   0  0  0  0  0  0
  -29.9384  -23.7255   20.2419 H   0  0  0  0  0  0
  -26.9930  -24.5566   20.3625 H   0  0  0  0  0  0
  -27.9228  -24.6499   18.8973 H   0  0  0  0  0  0
  1 25  1  0  0  0
  1 30  2  0  0  0
  1 72  1  0  0  0
  2  3  1  0  0  0
  2 25  1  0  0  0
  2 82  1  0  0  0
  2 83  1  0  0  0
  3  4  1  0  0  0
  3 84  1  0  0  0
  3 85  1  0  0  0
  4  5  1  0  0  0
  4 86  1  0  0  0
  4 87  1  0  0  0
  5  6  1  0  0  0
  5 26  1  0  0  0
  5 88  1  0  0  0
  6 25  1  0  0  0
  6 89  1  0  0  0
  6 90  1  0  0  0
  7  8  2  0  0  0
  7 26  1  0  0  0
  7 29  1  0  0  0
  8  9  1  0  0  0
  8 22  1  0  0  0
  9 10  1  0  0  0
  9 27  2  0  0  0
 10 11  2  0  0  0
 10 15  1  0  0  0
 11 12  1  0  0  0
 11 91  1  0  0  0
 12 13  2  0  0  0
 12 92  1  0  0  0
 13 14  1  0  0  0
 13 31  1  0  0  0
 14 15  2  0  0  0
 14 93  1  0  0  0
 15 94  1  0  0  0
 16 17  2  0  0  0
 16 21  1  0  0  0
 16 31  1  0  0  0
 17 18  1  0  0  0
 17 95  1  0  0  0
 18 19  2  0  0  0
 18 96  1  0  0  0
 19 20  1  0  0  0
 19 24  1  0  0  0
 20 21  2  0  0  0
 20 97  1  0  0  0
 21 23  1  0  0  0
 22 28  1  0  0  0
 22 32  2  0  0  0
 26 27  1  0  0  0
 28 98  1  0  0  0
 28 99  1  0  0  0
 29100  1  0  0  0
 29101  1  0  0  0
 33 34  1  0  0  0
 33 66  1  0  0  0
 33 70  2  0  0  0
 34 36  1  0  0  0
 34 59  1  0  0  0
 34102  1  0  0  0
 35 44  2  0  0  0
 35 45  1  0  0  0
 35 68  1  0  0  0
 36 56  1  0  0  0
 36103  1  0  0  0
 37 39  1  0  0  0
 37 47  1  0  0  0
 37 66  1  0  0  0
 37104  1  0  0  0
 38 43  2  0  0  0
 38 46  1  0  0  0
 38 47  1  0  0  0
 39 64  1  0  0  0
 39 67  2  0  0  0
 40 52  1  0  0  0
 40 53  2  0  0  0
 40 58  1  0  0  0
 41105  1  0  0  0
 41106  1  0  0  0
 41107  1  0  0  0
 41 48  1  0  0  0
 42 43  1  0  0  0
 42 66  1  0  0  0
 42108  1  0  0  0
 42109  1  0  0  0
 43 44  1  0  0  0
 44110  1  0  0  0
 45 46  2  0  0  0
 45111  1  0  0  0
 46112  1  0  0  0
 47113  1  0  0  0
 47114  1  0  0  0
 48 56  1  0  0  0
 48 65  1  0  0  0
 48115  1  0  0  0
 49 50  1  0  0  0
 49 53  1  0  0  0
 49 64  1  0  0  0
 49116  1  0  0  0
 50 51  1  0  0  0
 50117  1  0  0  0
 50118  1  0  0  0
 51 52  1  0  0  0
 51119  1  0  0  0
 51120  1  0  0  0
 52121  1  0  0  0
 52122  1  0  0  0
 53 54  1  0  0  0
 54 55  2  0  0  0
 54123  1  0  0  0
 55 57  1  0  0  0
 55124  1  0  0  0
 56 69  2  0  0  0
 57 58  2  0  0  0
 57125  1  0  0  0
 58126  1  0  0  0
 59 60  1  0  0  0
 59 61  1  0  0  0
 59 62  1  0  0  0
 60127  1  0  0  0
 60128  1  0  0  0
 60129  1  0  0  0
 61130  1  0  0  0
 61131  1  0  0  0
 61132  1  0  0  0
 62133  1  0  0  0
 62134  1  0  0  0
 62135  1  0  0  0
 63 65  1  0  0  0
 63136  1  0  0  0
 63137  1  0  0  0
 63138  1  0  0  0
 64139  1  0  0  0
 65140  1  0  0  0
 68 79  1  0  0  0
 71 72  2  0  0  0
 71 80  1  0  0  0
 71141  1  0  0  0
 72 81  1  0  0  0
 73 74  1  0  0  0
 73 75  1  0  0  0
 73 81  2  0  0  0
 74 76  1  0  0  0
 74 80  2  0  0  0
 75142  1  0  0  0
 75143  1  0  0  0
 75144  1  0  0  0
 76 77  1  0  0  0
 76145  1  0  0  0
 76146  1  0  0  0
 77 78  1  0  0  0
 77147  1  0  0  0
 77148  1  0  0  0
 78 79  1  0  0  0
 78149  1  0  0  0
 78150  1  0  0  0
 79151  1  0  0  0
 79152  1  0  0  0
M  ISO  4   1 100  68 101  72 100  79 101
M  END
> <chiral flag>
0

> <version>
0

> <s_m_source_file>
/data/baiqing/PycharmProjects/Reinvent-master-3.2/result/LINK_invent/BTK/process_docking_weight1_custom_sum_contain_oxygen_bond_distance_aromatic_linkinvent_7_9_3/rearranged_h_0049.sdf

> <i_m_source_file_index>
79

> <r_mmod_Potential_Energy-OPLS-2005>
474.853302001953

> <r_mmod_Stretch_Energy-OPLS-2005>
174.717666625977

> <r_mmod_Bend_Energy-OPLS-2005>
218.749237060547

> <r_mmod_Torsional_Energy-OPLS-2005>
203.619323730469

> <r_mmod_Improper_Torsional_Energy-OPLS-2005>
9.05648994445801

> <r_mmod_Van_der_Waal_Energy-OPLS-2005>
138.568511962891

> <r_mmod_Electrostatic_Energy-OPLS-2005>
-200.955551147461

> <r_mmod_Solvation_Energy-OPLS-2005>
-197.068084716797

> <b_mmod_Minimization_Converged-OPLS-2005>
0

> <r_mmod_RMS_Derivative-OPLS-2005>
0.85312420129776

$$$$
81
                    3D
 Structure written by MMmdl.
163171  0  0  1  0            999 V2000
  -30.6070  -14.8362   20.4091 C   0  0  0  0  0  0
  -30.4454  -12.5124   19.5140 C   0  0  0  0  0  0
  -29.5235  -12.4927   18.2741 C   0  0  0  0  0  0
  -28.0479  -12.3423   18.6915 C   0  0  0  0  0  0
  -27.6382  -13.2625   19.8645 C   0  0  2  0  0  0
  -28.6892  -13.2387   20.9999 C   0  0  0  0  0  0
  -25.2476  -13.8353   20.5879 C   0  0  0  0  0  0
  -24.1719  -13.0593   20.9100 C   0  0  0  0  0  0
  -24.6329  -11.7028   20.8704 C   0  0  0  0  0  0
  -23.9040  -10.4398   21.0319 C   0  0  0  0  0  0
  -24.3620   -9.4317   21.9123 C   0  0  0  0  0  0
  -23.6304   -8.2360   22.0764 C   0  0  0  0  0  0
  -22.4292   -8.0316   21.3550 C   0  0  0  0  0  0
  -21.9872   -9.0284   20.4663 C   0  0  0  0  0  0
  -22.7180  -10.2173   20.3006 C   0  0  0  0  0  0
  -21.6899   -6.0712   22.5249 C   0  0  0  0  0  0
  -21.4059   -6.5621   23.8183 C   0  0  0  0  0  0
  -21.3654   -5.6787   24.9162 C   0  0  0  0  0  0
  -21.6045   -4.3044   24.7218 C   0  0  0  0  0  0
  -21.8841   -3.8111   23.4340 C   0  0  0  0  0  0
  -21.9237   -4.6932   22.3387 C   0  0  0  0  0  0
  -22.7703  -13.5243   21.1760 C   0  0  0  0  0  0
  -22.1680   -4.2105   21.0970 F   0  0  0  0  0  0
  -21.5609   -3.4554   25.7730 F   0  0  0  0  0  0
  -29.9828  -13.6014   20.4037 N   0  0  0  0  0  0
  -26.2897  -12.9616   20.3405 N   0  0  0  0  0  0
  -25.9283  -11.6720   20.5806 N   0  0  0  0  0  0
  -22.0434  -12.8204   22.0308 N   0  0  0  0  0  0
  -25.4436  -15.2111   20.4585 N   0  0  0  0  0  0
  -31.7946  -14.9021   20.0898 O   0  0  0  0  0  0
  -21.6669   -6.8864   21.4228 O   0  0  0  0  0  0
  -22.3293  -14.5560   20.6635 O   0  0  0  0  0  0
  -24.6190  -31.8536   23.2064 C   0  0  0  0  0  0
  -25.9041  -32.4743   23.8354 C   0  0  1  0  0  0
  -27.2311  -27.3192   20.1225 C   0  0  0  0  0  0
  -25.5883  -33.8542   24.2241 N   0  0  0  0  0  0
  -23.4124  -30.4799   21.5448 C   0  0  2  0  0  0
  -24.8635  -28.9410   20.1130 C   0  0  0  0  0  0
  -22.7447  -29.4532   22.4901 C   0  0  0  0  0  0
  -18.0297  -28.1338   22.8472 C   0  0  0  0  0  0
  -24.1487  -36.7336   23.2627 C   0  0  0  0  0  0
  -25.9480  -30.7888   21.3789 C   0  0  0  0  0  0
  -26.0273  -29.4142   20.7291 C   0  0  0  0  0  0
  -27.2050  -28.6104   20.7383 C   0  0  0  0  0  0
  -26.0382  -26.9027   19.4762 C   0  0  0  0  0  0
  -24.8687  -27.6882   19.4799 C   0  0  0  0  0  0
  -23.6315  -29.8218   20.1570 C   0  0  0  0  0  0
  -25.4113  -36.3073   24.0275 C   0  0  1  0  0  0
  -20.5896  -28.3615   23.1324 C   0  0  2  0  0  0
  -20.6805  -26.9352   22.5425 C   0  0  0  0  0  0
  -19.5804  -26.6339   21.5204 C   0  0  0  0  0  0
  -18.1961  -26.7880   22.1589 C   0  0  0  0  0  0
  -19.1545  -28.8783   23.2888 C   0  0  0  0  0  0
  -18.9472  -30.1413   23.8857 C   0  0  0  0  0  0
  -17.6479  -30.6545   24.0549 C   0  0  0  0  0  0
  -25.9050  -34.9417   23.5054 C   0  0  0  0  0  0
  -16.5367  -29.9056   23.6313 C   0  0  0  0  0  0
  -16.7282  -28.6470   23.0318 C   0  0  0  0  0  0
  -26.4464  -31.6565   25.0702 C   0  0  0  0  0  0
  -25.3708  -31.3764   26.1455 C   0  0  0  0  0  0
  -27.0285  -30.2955   24.6148 C   0  0  0  0  0  0
  -27.5981  -32.4337   25.7501 C   0  0  0  0  0  0
  -27.5578  -37.1831   24.8440 C   0  0  0  0  0  0
  -21.4155  -29.3023   22.3735 N   0  0  0  0  0  0
  -26.4289  -37.3758   23.9404 N   0  0  0  0  0  0
  -24.6767  -31.0590   22.1001 N   0  0  0  0  0  0
  -23.4190  -28.8031   23.2914 O   0  0  0  0  0  0
  -28.3673  -26.4841   20.1764 O   0  0  0  0  0  0
  -26.5607  -34.8854   22.4633 O   0  0  0  0  0  0
  -23.5379  -32.1306   23.7450 O   0  0  0  0  0  0
  -30.3007  -20.7324   21.4561 C   0  0  0  0  0  0
  -29.4874  -21.0789   20.4037 C   0  0  0  0  0  0
  -29.9074  -18.7704   20.3615 C   0  0  0  0  0  0
  -29.1693  -17.1674   18.3819 C   0  0  0  0  0  0
  -31.0654  -19.1935   23.8652 C   0  0  0  0  0  0
  -32.8661  -18.8807   22.1550 C   0  0  0  0  0  0
  -28.7835  -22.4161   19.9666 C   0  0  0  0  0  0
  -29.2913  -23.9156   20.2542 C   0  0  0  0  0  0
  -28.1965  -25.0395   19.8942 C   0  0  0  0  0  0
  -30.0347  -17.3070   19.6940 C   0  0  2  0  0  0
  -31.3651  -18.6742   22.4404 C   0  0  0  0  0  0
  -30.5174  -19.3540   21.4360 N   0  0  0  0  0  0
  -29.2803  -19.8381   19.7764 N   0  3  0  0  0  0
  -29.8447  -16.0009   20.4932 N   0  0  0  0  0  0
  -31.4813  -12.6585   19.2062 H   0  0  0  0  0  0
  -30.4224  -11.5601   20.0480 H   0  0  0  0  0  0
  -29.7896  -11.6578   17.6307 H   0  0  0  0  0  0
  -29.6810  -13.3982   17.6814 H   0  0  0  0  0  0
  -27.9227  -11.3016   18.9934 H   0  0  0  0  0  0
  -27.3801  -12.5176   17.8486 H   0  0  0  0  0  0
  -27.6017  -14.2625   19.4263 H   0  0  0  0  0  0
  -28.7419  -12.2397   21.4341 H   0  0  0  0  0  0
  -28.4231  -13.9022   21.8289 H   0  0  0  0  0  0
  -25.2813   -9.5804   22.4603 H   0  0  0  0  0  0
  -24.0054   -7.4780   22.7489 H   0  0  0  0  0  0
  -21.0805   -8.8733   19.8980 H   0  0  0  0  0  0
  -22.3610  -10.9663   19.6046 H   0  0  0  0  0  0
  -21.2047   -7.6124   23.9653 H   0  0  0  0  0  0
  -21.1427   -6.0530   25.9070 H   0  0  0  0  0  0
  -22.0608   -2.7553   23.2867 H   0  0  0  0  0  0
  -22.4214  -11.9944   22.4735 H   0  0  0  0  0  0
  -21.1053  -13.1190   22.2618 H   0  0  0  0  0  0
  -24.7301  -15.8996   20.6757 H   0  0  0  0  0  0
  -26.3424  -15.6258   20.2596 H   0  0  0  0  0  0
  -26.7053  -32.5424   23.1067 H   0  0  0  0  0  0
  -25.0106  -33.9663   25.0424 H   0  0  0  0  0  0
  -22.7044  -31.2997   21.4057 H   0  0  0  0  0  0
  -23.3674  -35.9739   23.3287 H   0  0  0  0  0  0
  -24.3661  -36.8981   22.2073 H   0  0  0  0  0  0
  -23.7276  -37.6533   23.6687 H   0  0  0  0  0  0
  -26.0745  -31.5468   20.6076 H   0  0  0  0  0  0
  -26.8301  -30.8507   22.0023 H   0  0  0  0  0  0
  -28.0874  -28.9592   21.2553 H   0  0  0  0  0  0
  -25.9846  -25.9543   18.9610 H   0  0  0  0  0  0
  -23.9749  -27.3303   18.9854 H   0  0  0  0  0  0
  -23.7615  -30.6004   19.4032 H   0  0  0  0  0  0
  -22.7472  -29.2599   19.8498 H   0  0  0  0  0  0
  -25.1313  -36.1901   25.0758 H   0  0  0  0  0  0
  -20.9966  -28.3169   24.1459 H   0  0  0  0  0  0
  -20.5744  -26.2205   23.3593 H   0  0  0  0  0  0
  -21.6664  -26.7435   22.1203 H   0  0  0  0  0  0
  -19.6984  -25.6242   21.1255 H   0  0  0  0  0  0
  -19.6738  -27.3111   20.6705 H   0  0  0  0  0  0
  -17.4243  -26.6594   21.3980 H   0  0  0  0  0  0
  -18.0359  -25.9978   22.8957 H   0  0  0  0  0  0
  -19.7958  -30.7218   24.2167 H   0  0  0  0  0  0
  -17.5054  -31.6235   24.5152 H   0  0  0  0  0  0
  -15.5365  -30.2952   23.7651 H   0  0  0  0  0  0
  -15.8680  -28.0805   22.7008 H   0  0  0  0  0  0
  -24.5904  -30.7017   25.7927 H   0  0  0  0  0  0
  -24.8836  -32.2933   26.4763 H   0  0  0  0  0  0
  -25.8061  -30.9114   27.0294 H   0  0  0  0  0  0
  -26.2839  -29.6732   24.1125 H   0  0  0  0  0  0
  -27.3937  -29.7190   25.4669 H   0  0  0  0  0  0
  -27.8744  -30.4249   23.9381 H   0  0  0  0  0  0
  -27.2539  -33.3686   26.1955 H   0  0  0  0  0  0
  -28.3879  -32.6804   25.0394 H   0  0  0  0  0  0
  -28.0493  -31.8508   26.5544 H   0  0  0  0  0  0
  -28.2528  -38.0199   24.7555 H   0  0  0  0  0  0
  -28.1128  -36.2708   24.6169 H   0  0  0  0  0  0
  -27.2344  -37.1421   25.8855 H   0  0  0  0  0  0
  -20.9236  -29.8790   21.7033 H   0  0  0  0  0  0
  -26.0123  -38.2792   24.1456 H   0  0  0  0  0  0
  -30.7223  -21.3608   22.2303 H   0  0  0  0  0  0
  -28.0935  -17.0632   18.5645 H   0  0  0  0  0  0
  -29.4514  -16.2892   17.7926 H   0  0  0  0  0  0
  -29.2975  -18.0111   17.6988 H   0  0  0  0  0  0
  -31.4686  -18.5179   24.6183 H   0  0  0  0  0  0
  -30.0003  -19.3002   24.0664 H   0  0  0  0  0  0
  -31.5283  -20.1676   24.0414 H   0  0  0  0  0  0
  -33.4625  -18.6752   23.0448 H   0  0  0  0  0  0
  -33.1020  -19.9061   21.8527 H   0  0  0  0  0  0
  -33.2152  -18.2046   21.3755 H   0  0  0  0  0  0
  -27.7890  -22.3596   20.4059 H   0  0  0  0  0  0
  -28.6439  -22.3476   18.8909 H   0  0  0  0  0  0
  -30.2005  -24.0997   19.6760 H   0  0  0  0  0  0
  -29.5754  -24.0327   21.2986 H   0  0  0  0  0  0
  -27.2748  -24.7401   20.3973 H   0  0  0  0  0  0
  -28.0022  -24.9662   18.8222 H   0  0  0  0  0  0
  -31.0779  -17.3275   19.3734 H   0  0  0  0  0  0
  -31.1299  -17.6103   22.4158 H   0  0  0  0  0  0
  -28.7409  -19.7394   18.9250 H   0  0  0  0  0  0
  -28.8991  -15.8627   20.8113 H   0  0  0  0  0  0
  1 25  1  0  0  0
  1 30  2  0  0  0
  1 84  1  0  0  0
  2  3  1  0  0  0
  2 25  1  0  0  0
  2 85  1  0  0  0
  2 86  1  0  0  0
  3  4  1  0  0  0
  3 87  1  0  0  0
  3 88  1  0  0  0
  4  5  1  0  0  0
  4 89  1  0  0  0
  4 90  1  0  0  0
  5  6  1  0  0  0
  5 26  1  0  0  0
  5 91  1  0  0  0
  6 25  1  0  0  0
  6 92  1  0  0  0
  6 93  1  0  0  0
  7  8  2  0  0  0
  7 26  1  0  0  0
  7 29  1  0  0  0
  8  9  1  0  0  0
  8 22  1  0  0  0
  9 10  1  0  0  0
  9 27  2  0  0  0
 10 11  2  0  0  0
 10 15  1  0  0  0
 11 12  1  0  0  0
 11 94  1  0  0  0
 12 13  2  0  0  0
 12 95  1  0  0  0
 13 14  1  0  0  0
 13 31  1  0  0  0
 14 15  2  0  0  0
 14 96  1  0  0  0
 15 97  1  0  0  0
 16 17  2  0  0  0
 16 21  1  0  0  0
 16 31  1  0  0  0
 17 18  1  0  0  0
 17 98  1  0  0  0
 18 19  2  0  0  0
 18 99  1  0  0  0
 19 20  1  0  0  0
 19 24  1  0  0  0
 20 21  2  0  0  0
 20100  1  0  0  0
 21 23  1  0  0  0
 22 28  1  0  0  0
 22 32  2  0  0  0
 26 27  1  0  0  0
 28101  1  0  0  0
 28102  1  0  0  0
 29103  1  0  0  0
 29104  1  0  0  0
 33 34  1  0  0  0
 33 66  1  0  0  0
 33 70  2  0  0  0
 34 36  1  0  0  0
 34 59  1  0  0  0
 34105  1  0  0  0
 35 44  2  0  0  0
 35 45  1  0  0  0
 35 68  1  0  0  0
 36 56  1  0  0  0
 36106  1  0  0  0
 37 39  1  0  0  0
 37 47  1  0  0  0
 37 66  1  0  0  0
 37107  1  0  0  0
 38 43  2  0  0  0
 38 46  1  0  0  0
 38 47  1  0  0  0
 39 64  1  0  0  0
 39 67  2  0  0  0
 40 52  1  0  0  0
 40 53  2  0  0  0
 40 58  1  0  0  0
 41108  1  0  0  0
 41109  1  0  0  0
 41110  1  0  0  0
 41 48  1  0  0  0
 42 43  1  0  0  0
 42 66  1  0  0  0
 42111  1  0  0  0
 42112  1  0  0  0
 43 44  1  0  0  0
 44113  1  0  0  0
 45 46  2  0  0  0
 45114  1  0  0  0
 46115  1  0  0  0
 47116  1  0  0  0
 47117  1  0  0  0
 48 56  1  0  0  0
 48 65  1  0  0  0
 48118  1  0  0  0
 49 50  1  0  0  0
 49 53  1  0  0  0
 49 64  1  0  0  0
 49119  1  0  0  0
 50 51  1  0  0  0
 50120  1  0  0  0
 50121  1  0  0  0
 51 52  1  0  0  0
 51122  1  0  0  0
 51123  1  0  0  0
 52124  1  0  0  0
 52125  1  0  0  0
 53 54  1  0  0  0
 54 55  2  0  0  0
 54126  1  0  0  0
 55 57  1  0  0  0
 55127  1  0  0  0
 56 69  2  0  0  0
 57 58  2  0  0  0
 57128  1  0  0  0
 58129  1  0  0  0
 59 60  1  0  0  0
 59 61  1  0  0  0
 59 62  1  0  0  0
 60130  1  0  0  0
 60131  1  0  0  0
 60132  1  0  0  0
 61133  1  0  0  0
 61134  1  0  0  0
 61135  1  0  0  0
 62136  1  0  0  0
 62137  1  0  0  0
 62138  1  0  0  0
 63 65  1  0  0  0
 63139  1  0  0  0
 63140  1  0  0  0
 63141  1  0  0  0
 64142  1  0  0  0
 65143  1  0  0  0
 68 79  1  0  0  0
 71 72  2  0  0  0
 71 82  1  0  0  0
 71144  1  0  0  0
 72 77  1  0  0  0
 72 83  1  0  0  0
 73 80  1  0  0  0
 73 82  1  0  0  0
 73 83  2  0  0  0
 74145  1  0  0  0
 74146  1  0  0  0
 74147  1  0  0  0
 74 80  1  0  0  0
 75148  1  0  0  0
 75149  1  0  0  0
 75150  1  0  0  0
 75 81  1  0  0  0
 76 81  1  0  0  0
 76151  1  0  0  0
 76152  1  0  0  0
 76153  1  0  0  0
 77 78  1  0  0  0
 77154  1  0  0  0
 77155  1  0  0  0
 78 79  1  0  0  0
 78156  1  0  0  0
 78157  1  0  0  0
 79158  1  0  0  0
 79159  1  0  0  0
 80 84  1  0  0  0
 80160  1  0  0  0
 81 82  1  0  0  0
 81161  1  0  0  0
 83162  1  0  0  0
 84163  1  0  0  0
M  CHG  1  83   1
M  ISO  4   1 100  68 101  79 101  84 100
M  END
> <chiral flag>
0

> <version>
0

> <s_m_source_file>
/data/baiqing/PycharmProjects/Reinvent-master-3.2/result/LINK_invent/BTK/process_docking_weight1_custom_sum_contain_oxygen_bond_distance_aromatic_linkinvent_7_9_3/rearranged_h_0049.sdf

> <i_m_source_file_index>
80

> <r_mmod_Potential_Energy-OPLS-2005>
119.288192749023

> <r_mmod_Stretch_Energy-OPLS-2005>
122.490447998047

> <r_mmod_Bend_Energy-OPLS-2005>
195.514205932617

> <r_mmod_Torsional_Energy-OPLS-2005>
251.073532104492

> <r_mmod_Improper_Torsional_Energy-OPLS-2005>
9.3484468460083

> <r_mmod_Van_der_Waal_Energy-OPLS-2005>
115.754196166992

> <r_mmod_Electrostatic_Energy-OPLS-2005>
-252.334182739258

> <r_mmod_Solvation_Energy-OPLS-2005>
-420.503356933594

> <b_mmod_Minimization_Converged-OPLS-2005>
0

> <r_mmod_RMS_Derivative-OPLS-2005>
10.5921106338501

$$$$
82
                    3D
 Structure written by MMmdl.
171179  0  0  1  0            999 V2000
  -30.7825  -14.3300   20.7396 C   0  0  0  0  0  0
  -30.4186  -12.3004   19.3724 C   0  0  0  0  0  0
  -29.4780  -12.5364   18.1782 C   0  0  0  0  0  0
  -28.0050  -12.3789   18.5977 C   0  0  0  0  0  0
  -27.6662  -13.1937   19.8720 C   0  0  2  0  0  0
  -28.7062  -12.9261   20.9827 C   0  0  0  0  0  0
  -25.2620  -13.8122   20.5651 C   0  0  0  0  0  0
  -24.1875  -13.0429   20.9209 C   0  0  0  0  0  0
  -24.6398  -11.6885   20.8757 C   0  0  0  0  0  0
  -23.9059  -10.4279   21.0422 C   0  0  0  0  0  0
  -24.3605   -9.4188   21.9191 C   0  0  0  0  0  0
  -23.6273   -8.2225   22.0763 C   0  0  0  0  0  0
  -22.4255   -8.0267   21.3554 C   0  0  0  0  0  0
  -21.9891   -9.0248   20.4660 C   0  0  0  0  0  0
  -22.7232  -10.2123   20.3071 C   0  0  0  0  0  0
  -21.6837   -6.0721   22.5286 C   0  0  0  0  0  0
  -21.4002   -6.5630   23.8219 C   0  0  0  0  0  0
  -21.3669   -5.6785   24.9184 C   0  0  0  0  0  0
  -21.6048   -4.3046   24.7236 C   0  0  0  0  0  0
  -21.8816   -3.8134   23.4359 C   0  0  0  0  0  0
  -21.9184   -4.6952   22.3412 C   0  0  0  0  0  0
  -22.7901  -13.5243   21.1860 C   0  0  0  0  0  0
  -22.1651   -4.2134   21.0990 F   0  0  0  0  0  0
  -21.5653   -3.4537   25.7755 F   0  0  0  0  0  0
  -30.0475  -13.2242   20.4530 N   0  0  0  0  0  0
  -26.3048  -12.9276   20.3329 N   0  0  0  0  0  0
  -25.9316  -11.6455   20.5758 N   0  0  0  0  0  0
  -22.0508  -12.8260   22.0408 N   0  0  0  0  0  0
  -25.4322  -15.1839   20.3995 N   0  0  0  0  0  0
  -31.7687  -14.6615   20.0729 O   0  0  0  0  0  0
  -21.6618   -6.8859   21.4245 O   0  0  0  0  0  0
  -22.3609  -14.5554   20.6696 O   0  0  0  0  0  0
  -24.6115  -31.8705   23.2128 C   0  0  0  0  0  0
  -25.9022  -32.4843   23.8407 C   0  0  1  0  0  0
  -27.2358  -27.4644   20.0699 C   0  0  0  0  0  0
  -25.5885  -33.8639   24.2343 N   0  0  0  0  0  0
  -23.3963  -30.4963   21.5549 C   0  0  2  0  0  0
  -24.8386  -28.9651   20.1164 C   0  0  0  0  0  0
  -22.7384  -29.4681   22.5022 C   0  0  0  0  0  0
  -18.0287  -28.1345   22.8499 C   0  0  0  0  0  0
  -24.1483  -36.7321   23.2639 C   0  0  0  0  0  0
  -25.9233  -30.8408   21.3637 C   0  0  0  0  0  0
  -25.9975  -29.4773   20.7109 C   0  0  0  0  0  0
  -27.1948  -28.7313   20.6911 C   0  0  0  0  0  0
  -26.0558  -26.9669   19.4660 C   0  0  0  0  0  0
  -24.8604  -27.7053   19.4964 C   0  0  0  0  0  0
  -23.6005  -29.8288   20.1694 C   0  0  0  0  0  0
  -25.4107  -36.3129   24.0342 C   0  0  1  0  0  0
  -20.5864  -28.3654   23.1340 C   0  0  2  0  0  0
  -20.6786  -26.9397   22.5430 C   0  0  0  0  0  0
  -19.5767  -26.6348   21.5240 C   0  0  0  0  0  0
  -18.1951  -26.7883   22.1655 C   0  0  0  0  0  0
  -19.1525  -28.8818   23.2908 C   0  0  0  0  0  0
  -18.9445  -30.1432   23.8893 C   0  0  0  0  0  0
  -17.6443  -30.6568   24.0543 C   0  0  0  0  0  0
  -25.9032  -34.9494   23.5142 C   0  0  0  0  0  0
  -16.5344  -29.9048   23.6324 C   0  0  0  0  0  0
  -16.7270  -28.6460   23.0351 C   0  0  0  0  0  0
  -26.4457  -31.6606   25.0716 C   0  0  0  0  0  0
  -25.3736  -31.3692   26.1472 C   0  0  0  0  0  0
  -27.0285  -30.3060   24.6059 C   0  0  0  0  0  0
  -27.6043  -32.4311   25.7468 C   0  0  0  0  0  0
  -27.5581  -37.1818   24.8468 C   0  0  0  0  0  0
  -21.4117  -29.3039   22.3760 N   0  0  0  0  0  0
  -26.4299  -37.3805   23.9407 N   0  0  0  0  0  0
  -24.6623  -31.0823   22.1026 N   0  0  0  0  0  0
  -23.4174  -28.8217   23.3045 O   0  0  0  0  0  0
  -28.4360  -26.7839   20.0699 O   0  0  0  0  0  0
  -26.5596  -34.8938   22.4705 O   0  0  0  0  0  0
  -23.5313  -32.1454   23.7535 O   0  0  0  0  0  0
  -26.9847  -23.7962   22.8110 C   0  0  0  0  0  0
  -27.8263  -24.5628   21.9892 C   0  0  0  0  0  0
  -25.9105  -22.9902   20.8028 C   0  0  0  0  0  0
  -25.9957  -22.9909   22.2102 C   0  0  0  0  0  0
  -27.6512  -24.5072   20.5952 C   0  0  0  0  0  0
  -23.5695  -22.4609   22.7699 C   0  0  0  0  0  0
  -27.6940  -16.0146   23.3220 C   0  0  0  0  0  0
  -28.4671  -25.4090   19.6757 C   0  0  0  0  0  0
  -30.4359  -15.1759   21.9749 C   0  0  0  0  0  0
  -26.9977  -18.8052   23.1525 C   0  0  0  0  0  0
  -29.4705  -16.3257   21.6169 C   0  0  0  0  0  0
  -26.7414  -20.2953   22.8562 C   0  0  0  0  0  0
  -28.2819  -18.3032   22.4491 C   0  0  0  0  0  0
  -25.0475  -22.1586   23.0807 C   0  0  1  0  0  0
  -26.7262  -23.7145   20.0106 N   0  0  0  0  0  0
  -25.3269  -20.6975   23.0591 N   0  3  0  0  0  0
  -28.7434  -16.9183   22.7764 N   0  3  1  0  0  0
  -31.4588  -12.4156   19.0619 H   0  0  0  0  0  0
  -30.3301  -11.2725   19.7270 H   0  0  0  0  0  0
  -29.7116  -11.8392   17.3726 H   0  0  0  0  0  0
  -29.6402  -13.5375   17.7749 H   0  0  0  0  0  0
  -27.8168  -11.3186   18.7709 H   0  0  0  0  0  0
  -27.3478  -12.6734   17.7784 H   0  0  0  0  0  0
  -27.7255  -14.2469   19.6001 H   0  0  0  0  0  0
  -28.6686  -11.8798   21.2889 H   0  0  0  0  0  0
  -28.4401  -13.4935   21.8691 H   0  0  0  0  0  0
  -25.2755   -9.5653   22.4760 H   0  0  0  0  0  0
  -23.9986   -7.4616   22.7480 H   0  0  0  0  0  0
  -21.0822   -8.8772   19.8962 H   0  0  0  0  0  0
  -22.3703  -10.9664   19.6178 H   0  0  0  0  0  0
  -21.1976   -7.6130   23.9724 H   0  0  0  0  0  0
  -21.1506   -6.0509   25.9090 H   0  0  0  0  0  0
  -22.0581   -2.7595   23.2867 H   0  0  0  0  0  0
  -22.4068  -11.9917   22.4839 H   0  0  0  0  0  0
  -21.1145  -13.1346   22.2598 H   0  0  0  0  0  0
  -24.6347  -15.8088   20.4462 H   0  0  0  0  0  0
  -26.2177  -15.5866   19.9062 H   0  0  0  0  0  0
  -26.7097  -32.5556   23.1177 H   0  0  0  0  0  0
  -25.0043  -33.9808   25.0493 H   0  0  0  0  0  0
  -22.6835  -31.3123   21.4184 H   0  0  0  0  0  0
  -23.3747  -35.9649   23.3320 H   0  0  0  0  0  0
  -24.3575  -36.8908   22.2046 H   0  0  0  0  0  0
  -23.7228  -37.6534   23.6633 H   0  0  0  0  0  0
  -26.0320  -31.6060   20.5940 H   0  0  0  0  0  0
  -26.8142  -30.8933   21.9781 H   0  0  0  0  0  0
  -28.0900  -29.1278   21.1504 H   0  0  0  0  0  0
  -26.0329  -26.0168   18.9547 H   0  0  0  0  0  0
  -23.9707  -27.3050   19.0297 H   0  0  0  0  0  0
  -23.7042  -30.6030   19.4080 H   0  0  0  0  0  0
  -22.7250  -29.2467   19.8781 H   0  0  0  0  0  0
  -25.1282  -36.2010   25.0835 H   0  0  0  0  0  0
  -20.9945  -28.3210   24.1469 H   0  0  0  0  0  0
  -20.5719  -26.2254   23.3602 H   0  0  0  0  0  0
  -21.6658  -26.7467   22.1213 H   0  0  0  0  0  0
  -19.6956  -25.6257   21.1282 H   0  0  0  0  0  0
  -19.6688  -27.3148   20.6772 H   0  0  0  0  0  0
  -17.4209  -26.6585   21.4080 H   0  0  0  0  0  0
  -18.0385  -26.0034   22.9075 H   0  0  0  0  0  0
  -19.7916  -30.7257   24.2251 H   0  0  0  0  0  0
  -17.4995  -31.6256   24.5133 H   0  0  0  0  0  0
  -15.5341  -30.2926   23.7667 H   0  0  0  0  0  0
  -15.8670  -28.0768   22.7079 H   0  0  0  0  0  0
  -24.5909  -30.7040   25.7810 H   0  0  0  0  0  0
  -24.8926  -32.2839   26.4944 H   0  0  0  0  0  0
  -25.8099  -30.8848   27.0217 H   0  0  0  0  0  0
  -26.2819  -29.6827   24.1128 H   0  0  0  0  0  0
  -27.4101  -29.7280   25.4487 H   0  0  0  0  0  0
  -27.8631  -30.4400   23.9172 H   0  0  0  0  0  0
  -27.2674  -33.3599   26.2084 H   0  0  0  0  0  0
  -28.3826  -32.6890   25.0272 H   0  0  0  0  0  0
  -28.0745  -31.8414   26.5347 H   0  0  0  0  0  0
  -28.2623  -38.0096   24.7514 H   0  0  0  0  0  0
  -28.1061  -36.2636   24.6307 H   0  0  0  0  0  0
  -27.2300  -37.1476   25.8871 H   0  0  0  0  0  0
  -20.9259  -29.8785   21.7014 H   0  0  0  0  0  0
  -26.0203  -38.2890   24.1404 H   0  0  0  0  0  0
  -27.0941  -23.8378   23.8859 H   0  0  0  0  0  0
  -28.5754  -25.2124   22.4223 H   0  0  0  0  0  0
  -25.1779  -22.3830   20.2929 H   0  0  0  0  0  0
  -23.3610  -23.5245   22.8915 H   0  0  0  0  0  0
  -22.9022  -21.9250   23.4455 H   0  0  0  0  0  0
  -23.2952  -22.1898   21.7499 H   0  0  0  0  0  0
  -28.0888  -15.0329   23.5767 H   0  0  0  0  0  0
  -26.8818  -15.8694   22.6113 H   0  0  0  0  0  0
  -27.2708  -16.4039   24.2473 H   0  0  0  0  0  0
  -28.1584  -25.3016   18.6339 H   0  0  0  0  0  0
  -29.5044  -25.0760   19.7145 H   0  0  0  0  0  0
  -31.3595  -15.5961   22.3741 H   0  0  0  0  0  0
  -30.0725  -14.5295   22.7699 H   0  0  0  0  0  0
  -26.1507  -18.2135   22.8032 H   0  0  0  0  0  0
  -27.0613  -18.6705   24.2326 H   0  0  0  0  0  0
  -28.7356  -16.0038   20.8775 H   0  0  0  0  0  0
  -30.0620  -17.1002   21.1244 H   0  0  0  0  0  0
  -27.0132  -20.5122   21.8220 H   0  0  0  0  0  0
  -27.3976  -20.8987   23.4862 H   0  0  0  0  0  0
  -29.1081  -18.9843   22.6591 H   0  0  0  0  0  0
  -28.1059  -18.3772   21.3740 H   0  0  0  0  0  0
  -25.2171  -22.4687   24.1137 H   0  0  0  0  0  0
  -25.0047  -20.3200   23.9374 H   0  0  0  0  0  0
  -24.7680  -20.2705   22.3379 H   0  0  0  0  0  0
  -29.4210  -17.0332   23.5175 H   0  0  0  0  0  0
  1 25  1  0  0  0
  1 30  2  0  0  0
  1 79  1  0  0  0
  2  3  1  0  0  0
  2 25  1  0  0  0
  2 88  1  0  0  0
  2 89  1  0  0  0
  3  4  1  0  0  0
  3 90  1  0  0  0
  3 91  1  0  0  0
  4  5  1  0  0  0
  4 92  1  0  0  0
  4 93  1  0  0  0
  5  6  1  0  0  0
  5 26  1  0  0  0
  5 94  1  0  0  0
  6 25  1  0  0  0
  6 95  1  0  0  0
  6 96  1  0  0  0
  7  8  2  0  0  0
  7 26  1  0  0  0
  7 29  1  0  0  0
  8  9  1  0  0  0
  8 22  1  0  0  0
  9 10  1  0  0  0
  9 27  2  0  0  0
 10 11  2  0  0  0
 10 15  1  0  0  0
 11 12  1  0  0  0
 11 97  1  0  0  0
 12 13  2  0  0  0
 12 98  1  0  0  0
 13 14  1  0  0  0
 13 31  1  0  0  0
 14 15  2  0  0  0
 14 99  1  0  0  0
 15100  1  0  0  0
 16 17  2  0  0  0
 16 21  1  0  0  0
 16 31  1  0  0  0
 17 18  1  0  0  0
 17101  1  0  0  0
 18 19  2  0  0  0
 18102  1  0  0  0
 19 20  1  0  0  0
 19 24  1  0  0  0
 20 21  2  0  0  0
 20103  1  0  0  0
 21 23  1  0  0  0
 22 28  1  0  0  0
 22 32  2  0  0  0
 26 27  1  0  0  0
 28104  1  0  0  0
 28105  1  0  0  0
 29106  1  0  0  0
 29107  1  0  0  0
 33 34  1  0  0  0
 33 66  1  0  0  0
 33 70  2  0  0  0
 34 36  1  0  0  0
 34 59  1  0  0  0
 34108  1  0  0  0
 35 44  2  0  0  0
 35 45  1  0  0  0
 35 68  1  0  0  0
 36 56  1  0  0  0
 36109  1  0  0  0
 37 39  1  0  0  0
 37 47  1  0  0  0
 37 66  1  0  0  0
 37110  1  0  0  0
 38 43  2  0  0  0
 38 46  1  0  0  0
 38 47  1  0  0  0
 39 64  1  0  0  0
 39 67  2  0  0  0
 40 52  1  0  0  0
 40 53  2  0  0  0
 40 58  1  0  0  0
 41111  1  0  0  0
 41112  1  0  0  0
 41113  1  0  0  0
 41 48  1  0  0  0
 42 43  1  0  0  0
 42 66  1  0  0  0
 42114  1  0  0  0
 42115  1  0  0  0
 43 44  1  0  0  0
 44116  1  0  0  0
 45 46  2  0  0  0
 45117  1  0  0  0
 46118  1  0  0  0
 47119  1  0  0  0
 47120  1  0  0  0
 48 56  1  0  0  0
 48 65  1  0  0  0
 48121  1  0  0  0
 49 50  1  0  0  0
 49 53  1  0  0  0
 49 64  1  0  0  0
 49122  1  0  0  0
 50 51  1  0  0  0
 50123  1  0  0  0
 50124  1  0  0  0
 51 52  1  0  0  0
 51125  1  0  0  0
 51126  1  0  0  0
 52127  1  0  0  0
 52128  1  0  0  0
 53 54  1  0  0  0
 54 55  2  0  0  0
 54129  1  0  0  0
 55 57  1  0  0  0
 55130  1  0  0  0
 56 69  2  0  0  0
 57 58  2  0  0  0
 57131  1  0  0  0
 58132  1  0  0  0
 59 60  1  0  0  0
 59 61  1  0  0  0
 59 62  1  0  0  0
 60133  1  0  0  0
 60134  1  0  0  0
 60135  1  0  0  0
 61136  1  0  0  0
 61137  1  0  0  0
 61138  1  0  0  0
 62139  1  0  0  0
 62140  1  0  0  0
 62141  1  0  0  0
 63 65  1  0  0  0
 63142  1  0  0  0
 63143  1  0  0  0
 63144  1  0  0  0
 64145  1  0  0  0
 65146  1  0  0  0
 68 78  1  0  0  0
 71 72  2  0  0  0
 71 74  1  0  0  0
 71147  1  0  0  0
 72 75  1  0  0  0
 72148  1  0  0  0
 73 74  2  0  0  0
 73 85  1  0  0  0
 73149  1  0  0  0
 74 84  1  0  0  0
 75 78  1  0  0  0
 75 85  2  0  0  0
 76150  1  0  0  0
 76151  1  0  0  0
 76152  1  0  0  0
 76 84  1  0  0  0
 77153  1  0  0  0
 77154  1  0  0  0
 77155  1  0  0  0
 77 87  1  0  0  0
 78156  1  0  0  0
 78157  1  0  0  0
 79 81  1  0  0  0
 79158  1  0  0  0
 79159  1  0  0  0
 80 82  1  0  0  0
 80 83  1  0  0  0
 80160  1  0  0  0
 80161  1  0  0  0
 81 87  1  0  0  0
 81162  1  0  0  0
 81163  1  0  0  0
 82 86  1  0  0  0
 82164  1  0  0  0
 82165  1  0  0  0
 83 87  1  0  0  0
 83166  1  0  0  0
 83167  1  0  0  0
 84 86  1  0  0  0
 84168  1  0  0  0
 86169  1  0  0  0
 86170  1  0  0  0
 87171  1  0  0  0
M  CHG  2  86   1  87   1
M  ISO  4   1 100  68 101  78 101  79 100
M  END
> <chiral flag>
0

> <version>
0

> <s_m_source_file>
/data/baiqing/PycharmProjects/Reinvent-master-3.2/result/LINK_invent/BTK/process_docking_weight1_custom_sum_contain_oxygen_bond_distance_aromatic_linkinvent_7_9_3/rearranged_h_0049.sdf

> <i_m_source_file_index>
81

> <r_mmod_Potential_Energy-OPLS-2005>
-433.132720947266

> <r_mmod_Stretch_Energy-OPLS-2005>
34.8546600341797

> <r_mmod_Bend_Energy-OPLS-2005>
103.411605834961

> <r_mmod_Torsional_Energy-OPLS-2005>
187.014602661133

> <r_mmod_Improper_Torsional_Energy-OPLS-2005>
3.14380121231079

> <r_mmod_Van_der_Waal_Energy-OPLS-2005>
156.435256958008

> <r_mmod_Electrostatic_Energy-OPLS-2005>
31.6443748474121

> <r_mmod_Solvation_Energy-OPLS-2005>
-958.274841308594

> <b_mmod_Minimization_Converged-OPLS-2005>
0

> <r_mmod_RMS_Derivative-OPLS-2005>
1.48109972476959

$$$$
83
                    3D
 Structure written by MMmdl.
163171  0  0  1  0            999 V2000
  -30.6561  -14.7643   20.4151 C   0  0  0  0  0  0
  -30.4391  -12.4625   19.4542 C   0  0  0  0  0  0
  -29.5045  -12.4073   18.2280 C   0  0  0  0  0  0
  -28.0364  -12.2105   18.6642 C   0  0  0  0  0  0
  -27.6206  -13.1466   19.8222 C   0  0  2  0  0  0
  -28.6896  -13.1958   20.9461 C   0  0  0  0  0  0
  -25.2485  -13.7916   20.5707 C   0  0  0  0  0  0
  -24.1741  -13.0278   20.9275 C   0  0  0  0  0  0
  -24.6268  -11.6750   20.8847 C   0  0  0  0  0  0
  -23.8945  -10.4196   21.0482 C   0  0  0  0  0  0
  -24.3531   -9.4124   21.9236 C   0  0  0  0  0  0
  -23.6228   -8.2159   22.0773 C   0  0  0  0  0  0
  -22.4221   -8.0216   21.3547 C   0  0  0  0  0  0
  -21.9840   -9.0189   20.4658 C   0  0  0  0  0  0
  -22.7149  -10.2072   20.3092 C   0  0  0  0  0  0
  -21.6821   -6.0697   22.5281 C   0  0  0  0  0  0
  -21.3990   -6.5616   23.8209 C   0  0  0  0  0  0
  -21.3651   -5.6778   24.9178 C   0  0  0  0  0  0
  -21.6044   -4.3042   24.7236 C   0  0  0  0  0  0
  -21.8825   -3.8126   23.4361 C   0  0  0  0  0  0
  -21.9185   -4.6932   22.3412 C   0  0  0  0  0  0
  -22.7793  -13.5164   21.1899 C   0  0  0  0  0  0
  -22.1661   -4.2122   21.0990 F   0  0  0  0  0  0
  -21.5632   -3.4531   25.7752 F   0  0  0  0  0  0
  -29.9733  -13.5640   20.3272 N   0  0  0  0  0  0
  -26.2823  -12.8954   20.3267 N   0  0  0  0  0  0
  -25.9159  -11.6207   20.5856 N   0  0  0  0  0  0
  -22.0395  -12.8210   22.0460 N   0  0  0  0  0  0
  -25.4061  -15.1629   20.4070 N   0  0  0  0  0  0
  -31.8783  -14.7678   20.2481 O   0  0  0  0  0  0
  -21.6592   -6.8820   21.4235 O   0  0  0  0  0  0
  -22.3533  -14.5481   20.6722 O   0  0  0  0  0  0
  -24.6225  -31.8607   23.2025 C   0  0  0  0  0  0
  -25.9081  -32.4786   23.8353 C   0  0  1  0  0  0
  -27.2463  -27.3486   20.1210 C   0  0  0  0  0  0
  -25.5908  -33.8586   24.2287 N   0  0  0  0  0  0
  -23.4164  -30.4810   21.5436 C   0  0  2  0  0  0
  -24.8679  -28.9347   20.1118 C   0  0  0  0  0  0
  -22.7455  -29.4623   22.4947 C   0  0  0  0  0  0
  -18.0282  -28.1381   22.8488 C   0  0  0  0  0  0
  -24.1491  -36.7297   23.2638 C   0  0  0  0  0  0
  -25.9525  -30.8013   21.3682 C   0  0  0  0  0  0
  -26.0306  -29.4286   20.7150 C   0  0  0  0  0  0
  -27.2184  -28.6464   20.7100 C   0  0  0  0  0  0
  -26.0627  -26.8978   19.4909 C   0  0  0  0  0  0
  -24.8848  -27.6737   19.4912 C   0  0  0  0  0  0
  -23.6307  -29.8086   20.1604 C   0  0  0  0  0  0
  -25.4114  -36.3089   24.0332 C   0  0  1  0  0  0
  -20.5878  -28.3680   23.1293 C   0  0  2  0  0  0
  -20.6771  -26.9407   22.5414 C   0  0  0  0  0  0
  -19.5750  -26.6383   21.5213 C   0  0  0  0  0  0
  -18.1928  -26.7927   22.1623 C   0  0  0  0  0  0
  -19.1532  -28.8847   23.2887 C   0  0  0  0  0  0
  -18.9455  -30.1453   23.8900 C   0  0  0  0  0  0
  -17.6455  -30.6584   24.0563 C   0  0  0  0  0  0
  -25.9046  -34.9456   23.5111 C   0  0  0  0  0  0
  -16.5347  -29.9082   23.6327 C   0  0  0  0  0  0
  -16.7270  -28.6500   23.0348 C   0  0  0  0  0  0
  -26.4484  -31.6584   25.0709 C   0  0  0  0  0  0
  -25.3729  -31.3700   26.1440 C   0  0  0  0  0  0
  -27.0324  -30.3018   24.6131 C   0  0  0  0  0  0
  -27.6053  -32.4309   25.7475 C   0  0  0  0  0  0
  -27.5584  -37.1801   24.8463 C   0  0  0  0  0  0
  -21.4172  -29.3036   22.3689 N   0  0  0  0  0  0
  -26.4295  -37.3781   23.9409 N   0  0  0  0  0  0
  -24.6822  -31.0639   22.0959 N   0  0  0  0  0  0
  -23.4188  -28.8175   23.3029 O   0  0  0  0  0  0
  -28.4039  -26.5633   20.1838 O   0  0  0  0  0  0
  -26.5616  -34.8920   22.4679 O   0  0  0  0  0  0
  -23.5395  -32.1390   23.7371 O   0  0  0  0  0  0
  -31.1576  -21.0769   19.9796 C   0  0  0  0  0  0
  -30.2849  -20.0359   20.3984 C   0  0  0  0  0  0
  -28.7673  -21.7128   21.0506 C   0  0  0  0  0  0
  -29.6437  -22.7547   20.6164 C   0  0  0  0  0  0
  -27.4284  -22.0260   21.6902 C   0  0  0  0  0  0
  -27.2716  -16.7462   17.8413 C   0  0  0  0  0  0
  -30.5349  -18.5516   19.9614 C   0  0  0  0  0  0
  -29.4006  -24.2908   20.8493 C   0  0  0  0  0  0
  -28.5852  -16.2147   18.4261 C   0  0  0  0  0  0
  -30.5531  -17.3196   20.9902 C   0  0  0  0  0  0
  -28.6384  -16.2685   19.9800 C   0  0  0  0  0  0
  -28.3532  -25.1031   19.9857 C   0  0  0  0  0  0
  -30.8460  -22.4042   20.0809 N   0  0  0  0  0  0
  -29.0740  -20.3793   20.9263 N   0  0  0  0  0  0
  -29.9825  -15.9910   20.5144 N   0  0  0  0  0  0
  -31.4699  -12.6006   19.1231 H   0  0  0  0  0  0
  -30.4247  -11.5153   19.9958 H   0  0  0  0  0  0
  -29.8019  -11.5854   17.5752 H   0  0  0  0  0  0
  -29.6176  -13.3066   17.6261 H   0  0  0  0  0  0
  -27.9294  -11.1733   18.9835 H   0  0  0  0  0  0
  -27.3664  -12.3346   17.8124 H   0  0  0  0  0  0
  -27.5247  -14.0836   19.3108 H   0  0  0  0  0  0
  -28.7704  -12.2274   21.4414 H   0  0  0  0  0  0
  -28.4156  -13.9046   21.7289 H   0  0  0  0  0  0
  -25.2673   -9.5604   22.4810 H   0  0  0  0  0  0
  -23.9941   -7.4539   22.7476 H   0  0  0  0  0  0
  -21.0778   -8.8701   19.8955 H   0  0  0  0  0  0
  -22.3622  -10.9622   19.6204 H   0  0  0  0  0  0
  -21.1972   -7.6124   23.9702 H   0  0  0  0  0  0
  -21.1470   -6.0513   25.9078 H   0  0  0  0  0  0
  -22.0616   -2.7590   23.2872 H   0  0  0  0  0  0
  -22.3966  -11.9868   22.4878 H   0  0  0  0  0  0
  -21.1025  -13.1290   22.2639 H   0  0  0  0  0  0
  -24.6233  -15.8009   20.4987 H   0  0  0  0  0  0
  -26.2345  -15.6041   20.0311 H   0  0  0  0  0  0
  -26.7152  -32.5473   23.1108 H   0  0  0  0  0  0
  -25.0061  -33.9738   25.0434 H   0  0  0  0  0  0
  -22.7088  -31.2999   21.3982 H   0  0  0  0  0  0
  -23.3754  -35.9628   23.3299 H   0  0  0  0  0  0
  -24.3585  -36.8918   22.2053 H   0  0  0  0  0  0
  -23.7241  -37.6499   23.6659 H   0  0  0  0  0  0
  -26.0755  -31.5642   20.5981 H   0  0  0  0  0  0
  -26.8358  -30.8557   21.9929 H   0  0  0  0  0  0
  -28.1121  -29.0242   21.1869 H   0  0  0  0  0  0
  -26.0300  -25.9391   18.9948 H   0  0  0  0  0  0
  -23.9950  -27.2913   19.0103 H   0  0  0  0  0  0
  -23.7415  -30.5815   19.3991 H   0  0  0  0  0  0
  -22.7537  -29.2299   19.8647 H   0  0  0  0  0  0
  -25.1294  -36.1947   25.0825 H   0  0  0  0  0  0
  -20.9974  -28.3255   24.1412 H   0  0  0  0  0  0
  -20.5674  -26.2288   23.3610 H   0  0  0  0  0  0
  -21.6641  -26.7440   22.1208 H   0  0  0  0  0  0
  -19.6913  -25.6294   21.1241 H   0  0  0  0  0  0
  -19.6693  -27.3195   20.6745 H   0  0  0  0  0  0
  -17.4201  -26.6675   21.4023 H   0  0  0  0  0  0
  -18.0328  -26.0067   22.9017 H   0  0  0  0  0  0
  -19.7930  -30.7271   24.2270 H   0  0  0  0  0  0
  -17.5007  -31.6265   24.5164 H   0  0  0  0  0  0
  -15.5348  -30.2985   23.7649 H   0  0  0  0  0  0
  -15.8671  -28.0825   22.7055 H   0  0  0  0  0  0
  -24.5910  -30.7046   25.7760 H   0  0  0  0  0  0
  -24.8912  -32.2855   26.4882 H   0  0  0  0  0  0
  -25.8064  -30.8863   27.0202 H   0  0  0  0  0  0
  -26.2883  -29.6769   24.1179 H   0  0  0  0  0  0
  -27.4066  -29.7271   25.4613 H   0  0  0  0  0  0
  -27.8732  -30.4321   23.9314 H   0  0  0  0  0  0
  -27.2677  -33.3609   26.2060 H   0  0  0  0  0  0
  -28.3858  -32.6866   25.0296 H   0  0  0  0  0  0
  -28.0726  -31.8425   26.5381 H   0  0  0  0  0  0
  -28.2595  -38.0104   24.7523 H   0  0  0  0  0  0
  -28.1087  -36.2636   24.6275 H   0  0  0  0  0  0
  -27.2302  -37.1433   25.8866 H   0  0  0  0  0  0
  -20.9344  -29.8745   21.6892 H   0  0  0  0  0  0
  -26.0179  -38.2857   24.1409 H   0  0  0  0  0  0
  -32.0927  -20.8440   19.4915 H   0  0  0  0  0  0
  -27.5532  -22.7032   22.5352 H   0  0  0  0  0  0
  -26.9375  -21.1237   22.0558 H   0  0  0  0  0  0
  -26.7640  -22.4972   20.9667 H   0  0  0  0  0  0
  -27.3245  -16.7868   16.7527 H   0  0  0  0  0  0
  -27.0580  -17.7555   18.1956 H   0  0  0  0  0  0
  -26.4249  -16.1113   18.0960 H   0  0  0  0  0  0
  -31.4723  -18.5196   19.4055 H   0  0  0  0  0  0
  -29.7815  -18.4336   19.1941 H   0  0  0  0  0  0
  -30.3650  -24.7854   20.7294 H   0  0  0  0  0  0
  -29.1533  -24.4263   21.9018 H   0  0  0  0  0  0
  -29.4034  -16.7827   17.9867 H   0  0  0  0  0  0
  -28.7583  -15.2133   18.0503 H   0  0  0  0  0  0
  -29.9669  -17.6025   21.8657 H   0  0  0  0  0  0
  -31.5665  -17.1796   21.3692 H   0  0  0  0  0  0
  -27.9140  -15.6617   20.4972 H   0  0  0  0  0  0
  -28.2900  -17.2560   20.2867 H   0  0  0  0  0  0
  -27.3653  -24.7110   20.2238 H   0  0  0  0  0  0
  -28.5258  -24.9049   18.9275 H   0  0  0  0  0  0
  1 25  1  0  0  0
  1 30  2  0  0  0
  1 85  1  0  0  0
  2  3  1  0  0  0
  2 25  1  0  0  0
  2 86  1  0  0  0
  2 87  1  0  0  0
  3  4  1  0  0  0
  3 88  1  0  0  0
  3 89  1  0  0  0
  4  5  1  0  0  0
  4 90  1  0  0  0
  4 91  1  0  0  0
  5  6  1  0  0  0
  5 26  1  0  0  0
  5 92  1  0  0  0
  6 25  1  0  0  0
  6 93  1  0  0  0
  6 94  1  0  0  0
  7  8  2  0  0  0
  7 26  1  0  0  0
  7 29  1  0  0  0
  8  9  1  0  0  0
  8 22  1  0  0  0
  9 10  1  0  0  0
  9 27  2  0  0  0
 10 11  2  0  0  0
 10 15  1  0  0  0
 11 12  1  0  0  0
 11 95  1  0  0  0
 12 13  2  0  0  0
 12 96  1  0  0  0
 13 14  1  0  0  0
 13 31  1  0  0  0
 14 15  2  0  0  0
 14 97  1  0  0  0
 15 98  1  0  0  0
 16 17  2  0  0  0
 16 21  1  0  0  0
 16 31  1  0  0  0
 17 18  1  0  0  0
 17 99  1  0  0  0
 18 19  2  0  0  0
 18100  1  0  0  0
 19 20  1  0  0  0
 19 24  1  0  0  0
 20 21  2  0  0  0
 20101  1  0  0  0
 21 23  1  0  0  0
 22 28  1  0  0  0
 22 32  2  0  0  0
 26 27  1  0  0  0
 28102  1  0  0  0
 28103  1  0  0  0
 29104  1  0  0  0
 29105  1  0  0  0
 33 34  1  0  0  0
 33 66  1  0  0  0
 33 70  2  0  0  0
 34 36  1  0  0  0
 34 59  1  0  0  0
 34106  1  0  0  0
 35 44  2  0  0  0
 35 45  1  0  0  0
 35 68  1  0  0  0
 36 56  1  0  0  0
 36107  1  0  0  0
 37 39  1  0  0  0
 37 47  1  0  0  0
 37 66  1  0  0  0
 37108  1  0  0  0
 38 43  2  0  0  0
 38 46  1  0  0  0
 38 47  1  0  0  0
 39 64  1  0  0  0
 39 67  2  0  0  0
 40 52  1  0  0  0
 40 53  2  0  0  0
 40 58  1  0  0  0
 41109  1  0  0  0
 41110  1  0  0  0
 41111  1  0  0  0
 41 48  1  0  0  0
 42 43  1  0  0  0
 42 66  1  0  0  0
 42112  1  0  0  0
 42113  1  0  0  0
 43 44  1  0  0  0
 44114  1  0  0  0
 45 46  2  0  0  0
 45115  1  0  0  0
 46116  1  0  0  0
 47117  1  0  0  0
 47118  1  0  0  0
 48 56  1  0  0  0
 48 65  1  0  0  0
 48119  1  0  0  0
 49 50  1  0  0  0
 49 53  1  0  0  0
 49 64  1  0  0  0
 49120  1  0  0  0
 50 51  1  0  0  0
 50121  1  0  0  0
 50122  1  0  0  0
 51 52  1  0  0  0
 51123  1  0  0  0
 51124  1  0  0  0
 52125  1  0  0  0
 52126  1  0  0  0
 53 54  1  0  0  0
 54 55  2  0  0  0
 54127  1  0  0  0
 55 57  1  0  0  0
 55128  1  0  0  0
 56 69  2  0  0  0
 57 58  2  0  0  0
 57129  1  0  0  0
 58130  1  0  0  0
 59 60  1  0  0  0
 59 61  1  0  0  0
 59 62  1  0  0  0
 60131  1  0  0  0
 60132  1  0  0  0
 60133  1  0  0  0
 61134  1  0  0  0
 61135  1  0  0  0
 61136  1  0  0  0
 62137  1  0  0  0
 62138  1  0  0  0
 62139  1  0  0  0
 63 65  1  0  0  0
 63140  1  0  0  0
 63141  1  0  0  0
 63142  1  0  0  0
 64143  1  0  0  0
 65144  1  0  0  0
 68 82  1  0  0  0
 71 72  2  0  0  0
 71 83  1  0  0  0
 71145  1  0  0  0
 72 77  1  0  0  0
 72 84  1  0  0  0
 73 74  1  0  0  0
 73 75  1  0  0  0
 73 84  2  0  0  0
 74 78  1  0  0  0
 74 83  2  0  0  0
 75146  1  0  0  0
 75147  1  0  0  0
 75148  1  0  0  0
 76 79  1  0  0  0
 76149  1  0  0  0
 76150  1  0  0  0
 76151  1  0  0  0
 77 80  1  0  0  0
 77152  1  0  0  0
 77153  1  0  0  0
 78 82  1  0  0  0
 78154  1  0  0  0
 78155  1  0  0  0
 79 81  1  0  0  0
 79156  1  0  0  0
 79157  1  0  0  0
 80 85  1  0  0  0
 80158  1  0  0  0
 80159  1  0  0  0
 81 85  1  0  0  0
 81160  1  0  0  0
 81161  1  0  0  0
 82162  1  0  0  0
 82163  1  0  0  0
M  ISO  4   1 100  68 101  82 101  85 100
M  END
> <chiral flag>
0

> <version>
0

> <s_m_source_file>
/data/baiqing/PycharmProjects/Reinvent-master-3.2/result/LINK_invent/BTK/process_docking_weight1_custom_sum_contain_oxygen_bond_distance_aromatic_linkinvent_7_9_3/rearranged_h_0049.sdf

> <i_m_source_file_index>
82

> <r_mmod_Potential_Energy-OPLS-2005>
340.389129638672

> <r_mmod_Stretch_Energy-OPLS-2005>
91.0745239257812

> <r_mmod_Bend_Energy-OPLS-2005>
170.73454284668

> <r_mmod_Torsional_Energy-OPLS-2005>
283.597961425781

> <r_mmod_Improper_Torsional_Energy-OPLS-2005>
6.22653913497925

> <r_mmod_Van_der_Waal_Energy-OPLS-2005>
165.52214050293

> <r_mmod_Electrostatic_Energy-OPLS-2005>
-250.854614257812

> <r_mmod_Solvation_Energy-OPLS-2005>
-207.202896118164

> <b_mmod_Minimization_Converged-OPLS-2005>
0

> <r_mmod_RMS_Derivative-OPLS-2005>
0.656321108341217

$$$$
84
                    3D
 Structure written by MMmdl.
151159  0  0  1  0            999 V2000
  -30.3836  -15.3647   20.3398 C   0  0  0  0  0  0
  -30.4262  -12.8740   19.5314 C   0  0  0  0  0  0
  -29.5348  -12.6084   18.2888 C   0  0  0  0  0  0
  -28.0803  -12.3212   18.7022 C   0  0  0  0  0  0
  -27.6017  -13.2845   19.8182 C   0  0  2  0  0  0
  -28.6341  -13.4797   20.9507 C   0  0  0  0  0  0
  -25.2326  -13.8257   20.5752 C   0  0  0  0  0  0
  -24.1693  -13.0433   20.9255 C   0  0  0  0  0  0
  -24.6375  -11.6934   20.8738 C   0  0  0  0  0  0
  -23.9092  -10.4272   21.0368 C   0  0  0  0  0  0
  -24.3645   -9.4188   21.9150 C   0  0  0  0  0  0
  -23.6300   -8.2237   22.0740 C   0  0  0  0  0  0
  -22.4286   -8.0273   21.3540 C   0  0  0  0  0  0
  -21.9927   -9.0245   20.4651 C   0  0  0  0  0  0
  -22.7260  -10.2113   20.3030 C   0  0  0  0  0  0
  -21.6849   -6.0728   22.5279 C   0  0  0  0  0  0
  -21.4022   -6.5629   23.8221 C   0  0  0  0  0  0
  -21.3660   -5.6782   24.9179 C   0  0  0  0  0  0
  -21.6052   -4.3046   24.7214 C   0  0  0  0  0  0
  -21.8826   -3.8138   23.4334 C   0  0  0  0  0  0
  -21.9200   -4.6958   22.3398 C   0  0  0  0  0  0
  -22.7713  -13.5167   21.1880 C   0  0  0  0  0  0
  -22.1658   -4.2152   21.0978 F   0  0  0  0  0  0
  -21.5623   -3.4537   25.7729 F   0  0  0  0  0  0
  -29.8452  -14.0331   20.3197 N   0  0  0  0  0  0
  -26.2754  -12.9546   20.3201 N   0  0  0  0  0  0
  -25.9312  -11.6643   20.5689 N   0  0  0  0  0  0
  -22.0394  -12.8178   22.0472 N   0  0  0  0  0  0
  -25.3928  -15.2005   20.4210 N   0  0  0  0  0  0
  -31.6041  -15.3516   20.1132 O   0  0  0  0  0  0
  -21.6643   -6.8869   21.4244 O   0  0  0  0  0  0
  -22.3412  -14.5475   20.6722 O   0  0  0  0  0  0
  -24.6725  -31.8145   23.1642 C   0  0  0  0  0  0
  -25.9391  -32.4514   23.8136 C   0  0  1  0  0  0
  -27.2038  -26.8415   20.1673 C   0  0  0  0  0  0
  -25.6019  -33.8336   24.2007 N   0  0  0  0  0  0
  -23.4897  -30.4286   21.5136 C   0  0  2  0  0  0
  -24.9374  -28.7996   20.1039 C   0  0  0  0  0  0
  -22.7704  -29.4428   22.4727 C   0  0  0  0  0  0
  -18.0333  -28.1450   22.8449 C   0  0  0  0  0  0
  -24.1492  -36.7164   23.2652 C   0  0  0  0  0  0
  -26.0661  -30.5822   21.4185 C   0  0  0  0  0  0
  -26.1243  -29.1695   20.7496 C   0  0  0  0  0  0
  -27.2441  -28.2103   20.7636 C   0  0  0  0  0  0
  -25.9978  -26.6581   19.4484 C   0  0  0  0  0  0
  -24.9062  -27.5680   19.4314 C   0  0  0  0  0  0
  -23.7329  -29.7443   20.1396 C   0  0  0  0  0  0
  -25.4147  -36.2918   24.0286 C   0  0  1  0  0  0
  -20.5956  -28.3815   23.1135 C   0  0  2  0  0  0
  -20.6815  -26.9485   22.5386 C   0  0  0  0  0  0
  -19.5786  -26.6392   21.5219 C   0  0  0  0  0  0
  -18.1967  -26.7973   22.1617 C   0  0  0  0  0  0
  -19.1591  -28.8952   23.2779 C   0  0  0  0  0  0
  -18.9507  -30.1532   23.8832 C   0  0  0  0  0  0
  -17.6500  -30.6624   24.0567 C   0  0  0  0  0  0
  -25.9121  -34.9305   23.4971 C   0  0  0  0  0  0
  -16.5390  -29.9110   23.6358 C   0  0  0  0  0  0
  -16.7314  -28.6536   23.0363 C   0  0  0  0  0  0
  -26.4581  -31.6523   25.0733 C   0  0  0  0  0  0
  -25.3648  -31.3842   26.1352 C   0  0  0  0  0  0
  -27.0504  -30.2847   24.6653 C   0  0  0  0  0  0
  -27.6029  -32.4393   25.7540 C   0  0  0  0  0  0
  -27.5563  -37.1752   24.8463 C   0  0  0  0  0  0
  -21.4367  -29.3077   22.3462 N   0  0  0  0  0  0
  -26.4270  -37.3684   23.9403 N   0  0  0  0  0  0
  -24.7649  -30.9724   22.0827 N   0  0  0  0  0  0
  -23.4201  -28.8023   23.3027 O   0  0  0  0  0  0
  -28.1541  -25.6687   20.3023 O   0  0  0  0  0  0
  -26.5749  -34.8873   22.4574 O   0  0  0  0  0  0
  -23.5773  -32.1191   23.6666 O   0  0  0  0  0  0
  -28.0802  -20.2960   21.3089 C   0  0  0  0  0  0
  -29.0581  -19.8983   20.3996 C   0  0  0  0  0  0
  -28.4290  -22.3951   20.2839 C   0  0  0  0  0  0
  -27.0981  -23.1426   23.1431 C   0  0  0  0  0  0
  -29.8811  -18.3248   20.1373 C   0  0  0  0  0  0
  -28.0390  -24.0759   19.7483 C   0  0  0  0  0  0
  -26.6225  -22.2954   21.9557 C   0  0  0  0  0  0
  -27.7261  -21.6750   21.2032 N   0  0  0  0  0  0
  -29.2138  -21.2722   19.8028 N   0  3  0  0  0  0
  -29.6153  -16.6612   20.4098 N   0  0  0  0  0  0
  -31.4442  -13.0845   19.2030 H   0  0  0  0  0  0
  -30.5033  -11.9764   20.1485 H   0  0  0  0  0  0
  -29.9321  -11.7820   17.6978 H   0  0  0  0  0  0
  -29.5601  -13.4830   17.6363 H   0  0  0  0  0  0
  -28.0254  -11.2890   19.0521 H   0  0  0  0  0  0
  -27.4239  -12.3895   17.8330 H   0  0  0  0  0  0
  -27.5049  -14.2481   19.3159 H   0  0  0  0  0  0
  -28.8319  -12.5432   21.4753 H   0  0  0  0  0  0
  -28.2553  -14.1720   21.7019 H   0  0  0  0  0  0
  -25.2796   -9.5672   22.4728 H   0  0  0  0  0  0
  -24.0022   -7.4641   22.7472 H   0  0  0  0  0  0
  -21.0850   -8.8754   19.8974 H   0  0  0  0  0  0
  -22.3703  -10.9643   19.6145 H   0  0  0  0  0  0
  -21.2017   -7.6146   23.9725 H   0  0  0  0  0  0
  -21.1474   -6.0505   25.9088 H   0  0  0  0  0  0
  -22.0608   -2.7598   23.2837 H   0  0  0  0  0  0
  -22.4056  -11.9874   22.4893 H   0  0  0  0  0  0
  -21.1001  -13.1172   22.2660 H   0  0  0  0  0  0
  -24.6160  -15.8428   20.5323 H   0  0  0  0  0  0
  -26.2228  -15.6470   20.0539 H   0  0  0  0  0  0
  -26.7451  -32.4986   23.0827 H   0  0  0  0  0  0
  -25.0084  -33.9393   25.0100 H   0  0  0  0  0  0
  -22.8114  -31.2666   21.3391 H   0  0  0  0  0  0
  -23.3764  -35.9477   23.3288 H   0  0  0  0  0  0
  -24.3544  -36.8846   22.2065 H   0  0  0  0  0  0
  -23.7243  -37.6336   23.6736 H   0  0  0  0  0  0
  -26.2919  -31.3275   20.6557 H   0  0  0  0  0  0
  -26.9076  -30.6093   22.1004 H   0  0  0  0  0  0
  -28.1330  -28.4888   21.3133 H   0  0  0  0  0  0
  -25.8465  -25.7299   18.9189 H   0  0  0  0  0  0
  -24.0104  -27.2829   18.8961 H   0  0  0  0  0  0
  -23.9065  -30.5158   19.3884 H   0  0  0  0  0  0
  -22.8373  -29.2131   19.8102 H   0  0  0  0  0  0
  -25.1360  -36.1688   25.0775 H   0  0  0  0  0  0
  -21.0057  -28.3452   24.1262 H   0  0  0  0  0  0
  -20.5706  -26.2473   23.3671 H   0  0  0  0  0  0
  -21.6686  -26.7465   22.1211 H   0  0  0  0  0  0
  -19.6961  -25.6282   21.1312 H   0  0  0  0  0  0
  -19.6709  -27.3153   20.6715 H   0  0  0  0  0  0
  -17.4252  -26.6714   21.4011 H   0  0  0  0  0  0
  -18.0355  -26.0134   22.9033 H   0  0  0  0  0  0
  -19.7980  -30.7364   24.2174 H   0  0  0  0  0  0
  -17.5059  -31.6301   24.5189 H   0  0  0  0  0  0
  -15.5389  -30.3006   23.7730 H   0  0  0  0  0  0
  -15.8717  -28.0845   22.7116 H   0  0  0  0  0  0
  -24.5830  -30.7204   25.7644 H   0  0  0  0  0  0
  -24.8854  -32.3069   26.4610 H   0  0  0  0  0  0
  -25.7816  -30.9088   27.0237 H   0  0  0  0  0  0
  -26.3212  -29.6456   24.1662 H   0  0  0  0  0  0
  -27.3905  -29.7324   25.5427 H   0  0  0  0  0  0
  -27.9218  -30.3942   24.0204 H   0  0  0  0  0  0
  -27.2528  -33.3721   26.1972 H   0  0  0  0  0  0
  -28.3891  -32.6929   25.0416 H   0  0  0  0  0  0
  -28.0654  -31.8658   26.5582 H   0  0  0  0  0  0
  -28.2571  -38.0062   24.7520 H   0  0  0  0  0  0
  -28.1075  -36.2591   24.6281 H   0  0  0  0  0  0
  -27.2283  -37.1383   25.8869 H   0  0  0  0  0  0
  -20.9683  -29.8703   21.6497 H   0  0  0  0  0  0
  -26.0096  -38.2731   24.1399 H   0  0  0  0  0  0
  -27.5805  -19.6693   22.0358 H   0  0  0  0  0  0
  -26.2663  -23.7056   23.5724 H   0  0  0  0  0  0
  -27.8596  -23.8638   22.8442 H   0  0  0  0  0  0
  -27.5179  -22.5139   23.9295 H   0  0  0  0  0  0
  -30.8402  -18.4658   20.6348 H   0  0  0  0  0  0
  -30.1531  -18.3398   19.0813 H   0  0  0  0  0  0
  -26.9888  -23.9625   19.4915 H   0  0  0  0  0  0
  -28.5239  -24.1195   18.7736 H   0  0  0  0  0  0
  -26.0330  -22.8993   21.2655 H   0  0  0  0  0  0
  -25.9557  -21.5025   22.2970 H   0  0  0  0  0  0
  -29.8535  -21.4131   19.0279 H   0  0  0  0  0  0
  -28.6412  -16.4799   20.5946 H   0  0  0  0  0  0
  1 25  1  0  0  0
  1 30  2  0  0  0
  1 80  1  0  0  0
  2  3  1  0  0  0
  2 25  1  0  0  0
  2 81  1  0  0  0
  2 82  1  0  0  0
  3  4  1  0  0  0
  3 83  1  0  0  0
  3 84  1  0  0  0
  4  5  1  0  0  0
  4 85  1  0  0  0
  4 86  1  0  0  0
  5  6  1  0  0  0
  5 26  1  0  0  0
  5 87  1  0  0  0
  6 25  1  0  0  0
  6 88  1  0  0  0
  6 89  1  0  0  0
  7  8  2  0  0  0
  7 26  1  0  0  0
  7 29  1  0  0  0
  8  9  1  0  0  0
  8 22  1  0  0  0
  9 10  1  0  0  0
  9 27  2  0  0  0
 10 11  2  0  0  0
 10 15  1  0  0  0
 11 12  1  0  0  0
 11 90  1  0  0  0
 12 13  2  0  0  0
 12 91  1  0  0  0
 13 14  1  0  0  0
 13 31  1  0  0  0
 14 15  2  0  0  0
 14 92  1  0  0  0
 15 93  1  0  0  0
 16 17  2  0  0  0
 16 21  1  0  0  0
 16 31  1  0  0  0
 17 18  1  0  0  0
 17 94  1  0  0  0
 18 19  2  0  0  0
 18 95  1  0  0  0
 19 20  1  0  0  0
 19 24  1  0  0  0
 20 21  2  0  0  0
 20 96  1  0  0  0
 21 23  1  0  0  0
 22 28  1  0  0  0
 22 32  2  0  0  0
 26 27  1  0  0  0
 28 97  1  0  0  0
 28 98  1  0  0  0
 29 99  1  0  0  0
 29100  1  0  0  0
 33 34  1  0  0  0
 33 66  1  0  0  0
 33 70  2  0  0  0
 34 36  1  0  0  0
 34 59  1  0  0  0
 34101  1  0  0  0
 35 44  2  0  0  0
 35 45  1  0  0  0
 35 68  1  0  0  0
 36 56  1  0  0  0
 36102  1  0  0  0
 37 39  1  0  0  0
 37 47  1  0  0  0
 37 66  1  0  0  0
 37103  1  0  0  0
 38 43  2  0  0  0
 38 46  1  0  0  0
 38 47  1  0  0  0
 39 64  1  0  0  0
 39 67  2  0  0  0
 40 52  1  0  0  0
 40 53  2  0  0  0
 40 58  1  0  0  0
 41104  1  0  0  0
 41105  1  0  0  0
 41106  1  0  0  0
 41 48  1  0  0  0
 42 43  1  0  0  0
 42 66  1  0  0  0
 42107  1  0  0  0
 42108  1  0  0  0
 43 44  1  0  0  0
 44109  1  0  0  0
 45 46  2  0  0  0
 45110  1  0  0  0
 46111  1  0  0  0
 47112  1  0  0  0
 47113  1  0  0  0
 48 56  1  0  0  0
 48 65  1  0  0  0
 48114  1  0  0  0
 49 50  1  0  0  0
 49 53  1  0  0  0
 49 64  1  0  0  0
 49115  1  0  0  0
 50 51  1  0  0  0
 50116  1  0  0  0
 50117  1  0  0  0
 51 52  1  0  0  0
 51118  1  0  0  0
 51119  1  0  0  0
 52120  1  0  0  0
 52121  1  0  0  0
 53 54  1  0  0  0
 54 55  2  0  0  0
 54122  1  0  0  0
 55 57  1  0  0  0
 55123  1  0  0  0
 56 69  2  0  0  0
 57 58  2  0  0  0
 57124  1  0  0  0
 58125  1  0  0  0
 59 60  1  0  0  0
 59 61  1  0  0  0
 59 62  1  0  0  0
 60126  1  0  0  0
 60127  1  0  0  0
 60128  1  0  0  0
 61129  1  0  0  0
 61130  1  0  0  0
 61131  1  0  0  0
 62132  1  0  0  0
 62133  1  0  0  0
 62134  1  0  0  0
 63 65  1  0  0  0
 63135  1  0  0  0
 63136  1  0  0  0
 63137  1  0  0  0
 64138  1  0  0  0
 65139  1  0  0  0
 68 76  1  0  0  0
 71 72  2  0  0  0
 71 78  1  0  0  0
 71140  1  0  0  0
 72 75  1  0  0  0
 72 79  1  0  0  0
 73 76  1  0  0  0
 73 78  1  0  0  0
 73 79  2  0  0  0
 74 77  1  0  0  0
 74141  1  0  0  0
 74142  1  0  0  0
 74143  1  0  0  0
 75 80  1  0  0  0
 75144  1  0  0  0
 75145  1  0  0  0
 76146  1  0  0  0
 76147  1  0  0  0
 77 78  1  0  0  0
 77148  1  0  0  0
 77149  1  0  0  0
 79150  1  0  0  0
 80151  1  0  0  0
M  CHG  1  79   1
M  ISO  4   1 100  68 101  76 101  80 100
M  END
> <chiral flag>
0

> <version>
0

> <s_m_source_file>
/data/baiqing/PycharmProjects/Reinvent-master-3.2/result/LINK_invent/BTK/process_docking_weight1_custom_sum_contain_oxygen_bond_distance_aromatic_linkinvent_7_9_3/rearranged_h_0049.sdf

> <i_m_source_file_index>
83

> <r_mmod_Potential_Energy-OPLS-2005>
1409.76135253906

> <r_mmod_Stretch_Energy-OPLS-2005>
711.9423828125

> <r_mmod_Bend_Energy-OPLS-2005>
485.459533691406

> <r_mmod_Torsional_Energy-OPLS-2005>
222.705917358398

> <r_mmod_Improper_Torsional_Energy-OPLS-2005>
7.01778841018677

> <r_mmod_Van_der_Waal_Energy-OPLS-2005>
107.136962890625

> <r_mmod_Electrostatic_Energy-OPLS-2005>
-270.606781005859

> <r_mmod_Solvation_Energy-OPLS-2005>
-441.627136230469

> <b_mmod_Minimization_Converged-OPLS-2005>
0

> <r_mmod_RMS_Derivative-OPLS-2005>
3.64200091362

$$$$
85
                    3D
 Structure written by MMmdl.
153161  0  0  1  0            999 V2000
  -30.6273  -14.5830   20.5001 C   0  0  0  0  0  0
  -30.4291  -12.3610   19.4256 C   0  0  0  0  0  0
  -29.4898  -12.4993   18.2078 C   0  0  0  0  0  0
  -28.0153  -12.3417   18.6264 C   0  0  0  0  0  0
  -27.6506  -13.2028   19.8634 C   0  0  2  0  0  0
  -28.6979  -13.0267   20.9847 C   0  0  0  0  0  0
  -25.2557  -13.8132   20.5682 C   0  0  0  0  0  0
  -24.1803  -13.0418   20.9193 C   0  0  0  0  0  0
  -24.6350  -11.6896   20.8733 C   0  0  0  0  0  0
  -23.9020  -10.4282   21.0427 C   0  0  0  0  0  0
  -24.3586   -9.4204   21.9195 C   0  0  0  0  0  0
  -23.6276   -8.2234   22.0759 C   0  0  0  0  0  0
  -22.4272   -8.0266   21.3546 C   0  0  0  0  0  0
  -21.9887   -9.0229   20.4654 C   0  0  0  0  0  0
  -22.7195  -10.2117   20.3071 C   0  0  0  0  0  0
  -21.6841   -6.0714   22.5274 C   0  0  0  0  0  0
  -21.4020   -6.5629   23.8214 C   0  0  0  0  0  0
  -21.3663   -5.6790   24.9173 C   0  0  0  0  0  0
  -21.6047   -4.3046   24.7229 C   0  0  0  0  0  0
  -21.8828   -3.8140   23.4352 C   0  0  0  0  0  0
  -21.9202   -4.6947   22.3409 C   0  0  0  0  0  0
  -22.7836  -13.5233   21.1866 C   0  0  0  0  0  0
  -22.1666   -4.2131   21.0981 F   0  0  0  0  0  0
  -21.5625   -3.4542   25.7740 F   0  0  0  0  0  0
  -30.0118  -13.3658   20.4164 N   0  0  0  0  0  0
  -26.2967  -12.9288   20.3328 N   0  0  0  0  0  0
  -25.9277  -11.6460   20.5755 N   0  0  0  0  0  0
  -22.0494  -12.8199   22.0425 N   0  0  0  0  0  0
  -25.4320  -15.1843   20.4056 N   0  0  0  0  0  0
  -31.7968  -14.7568   20.1524 O   0  0  0  0  0  0
  -21.6647   -6.8848   21.4236 O   0  0  0  0  0  0
  -22.3535  -14.5557   20.6749 O   0  0  0  0  0  0
  -24.6204  -31.8598   23.2055 C   0  0  0  0  0  0
  -25.9074  -32.4772   23.8337 C   0  0  1  0  0  0
  -27.2385  -27.3706   20.1322 C   0  0  0  0  0  0
  -25.5882  -33.8568   24.2239 N   0  0  0  0  0  0
  -23.4156  -30.4835   21.5437 C   0  0  2  0  0  0
  -24.8661  -28.9447   20.1170 C   0  0  0  0  0  0
  -22.7442  -29.4631   22.4917 C   0  0  0  0  0  0
  -18.0291  -28.1371   22.8495 C   0  0  0  0  0  0
  -24.1474  -36.7304   23.2642 C   0  0  0  0  0  0
  -25.9494  -30.8140   21.3674 C   0  0  0  0  0  0
  -26.0308  -29.4436   20.7147 C   0  0  0  0  0  0
  -27.2208  -28.6675   20.7121 C   0  0  0  0  0  0
  -26.0511  -26.9040   19.5210 C   0  0  0  0  0  0
  -24.8744  -27.6755   19.5174 C   0  0  0  0  0  0
  -23.6307  -29.8159   20.1591 C   0  0  0  0  0  0
  -25.4106  -36.3068   24.0316 C   0  0  1  0  0  0
  -20.5899  -28.3674   23.1283 C   0  0  2  0  0  0
  -20.6791  -26.9391   22.5435 C   0  0  0  0  0  0
  -19.5767  -26.6370   21.5236 C   0  0  0  0  0  0
  -18.1941  -26.7926   22.1622 C   0  0  0  0  0  0
  -19.1546  -28.8837   23.2891 C   0  0  0  0  0  0
  -18.9466  -30.1449   23.8892 C   0  0  0  0  0  0
  -17.6464  -30.6581   24.0573 C   0  0  0  0  0  0
  -25.9049  -34.9441   23.5080 C   0  0  0  0  0  0
  -16.5360  -29.9088   23.6324 C   0  0  0  0  0  0
  -16.7291  -28.6510   23.0335 C   0  0  0  0  0  0
  -26.4475  -31.6576   25.0688 C   0  0  0  0  0  0
  -25.3708  -31.3725   26.1423 C   0  0  0  0  0  0
  -27.0321  -30.2992   24.6136 C   0  0  0  0  0  0
  -27.6018  -32.4344   25.7448 C   0  0  0  0  0  0
  -27.5572  -37.1806   24.8461 C   0  0  0  0  0  0
  -21.4154  -29.3034   22.3643 N   0  0  0  0  0  0
  -26.4278  -37.3765   23.9414 N   0  0  0  0  0  0
  -24.6807  -31.0651   22.0988 N   0  0  0  0  0  0
  -23.4183  -28.8163   23.2984 O   0  0  0  0  0  0
  -28.3800  -26.5744   20.1729 O   0  0  0  0  0  0
  -26.5599  -34.8895   22.4641 O   0  0  0  0  0  0
  -23.5379  -32.1361   23.7436 O   0  0  0  0  0  0
  -29.6330  -20.3926   20.9475 C   0  0  0  0  0  0
  -28.4250  -21.5026   19.5306 C   0  0  0  0  0  0
  -29.1256  -19.4912   20.0192 C   0  0  0  0  0  0
  -29.2110  -17.9581   19.8490 C   0  0  0  0  0  0
  -29.4966  -24.3377   20.6855 C   0  0  0  0  0  0
  -29.4089  -22.9299   21.4053 C   0  0  0  0  0  0
  -30.0719  -17.0972   20.8463 C   0  0  0  0  0  0
  -28.1816  -25.1524   20.4509 C   0  0  0  0  0  0
  -28.3622  -20.2357   19.1130 N   0  0  0  0  0  0
  -29.1809  -21.6891   20.6227 N   0  0  0  0  0  0
  -29.8029  -15.6238   20.7903 N   0  0  0  0  0  0
  -31.4699  -12.4853   19.1226 H   0  0  0  0  0  0
  -30.3569  -11.3592   19.8528 H   0  0  0  0  0  0
  -29.7412  -11.7524   17.4535 H   0  0  0  0  0  0
  -29.6293  -13.4742   17.7367 H   0  0  0  0  0  0
  -27.8420  -11.2869   18.8418 H   0  0  0  0  0  0
  -27.3568  -12.5869   17.7931 H   0  0  0  0  0  0
  -27.6788  -14.2421   19.5377 H   0  0  0  0  0  0
  -28.6982  -11.9964   21.3482 H   0  0  0  0  0  0
  -28.4537  -13.6429   21.8515 H   0  0  0  0  0  0
  -25.2738   -9.5682   22.4752 H   0  0  0  0  0  0
  -24.0005   -7.4624   22.7470 H   0  0  0  0  0  0
  -21.0829   -8.8737   19.8943 H   0  0  0  0  0  0
  -22.3671  -10.9646   19.6176 H   0  0  0  0  0  0
  -21.2020   -7.6141   23.9698 H   0  0  0  0  0  0
  -21.1469   -6.0526   25.9069 H   0  0  0  0  0  0
  -22.0606   -2.7601   23.2864 H   0  0  0  0  0  0
  -22.4146  -11.9840   22.4748 H   0  0  0  0  0  0
  -21.1132  -13.1199   22.2697 H   0  0  0  0  0  0
  -24.6657  -15.8400   20.5121 H   0  0  0  0  0  0
  -26.2737  -15.6137   20.0427 H   0  0  0  0  0  0
  -26.7137  -32.5468   23.1095 H   0  0  0  0  0  0
  -25.0018  -33.9693   25.0365 H   0  0  0  0  0  0
  -22.7113  -31.3028   21.3979 H   0  0  0  0  0  0
  -23.3684  -35.9677   23.3317 H   0  0  0  0  0  0
  -24.3574  -36.8922   22.2058 H   0  0  0  0  0  0
  -23.7274  -37.6531   23.6652 H   0  0  0  0  0  0
  -26.0694  -31.5769   20.5969 H   0  0  0  0  0  0
  -26.8322  -30.8679   21.9922 H   0  0  0  0  0  0
  -28.1181  -29.0438   21.1865 H   0  0  0  0  0  0
  -26.0070  -25.9382   19.0429 H   0  0  0  0  0  0
  -23.9801  -27.2780   19.0589 H   0  0  0  0  0  0
  -23.7516  -30.5862   19.3991 H   0  0  0  0  0  0
  -22.7515  -29.2438   19.8562 H   0  0  0  0  0  0
  -25.1305  -36.1944   25.0802 H   0  0  0  0  0  0
  -21.0020  -28.3272   24.1391 H   0  0  0  0  0  0
  -20.5733  -26.2265   23.3638 H   0  0  0  0  0  0
  -21.6650  -26.7468   22.1193 H   0  0  0  0  0  0
  -19.6913  -25.6287   21.1244 H   0  0  0  0  0  0
  -19.6680  -27.3179   20.6763 H   0  0  0  0  0  0
  -17.4219  -26.6675   21.4009 H   0  0  0  0  0  0
  -18.0324  -26.0060   22.8998 H   0  0  0  0  0  0
  -19.7954  -30.7260   24.2242 H   0  0  0  0  0  0
  -17.5046  -31.6274   24.5155 H   0  0  0  0  0  0
  -15.5375  -30.2987   23.7667 H   0  0  0  0  0  0
  -15.8692  -28.0864   22.7009 H   0  0  0  0  0  0
  -24.5885  -30.7064   25.7763 H   0  0  0  0  0  0
  -24.8876  -32.2898   26.4788 H   0  0  0  0  0  0
  -25.8028  -30.8956   27.0233 H   0  0  0  0  0  0
  -26.2899  -29.6721   24.1181 H   0  0  0  0  0  0
  -27.4033  -29.7274   25.4647 H   0  0  0  0  0  0
  -27.8732  -30.4262   23.9328 H   0  0  0  0  0  0
  -27.2606  -33.3653   26.1977 H   0  0  0  0  0  0
  -28.3828  -32.6904   25.0284 H   0  0  0  0  0  0
  -28.0657  -31.8517   26.5410 H   0  0  0  0  0  0
  -28.2591  -38.0104   24.7524 H   0  0  0  0  0  0
  -28.1065  -36.2637   24.6275 H   0  0  0  0  0  0
  -27.2293  -37.1492   25.8862 H   0  0  0  0  0  0
  -20.9327  -29.8772   21.6865 H   0  0  0  0  0  0
  -26.0140  -38.2812   24.1435 H   0  0  0  0  0  0
  -30.2509  -20.2168   21.8191 H   0  0  0  0  0  0
  -27.8970  -22.3024   19.0342 H   0  0  0  0  0  0
  -29.5657  -17.7523   18.8376 H   0  0  0  0  0  0
  -28.1948  -17.5628   19.8545 H   0  0  0  0  0  0
  -30.0927  -24.9607   21.3515 H   0  0  0  0  0  0
  -30.0852  -24.2867   19.7702 H   0  0  0  0  0  0
  -28.6631  -22.9611   22.2006 H   0  0  0  0  0  0
  -30.3604  -22.7820   21.9217 H   0  0  0  0  0  0
  -29.8492  -17.4079   21.8685 H   0  0  0  0  0  0
  -31.1303  -17.3131   20.6969 H   0  0  0  0  0  0
  -27.5666  -25.0696   21.3486 H   0  0  0  0  0  0
  -27.6382  -24.6721   19.6386 H   0  0  0  0  0  0
  -28.8533  -15.3441   20.9888 H   0  0  0  0  0  0
  1 25  1  0  0  0
  1 30  2  0  0  0
  1 81  1  0  0  0
  2  3  1  0  0  0
  2 25  1  0  0  0
  2 82  1  0  0  0
  2 83  1  0  0  0
  3  4  1  0  0  0
  3 84  1  0  0  0
  3 85  1  0  0  0
  4  5  1  0  0  0
  4 86  1  0  0  0
  4 87  1  0  0  0
  5  6  1  0  0  0
  5 26  1  0  0  0
  5 88  1  0  0  0
  6 25  1  0  0  0
  6 89  1  0  0  0
  6 90  1  0  0  0
  7  8  2  0  0  0
  7 26  1  0  0  0
  7 29  1  0  0  0
  8  9  1  0  0  0
  8 22  1  0  0  0
  9 10  1  0  0  0
  9 27  2  0  0  0
 10 11  2  0  0  0
 10 15  1  0  0  0
 11 12  1  0  0  0
 11 91  1  0  0  0
 12 13  2  0  0  0
 12 92  1  0  0  0
 13 14  1  0  0  0
 13 31  1  0  0  0
 14 15  2  0  0  0
 14 93  1  0  0  0
 15 94  1  0  0  0
 16 17  2  0  0  0
 16 21  1  0  0  0
 16 31  1  0  0  0
 17 18  1  0  0  0
 17 95  1  0  0  0
 18 19  2  0  0  0
 18 96  1  0  0  0
 19 20  1  0  0  0
 19 24  1  0  0  0
 20 21  2  0  0  0
 20 97  1  0  0  0
 21 23  1  0  0  0
 22 28  1  0  0  0
 22 32  2  0  0  0
 26 27  1  0  0  0
 28 98  1  0  0  0
 28 99  1  0  0  0
 29100  1  0  0  0
 29101  1  0  0  0
 33 34  1  0  0  0
 33 66  1  0  0  0
 33 70  2  0  0  0
 34 36  1  0  0  0
 34 59  1  0  0  0
 34102  1  0  0  0
 35 44  2  0  0  0
 35 45  1  0  0  0
 35 68  1  0  0  0
 36 56  1  0  0  0
 36103  1  0  0  0
 37 39  1  0  0  0
 37 47  1  0  0  0
 37 66  1  0  0  0
 37104  1  0  0  0
 38 43  2  0  0  0
 38 46  1  0  0  0
 38 47  1  0  0  0
 39 64  1  0  0  0
 39 67  2  0  0  0
 40 52  1  0  0  0
 40 53  2  0  0  0
 40 58  1  0  0  0
 41105  1  0  0  0
 41106  1  0  0  0
 41107  1  0  0  0
 41 48  1  0  0  0
 42 43  1  0  0  0
 42 66  1  0  0  0
 42108  1  0  0  0
 42109  1  0  0  0
 43 44  1  0  0  0
 44110  1  0  0  0
 45 46  2  0  0  0
 45111  1  0  0  0
 46112  1  0  0  0
 47113  1  0  0  0
 47114  1  0  0  0
 48 56  1  0  0  0
 48 65  1  0  0  0
 48115  1  0  0  0
 49 50  1  0  0  0
 49 53  1  0  0  0
 49 64  1  0  0  0
 49116  1  0  0  0
 50 51  1  0  0  0
 50117  1  0  0  0
 50118  1  0  0  0
 51 52  1  0  0  0
 51119  1  0  0  0
 51120  1  0  0  0
 52121  1  0  0  0
 52122  1  0  0  0
 53 54  1  0  0  0
 54 55  2  0  0  0
 54123  1  0  0  0
 55 57  1  0  0  0
 55124  1  0  0  0
 56 69  2  0  0  0
 57 58  2  0  0  0
 57125  1  0  0  0
 58126  1  0  0  0
 59 60  1  0  0  0
 59 61  1  0  0  0
 59 62  1  0  0  0
 60127  1  0  0  0
 60128  1  0  0  0
 60129  1  0  0  0
 61130  1  0  0  0
 61131  1  0  0  0
 61132  1  0  0  0
 62133  1  0  0  0
 62134  1  0  0  0
 62135  1  0  0  0
 63 65  1  0  0  0
 63136  1  0  0  0
 63137  1  0  0  0
 63138  1  0  0  0
 64139  1  0  0  0
 65140  1  0  0  0
 68 78  1  0  0  0
 71 73  2  0  0  0
 71 80  1  0  0  0
 71141  1  0  0  0
 72 79  2  0  0  0
 72 80  1  0  0  0
 72142  1  0  0  0
 73 74  1  0  0  0
 73 79  1  0  0  0
 74 77  1  0  0  0
 74143  1  0  0  0
 74144  1  0  0  0
 75 76  1  0  0  0
 75 78  1  0  0  0
 75145  1  0  0  0
 75146  1  0  0  0
 76 80  1  0  0  0
 76147  1  0  0  0
 76148  1  0  0  0
 77 81  1  0  0  0
 77149  1  0  0  0
 77150  1  0  0  0
 78151  1  0  0  0
 78152  1  0  0  0
 81153  1  0  0  0
M  ISO  4   1 100  68 101  78 101  81 100
M  END
> <chiral flag>
0

> <version>
0

> <s_m_source_file>
/data/baiqing/PycharmProjects/Reinvent-master-3.2/result/LINK_invent/BTK/process_docking_weight1_custom_sum_contain_oxygen_bond_distance_aromatic_linkinvent_7_9_3/rearranged_h_0049.sdf

> <i_m_source_file_index>
84

> <r_mmod_Potential_Energy-OPLS-2005>
-28.1470050811768

> <r_mmod_Stretch_Energy-OPLS-2005>
55.7792778015137

> <r_mmod_Bend_Energy-OPLS-2005>
130.426956176758

> <r_mmod_Torsional_Energy-OPLS-2005>
224.046081542969

> <r_mmod_Improper_Torsional_Energy-OPLS-2005>
5.12237644195557

> <r_mmod_Van_der_Waal_Energy-OPLS-2005>
120.239929199219

> <r_mmod_Electrostatic_Energy-OPLS-2005>
-363.947479248047

> <r_mmod_Solvation_Energy-OPLS-2005>
-232.146301269531

> <b_mmod_Minimization_Converged-OPLS-2005>
0

> <r_mmod_RMS_Derivative-OPLS-2005>
4.67773389816284

$$$$
86
                    3D
 Structure written by MMmdl.
151159  0  0  1  0            999 V2000
  -30.6257  -14.6228   20.5121 C   0  0  0  0  0  0
  -30.4364  -12.3827   19.4507 C   0  0  0  0  0  0
  -29.5069  -12.5111   18.2228 C   0  0  0  0  0  0
  -28.0292  -12.3497   18.6311 C   0  0  0  0  0  0
  -27.6537  -13.2135   19.8644 C   0  0  2  0  0  0
  -28.6970  -13.0568   20.9942 C   0  0  0  0  0  0
  -25.2558  -13.8162   20.5665 C   0  0  0  0  0  0
  -24.1829  -13.0435   20.9198 C   0  0  0  0  0  0
  -24.6389  -11.6902   20.8737 C   0  0  0  0  0  0
  -23.9056  -10.4288   21.0404 C   0  0  0  0  0  0
  -24.3610   -9.4207   21.9181 C   0  0  0  0  0  0
  -23.6286   -8.2244   22.0748 C   0  0  0  0  0  0
  -22.4268   -8.0279   21.3540 C   0  0  0  0  0  0
  -21.9897   -9.0257   20.4643 C   0  0  0  0  0  0
  -22.7227  -10.2138   20.3053 C   0  0  0  0  0  0
  -21.6855   -6.0731   22.5277 C   0  0  0  0  0  0
  -21.4018   -6.5636   23.8211 C   0  0  0  0  0  0
  -21.3660   -5.6788   24.9173 C   0  0  0  0  0  0
  -21.6046   -4.3053   24.7228 C   0  0  0  0  0  0
  -21.8820   -3.8141   23.4349 C   0  0  0  0  0  0
  -21.9195   -4.6955   22.3401 C   0  0  0  0  0  0
  -22.7856  -13.5240   21.1863 C   0  0  0  0  0  0
  -22.1664   -4.2139   21.0979 F   0  0  0  0  0  0
  -21.5624   -3.4540   25.7742 F   0  0  0  0  0  0
  -30.0163  -13.3971   20.4369 N   0  0  0  0  0  0
  -26.2981  -12.9337   20.3303 N   0  0  0  0  0  0
  -25.9316  -11.6498   20.5748 N   0  0  0  0  0  0
  -22.0482  -12.8240   22.0417 N   0  0  0  0  0  0
  -25.4252  -15.1885   20.4041 N   0  0  0  0  0  0
  -31.7863  -14.7843   20.1204 O   0  0  0  0  0  0
  -21.6635   -6.8874   21.4236 O   0  0  0  0  0  0
  -22.3550  -14.5548   20.6710 O   0  0  0  0  0  0
  -24.6233  -31.8603   23.2023 C   0  0  0  0  0  0
  -25.9088  -32.4782   23.8351 C   0  0  1  0  0  0
  -27.2313  -27.3403   20.1281 C   0  0  0  0  0  0
  -25.5911  -33.8580   24.2282 N   0  0  0  0  0  0
  -23.4172  -30.4815   21.5437 C   0  0  2  0  0  0
  -24.8669  -28.9348   20.1139 C   0  0  0  0  0  0
  -22.7459  -29.4620   22.4936 C   0  0  0  0  0  0
  -18.0286  -28.1380   22.8483 C   0  0  0  0  0  0
  -24.1491  -36.7303   23.2641 C   0  0  0  0  0  0
  -25.9546  -30.7998   21.3683 C   0  0  0  0  0  0
  -26.0326  -29.4261   20.7163 C   0  0  0  0  0  0
  -27.2205  -28.6408   20.7111 C   0  0  0  0  0  0
  -26.0481  -26.8922   19.5030 C   0  0  0  0  0  0
  -24.8750  -27.6721   19.4978 C   0  0  0  0  0  0
  -23.6326  -29.8119   20.1601 C   0  0  0  0  0  0
  -25.4112  -36.3086   24.0333 C   0  0  1  0  0  0
  -20.5882  -28.3681   23.1286 C   0  0  2  0  0  0
  -20.6773  -26.9406   22.5410 C   0  0  0  0  0  0
  -19.5751  -26.6381   21.5208 C   0  0  0  0  0  0
  -18.1932  -26.7920   22.1623 C   0  0  0  0  0  0
  -19.1535  -28.8847   23.2883 C   0  0  0  0  0  0
  -18.9462  -30.1445   23.8904 C   0  0  0  0  0  0
  -17.6463  -30.6581   24.0561 C   0  0  0  0  0  0
  -25.9042  -34.9454   23.5109 C   0  0  0  0  0  0
  -16.5354  -29.9082   23.6321 C   0  0  0  0  0  0
  -16.7274  -28.6498   23.0347 C   0  0  0  0  0  0
  -26.4490  -31.6582   25.0708 C   0  0  0  0  0  0
  -25.3742  -31.3715   26.1450 C   0  0  0  0  0  0
  -27.0322  -30.3010   24.6132 C   0  0  0  0  0  0
  -27.6057  -32.4310   25.7475 C   0  0  0  0  0  0
  -27.5577  -37.1809   24.8467 C   0  0  0  0  0  0
  -21.4173  -29.3036   22.3680 N   0  0  0  0  0  0
  -26.4295  -37.3775   23.9403 N   0  0  0  0  0  0
  -24.6837  -31.0631   22.0960 N   0  0  0  0  0  0
  -23.4187  -28.8161   23.3016 O   0  0  0  0  0  0
  -28.3578  -26.5146   20.1384 O   0  0  0  0  0  0
  -26.5609  -34.8918   22.4673 O   0  0  0  0  0  0
  -23.5401  -32.1389   23.7362 O   0  0  0  0  0  0
  -30.9188  -19.1595   20.2085 C   0  0  0  0  0  0
  -28.6661  -17.8291   20.7717 C   0  0  0  0  0  0
  -29.6837  -19.8699   20.2570 C   0  0  0  0  0  0
  -29.8899  -17.0970   20.6827 C   0  0  0  0  0  0
  -29.5674  -21.3455   19.7324 C   0  0  0  0  0  0
  -28.9092  -22.5042   20.5908 C   0  0  0  0  0  0
  -28.9567  -23.9630   19.9431 C   0  0  0  0  0  0
  -28.1988  -25.1484   20.6731 C   0  0  0  0  0  0
  -28.5511  -19.1762   20.5470 N   0  0  0  0  0  0
  -31.0227  -17.8078   20.4116 N   0  0  0  0  0  0
  -29.8141  -15.6565   20.8873 N   0  0  0  0  0  0
  -31.4785  -12.5044   19.1496 H   0  0  0  0  0  0
  -30.3678  -11.3838   19.8846 H   0  0  0  0  0  0
  -29.7686  -11.7662   17.4703 H   0  0  0  0  0  0
  -29.6532  -13.4849   17.7515 H   0  0  0  0  0  0
  -27.8633  -11.2953   18.8541 H   0  0  0  0  0  0
  -27.3776  -12.5883   17.7897 H   0  0  0  0  0  0
  -27.6756  -14.2502   19.5292 H   0  0  0  0  0  0
  -28.7036  -12.0328   21.3697 H   0  0  0  0  0  0
  -28.4415  -13.6808   21.8521 H   0  0  0  0  0  0
  -25.2757   -9.5687   22.4761 H   0  0  0  0  0  0
  -23.9996   -7.4636   22.7468 H   0  0  0  0  0  0
  -21.0825   -8.8780   19.8957 H   0  0  0  0  0  0
  -22.3680  -10.9681   19.6167 H   0  0  0  0  0  0
  -21.2013   -7.6143   23.9721 H   0  0  0  0  0  0
  -21.1478   -6.0515   25.9080 H   0  0  0  0  0  0
  -22.0594   -2.7599   23.2861 H   0  0  0  0  0  0
  -22.4099  -11.9908   22.4818 H   0  0  0  0  0  0
  -21.1106  -13.1278   22.2623 H   0  0  0  0  0  0
  -24.6428  -15.8287   20.4883 H   0  0  0  0  0  0
  -26.2446  -15.6183   19.9966 H   0  0  0  0  0  0
  -26.7156  -32.5471   23.1106 H   0  0  0  0  0  0
  -25.0063  -33.9725   25.0429 H   0  0  0  0  0  0
  -22.7098  -31.3006   21.3980 H   0  0  0  0  0  0
  -23.3732  -35.9660   23.3333 H   0  0  0  0  0  0
  -24.3577  -36.8884   22.2048 H   0  0  0  0  0  0
  -23.7274  -37.6529   23.6636 H   0  0  0  0  0  0
  -26.0772  -31.5610   20.5965 H   0  0  0  0  0  0
  -26.8382  -30.8554   21.9927 H   0  0  0  0  0  0
  -28.1185  -29.0144   21.1833 H   0  0  0  0  0  0
  -26.0276  -25.9253   19.0199 H   0  0  0  0  0  0
  -23.9828  -27.2909   19.0202 H   0  0  0  0  0  0
  -23.7492  -30.5861   19.4011 H   0  0  0  0  0  0
  -22.7545  -29.2381   19.8586 H   0  0  0  0  0  0
  -25.1295  -36.1946   25.0827 H   0  0  0  0  0  0
  -20.9975  -28.3260   24.1406 H   0  0  0  0  0  0
  -20.5667  -26.2293   23.3609 H   0  0  0  0  0  0
  -21.6644  -26.7432   22.1209 H   0  0  0  0  0  0
  -19.6914  -25.6291   21.1239 H   0  0  0  0  0  0
  -19.6685  -27.3188   20.6736 H   0  0  0  0  0  0
  -17.4195  -26.6652   21.4036 H   0  0  0  0  0  0
  -18.0345  -26.0067   22.9025 H   0  0  0  0  0  0
  -19.7938  -30.7257   24.2284 H   0  0  0  0  0  0
  -17.5019  -31.6260   24.5161 H   0  0  0  0  0  0
  -15.5357  -30.2991   23.7638 H   0  0  0  0  0  0
  -15.8671  -28.0820   22.7066 H   0  0  0  0  0  0
  -24.5900  -30.7079   25.7788 H   0  0  0  0  0  0
  -24.8957  -32.2884   26.4900 H   0  0  0  0  0  0
  -25.8084  -30.8874   27.0207 H   0  0  0  0  0  0
  -26.2876  -29.6764   24.1181 H   0  0  0  0  0  0
  -27.4063  -29.7257   25.4611 H   0  0  0  0  0  0
  -27.8728  -30.4303   23.9310 H   0  0  0  0  0  0
  -27.2670  -33.3605   26.2065 H   0  0  0  0  0  0
  -28.3861  -32.6878   25.0300 H   0  0  0  0  0  0
  -28.0730  -31.8426   26.5382 H   0  0  0  0  0  0
  -28.2616  -38.0084   24.7475 H   0  0  0  0  0  0
  -28.1050  -36.2613   24.6340 H   0  0  0  0  0  0
  -27.2289  -37.1515   25.8870 H   0  0  0  0  0  0
  -20.9346  -29.8769   21.6901 H   0  0  0  0  0  0
  -26.0180  -38.2857   24.1379 H   0  0  0  0  0  0
  -31.8324  -19.6679   19.9364 H   0  0  0  0  0  0
  -27.7423  -17.3152   20.9945 H   0  0  0  0  0  0
  -29.0395  -21.2904   18.7801 H   0  0  0  0  0  0
  -30.5769  -21.6658   19.4727 H   0  0  0  0  0  0
  -29.3960  -22.5384   21.5657 H   0  0  0  0  0  0
  -27.8704  -22.2366   20.7871 H   0  0  0  0  0  0
  -28.5666  -23.8984   18.9268 H   0  0  0  0  0  0
  -30.0036  -24.2486   19.8337 H   0  0  0  0  0  0
  -28.5555  -25.1881   21.7027 H   0  0  0  0  0  0
  -27.1469  -24.8755   20.7569 H   0  0  0  0  0  0
  -28.9122  -15.3375   21.2038 H   0  0  0  0  0  0
  1 25  1  0  0  0
  1 30  2  0  0  0
  1 81  1  0  0  0
  2  3  1  0  0  0
  2 25  1  0  0  0
  2 82  1  0  0  0
  2 83  1  0  0  0
  3  4  1  0  0  0
  3 84  1  0  0  0
  3 85  1  0  0  0
  4  5  1  0  0  0
  4 86  1  0  0  0
  4 87  1  0  0  0
  5  6  1  0  0  0
  5 26  1  0  0  0
  5 88  1  0  0  0
  6 25  1  0  0  0
  6 89  1  0  0  0
  6 90  1  0  0  0
  7  8  2  0  0  0
  7 26  1  0  0  0
  7 29  1  0  0  0
  8  9  1  0  0  0
  8 22  1  0  0  0
  9 10  1  0  0  0
  9 27  2  0  0  0
 10 11  2  0  0  0
 10 15  1  0  0  0
 11 12  1  0  0  0
 11 91  1  0  0  0
 12 13  2  0  0  0
 12 92  1  0  0  0
 13 14  1  0  0  0
 13 31  1  0  0  0
 14 15  2  0  0  0
 14 93  1  0  0  0
 15 94  1  0  0  0
 16 17  2  0  0  0
 16 21  1  0  0  0
 16 31  1  0  0  0
 17 18  1  0  0  0
 17 95  1  0  0  0
 18 19  2  0  0  0
 18 96  1  0  0  0
 19 20  1  0  0  0
 19 24  1  0  0  0
 20 21  2  0  0  0
 20 97  1  0  0  0
 21 23  1  0  0  0
 22 28  1  0  0  0
 22 32  2  0  0  0
 26 27  1  0  0  0
 28 98  1  0  0  0
 28 99  1  0  0  0
 29100  1  0  0  0
 29101  1  0  0  0
 33 34  1  0  0  0
 33 66  1  0  0  0
 33 70  2  0  0  0
 34 36  1  0  0  0
 34 59  1  0  0  0
 34102  1  0  0  0
 35 44  2  0  0  0
 35 45  1  0  0  0
 35 68  1  0  0  0
 36 56  1  0  0  0
 36103  1  0  0  0
 37 39  1  0  0  0
 37 47  1  0  0  0
 37 66  1  0  0  0
 37104  1  0  0  0
 38 43  2  0  0  0
 38 46  1  0  0  0
 38 47  1  0  0  0
 39 64  1  0  0  0
 39 67  2  0  0  0
 40 52  1  0  0  0
 40 53  2  0  0  0
 40 58  1  0  0  0
 41105  1  0  0  0
 41106  1  0  0  0
 41107  1  0  0  0
 41 48  1  0  0  0
 42 43  1  0  0  0
 42 66  1  0  0  0
 42108  1  0  0  0
 42109  1  0  0  0
 43 44  1  0  0  0
 44110  1  0  0  0
 45 46  2  0  0  0
 45111  1  0  0  0
 46112  1  0  0  0
 47113  1  0  0  0
 47114  1  0  0  0
 48 56  1  0  0  0
 48 65  1  0  0  0
 48115  1  0  0  0
 49 50  1  0  0  0
 49 53  1  0  0  0
 49 64  1  0  0  0
 49116  1  0  0  0
 50 51  1  0  0  0
 50117  1  0  0  0
 50118  1  0  0  0
 51 52  1  0  0  0
 51119  1  0  0  0
 51120  1  0  0  0
 52121  1  0  0  0
 52122  1  0  0  0
 53 54  1  0  0  0
 54 55  2  0  0  0
 54123  1  0  0  0
 55 57  1  0  0  0
 55124  1  0  0  0
 56 69  2  0  0  0
 57 58  2  0  0  0
 57125  1  0  0  0
 58126  1  0  0  0
 59 60  1  0  0  0
 59 61  1  0  0  0
 59 62  1  0  0  0
 60127  1  0  0  0
 60128  1  0  0  0
 60129  1  0  0  0
 61130  1  0  0  0
 61131  1  0  0  0
 61132  1  0  0  0
 62133  1  0  0  0
 62134  1  0  0  0
 62135  1  0  0  0
 63 65  1  0  0  0
 63136  1  0  0  0
 63137  1  0  0  0
 63138  1  0  0  0
 64139  1  0  0  0
 65140  1  0  0  0
 68 78  1  0  0  0
 71 73  2  0  0  0
 71 80  1  0  0  0
 71141  1  0  0  0
 72 74  1  0  0  0
 72 79  2  0  0  0
 72142  1  0  0  0
 73 75  1  0  0  0
 73 79  1  0  0  0
 74 80  2  0  0  0
 74 81  1  0  0  0
 75 76  1  0  0  0
 75143  1  0  0  0
 75144  1  0  0  0
 76 77  1  0  0  0
 76145  1  0  0  0
 76146  1  0  0  0
 77 78  1  0  0  0
 77147  1  0  0  0
 77148  1  0  0  0
 78149  1  0  0  0
 78150  1  0  0  0
 81151  1  0  0  0
M  ISO  4   1 100  68 101  78 101  81 100
M  END
> <chiral flag>
0

> <version>
0

> <s_m_source_file>
/data/baiqing/PycharmProjects/Reinvent-master-3.2/result/LINK_invent/BTK/process_docking_weight1_custom_sum_contain_oxygen_bond_distance_aromatic_linkinvent_7_9_3/rearranged_h_0049.sdf

> <i_m_source_file_index>
85

> <r_mmod_Potential_Energy-OPLS-2005>
62.1744194030762

> <r_mmod_Stretch_Energy-OPLS-2005>
73.7483596801758

> <r_mmod_Bend_Energy-OPLS-2005>
129.261093139648

> <r_mmod_Torsional_Energy-OPLS-2005>
216.551727294922

> <r_mmod_Improper_Torsional_Energy-OPLS-2005>
5.89082813262939

> <r_mmod_Van_der_Waal_Energy-OPLS-2005>
142.557708740234

> <r_mmod_Electrostatic_Energy-OPLS-2005>
-314.024322509766

> <r_mmod_Solvation_Energy-OPLS-2005>
-231.909805297852

> <b_mmod_Minimization_Converged-OPLS-2005>
0

> <r_mmod_RMS_Derivative-OPLS-2005>
1.05061626434326

$$$$
87
                    3D
 Structure written by MMmdl.
156164  0  0  1  0            999 V2000
  -30.6600  -14.5943   20.4610 C   0  0  0  0  0  0
  -30.4241  -12.3518   19.4496 C   0  0  0  0  0  0
  -29.4989  -12.4590   18.2182 C   0  0  0  0  0  0
  -28.0205  -12.3271   18.6339 C   0  0  0  0  0  0
  -27.6470  -13.2154   19.8517 C   0  0  2  0  0  0
  -28.6935  -13.0998   20.9819 C   0  0  0  0  0  0
  -25.2552  -13.8170   20.5697 C   0  0  0  0  0  0
  -24.1822  -13.0435   20.9205 C   0  0  0  0  0  0
  -24.6389  -11.6907   20.8746 C   0  0  0  0  0  0
  -23.9060  -10.4290   21.0410 C   0  0  0  0  0  0
  -24.3613   -9.4202   21.9188 C   0  0  0  0  0  0
  -23.6291   -8.2234   22.0753 C   0  0  0  0  0  0
  -22.4271   -8.0276   21.3544 C   0  0  0  0  0  0
  -21.9910   -9.0248   20.4643 C   0  0  0  0  0  0
  -22.7234  -10.2130   20.3055 C   0  0  0  0  0  0
  -21.6849   -6.0737   22.5282 C   0  0  0  0  0  0
  -21.4013   -6.5642   23.8217 C   0  0  0  0  0  0
  -21.3657   -5.6793   24.9182 C   0  0  0  0  0  0
  -21.6038   -4.3055   24.7228 C   0  0  0  0  0  0
  -21.8818   -3.8151   23.4351 C   0  0  0  0  0  0
  -21.9193   -4.6967   22.3408 C   0  0  0  0  0  0
  -22.7846  -13.5229   21.1868 C   0  0  0  0  0  0
  -22.1661   -4.2156   21.0983 F   0  0  0  0  0  0
  -21.5628   -3.4537   25.7742 F   0  0  0  0  0  0
  -30.0071  -13.3971   20.4004 N   0  0  0  0  0  0
  -26.2968  -12.9350   20.3298 N   0  0  0  0  0  0
  -25.9312  -11.6508   20.5761 N   0  0  0  0  0  0
  -22.0480  -12.8215   22.0414 N   0  0  0  0  0  0
  -25.4274  -15.1889   20.4119 N   0  0  0  0  0  0
  -31.8625  -14.6805   20.1960 O   0  0  0  0  0  0
  -21.6628   -6.8877   21.4245 O   0  0  0  0  0  0
  -22.3531  -14.5536   20.6718 O   0  0  0  0  0  0
  -24.6189  -31.8643   23.2059 C   0  0  0  0  0  0
  -25.9064  -32.4795   23.8369 C   0  0  1  0  0  0
  -27.2308  -27.3737   20.1033 C   0  0  0  0  0  0
  -25.5898  -33.8601   24.2307 N   0  0  0  0  0  0
  -23.4090  -30.4880   21.5459 C   0  0  2  0  0  0
  -24.8549  -28.9449   20.1125 C   0  0  0  0  0  0
  -22.7424  -29.4646   22.4950 C   0  0  0  0  0  0
  -18.0272  -28.1377   22.8496 C   0  0  0  0  0  0
  -24.1482  -36.7300   23.2638 C   0  0  0  0  0  0
  -25.9428  -30.8118   21.3658 C   0  0  0  0  0  0
  -26.0182  -29.4414   20.7120 C   0  0  0  0  0  0
  -27.2050  -28.6635   20.7022 C   0  0  0  0  0  0
  -26.0395  -26.9022   19.5052 C   0  0  0  0  0  0
  -24.8637  -27.6778   19.5059 C   0  0  0  0  0  0
  -23.6206  -29.8193   20.1609 C   0  0  0  0  0  0
  -25.4103  -36.3089   24.0329 C   0  0  1  0  0  0
  -20.5871  -28.3670   23.1304 C   0  0  2  0  0  0
  -20.6770  -26.9399   22.5412 C   0  0  0  0  0  0
  -19.5749  -26.6379   21.5207 C   0  0  0  0  0  0
  -18.1927  -26.7923   22.1619 C   0  0  0  0  0  0
  -19.1521  -28.8837   23.2903 C   0  0  0  0  0  0
  -18.9449  -30.1438   23.8920 C   0  0  0  0  0  0
  -17.6455  -30.6591   24.0563 C   0  0  0  0  0  0
  -25.9031  -34.9458   23.5116 C   0  0  0  0  0  0
  -16.5344  -29.9090   23.6329 C   0  0  0  0  0  0
  -16.7261  -28.6502   23.0358 C   0  0  0  0  0  0
  -26.4474  -31.6587   25.0714 C   0  0  0  0  0  0
  -25.3713  -31.3692   26.1443 C   0  0  0  0  0  0
  -27.0308  -30.3024   24.6116 C   0  0  0  0  0  0
  -27.6060  -32.4301   25.7470 C   0  0  0  0  0  0
  -27.5575  -37.1795   24.8466 C   0  0  0  0  0  0
  -21.4144  -29.3041   22.3706 N   0  0  0  0  0  0
  -26.4292  -37.3772   23.9404 N   0  0  0  0  0  0
  -24.6758  -31.0702   22.0974 N   0  0  0  0  0  0
  -23.4177  -28.8186   23.3007 O   0  0  0  0  0  0
  -28.4038  -26.6250   20.1478 O   0  0  0  0  0  0
  -26.5600  -34.8910   22.4684 O   0  0  0  0  0  0
  -23.5375  -32.1422   23.7434 O   0  0  0  0  0  0
  -29.8298  -20.4415   20.4465 C   0  0  0  0  0  0
  -27.9662  -19.5240   21.0372 C   0  0  0  0  0  0
  -28.8092  -21.3598   20.2349 C   0  0  0  0  0  0
  -29.9251  -16.3158   18.9014 C   0  0  0  0  0  0
  -28.8471  -22.7325   19.5415 C   0  0  0  0  0  0
  -28.4341  -24.0268   20.3341 C   0  0  0  0  0  0
  -30.0130  -18.0284   21.3843 C   0  0  0  0  0  0
  -29.3089  -16.6184   21.2478 C   0  0  0  0  0  0
  -28.5448  -25.3409   19.4741 C   0  0  0  0  0  0
  -27.6158  -20.7457   20.6190 N   0  0  0  0  0  0
  -29.2787  -19.2466   20.9454 N   0  0  0  0  0  0
  -29.8706  -15.6917   20.2281 N   0  0  0  0  0  0
  -31.4683  -12.4522   19.1468 H   0  0  0  0  0  0
  -30.3367  -11.3676   19.9118 H   0  0  0  0  0  0
  -29.7495  -11.6824   17.4942 H   0  0  0  0  0  0
  -29.6554  -13.4075   17.7052 H   0  0  0  0  0  0
  -27.8475  -11.2784   18.8787 H   0  0  0  0  0  0
  -27.3681  -12.5519   17.7891 H   0  0  0  0  0  0
  -27.6549  -14.2440   19.4924 H   0  0  0  0  0  0
  -28.6911  -12.0982   21.4142 H   0  0  0  0  0  0
  -28.4594  -13.7898   21.7939 H   0  0  0  0  0  0
  -25.2757   -9.5682   22.4767 H   0  0  0  0  0  0
  -23.9999   -7.4625   22.7474 H   0  0  0  0  0  0
  -21.0842   -8.8769   19.8948 H   0  0  0  0  0  0
  -22.3692  -10.9673   19.6168 H   0  0  0  0  0  0
  -21.2001   -7.6147   23.9726 H   0  0  0  0  0  0
  -21.1478   -6.0523   25.9085 H   0  0  0  0  0  0
  -22.0599   -2.7612   23.2851 H   0  0  0  0  0  0
  -22.4082  -11.9871   22.4804 H   0  0  0  0  0  0
  -21.1098  -13.1246   22.2598 H   0  0  0  0  0  0
  -24.6627  -15.8463   20.5200 H   0  0  0  0  0  0
  -26.2831  -15.6227   20.0912 H   0  0  0  0  0  0
  -26.7118  -32.5492   23.1115 H   0  0  0  0  0  0
  -25.0058  -33.9762   25.0464 H   0  0  0  0  0  0
  -22.6996  -31.3063   21.4027 H   0  0  0  0  0  0
  -23.3737  -35.9636   23.3308 H   0  0  0  0  0  0
  -24.3572  -36.8917   22.2050 H   0  0  0  0  0  0
  -23.7242  -37.6509   23.6657 H   0  0  0  0  0  0
  -26.0604  -31.5758   20.5965 H   0  0  0  0  0  0
  -26.8283  -30.8655   21.9864 H   0  0  0  0  0  0
  -28.1040  -29.0439   21.1665 H   0  0  0  0  0  0
  -25.9811  -25.9245   19.0522 H   0  0  0  0  0  0
  -23.9654  -27.2884   19.0472 H   0  0  0  0  0  0
  -23.7320  -30.5928   19.4001 H   0  0  0  0  0  0
  -22.7437  -29.2407   19.8652 H   0  0  0  0  0  0
  -25.1280  -36.1950   25.0820 H   0  0  0  0  0  0
  -20.9970  -28.3245   24.1420 H   0  0  0  0  0  0
  -20.5655  -26.2280   23.3604 H   0  0  0  0  0  0
  -21.6647  -26.7435   22.1210 H   0  0  0  0  0  0
  -19.6913  -25.6285   21.1241 H   0  0  0  0  0  0
  -19.6697  -27.3196   20.6743 H   0  0  0  0  0  0
  -17.4193  -26.6671   21.4018 H   0  0  0  0  0  0
  -18.0333  -26.0046   22.9001 H   0  0  0  0  0  0
  -19.7923  -30.7248   24.2308 H   0  0  0  0  0  0
  -17.5006  -31.6279   24.5150 H   0  0  0  0  0  0
  -15.5345  -30.3000   23.7640 H   0  0  0  0  0  0
  -15.8656  -28.0826   22.7070 H   0  0  0  0  0  0
  -24.5929  -30.6994   25.7776 H   0  0  0  0  0  0
  -24.8844  -32.2831   26.4850 H   0  0  0  0  0  0
  -25.8049  -30.8900   27.0229 H   0  0  0  0  0  0
  -26.2859  -29.6777   24.1171 H   0  0  0  0  0  0
  -27.4065  -29.7281   25.4591 H   0  0  0  0  0  0
  -27.8693  -30.4339   23.9269 H   0  0  0  0  0  0
  -27.2715  -33.3628   26.2022 H   0  0  0  0  0  0
  -28.3874  -32.6804   25.0282 H   0  0  0  0  0  0
  -28.0694  -31.8411   26.5392 H   0  0  0  0  0  0
  -28.2594  -38.0096   24.7524 H   0  0  0  0  0  0
  -28.1063  -36.2623   24.6278 H   0  0  0  0  0  0
  -27.2287  -37.1450   25.8870 H   0  0  0  0  0  0
  -20.9297  -29.8765   21.6935 H   0  0  0  0  0  0
  -26.0173  -38.2840   24.1428 H   0  0  0  0  0  0
  -30.8920  -20.5338   20.2610 H   0  0  0  0  0  0
  -27.2463  -18.8174   21.4257 H   0  0  0  0  0  0
  -28.9935  -16.8382   18.6807 H   0  0  0  0  0  0
  -30.0819  -15.5828   18.1100 H   0  0  0  0  0  0
  -30.7419  -17.0353   18.8380 H   0  0  0  0  0  0
  -28.2203  -22.6825   18.6503 H   0  0  0  0  0  0
  -29.8548  -22.8906   19.1548 H   0  0  0  0  0  0
  -29.0724  -24.1194   21.2132 H   0  0  0  0  0  0
  -27.4141  -23.9191   20.7045 H   0  0  0  0  0  0
  -30.9944  -18.0204   20.9101 H   0  0  0  0  0  0
  -30.2248  -18.1836   22.4427 H   0  0  0  0  0  0
  -28.2428  -16.7333   21.0572 H   0  0  0  0  0  0
  -29.3645  -16.1172   22.2156 H   0  0  0  0  0  0
  -27.9218  -25.2703   18.5838 H   0  0  0  0  0  0
  -29.5574  -25.3637   19.0700 H   0  0  0  0  0  0
  1 25  1  0  0  0
  1 30  2  0  0  0
  1 82  1  0  0  0
  2  3  1  0  0  0
  2 25  1  0  0  0
  2 83  1  0  0  0
  2 84  1  0  0  0
  3  4  1  0  0  0
  3 85  1  0  0  0
  3 86  1  0  0  0
  4  5  1  0  0  0
  4 87  1  0  0  0
  4 88  1  0  0  0
  5  6  1  0  0  0
  5 26  1  0  0  0
  5 89  1  0  0  0
  6 25  1  0  0  0
  6 90  1  0  0  0
  6 91  1  0  0  0
  7  8  2  0  0  0
  7 26  1  0  0  0
  7 29  1  0  0  0
  8  9  1  0  0  0
  8 22  1  0  0  0
  9 10  1  0  0  0
  9 27  2  0  0  0
 10 11  2  0  0  0
 10 15  1  0  0  0
 11 12  1  0  0  0
 11 92  1  0  0  0
 12 13  2  0  0  0
 12 93  1  0  0  0
 13 14  1  0  0  0
 13 31  1  0  0  0
 14 15  2  0  0  0
 14 94  1  0  0  0
 15 95  1  0  0  0
 16 17  2  0  0  0
 16 21  1  0  0  0
 16 31  1  0  0  0
 17 18  1  0  0  0
 17 96  1  0  0  0
 18 19  2  0  0  0
 18 97  1  0  0  0
 19 20  1  0  0  0
 19 24  1  0  0  0
 20 21  2  0  0  0
 20 98  1  0  0  0
 21 23  1  0  0  0
 22 28  1  0  0  0
 22 32  2  0  0  0
 26 27  1  0  0  0
 28 99  1  0  0  0
 28100  1  0  0  0
 29101  1  0  0  0
 29102  1  0  0  0
 33 34  1  0  0  0
 33 66  1  0  0  0
 33 70  2  0  0  0
 34 36  1  0  0  0
 34 59  1  0  0  0
 34103  1  0  0  0
 35 44  2  0  0  0
 35 45  1  0  0  0
 35 68  1  0  0  0
 36 56  1  0  0  0
 36104  1  0  0  0
 37 39  1  0  0  0
 37 47  1  0  0  0
 37 66  1  0  0  0
 37105  1  0  0  0
 38 43  2  0  0  0
 38 46  1  0  0  0
 38 47  1  0  0  0
 39 64  1  0  0  0
 39 67  2  0  0  0
 40 52  1  0  0  0
 40 53  2  0  0  0
 40 58  1  0  0  0
 41106  1  0  0  0
 41107  1  0  0  0
 41108  1  0  0  0
 41 48  1  0  0  0
 42 43  1  0  0  0
 42 66  1  0  0  0
 42109  1  0  0  0
 42110  1  0  0  0
 43 44  1  0  0  0
 44111  1  0  0  0
 45 46  2  0  0  0
 45112  1  0  0  0
 46113  1  0  0  0
 47114  1  0  0  0
 47115  1  0  0  0
 48 56  1  0  0  0
 48 65  1  0  0  0
 48116  1  0  0  0
 49 50  1  0  0  0
 49 53  1  0  0  0
 49 64  1  0  0  0
 49117  1  0  0  0
 50 51  1  0  0  0
 50118  1  0  0  0
 50119  1  0  0  0
 51 52  1  0  0  0
 51120  1  0  0  0
 51121  1  0  0  0
 52122  1  0  0  0
 52123  1  0  0  0
 53 54  1  0  0  0
 54 55  2  0  0  0
 54124  1  0  0  0
 55 57  1  0  0  0
 55125  1  0  0  0
 56 69  2  0  0  0
 57 58  2  0  0  0
 57126  1  0  0  0
 58127  1  0  0  0
 59 60  1  0  0  0
 59 61  1  0  0  0
 59 62  1  0  0  0
 60128  1  0  0  0
 60129  1  0  0  0
 60130  1  0  0  0
 61131  1  0  0  0
 61132  1  0  0  0
 61133  1  0  0  0
 62134  1  0  0  0
 62135  1  0  0  0
 62136  1  0  0  0
 63 65  1  0  0  0
 63137  1  0  0  0
 63138  1  0  0  0
 63139  1  0  0  0
 64140  1  0  0  0
 65141  1  0  0  0
 68 79  1  0  0  0
 71 73  2  0  0  0
 71 81  1  0  0  0
 71142  1  0  0  0
 72 80  2  0  0  0
 72 81  1  0  0  0
 72143  1  0  0  0
 73 75  1  0  0  0
 73 80  1  0  0  0
 74 82  1  0  0  0
 74144  1  0  0  0
 74145  1  0  0  0
 74146  1  0  0  0
 75 76  1  0  0  0
 75147  1  0  0  0
 75148  1  0  0  0
 76 79  1  0  0  0
 76149  1  0  0  0
 76150  1  0  0  0
 77 78  1  0  0  0
 77 81  1  0  0  0
 77151  1  0  0  0
 77152  1  0  0  0
 78 82  1  0  0  0
 78153  1  0  0  0
 78154  1  0  0  0
 79155  1  0  0  0
 79156  1  0  0  0
M  ISO  4   1 100  68 101  79 101  82 100
M  END
> <chiral flag>
0

> <version>
0

> <s_m_source_file>
/data/baiqing/PycharmProjects/Reinvent-master-3.2/result/LINK_invent/BTK/process_docking_weight1_custom_sum_contain_oxygen_bond_distance_aromatic_linkinvent_7_9_3/rearranged_h_0049.sdf

> <i_m_source_file_index>
86

> <r_mmod_Potential_Energy-OPLS-2005>
140.684921264648

> <r_mmod_Stretch_Energy-OPLS-2005>
55.938793182373

> <r_mmod_Bend_Energy-OPLS-2005>
137.454559326172

> <r_mmod_Torsional_Energy-OPLS-2005>
304.229919433594

> <r_mmod_Improper_Torsional_Energy-OPLS-2005>
22.2880191802979

> <r_mmod_Van_der_Waal_Energy-OPLS-2005>
116.149215698242

> <r_mmod_Electrostatic_Energy-OPLS-2005>
-313.721771240234

> <r_mmod_Solvation_Energy-OPLS-2005>
-217.551361083984

> <b_mmod_Minimization_Converged-OPLS-2005>
0

> <r_mmod_RMS_Derivative-OPLS-2005>
1.53747320175171

$$$$
88
                    3D
 Structure written by MMmdl.
176184  0  0  1  0            999 V2000
  -30.7587  -14.4043   20.6432 C   0  0  0  0  0  0
  -30.4200  -12.2980   19.4005 C   0  0  0  0  0  0
  -29.4891  -12.5199   18.1943 C   0  0  0  0  0  0
  -28.0132  -12.3708   18.6126 C   0  0  0  0  0  0
  -27.6646  -13.2024   19.8749 C   0  0  2  0  0  0
  -28.7060  -12.9669   20.9907 C   0  0  0  0  0  0
  -25.2619  -13.8149   20.5676 C   0  0  0  0  0  0
  -24.1858  -13.0435   20.9167 C   0  0  0  0  0  0
  -24.6405  -11.6899   20.8727 C   0  0  0  0  0  0
  -23.9065  -10.4291   21.0403 C   0  0  0  0  0  0
  -24.3613   -9.4203   21.9182 C   0  0  0  0  0  0
  -23.6287   -8.2241   22.0754 C   0  0  0  0  0  0
  -22.4270   -8.0283   21.3544 C   0  0  0  0  0  0
  -21.9910   -9.0258   20.4645 C   0  0  0  0  0  0
  -22.7238  -10.2134   20.3054 C   0  0  0  0  0  0
  -21.6853   -6.0736   22.5276 C   0  0  0  0  0  0
  -21.4010   -6.5638   23.8212 C   0  0  0  0  0  0
  -21.3660   -5.6793   24.9175 C   0  0  0  0  0  0
  -21.6046   -4.3060   24.7227 C   0  0  0  0  0  0
  -21.8817   -3.8147   23.4352 C   0  0  0  0  0  0
  -21.9193   -4.6961   22.3403 C   0  0  0  0  0  0
  -22.7882  -13.5244   21.1828 C   0  0  0  0  0  0
  -22.1661   -4.2150   21.0982 F   0  0  0  0  0  0
  -21.5632   -3.4543   25.7740 F   0  0  0  0  0  0
  -30.0429  -13.2645   20.4422 N   0  0  0  0  0  0
  -26.3043  -12.9309   20.3362 N   0  0  0  0  0  0
  -25.9330  -11.6471   20.5755 N   0  0  0  0  0  0
  -22.0522  -12.8237   22.0381 N   0  0  0  0  0  0
  -25.4372  -15.1863   20.4081 N   0  0  0  0  0  0
  -31.8460  -14.6169   20.0995 O   0  0  0  0  0  0
  -21.6634   -6.8875   21.4240 O   0  0  0  0  0  0
  -22.3571  -14.5557   20.6687 O   0  0  0  0  0  0
  -24.6140  -31.8718   23.2119 C   0  0  0  0  0  0
  -25.9038  -32.4835   23.8432 C   0  0  1  0  0  0
  -27.2273  -27.4550   20.0813 C   0  0  0  0  0  0
  -25.5905  -33.8638   24.2374 N   0  0  0  0  0  0
  -23.4015  -30.4950   21.5537 C   0  0  2  0  0  0
  -24.8462  -28.9697   20.1134 C   0  0  0  0  0  0
  -22.7412  -29.4658   22.4997 C   0  0  0  0  0  0
  -18.0275  -28.1370   22.8488 C   0  0  0  0  0  0
  -24.1475  -36.7300   23.2625 C   0  0  0  0  0  0
  -25.9282  -30.8440   21.3607 C   0  0  0  0  0  0
  -26.0074  -29.4809   20.7056 C   0  0  0  0  0  0
  -27.2067  -28.7336   20.6825 C   0  0  0  0  0  0
  -26.0505  -26.9553   19.4879 C   0  0  0  0  0  0
  -24.8623  -27.7068   19.4978 C   0  0  0  0  0  0
  -23.6071  -29.8326   20.1668 C   0  0  0  0  0  0
  -25.4104  -36.3114   24.0338 C   0  0  1  0  0  0
  -20.5877  -28.3649   23.1315 C   0  0  2  0  0  0
  -20.6760  -26.9384   22.5411 C   0  0  0  0  0  0
  -19.5735  -26.6378   21.5200 C   0  0  0  0  0  0
  -18.1920  -26.7917   22.1613 C   0  0  0  0  0  0
  -19.1530  -28.8827   23.2906 C   0  0  0  0  0  0
  -18.9461  -30.1430   23.8915 C   0  0  0  0  0  0
  -17.6465  -30.6559   24.0574 C   0  0  0  0  0  0
  -25.9021  -34.9469   23.5146 C   0  0  0  0  0  0
  -16.5357  -29.9076   23.6329 C   0  0  0  0  0  0
  -16.7274  -28.6499   23.0340 C   0  0  0  0  0  0
  -26.4478  -31.6595   25.0738 C   0  0  0  0  0  0
  -25.3728  -31.3713   26.1486 C   0  0  0  0  0  0
  -27.0309  -30.3045   24.6075 C   0  0  0  0  0  0
  -27.6082  -32.4305   25.7484 C   0  0  0  0  0  0
  -27.5580  -37.1797   24.8465 C   0  0  0  0  0  0
  -21.4144  -29.3042   22.3738 N   0  0  0  0  0  0
  -26.4289  -37.3791   23.9413 N   0  0  0  0  0  0
  -24.6668  -31.0835   22.1016 N   0  0  0  0  0  0
  -23.4205  -28.8160   23.2988 O   0  0  0  0  0  0
  -28.3797  -26.7035   20.0740 O   0  0  0  0  0  0
  -26.5544  -34.8895   22.4684 O   0  0  0  0  0  0
  -23.5330  -32.1479   23.7500 O   0  0  0  0  0  0
  -32.0163  -19.6528   18.1326 C   0  0  0  0  0  0
  -30.2835  -19.7964   19.8111 C   0  0  0  0  0  0
  -31.0478  -20.4255   18.8016 C   0  0  0  0  0  0
  -32.2107  -18.3148   18.5190 C   0  0  0  0  0  0
  -30.5388  -18.4447   20.1272 C   0  0  0  0  0  0
  -35.8389  -17.0601   18.0521 C   0  0  0  0  0  0
  -30.8760  -15.4104   22.8486 C   0  0  0  0  0  0
  -28.6094  -22.0664   17.5984 C   0  0  0  0  0  0
  -30.9086  -21.9119   18.4843 C   0  0  0  0  0  0
  -33.3090  -17.4854   17.8768 C   0  0  0  0  0  0
  -29.8425  -17.7917   21.3181 C   0  0  0  0  0  0
  -34.5231  -17.3007   18.8067 C   0  0  0  0  0  0
  -28.1687  -24.2094   19.8369 C   0  0  0  0  0  0
  -29.3166  -16.3425   21.1211 C   0  0  0  0  0  0
  -29.4809  -23.8438   19.1133 C   0  0  0  0  0  0
  -28.2694  -25.4472   20.7579 C   0  0  0  0  0  0
  -31.4926  -17.7276   19.5006 N   0  0  0  0  0  0
  -30.2396  -15.2687   21.5388 N   0  0  0  0  0  0
  -29.5295  -22.4087   18.7082 N   0  3  1  0  0  0
  -31.4637  -12.3942   19.0960 H   0  0  0  0  0  0
  -30.3181  -11.2814   19.7846 H   0  0  0  0  0  0
  -29.7273  -11.8104   17.4004 H   0  0  0  0  0  0
  -29.6566  -13.5142   17.7772 H   0  0  0  0  0  0
  -27.8294  -11.3132   18.8050 H   0  0  0  0  0  0
  -27.3583  -12.6490   17.7858 H   0  0  0  0  0  0
  -27.7133  -14.2517   19.5865 H   0  0  0  0  0  0
  -28.6763  -11.9283   21.3240 H   0  0  0  0  0  0
  -28.4593  -13.5593   21.8732 H   0  0  0  0  0  0
  -25.2763   -9.5680   22.4752 H   0  0  0  0  0  0
  -24.0000   -7.4636   22.7479 H   0  0  0  0  0  0
  -21.0839   -8.8775   19.8953 H   0  0  0  0  0  0
  -22.3700  -10.9672   19.6160 H   0  0  0  0  0  0
  -21.1997   -7.6146   23.9713 H   0  0  0  0  0  0
  -21.1484   -6.0525   25.9078 H   0  0  0  0  0  0
  -22.0596   -2.7611   23.2853 H   0  0  0  0  0  0
  -22.4126  -11.9885   22.4756 H   0  0  0  0  0  0
  -21.1144  -13.1268   22.2588 H   0  0  0  0  0  0
  -24.6760  -15.8474   20.5158 H   0  0  0  0  0  0
  -26.2956  -15.6192   20.0928 H   0  0  0  0  0  0
  -26.7109  -32.5554   23.1212 H   0  0  0  0  0  0
  -25.0157  -33.9842   25.0579 H   0  0  0  0  0  0
  -22.6872  -31.3109   21.4149 H   0  0  0  0  0  0
  -23.3733  -35.9635   23.3301 H   0  0  0  0  0  0
  -24.3561  -36.8904   22.2031 H   0  0  0  0  0  0
  -23.7244  -37.6509   23.6637 H   0  0  0  0  0  0
  -26.0308  -31.6124   20.5915 H   0  0  0  0  0  0
  -26.8195  -30.9012   21.9741 H   0  0  0  0  0  0
  -28.1095  -29.1231   21.1331 H   0  0  0  0  0  0
  -26.0399  -25.9934   19.0018 H   0  0  0  0  0  0
  -23.9721  -27.3128   19.0281 H   0  0  0  0  0  0
  -23.7136  -30.6124   19.4112 H   0  0  0  0  0  0
  -22.7307  -29.2525   19.8701 H   0  0  0  0  0  0
  -25.1266  -36.1997   25.0833 H   0  0  0  0  0  0
  -20.9962  -28.3235   24.1442 H   0  0  0  0  0  0
  -20.5653  -26.2249   23.3597 H   0  0  0  0  0  0
  -21.6625  -26.7413   22.1198 H   0  0  0  0  0  0
  -19.6875  -25.6293   21.1226 H   0  0  0  0  0  0
  -19.6678  -27.3188   20.6732 H   0  0  0  0  0  0
  -17.4185  -26.6681   21.4025 H   0  0  0  0  0  0
  -18.0319  -26.0064   22.9010 H   0  0  0  0  0  0
  -19.7936  -30.7265   24.2248 H   0  0  0  0  0  0
  -17.5023  -31.6244   24.5180 H   0  0  0  0  0  0
  -15.5355  -30.2986   23.7619 H   0  0  0  0  0  0
  -15.8678  -28.0838   22.6987 H   0  0  0  0  0  0
  -24.5870  -30.7076   25.7850 H   0  0  0  0  0  0
  -24.8908  -32.2849   26.4950 H   0  0  0  0  0  0
  -25.8050  -30.8876   27.0247 H   0  0  0  0  0  0
  -26.2852  -29.6832   24.1079 H   0  0  0  0  0  0
  -27.4059  -29.7253   25.4527 H   0  0  0  0  0  0
  -27.8700  -30.4361   23.9239 H   0  0  0  0  0  0
  -27.2723  -33.3599   26.2101 H   0  0  0  0  0  0
  -28.3872  -32.6891   25.0293 H   0  0  0  0  0  0
  -28.0768  -31.8398   26.5357 H   0  0  0  0  0  0
  -28.2587  -38.0092   24.7523 H   0  0  0  0  0  0
  -28.1084  -36.2621   24.6300 H   0  0  0  0  0  0
  -27.2296  -37.1499   25.8864 H   0  0  0  0  0  0
  -20.9278  -29.8828   21.7028 H   0  0  0  0  0  0
  -26.0182  -38.2870   24.1442 H   0  0  0  0  0  0
  -32.6380  -20.0948   17.3639 H   0  0  0  0  0  0
  -29.5461  -20.3385   20.3877 H   0  0  0  0  0  0
  -36.6501  -16.8423   18.7474 H   0  0  0  0  0  0
  -36.1259  -17.9480   17.4867 H   0  0  0  0  0  0
  -35.7599  -16.2261   17.3539 H   0  0  0  0  0  0
  -30.2190  -15.9161   23.5570 H   0  0  0  0  0  0
  -31.8022  -15.9812   22.7677 H   0  0  0  0  0  0
  -31.1195  -14.4351   23.2731 H   0  0  0  0  0  0
  -28.6640  -21.0047   17.3520 H   0  0  0  0  0  0
  -28.8532  -22.6340   16.6998 H   0  0  0  0  0  0
  -27.5732  -22.2815   17.8626 H   0  0  0  0  0  0
  -31.2282  -22.1198   17.4618 H   0  0  0  0  0  0
  -31.6160  -22.4277   19.1351 H   0  0  0  0  0  0
  -33.6183  -17.9810   16.9547 H   0  0  0  0  0  0
  -32.9098  -16.5146   17.5765 H   0  0  0  0  0  0
  -28.9742  -18.4121   21.5425 H   0  0  0  0  0  0
  -30.4811  -17.8933   22.1940 H   0  0  0  0  0  0
  -34.6510  -18.1977   19.4143 H   0  0  0  0  0  0
  -34.3215  -16.4885   19.5080 H   0  0  0  0  0  0
  -27.8715  -23.3688   20.4668 H   0  0  0  0  0  0
  -27.3631  -24.3166   19.1135 H   0  0  0  0  0  0
  -28.9794  -16.2086   20.0925 H   0  0  0  0  0  0
  -28.4263  -16.2175   21.7376 H   0  0  0  0  0  0
  -30.3055  -24.0438   19.7984 H   0  0  0  0  0  0
  -29.6415  -24.4927   18.2505 H   0  0  0  0  0  0
  -29.1350  -25.3451   21.4138 H   0  0  0  0  0  0
  -27.4099  -25.4487   21.4328 H   0  0  0  0  0  0
  -29.2264  -21.8713   19.5052 H   0  0  0  0  0  0
  1 25  1  0  0  0
  1 30  2  0  0  0
  1 88  1  0  0  0
  2  3  1  0  0  0
  2 25  1  0  0  0
  2 90  1  0  0  0
  2 91  1  0  0  0
  3  4  1  0  0  0
  3 92  1  0  0  0
  3 93  1  0  0  0
  4  5  1  0  0  0
  4 94  1  0  0  0
  4 95  1  0  0  0
  5  6  1  0  0  0
  5 26  1  0  0  0
  5 96  1  0  0  0
  6 25  1  0  0  0
  6 97  1  0  0  0
  6 98  1  0  0  0
  7  8  2  0  0  0
  7 26  1  0  0  0
  7 29  1  0  0  0
  8  9  1  0  0  0
  8 22  1  0  0  0
  9 10  1  0  0  0
  9 27  2  0  0  0
 10 11  2  0  0  0
 10 15  1  0  0  0
 11 12  1  0  0  0
 11 99  1  0  0  0
 12 13  2  0  0  0
 12100  1  0  0  0
 13 14  1  0  0  0
 13 31  1  0  0  0
 14 15  2  0  0  0
 14101  1  0  0  0
 15102  1  0  0  0
 16 17  2  0  0  0
 16 21  1  0  0  0
 16 31  1  0  0  0
 17 18  1  0  0  0
 17103  1  0  0  0
 18 19  2  0  0  0
 18104  1  0  0  0
 19 20  1  0  0  0
 19 24  1  0  0  0
 20 21  2  0  0  0
 20105  1  0  0  0
 21 23  1  0  0  0
 22 28  1  0  0  0
 22 32  2  0  0  0
 26 27  1  0  0  0
 28106  1  0  0  0
 28107  1  0  0  0
 29108  1  0  0  0
 29109  1  0  0  0
 33 34  1  0  0  0
 33 66  1  0  0  0
 33 70  2  0  0  0
 34 36  1  0  0  0
 34 59  1  0  0  0
 34110  1  0  0  0
 35 44  2  0  0  0
 35 45  1  0  0  0
 35 68  1  0  0  0
 36 56  1  0  0  0
 36111  1  0  0  0
 37 39  1  0  0  0
 37 47  1  0  0  0
 37 66  1  0  0  0
 37112  1  0  0  0
 38 43  2  0  0  0
 38 46  1  0  0  0
 38 47  1  0  0  0
 39 64  1  0  0  0
 39 67  2  0  0  0
 40 52  1  0  0  0
 40 53  2  0  0  0
 40 58  1  0  0  0
 41113  1  0  0  0
 41114  1  0  0  0
 41115  1  0  0  0
 41 48  1  0  0  0
 42 43  1  0  0  0
 42 66  1  0  0  0
 42116  1  0  0  0
 42117  1  0  0  0
 43 44  1  0  0  0
 44118  1  0  0  0
 45 46  2  0  0  0
 45119  1  0  0  0
 46120  1  0  0  0
 47121  1  0  0  0
 47122  1  0  0  0
 48 56  1  0  0  0
 48 65  1  0  0  0
 48123  1  0  0  0
 49 50  1  0  0  0
 49 53  1  0  0  0
 49 64  1  0  0  0
 49124  1  0  0  0
 50 51  1  0  0  0
 50125  1  0  0  0
 50126  1  0  0  0
 51 52  1  0  0  0
 51127  1  0  0  0
 51128  1  0  0  0
 52129  1  0  0  0
 52130  1  0  0  0
 53 54  1  0  0  0
 54 55  2  0  0  0
 54131  1  0  0  0
 55 57  1  0  0  0
 55132  1  0  0  0
 56 69  2  0  0  0
 57 58  2  0  0  0
 57133  1  0  0  0
 58134  1  0  0  0
 59 60  1  0  0  0
 59 61  1  0  0  0
 59 62  1  0  0  0
 60135  1  0  0  0
 60136  1  0  0  0
 60137  1  0  0  0
 61138  1  0  0  0
 61139  1  0  0  0
 61140  1  0  0  0
 62141  1  0  0  0
 62142  1  0  0  0
 62143  1  0  0  0
 63 65  1  0  0  0
 63144  1  0  0  0
 63145  1  0  0  0
 63146  1  0  0  0
 64147  1  0  0  0
 65148  1  0  0  0
 68 86  1  0  0  0
 71 73  2  0  0  0
 71 74  1  0  0  0
 71149  1  0  0  0
 72 73  1  0  0  0
 72 75  2  0  0  0
 72150  1  0  0  0
 73 79  1  0  0  0
 74 80  1  0  0  0
 74 87  2  0  0  0
 75 81  1  0  0  0
 75 87  1  0  0  0
 76 82  1  0  0  0
 76151  1  0  0  0
 76152  1  0  0  0
 76153  1  0  0  0
 77 88  1  0  0  0
 77154  1  0  0  0
 77155  1  0  0  0
 77156  1  0  0  0
 78157  1  0  0  0
 78158  1  0  0  0
 78159  1  0  0  0
 78 89  1  0  0  0
 79 89  1  0  0  0
 79160  1  0  0  0
 79161  1  0  0  0
 80 82  1  0  0  0
 80162  1  0  0  0
 80163  1  0  0  0
 81 84  1  0  0  0
 81164  1  0  0  0
 81165  1  0  0  0
 82166  1  0  0  0
 82167  1  0  0  0
 83 85  1  0  0  0
 83 86  1  0  0  0
 83168  1  0  0  0
 83169  1  0  0  0
 84 88  1  0  0  0
 84170  1  0  0  0
 84171  1  0  0  0
 85 89  1  0  0  0
 85172  1  0  0  0
 85173  1  0  0  0
 86174  1  0  0  0
 86175  1  0  0  0
 89176  1  0  0  0
M  CHG  1  89   1
M  ISO  4   1 100  68 101  86 101  88 100
M  END
> <chiral flag>
0

> <version>
0

> <s_m_source_file>
/data/baiqing/PycharmProjects/Reinvent-master-3.2/result/LINK_invent/BTK/process_docking_weight1_custom_sum_contain_oxygen_bond_distance_aromatic_linkinvent_7_9_3/rearranged_h_0049.sdf

> <i_m_source_file_index>
87

> <r_mmod_Potential_Energy-OPLS-2005>
-185.090316772461

> <r_mmod_Stretch_Energy-OPLS-2005>
36.2054786682129

> <r_mmod_Bend_Energy-OPLS-2005>
98.6057815551758

> <r_mmod_Torsional_Energy-OPLS-2005>
330.498077392578

> <r_mmod_Improper_Torsional_Energy-OPLS-2005>
3.54411482810974

> <r_mmod_Van_der_Waal_Energy-OPLS-2005>
148.332778930664

> <r_mmod_Electrostatic_Energy-OPLS-2005>
-359.207763671875

> <r_mmod_Solvation_Energy-OPLS-2005>
-452.233459472656

> <b_mmod_Minimization_Converged-OPLS-2005>
0

> <r_mmod_RMS_Derivative-OPLS-2005>
2.90869426727295

$$$$
89
                    3D
 Structure written by MMmdl.
162170  0  0  1  0            999 V2000
  -30.6973  -14.7305   20.4296 C   0  0  0  0  0  0
  -30.4127  -12.4428   19.4734 C   0  0  0  0  0  0
  -29.5033  -12.4799   18.2302 C   0  0  0  0  0  0
  -28.0334  -12.3150   18.6511 C   0  0  0  0  0  0
  -27.6336  -13.2430   19.8299 C   0  0  2  0  0  0
  -28.6847  -13.2413   20.9603 C   0  0  0  0  0  0
  -25.2507  -13.8248   20.5742 C   0  0  0  0  0  0
  -24.1807  -13.0475   20.9245 C   0  0  0  0  0  0
  -24.6410  -11.6944   20.8744 C   0  0  0  0  0  0
  -23.9078  -10.4320   21.0404 C   0  0  0  0  0  0
  -24.3639   -9.4234   21.9165 C   0  0  0  0  0  0
  -23.6324   -8.2262   22.0742 C   0  0  0  0  0  0
  -22.4297   -8.0295   21.3554 C   0  0  0  0  0  0
  -21.9928   -9.0263   20.4643 C   0  0  0  0  0  0
  -22.7244  -10.2148   20.3055 C   0  0  0  0  0  0
  -21.6865   -6.0750   22.5281 C   0  0  0  0  0  0
  -21.4013   -6.5650   23.8215 C   0  0  0  0  0  0
  -21.3671   -5.6795   24.9174 C   0  0  0  0  0  0
  -21.6053   -4.3056   24.7223 C   0  0  0  0  0  0
  -21.8827   -3.8157   23.4334 C   0  0  0  0  0  0
  -21.9201   -4.6978   22.3393 C   0  0  0  0  0  0
  -22.7819  -13.5234   21.1869 C   0  0  0  0  0  0
  -22.1674   -4.2173   21.0967 F   0  0  0  0  0  0
  -21.5631   -3.4530   25.7729 F   0  0  0  0  0  0
  -29.9772  -13.5598   20.3452 N   0  0  0  0  0  0
  -26.2922  -12.9474   20.3243 N   0  0  0  0  0  0
  -25.9329  -11.6601   20.5720 N   0  0  0  0  0  0
  -22.0456  -12.8224   22.0423 N   0  0  0  0  0  0
  -25.4175  -15.1980   20.4229 N   0  0  0  0  0  0
  -31.9175  -14.6548   20.2713 O   0  0  0  0  0  0
  -21.6660   -6.8883   21.4243 O   0  0  0  0  0  0
  -22.3478  -14.5518   20.6664 O   0  0  0  0  0  0
  -24.6373  -31.8565   23.1985 C   0  0  0  0  0  0
  -25.9178  -32.4763   23.8336 C   0  0  1  0  0  0
  -27.2116  -27.2519   20.1288 C   0  0  0  0  0  0
  -25.5974  -33.8560   24.2266 N   0  0  0  0  0  0
  -23.4337  -30.4870   21.5387 C   0  0  2  0  0  0
  -24.8782  -28.9389   20.1039 C   0  0  0  0  0  0
  -22.7531  -29.4635   22.4814 C   0  0  0  0  0  0
  -18.0342  -28.1420   22.8515 C   0  0  0  0  0  0
  -24.1492  -36.7304   23.2634 C   0  0  0  0  0  0
  -25.9836  -30.7690   21.3785 C   0  0  0  0  0  0
  -26.0540  -29.3930   20.7163 C   0  0  0  0  0  0
  -27.2230  -28.5637   20.7182 C   0  0  0  0  0  0
  -26.0113  -26.8737   19.4797 C   0  0  0  0  0  0
  -24.8634  -27.6857   19.4807 C   0  0  0  0  0  0
  -23.6548  -29.8335   20.1519 C   0  0  0  0  0  0
  -25.4115  -36.3079   24.0337 C   0  0  1  0  0  0
  -20.5955  -28.3742   23.1261 C   0  0  2  0  0  0
  -20.6853  -26.9443   22.5400 C   0  0  0  0  0  0
  -19.5772  -26.6401   21.5258 C   0  0  0  0  0  0
  -18.1965  -26.7969   22.1663 C   0  0  0  0  0  0
  -19.1606  -28.8895   23.2893 C   0  0  0  0  0  0
  -18.9505  -30.1500   23.8895 C   0  0  0  0  0  0
  -17.6501  -30.6601   24.0598 C   0  0  0  0  0  0
  -25.9062  -34.9442   23.5088 C   0  0  0  0  0  0
  -16.5405  -29.9105   23.6336 C   0  0  0  0  0  0
  -16.7327  -28.6542   23.0333 C   0  0  0  0  0  0
  -26.4538  -31.6596   25.0716 C   0  0  0  0  0  0
  -25.3732  -31.3754   26.1423 C   0  0  0  0  0  0
  -27.0372  -30.3023   24.6190 C   0  0  0  0  0  0
  -27.6113  -32.4355   25.7446 C   0  0  0  0  0  0
  -27.5582  -37.1795   24.8462 C   0  0  0  0  0  0
  -21.4236  -29.3080   22.3588 N   0  0  0  0  0  0
  -26.4285  -37.3775   23.9408 N   0  0  0  0  0  0
  -24.7043  -31.0543   22.0957 N   0  0  0  0  0  0
  -23.4216  -28.8147   23.2888 O   0  0  0  0  0  0
  -28.2882  -26.3318   20.2141 O   0  0  0  0  0  0
  -26.5579  -34.8913   22.4635 O   0  0  0  0  0  0
  -23.5532  -32.1356   23.7319 O   0  0  0  0  0  0
  -29.2919  -19.5032   19.9608 C   0  0  0  0  0  0
  -28.8608  -20.7655   20.5675 C   0  0  0  0  0  0
  -29.1735  -18.4681   20.9001 C   0  0  0  0  0  0
  -32.2152  -18.2279   17.7423 C   0  0  0  0  0  0
  -28.2954  -18.6428   23.3059 C   0  0  0  0  0  0
  -28.4280  -22.1624   19.9451 C   0  0  0  0  0  0
  -29.2643  -16.8649   20.9775 C   0  0  0  0  0  0
  -31.8713  -17.4143   18.9976 C   0  0  0  0  0  0
  -28.9268  -23.6209   20.4446 C   0  0  0  0  0  0
  -30.5626  -16.5987   18.8439 C   0  0  0  0  0  0
  -27.9962  -24.8701   19.9964 C   0  0  0  0  0  0
  -28.5492  -20.5111   21.8248 N   0  0  0  0  0  0
  -28.7147  -19.1699   22.0178 N   0  0  0  0  0  0
  -30.0936  -15.9490   20.0855 N   0  0  0  0  0  0
  -31.4592  -12.5122   19.1731 H   0  0  0  0  0  0
  -30.3212  -11.4901   19.9976 H   0  0  0  0  0  0
  -29.7860  -11.6941   17.5295 H   0  0  0  0  0  0
  -29.6389  -13.4280   17.7056 H   0  0  0  0  0  0
  -27.8992  -11.2713   18.9401 H   0  0  0  0  0  0
  -27.3770  -12.4813   17.7989 H   0  0  0  0  0  0
  -27.6077  -14.2480   19.4093 H   0  0  0  0  0  0
  -28.7199  -12.2691   21.4566 H   0  0  0  0  0  0
  -28.4284  -13.9757   21.7235 H   0  0  0  0  0  0
  -25.2797   -9.5718   22.4720 H   0  0  0  0  0  0
  -24.0066   -7.4655   22.7451 H   0  0  0  0  0  0
  -21.0867   -8.8750   19.8939 H   0  0  0  0  0  0
  -22.3689  -10.9675   19.6165 H   0  0  0  0  0  0
  -21.1989   -7.6153   23.9722 H   0  0  0  0  0  0
  -21.1488   -6.0516   25.9077 H   0  0  0  0  0  0
  -22.0589   -2.7618   23.2814 H   0  0  0  0  0  0
  -22.4118  -11.9958   22.4898 H   0  0  0  0  0  0
  -21.1029  -13.1173   22.2547 H   0  0  0  0  0  0
  -24.6476  -15.8445   20.5577 H   0  0  0  0  0  0
  -26.2572  -15.6449   20.0780 H   0  0  0  0  0  0
  -26.7226  -32.5427   23.1048 H   0  0  0  0  0  0
  -25.0191  -33.9730   25.0471 H   0  0  0  0  0  0
  -22.7333  -31.3127   21.3978 H   0  0  0  0  0  0
  -23.3769  -35.9620   23.3297 H   0  0  0  0  0  0
  -24.3580  -36.8914   22.2038 H   0  0  0  0  0  0
  -23.7228  -37.6509   23.6656 H   0  0  0  0  0  0
  -26.1258  -31.5323   20.6137 H   0  0  0  0  0  0
  -26.8625  -30.8143   22.0091 H   0  0  0  0  0  0
  -28.1201  -28.9047   21.2156 H   0  0  0  0  0  0
  -25.9053  -25.9171   18.9888 H   0  0  0  0  0  0
  -23.9664  -27.3266   18.9960 H   0  0  0  0  0  0
  -23.7924  -30.6212   19.4097 H   0  0  0  0  0  0
  -22.7685  -29.2852   19.8326 H   0  0  0  0  0  0
  -25.1284  -36.1930   25.0827 H   0  0  0  0  0  0
  -21.0137  -28.3365   24.1351 H   0  0  0  0  0  0
  -20.5890  -26.2319   23.3611 H   0  0  0  0  0  0
  -21.6692  -26.7513   22.1087 H   0  0  0  0  0  0
  -19.6932  -25.6320   21.1272 H   0  0  0  0  0  0
  -19.6735  -27.3238   20.6819 H   0  0  0  0  0  0
  -17.4255  -26.6805   21.4040 H   0  0  0  0  0  0
  -18.0299  -26.0098   22.9033 H   0  0  0  0  0  0
  -19.7963  -30.7359   24.2223 H   0  0  0  0  0  0
  -17.5030  -31.6278   24.5204 H   0  0  0  0  0  0
  -15.5389  -30.3002   23.7651 H   0  0  0  0  0  0
  -15.8738  -28.0890   22.6962 H   0  0  0  0  0  0
  -24.5888  -30.7138   25.7725 H   0  0  0  0  0  0
  -24.8948  -32.2915   26.4884 H   0  0  0  0  0  0
  -25.8007  -30.8873   27.0174 H   0  0  0  0  0  0
  -26.2923  -29.6761   24.1260 H   0  0  0  0  0  0
  -27.4105  -29.7318   25.4702 H   0  0  0  0  0  0
  -27.8781  -30.4323   23.9373 H   0  0  0  0  0  0
  -27.2745  -33.3672   26.2009 H   0  0  0  0  0  0
  -28.3879  -32.6897   25.0210 H   0  0  0  0  0  0
  -28.0810  -31.8475   26.5335 H   0  0  0  0  0  0
  -28.2590  -38.0104   24.7546 H   0  0  0  0  0  0
  -28.1087  -36.2645   24.6257 H   0  0  0  0  0  0
  -27.2304  -37.1402   25.8861 H   0  0  0  0  0  0
  -20.9399  -29.8750   21.6780 H   0  0  0  0  0  0
  -26.0195  -38.2840   24.1460 H   0  0  0  0  0  0
  -29.5514  -19.3747   18.9220 H   0  0  0  0  0  0
  -33.1153  -18.8244   17.8939 H   0  0  0  0  0  0
  -31.4070  -18.9136   17.4907 H   0  0  0  0  0  0
  -32.3907  -17.5892   16.8751 H   0  0  0  0  0  0
  -29.0361  -17.9514   23.7028 H   0  0  0  0  0  0
  -27.3379  -18.1323   23.1941 H   0  0  0  0  0  0
  -28.1593  -19.4464   24.0293 H   0  0  0  0  0  0
  -27.3403  -22.1968   20.0270 H   0  0  0  0  0  0
  -28.5926  -22.1201   18.8695 H   0  0  0  0  0  0
  -28.2445  -16.4886   20.8910 H   0  0  0  0  0  0
  -29.5612  -16.5976   21.9902 H   0  0  0  0  0  0
  -31.7955  -18.0931   19.8466 H   0  0  0  0  0  0
  -32.7164  -16.7607   19.2158 H   0  0  0  0  0  0
  -29.9497  -23.7819   20.0990 H   0  0  0  0  0  0
  -28.9783  -23.6107   21.5355 H   0  0  0  0  0  0
  -30.7150  -15.8329   18.0817 H   0  0  0  0  0  0
  -29.7702  -17.2258   18.4362 H   0  0  0  0  0  0
  -27.0320  -24.6649   20.4617 H   0  0  0  0  0  0
  -27.8288  -24.7564   18.9242 H   0  0  0  0  0  0
  1 25  1  0  0  0
  1 30  2  0  0  0
  1 84  1  0  0  0
  2  3  1  0  0  0
  2 25  1  0  0  0
  2 85  1  0  0  0
  2 86  1  0  0  0
  3  4  1  0  0  0
  3 87  1  0  0  0
  3 88  1  0  0  0
  4  5  1  0  0  0
  4 89  1  0  0  0
  4 90  1  0  0  0
  5  6  1  0  0  0
  5 26  1  0  0  0
  5 91  1  0  0  0
  6 25  1  0  0  0
  6 92  1  0  0  0
  6 93  1  0  0  0
  7  8  2  0  0  0
  7 26  1  0  0  0
  7 29  1  0  0  0
  8  9  1  0  0  0
  8 22  1  0  0  0
  9 10  1  0  0  0
  9 27  2  0  0  0
 10 11  2  0  0  0
 10 15  1  0  0  0
 11 12  1  0  0  0
 11 94  1  0  0  0
 12 13  2  0  0  0
 12 95  1  0  0  0
 13 14  1  0  0  0
 13 31  1  0  0  0
 14 15  2  0  0  0
 14 96  1  0  0  0
 15 97  1  0  0  0
 16 17  2  0  0  0
 16 21  1  0  0  0
 16 31  1  0  0  0
 17 18  1  0  0  0
 17 98  1  0  0  0
 18 19  2  0  0  0
 18 99  1  0  0  0
 19 20  1  0  0  0
 19 24  1  0  0  0
 20 21  2  0  0  0
 20100  1  0  0  0
 21 23  1  0  0  0
 22 28  1  0  0  0
 22 32  2  0  0  0
 26 27  1  0  0  0
 28101  1  0  0  0
 28102  1  0  0  0
 29103  1  0  0  0
 29104  1  0  0  0
 33 34  1  0  0  0
 33 66  1  0  0  0
 33 70  2  0  0  0
 34 36  1  0  0  0
 34 59  1  0  0  0
 34105  1  0  0  0
 35 44  2  0  0  0
 35 45  1  0  0  0
 35 68  1  0  0  0
 36 56  1  0  0  0
 36106  1  0  0  0
 37 39  1  0  0  0
 37 47  1  0  0  0
 37 66  1  0  0  0
 37107  1  0  0  0
 38 43  2  0  0  0
 38 46  1  0  0  0
 38 47  1  0  0  0
 39 64  1  0  0  0
 39 67  2  0  0  0
 40 52  1  0  0  0
 40 53  2  0  0  0
 40 58  1  0  0  0
 41108  1  0  0  0
 41109  1  0  0  0
 41110  1  0  0  0
 41 48  1  0  0  0
 42 43  1  0  0  0
 42 66  1  0  0  0
 42111  1  0  0  0
 42112  1  0  0  0
 43 44  1  0  0  0
 44113  1  0  0  0
 45 46  2  0  0  0
 45114  1  0  0  0
 46115  1  0  0  0
 47116  1  0  0  0
 47117  1  0  0  0
 48 56  1  0  0  0
 48 65  1  0  0  0
 48118  1  0  0  0
 49 50  1  0  0  0
 49 53  1  0  0  0
 49 64  1  0  0  0
 49119  1  0  0  0
 50 51  1  0  0  0
 50120  1  0  0  0
 50121  1  0  0  0
 51 52  1  0  0  0
 51122  1  0  0  0
 51123  1  0  0  0
 52124  1  0  0  0
 52125  1  0  0  0
 53 54  1  0  0  0
 54 55  2  0  0  0
 54126  1  0  0  0
 55 57  1  0  0  0
 55127  1  0  0  0
 56 69  2  0  0  0
 57 58  2  0  0  0
 57128  1  0  0  0
 58129  1  0  0  0
 59 60  1  0  0  0
 59 61  1  0  0  0
 59 62  1  0  0  0
 60130  1  0  0  0
 60131  1  0  0  0
 60132  1  0  0  0
 61133  1  0  0  0
 61134  1  0  0  0
 61135  1  0  0  0
 62136  1  0  0  0
 62137  1  0  0  0
 62138  1  0  0  0
 63 65  1  0  0  0
 63139  1  0  0  0
 63140  1  0  0  0
 63141  1  0  0  0
 64142  1  0  0  0
 65143  1  0  0  0
 68 81  1  0  0  0
 71 72  1  0  0  0
 71 73  2  0  0  0
 71144  1  0  0  0
 72 76  1  0  0  0
 72 82  2  0  0  0
 73 77  1  0  0  0
 73 83  1  0  0  0
 74 78  1  0  0  0
 74145  1  0  0  0
 74146  1  0  0  0
 74147  1  0  0  0
 75 83  1  0  0  0
 75148  1  0  0  0
 75149  1  0  0  0
 75150  1  0  0  0
 76 79  1  0  0  0
 76151  1  0  0  0
 76152  1  0  0  0
 77 84  1  0  0  0
 77153  1  0  0  0
 77154  1  0  0  0
 78 80  1  0  0  0
 78155  1  0  0  0
 78156  1  0  0  0
 79 81  1  0  0  0
 79157  1  0  0  0
 79158  1  0  0  0
 80 84  1  0  0  0
 80159  1  0  0  0
 80160  1  0  0  0
 81161  1  0  0  0
 81162  1  0  0  0
 82 83  1  0  0  0
M  ISO  4   1 100  68 101  81 101  84 100
M  END
> <chiral flag>
0

> <version>
0

> <s_m_source_file>
/data/baiqing/PycharmProjects/Reinvent-master-3.2/result/LINK_invent/BTK/process_docking_weight1_custom_sum_contain_oxygen_bond_distance_aromatic_linkinvent_7_9_3/rearranged_h_0049.sdf

> <i_m_source_file_index>
88

> <r_mmod_Potential_Energy-OPLS-2005>
298.061889648438

> <r_mmod_Stretch_Energy-OPLS-2005>
129.600814819336

> <r_mmod_Bend_Energy-OPLS-2005>
204.929077148438

> <r_mmod_Torsional_Energy-OPLS-2005>
282.247375488281

> <r_mmod_Improper_Torsional_Energy-OPLS-2005>
24.5397548675537

> <r_mmod_Van_der_Waal_Energy-OPLS-2005>
120.924507141113

> <r_mmod_Electrostatic_Energy-OPLS-2005>
-353.581451416016

> <r_mmod_Solvation_Energy-OPLS-2005>
-211.37532043457

> <b_mmod_Minimization_Converged-OPLS-2005>
0

> <r_mmod_RMS_Derivative-OPLS-2005>
4.39218902587891

$$$$
90
                    3D
 Structure written by MMmdl.
158166  0  0  1  0            999 V2000
  -30.6550  -14.4921   20.5682 C   0  0  0  0  0  0
  -30.4307  -12.3169   19.4280 C   0  0  0  0  0  0
  -29.5012  -12.5195   18.2113 C   0  0  0  0  0  0
  -28.0206  -12.3750   18.6169 C   0  0  0  0  0  0
  -27.6639  -13.2022   19.8814 C   0  0  2  0  0  0
  -28.7021  -12.9629   21.0026 C   0  0  0  0  0  0
  -25.2608  -13.8148   20.5688 C   0  0  0  0  0  0
  -24.1841  -13.0437   20.9152 C   0  0  0  0  0  0
  -24.6382  -11.6898   20.8719 C   0  0  0  0  0  0
  -23.9049  -10.4290   21.0391 C   0  0  0  0  0  0
  -24.3609   -9.4213   21.9171 C   0  0  0  0  0  0
  -23.6291   -8.2247   22.0745 C   0  0  0  0  0  0
  -22.4275   -8.0272   21.3534 C   0  0  0  0  0  0
  -21.9902   -9.0243   20.4638 C   0  0  0  0  0  0
  -22.7223  -10.2126   20.3044 C   0  0  0  0  0  0
  -21.6855   -6.0733   22.5278 C   0  0  0  0  0  0
  -21.4008   -6.5639   23.8206 C   0  0  0  0  0  0
  -21.3668   -5.6794   24.9174 C   0  0  0  0  0  0
  -21.6050   -4.3057   24.7225 C   0  0  0  0  0  0
  -21.8823   -3.8144   23.4348 C   0  0  0  0  0  0
  -21.9190   -4.6963   22.3401 C   0  0  0  0  0  0
  -22.7874  -13.5247   21.1842 C   0  0  0  0  0  0
  -22.1661   -4.2148   21.0981 F   0  0  0  0  0  0
  -21.5636   -3.4540   25.7740 F   0  0  0  0  0  0
  -30.0345  -13.2846   20.4627 N   0  0  0  0  0  0
  -26.3029  -12.9302   20.3366 N   0  0  0  0  0  0
  -25.9303  -11.6466   20.5737 N   0  0  0  0  0  0
  -22.0519  -12.8215   22.0391 N   0  0  0  0  0  0
  -25.4356  -15.1868   20.4146 N   0  0  0  0  0  0
  -31.7658  -14.7249   20.0808 O   0  0  0  0  0  0
  -21.6637   -6.8874   21.4236 O   0  0  0  0  0  0
  -22.3555  -14.5565   20.6717 O   0  0  0  0  0  0
  -24.6149  -31.8686   23.2077 C   0  0  0  0  0  0
  -25.9047  -32.4817   23.8372 C   0  0  1  0  0  0
  -27.2346  -27.4280   20.1035 C   0  0  0  0  0  0
  -25.5909  -33.8610   24.2317 N   0  0  0  0  0  0
  -23.4014  -30.4918   21.5483 C   0  0  2  0  0  0
  -24.8495  -28.9495   20.1193 C   0  0  0  0  0  0
  -22.7386  -29.4678   22.4990 C   0  0  0  0  0  0
  -18.0251  -28.1341   22.8478 C   0  0  0  0  0  0
  -24.1492  -36.7312   23.2646 C   0  0  0  0  0  0
  -25.9314  -30.8330   21.3594 C   0  0  0  0  0  0
  -26.0107  -29.4650   20.7100 C   0  0  0  0  0  0
  -27.2077  -28.7130   20.6953 C   0  0  0  0  0  0
  -26.0617  -26.9281   19.5030 C   0  0  0  0  0  0
  -24.8704  -27.6793   19.5134 C   0  0  0  0  0  0
  -23.6112  -29.8182   20.1655 C   0  0  0  0  0  0
  -25.4111  -36.3107   24.0343 C   0  0  1  0  0  0
  -20.5847  -28.3637   23.1309 C   0  0  2  0  0  0
  -20.6754  -26.9370   22.5420 C   0  0  0  0  0  0
  -19.5739  -26.6368   21.5197 C   0  0  0  0  0  0
  -18.1906  -26.7893   22.1599 C   0  0  0  0  0  0
  -19.1504  -28.8798   23.2887 C   0  0  0  0  0  0
  -18.9451  -30.1400   23.8900 C   0  0  0  0  0  0
  -17.6465  -30.6562   24.0542 C   0  0  0  0  0  0
  -25.9054  -34.9473   23.5135 C   0  0  0  0  0  0
  -16.5341  -29.9073   23.6328 C   0  0  0  0  0  0
  -16.7248  -28.6485   23.0354 C   0  0  0  0  0  0
  -26.4457  -31.6588   25.0702 C   0  0  0  0  0  0
  -25.3733  -31.3700   26.1465 C   0  0  0  0  0  0
  -27.0278  -30.3031   24.6058 C   0  0  0  0  0  0
  -27.6026  -32.4308   25.7468 C   0  0  0  0  0  0
  -27.5578  -37.1808   24.8465 C   0  0  0  0  0  0
  -21.4126  -29.3017   22.3722 N   0  0  0  0  0  0
  -26.4292  -37.3801   23.9417 N   0  0  0  0  0  0
  -24.6673  -31.0787   22.0976 N   0  0  0  0  0  0
  -23.4164  -28.8233   23.3032 O   0  0  0  0  0  0
  -28.3939  -26.6855   20.0613 O   0  0  0  0  0  0
  -26.5614  -34.8923   22.4693 O   0  0  0  0  0  0
  -23.5351  -32.1443   23.7489 O   0  0  0  0  0  0
  -27.1665  -21.2978   19.9854 C   0  0  0  0  0  0
  -28.9802  -20.4492   21.3379 C   0  0  0  0  0  0
  -28.2606  -21.5667   20.8335 C   0  0  0  0  0  0
  -26.8384  -19.9622   19.6860 C   0  0  0  0  0  0
  -28.5778  -19.1333   20.9910 C   0  0  0  0  0  0
  -25.6372  -19.6186   18.8299 C   0  0  0  0  0  0
  -28.5979  -23.0008   21.2829 C   0  0  0  0  0  0
  -29.1828  -17.8619   21.6173 C   0  0  0  0  0  0
  -28.2334  -24.1778   20.3255 C   0  0  0  0  0  0
  -29.8939  -16.8920   20.6264 C   0  0  0  0  0  0
  -28.4691  -25.5719   20.9697 C   0  0  0  0  0  0
  -27.5237  -18.9112   20.1766 N   0  0  0  0  0  0
  -29.8747  -15.4771   21.0573 N   0  0  0  0  0  0
  -31.4763  -12.4302   19.1355 H   0  0  0  0  0  0
  -30.3384  -11.3009   19.8143 H   0  0  0  0  0  0
  -29.7456  -11.8015   17.4277 H   0  0  0  0  0  0
  -29.6677  -13.5075   17.7792 H   0  0  0  0  0  0
  -27.8290  -11.3173   18.7995 H   0  0  0  0  0  0
  -27.3751  -12.6615   17.7862 H   0  0  0  0  0  0
  -27.7116  -14.2534   19.5962 H   0  0  0  0  0  0
  -28.6810  -11.9196   21.3207 H   0  0  0  0  0  0
  -28.4600  -13.5391   21.8970 H   0  0  0  0  0  0
  -25.2763   -9.5694   22.4733 H   0  0  0  0  0  0
  -24.0010   -7.4640   22.7460 H   0  0  0  0  0  0
  -21.0836   -8.8752   19.8939 H   0  0  0  0  0  0
  -22.3681  -10.9657   19.6144 H   0  0  0  0  0  0
  -21.1994   -7.6144   23.9710 H   0  0  0  0  0  0
  -21.1489   -6.0524   25.9077 H   0  0  0  0  0  0
  -22.0594   -2.7605   23.2844 H   0  0  0  0  0  0
  -22.4137  -11.9870   22.4764 H   0  0  0  0  0  0
  -21.1130  -13.1208   22.2607 H   0  0  0  0  0  0
  -24.6736  -15.8461   20.5280 H   0  0  0  0  0  0
  -26.2989  -15.6297   20.1250 H   0  0  0  0  0  0
  -26.7119  -32.5522   23.1140 H   0  0  0  0  0  0
  -25.0023  -33.9761   25.0433 H   0  0  0  0  0  0
  -22.6921  -31.3095   21.4052 H   0  0  0  0  0  0
  -23.3744  -35.9656   23.3314 H   0  0  0  0  0  0
  -24.3584  -36.8923   22.2061 H   0  0  0  0  0  0
  -23.7254  -37.6526   23.6654 H   0  0  0  0  0  0
  -26.0493  -31.6009   20.5928 H   0  0  0  0  0  0
  -26.8188  -30.8852   21.9791 H   0  0  0  0  0  0
  -28.1069  -29.1154   21.1393 H   0  0  0  0  0  0
  -26.0765  -25.9622   19.0174 H   0  0  0  0  0  0
  -23.9799  -27.2771   19.0514 H   0  0  0  0  0  0
  -23.7184  -30.5917   19.4041 H   0  0  0  0  0  0
  -22.7344  -29.2390   19.8690 H   0  0  0  0  0  0
  -25.1289  -36.1987   25.0838 H   0  0  0  0  0  0
  -20.9911  -28.3201   24.1438 H   0  0  0  0  0  0
  -20.5628  -26.2241   23.3602 H   0  0  0  0  0  0
  -21.6631  -26.7418   22.1214 H   0  0  0  0  0  0
  -19.6923  -25.6286   21.1209 H   0  0  0  0  0  0
  -19.6680  -27.3180   20.6727 H   0  0  0  0  0  0
  -17.4185  -26.6603   21.3997 H   0  0  0  0  0  0
  -18.0303  -26.0015   22.8984 H   0  0  0  0  0  0
  -19.7940  -30.7176   24.2277 H   0  0  0  0  0  0
  -17.5051  -31.6254   24.5119 H   0  0  0  0  0  0
  -15.5347  -30.2990   23.7672 H   0  0  0  0  0  0
  -15.8630  -28.0823   22.7087 H   0  0  0  0  0  0
  -24.5896  -30.7048   25.7823 H   0  0  0  0  0  0
  -24.8917  -32.2854   26.4915 H   0  0  0  0  0  0
  -25.8106  -30.8892   27.0216 H   0  0  0  0  0  0
  -26.2816  -29.6795   24.1125 H   0  0  0  0  0  0
  -27.4072  -29.7268   25.4502 H   0  0  0  0  0  0
  -27.8636  -30.4341   23.9173 H   0  0  0  0  0  0
  -27.2631  -33.3597   26.2060 H   0  0  0  0  0  0
  -28.3828  -32.6889   25.0293 H   0  0  0  0  0  0
  -28.0685  -31.8422   26.5377 H   0  0  0  0  0  0
  -28.2605  -38.0103   24.7518 H   0  0  0  0  0  0
  -28.1071  -36.2640   24.6284 H   0  0  0  0  0  0
  -27.2304  -37.1445   25.8871 H   0  0  0  0  0  0
  -20.9294  -29.8795   21.6993 H   0  0  0  0  0  0
  -26.0186  -38.2883   24.1411 H   0  0  0  0  0  0
  -26.5550  -22.0925   19.5868 H   0  0  0  0  0  0
  -29.8040  -20.5948   22.0238 H   0  0  0  0  0  0
  -24.8281  -19.2486   19.4599 H   0  0  0  0  0  0
  -25.8833  -18.8476   18.0985 H   0  0  0  0  0  0
  -25.2694  -20.4887   18.2883 H   0  0  0  0  0  0
  -29.6657  -23.0482   21.4991 H   0  0  0  0  0  0
  -28.0906  -23.1590   22.2344 H   0  0  0  0  0  0
  -28.3640  -17.3391   22.1134 H   0  0  0  0  0  0
  -29.8761  -18.1396   22.4128 H   0  0  0  0  0  0
  -27.1876  -24.1198   20.0314 H   0  0  0  0  0  0
  -28.8226  -24.0888   19.4137 H   0  0  0  0  0  0
  -30.9059  -17.2406   20.4196 H   0  0  0  0  0  0
  -29.3636  -16.9165   19.6729 H   0  0  0  0  0  0
  -29.4739  -25.5923   21.3944 H   0  0  0  0  0  0
  -27.7874  -25.7122   21.8104 H   0  0  0  0  0  0
  -29.0151  -15.1569   21.4789 H   0  0  0  0  0  0
  1 25  1  0  0  0
  1 30  2  0  0  0
  1 83  1  0  0  0
  2  3  1  0  0  0
  2 25  1  0  0  0
  2 84  1  0  0  0
  2 85  1  0  0  0
  3  4  1  0  0  0
  3 86  1  0  0  0
  3 87  1  0  0  0
  4  5  1  0  0  0
  4 88  1  0  0  0
  4 89  1  0  0  0
  5  6  1  0  0  0
  5 26  1  0  0  0
  5 90  1  0  0  0
  6 25  1  0  0  0
  6 91  1  0  0  0
  6 92  1  0  0  0
  7  8  2  0  0  0
  7 26  1  0  0  0
  7 29  1  0  0  0
  8  9  1  0  0  0
  8 22  1  0  0  0
  9 10  1  0  0  0
  9 27  2  0  0  0
 10 11  2  0  0  0
 10 15  1  0  0  0
 11 12  1  0  0  0
 11 93  1  0  0  0
 12 13  2  0  0  0
 12 94  1  0  0  0
 13 14  1  0  0  0
 13 31  1  0  0  0
 14 15  2  0  0  0
 14 95  1  0  0  0
 15 96  1  0  0  0
 16 17  2  0  0  0
 16 21  1  0  0  0
 16 31  1  0  0  0
 17 18  1  0  0  0
 17 97  1  0  0  0
 18 19  2  0  0  0
 18 98  1  0  0  0
 19 20  1  0  0  0
 19 24  1  0  0  0
 20 21  2  0  0  0
 20 99  1  0  0  0
 21 23  1  0  0  0
 22 28  1  0  0  0
 22 32  2  0  0  0
 26 27  1  0  0  0
 28100  1  0  0  0
 28101  1  0  0  0
 29102  1  0  0  0
 29103  1  0  0  0
 33 34  1  0  0  0
 33 66  1  0  0  0
 33 70  2  0  0  0
 34 36  1  0  0  0
 34 59  1  0  0  0
 34104  1  0  0  0
 35 44  2  0  0  0
 35 45  1  0  0  0
 35 68  1  0  0  0
 36 56  1  0  0  0
 36105  1  0  0  0
 37 39  1  0  0  0
 37 47  1  0  0  0
 37 66  1  0  0  0
 37106  1  0  0  0
 38 43  2  0  0  0
 38 46  1  0  0  0
 38 47  1  0  0  0
 39 64  1  0  0  0
 39 67  2  0  0  0
 40 52  1  0  0  0
 40 53  2  0  0  0
 40 58  1  0  0  0
 41107  1  0  0  0
 41108  1  0  0  0
 41109  1  0  0  0
 41 48  1  0  0  0
 42 43  1  0  0  0
 42 66  1  0  0  0
 42110  1  0  0  0
 42111  1  0  0  0
 43 44  1  0  0  0
 44112  1  0  0  0
 45 46  2  0  0  0
 45113  1  0  0  0
 46114  1  0  0  0
 47115  1  0  0  0
 47116  1  0  0  0
 48 56  1  0  0  0
 48 65  1  0  0  0
 48117  1  0  0  0
 49 50  1  0  0  0
 49 53  1  0  0  0
 49 64  1  0  0  0
 49118  1  0  0  0
 50 51  1  0  0  0
 50119  1  0  0  0
 50120  1  0  0  0
 51 52  1  0  0  0
 51121  1  0  0  0
 51122  1  0  0  0
 52123  1  0  0  0
 52124  1  0  0  0
 53 54  1  0  0  0
 54 55  2  0  0  0
 54125  1  0  0  0
 55 57  1  0  0  0
 55126  1  0  0  0
 56 69  2  0  0  0
 57 58  2  0  0  0
 57127  1  0  0  0
 58128  1  0  0  0
 59 60  1  0  0  0
 59 61  1  0  0  0
 59 62  1  0  0  0
 60129  1  0  0  0
 60130  1  0  0  0
 60131  1  0  0  0
 61132  1  0  0  0
 61133  1  0  0  0
 61134  1  0  0  0
 62135  1  0  0  0
 62136  1  0  0  0
 62137  1  0  0  0
 63 65  1  0  0  0
 63138  1  0  0  0
 63139  1  0  0  0
 63140  1  0  0  0
 64141  1  0  0  0
 65142  1  0  0  0
 68 81  1  0  0  0
 71 73  2  0  0  0
 71 74  1  0  0  0
 71143  1  0  0  0
 72 73  1  0  0  0
 72 75  2  0  0  0
 72144  1  0  0  0
 73 77  1  0  0  0
 74 76  1  0  0  0
 74 82  2  0  0  0
 75 78  1  0  0  0
 75 82  1  0  0  0
 76145  1  0  0  0
 76146  1  0  0  0
 76147  1  0  0  0
 77 79  1  0  0  0
 77148  1  0  0  0
 77149  1  0  0  0
 78 80  1  0  0  0
 78150  1  0  0  0
 78151  1  0  0  0
 79 81  1  0  0  0
 79152  1  0  0  0
 79153  1  0  0  0
 80 83  1  0  0  0
 80154  1  0  0  0
 80155  1  0  0  0
 81156  1  0  0  0
 81157  1  0  0  0
 83158  1  0  0  0
M  ISO  4   1 100  68 101  81 101  83 100
M  END
> <chiral flag>
0

> <version>
0

> <s_m_source_file>
/data/baiqing/PycharmProjects/Reinvent-master-3.2/result/LINK_invent/BTK/process_docking_weight1_custom_sum_contain_oxygen_bond_distance_aromatic_linkinvent_7_9_3/rearranged_h_0049.sdf

> <i_m_source_file_index>
89

> <r_mmod_Potential_Energy-OPLS-2005>
-213.894561767578

> <r_mmod_Stretch_Energy-OPLS-2005>
40.2998580932617

> <r_mmod_Bend_Energy-OPLS-2005>
96.3262329101562

> <r_mmod_Torsional_Energy-OPLS-2005>
229.547088623047

> <r_mmod_Improper_Torsional_Energy-OPLS-2005>
6.94480133056641

> <r_mmod_Van_der_Waal_Energy-OPLS-2005>
144.518707275391

> <r_mmod_Electrostatic_Energy-OPLS-2005>
-531.025939941406

> <r_mmod_Solvation_Energy-OPLS-2005>
-213.769577026367

> <b_mmod_Minimization_Converged-OPLS-2005>
0

> <r_mmod_RMS_Derivative-OPLS-2005>
2.26309466362

$$$$
91
                    3D
 Structure written by MMmdl.
160168  0  0  1  0            999 V2000
  -30.7209  -14.4177   20.5299 C   0  0  0  0  0  0
  -30.4112  -12.2736   19.3877 C   0  0  0  0  0  0
  -29.4769  -12.5081   18.1855 C   0  0  0  0  0  0
  -28.0027  -12.3721   18.6044 C   0  0  0  0  0  0
  -27.6621  -13.2081   19.8656 C   0  0  2  0  0  0
  -28.7067  -12.9743   20.9792 C   0  0  0  0  0  0
  -25.2611  -13.8174   20.5639 C   0  0  0  0  0  0
  -24.1886  -13.0454   20.9139 C   0  0  0  0  0  0
  -24.6449  -11.6919   20.8742 C   0  0  0  0  0  0
  -23.9134  -10.4313   21.0433 C   0  0  0  0  0  0
  -24.3667   -9.4205   21.9207 C   0  0  0  0  0  0
  -23.6319   -8.2258   22.0781 C   0  0  0  0  0  0
  -22.4300   -8.0314   21.3562 C   0  0  0  0  0  0
  -21.9966   -9.0302   20.4657 C   0  0  0  0  0  0
  -22.7330  -10.2159   20.3057 C   0  0  0  0  0  0
  -21.6863   -6.0782   22.5312 C   0  0  0  0  0  0
  -21.4026   -6.5669   23.8247 C   0  0  0  0  0  0
  -21.3636   -5.6793   24.9190 C   0  0  0  0  0  0
  -21.6022   -4.3065   24.7224 C   0  0  0  0  0  0
  -21.8816   -3.8182   23.4346 C   0  0  0  0  0  0
  -21.9205   -4.7014   22.3416 C   0  0  0  0  0  0
  -22.7895  -13.5254   21.1774 C   0  0  0  0  0  0
  -22.1673   -4.2224   21.0990 F   0  0  0  0  0  0
  -21.5598   -3.4527   25.7715 F   0  0  0  0  0  0
  -30.0376  -13.2513   20.4172 N   0  0  0  0  0  0
  -26.3061  -12.9371   20.3342 N   0  0  0  0  0  0
  -25.9367  -11.6525   20.5755 N   0  0  0  0  0  0
  -22.0520  -12.8257   22.0301 N   0  0  0  0  0  0
  -25.4302  -15.1898   20.4021 N   0  0  0  0  0  0
  -31.8748  -14.5703   20.1218 O   0  0  0  0  0  0
  -21.6627   -6.8941   21.4276 O   0  0  0  0  0  0
  -22.3606  -14.5568   20.6621 O   0  0  0  0  0  0
  -24.6131  -31.8697   23.2106 C   0  0  0  0  0  0
  -25.9030  -32.4815   23.8413 C   0  0  1  0  0  0
  -27.2398  -27.4573   20.0855 C   0  0  0  0  0  0
  -25.5923  -33.8615   24.2345 N   0  0  0  0  0  0
  -23.3998  -30.4924   21.5491 C   0  0  2  0  0  0
  -24.8466  -28.9599   20.1177 C   0  0  0  0  0  0
  -22.7350  -29.4684   22.4953 C   0  0  0  0  0  0
  -18.0216  -28.1369   22.8493 C   0  0  0  0  0  0
  -24.1491  -36.7309   23.2646 C   0  0  0  0  0  0
  -25.9292  -30.8381   21.3658 C   0  0  0  0  0  0
  -26.0044  -29.4733   20.7142 C   0  0  0  0  0  0
  -27.2049  -28.7319   20.6892 C   0  0  0  0  0  0
  -26.0624  -26.9538   19.4845 C   0  0  0  0  0  0
  -24.8694  -27.6985   19.5017 C   0  0  0  0  0  0
  -23.6101  -29.8235   20.1653 C   0  0  0  0  0  0
  -25.4107  -36.3096   24.0337 C   0  0  1  0  0  0
  -20.5800  -28.3684   23.1288 C   0  0  2  0  0  0
  -20.6686  -26.9360   22.5554 C   0  0  0  0  0  0
  -19.5735  -26.6349   21.5246 C   0  0  0  0  0  0
  -18.1869  -26.7958   22.1549 C   0  0  0  0  0  0
  -19.1455  -28.8844   23.2887 C   0  0  0  0  0  0
  -18.9385  -30.1440   23.8924 C   0  0  0  0  0  0
  -17.6373  -30.6590   24.0544 C   0  0  0  0  0  0
  -25.9034  -34.9464   23.5135 C   0  0  0  0  0  0
  -16.5285  -29.9078   23.6324 C   0  0  0  0  0  0
  -16.7215  -28.6477   23.0368 C   0  0  0  0  0  0
  -26.4474  -31.6565   25.0719 C   0  0  0  0  0  0
  -25.3737  -31.3662   26.1461 C   0  0  0  0  0  0
  -27.0305  -30.3011   24.6062 C   0  0  0  0  0  0
  -27.6041  -32.4293   25.7517 C   0  0  0  0  0  0
  -27.5571  -37.1821   24.8473 C   0  0  0  0  0  0
  -21.4087  -29.2992   22.3617 N   0  0  0  0  0  0
  -26.4286  -37.3778   23.9408 N   0  0  0  0  0  0
  -24.6654  -31.0800   22.1022 N   0  0  0  0  0  0
  -23.4093  -28.8248   23.3049 O   0  0  0  0  0  0
  -28.4356  -26.7777   20.0563 O   0  0  0  0  0  0
  -26.5575  -34.8935   22.4680 O   0  0  0  0  0  0
  -23.5341  -32.1439   23.7525 O   0  0  0  0  0  0
  -29.5315  -19.0228   21.6473 C   0  0  0  0  0  0
  -29.4329  -17.8729   20.8587 C   0  0  0  0  0  0
  -28.5177  -19.9770   21.5113 C   0  0  0  0  0  0
  -27.4866  -18.6578   19.9471 C   0  0  0  0  0  0
  -26.3266  -18.4688   18.9915 C   0  0  0  0  0  0
  -30.5239  -16.8262   20.8788 C   0  0  0  0  0  0
  -28.5207  -21.2608   22.3183 C   0  0  0  0  0  0
  -29.1464  -24.9666   21.4788 C   0  0  0  0  0  0
  -28.6066  -23.7094   22.1971 C   0  0  0  0  0  0
  -28.4100  -25.3562   20.1880 C   0  0  0  0  0  0
  -28.3910  -17.6805   20.0236 N   0  0  0  0  0  0
  -27.5119  -19.7995   20.6331 N   0  0  0  0  0  0
  -30.0038  -15.4688   20.9291 N   0  0  0  0  0  0
  -28.7662  -22.4317   21.4603 N   0  3  0  0  0  0
  -31.4519  -12.3705   19.0709 H   0  0  0  0  0  0
  -30.3081  -11.2568   19.7724 H   0  0  0  0  0  0
  -29.7035  -11.8070   17.3825 H   0  0  0  0  0  0
  -29.6501  -13.5064   17.7764 H   0  0  0  0  0  0
  -27.8032  -11.3185   18.7985 H   0  0  0  0  0  0
  -27.3539  -12.6561   17.7755 H   0  0  0  0  0  0
  -27.7088  -14.2583   19.5724 H   0  0  0  0  0  0
  -28.6634  -11.9387   21.3231 H   0  0  0  0  0  0
  -28.4952  -13.5883   21.8562 H   0  0  0  0  0  0
  -25.2823   -9.5667   22.4779 H   0  0  0  0  0  0
  -24.0025   -7.4653   22.7513 H   0  0  0  0  0  0
  -21.0892   -8.8861   19.8942 H   0  0  0  0  0  0
  -22.3856  -10.9705   19.6150 H   0  0  0  0  0  0
  -21.2021   -7.6176   23.9793 H   0  0  0  0  0  0
  -21.1438   -6.0505   25.9103 H   0  0  0  0  0  0
  -22.0610   -2.7658   23.2818 H   0  0  0  0  0  0
  -22.4100  -11.9881   22.4672 H   0  0  0  0  0  0
  -21.1150  -13.1334   22.2477 H   0  0  0  0  0  0
  -24.6621  -15.8403   20.5181 H   0  0  0  0  0  0
  -26.2874  -15.6343   20.0959 H   0  0  0  0  0  0
  -26.7089  -32.5540   23.1186 H   0  0  0  0  0  0
  -25.0110  -33.9777   25.0518 H   0  0  0  0  0  0
  -22.6918  -31.3109   21.4066 H   0  0  0  0  0  0
  -23.3739  -35.9657   23.3307 H   0  0  0  0  0  0
  -24.3604  -36.8906   22.2069 H   0  0  0  0  0  0
  -23.7283  -37.6538   23.6643 H   0  0  0  0  0  0
  -26.0437  -31.5985   20.5916 H   0  0  0  0  0  0
  -26.8207  -30.8919   21.9789 H   0  0  0  0  0  0
  -28.1053  -29.1316   21.1360 H   0  0  0  0  0  0
  -26.0528  -26.0010   18.9741 H   0  0  0  0  0  0
  -23.9824  -27.3026   19.0262 H   0  0  0  0  0  0
  -23.7185  -30.5965   19.4057 H   0  0  0  0  0  0
  -22.7372  -29.2379   19.8709 H   0  0  0  0  0  0
  -25.1289  -36.1951   25.0825 H   0  0  0  0  0  0
  -20.9891  -28.3363   24.1415 H   0  0  0  0  0  0
  -20.5414  -26.2352   23.3801 H   0  0  0  0  0  0
  -21.6579  -26.7266   22.1477 H   0  0  0  0  0  0
  -19.6892  -25.6222   21.1325 H   0  0  0  0  0  0
  -19.6750  -27.3199   20.6821 H   0  0  0  0  0  0
  -17.4229  -26.6777   21.3845 H   0  0  0  0  0  0
  -18.0069  -26.0104   22.8902 H   0  0  0  0  0  0
  -19.7862  -30.7221   24.2365 H   0  0  0  0  0  0
  -17.4896  -31.6291   24.5100 H   0  0  0  0  0  0
  -15.5268  -30.2968   23.7568 H   0  0  0  0  0  0
  -15.8603  -28.0779   22.7162 H   0  0  0  0  0  0
  -24.5898  -30.7031   25.7780 H   0  0  0  0  0  0
  -24.8933  -32.2813   26.4941 H   0  0  0  0  0  0
  -25.8080  -30.8799   27.0198 H   0  0  0  0  0  0
  -26.2829  -29.6812   24.1083 H   0  0  0  0  0  0
  -27.4069  -29.7223   25.4512 H   0  0  0  0  0  0
  -27.8683  -30.4368   23.9211 H   0  0  0  0  0  0
  -27.2628  -33.3570   26.2133 H   0  0  0  0  0  0
  -28.3849  -32.6879   25.0349 H   0  0  0  0  0  0
  -28.0702  -31.8381   26.5412 H   0  0  0  0  0  0
  -28.2590  -38.0110   24.7487 H   0  0  0  0  0  0
  -28.1059  -36.2647   24.6315 H   0  0  0  0  0  0
  -27.2296  -37.1495   25.8877 H   0  0  0  0  0  0
  -20.9243  -29.8598   21.6733 H   0  0  0  0  0  0
  -26.0162  -38.2853   24.1371 H   0  0  0  0  0  0
  -30.3607  -19.1700   22.3313 H   0  0  0  0  0  0
  -26.0832  -19.4103   18.4964 H   0  0  0  0  0  0
  -25.4364  -18.1257   19.5205 H   0  0  0  0  0  0
  -26.5593  -17.7378   18.2163 H   0  0  0  0  0  0
  -31.1996  -16.9874   21.7222 H   0  0  0  0  0  0
  -31.1072  -16.9709   19.9689 H   0  0  0  0  0  0
  -29.2777  -21.2019   23.1022 H   0  0  0  0  0  0
  -27.5554  -21.3670   22.8116 H   0  0  0  0  0  0
  -30.2169  -24.8852   21.2982 H   0  0  0  0  0  0
  -29.0399  -25.7947   22.1830 H   0  0  0  0  0  0
  -27.5553  -23.8479   22.4470 H   0  0  0  0  0  0
  -29.1359  -23.6304   23.1489 H   0  0  0  0  0  0
  -27.4073  -24.9320   20.2217 H   0  0  0  0  0  0
  -28.9105  -24.9147   19.3243 H   0  0  0  0  0  0
  -29.0216  -15.3671   21.1267 H   0  0  0  0  0  0
  -29.6872  -22.3354   21.0701 H   0  0  0  0  0  0
  -28.0988  -22.3488   20.7086 H   0  0  0  0  0  0
  1 25  1  0  0  0
  1 30  2  0  0  0
  1 83  1  0  0  0
  2  3  1  0  0  0
  2 25  1  0  0  0
  2 85  1  0  0  0
  2 86  1  0  0  0
  3  4  1  0  0  0
  3 87  1  0  0  0
  3 88  1  0  0  0
  4  5  1  0  0  0
  4 89  1  0  0  0
  4 90  1  0  0  0
  5  6  1  0  0  0
  5 26  1  0  0  0
  5 91  1  0  0  0
  6 25  1  0  0  0
  6 92  1  0  0  0
  6 93  1  0  0  0
  7  8  2  0  0  0
  7 26  1  0  0  0
  7 29  1  0  0  0
  8  9  1  0  0  0
  8 22  1  0  0  0
  9 10  1  0  0  0
  9 27  2  0  0  0
 10 11  2  0  0  0
 10 15  1  0  0  0
 11 12  1  0  0  0
 11 94  1  0  0  0
 12 13  2  0  0  0
 12 95  1  0  0  0
 13 14  1  0  0  0
 13 31  1  0  0  0
 14 15  2  0  0  0
 14 96  1  0  0  0
 15 97  1  0  0  0
 16 17  2  0  0  0
 16 21  1  0  0  0
 16 31  1  0  0  0
 17 18  1  0  0  0
 17 98  1  0  0  0
 18 19  2  0  0  0
 18 99  1  0  0  0
 19 20  1  0  0  0
 19 24  1  0  0  0
 20 21  2  0  0  0
 20100  1  0  0  0
 21 23  1  0  0  0
 22 28  1  0  0  0
 22 32  2  0  0  0
 26 27  1  0  0  0
 28101  1  0  0  0
 28102  1  0  0  0
 29103  1  0  0  0
 29104  1  0  0  0
 33 34  1  0  0  0
 33 66  1  0  0  0
 33 70  2  0  0  0
 34 36  1  0  0  0
 34 59  1  0  0  0
 34105  1  0  0  0
 35 44  2  0  0  0
 35 45  1  0  0  0
 35 68  1  0  0  0
 36 56  1  0  0  0
 36106  1  0  0  0
 37 39  1  0  0  0
 37 47  1  0  0  0
 37 66  1  0  0  0
 37107  1  0  0  0
 38 43  2  0  0  0
 38 46  1  0  0  0
 38 47  1  0  0  0
 39 64  1  0  0  0
 39 67  2  0  0  0
 40 52  1  0  0  0
 40 53  2  0  0  0
 40 58  1  0  0  0
 41108  1  0  0  0
 41109  1  0  0  0
 41110  1  0  0  0
 41 48  1  0  0  0
 42 43  1  0  0  0
 42 66  1  0  0  0
 42111  1  0  0  0
 42112  1  0  0  0
 43 44  1  0  0  0
 44113  1  0  0  0
 45 46  2  0  0  0
 45114  1  0  0  0
 46115  1  0  0  0
 47116  1  0  0  0
 47117  1  0  0  0
 48 56  1  0  0  0
 48 65  1  0  0  0
 48118  1  0  0  0
 49 50  1  0  0  0
 49 53  1  0  0  0
 49 64  1  0  0  0
 49119  1  0  0  0
 50 51  1  0  0  0
 50120  1  0  0  0
 50121  1  0  0  0
 51 52  1  0  0  0
 51122  1  0  0  0
 51123  1  0  0  0
 52124  1  0  0  0
 52125  1  0  0  0
 53 54  1  0  0  0
 54 55  2  0  0  0
 54126  1  0  0  0
 55 57  1  0  0  0
 55127  1  0  0  0
 56 69  2  0  0  0
 57 58  2  0  0  0
 57128  1  0  0  0
 58129  1  0  0  0
 59 60  1  0  0  0
 59 61  1  0  0  0
 59 62  1  0  0  0
 60130  1  0  0  0
 60131  1  0  0  0
 60132  1  0  0  0
 61133  1  0  0  0
 61134  1  0  0  0
 61135  1  0  0  0
 62136  1  0  0  0
 62137  1  0  0  0
 62138  1  0  0  0
 63 65  1  0  0  0
 63139  1  0  0  0
 63140  1  0  0  0
 63141  1  0  0  0
 64142  1  0  0  0
 65143  1  0  0  0
 68 80  1  0  0  0
 71 72  2  0  0  0
 71 73  1  0  0  0
 71144  1  0  0  0
 72 76  1  0  0  0
 72 81  1  0  0  0
 73 77  1  0  0  0
 73 82  2  0  0  0
 74 75  1  0  0  0
 74 81  2  0  0  0
 74 82  1  0  0  0
 75145  1  0  0  0
 75146  1  0  0  0
 75147  1  0  0  0
 76 83  1  0  0  0
 76148  1  0  0  0
 76149  1  0  0  0
 77 84  1  0  0  0
 77150  1  0  0  0
 77151  1  0  0  0
 78 79  1  0  0  0
 78 80  1  0  0  0
 78152  1  0  0  0
 78153  1  0  0  0
 79 84  1  0  0  0
 79154  1  0  0  0
 79155  1  0  0  0
 80156  1  0  0  0
 80157  1  0  0  0
 83158  1  0  0  0
 84159  1  0  0  0
 84160  1  0  0  0
M  CHG  1  84   1
M  ISO  4   1 100  68 101  80 101  83 100
M  END
> <chiral flag>
0

> <version>
0

> <s_m_source_file>
/data/baiqing/PycharmProjects/Reinvent-master-3.2/result/LINK_invent/BTK/process_docking_weight1_custom_sum_contain_oxygen_bond_distance_aromatic_linkinvent_7_9_3/rearranged_h_0049.sdf

> <i_m_source_file_index>
90

> <r_mmod_Potential_Energy-OPLS-2005>
-972.123352050781

> <r_mmod_Stretch_Energy-OPLS-2005>
30.1215324401855

> <r_mmod_Bend_Energy-OPLS-2005>
96.6263427734375

> <r_mmod_Torsional_Energy-OPLS-2005>
216.219360351562

> <r_mmod_Improper_Torsional_Energy-OPLS-2005>
4.80845737457275

> <r_mmod_Van_der_Waal_Energy-OPLS-2005>
163.497329711914

> <r_mmod_Electrostatic_Energy-OPLS-2005>
-1007.63128662109

> <r_mmod_Solvation_Energy-OPLS-2005>
-487.770172119141

> <b_mmod_Minimization_Converged-OPLS-2005>
0

> <r_mmod_RMS_Derivative-OPLS-2005>
5.41747236251831

$$$$
92
                    3D
 Structure written by MMmdl.
165173  0  0  1  0            999 V2000
  -30.7081  -14.4299   20.5969 C   0  0  0  0  0  0
  -30.4220  -12.2899   19.4055 C   0  0  0  0  0  0
  -29.4894  -12.5150   18.1976 C   0  0  0  0  0  0
  -28.0103  -12.3756   18.6116 C   0  0  0  0  0  0
  -27.6650  -13.2000   19.8799 C   0  0  2  0  0  0
  -28.7076  -12.9487   20.9929 C   0  0  0  0  0  0
  -25.2598  -13.8147   20.5674 C   0  0  0  0  0  0
  -24.1842  -13.0434   20.9180 C   0  0  0  0  0  0
  -24.6385  -11.6896   20.8737 C   0  0  0  0  0  0
  -23.9041  -10.4286   21.0402 C   0  0  0  0  0  0
  -24.3587   -9.4202   21.9186 C   0  0  0  0  0  0
  -23.6278   -8.2227   22.0749 C   0  0  0  0  0  0
  -22.4267   -8.0266   21.3536 C   0  0  0  0  0  0
  -21.9897   -9.0237   20.4641 C   0  0  0  0  0  0
  -22.7211  -10.2126   20.3054 C   0  0  0  0  0  0
  -21.6845   -6.0733   22.5280 C   0  0  0  0  0  0
  -21.4007   -6.5634   23.8216 C   0  0  0  0  0  0
  -21.3670   -5.6786   24.9177 C   0  0  0  0  0  0
  -21.6048   -4.3049   24.7231 C   0  0  0  0  0  0
  -21.8815   -3.8145   23.4349 C   0  0  0  0  0  0
  -21.9183   -4.6962   22.3406 C   0  0  0  0  0  0
  -22.7866  -13.5237   21.1855 C   0  0  0  0  0  0
  -22.1649   -4.2149   21.0986 F   0  0  0  0  0  0
  -21.5643   -3.4531   25.7744 F   0  0  0  0  0  0
  -30.0411  -13.2555   20.4450 N   0  0  0  0  0  0
  -26.3038  -12.9302   20.3386 N   0  0  0  0  0  0
  -25.9313  -11.6471   20.5775 N   0  0  0  0  0  0
  -22.0502  -12.8232   22.0409 N   0  0  0  0  0  0
  -25.4314  -15.1860   20.4057 N   0  0  0  0  0  0
  -31.8201  -14.6497   20.1110 O   0  0  0  0  0  0
  -21.6632   -6.8870   21.4241 O   0  0  0  0  0  0
  -22.3561  -14.5558   20.6728 O   0  0  0  0  0  0
  -24.6122  -31.8696   23.2118 C   0  0  0  0  0  0
  -25.9027  -32.4832   23.8411 C   0  0  1  0  0  0
  -27.2415  -27.4643   20.0879 C   0  0  0  0  0  0
  -25.5897  -33.8629   24.2342 N   0  0  0  0  0  0
  -23.4000  -30.4916   21.5519 C   0  0  2  0  0  0
  -24.8494  -28.9560   20.1198 C   0  0  0  0  0  0
  -22.7397  -29.4665   22.5012 C   0  0  0  0  0  0
  -18.0266  -28.1382   22.8495 C   0  0  0  0  0  0
  -24.1487  -36.7320   23.2638 C   0  0  0  0  0  0
  -25.9252  -30.8409   21.3618 C   0  0  0  0  0  0
  -26.0061  -29.4739   20.7173 C   0  0  0  0  0  0
  -27.2077  -28.7324   20.7057 C   0  0  0  0  0  0
  -26.0743  -26.9515   19.4894 C   0  0  0  0  0  0
  -24.8754  -27.6906   19.5060 C   0  0  0  0  0  0
  -23.6085  -29.8190   20.1679 C   0  0  0  0  0  0
  -25.4105  -36.3118   24.0344 C   0  0  1  0  0  0
  -20.5853  -28.3663   23.1330 C   0  0  2  0  0  0
  -20.6757  -26.9403   22.5421 C   0  0  0  0  0  0
  -19.5740  -26.6386   21.5218 C   0  0  0  0  0  0
  -18.1916  -26.7930   22.1622 C   0  0  0  0  0  0
  -19.1516  -28.8839   23.2912 C   0  0  0  0  0  0
  -18.9446  -30.1442   23.8927 C   0  0  0  0  0  0
  -17.6450  -30.6590   24.0569 C   0  0  0  0  0  0
  -25.9033  -34.9480   23.5136 C   0  0  0  0  0  0
  -16.5342  -29.9097   23.6326 C   0  0  0  0  0  0
  -16.7259  -28.6509   23.0351 C   0  0  0  0  0  0
  -26.4468  -31.6603   25.0725 C   0  0  0  0  0  0
  -25.3744  -31.3684   26.1478 C   0  0  0  0  0  0
  -27.0291  -30.3058   24.6062 C   0  0  0  0  0  0
  -27.6052  -32.4315   25.7477 C   0  0  0  0  0  0
  -27.5583  -37.1808   24.8466 C   0  0  0  0  0  0
  -21.4130  -29.3036   22.3746 N   0  0  0  0  0  0
  -26.4296  -37.3796   23.9412 N   0  0  0  0  0  0
  -24.6639  -31.0811   22.1007 N   0  0  0  0  0  0
  -23.4173  -28.8210   23.3051 O   0  0  0  0  0  0
  -28.3968  -26.7297   20.0202 O   0  0  0  0  0  0
  -26.5585  -34.8924   22.4692 O   0  0  0  0  0  0
  -23.5318  -32.1434   23.7528 O   0  0  0  0  0  0
  -30.4745  -22.2541   20.1397 C   0  0  0  0  0  0
  -31.2038  -23.4487   20.2003 C   0  0  0  0  0  0
  -29.1022  -22.3281   20.4270 C   0  0  0  0  0  0
  -29.3119  -24.5906   20.8035 C   0  0  0  0  0  0
  -32.6856  -23.4918   19.8955 C   0  0  0  0  0  0
  -31.2603  -18.2295   19.4414 C   0  0  0  0  0  0
  -29.1284  -16.9844   19.0447 C   0  0  0  0  0  0
  -28.1494  -21.1348   20.3634 C   0  0  0  0  0  0
  -28.6439  -25.9157   21.1682 C   0  0  0  0  0  0
  -30.3513  -16.8160   21.3245 C   0  0  0  0  0  0
  -29.1947  -18.9833   20.6853 C   0  0  0  0  0  0
  -29.9607  -17.7411   20.1125 C   0  0  0  0  0  0
  -30.6159  -24.6122   20.5329 N   0  0  0  0  0  0
  -28.5378  -23.5072   20.7601 N   0  0  0  0  0  0
  -29.9976  -15.3970   21.1951 N   0  0  0  0  0  0
  -28.6270  -19.9179   19.7046 N   0  0  0  0  0  0
  -27.5579  -19.3341   18.9104 F   0  0  0  0  0  0
  -31.4667  -12.3915   19.1059 H   0  0  0  0  0  0
  -30.3181  -11.2718   19.7840 H   0  0  0  0  0  0
  -29.7224  -11.8055   17.4025 H   0  0  0  0  0  0
  -29.6601  -13.5086   17.7794 H   0  0  0  0  0  0
  -27.8153  -11.3182   18.7936 H   0  0  0  0  0  0
  -27.3594  -12.6671   17.7861 H   0  0  0  0  0  0
  -27.7180  -14.2519   19.5995 H   0  0  0  0  0  0
  -28.6796  -11.9044   21.3060 H   0  0  0  0  0  0
  -28.4716  -13.5216   21.8907 H   0  0  0  0  0  0
  -25.2721   -9.5690   22.4777 H   0  0  0  0  0  0
  -23.9995   -7.4613   22.7459 H   0  0  0  0  0  0
  -21.0830   -8.8739   19.8946 H   0  0  0  0  0  0
  -22.3647  -10.9663   19.6171 H   0  0  0  0  0  0
  -21.1988   -7.6142   23.9727 H   0  0  0  0  0  0
  -21.1508   -6.0516   25.9086 H   0  0  0  0  0  0
  -22.0588   -2.7610   23.2848 H   0  0  0  0  0  0
  -22.4086  -11.9860   22.4766 H   0  0  0  0  0  0
  -21.1134  -13.1287   22.2642 H   0  0  0  0  0  0
  -24.6619  -15.8397   20.5025 H   0  0  0  0  0  0
  -26.2791  -15.6219   20.0659 H   0  0  0  0  0  0
  -26.7102  -32.5562   23.1185 H   0  0  0  0  0  0
  -25.0067  -33.9801   25.0500 H   0  0  0  0  0  0
  -22.6886  -31.3076   21.4104 H   0  0  0  0  0  0
  -23.3746  -35.9658   23.3310 H   0  0  0  0  0  0
  -24.3581  -36.8925   22.2052 H   0  0  0  0  0  0
  -23.7247  -37.6531   23.6644 H   0  0  0  0  0  0
  -26.0289  -31.6028   20.5878 H   0  0  0  0  0  0
  -26.8162  -30.9017   21.9743 H   0  0  0  0  0  0
  -28.1043  -29.1333   21.1564 H   0  0  0  0  0  0
  -26.0969  -25.9842   19.0071 H   0  0  0  0  0  0
  -23.9874  -27.2875   19.0383 H   0  0  0  0  0  0
  -23.7114  -30.5910   19.4043 H   0  0  0  0  0  0
  -22.7345  -29.2339   19.8759 H   0  0  0  0  0  0
  -25.1281  -36.1982   25.0837 H   0  0  0  0  0  0
  -20.9942  -28.3220   24.1452 H   0  0  0  0  0  0
  -20.5670  -26.2271   23.3603 H   0  0  0  0  0  0
  -21.6628  -26.7458   22.1207 H   0  0  0  0  0  0
  -19.6906  -25.6300   21.1242 H   0  0  0  0  0  0
  -19.6690  -27.3203   20.6753 H   0  0  0  0  0  0
  -17.4189  -26.6689   21.4019 H   0  0  0  0  0  0
  -18.0317  -26.0068   22.9012 H   0  0  0  0  0  0
  -19.7923  -30.7247   24.2318 H   0  0  0  0  0  0
  -17.5006  -31.6278   24.5156 H   0  0  0  0  0  0
  -15.5343  -30.3008   23.7637 H   0  0  0  0  0  0
  -15.8654  -28.0837   22.7062 H   0  0  0  0  0  0
  -24.5929  -30.7020   25.7810 H   0  0  0  0  0  0
  -24.8919  -32.2826   26.4944 H   0  0  0  0  0  0
  -25.8110  -30.8841   27.0223 H   0  0  0  0  0  0
  -26.2813  -29.6820   24.1148 H   0  0  0  0  0  0
  -27.4120  -29.7287   25.4491 H   0  0  0  0  0  0
  -27.8625  -30.4400   23.9160 H   0  0  0  0  0  0
  -27.2687  -33.3611   26.2077 H   0  0  0  0  0  0
  -28.3844  -32.6880   25.0289 H   0  0  0  0  0  0
  -28.0737  -31.8423   26.5370 H   0  0  0  0  0  0
  -28.2598  -38.0104   24.7513 H   0  0  0  0  0  0
  -28.1079  -36.2638   24.6289 H   0  0  0  0  0  0
  -27.2300  -37.1454   25.8867 H   0  0  0  0  0  0
  -20.9290  -29.8758   21.6967 H   0  0  0  0  0  0
  -26.0189  -38.2878   24.1404 H   0  0  0  0  0  0
  -30.9509  -21.3218   19.8667 H   0  0  0  0  0  0
  -32.9911  -22.6224   19.3125 H   0  0  0  0  0  0
  -33.2625  -23.5014   20.8205 H   0  0  0  0  0  0
  -32.9401  -24.3841   19.3222 H   0  0  0  0  0  0
  -31.8632  -17.3911   19.0897 H   0  0  0  0  0  0
  -31.8758  -18.8066   20.1320 H   0  0  0  0  0  0
  -31.0556  -18.8673   18.5814 H   0  0  0  0  0  0
  -29.6399  -16.0987   18.6695 H   0  0  0  0  0  0
  -28.9571  -17.5967   18.1597 H   0  0  0  0  0  0
  -28.1558  -16.6798   19.4298 H   0  0  0  0  0  0
  -27.2830  -21.4745   19.7952 H   0  0  0  0  0  0
  -27.7744  -20.9129   21.3632 H   0  0  0  0  0  0
  -29.2908  -26.4671   21.8518 H   0  0  0  0  0  0
  -27.7239  -25.7092   21.7207 H   0  0  0  0  0  0
  -29.8537  -17.1572   22.2338 H   0  0  0  0  0  0
  -31.4151  -16.8963   21.5554 H   0  0  0  0  0  0
  -29.8710  -19.5330   21.3418 H   0  0  0  0  0  0
  -28.3743  -18.6414   21.3171 H   0  0  0  0  0  0
  -29.0911  -15.1242   21.5425 H   0  0  0  0  0  0
  1 25  1  0  0  0
  1 30  2  0  0  0
  1 85  1  0  0  0
  2  3  1  0  0  0
  2 25  1  0  0  0
  2 88  1  0  0  0
  2 89  1  0  0  0
  3  4  1  0  0  0
  3 90  1  0  0  0
  3 91  1  0  0  0
  4  5  1  0  0  0
  4 92  1  0  0  0
  4 93  1  0  0  0
  5  6  1  0  0  0
  5 26  1  0  0  0
  5 94  1  0  0  0
  6 25  1  0  0  0
  6 95  1  0  0  0
  6 96  1  0  0  0
  7  8  2  0  0  0
  7 26  1  0  0  0
  7 29  1  0  0  0
  8  9  1  0  0  0
  8 22  1  0  0  0
  9 10  1  0  0  0
  9 27  2  0  0  0
 10 11  2  0  0  0
 10 15  1  0  0  0
 11 12  1  0  0  0
 11 97  1  0  0  0
 12 13  2  0  0  0
 12 98  1  0  0  0
 13 14  1  0  0  0
 13 31  1  0  0  0
 14 15  2  0  0  0
 14 99  1  0  0  0
 15100  1  0  0  0
 16 17  2  0  0  0
 16 21  1  0  0  0
 16 31  1  0  0  0
 17 18  1  0  0  0
 17101  1  0  0  0
 18 19  2  0  0  0
 18102  1  0  0  0
 19 20  1  0  0  0
 19 24  1  0  0  0
 20 21  2  0  0  0
 20103  1  0  0  0
 21 23  1  0  0  0
 22 28  1  0  0  0
 22 32  2  0  0  0
 26 27  1  0  0  0
 28104  1  0  0  0
 28105  1  0  0  0
 29106  1  0  0  0
 29107  1  0  0  0
 33 34  1  0  0  0
 33 66  1  0  0  0
 33 70  2  0  0  0
 34 36  1  0  0  0
 34 59  1  0  0  0
 34108  1  0  0  0
 35 44  2  0  0  0
 35 45  1  0  0  0
 35 68  1  0  0  0
 36 56  1  0  0  0
 36109  1  0  0  0
 37 39  1  0  0  0
 37 47  1  0  0  0
 37 66  1  0  0  0
 37110  1  0  0  0
 38 43  2  0  0  0
 38 46  1  0  0  0
 38 47  1  0  0  0
 39 64  1  0  0  0
 39 67  2  0  0  0
 40 52  1  0  0  0
 40 53  2  0  0  0
 40 58  1  0  0  0
 41111  1  0  0  0
 41112  1  0  0  0
 41113  1  0  0  0
 41 48  1  0  0  0
 42 43  1  0  0  0
 42 66  1  0  0  0
 42114  1  0  0  0
 42115  1  0  0  0
 43 44  1  0  0  0
 44116  1  0  0  0
 45 46  2  0  0  0
 45117  1  0  0  0
 46118  1  0  0  0
 47119  1  0  0  0
 47120  1  0  0  0
 48 56  1  0  0  0
 48 65  1  0  0  0
 48121  1  0  0  0
 49 50  1  0  0  0
 49 53  1  0  0  0
 49 64  1  0  0  0
 49122  1  0  0  0
 50 51  1  0  0  0
 50123  1  0  0  0
 50124  1  0  0  0
 51 52  1  0  0  0
 51125  1  0  0  0
 51126  1  0  0  0
 52127  1  0  0  0
 52128  1  0  0  0
 53 54  1  0  0  0
 54 55  2  0  0  0
 54129  1  0  0  0
 55 57  1  0  0  0
 55130  1  0  0  0
 56 69  2  0  0  0
 57 58  2  0  0  0
 57131  1  0  0  0
 58132  1  0  0  0
 59 60  1  0  0  0
 59 61  1  0  0  0
 59 62  1  0  0  0
 60133  1  0  0  0
 60134  1  0  0  0
 60135  1  0  0  0
 61136  1  0  0  0
 61137  1  0  0  0
 61138  1  0  0  0
 62139  1  0  0  0
 62140  1  0  0  0
 62141  1  0  0  0
 63 65  1  0  0  0
 63142  1  0  0  0
 63143  1  0  0  0
 63144  1  0  0  0
 64145  1  0  0  0
 65146  1  0  0  0
 68 79  1  0  0  0
 71 72  2  0  0  0
 71 73  1  0  0  0
 71147  1  0  0  0
 72 75  1  0  0  0
 72 83  1  0  0  0
 73 78  1  0  0  0
 73 84  2  0  0  0
 74 79  1  0  0  0
 74 83  2  0  0  0
 74 84  1  0  0  0
 75148  1  0  0  0
 75149  1  0  0  0
 75150  1  0  0  0
 76151  1  0  0  0
 76152  1  0  0  0
 76153  1  0  0  0
 76 82  1  0  0  0
 77 82  1  0  0  0
 77154  1  0  0  0
 77155  1  0  0  0
 77156  1  0  0  0
 78 86  1  0  0  0
 78157  1  0  0  0
 78158  1  0  0  0
 79159  1  0  0  0
 79160  1  0  0  0
 80 82  1  0  0  0
 80 85  1  0  0  0
 80161  1  0  0  0
 80162  1  0  0  0
 81 82  1  0  0  0
 81 86  1  0  0  0
 81163  1  0  0  0
 81164  1  0  0  0
 85165  1  0  0  0
 86 87  1  0  0  0
M  ISO  4   1 100  68 101  79 101  85 100
M  END
> <chiral flag>
0

> <version>
0

> <s_m_source_file>
/data/baiqing/PycharmProjects/Reinvent-master-3.2/result/LINK_invent/BTK/process_docking_weight1_custom_sum_contain_oxygen_bond_distance_aromatic_linkinvent_7_9_3/rearranged_h_0049.sdf

> <i_m_source_file_index>
91

> <r_mmod_Potential_Energy-OPLS-2005>
-358.906311035156

> <r_mmod_Stretch_Energy-OPLS-2005>
36.7216529846191

> <r_mmod_Bend_Energy-OPLS-2005>
107.752487182617

> <r_mmod_Torsional_Energy-OPLS-2005>
283.044891357422

> <r_mmod_Improper_Torsional_Energy-OPLS-2005>
3.4160897731781

> <r_mmod_Van_der_Waal_Energy-OPLS-2005>
163.924011230469

> <r_mmod_Electrostatic_Energy-OPLS-2005>
-731.46875

> <r_mmod_Solvation_Energy-OPLS-2005>
-230.547241210938

> <b_mmod_Minimization_Converged-OPLS-2005>
0

> <r_mmod_RMS_Derivative-OPLS-2005>
1.3436518907547

$$$$
93
                    3D
 Structure written by MMmdl.
157165  0  0  1  0            999 V2000
  -30.7055  -14.5084   20.5738 C   0  0  0  0  0  0
  -30.4209  -12.3277   19.4355 C   0  0  0  0  0  0
  -29.5054  -12.5226   18.2117 C   0  0  0  0  0  0
  -28.0239  -12.3764   18.6155 C   0  0  0  0  0  0
  -27.6608  -13.2156   19.8720 C   0  0  2  0  0  0
  -28.7001  -13.0252   20.9979 C   0  0  0  0  0  0
  -25.2600  -13.8174   20.5669 C   0  0  0  0  0  0
  -24.1850  -13.0438   20.9173 C   0  0  0  0  0  0
  -24.6425  -11.6911   20.8725 C   0  0  0  0  0  0
  -23.9088  -10.4293   21.0399 C   0  0  0  0  0  0
  -24.3631   -9.4212   21.9185 C   0  0  0  0  0  0
  -23.6298   -8.2250   22.0757 C   0  0  0  0  0  0
  -22.4278   -8.0293   21.3553 C   0  0  0  0  0  0
  -21.9920   -9.0266   20.4646 C   0  0  0  0  0  0
  -22.7262  -10.2143   20.3052 C   0  0  0  0  0  0
  -21.6855   -6.0732   22.5278 C   0  0  0  0  0  0
  -21.4011   -6.5635   23.8211 C   0  0  0  0  0  0
  -21.3663   -5.6794   24.9178 C   0  0  0  0  0  0
  -21.6043   -4.3052   24.7229 C   0  0  0  0  0  0
  -21.8816   -3.8144   23.4348 C   0  0  0  0  0  0
  -21.9193   -4.6956   22.3406 C   0  0  0  0  0  0
  -22.7878  -13.5240   21.1831 C   0  0  0  0  0  0
  -22.1666   -4.2143   21.0982 F   0  0  0  0  0  0
  -21.5629   -3.4539   25.7741 F   0  0  0  0  0  0
  -30.0268  -13.3328   20.4417 N   0  0  0  0  0  0
  -26.3033  -12.9358   20.3340 N   0  0  0  0  0  0
  -25.9360  -11.6513   20.5759 N   0  0  0  0  0  0
  -22.0501  -12.8233   22.0384 N   0  0  0  0  0  0
  -25.4294  -15.1880   20.4054 N   0  0  0  0  0  0
  -31.8389  -14.6590   20.1063 O   0  0  0  0  0  0
  -21.6641   -6.8882   21.4249 O   0  0  0  0  0  0
  -22.3570  -14.5557   20.6694 O   0  0  0  0  0  0
  -24.6176  -31.8682   23.2105 C   0  0  0  0  0  0
  -25.9057  -32.4822   23.8409 C   0  0  1  0  0  0
  -27.2109  -27.3908   20.1119 C   0  0  0  0  0  0
  -25.5911  -33.8616   24.2349 N   0  0  0  0  0  0
  -23.4051  -30.4988   21.5484 C   0  0  2  0  0  0
  -24.8495  -28.9687   20.1081 C   0  0  0  0  0  0
  -22.7394  -29.4715   22.4942 C   0  0  0  0  0  0
  -18.0275  -28.1395   22.8567 C   0  0  0  0  0  0
  -24.1483  -36.7318   23.2643 C   0  0  0  0  0  0
  -25.9393  -30.8247   21.3671 C   0  0  0  0  0  0
  -26.0134  -29.4556   20.7163 C   0  0  0  0  0  0
  -27.1987  -28.6749   20.7178 C   0  0  0  0  0  0
  -26.0331  -26.9514   19.4635 C   0  0  0  0  0  0
  -24.8591  -27.7204   19.4693 C   0  0  0  0  0  0
  -23.6147  -29.8412   20.1602 C   0  0  0  0  0  0
  -25.4098  -36.3109   24.0342 C   0  0  1  0  0  0
  -20.5866  -28.3743   23.1358 C   0  0  2  0  0  0
  -20.6736  -26.9440   22.5599 C   0  0  0  0  0  0
  -19.5727  -26.6351   21.5385 C   0  0  0  0  0  0
  -18.1942  -26.7861   22.1861 C   0  0  0  0  0  0
  -19.1513  -28.8904   23.2933 C   0  0  0  0  0  0
  -18.9420  -30.1516   23.8923 C   0  0  0  0  0  0
  -17.6417  -30.6650   24.0521 C   0  0  0  0  0  0
  -25.9028  -34.9479   23.5139 C   0  0  0  0  0  0
  -16.5324  -29.9125   23.6287 C   0  0  0  0  0  0
  -16.7249  -28.6511   23.0380 C   0  0  0  0  0  0
  -26.4476  -31.6567   25.0713 C   0  0  0  0  0  0
  -25.3736  -31.3651   26.1454 C   0  0  0  0  0  0
  -27.0315  -30.3030   24.6043 C   0  0  0  0  0  0
  -27.6068  -32.4271   25.7471 C   0  0  0  0  0  0
  -27.5575  -37.1812   24.8468 C   0  0  0  0  0  0
  -21.4132  -29.3032   22.3647 N   0  0  0  0  0  0
  -26.4289  -37.3792   23.9403 N   0  0  0  0  0  0
  -24.6724  -31.0794   22.0998 N   0  0  0  0  0  0
  -23.4151  -28.8306   23.3044 O   0  0  0  0  0  0
  -28.3370  -26.5812   20.1543 O   0  0  0  0  0  0
  -26.5601  -34.8930   22.4709 O   0  0  0  0  0  0
  -23.5360  -32.1419   23.7499 O   0  0  0  0  0  0
  -30.2194  -19.4870   21.5181 C   0  0  0  0  0  0
  -28.4489  -18.2376   21.0323 C   0  0  0  0  0  0
  -29.7804  -18.1329   21.3276 C   0  0  0  0  0  0
  -29.1742  -20.3660   21.3512 C   0  0  0  0  0  0
  -26.7248  -20.0437   20.7633 C   0  0  0  0  0  0
  -30.6552  -16.8730   21.4359 C   0  0  0  0  0  0
  -29.1121  -21.8868   21.5011 C   0  0  0  0  0  0
  -29.0927  -22.7200   20.1892 C   0  0  0  0  0  0
  -29.3452  -24.2661   20.3123 C   0  0  0  0  0  0
  -28.0921  -25.1739   20.4410 C   0  0  0  0  0  0
  -28.0715  -19.5767   21.0412 N   0  0  0  0  0  0
  -30.0516  -15.5475   21.1457 N   0  0  0  0  0  0
  -31.4681  -12.4105   19.1413 H   0  0  0  0  0  0
  -30.3096  -11.3183   19.8364 H   0  0  0  0  0  0
  -29.7568  -11.8037   17.4300 H   0  0  0  0  0  0
  -29.6792  -13.5127   17.7840 H   0  0  0  0  0  0
  -27.8330  -11.3199   18.8056 H   0  0  0  0  0  0
  -27.3815  -12.6545   17.7786 H   0  0  0  0  0  0
  -27.6973  -14.2618   19.5716 H   0  0  0  0  0  0
  -28.6792  -11.9990   21.3696 H   0  0  0  0  0  0
  -28.4576  -13.6544   21.8553 H   0  0  0  0  0  0
  -25.2770   -9.5673   22.4770 H   0  0  0  0  0  0
  -23.9996   -7.4631   22.7468 H   0  0  0  0  0  0
  -21.0856   -8.8786   19.8940 H   0  0  0  0  0  0
  -22.3725  -10.9682   19.6151 H   0  0  0  0  0  0
  -21.2001   -7.6142   23.9715 H   0  0  0  0  0  0
  -21.1498   -6.0522   25.9082 H   0  0  0  0  0  0
  -22.0592   -2.7605   23.2853 H   0  0  0  0  0  0
  -22.4108  -11.9908   22.4796 H   0  0  0  0  0  0
  -21.1105  -13.1254   22.2528 H   0  0  0  0  0  0
  -24.6538  -15.8355   20.4906 H   0  0  0  0  0  0
  -26.2752  -15.6225   20.0590 H   0  0  0  0  0  0
  -26.7137  -32.5547   23.1191 H   0  0  0  0  0  0
  -25.0064  -33.9768   25.0497 H   0  0  0  0  0  0
  -22.6943  -31.3182   21.4125 H   0  0  0  0  0  0
  -23.3739  -35.9661   23.3308 H   0  0  0  0  0  0
  -24.3584  -36.8927   22.2057 H   0  0  0  0  0  0
  -23.7231  -37.6522   23.6652 H   0  0  0  0  0  0
  -26.0476  -31.5852   20.5926 H   0  0  0  0  0  0
  -26.8319  -30.8890   21.9791 H   0  0  0  0  0  0
  -28.0909  -29.0346   21.2101 H   0  0  0  0  0  0
  -25.9940  -26.0160   18.9273 H   0  0  0  0  0  0
  -23.9721  -27.3536   18.9717 H   0  0  0  0  0  0
  -23.7304  -30.6223   19.4087 H   0  0  0  0  0  0
  -22.7358  -29.2700   19.8578 H   0  0  0  0  0  0
  -25.1269  -36.1992   25.0834 H   0  0  0  0  0  0
  -20.9977  -28.3414   24.1472 H   0  0  0  0  0  0
  -20.5539  -26.2444   23.3892 H   0  0  0  0  0  0
  -21.6635  -26.7378   22.1528 H   0  0  0  0  0  0
  -19.6911  -25.6242   21.1481 H   0  0  0  0  0  0
  -19.6586  -27.3118   20.6865 H   0  0  0  0  0  0
  -17.4149  -26.6383   21.4380 H   0  0  0  0  0  0
  -18.0518  -26.0128   22.9439 H   0  0  0  0  0  0
  -19.7870  -30.7361   24.2337 H   0  0  0  0  0  0
  -17.4950  -31.6360   24.5058 H   0  0  0  0  0  0
  -15.5323  -30.3045   23.7587 H   0  0  0  0  0  0
  -15.8654  -28.0770   22.7192 H   0  0  0  0  0  0
  -24.5943  -30.6965   25.7776 H   0  0  0  0  0  0
  -24.8884  -32.2784   26.4905 H   0  0  0  0  0  0
  -25.8089  -30.8818   27.0209 H   0  0  0  0  0  0
  -26.2853  -29.6800   24.1102 H   0  0  0  0  0  0
  -27.4128  -29.7250   25.4467 H   0  0  0  0  0  0
  -27.8663  -30.4392   23.9169 H   0  0  0  0  0  0
  -27.2727  -33.3595   26.2049 H   0  0  0  0  0  0
  -28.3882  -32.6782   25.0279 H   0  0  0  0  0  0
  -28.0733  -31.8373   26.5376 H   0  0  0  0  0  0
  -28.2598  -38.0109   24.7512 H   0  0  0  0  0  0
  -28.1070  -36.2632   24.6300 H   0  0  0  0  0  0
  -27.2298  -37.1469   25.8880 H   0  0  0  0  0  0
  -20.9311  -29.8534   21.6671 H   0  0  0  0  0  0
  -26.0184  -38.2877   24.1405 H   0  0  0  0  0  0
  -31.2258  -19.7962   21.7661 H   0  0  0  0  0  0
  -27.7211  -17.4692   20.8130 H   0  0  0  0  0  0
  -26.4342  -20.8311   21.4597 H   0  0  0  0  0  0
  -26.0174  -19.2197   20.8578 H   0  0  0  0  0  0
  -26.6732  -20.4296   19.7457 H   0  0  0  0  0  0
  -31.0662  -16.8377   22.4465 H   0  0  0  0  0  0
  -31.5012  -17.0467   20.7715 H   0  0  0  0  0  0
  -29.9760  -22.2030   22.0850 H   0  0  0  0  0  0
  -28.2518  -22.1666   22.1100 H   0  0  0  0  0  0
  -29.8881  -22.3241   19.5550 H   0  0  0  0  0  0
  -28.1724  -22.5242   19.6385 H   0  0  0  0  0  0
  -29.8562  -24.5743   19.4002 H   0  0  0  0  0  0
  -30.0490  -24.4779   21.1186 H   0  0  0  0  0  0
  -27.6845  -25.0907   21.4496 H   0  0  0  0  0  0
  -27.3406  -24.7473   19.7789 H   0  0  0  0  0  0
  -29.1106  -15.3849   21.4664 H   0  0  0  0  0  0
  1 25  1  0  0  0
  1 30  2  0  0  0
  1 82  1  0  0  0
  2  3  1  0  0  0
  2 25  1  0  0  0
  2 83  1  0  0  0
  2 84  1  0  0  0
  3  4  1  0  0  0
  3 85  1  0  0  0
  3 86  1  0  0  0
  4  5  1  0  0  0
  4 87  1  0  0  0
  4 88  1  0  0  0
  5  6  1  0  0  0
  5 26  1  0  0  0
  5 89  1  0  0  0
  6 25  1  0  0  0
  6 90  1  0  0  0
  6 91  1  0  0  0
  7  8  2  0  0  0
  7 26  1  0  0  0
  7 29  1  0  0  0
  8  9  1  0  0  0
  8 22  1  0  0  0
  9 10  1  0  0  0
  9 27  2  0  0  0
 10 11  2  0  0  0
 10 15  1  0  0  0
 11 12  1  0  0  0
 11 92  1  0  0  0
 12 13  2  0  0  0
 12 93  1  0  0  0
 13 14  1  0  0  0
 13 31  1  0  0  0
 14 15  2  0  0  0
 14 94  1  0  0  0
 15 95  1  0  0  0
 16 17  2  0  0  0
 16 21  1  0  0  0
 16 31  1  0  0  0
 17 18  1  0  0  0
 17 96  1  0  0  0
 18 19  2  0  0  0
 18 97  1  0  0  0
 19 20  1  0  0  0
 19 24  1  0  0  0
 20 21  2  0  0  0
 20 98  1  0  0  0
 21 23  1  0  0  0
 22 28  1  0  0  0
 22 32  2  0  0  0
 26 27  1  0  0  0
 28 99  1  0  0  0
 28100  1  0  0  0
 29101  1  0  0  0
 29102  1  0  0  0
 33 34  1  0  0  0
 33 66  1  0  0  0
 33 70  2  0  0  0
 34 36  1  0  0  0
 34 59  1  0  0  0
 34103  1  0  0  0
 35 44  2  0  0  0
 35 45  1  0  0  0
 35 68  1  0  0  0
 36 56  1  0  0  0
 36104  1  0  0  0
 37 39  1  0  0  0
 37 47  1  0  0  0
 37 66  1  0  0  0
 37105  1  0  0  0
 38 43  2  0  0  0
 38 46  1  0  0  0
 38 47  1  0  0  0
 39 64  1  0  0  0
 39 67  2  0  0  0
 40 52  1  0  0  0
 40 53  2  0  0  0
 40 58  1  0  0  0
 41106  1  0  0  0
 41107  1  0  0  0
 41108  1  0  0  0
 41 48  1  0  0  0
 42 43  1  0  0  0
 42 66  1  0  0  0
 42109  1  0  0  0
 42110  1  0  0  0
 43 44  1  0  0  0
 44111  1  0  0  0
 45 46  2  0  0  0
 45112  1  0  0  0
 46113  1  0  0  0
 47114  1  0  0  0
 47115  1  0  0  0
 48 56  1  0  0  0
 48 65  1  0  0  0
 48116  1  0  0  0
 49 50  1  0  0  0
 49 53  1  0  0  0
 49 64  1  0  0  0
 49117  1  0  0  0
 50 51  1  0  0  0
 50118  1  0  0  0
 50119  1  0  0  0
 51 52  1  0  0  0
 51120  1  0  0  0
 51121  1  0  0  0
 52122  1  0  0  0
 52123  1  0  0  0
 53 54  1  0  0  0
 54 55  2  0  0  0
 54124  1  0  0  0
 55 57  1  0  0  0
 55125  1  0  0  0
 56 69  2  0  0  0
 57 58  2  0  0  0
 57126  1  0  0  0
 58127  1  0  0  0
 59 60  1  0  0  0
 59 61  1  0  0  0
 59 62  1  0  0  0
 60128  1  0  0  0
 60129  1  0  0  0
 60130  1  0  0  0
 61131  1  0  0  0
 61132  1  0  0  0
 61133  1  0  0  0
 62134  1  0  0  0
 62135  1  0  0  0
 62136  1  0  0  0
 63 65  1  0  0  0
 63137  1  0  0  0
 63138  1  0  0  0
 63139  1  0  0  0
 64140  1  0  0  0
 65141  1  0  0  0
 68 80  1  0  0  0
 71 73  1  0  0  0
 71 74  2  0  0  0
 71142  1  0  0  0
 72 73  2  0  0  0
 72 81  1  0  0  0
 72143  1  0  0  0
 73 76  1  0  0  0
 74 77  1  0  0  0
 74 81  1  0  0  0
 75 81  1  0  0  0
 75144  1  0  0  0
 75145  1  0  0  0
 75146  1  0  0  0
 76 82  1  0  0  0
 76147  1  0  0  0
 76148  1  0  0  0
 77 78  1  0  0  0
 77149  1  0  0  0
 77150  1  0  0  0
 78 79  1  0  0  0
 78151  1  0  0  0
 78152  1  0  0  0
 79 80  1  0  0  0
 79153  1  0  0  0
 79154  1  0  0  0
 80155  1  0  0  0
 80156  1  0  0  0
 82157  1  0  0  0
M  ISO  4   1 100  68 101  80 101  82 100
M  END
> <chiral flag>
0

> <version>
0

> <s_m_source_file>
/data/baiqing/PycharmProjects/Reinvent-master-3.2/result/LINK_invent/BTK/process_docking_weight1_custom_sum_contain_oxygen_bond_distance_aromatic_linkinvent_7_9_3/rearranged_h_0049.sdf

> <i_m_source_file_index>
92

> <r_mmod_Potential_Energy-OPLS-2005>
-116.540718078613

> <r_mmod_Stretch_Energy-OPLS-2005>
45.2408142089844

> <r_mmod_Bend_Energy-OPLS-2005>
108.084770202637

> <r_mmod_Torsional_Energy-OPLS-2005>
211.376571655273

> <r_mmod_Improper_Torsional_Energy-OPLS-2005>
2.70166420936584

> <r_mmod_Van_der_Waal_Energy-OPLS-2005>
127.296447753906

> <r_mmod_Electrostatic_Energy-OPLS-2005>
-420.9921875

> <r_mmod_Solvation_Energy-OPLS-2005>
-211.843856811523

> <b_mmod_Minimization_Converged-OPLS-2005>
0

> <r_mmod_RMS_Derivative-OPLS-2005>
3.5106246471405

$$$$
94
                    3D
 Structure written by MMmdl.
160168  0  0  1  0            999 V2000
  -30.7056  -14.5975   20.5039 C   0  0  0  0  0  0
  -30.4170  -12.3694   19.4633 C   0  0  0  0  0  0
  -29.5006  -12.5019   18.2304 C   0  0  0  0  0  0
  -28.0248  -12.3531   18.6426 C   0  0  0  0  0  0
  -27.6519  -13.2302   19.8671 C   0  0  2  0  0  0
  -28.6980  -13.1210   21.0001 C   0  0  0  0  0  0
  -25.2544  -13.8208   20.5726 C   0  0  0  0  0  0
  -24.1821  -13.0450   20.9189 C   0  0  0  0  0  0
  -24.6406  -11.6924   20.8743 C   0  0  0  0  0  0
  -23.9081  -10.4298   21.0399 C   0  0  0  0  0  0
  -24.3624   -9.4214   21.9181 C   0  0  0  0  0  0
  -23.6300   -8.2252   22.0761 C   0  0  0  0  0  0
  -22.4286   -8.0287   21.3547 C   0  0  0  0  0  0
  -21.9920   -9.0258   20.4649 C   0  0  0  0  0  0
  -22.7249  -10.2137   20.3053 C   0  0  0  0  0  0
  -21.6855   -6.0738   22.5275 C   0  0  0  0  0  0
  -21.4019   -6.5638   23.8211 C   0  0  0  0  0  0
  -21.3662   -5.6796   24.9172 C   0  0  0  0  0  0
  -21.6041   -4.3059   24.7224 C   0  0  0  0  0  0
  -21.8817   -3.8150   23.4348 C   0  0  0  0  0  0
  -21.9192   -4.6967   22.3400 C   0  0  0  0  0  0
  -22.7842  -13.5223   21.1854 C   0  0  0  0  0  0
  -22.1662   -4.2151   21.0982 F   0  0  0  0  0  0
  -21.5627   -3.4547   25.7739 F   0  0  0  0  0  0
  -30.0160  -13.4181   20.4231 N   0  0  0  0  0  0
  -26.2996  -12.9419   20.3381 N   0  0  0  0  0  0
  -25.9350  -11.6553   20.5799 N   0  0  0  0  0  0
  -22.0497  -12.8198   22.0406 N   0  0  0  0  0  0
  -25.4234  -15.1940   20.4172 N   0  0  0  0  0  0
  -31.8751  -14.6769   20.1248 O   0  0  0  0  0  0
  -21.6647   -6.8886   21.4239 O   0  0  0  0  0  0
  -22.3514  -14.5532   20.6706 O   0  0  0  0  0  0
  -24.6281  -31.8643   23.2111 C   0  0  0  0  0  0
  -25.9134  -32.4809   23.8407 C   0  0  1  0  0  0
  -27.1984  -27.3207   20.1025 C   0  0  0  0  0  0
  -25.5962  -33.8611   24.2342 N   0  0  0  0  0  0
  -23.4177  -30.4999   21.5548 C   0  0  2  0  0  0
  -24.8586  -28.9767   20.1098 C   0  0  0  0  0  0
  -22.7477  -29.4659   22.4930 C   0  0  0  0  0  0
  -18.0292  -28.1379   22.8483 C   0  0  0  0  0  0
  -24.1488  -36.7297   23.2631 C   0  0  0  0  0  0
  -25.9651  -30.7973   21.3853 C   0  0  0  0  0  0
  -26.0349  -29.4302   20.7195 C   0  0  0  0  0  0
  -27.2097  -28.6147   20.7112 C   0  0  0  0  0  0
  -25.9927  -26.9469   19.4497 C   0  0  0  0  0  0
  -24.8407  -27.7395   19.4660 C   0  0  0  0  0  0
  -23.6301  -29.8569   20.1642 C   0  0  0  0  0  0
  -25.4113  -36.3103   24.0336 C   0  0  1  0  0  0
  -20.5899  -28.3684   23.1270 C   0  0  2  0  0  0
  -20.6786  -26.9401   22.5398 C   0  0  0  0  0  0
  -19.5750  -26.6368   21.5207 C   0  0  0  0  0  0
  -18.1925  -26.7917   22.1618 C   0  0  0  0  0  0
  -19.1549  -28.8845   23.2869 C   0  0  0  0  0  0
  -18.9474  -30.1450   23.8881 C   0  0  0  0  0  0
  -17.6475  -30.6578   24.0564 C   0  0  0  0  0  0
  -25.9053  -34.9470   23.5129 C   0  0  0  0  0  0
  -16.5366  -29.9080   23.6334 C   0  0  0  0  0  0
  -16.7281  -28.6504   23.0346 C   0  0  0  0  0  0
  -26.4509  -31.6597   25.0762 C   0  0  0  0  0  0
  -25.3749  -31.3733   26.1496 C   0  0  0  0  0  0
  -27.0346  -30.3023   24.6193 C   0  0  0  0  0  0
  -27.6075  -32.4328   25.7532 C   0  0  0  0  0  0
  -27.5587  -37.1802   24.8458 C   0  0  0  0  0  0
  -21.4191  -29.3063   22.3677 N   0  0  0  0  0  0
  -26.4293  -37.3797   23.9416 N   0  0  0  0  0  0
  -24.6895  -31.0682   22.1065 N   0  0  0  0  0  0
  -23.4221  -28.8146   23.2950 O   0  0  0  0  0  0
  -28.2744  -26.4094   20.1675 O   0  0  0  0  0  0
  -26.5588  -34.8919   22.4674 O   0  0  0  0  0  0
  -23.5443  -32.1436   23.7449 O   0  0  0  0  0  0
  -29.3874  -23.2832   21.4092 C   0  0  0  0  0  0
  -28.7606  -23.7291   20.2138 C   0  0  0  0  0  0
  -29.7815  -21.1386   20.5047 C   0  0  0  0  0  0
  -29.1289  -21.5772   19.3178 C   0  0  0  0  0  0
  -27.1953  -19.2638   16.8278 C   0  0  0  0  0  0
  -30.5165  -19.7609   20.6163 C   0  0  0  0  0  0
  -28.8901  -20.6701   18.1185 C   0  0  0  0  0  0
  -27.8438  -24.9910   20.0923 C   0  0  0  0  0  0
  -27.4543  -20.1175   18.0757 C   0  0  0  0  0  0
  -29.7237  -18.4063   20.8403 C   0  0  0  0  0  0
  -30.6210  -17.1144   20.6461 C   0  0  0  0  0  0
  -29.9034  -22.0167   21.5460 N   0  0  0  0  0  0
  -28.6458  -22.8441   19.1810 N   0  0  0  0  0  0
  -30.0267  -15.7435   20.8089 N   0  0  0  0  0  0
  -31.4637  -12.4482   19.1628 H   0  0  0  0  0  0
  -30.3131  -11.3819   19.9173 H   0  0  0  0  0  0
  -29.7574  -11.7490   17.4842 H   0  0  0  0  0  0
  -29.6553  -13.4721   17.7556 H   0  0  0  0  0  0
  -27.8526  -11.3015   18.8744 H   0  0  0  0  0  0
  -27.3716  -12.5882   17.8009 H   0  0  0  0  0  0
  -27.6639  -14.2625   19.5164 H   0  0  0  0  0  0
  -28.6966  -12.1217   21.4373 H   0  0  0  0  0  0
  -28.4601  -13.8073   21.8150 H   0  0  0  0  0  0
  -25.2764   -9.5691   22.4761 H   0  0  0  0  0  0
  -24.0003   -7.4651   22.7493 H   0  0  0  0  0  0
  -21.0850   -8.8775   19.8964 H   0  0  0  0  0  0
  -22.3701  -10.9674   19.6174 H   0  0  0  0  0  0
  -21.2016   -7.6143   23.9710 H   0  0  0  0  0  0
  -21.1485   -6.0529   25.9074 H   0  0  0  0  0  0
  -22.0592   -2.7614   23.2848 H   0  0  0  0  0  0
  -22.4121  -11.9839   22.4748 H   0  0  0  0  0  0
  -21.1133  -13.1225   22.2669 H   0  0  0  0  0  0
  -24.6557  -15.8475   20.5303 H   0  0  0  0  0  0
  -26.2765  -15.6384   20.1025 H   0  0  0  0  0  0
  -26.7198  -32.5490   23.1158 H   0  0  0  0  0  0
  -25.0207  -33.9759   25.0549 H   0  0  0  0  0  0
  -22.7099  -31.3212   21.4225 H   0  0  0  0  0  0
  -23.3768  -35.9610   23.3284 H   0  0  0  0  0  0
  -24.3586  -36.8928   22.2045 H   0  0  0  0  0  0
  -23.7225  -37.6489   23.6661 H   0  0  0  0  0  0
  -26.1004  -31.5653   20.6222 H   0  0  0  0  0  0
  -26.8444  -30.8392   22.0160 H   0  0  0  0  0  0
  -28.1041  -28.9535   21.2154 H   0  0  0  0  0  0
  -25.8601  -26.0245   18.9118 H   0  0  0  0  0  0
  -23.9429  -27.3917   18.9741 H   0  0  0  0  0  0
  -23.7519  -30.6440   19.4186 H   0  0  0  0  0  0
  -22.7473  -29.2945   19.8539 H   0  0  0  0  0  0
  -25.1284  -36.1962   25.0829 H   0  0  0  0  0  0
  -20.9999  -28.3266   24.1389 H   0  0  0  0  0  0
  -20.5694  -26.2287   23.3598 H   0  0  0  0  0  0
  -21.6650  -26.7417   22.1184 H   0  0  0  0  0  0
  -19.6907  -25.6275   21.1239 H   0  0  0  0  0  0
  -19.6696  -27.3179   20.6737 H   0  0  0  0  0  0
  -17.4196  -26.6689   21.4011 H   0  0  0  0  0  0
  -18.0308  -26.0045   22.8997 H   0  0  0  0  0  0
  -19.7955  -30.7275   24.2223 H   0  0  0  0  0  0
  -17.5033  -31.6254   24.5167 H   0  0  0  0  0  0
  -15.5368  -30.2983   23.7652 H   0  0  0  0  0  0
  -15.8684  -28.0831   22.7046 H   0  0  0  0  0  0
  -24.5961  -30.7023   25.7861 H   0  0  0  0  0  0
  -24.8892  -32.2888   26.4877 H   0  0  0  0  0  0
  -25.8086  -30.8978   27.0301 H   0  0  0  0  0  0
  -26.2918  -29.6785   24.1210 H   0  0  0  0  0  0
  -27.4055  -29.7263   25.4679 H   0  0  0  0  0  0
  -27.8781  -30.4326   23.9415 H   0  0  0  0  0  0
  -27.2713  -33.3679   26.2025 H   0  0  0  0  0  0
  -28.3927  -32.6798   25.0377 H   0  0  0  0  0  0
  -28.0674  -31.8494   26.5515 H   0  0  0  0  0  0
  -28.2579  -38.0120   24.7544 H   0  0  0  0  0  0
  -28.1113  -36.2659   24.6246 H   0  0  0  0  0  0
  -27.2301  -37.1402   25.8854 H   0  0  0  0  0  0
  -20.9342  -29.8879   21.6986 H   0  0  0  0  0  0
  -26.0179  -38.2869   24.1446 H   0  0  0  0  0  0
  -29.4167  -23.9170   22.2833 H   0  0  0  0  0  0
  -26.1966  -18.8272   16.8488 H   0  0  0  0  0  0
  -27.9160  -18.4491   16.7438 H   0  0  0  0  0  0
  -27.2717  -19.8699   15.9246 H   0  0  0  0  0  0
  -31.2614  -19.8491   21.4080 H   0  0  0  0  0  0
  -31.1180  -19.6613   19.7131 H   0  0  0  0  0  0
  -29.5985  -19.8443   18.1064 H   0  0  0  0  0  0
  -29.0931  -21.2384   17.2102 H   0  0  0  0  0  0
  -27.0309  -24.8352   20.8052 H   0  0  0  0  0  0
  -27.4315  -24.8495   19.0959 H   0  0  0  0  0  0
  -27.2607  -19.5248   18.9705 H   0  0  0  0  0  0
  -26.7376  -20.9398   18.0996 H   0  0  0  0  0  0
  -28.8899  -18.3579   20.1422 H   0  0  0  0  0  0
  -29.2858  -18.4133   21.8391 H   0  0  0  0  0  0
  -31.4764  -17.1863   21.3190 H   0  0  0  0  0  0
  -31.0409  -17.1626   19.6389 H   0  0  0  0  0  0
  -29.0586  -15.6627   21.0839 H   0  0  0  0  0  0
  1 25  1  0  0  0
  1 30  2  0  0  0
  1 84  1  0  0  0
  2  3  1  0  0  0
  2 25  1  0  0  0
  2 85  1  0  0  0
  2 86  1  0  0  0
  3  4  1  0  0  0
  3 87  1  0  0  0
  3 88  1  0  0  0
  4  5  1  0  0  0
  4 89  1  0  0  0
  4 90  1  0  0  0
  5  6  1  0  0  0
  5 26  1  0  0  0
  5 91  1  0  0  0
  6 25  1  0  0  0
  6 92  1  0  0  0
  6 93  1  0  0  0
  7  8  2  0  0  0
  7 26  1  0  0  0
  7 29  1  0  0  0
  8  9  1  0  0  0
  8 22  1  0  0  0
  9 10  1  0  0  0
  9 27  2  0  0  0
 10 11  2  0  0  0
 10 15  1  0  0  0
 11 12  1  0  0  0
 11 94  1  0  0  0
 12 13  2  0  0  0
 12 95  1  0  0  0
 13 14  1  0  0  0
 13 31  1  0  0  0
 14 15  2  0  0  0
 14 96  1  0  0  0
 15 97  1  0  0  0
 16 17  2  0  0  0
 16 21  1  0  0  0
 16 31  1  0  0  0
 17 18  1  0  0  0
 17 98  1  0  0  0
 18 19  2  0  0  0
 18 99  1  0  0  0
 19 20  1  0  0  0
 19 24  1  0  0  0
 20 21  2  0  0  0
 20100  1  0  0  0
 21 23  1  0  0  0
 22 28  1  0  0  0
 22 32  2  0  0  0
 26 27  1  0  0  0
 28101  1  0  0  0
 28102  1  0  0  0
 29103  1  0  0  0
 29104  1  0  0  0
 33 34  1  0  0  0
 33 66  1  0  0  0
 33 70  2  0  0  0
 34 36  1  0  0  0
 34 59  1  0  0  0
 34105  1  0  0  0
 35 44  2  0  0  0
 35 45  1  0  0  0
 35 68  1  0  0  0
 36 56  1  0  0  0
 36106  1  0  0  0
 37 39  1  0  0  0
 37 47  1  0  0  0
 37 66  1  0  0  0
 37107  1  0  0  0
 38 43  2  0  0  0
 38 46  1  0  0  0
 38 47  1  0  0  0
 39 64  1  0  0  0
 39 67  2  0  0  0
 40 52  1  0  0  0
 40 53  2  0  0  0
 40 58  1  0  0  0
 41108  1  0  0  0
 41109  1  0  0  0
 41110  1  0  0  0
 41 48  1  0  0  0
 42 43  1  0  0  0
 42 66  1  0  0  0
 42111  1  0  0  0
 42112  1  0  0  0
 43 44  1  0  0  0
 44113  1  0  0  0
 45 46  2  0  0  0
 45114  1  0  0  0
 46115  1  0  0  0
 47116  1  0  0  0
 47117  1  0  0  0
 48 56  1  0  0  0
 48 65  1  0  0  0
 48118  1  0  0  0
 49 50  1  0  0  0
 49 53  1  0  0  0
 49 64  1  0  0  0
 49119  1  0  0  0
 50 51  1  0  0  0
 50120  1  0  0  0
 50121  1  0  0  0
 51 52  1  0  0  0
 51122  1  0  0  0
 51123  1  0  0  0
 52124  1  0  0  0
 52125  1  0  0  0
 53 54  1  0  0  0
 54 55  2  0  0  0
 54126  1  0  0  0
 55 57  1  0  0  0
 55127  1  0  0  0
 56 69  2  0  0  0
 57 58  2  0  0  0
 57128  1  0  0  0
 58129  1  0  0  0
 59 60  1  0  0  0
 59 61  1  0  0  0
 59 62  1  0  0  0
 60130  1  0  0  0
 60131  1  0  0  0
 60132  1  0  0  0
 61133  1  0  0  0
 61134  1  0  0  0
 61135  1  0  0  0
 62136  1  0  0  0
 62137  1  0  0  0
 62138  1  0  0  0
 63 65  1  0  0  0
 63139  1  0  0  0
 63140  1  0  0  0
 63141  1  0  0  0
 64142  1  0  0  0
 65143  1  0  0  0
 68 78  1  0  0  0
 71 72  2  0  0  0
 71 82  1  0  0  0
 71144  1  0  0  0
 72 78  1  0  0  0
 72 83  1  0  0  0
 73 74  1  0  0  0
 73 76  1  0  0  0
 73 82  2  0  0  0
 74 77  1  0  0  0
 74 83  2  0  0  0
 75 79  1  0  0  0
 75145  1  0  0  0
 75146  1  0  0  0
 75147  1  0  0  0
 76 80  1  0  0  0
 76148  1  0  0  0
 76149  1  0  0  0
 77 79  1  0  0  0
 77150  1  0  0  0
 77151  1  0  0  0
 78152  1  0  0  0
 78153  1  0  0  0
 79154  1  0  0  0
 79155  1  0  0  0
 80 81  1  0  0  0
 80156  1  0  0  0
 80157  1  0  0  0
 81 84  1  0  0  0
 81158  1  0  0  0
 81159  1  0  0  0
 84160  1  0  0  0
M  ISO  4   1 100  68 101  78 101  84 100
M  END
> <chiral flag>
0

> <version>
0

> <s_m_source_file>
/data/baiqing/PycharmProjects/Reinvent-master-3.2/result/LINK_invent/BTK/process_docking_weight1_custom_sum_contain_oxygen_bond_distance_aromatic_linkinvent_7_9_3/rearranged_h_0049.sdf

> <i_m_source_file_index>
93

> <r_mmod_Potential_Energy-OPLS-2005>
144.042953491211

> <r_mmod_Stretch_Energy-OPLS-2005>
76.1926498413086

> <r_mmod_Bend_Energy-OPLS-2005>
152.361373901367

> <r_mmod_Torsional_Energy-OPLS-2005>
202.568664550781

> <r_mmod_Improper_Torsional_Energy-OPLS-2005>
7.65311241149902

> <r_mmod_Van_der_Waal_Energy-OPLS-2005>
162.129180908203

> <r_mmod_Electrostatic_Energy-OPLS-2005>
-287.257659912109

> <r_mmod_Solvation_Energy-OPLS-2005>
-220.719100952148

> <b_mmod_Minimization_Converged-OPLS-2005>
0

> <r_mmod_RMS_Derivative-OPLS-2005>
1.96294581890106

$$$$
