0
                    3D
 Structure written by MMmdl.
152160  0  0  1  0            999 V2000
  -30.5584  -14.9675   20.4252 C   0  0  0  0  0  0
  -30.4381  -12.6045   19.5007 C   0  0  0  0  0  0
  -29.5255  -12.5460   18.2550 C   0  0  0  0  0  0
  -28.0578  -12.3273   18.6668 C   0  0  0  0  0  0
  -27.6286  -13.2564   19.8316 C   0  0  2  0  0  0
  -28.6711  -13.3057   20.9687 C   0  0  0  0  0  0
  -25.2463  -13.8243   20.5671 C   0  0  0  0  0  0
  -24.1800  -13.0451   20.9239 C   0  0  0  0  0  0
  -24.6427  -11.6943   20.8754 C   0  0  0  0  0  0
  -23.9117  -10.4301   21.0408 C   0  0  0  0  0  0
  -24.3660   -9.4214   21.9185 C   0  0  0  0  0  0
  -23.6317   -8.2258   22.0750 C   0  0  0  0  0  0
  -22.4292   -8.0303   21.3547 C   0  0  0  0  0  0
  -21.9948   -9.0284   20.4648 C   0  0  0  0  0  0
  -22.7291  -10.2152   20.3053 C   0  0  0  0  0  0
  -21.6870   -6.0753   22.5282 C   0  0  0  0  0  0
  -21.4026   -6.5645   23.8222 C   0  0  0  0  0  0
  -21.3663   -5.6788   24.9176 C   0  0  0  0  0  0
  -21.6052   -4.3060   24.7223 C   0  0  0  0  0  0
  -21.8819   -3.8156   23.4346 C   0  0  0  0  0  0
  -21.9195   -4.6976   22.3402 C   0  0  0  0  0  0
  -22.7817  -13.5209   21.1893 C   0  0  0  0  0  0
  -22.1670   -4.2168   21.0978 F   0  0  0  0  0  0
  -21.5621   -3.4536   25.7744 F   0  0  0  0  0  0
  -29.9484  -13.7128   20.3725 N   0  0  0  0  0  0
  -26.2890  -12.9484   20.3202 N   0  0  0  0  0  0
  -25.9360  -11.6608   20.5727 N   0  0  0  0  0  0
  -22.0481  -12.8189   22.0452 N   0  0  0  0  0  0
  -25.4073  -15.1969   20.4031 N   0  0  0  0  0  0
  -31.7624  -15.0150   20.1569 O   0  0  0  0  0  0
  -21.6652   -6.8899   21.4246 O   0  0  0  0  0  0
  -22.3483  -14.5497   20.6715 O   0  0  0  0  0  0
  -24.6443  -31.8434   23.1861 C   0  0  0  0  0  0
  -25.9196  -32.4690   23.8269 C   0  0  1  0  0  0
  -27.2315  -27.1346   20.1500 C   0  0  0  0  0  0
  -25.5941  -33.8500   24.2181 N   0  0  0  0  0  0
  -23.4480  -30.4613   21.5300 C   0  0  2  0  0  0
  -24.9033  -28.8857   20.1055 C   0  0  0  0  0  0
  -22.7553  -29.4551   22.4835 C   0  0  0  0  0  0
  -18.0296  -28.1422   22.8456 C   0  0  0  0  0  0
  -24.1504  -36.7285   23.2646 C   0  0  0  0  0  0
  -26.0031  -30.7182   21.3822 C   0  0  0  0  0  0
  -26.0769  -29.3281   20.7257 C   0  0  0  0  0  0
  -27.2368  -28.4660   20.7332 C   0  0  0  0  0  0
  -26.0306  -26.7957   19.4841 C   0  0  0  0  0  0
  -24.8943  -27.6346   19.4698 C   0  0  0  0  0  0
  -23.6765  -29.7857   20.1512 C   0  0  0  0  0  0
  -25.4125  -36.3030   24.0319 C   0  0  1  0  0  0
  -20.5908  -28.3739   23.1241 C   0  0  2  0  0  0
  -20.6786  -26.9435   22.5415 C   0  0  0  0  0  0
  -19.5762  -26.6389   21.5219 C   0  0  0  0  0  0
  -18.1939  -26.7948   22.1620 C   0  0  0  0  0  0
  -19.1556  -28.8897   23.2842 C   0  0  0  0  0  0
  -18.9459  -30.1488   23.8872 C   0  0  0  0  0  0
  -17.6458  -30.6609   24.0563 C   0  0  0  0  0  0
  -25.9071  -34.9403   23.5057 C   0  0  0  0  0  0
  -16.5348  -29.9100   23.6344 C   0  0  0  0  0  0
  -16.7276  -28.6534   23.0329 C   0  0  0  0  0  0
  -26.4512  -31.6551   25.0708 C   0  0  0  0  0  0
  -25.3717  -31.3729   26.1422 C   0  0  0  0  0  0
  -27.0370  -30.2943   24.6282 C   0  0  0  0  0  0
  -27.6054  -32.4312   25.7483 C   0  0  0  0  0  0
  -27.5579  -37.1792   24.8446 C   0  0  0  0  0  0
  -21.4236  -29.3074   22.3606 N   0  0  0  0  0  0
  -26.4282  -37.3745   23.9404 N   0  0  0  0  0  0
  -24.7182  -31.0285   22.0886 N   0  0  0  0  0  0
  -23.4189  -28.8086   23.2974 O   0  0  0  0  0  0
  -28.3063  -26.1760   20.2715 O   0  0  0  0  0  0
  -26.5657  -34.8895   22.4632 O   0  0  0  0  0  0
  -23.5559  -32.1303   23.7078 O   0  0  0  0  0  0
  -29.8004  -21.7973   18.8065 C   0  0  0  0  0  0
  -29.0882  -21.8455   19.9261 C   0  0  0  0  0  0
  -31.8759  -20.5591   19.3775 C   0  0  0  0  0  0
  -28.6407  -23.2618   20.6425 C   0  0  0  0  0  0
  -29.1697  -19.0458   20.5181 C   0  0  0  0  0  0
  -30.2132  -17.7051   20.4833 C   0  0  0  0  0  0
  -28.3341  -24.6907   19.7829 C   0  0  0  0  0  0
  -30.4326  -20.6237   19.1625 N   0  0  0  0  0  0
  -29.6531  -20.5347   20.3605 N   0  0  0  0  0  0
  -29.8073  -16.1700   20.5759 N   0  0  0  0  0  0
  -31.4746  -12.7526   19.1947 H   0  0  0  0  0  0
  -30.4180  -11.6537   20.0376 H   0  0  0  0  0  0
  -29.8479  -11.7550   17.5777 H   0  0  0  0  0  0
  -29.6135  -13.4782   17.6948 H   0  0  0  0  0  0
  -27.9536  -11.2843   18.9692 H   0  0  0  0  0  0
  -27.3987  -12.4644   17.8077 H   0  0  0  0  0  0
  -27.5812  -14.2561   19.3976 H   0  0  0  0  0  0
  -28.7632  -12.3396   21.4660 H   0  0  0  0  0  0
  -28.3672  -14.0222   21.7330 H   0  0  0  0  0  0
  -25.2819   -9.5690   22.4755 H   0  0  0  0  0  0
  -24.0048   -7.4647   22.7453 H   0  0  0  0  0  0
  -21.0891   -8.8806   19.8946 H   0  0  0  0  0  0
  -22.3765  -10.9691   19.6161 H   0  0  0  0  0  0
  -21.2020   -7.6160   23.9734 H   0  0  0  0  0  0
  -21.1487   -6.0516   25.9078 H   0  0  0  0  0  0
  -22.0593   -2.7619   23.2840 H   0  0  0  0  0  0
  -22.4101  -11.9857   22.4856 H   0  0  0  0  0  0
  -21.1079  -13.1179   22.2615 H   0  0  0  0  0  0
  -24.6262  -15.8383   20.4820 H   0  0  0  0  0  0
  -26.2274  -15.6315   20.0002 H   0  0  0  0  0  0
  -26.7252  -32.5289   23.0993 H   0  0  0  0  0  0
  -25.0022  -33.9637   25.0280 H   0  0  0  0  0  0
  -22.7527  -31.2897   21.3706 H   0  0  0  0  0  0
  -23.3768  -35.9615   23.3257 H   0  0  0  0  0  0
  -24.3594  -36.8981   22.2071 H   0  0  0  0  0  0
  -23.7274  -37.6470   23.6722 H   0  0  0  0  0  0
  -26.1510  -31.4730   20.6090 H   0  0  0  0  0  0
  -26.8793  -30.7777   22.0169 H   0  0  0  0  0  0
  -28.1275  -28.8002   21.2450 H   0  0  0  0  0  0
  -25.9208  -25.8433   18.9913 H   0  0  0  0  0  0
  -23.9973  -27.2922   18.9736 H   0  0  0  0  0  0
  -23.8113  -30.5612   19.3972 H   0  0  0  0  0  0
  -22.7933  -29.2268   19.8369 H   0  0  0  0  0  0
  -25.1320  -36.1843   25.0816 H   0  0  0  0  0  0
  -20.9991  -28.3327   24.1365 H   0  0  0  0  0  0
  -20.5688  -26.2331   23.3625 H   0  0  0  0  0  0
  -21.6647  -26.7452   22.1199 H   0  0  0  0  0  0
  -19.6932  -25.6284   21.1281 H   0  0  0  0  0  0
  -19.6732  -27.3181   20.6731 H   0  0  0  0  0  0
  -17.4200  -26.6671   21.4029 H   0  0  0  0  0  0
  -18.0346  -26.0119   22.9048 H   0  0  0  0  0  0
  -19.7934  -30.7318   24.2224 H   0  0  0  0  0  0
  -17.5008  -31.6280   24.5177 H   0  0  0  0  0  0
  -15.5346  -30.2993   23.7720 H   0  0  0  0  0  0
  -15.8661  -28.0881   22.7029 H   0  0  0  0  0  0
  -24.5804  -30.7204   25.7701 H   0  0  0  0  0  0
  -24.9043  -32.2925   26.4950 H   0  0  0  0  0  0
  -25.8020  -30.8758   27.0126 H   0  0  0  0  0  0
  -26.2973  -29.6652   24.1314 H   0  0  0  0  0  0
  -27.3994  -29.7253   25.4854 H   0  0  0  0  0  0
  -27.8873  -30.4173   23.9577 H   0  0  0  0  0  0
  -27.2634  -33.3586   26.2081 H   0  0  0  0  0  0
  -28.3845  -32.6920   25.0309 H   0  0  0  0  0  0
  -28.0730  -31.8421   26.5377 H   0  0  0  0  0  0
  -28.2560  -38.0120   24.7488 H   0  0  0  0  0  0
  -28.1112  -36.2646   24.6259 H   0  0  0  0  0  0
  -27.2292  -37.1410   25.8846 H   0  0  0  0  0  0
  -20.9426  -29.8775   21.6789 H   0  0  0  0  0  0
  -26.0146  -38.2813   24.1403 H   0  0  0  0  0  0
  -30.1666  -22.3948   17.9742 H   0  0  0  0  0  0
  -32.3340  -19.8998   18.6407 H   0  0  0  0  0  0
  -32.1237  -20.1693   20.3667 H   0  0  0  0  0  0
  -32.3451  -21.5400   19.2778 H   0  0  0  0  0  0
  -29.4216  -23.4784   21.3719 H   0  0  0  0  0  0
  -27.7568  -23.0425   21.2418 H   0  0  0  0  0  0
  -28.6239  -19.0119   21.4626 H   0  0  0  0  0  0
  -28.4082  -18.8921   19.7531 H   0  0  0  0  0  0
  -30.9301  -17.8575   21.2920 H   0  0  0  0  0  0
  -30.8107  -17.7906   19.5755 H   0  0  0  0  0  0
  -27.4498  -24.4880   19.1855 H   0  0  0  0  0  0
  -29.1261  -24.7224   19.0349 H   0  0  0  0  0  0
  -28.8255  -16.0149   20.7563 H   0  0  0  0  0  0
  1 25  1  0  0  0
  1 30  2  0  0  0
  1 80  1  0  0  0
  2  3  1  0  0  0
  2 25  1  0  0  0
  2 81  1  0  0  0
  2 82  1  0  0  0
  3  4  1  0  0  0
  3 83  1  0  0  0
  3 84  1  0  0  0
  4  5  1  0  0  0
  4 85  1  0  0  0
  4 86  1  0  0  0
  5  6  1  0  0  0
  5 26  1  0  0  0
  5 87  1  0  0  0
  6 25  1  0  0  0
  6 88  1  0  0  0
  6 89  1  0  0  0
  7  8  2  0  0  0
  7 26  1  0  0  0
  7 29  1  0  0  0
  8  9  1  0  0  0
  8 22  1  0  0  0
  9 10  1  0  0  0
  9 27  2  0  0  0
 10 11  2  0  0  0
 10 15  1  0  0  0
 11 12  1  0  0  0
 11 90  1  0  0  0
 12 13  2  0  0  0
 12 91  1  0  0  0
 13 14  1  0  0  0
 13 31  1  0  0  0
 14 15  2  0  0  0
 14 92  1  0  0  0
 15 93  1  0  0  0
 16 17  2  0  0  0
 16 21  1  0  0  0
 16 31  1  0  0  0
 17 18  1  0  0  0
 17 94  1  0  0  0
 18 19  2  0  0  0
 18 95  1  0  0  0
 19 20  1  0  0  0
 19 24  1  0  0  0
 20 21  2  0  0  0
 20 96  1  0  0  0
 21 23  1  0  0  0
 22 28  1  0  0  0
 22 32  2  0  0  0
 26 27  1  0  0  0
 28 97  1  0  0  0
 28 98  1  0  0  0
 29 99  1  0  0  0
 29100  1  0  0  0
 33 34  1  0  0  0
 33 66  1  0  0  0
 33 70  2  0  0  0
 34 36  1  0  0  0
 34 59  1  0  0  0
 34101  1  0  0  0
 35 44  2  0  0  0
 35 45  1  0  0  0
 35 68  1  0  0  0
 36 56  1  0  0  0
 36102  1  0  0  0
 37 39  1  0  0  0
 37 47  1  0  0  0
 37 66  1  0  0  0
 37103  1  0  0  0
 38 43  2  0  0  0
 38 46  1  0  0  0
 38 47  1  0  0  0
 39 64  1  0  0  0
 39 67  2  0  0  0
 40 52  1  0  0  0
 40 53  2  0  0  0
 40 58  1  0  0  0
 41104  1  0  0  0
 41105  1  0  0  0
 41106  1  0  0  0
 41 48  1  0  0  0
 42 43  1  0  0  0
 42 66  1  0  0  0
 42107  1  0  0  0
 42108  1  0  0  0
 43 44  1  0  0  0
 44109  1  0  0  0
 45 46  2  0  0  0
 45110  1  0  0  0
 46111  1  0  0  0
 47112  1  0  0  0
 47113  1  0  0  0
 48 56  1  0  0  0
 48 65  1  0  0  0
 48114  1  0  0  0
 49 50  1  0  0  0
 49 53  1  0  0  0
 49 64  1  0  0  0
 49115  1  0  0  0
 50 51  1  0  0  0
 50116  1  0  0  0
 50117  1  0  0  0
 51 52  1  0  0  0
 51118  1  0  0  0
 51119  1  0  0  0
 52120  1  0  0  0
 52121  1  0  0  0
 53 54  1  0  0  0
 54 55  2  0  0  0
 54122  1  0  0  0
 55 57  1  0  0  0
 55123  1  0  0  0
 56 69  2  0  0  0
 57 58  2  0  0  0
 57124  1  0  0  0
 58125  1  0  0  0
 59 60  1  0  0  0
 59 61  1  0  0  0
 59 62  1  0  0  0
 60126  1  0  0  0
 60127  1  0  0  0
 60128  1  0  0  0
 61129  1  0  0  0
 61130  1  0  0  0
 61131  1  0  0  0
 62132  1  0  0  0
 62133  1  0  0  0
 62134  1  0  0  0
 63 65  1  0  0  0
 63135  1  0  0  0
 63136  1  0  0  0
 63137  1  0  0  0
 64138  1  0  0  0
 65139  1  0  0  0
 68 77  1  0  0  0
 71 72  2  0  0  0
 71 78  1  0  0  0
 71140  1  0  0  0
 72 74  1  0  0  0
 72 79  1  0  0  0
 73 78  1  0  0  0
 73141  1  0  0  0
 73142  1  0  0  0
 73143  1  0  0  0
 74 77  1  0  0  0
 74144  1  0  0  0
 74145  1  0  0  0
 75 76  1  0  0  0
 75 79  1  0  0  0
 75146  1  0  0  0
 75147  1  0  0  0
 76 80  1  0  0  0
 76148  1  0  0  0
 76149  1  0  0  0
 77150  1  0  0  0
 77151  1  0  0  0
 78 79  1  0  0  0
 80152  1  0  0  0
M  ISO  4   1 100  68 101  77 101  80 100
M  END
> <chiral flag>
0

> <version>
0

> <s_m_source_file>
/data/baiqing/PycharmProjects/Reinvent-master-3.2/result/LINK_invent/BTK/process_docking_weight1_custom_sum_contain_oxygen_bond_distance_aromatic_linkinvent_7_9_3/rearranged_h_0058.sdf

> <i_m_source_file_index>
1

> <r_mmod_Potential_Energy-OPLS-2005>
569.224060058594

> <r_mmod_Stretch_Energy-OPLS-2005>
280.145202636719

> <r_mmod_Bend_Energy-OPLS-2005>
315.722747802734

> <r_mmod_Torsional_Energy-OPLS-2005>
239.408142089844

> <r_mmod_Improper_Torsional_Energy-OPLS-2005>
22.7280883789062

> <r_mmod_Van_der_Waal_Energy-OPLS-2005>
112.916694641113

> <r_mmod_Electrostatic_Energy-OPLS-2005>
-373.67333984375

> <r_mmod_Solvation_Energy-OPLS-2005>
-227.232666015625

> <b_mmod_Minimization_Converged-OPLS-2005>
0

> <r_mmod_RMS_Derivative-OPLS-2005>
2.88074660301208

$$$$
1
                    3D
 Structure written by MMmdl.
169177  0  0  1  0            999 V2000
  -30.7098  -14.4122   20.6223 C   0  0  0  0  0  0
  -30.4006  -12.2772   19.3933 C   0  0  0  0  0  0
  -29.4874  -12.5389   18.1810 C   0  0  0  0  0  0
  -28.0030  -12.4017   18.5799 C   0  0  0  0  0  0
  -27.6613  -13.1989   19.8689 C   0  0  2  0  0  0
  -28.6921  -12.9244   20.9814 C   0  0  0  0  0  0
  -25.2609  -13.8097   20.5592 C   0  0  0  0  0  0
  -24.1882  -13.0407   20.9172 C   0  0  0  0  0  0
  -24.6428  -11.6860   20.8706 C   0  0  0  0  0  0
  -23.9095  -10.4272   21.0415 C   0  0  0  0  0  0
  -24.3638   -9.4197   21.9202 C   0  0  0  0  0  0
  -23.6300   -8.2236   22.0777 C   0  0  0  0  0  0
  -22.4286   -8.0276   21.3566 C   0  0  0  0  0  0
  -21.9929   -9.0261   20.4671 C   0  0  0  0  0  0
  -22.7278  -10.2130   20.3077 C   0  0  0  0  0  0
  -21.6845   -6.0738   22.5277 C   0  0  0  0  0  0
  -21.4020   -6.5642   23.8204 C   0  0  0  0  0  0
  -21.3669   -5.6809   24.9169 C   0  0  0  0  0  0
  -21.6039   -4.3063   24.7233 C   0  0  0  0  0  0
  -21.8820   -3.8151   23.4349 C   0  0  0  0  0  0
  -21.9192   -4.6967   22.3403 C   0  0  0  0  0  0
  -22.7932  -13.5227   21.1805 C   0  0  0  0  0  0
  -22.1661   -4.2146   21.0982 F   0  0  0  0  0  0
  -21.5633   -3.4544   25.7743 F   0  0  0  0  0  0
  -30.0290  -13.2409   20.4485 N   0  0  0  0  0  0
  -26.3035  -12.9262   20.3259 N   0  0  0  0  0  0
  -25.9328  -11.6423   20.5686 N   0  0  0  0  0  0
  -22.0560  -12.8256   22.0368 N   0  0  0  0  0  0
  -25.4323  -15.1812   20.3900 N   0  0  0  0  0  0
  -31.7983  -14.6274   20.0752 O   0  0  0  0  0  0
  -21.6649   -6.8885   21.4250 O   0  0  0  0  0  0
  -22.3629  -14.5558   20.6654 O   0  0  0  0  0  0
  -24.6138  -31.8697   23.2175 C   0  0  0  0  0  0
  -25.9050  -32.4832   23.8429 C   0  0  1  0  0  0
  -27.2042  -27.4408   20.0814 C   0  0  0  0  0  0
  -25.5908  -33.8640   24.2331 N   0  0  0  0  0  0
  -23.3976  -30.5021   21.5542 C   0  0  2  0  0  0
  -24.8354  -28.9827   20.0985 C   0  0  0  0  0  0
  -22.7439  -29.4735   22.5002 C   0  0  0  0  0  0
  -18.0311  -28.1348   22.8494 C   0  0  0  0  0  0
  -24.1505  -36.7320   23.2647 C   0  0  0  0  0  0
  -25.9263  -30.8335   21.3757 C   0  0  0  0  0  0
  -25.9940  -29.4749   20.7118 C   0  0  0  0  0  0
  -27.1769  -28.7045   20.7137 C   0  0  0  0  0  0
  -26.0365  -26.9836   19.4279 C   0  0  0  0  0  0
  -24.8541  -27.7394   19.4475 C   0  0  0  0  0  0
  -23.5980  -29.8455   20.1629 C   0  0  0  0  0  0
  -25.4128  -36.3099   24.0328 C   0  0  1  0  0  0
  -20.5893  -28.3677   23.1326 C   0  0  2  0  0  0
  -20.6816  -26.9390   22.5461 C   0  0  0  0  0  0
  -19.5769  -26.6237   21.5320 C   0  0  0  0  0  0
  -18.1954  -26.7866   22.1682 C   0  0  0  0  0  0
  -19.1549  -28.8838   23.2895 C   0  0  0  0  0  0
  -18.9445  -30.1477   23.8869 C   0  0  0  0  0  0
  -17.6437  -30.6578   24.0519 C   0  0  0  0  0  0
  -25.9030  -34.9476   23.5110 C   0  0  0  0  0  0
  -16.5350  -29.9023   23.6287 C   0  0  0  0  0  0
  -16.7318  -28.6457   23.0299 C   0  0  0  0  0  0
  -26.4502  -31.6615   25.0745 C   0  0  0  0  0  0
  -25.3798  -31.3698   26.1517 C   0  0  0  0  0  0
  -27.0409  -30.3083   24.6144 C   0  0  0  0  0  0
  -27.6019  -32.4429   25.7483 C   0  0  0  0  0  0
  -27.5585  -37.1815   24.8457 C   0  0  0  0  0  0
  -21.4162  -29.3058   22.3770 N   0  0  0  0  0  0
  -26.4318  -37.3760   23.9379 N   0  0  0  0  0  0
  -24.6629  -31.0857   22.1030 N   0  0  0  0  0  0
  -23.4249  -28.8230   23.2976 O   0  0  0  0  0  0
  -28.3725  -26.7127   20.1241 O   0  0  0  0  0  0
  -26.5592  -34.8922   22.4680 O   0  0  0  0  0  0
  -23.5353  -32.1441   23.7594 O   0  0  0  0  0  0
  -29.3057  -19.7762   22.4580 C   0  0  0  0  0  0
  -28.0971  -19.6364   21.8167 C   0  0  0  0  0  0
  -29.4176  -17.9049   21.2527 C   0  0  0  0  0  0
  -31.4932  -18.5125   22.4817 C   0  0  0  0  0  0
  -30.0905  -15.4444   22.7130 C   0  0  0  0  0  0
  -27.5668  -21.3873   18.4387 C   0  0  0  0  0  0
  -26.8649  -20.5025   21.8860 C   0  0  0  0  0  0
  -29.9501  -16.6992   20.5007 C   0  0  0  0  0  0
  -27.5837  -24.3601   20.5144 C   0  0  0  0  0  0
  -26.2828  -21.0195   20.5352 C   0  0  0  0  0  0
  -28.0604  -22.8900   20.3413 C   0  0  0  0  0  0
  -28.3891  -25.3668   19.6395 C   0  0  0  0  0  0
  -30.0973  -18.7248   22.0770 N   0  0  0  0  0  0
  -28.1997  -18.4539   21.1122 N   0  3  0  0  0  0
  -30.0358  -15.4175   21.2445 N   0  0  0  0  0  0
  -27.0534  -21.9942   19.6924 N   0  3  1  0  0  0
  -31.4517  -12.3456   19.1118 H   0  0  0  0  0  0
  -30.2538  -11.2550   19.7444 H   0  0  0  0  0  0
  -29.7190  -11.8546   17.3658 H   0  0  0  0  0  0
  -29.6741  -13.5454   17.7937 H   0  0  0  0  0  0
  -27.7791  -11.3448   18.7132 H   0  0  0  0  0  0
  -27.3685  -12.7397   17.7561 H   0  0  0  0  0  0
  -27.7252  -14.2583   19.6191 H   0  0  0  0  0  0
  -28.6569  -11.8734   21.2745 H   0  0  0  0  0  0
  -28.4420  -13.4790   21.8823 H   0  0  0  0  0  0
  -25.2787   -9.5640   22.4790 H   0  0  0  0  0  0
  -23.9993   -7.4623   22.7507 H   0  0  0  0  0  0
  -21.0846   -8.8810   19.8974 H   0  0  0  0  0  0
  -22.3763  -10.9680   19.6183 H   0  0  0  0  0  0
  -21.2024   -7.6149   23.9711 H   0  0  0  0  0  0
  -21.1488   -6.0533   25.9076 H   0  0  0  0  0  0
  -22.0590   -2.7606   23.2850 H   0  0  0  0  0  0
  -22.4174  -11.9896   22.4737 H   0  0  0  0  0  0
  -21.1190  -13.1303   22.2575 H   0  0  0  0  0  0
  -24.6279  -15.7997   20.4218 H   0  0  0  0  0  0
  -26.2232  -15.5747   19.8967 H   0  0  0  0  0  0
  -26.7096  -32.5498   23.1162 H   0  0  0  0  0  0
  -25.0092  -33.9773   25.0507 H   0  0  0  0  0  0
  -22.6864  -31.3201   21.4297 H   0  0  0  0  0  0
  -23.3733  -35.9674   23.3310 H   0  0  0  0  0  0
  -24.3590  -36.8938   22.2049 H   0  0  0  0  0  0
  -23.7278  -37.6552   23.6646 H   0  0  0  0  0  0
  -26.0635  -31.6069   20.6213 H   0  0  0  0  0  0
  -26.8063  -30.8631   22.0047 H   0  0  0  0  0  0
  -28.0637  -29.0736   21.2107 H   0  0  0  0  0  0
  -26.0135  -26.0589   18.8766 H   0  0  0  0  0  0
  -23.9721  -27.3708   18.9405 H   0  0  0  0  0  0
  -23.6972  -30.6219   19.4050 H   0  0  0  0  0  0
  -22.7213  -29.2625   19.8766 H   0  0  0  0  0  0
  -25.1301  -36.1970   25.0811 H   0  0  0  0  0  0
  -20.9955  -28.3217   24.1463 H   0  0  0  0  0  0
  -20.5748  -26.2284   23.3669 H   0  0  0  0  0  0
  -21.6688  -26.7451   22.1263 H   0  0  0  0  0  0
  -19.6894  -25.6076   21.1497 H   0  0  0  0  0  0
  -19.6726  -27.2942   20.6779 H   0  0  0  0  0  0
  -17.4231  -26.6647   21.4066 H   0  0  0  0  0  0
  -18.0269  -26.0111   22.9157 H   0  0  0  0  0  0
  -19.7915  -30.7340   24.2179 H   0  0  0  0  0  0
  -17.4932  -31.6263   24.5063 H   0  0  0  0  0  0
  -15.5316  -30.2830   23.7558 H   0  0  0  0  0  0
  -15.8763  -28.0744   22.6921 H   0  0  0  0  0  0
  -24.5948  -30.7067   25.7859 H   0  0  0  0  0  0
  -24.9042  -32.2867   26.5001 H   0  0  0  0  0  0
  -25.8217  -30.8840   27.0234 H   0  0  0  0  0  0
  -27.4482  -29.7452   25.4548 H   0  0  0  0  0  0
  -26.2912  -29.6697   24.1481 H   0  0  0  0  0  0
  -27.8599  -30.4413   23.9087 H   0  0  0  0  0  0
  -27.2544  -33.3722   26.2012 H   0  0  0  0  0  0
  -28.3837  -32.7068   25.0342 H   0  0  0  0  0  0
  -28.0690  -31.8659   26.5458 H   0  0  0  0  0  0
  -28.2601  -38.0117   24.7486 H   0  0  0  0  0  0
  -28.1105  -36.2646   24.6315 H   0  0  0  0  0  0
  -27.2294  -37.1482   25.8864 H   0  0  0  0  0  0
  -20.9339  -29.8780   21.6976 H   0  0  0  0  0  0
  -26.0216  -38.2851   24.1365 H   0  0  0  0  0  0
  -29.6557  -20.5477   23.1355 H   0  0  0  0  0  0
  -31.9896  -19.4737   22.6099 H   0  0  0  0  0  0
  -32.0426  -17.9483   21.7231 H   0  0  0  0  0  0
  -31.5144  -17.9857   23.4350 H   0  0  0  0  0  0
  -31.0302  -15.8706   23.0513 H   0  0  0  0  0  0
  -29.2687  -16.0007   23.1604 H   0  0  0  0  0  0
  -30.0480  -14.4384   23.1224 H   0  0  0  0  0  0
  -28.3546  -20.6635   18.6450 H   0  0  0  0  0  0
  -27.9726  -22.1579   17.7805 H   0  0  0  0  0  0
  -26.7766  -20.8862   17.8798 H   0  0  0  0  0  0
  -27.0390  -21.3248   22.5836 H   0  0  0  0  0  0
  -26.0828  -19.9092   22.3638 H   0  0  0  0  0  0
  -29.3010  -16.5627   19.6360 H   0  0  0  0  0  0
  -30.9208  -16.9924   20.1008 H   0  0  0  0  0  0
  -27.7024  -24.6332   21.5649 H   0  0  0  0  0  0
  -26.5119  -24.4450   20.3233 H   0  0  0  0  0  0
  -25.9986  -20.1540   19.9317 H   0  0  0  0  0  0
  -25.3380  -21.5167   20.7652 H   0  0  0  0  0  0
  -28.9681  -22.8961   19.7291 H   0  0  0  0  0  0
  -28.4052  -22.5035   21.3020 H   0  0  0  0  0  0
  -28.1005  -25.3278   18.5854 H   0  0  0  0  0  0
  -29.4415  -25.0785   19.6620 H   0  0  0  0  0  0
  -27.4669  -18.0539   20.5365 H   0  0  0  0  0  0
  -26.3309  -22.6197   19.3626 H   0  0  0  0  0  0
  1 25  1  0  0  0
  1 30  2  0  0  0
  1 85  1  0  0  0
  2  3  1  0  0  0
  2 25  1  0  0  0
  2 87  1  0  0  0
  2 88  1  0  0  0
  3  4  1  0  0  0
  3 89  1  0  0  0
  3 90  1  0  0  0
  4  5  1  0  0  0
  4 91  1  0  0  0
  4 92  1  0  0  0
  5  6  1  0  0  0
  5 26  1  0  0  0
  5 93  1  0  0  0
  6 25  1  0  0  0
  6 94  1  0  0  0
  6 95  1  0  0  0
  7  8  2  0  0  0
  7 26  1  0  0  0
  7 29  1  0  0  0
  8  9  1  0  0  0
  8 22  1  0  0  0
  9 10  1  0  0  0
  9 27  2  0  0  0
 10 11  2  0  0  0
 10 15  1  0  0  0
 11 12  1  0  0  0
 11 96  1  0  0  0
 12 13  2  0  0  0
 12 97  1  0  0  0
 13 14  1  0  0  0
 13 31  1  0  0  0
 14 15  2  0  0  0
 14 98  1  0  0  0
 15 99  1  0  0  0
 16 17  2  0  0  0
 16 21  1  0  0  0
 16 31  1  0  0  0
 17 18  1  0  0  0
 17100  1  0  0  0
 18 19  2  0  0  0
 18101  1  0  0  0
 19 20  1  0  0  0
 19 24  1  0  0  0
 20 21  2  0  0  0
 20102  1  0  0  0
 21 23  1  0  0  0
 22 28  1  0  0  0
 22 32  2  0  0  0
 26 27  1  0  0  0
 28103  1  0  0  0
 28104  1  0  0  0
 29105  1  0  0  0
 29106  1  0  0  0
 33 34  1  0  0  0
 33 66  1  0  0  0
 33 70  2  0  0  0
 34 36  1  0  0  0
 34 59  1  0  0  0
 34107  1  0  0  0
 35 44  2  0  0  0
 35 45  1  0  0  0
 35 68  1  0  0  0
 36 56  1  0  0  0
 36108  1  0  0  0
 37 39  1  0  0  0
 37 47  1  0  0  0
 37 66  1  0  0  0
 37109  1  0  0  0
 38 43  2  0  0  0
 38 46  1  0  0  0
 38 47  1  0  0  0
 39 64  1  0  0  0
 39 67  2  0  0  0
 40 52  1  0  0  0
 40 53  2  0  0  0
 40 58  1  0  0  0
 41110  1  0  0  0
 41111  1  0  0  0
 41112  1  0  0  0
 41 48  1  0  0  0
 42 43  1  0  0  0
 42 66  1  0  0  0
 42113  1  0  0  0
 42114  1  0  0  0
 43 44  1  0  0  0
 44115  1  0  0  0
 45 46  2  0  0  0
 45116  1  0  0  0
 46117  1  0  0  0
 47118  1  0  0  0
 47119  1  0  0  0
 48 56  1  0  0  0
 48 65  1  0  0  0
 48120  1  0  0  0
 49 50  1  0  0  0
 49 53  1  0  0  0
 49 64  1  0  0  0
 49121  1  0  0  0
 50 51  1  0  0  0
 50122  1  0  0  0
 50123  1  0  0  0
 51 52  1  0  0  0
 51124  1  0  0  0
 51125  1  0  0  0
 52126  1  0  0  0
 52127  1  0  0  0
 53 54  1  0  0  0
 54 55  2  0  0  0
 54128  1  0  0  0
 55 57  1  0  0  0
 55129  1  0  0  0
 56 69  2  0  0  0
 57 58  2  0  0  0
 57130  1  0  0  0
 58131  1  0  0  0
 59 60  1  0  0  0
 59 61  1  0  0  0
 59 62  1  0  0  0
 60132  1  0  0  0
 60133  1  0  0  0
 60134  1  0  0  0
 61135  1  0  0  0
 61136  1  0  0  0
 61137  1  0  0  0
 62138  1  0  0  0
 62139  1  0  0  0
 62140  1  0  0  0
 63 65  1  0  0  0
 63141  1  0  0  0
 63142  1  0  0  0
 63143  1  0  0  0
 64144  1  0  0  0
 65145  1  0  0  0
 68 82  1  0  0  0
 71 72  2  0  0  0
 71 83  1  0  0  0
 71146  1  0  0  0
 72 77  1  0  0  0
 72 84  1  0  0  0
 73 78  1  0  0  0
 73 83  1  0  0  0
 73 84  2  0  0  0
 74 83  1  0  0  0
 74147  1  0  0  0
 74148  1  0  0  0
 74149  1  0  0  0
 75 85  1  0  0  0
 75150  1  0  0  0
 75151  1  0  0  0
 75152  1  0  0  0
 76153  1  0  0  0
 76154  1  0  0  0
 76155  1  0  0  0
 76 86  1  0  0  0
 77 80  1  0  0  0
 77156  1  0  0  0
 77157  1  0  0  0
 78 85  1  0  0  0
 78158  1  0  0  0
 78159  1  0  0  0
 79 81  1  0  0  0
 79 82  1  0  0  0
 79160  1  0  0  0
 79161  1  0  0  0
 80 86  1  0  0  0
 80162  1  0  0  0
 80163  1  0  0  0
 81 86  1  0  0  0
 81164  1  0  0  0
 81165  1  0  0  0
 82166  1  0  0  0
 82167  1  0  0  0
 84168  1  0  0  0
 86169  1  0  0  0
M  CHG  2  84   1  86   1
M  ISO  4   1 100  68 101  82 101  85 100
M  END
> <chiral flag>
0

> <version>
0

> <s_m_source_file>
/data/baiqing/PycharmProjects/Reinvent-master-3.2/result/LINK_invent/BTK/process_docking_weight1_custom_sum_contain_oxygen_bond_distance_aromatic_linkinvent_7_9_3/rearranged_h_0058.sdf

> <i_m_source_file_index>
2

> <r_mmod_Potential_Energy-OPLS-2005>
-85.7823944091797

> <r_mmod_Stretch_Energy-OPLS-2005>
41.1929054260254

> <r_mmod_Bend_Energy-OPLS-2005>
137.097763061523

> <r_mmod_Torsional_Energy-OPLS-2005>
308.056274414062

> <r_mmod_Improper_Torsional_Energy-OPLS-2005>
9.01248168945312

> <r_mmod_Van_der_Waal_Energy-OPLS-2005>
136.823181152344

> <r_mmod_Electrostatic_Energy-OPLS-2005>
206.198028564453

> <r_mmod_Solvation_Energy-OPLS-2005>
-936.236511230469

> <b_mmod_Minimization_Converged-OPLS-2005>
0

> <r_mmod_RMS_Derivative-OPLS-2005>
7.7565484046936

$$$$
2
                    3D
 Structure written by MMmdl.
147155  0  0  1  0            999 V2000
  -30.3653  -15.3423   20.3932 C   0  0  0  0  0  0
  -30.4536  -12.8593   19.5371 C   0  0  0  0  0  0
  -29.5520  -12.6047   18.2971 C   0  0  0  0  0  0
  -28.0969  -12.3114   18.7079 C   0  0  0  0  0  0
  -27.6137  -13.2755   19.8160 C   0  0  2  0  0  0
  -28.6407  -13.4322   20.9514 C   0  0  0  0  0  0
  -25.2412  -13.8238   20.5720 C   0  0  0  0  0  0
  -24.1764  -13.0431   20.9238 C   0  0  0  0  0  0
  -24.6414  -11.6927   20.8732 C   0  0  0  0  0  0
  -23.9104  -10.4293   21.0391 C   0  0  0  0  0  0
  -24.3646   -9.4210   21.9173 C   0  0  0  0  0  0
  -23.6313   -8.2249   22.0749 C   0  0  0  0  0  0
  -22.4292   -8.0289   21.3545 C   0  0  0  0  0  0
  -21.9935   -9.0260   20.4644 C   0  0  0  0  0  0
  -22.7271  -10.2132   20.3048 C   0  0  0  0  0  0
  -21.6859   -6.0743   22.5277 C   0  0  0  0  0  0
  -21.4018   -6.5642   23.8211 C   0  0  0  0  0  0
  -21.3664   -5.6793   24.9173 C   0  0  0  0  0  0
  -21.6044   -4.3055   24.7222 C   0  0  0  0  0  0
  -21.8821   -3.8150   23.4342 C   0  0  0  0  0  0
  -21.9196   -4.6970   22.3400 C   0  0  0  0  0  0
  -22.7782  -13.5185   21.1902 C   0  0  0  0  0  0
  -22.1665   -4.2154   21.0977 F   0  0  0  0  0  0
  -21.5628   -3.4537   25.7733 F   0  0  0  0  0  0
  -29.8747  -13.9908   20.3608 N   0  0  0  0  0  0
  -26.2825  -12.9507   20.3132 N   0  0  0  0  0  0
  -25.9345  -11.6616   20.5645 N   0  0  0  0  0  0
  -22.0440  -12.8170   22.0457 N   0  0  0  0  0  0
  -25.4058  -15.1981   20.4208 N   0  0  0  0  0  0
  -31.5780  -15.3664   20.1178 O   0  0  0  0  0  0
  -21.6651   -6.8889   21.4241 O   0  0  0  0  0  0
  -22.3455  -14.5486   20.6745 O   0  0  0  0  0  0
  -24.6667  -31.8199   23.1667 C   0  0  0  0  0  0
  -25.9328  -32.4574   23.8149 C   0  0  1  0  0  0
  -27.2247  -26.8882   20.2008 C   0  0  0  0  0  0
  -25.5982  -33.8390   24.2056 N   0  0  0  0  0  0
  -23.4833  -30.4286   21.5176 C   0  0  2  0  0  0
  -24.9370  -28.8010   20.1223 C   0  0  0  0  0  0
  -22.7682  -29.4424   22.4783 C   0  0  0  0  0  0
  -18.0325  -28.1407   22.8467 C   0  0  0  0  0  0
  -24.1493  -36.7204   23.2650 C   0  0  0  0  0  0
  -26.0547  -30.6146   21.4009 C   0  0  0  0  0  0
  -26.1236  -29.1976   20.7518 C   0  0  0  0  0  0
  -27.2632  -28.2669   20.7565 C   0  0  0  0  0  0
  -26.0037  -26.6467   19.5316 C   0  0  0  0  0  0
  -24.9040  -27.5461   19.4916 C   0  0  0  0  0  0
  -23.7265  -29.7366   20.1476 C   0  0  0  0  0  0
  -25.4136  -36.2960   24.0296 C   0  0  1  0  0  0
  -20.5950  -28.3756   23.1183 C   0  0  2  0  0  0
  -20.6801  -26.9433   22.5404 C   0  0  0  0  0  0
  -19.5776  -26.6372   21.5215 C   0  0  0  0  0  0
  -18.1957  -26.7938   22.1619 C   0  0  0  0  0  0
  -19.1587  -28.8901   23.2812 C   0  0  0  0  0  0
  -18.9495  -30.1490   23.8847 C   0  0  0  0  0  0
  -17.6488  -30.6597   24.0550 C   0  0  0  0  0  0
  -25.9103  -34.9344   23.4999 C   0  0  0  0  0  0
  -16.5379  -29.9083   23.6341 C   0  0  0  0  0  0
  -16.7305  -28.6502   23.0364 C   0  0  0  0  0  0
  -26.4561  -31.6536   25.0695 C   0  0  0  0  0  0
  -25.3673  -31.3801   26.1340 C   0  0  0  0  0  0
  -27.0466  -30.2900   24.6456 C   0  0  0  0  0  0
  -27.6045  -32.4353   25.7504 C   0  0  0  0  0  0
  -27.5569  -37.1761   24.8464 C   0  0  0  0  0  0
  -21.4349  -29.3043   22.3530 N   0  0  0  0  0  0
  -26.4278  -37.3699   23.9404 N   0  0  0  0  0  0
  -24.7568  -30.9823   22.0822 N   0  0  0  0  0  0
  -23.4212  -28.8001   23.3044 O   0  0  0  0  0  0
  -28.2527  -25.7923   20.1986 O   0  0  0  0  0  0
  -26.5715  -34.8885   22.4596 O   0  0  0  0  0  0
  -23.5728  -32.1186   23.6735 O   0  0  0  0  0  0
  -30.5414  -20.5247   20.8399 C   0  0  0  0  0  0
  -29.2564  -20.9398   20.3216 C   0  0  0  0  0  0
  -28.9984  -16.8033   22.1426 C   0  0  0  0  0  0
  -28.8525  -22.6131   19.8412 C   0  0  0  0  0  0
  -28.1201  -24.1495   20.5050 C   0  0  0  0  0  0
  -29.4535  -16.8637   20.6675 C   0  0  1  0  0  0
  -30.7817  -19.2023   20.9176 N   0  0  0  0  0  0
  -28.7309  -19.6527   20.1054 N   0  0  0  0  0  0
  -29.6857  -18.5394   20.4311 N   0  0  0  0  0  0
  -31.4642  -13.0915   19.2002 H   0  0  0  0  0  0
  -30.5525  -11.9526   20.1362 H   0  0  0  0  0  0
  -29.9483  -11.7808   17.7027 H   0  0  0  0  0  0
  -29.5755  -13.4854   17.6536 H   0  0  0  0  0  0
  -28.0535  -11.2841   19.0714 H   0  0  0  0  0  0
  -27.4372  -12.3589   17.8405 H   0  0  0  0  0  0
  -27.5318  -14.2479   19.3290 H   0  0  0  0  0  0
  -28.8228  -12.4800   21.4523 H   0  0  0  0  0  0
  -28.2338  -14.0929   21.7119 H   0  0  0  0  0  0
  -25.2787   -9.5686   22.4750 H   0  0  0  0  0  0
  -24.0022   -7.4641   22.7469 H   0  0  0  0  0  0
  -21.0867   -8.8783   19.8949 H   0  0  0  0  0  0
  -22.3730  -10.9672   19.6158 H   0  0  0  0  0  0
  -21.2011   -7.6149   23.9718 H   0  0  0  0  0  0
  -21.1485   -6.0521   25.9078 H   0  0  0  0  0  0
  -22.0596   -2.7612   23.2839 H   0  0  0  0  0  0
  -22.4083  -11.9855   22.4870 H   0  0  0  0  0  0
  -21.1043  -13.1163   22.2638 H   0  0  0  0  0  0
  -24.6385  -15.8487   20.5501 H   0  0  0  0  0  0
  -26.2513  -15.6450   20.0918 H   0  0  0  0  0  0
  -26.7399  -32.5095   23.0864 H   0  0  0  0  0  0
  -25.0076  -33.9462   25.0170 H   0  0  0  0  0  0
  -22.7988  -31.2608   21.3412 H   0  0  0  0  0  0
  -23.3767  -35.9521   23.3281 H   0  0  0  0  0  0
  -24.3569  -36.8884   22.2070 H   0  0  0  0  0  0
  -23.7238  -37.6378   23.6730 H   0  0  0  0  0  0
  -26.2350  -31.3509   20.6165 H   0  0  0  0  0  0
  -26.9148  -30.6776   22.0558 H   0  0  0  0  0  0
  -28.1696  -28.5791   21.2562 H   0  0  0  0  0  0
  -25.8782  -25.6906   19.0429 H   0  0  0  0  0  0
  -24.0035  -27.2338   18.9810 H   0  0  0  0  0  0
  -23.8898  -30.5015   19.3874 H   0  0  0  0  0  0
  -22.8347  -29.1950   19.8275 H   0  0  0  0  0  0
  -25.1337  -36.1753   25.0788 H   0  0  0  0  0  0
  -21.0033  -28.3360   24.1308 H   0  0  0  0  0  0
  -20.5678  -26.2373   23.3647 H   0  0  0  0  0  0
  -21.6666  -26.7405   22.1212 H   0  0  0  0  0  0
  -19.6935  -25.6269   21.1282 H   0  0  0  0  0  0
  -19.6715  -27.3150   20.6719 H   0  0  0  0  0  0
  -17.4227  -26.6680   21.4022 H   0  0  0  0  0  0
  -18.0349  -26.0092   22.9027 H   0  0  0  0  0  0
  -19.7972  -30.7317   24.2199 H   0  0  0  0  0  0
  -17.5041  -31.6273   24.5160 H   0  0  0  0  0  0
  -15.5379  -30.2966   23.7697 H   0  0  0  0  0  0
  -15.8706  -28.0801   22.7112 H   0  0  0  0  0  0
  -24.5861  -30.7152   25.7639 H   0  0  0  0  0  0
  -24.8855  -32.3010   26.4635 H   0  0  0  0  0  0
  -25.7882  -30.9043   27.0206 H   0  0  0  0  0  0
  -26.3143  -29.6563   24.1445 H   0  0  0  0  0  0
  -27.3969  -29.7283   25.5127 H   0  0  0  0  0  0
  -27.9093  -30.4076   23.9895 H   0  0  0  0  0  0
  -27.2610  -33.3699   26.1947 H   0  0  0  0  0  0
  -28.3927  -32.6843   25.0387 H   0  0  0  0  0  0
  -28.0634  -31.8570   26.5532 H   0  0  0  0  0  0
  -28.2567  -38.0075   24.7510 H   0  0  0  0  0  0
  -28.1085  -36.2601   24.6294 H   0  0  0  0  0  0
  -27.2284  -37.1403   25.8866 H   0  0  0  0  0  0
  -20.9611  -29.8728   21.6647 H   0  0  0  0  0  0
  -26.0125  -38.2758   24.1411 H   0  0  0  0  0  0
  -31.3372  -21.2034   21.1180 H   0  0  0  0  0  0
  -27.9668  -17.1409   22.2423 H   0  0  0  0  0  0
  -29.6123  -17.4567   22.7627 H   0  0  0  0  0  0
  -29.0745  -15.8177   22.5937 H   0  0  0  0  0  0
  -28.3228  -22.4982   18.8960 H   0  0  0  0  0  0
  -29.8195  -22.9949   19.5141 H   0  0  0  0  0  0
  -27.0473  -23.9621   20.5432 H   0  0  0  0  0  0
  -28.4169  -24.1201   21.5533 H   0  0  0  0  0  0
  -28.5683  -16.6567   20.0675 H   0  0  0  0  0  0
  1 25  1  0  0  0
  1 30  2  0  0  0
  1 76  1  0  0  0
  2  3  1  0  0  0
  2 25  1  0  0  0
  2 80  1  0  0  0
  2 81  1  0  0  0
  3  4  1  0  0  0
  3 82  1  0  0  0
  3 83  1  0  0  0
  4  5  1  0  0  0
  4 84  1  0  0  0
  4 85  1  0  0  0
  5  6  1  0  0  0
  5 26  1  0  0  0
  5 86  1  0  0  0
  6 25  1  0  0  0
  6 87  1  0  0  0
  6 88  1  0  0  0
  7  8  2  0  0  0
  7 26  1  0  0  0
  7 29  1  0  0  0
  8  9  1  0  0  0
  8 22  1  0  0  0
  9 10  1  0  0  0
  9 27  2  0  0  0
 10 11  2  0  0  0
 10 15  1  0  0  0
 11 12  1  0  0  0
 11 89  1  0  0  0
 12 13  2  0  0  0
 12 90  1  0  0  0
 13 14  1  0  0  0
 13 31  1  0  0  0
 14 15  2  0  0  0
 14 91  1  0  0  0
 15 92  1  0  0  0
 16 17  2  0  0  0
 16 21  1  0  0  0
 16 31  1  0  0  0
 17 18  1  0  0  0
 17 93  1  0  0  0
 18 19  2  0  0  0
 18 94  1  0  0  0
 19 20  1  0  0  0
 19 24  1  0  0  0
 20 21  2  0  0  0
 20 95  1  0  0  0
 21 23  1  0  0  0
 22 28  1  0  0  0
 22 32  2  0  0  0
 26 27  1  0  0  0
 28 96  1  0  0  0
 28 97  1  0  0  0
 29 98  1  0  0  0
 29 99  1  0  0  0
 33 34  1  0  0  0
 33 66  1  0  0  0
 33 70  2  0  0  0
 34 36  1  0  0  0
 34 59  1  0  0  0
 34100  1  0  0  0
 35 44  2  0  0  0
 35 45  1  0  0  0
 35 68  1  0  0  0
 36 56  1  0  0  0
 36101  1  0  0  0
 37 39  1  0  0  0
 37 47  1  0  0  0
 37 66  1  0  0  0
 37102  1  0  0  0
 38 43  2  0  0  0
 38 46  1  0  0  0
 38 47  1  0  0  0
 39 64  1  0  0  0
 39 67  2  0  0  0
 40 52  1  0  0  0
 40 53  2  0  0  0
 40 58  1  0  0  0
 41103  1  0  0  0
 41104  1  0  0  0
 41105  1  0  0  0
 41 48  1  0  0  0
 42 43  1  0  0  0
 42 66  1  0  0  0
 42106  1  0  0  0
 42107  1  0  0  0
 43 44  1  0  0  0
 44108  1  0  0  0
 45 46  2  0  0  0
 45109  1  0  0  0
 46110  1  0  0  0
 47111  1  0  0  0
 47112  1  0  0  0
 48 56  1  0  0  0
 48 65  1  0  0  0
 48113  1  0  0  0
 49 50  1  0  0  0
 49 53  1  0  0  0
 49 64  1  0  0  0
 49114  1  0  0  0
 50 51  1  0  0  0
 50115  1  0  0  0
 50116  1  0  0  0
 51 52  1  0  0  0
 51117  1  0  0  0
 51118  1  0  0  0
 52119  1  0  0  0
 52120  1  0  0  0
 53 54  1  0  0  0
 54 55  2  0  0  0
 54121  1  0  0  0
 55 57  1  0  0  0
 55122  1  0  0  0
 56 69  2  0  0  0
 57 58  2  0  0  0
 57123  1  0  0  0
 58124  1  0  0  0
 59 60  1  0  0  0
 59 61  1  0  0  0
 59 62  1  0  0  0
 60125  1  0  0  0
 60126  1  0  0  0
 60127  1  0  0  0
 61128  1  0  0  0
 61129  1  0  0  0
 61130  1  0  0  0
 62131  1  0  0  0
 62132  1  0  0  0
 62133  1  0  0  0
 63 65  1  0  0  0
 63134  1  0  0  0
 63135  1  0  0  0
 63136  1  0  0  0
 64137  1  0  0  0
 65138  1  0  0  0
 68 75  1  0  0  0
 71 72  1  0  0  0
 71 77  2  0  0  0
 71139  1  0  0  0
 72 74  1  0  0  0
 72 78  2  0  0  0
 73140  1  0  0  0
 73141  1  0  0  0
 73142  1  0  0  0
 73 76  1  0  0  0
 74 75  1  0  0  0
 74143  1  0  0  0
 74144  1  0  0  0
 75145  1  0  0  0
 75146  1  0  0  0
 76 79  1  0  0  0
 76147  1  0  0  0
 77 79  1  0  0  0
 78 79  1  0  0  0
M  ISO  4   1 100  68 101  75 101  76 100
M  END
> <chiral flag>
0

> <version>
0

> <s_m_source_file>
/data/baiqing/PycharmProjects/Reinvent-master-3.2/result/LINK_invent/BTK/process_docking_weight1_custom_sum_contain_oxygen_bond_distance_aromatic_linkinvent_7_9_3/rearranged_h_0058.sdf

> <i_m_source_file_index>
3

> <r_mmod_Potential_Energy-OPLS-2005>
1576.20776367188

> <r_mmod_Stretch_Energy-OPLS-2005>
687.518371582031

> <r_mmod_Bend_Energy-OPLS-2005>
524.129821777344

> <r_mmod_Torsional_Energy-OPLS-2005>
223.155227661133

> <r_mmod_Improper_Torsional_Energy-OPLS-2005>
7.3016676902771

> <r_mmod_Van_der_Waal_Energy-OPLS-2005>
106.071632385254

> <r_mmod_Electrostatic_Energy-OPLS-2005>
-271.26318359375

> <r_mmod_Solvation_Energy-OPLS-2005>
-219.381896972656

> <b_mmod_Minimization_Converged-OPLS-2005>
0

> <r_mmod_RMS_Derivative-OPLS-2005>
0.706925928592682

$$$$
3
                    3D
 Structure written by MMmdl.
156164  0  0  1  0            999 V2000
  -30.6389  -14.6747   20.4265 C   0  0  0  0  0  0
  -30.4382  -12.4068   19.4541 C   0  0  0  0  0  0
  -29.5167  -12.5167   18.2216 C   0  0  0  0  0  0
  -28.0376  -12.3529   18.6311 C   0  0  0  0  0  0
  -27.6544  -13.2220   19.8606 C   0  0  2  0  0  0
  -28.7070  -13.1156   20.9890 C   0  0  0  0  0  0
  -25.2545  -13.8122   20.5643 C   0  0  0  0  0  0
  -24.1837  -13.0403   20.9176 C   0  0  0  0  0  0
  -24.6405  -11.6868   20.8701 C   0  0  0  0  0  0
  -23.9053  -10.4268   21.0381 C   0  0  0  0  0  0
  -24.3603   -9.4198   21.9187 C   0  0  0  0  0  0
  -23.6300   -8.2219   22.0765 C   0  0  0  0  0  0
  -22.4298   -8.0246   21.3546 C   0  0  0  0  0  0
  -21.9929   -9.0199   20.4640 C   0  0  0  0  0  0
  -22.7212  -10.2092   20.3043 C   0  0  0  0  0  0
  -21.6858   -6.0693   22.5269 C   0  0  0  0  0  0
  -21.3990   -6.5604   23.8182 C   0  0  0  0  0  0
  -21.3696   -5.6767   24.9157 C   0  0  0  0  0  0
  -21.6085   -4.3029   24.7216 C   0  0  0  0  0  0
  -21.8805   -3.8105   23.4337 C   0  0  0  0  0  0
  -21.9189   -4.6922   22.3390 C   0  0  0  0  0  0
  -22.7862  -13.5200   21.1901 C   0  0  0  0  0  0
  -22.1665   -4.2114   21.0964 F   0  0  0  0  0  0
  -21.5693   -3.4521   25.7734 F   0  0  0  0  0  0
  -30.0180  -13.4499   20.4090 N   0  0  0  0  0  0
  -26.3013  -12.9334   20.3296 N   0  0  0  0  0  0
  -25.9353  -11.6478   20.5725 N   0  0  0  0  0  0
  -22.0525  -12.8157   22.0432 N   0  0  0  0  0  0
  -25.4167  -15.1857   20.4009 N   0  0  0  0  0  0
  -31.8175  -14.7999   20.0924 O   0  0  0  0  0  0
  -21.6668   -6.8842   21.4227 O   0  0  0  0  0  0
  -22.3540  -14.5542   20.6790 O   0  0  0  0  0  0
  -24.6259  -31.8645   23.2044 C   0  0  0  0  0  0
  -25.9123  -32.4795   23.8371 C   0  0  1  0  0  0
  -27.2293  -27.3222   20.1293 C   0  0  0  0  0  0
  -25.5977  -33.8599   24.2294 N   0  0  0  0  0  0
  -23.4179  -30.4884   21.5489 C   0  0  2  0  0  0
  -24.8632  -28.9337   20.1187 C   0  0  0  0  0  0
  -22.7423  -29.4702   22.4965 C   0  0  0  0  0  0
  -18.0292  -28.1400   22.8493 C   0  0  0  0  0  0
  -24.1488  -36.7273   23.2646 C   0  0  0  0  0  0
  -25.9597  -30.7846   21.3846 C   0  0  0  0  0  0
  -26.0306  -29.4145   20.7245 C   0  0  0  0  0  0
  -27.2146  -28.6216   20.7191 C   0  0  0  0  0  0
  -26.0413  -26.8862   19.5022 C   0  0  0  0  0  0
  -24.8687  -27.6690   19.5053 C   0  0  0  0  0  0
  -23.6309  -29.8163   20.1666 C   0  0  0  0  0  0
  -25.4132  -36.3102   24.0331 C   0  0  1  0  0  0
  -20.5889  -28.3718   23.1266 C   0  0  2  0  0  0
  -20.6801  -26.9450   22.5393 C   0  0  0  0  0  0
  -19.5785  -26.6394   21.5202 C   0  0  0  0  0  0
  -18.1954  -26.7950   22.1612 C   0  0  0  0  0  0
  -19.1551  -28.8865   23.2887 C   0  0  0  0  0  0
  -18.9474  -30.1474   23.8890 C   0  0  0  0  0  0
  -17.6488  -30.6601   24.0586 C   0  0  0  0  0  0
  -25.9083  -34.9463   23.5104 C   0  0  0  0  0  0
  -16.5366  -29.9096   23.6372 C   0  0  0  0  0  0
  -16.7290  -28.6520   23.0362 C   0  0  0  0  0  0
  -26.4520  -31.6626   25.0762 C   0  0  0  0  0  0
  -25.3755  -31.3764   26.1493 C   0  0  0  0  0  0
  -27.0408  -30.3045   24.6272 C   0  0  0  0  0  0
  -27.6062  -32.4389   25.7531 C   0  0  0  0  0  0
  -27.5594  -37.1806   24.8474 C   0  0  0  0  0  0
  -21.4146  -29.3072   22.3633 N   0  0  0  0  0  0
  -26.4319  -37.3797   23.9410 N   0  0  0  0  0  0
  -24.6854  -31.0624   22.1017 N   0  0  0  0  0  0
  -23.4112  -28.8267   23.3088 O   0  0  0  0  0  0
  -28.3729  -26.5108   20.1246 O   0  0  0  0  0  0
  -26.5609  -34.8918   22.4656 O   0  0  0  0  0  0
  -23.5428  -32.1459   23.7377 O   0  0  0  0  0  0
  -30.7305  -22.1331   20.6229 C   0  0  0  0  0  0
  -29.4970  -22.5974   20.1085 C   0  0  0  0  0  0
  -30.0314  -19.9116   20.4660 C   0  0  0  0  0  0
  -29.3666  -18.2504   22.2576 C   0  0  0  0  0  0
  -31.7168  -18.2101   21.4220 C   0  0  0  0  0  0
  -29.3077  -24.1196   19.7318 C   0  0  0  0  0  0
  -29.9571  -17.1864   19.9950 C   0  0  0  0  0  0
  -28.2615  -25.0665   20.4567 C   0  0  0  0  0  0
  -30.2338  -18.4076   20.9947 C   0  0  0  0  0  0
  -30.9765  -20.8080   20.8066 N   0  0  0  0  0  0
  -28.5739  -21.6453   19.7695 N   0  0  0  0  0  0
  -28.8304  -20.3171   19.9715 N   0  0  0  0  0  0
  -29.8252  -15.7715   20.5562 N   0  0  0  0  0  0
  -31.4864  -12.5114   19.1623 H   0  0  0  0  0  0
  -30.3518  -11.4178   19.9075 H   0  0  0  0  0  0
  -29.7906  -11.7678   17.4788 H   0  0  0  0  0  0
  -29.6629  -13.4865   17.7380 H   0  0  0  0  0  0
  -27.8691  -11.2970   18.8472 H   0  0  0  0  0  0
  -27.3862  -12.5984   17.7912 H   0  0  0  0  0  0
  -27.6599  -14.2534   19.5131 H   0  0  0  0  0  0
  -28.7166  -12.1104   21.4100 H   0  0  0  0  0  0
  -28.4649  -13.7831   21.8165 H   0  0  0  0  0  0
  -25.2727   -9.5707   22.4762 H   0  0  0  0  0  0
  -24.0020   -7.4620   22.7497 H   0  0  0  0  0  0
  -21.0870   -8.8657   19.8944 H   0  0  0  0  0  0
  -22.3645  -10.9600   19.6140 H   0  0  0  0  0  0
  -21.1932   -7.6109   23.9651 H   0  0  0  0  0  0
  -21.1589   -6.0528   25.9070 H   0  0  0  0  0  0
  -22.0582   -2.7581   23.2838 H   0  0  0  0  0  0
  -22.4216  -11.9843   22.4805 H   0  0  0  0  0  0
  -21.1161  -13.1152   22.2708 H   0  0  0  0  0  0
  -24.6332  -15.8243   20.4949 H   0  0  0  0  0  0
  -26.2504  -15.6337   20.0450 H   0  0  0  0  0  0
  -26.7167  -32.5466   23.1107 H   0  0  0  0  0  0
  -25.0243  -33.9751   25.0501 H   0  0  0  0  0  0
  -22.7183  -31.3141   21.4037 H   0  0  0  0  0  0
  -23.3794  -35.9569   23.3321 H   0  0  0  0  0  0
  -24.3567  -36.8874   22.2058 H   0  0  0  0  0  0
  -23.7178  -37.6452   23.6647 H   0  0  0  0  0  0
  -26.1089  -31.5476   20.6199 H   0  0  0  0  0  0
  -26.8329  -30.8173   22.0229 H   0  0  0  0  0  0
  -28.1126  -28.9935   21.1907 H   0  0  0  0  0  0
  -26.0166  -25.9311   18.9954 H   0  0  0  0  0  0
  -23.9753  -27.2907   19.0270 H   0  0  0  0  0  0
  -23.7542  -30.5919   19.4105 H   0  0  0  0  0  0
  -22.7465  -29.2479   19.8666 H   0  0  0  0  0  0
  -25.1303  -36.1975   25.0821 H   0  0  0  0  0  0
  -21.0013  -28.3332   24.1382 H   0  0  0  0  0  0
  -20.5740  -26.2331   23.3604 H   0  0  0  0  0  0
  -21.6670  -26.7518   22.1180 H   0  0  0  0  0  0
  -19.6967  -25.6288   21.1269 H   0  0  0  0  0  0
  -19.6733  -27.3176   20.6710 H   0  0  0  0  0  0
  -17.4235  -26.6717   21.4000 H   0  0  0  0  0  0
  -18.0369  -26.0055   22.8967 H   0  0  0  0  0  0
  -19.7944  -30.7308   24.2231 H   0  0  0  0  0  0
  -17.5038  -31.6294   24.5184 H   0  0  0  0  0  0
  -15.5376  -30.3014   23.7696 H   0  0  0  0  0  0
  -15.8679  -28.0857   22.7075 H   0  0  0  0  0  0
  -24.5853  -30.7217   25.7796 H   0  0  0  0  0  0
  -24.9061  -32.2953   26.5034 H   0  0  0  0  0  0
  -25.8078  -30.8827   27.0209 H   0  0  0  0  0  0
  -26.3016  -29.6767   24.1279 H   0  0  0  0  0  0
  -27.4064  -29.7342   25.4831 H   0  0  0  0  0  0
  -27.8898  -30.4337   23.9545 H   0  0  0  0  0  0
  -27.2633  -33.3649   26.2170 H   0  0  0  0  0  0
  -28.3845  -32.7047   25.0355 H   0  0  0  0  0  0
  -28.0785  -31.8513   26.5421 H   0  0  0  0  0  0
  -28.2636  -38.0086   24.7553 H   0  0  0  0  0  0
  -28.1060  -36.2620   24.6271 H   0  0  0  0  0  0
  -27.2307  -37.1424   25.8877 H   0  0  0  0  0  0
  -20.9314  -29.8666   21.6736 H   0  0  0  0  0  0
  -26.0207  -38.2884   24.1392 H   0  0  0  0  0  0
  -31.5306  -22.8193   20.8617 H   0  0  0  0  0  0
  -29.5904  -19.0380   22.9796 H   0  0  0  0  0  0
  -29.5407  -17.2981   22.7551 H   0  0  0  0  0  0
  -28.3043  -18.3074   22.0168 H   0  0  0  0  0  0
  -32.0039  -18.8886   22.2239 H   0  0  0  0  0  0
  -32.3964  -18.3980   20.5881 H   0  0  0  0  0  0
  -31.9125  -17.2015   21.7859 H   0  0  0  0  0  0
  -29.1315  -24.1768   18.6588 H   0  0  0  0  0  0
  -30.2837  -24.5813   19.8769 H   0  0  0  0  0  0
  -30.6943  -17.1984   19.1912 H   0  0  0  0  0  0
  -29.0110  -17.3839   19.4904 H   0  0  0  0  0  0
  -28.4095  -24.9870   21.5359 H   0  0  0  0  0  0
  -27.2615  -24.6760   20.2777 H   0  0  0  0  0  0
  -28.8911  -15.5326   20.8516 H   0  0  0  0  0  0
  1 25  1  0  0  0
  1 30  2  0  0  0
  1 83  1  0  0  0
  2  3  1  0  0  0
  2 25  1  0  0  0
  2 84  1  0  0  0
  2 85  1  0  0  0
  3  4  1  0  0  0
  3 86  1  0  0  0
  3 87  1  0  0  0
  4  5  1  0  0  0
  4 88  1  0  0  0
  4 89  1  0  0  0
  5  6  1  0  0  0
  5 26  1  0  0  0
  5 90  1  0  0  0
  6 25  1  0  0  0
  6 91  1  0  0  0
  6 92  1  0  0  0
  7  8  2  0  0  0
  7 26  1  0  0  0
  7 29  1  0  0  0
  8  9  1  0  0  0
  8 22  1  0  0  0
  9 10  1  0  0  0
  9 27  2  0  0  0
 10 11  2  0  0  0
 10 15  1  0  0  0
 11 12  1  0  0  0
 11 93  1  0  0  0
 12 13  2  0  0  0
 12 94  1  0  0  0
 13 14  1  0  0  0
 13 31  1  0  0  0
 14 15  2  0  0  0
 14 95  1  0  0  0
 15 96  1  0  0  0
 16 17  2  0  0  0
 16 21  1  0  0  0
 16 31  1  0  0  0
 17 18  1  0  0  0
 17 97  1  0  0  0
 18 19  2  0  0  0
 18 98  1  0  0  0
 19 20  1  0  0  0
 19 24  1  0  0  0
 20 21  2  0  0  0
 20 99  1  0  0  0
 21 23  1  0  0  0
 22 28  1  0  0  0
 22 32  2  0  0  0
 26 27  1  0  0  0
 28100  1  0  0  0
 28101  1  0  0  0
 29102  1  0  0  0
 29103  1  0  0  0
 33 34  1  0  0  0
 33 66  1  0  0  0
 33 70  2  0  0  0
 34 36  1  0  0  0
 34 59  1  0  0  0
 34104  1  0  0  0
 35 44  2  0  0  0
 35 45  1  0  0  0
 35 68  1  0  0  0
 36 56  1  0  0  0
 36105  1  0  0  0
 37 39  1  0  0  0
 37 47  1  0  0  0
 37 66  1  0  0  0
 37106  1  0  0  0
 38 43  2  0  0  0
 38 46  1  0  0  0
 38 47  1  0  0  0
 39 64  1  0  0  0
 39 67  2  0  0  0
 40 52  1  0  0  0
 40 53  2  0  0  0
 40 58  1  0  0  0
 41107  1  0  0  0
 41108  1  0  0  0
 41109  1  0  0  0
 41 48  1  0  0  0
 42 43  1  0  0  0
 42 66  1  0  0  0
 42110  1  0  0  0
 42111  1  0  0  0
 43 44  1  0  0  0
 44112  1  0  0  0
 45 46  2  0  0  0
 45113  1  0  0  0
 46114  1  0  0  0
 47115  1  0  0  0
 47116  1  0  0  0
 48 56  1  0  0  0
 48 65  1  0  0  0
 48117  1  0  0  0
 49 50  1  0  0  0
 49 53  1  0  0  0
 49 64  1  0  0  0
 49118  1  0  0  0
 50 51  1  0  0  0
 50119  1  0  0  0
 50120  1  0  0  0
 51 52  1  0  0  0
 51121  1  0  0  0
 51122  1  0  0  0
 52123  1  0  0  0
 52124  1  0  0  0
 53 54  1  0  0  0
 54 55  2  0  0  0
 54125  1  0  0  0
 55 57  1  0  0  0
 55126  1  0  0  0
 56 69  2  0  0  0
 57 58  2  0  0  0
 57127  1  0  0  0
 58128  1  0  0  0
 59 60  1  0  0  0
 59 61  1  0  0  0
 59 62  1  0  0  0
 60129  1  0  0  0
 60130  1  0  0  0
 60131  1  0  0  0
 61132  1  0  0  0
 61133  1  0  0  0
 61134  1  0  0  0
 62135  1  0  0  0
 62136  1  0  0  0
 62137  1  0  0  0
 63 65  1  0  0  0
 63138  1  0  0  0
 63139  1  0  0  0
 63140  1  0  0  0
 64141  1  0  0  0
 65142  1  0  0  0
 68 78  1  0  0  0
 71 72  2  0  0  0
 71 80  1  0  0  0
 71143  1  0  0  0
 72 76  1  0  0  0
 72 81  1  0  0  0
 73 79  1  0  0  0
 73 80  2  0  0  0
 73 82  1  0  0  0
 74144  1  0  0  0
 74145  1  0  0  0
 74146  1  0  0  0
 74 79  1  0  0  0
 75 79  1  0  0  0
 75147  1  0  0  0
 75148  1  0  0  0
 75149  1  0  0  0
 76 78  1  0  0  0
 76150  1  0  0  0
 76151  1  0  0  0
 77 79  1  0  0  0
 77 83  1  0  0  0
 77152  1  0  0  0
 77153  1  0  0  0
 78154  1  0  0  0
 78155  1  0  0  0
 81 82  2  0  0  0
 83156  1  0  0  0
M  ISO  4   1 100  68 101  78 101  83 100
M  END
> <chiral flag>
0

> <version>
0

> <s_m_source_file>
/data/baiqing/PycharmProjects/Reinvent-master-3.2/result/LINK_invent/BTK/process_docking_weight1_custom_sum_contain_oxygen_bond_distance_aromatic_linkinvent_7_9_3/rearranged_h_0058.sdf

> <i_m_source_file_index>
4

> <r_mmod_Potential_Energy-OPLS-2005>
42.4122886657715

> <r_mmod_Stretch_Energy-OPLS-2005>
97.6952514648438

> <r_mmod_Bend_Energy-OPLS-2005>
159.894622802734

> <r_mmod_Torsional_Energy-OPLS-2005>
217.308410644531

> <r_mmod_Improper_Torsional_Energy-OPLS-2005>
10.8258743286133

> <r_mmod_Van_der_Waal_Energy-OPLS-2005>
150.882904052734

> <r_mmod_Electrostatic_Energy-OPLS-2005>
-417.855438232422

> <r_mmod_Solvation_Energy-OPLS-2005>
-229.576568603516

> <b_mmod_Minimization_Converged-OPLS-2005>
0

> <r_mmod_RMS_Derivative-OPLS-2005>
4.61142206192017

$$$$
4
                    3D
 Structure written by MMmdl.
154162  0  0  1  0            999 V2000
  -30.6971  -14.6051   20.4923 C   0  0  0  0  0  0
  -30.4168  -12.3689   19.4631 C   0  0  0  0  0  0
  -29.5064  -12.4916   18.2252 C   0  0  0  0  0  0
  -28.0254  -12.3539   18.6287 C   0  0  0  0  0  0
  -27.6496  -13.2297   19.8556 C   0  0  2  0  0  0
  -28.6936  -13.1185   20.9889 C   0  0  0  0  0  0
  -25.2535  -13.8204   20.5659 C   0  0  0  0  0  0
  -24.1821  -13.0450   20.9176 C   0  0  0  0  0  0
  -24.6418  -11.6925   20.8727 C   0  0  0  0  0  0
  -23.9097  -10.4300   21.0405 C   0  0  0  0  0  0
  -24.3640   -9.4211   21.9195 C   0  0  0  0  0  0
  -23.6303   -8.2255   22.0772 C   0  0  0  0  0  0
  -22.4278   -8.0299   21.3567 C   0  0  0  0  0  0
  -21.9925   -9.0268   20.4657 C   0  0  0  0  0  0
  -22.7261  -10.2139   20.3065 C   0  0  0  0  0  0
  -21.6857   -6.0753   22.5284 C   0  0  0  0  0  0
  -21.4009   -6.5654   23.8219 C   0  0  0  0  0  0
  -21.3657   -5.6799   24.9178 C   0  0  0  0  0  0
  -21.6050   -4.3067   24.7225 C   0  0  0  0  0  0
  -21.8823   -3.8160   23.4347 C   0  0  0  0  0  0
  -21.9187   -4.6978   22.3397 C   0  0  0  0  0  0
  -22.7826  -13.5223   21.1821 C   0  0  0  0  0  0
  -22.1656   -4.2159   21.0979 F   0  0  0  0  0  0
  -21.5622   -3.4549   25.7745 F   0  0  0  0  0  0
  -30.0080  -13.4246   20.4105 N   0  0  0  0  0  0
  -26.2975  -12.9420   20.3285 N   0  0  0  0  0  0
  -25.9355  -11.6560   20.5755 N   0  0  0  0  0  0
  -22.0474  -12.8216   22.0372 N   0  0  0  0  0  0
  -25.4232  -15.1935   20.4081 N   0  0  0  0  0  0
  -31.8728  -14.6718   20.1330 O   0  0  0  0  0  0
  -21.6638   -6.8899   21.4256 O   0  0  0  0  0  0
  -22.3502  -14.5523   20.6666 O   0  0  0  0  0  0
  -24.6236  -31.8645   23.2050 C   0  0  0  0  0  0
  -25.9089  -32.4782   23.8372 C   0  0  1  0  0  0
  -27.2223  -27.3320   20.0884 C   0  0  0  0  0  0
  -25.5908  -33.8589   24.2278 N   0  0  0  0  0  0
  -23.4169  -30.4937   21.5443 C   0  0  2  0  0  0
  -24.8633  -28.9579   20.1040 C   0  0  0  0  0  0
  -22.7458  -29.4677   22.4874 C   0  0  0  0  0  0
  -18.0303  -28.1396   22.8469 C   0  0  0  0  0  0
  -24.1497  -36.7298   23.2645 C   0  0  0  0  0  0
  -25.9645  -30.7856   21.3905 C   0  0  0  0  0  0
  -26.0316  -29.4202   20.7230 C   0  0  0  0  0  0
  -27.2075  -28.6134   20.7194 C   0  0  0  0  0  0
  -26.0325  -26.9424   19.4225 C   0  0  0  0  0  0
  -24.8645  -27.7198   19.4510 C   0  0  0  0  0  0
  -23.6337  -29.8391   20.1573 C   0  0  0  0  0  0
  -25.4111  -36.3077   24.0334 C   0  0  1  0  0  0
  -20.5900  -28.3700   23.1250 C   0  0  2  0  0  0
  -20.6787  -26.9413   22.5400 C   0  0  0  0  0  0
  -19.5760  -26.6383   21.5207 C   0  0  0  0  0  0
  -18.1937  -26.7937   22.1611 C   0  0  0  0  0  0
  -19.1558  -28.8853   23.2863 C   0  0  0  0  0  0
  -18.9487  -30.1446   23.8887 C   0  0  0  0  0  0
  -17.6495  -30.6584   24.0566 C   0  0  0  0  0  0
  -25.9063  -34.9454   23.5107 C   0  0  0  0  0  0
  -16.5378  -29.9090   23.6329 C   0  0  0  0  0  0
  -16.7294  -28.6521   23.0327 C   0  0  0  0  0  0
  -26.4465  -31.6597   25.0749 C   0  0  0  0  0  0
  -25.3690  -31.3787   26.1481 C   0  0  0  0  0  0
  -27.0311  -30.2991   24.6266 C   0  0  0  0  0  0
  -27.6012  -32.4350   25.7509 C   0  0  0  0  0  0
  -27.5581  -37.1788   24.8458 C   0  0  0  0  0  0
  -21.4175  -29.3066   22.3622 N   0  0  0  0  0  0
  -26.4287  -37.3765   23.9417 N   0  0  0  0  0  0
  -24.6858  -31.0653   22.1013 N   0  0  0  0  0  0
  -23.4183  -28.8197   23.2934 O   0  0  0  0  0  0
  -28.3335  -26.4710   20.1389 O   0  0  0  0  0  0
  -26.5648  -34.8917   22.4679 O   0  0  0  0  0  0
  -23.5401  -32.1466   23.7358 O   0  0  0  0  0  0
  -29.9631  -20.3652   19.2062 C   0  0  0  0  0  0
  -29.0974  -21.0714   20.0831 C   0  0  0  0  0  0
  -29.9393  -18.4453   20.5628 C   0  0  0  0  0  0
  -29.0427  -19.1341   21.4378 C   0  0  0  0  0  0
  -28.4738  -22.4535   19.6857 C   0  0  0  0  0  0
  -30.6706  -17.0995   20.9211 C   0  0  0  0  0  0
  -29.0345  -23.8516   20.1924 C   0  0  0  0  0  0
  -28.1227  -25.0650   19.7261 C   0  0  0  0  0  0
  -28.5322  -18.4584   22.7162 C   0  0  0  0  0  0
  -30.3799  -19.0844   19.4410 N   0  0  0  0  0  0
  -28.6352  -20.4315   21.1968 N   0  0  0  0  0  0
  -30.0202  -15.7501   20.8090 N   0  0  0  0  0  0
  -28.0308  -17.2546   22.4229 F   0  0  0  0  0  0
  -29.5340  -18.3019   23.5841 F   0  0  0  0  0  0
  -27.5760  -19.1789   23.3058 F   0  0  0  0  0  0
  -31.4643  -12.4475   19.1713 H   0  0  0  0  0  0
  -30.3134  -11.3834   19.9202 H   0  0  0  0  0  0
  -29.7653  -11.7315   17.4865 H   0  0  0  0  0  0
  -29.6709  -13.4536   17.7390 H   0  0  0  0  0  0
  -27.8397  -11.3010   18.8473 H   0  0  0  0  0  0
  -27.3853  -12.6029   17.7830 H   0  0  0  0  0  0
  -27.6605  -14.2615   19.5046 H   0  0  0  0  0  0
  -28.6946  -12.1120   21.4089 H   0  0  0  0  0  0
  -28.4515  -13.7913   21.8127 H   0  0  0  0  0  0
  -25.2797   -9.5666   22.4751 H   0  0  0  0  0  0
  -24.0012   -7.4642   22.7483 H   0  0  0  0  0  0
  -21.0869   -8.8790   19.8938 H   0  0  0  0  0  0
  -22.3752  -10.9681   19.6156 H   0  0  0  0  0  0
  -21.2009   -7.6160   23.9729 H   0  0  0  0  0  0
  -21.1465   -6.0527   25.9080 H   0  0  0  0  0  0
  -22.0601   -2.7621   23.2844 H   0  0  0  0  0  0
  -22.4103  -11.9900   22.4783 H   0  0  0  0  0  0
  -21.1080  -13.1234   22.2572 H   0  0  0  0  0  0
  -24.6560  -15.8463   20.5214 H   0  0  0  0  0  0
  -26.2720  -15.6320   20.0746 H   0  0  0  0  0  0
  -26.7143  -32.5429   23.1111 H   0  0  0  0  0  0
  -24.9996  -33.9743   25.0377 H   0  0  0  0  0  0
  -22.7124  -31.3167   21.4024 H   0  0  0  0  0  0
  -23.3751  -35.9641   23.3305 H   0  0  0  0  0  0
  -24.3602  -36.8925   22.2064 H   0  0  0  0  0  0
  -23.7262  -37.6504   23.6673 H   0  0  0  0  0  0
  -26.1238  -31.5556   20.6347 H   0  0  0  0  0  0
  -26.8338  -30.8131   22.0357 H   0  0  0  0  0  0
  -28.0949  -28.9583   21.2305 H   0  0  0  0  0  0
  -25.9700  -26.0249   18.8601 H   0  0  0  0  0  0
  -23.9751  -27.3658   18.9489 H   0  0  0  0  0  0
  -23.7579  -30.6237   19.4101 H   0  0  0  0  0  0
  -22.7531  -29.2762   19.8439 H   0  0  0  0  0  0
  -25.1282  -36.1942   25.0826 H   0  0  0  0  0  0
  -21.0023  -28.3313   24.1354 H   0  0  0  0  0  0
  -20.5700  -26.2313   23.3608 H   0  0  0  0  0  0
  -21.6643  -26.7438   22.1174 H   0  0  0  0  0  0
  -19.6929  -25.6306   21.1204 H   0  0  0  0  0  0
  -19.6692  -27.3207   20.6757 H   0  0  0  0  0  0
  -17.4202  -26.6677   21.4024 H   0  0  0  0  0  0
  -18.0332  -26.0102   22.9028 H   0  0  0  0  0  0
  -19.7986  -30.7252   24.2227 H   0  0  0  0  0  0
  -17.5071  -31.6256   24.5178 H   0  0  0  0  0  0
  -15.5379  -30.2991   23.7657 H   0  0  0  0  0  0
  -15.8701  -28.0845   22.7010 H   0  0  0  0  0  0
  -24.5876  -30.7104   25.7848 H   0  0  0  0  0  0
  -24.8874  -32.2983   26.4819 H   0  0  0  0  0  0
  -25.8010  -30.9048   27.0306 H   0  0  0  0  0  0
  -26.2921  -29.6742   24.1248 H   0  0  0  0  0  0
  -27.3935  -29.7244   25.4807 H   0  0  0  0  0  0
  -27.8820  -30.4216   23.9564 H   0  0  0  0  0  0
  -27.2597  -33.3657   26.2047 H   0  0  0  0  0  0
  -28.3827  -32.6910   25.0345 H   0  0  0  0  0  0
  -28.0680  -31.8522   26.5468 H   0  0  0  0  0  0
  -28.2556  -38.0121   24.7519 H   0  0  0  0  0  0
  -28.1107  -36.2642   24.6243 H   0  0  0  0  0  0
  -27.2317  -37.1407   25.8867 H   0  0  0  0  0  0
  -20.9326  -29.8853   21.6891 H   0  0  0  0  0  0
  -26.0173  -38.2838   24.1431 H   0  0  0  0  0  0
  -30.2990  -20.8218   18.2876 H   0  0  0  0  0  0
  -27.4251  -22.3977   19.9760 H   0  0  0  0  0  0
  -28.4571  -22.4871   18.5955 H   0  0  0  0  0  0
  -31.0421  -17.1802   21.9422 H   0  0  0  0  0  0
  -31.5814  -17.0975   20.3186 H   0  0  0  0  0  0
  -30.0544  -23.9907   19.8296 H   0  0  0  0  0  0
  -29.0878  -23.8358   21.2787 H   0  0  0  0  0  0
  -27.1329  -24.7623   20.0641 H   0  0  0  0  0  0
  -28.1055  -25.0618   18.6358 H   0  0  0  0  0  0
  -29.0511  -15.6735   21.0752 H   0  0  0  0  0  0
  1 25  1  0  0  0
  1 30  2  0  0  0
  1 82  1  0  0  0
  2  3  1  0  0  0
  2 25  1  0  0  0
  2 86  1  0  0  0
  2 87  1  0  0  0
  3  4  1  0  0  0
  3 88  1  0  0  0
  3 89  1  0  0  0
  4  5  1  0  0  0
  4 90  1  0  0  0
  4 91  1  0  0  0
  5  6  1  0  0  0
  5 26  1  0  0  0
  5 92  1  0  0  0
  6 25  1  0  0  0
  6 93  1  0  0  0
  6 94  1  0  0  0
  7  8  2  0  0  0
  7 26  1  0  0  0
  7 29  1  0  0  0
  8  9  1  0  0  0
  8 22  1  0  0  0
  9 10  1  0  0  0
  9 27  2  0  0  0
 10 11  2  0  0  0
 10 15  1  0  0  0
 11 12  1  0  0  0
 11 95  1  0  0  0
 12 13  2  0  0  0
 12 96  1  0  0  0
 13 14  1  0  0  0
 13 31  1  0  0  0
 14 15  2  0  0  0
 14 97  1  0  0  0
 15 98  1  0  0  0
 16 17  2  0  0  0
 16 21  1  0  0  0
 16 31  1  0  0  0
 17 18  1  0  0  0
 17 99  1  0  0  0
 18 19  2  0  0  0
 18100  1  0  0  0
 19 20  1  0  0  0
 19 24  1  0  0  0
 20 21  2  0  0  0
 20101  1  0  0  0
 21 23  1  0  0  0
 22 28  1  0  0  0
 22 32  2  0  0  0
 26 27  1  0  0  0
 28102  1  0  0  0
 28103  1  0  0  0
 29104  1  0  0  0
 29105  1  0  0  0
 33 34  1  0  0  0
 33 66  1  0  0  0
 33 70  2  0  0  0
 34 36  1  0  0  0
 34 59  1  0  0  0
 34106  1  0  0  0
 35 44  2  0  0  0
 35 45  1  0  0  0
 35 68  1  0  0  0
 36 56  1  0  0  0
 36107  1  0  0  0
 37 39  1  0  0  0
 37 47  1  0  0  0
 37 66  1  0  0  0
 37108  1  0  0  0
 38 43  2  0  0  0
 38 46  1  0  0  0
 38 47  1  0  0  0
 39 64  1  0  0  0
 39 67  2  0  0  0
 40 52  1  0  0  0
 40 53  2  0  0  0
 40 58  1  0  0  0
 41109  1  0  0  0
 41110  1  0  0  0
 41111  1  0  0  0
 41 48  1  0  0  0
 42 43  1  0  0  0
 42 66  1  0  0  0
 42112  1  0  0  0
 42113  1  0  0  0
 43 44  1  0  0  0
 44114  1  0  0  0
 45 46  2  0  0  0
 45115  1  0  0  0
 46116  1  0  0  0
 47117  1  0  0  0
 47118  1  0  0  0
 48 56  1  0  0  0
 48 65  1  0  0  0
 48119  1  0  0  0
 49 50  1  0  0  0
 49 53  1  0  0  0
 49 64  1  0  0  0
 49120  1  0  0  0
 50 51  1  0  0  0
 50121  1  0  0  0
 50122  1  0  0  0
 51 52  1  0  0  0
 51123  1  0  0  0
 51124  1  0  0  0
 52125  1  0  0  0
 52126  1  0  0  0
 53 54  1  0  0  0
 54 55  2  0  0  0
 54127  1  0  0  0
 55 57  1  0  0  0
 55128  1  0  0  0
 56 69  2  0  0  0
 57 58  2  0  0  0
 57129  1  0  0  0
 58130  1  0  0  0
 59 60  1  0  0  0
 59 61  1  0  0  0
 59 62  1  0  0  0
 60131  1  0  0  0
 60132  1  0  0  0
 60133  1  0  0  0
 61134  1  0  0  0
 61135  1  0  0  0
 61136  1  0  0  0
 62137  1  0  0  0
 62138  1  0  0  0
 62139  1  0  0  0
 63 65  1  0  0  0
 63140  1  0  0  0
 63141  1  0  0  0
 63142  1  0  0  0
 64143  1  0  0  0
 65144  1  0  0  0
 68 78  1  0  0  0
 71 72  2  0  0  0
 71 80  1  0  0  0
 71145  1  0  0  0
 72 75  1  0  0  0
 72 81  1  0  0  0
 73 74  1  0  0  0
 73 76  1  0  0  0
 73 80  2  0  0  0
 74 79  1  0  0  0
 74 81  2  0  0  0
 75 77  1  0  0  0
 75146  1  0  0  0
 75147  1  0  0  0
 76 82  1  0  0  0
 76148  1  0  0  0
 76149  1  0  0  0
 77 78  1  0  0  0
 77150  1  0  0  0
 77151  1  0  0  0
 78152  1  0  0  0
 78153  1  0  0  0
 79 83  1  0  0  0
 79 84  1  0  0  0
 79 85  1  0  0  0
 82154  1  0  0  0
M  ISO  4   1 100  68 101  78 101  82 100
M  END
> <chiral flag>
0

> <version>
0

> <s_m_source_file>
/data/baiqing/PycharmProjects/Reinvent-master-3.2/result/LINK_invent/BTK/process_docking_weight1_custom_sum_contain_oxygen_bond_distance_aromatic_linkinvent_7_9_3/rearranged_h_0058.sdf

> <i_m_source_file_index>
5

> <r_mmod_Potential_Energy-OPLS-2005>
126.266868591309

> <r_mmod_Stretch_Energy-OPLS-2005>
78.3306732177734

> <r_mmod_Bend_Energy-OPLS-2005>
147.899429321289

> <r_mmod_Torsional_Energy-OPLS-2005>
200.807479858398

> <r_mmod_Improper_Torsional_Energy-OPLS-2005>
6.01881456375122

> <r_mmod_Van_der_Waal_Energy-OPLS-2005>
159.691268920898

> <r_mmod_Electrostatic_Energy-OPLS-2005>
-297.645477294922

> <r_mmod_Solvation_Energy-OPLS-2005>
-215.366104125977

> <b_mmod_Minimization_Converged-OPLS-2005>
0

> <r_mmod_RMS_Derivative-OPLS-2005>
3.22890043258667

$$$$
5
                    3D
 Structure written by MMmdl.
160168  0  0  1  0            999 V2000
  -30.5813  -14.9044   20.4114 C   0  0  0  0  0  0
  -30.4545  -12.5575   19.4998 C   0  0  0  0  0  0
  -29.5457  -12.5414   18.2513 C   0  0  0  0  0  0
  -28.0610  -12.3653   18.6371 C   0  0  0  0  0  0
  -27.6435  -13.2581   19.8379 C   0  0  2  0  0  0
  -28.6895  -13.2493   20.9746 C   0  0  0  0  0  0
  -25.2492  -13.8271   20.5647 C   0  0  0  0  0  0
  -24.1808  -13.0479   20.9140 C   0  0  0  0  0  0
  -24.6443  -11.6962   20.8695 C   0  0  0  0  0  0
  -23.9134  -10.4320   21.0398 C   0  0  0  0  0  0
  -24.3670   -9.4227   21.9185 C   0  0  0  0  0  0
  -23.6335   -8.2259   22.0756 C   0  0  0  0  0  0
  -22.4295   -8.0318   21.3550 C   0  0  0  0  0  0
  -21.9942   -9.0295   20.4649 C   0  0  0  0  0  0
  -22.7296  -10.2163   20.3040 C   0  0  0  0  0  0
  -21.6869   -6.0767   22.5285 C   0  0  0  0  0  0
  -21.4022   -6.5658   23.8213 C   0  0  0  0  0  0
  -21.3650   -5.6798   24.9183 C   0  0  0  0  0  0
  -21.6042   -4.3050   24.7227 C   0  0  0  0  0  0
  -21.8808   -3.8157   23.4340 C   0  0  0  0  0  0
  -21.9163   -4.6988   22.3400 C   0  0  0  0  0  0
  -22.7793  -13.5215   21.1781 C   0  0  0  0  0  0
  -22.1643   -4.2180   21.0981 F   0  0  0  0  0  0
  -21.5642   -3.4519   25.7733 F   0  0  0  0  0  0
  -29.9760  -13.6482   20.3871 N   0  0  0  0  0  0
  -26.2950  -12.9511   20.3181 N   0  0  0  0  0  0
  -25.9382  -11.6625   20.5674 N   0  0  0  0  0  0
  -22.0386  -12.8258   22.0356 N   0  0  0  0  0  0
  -25.4106  -15.2003   20.4063 N   0  0  0  0  0  0
  -31.7714  -14.9742   20.1155 O   0  0  0  0  0  0
  -21.6670   -6.8911   21.4247 O   0  0  0  0  0  0
  -22.3449  -14.5495   20.6592 O   0  0  0  0  0  0
  -24.6455  -31.8449   23.1923 C   0  0  0  0  0  0
  -25.9213  -32.4714   23.8314 C   0  0  1  0  0  0
  -27.2197  -27.1468   20.1475 C   0  0  0  0  0  0
  -25.5997  -33.8503   24.2231 N   0  0  0  0  0  0
  -23.4459  -30.4657   21.5380 C   0  0  2  0  0  0
  -24.8986  -28.9016   20.1012 C   0  0  0  0  0  0
  -22.7571  -29.4555   22.4896 C   0  0  0  0  0  0
  -18.0298  -28.1363   22.8481 C   0  0  0  0  0  0
  -24.1481  -36.7259   23.2634 C   0  0  0  0  0  0
  -26.0039  -30.7159   21.3973 C   0  0  0  0  0  0
  -26.0699  -29.3304   20.7382 C   0  0  0  0  0  0
  -27.2265  -28.4629   20.7557 C   0  0  0  0  0  0
  -26.0333  -26.8407   19.4388 C   0  0  0  0  0  0
  -24.8933  -27.6721   19.4295 C   0  0  0  0  0  0
  -23.6674  -29.7935   20.1551 C   0  0  0  0  0  0
  -25.4107  -36.3032   24.0300 C   0  0  1  0  0  0
  -20.5913  -28.3704   23.1236 C   0  0  2  0  0  0
  -20.6781  -26.9413   22.5390 C   0  0  0  0  0  0
  -19.5757  -26.6358   21.5191 C   0  0  0  0  0  0
  -18.1937  -26.7911   22.1610 C   0  0  0  0  0  0
  -19.1552  -28.8846   23.2850 C   0  0  0  0  0  0
  -18.9474  -30.1460   23.8853 C   0  0  0  0  0  0
  -17.6463  -30.6564   24.0541 C   0  0  0  0  0  0
  -25.9076  -34.9412   23.5076 C   0  0  0  0  0  0
  -16.5360  -29.9035   23.6351 C   0  0  0  0  0  0
  -16.7280  -28.6449   23.0383 C   0  0  0  0  0  0
  -26.4534  -31.6575   25.0745 C   0  0  0  0  0  0
  -25.3719  -31.3749   26.1442 C   0  0  0  0  0  0
  -27.0404  -30.2983   24.6325 C   0  0  0  0  0  0
  -27.6104  -32.4305   25.7522 C   0  0  0  0  0  0
  -27.5569  -37.1755   24.8432 C   0  0  0  0  0  0
  -21.4269  -29.3040   22.3612 N   0  0  0  0  0  0
  -26.4264  -37.3737   23.9412 N   0  0  0  0  0  0
  -24.7178  -31.0301   22.0979 N   0  0  0  0  0  0
  -23.4240  -28.8103   23.3018 O   0  0  0  0  0  0
  -28.2469  -26.1361   20.2577 O   0  0  0  0  0  0
  -26.5631  -34.8873   22.4642 O   0  0  0  0  0  0
  -23.5557  -32.1350   23.7154 O   0  0  0  0  0  0
  -28.6626  -22.1760   19.2763 C   0  0  0  0  0  0
  -28.6467  -23.2460   20.2310 C   0  0  0  0  0  0
  -29.0824  -22.7274   21.4845 C   0  0  0  0  0  0
  -29.4727  -20.4637   20.7192 C   0  0  0  0  0  0
  -27.9524  -23.1202   23.7313 C   0  0  0  0  0  0
  -28.4605  -18.4577   22.0409 C   0  0  0  0  0  0
  -30.9768  -18.8637   22.0886 C   0  0  0  0  0  0
  -27.8873  -24.6729   19.9047 C   0  0  0  0  0  0
  -29.0363  -23.5823   22.7419 C   0  0  0  0  0  0
  -29.9809  -17.5923   20.1418 C   0  0  0  0  0  0
  -29.6971  -18.8746   21.1860 C   0  0  0  0  0  0
  -29.0221  -20.8552   19.5127 N   0  0  0  0  0  0
  -29.4891  -21.4168   21.6855 N   0  0  0  0  0  0
  -29.7993  -16.0720   20.5431 N   0  0  0  0  0  0
  -31.4955  -12.7005   19.1994 H   0  0  0  0  0  0
  -30.4401  -11.6031   20.0271 H   0  0  0  0  0  0
  -29.8608  -11.7551   17.5643 H   0  0  0  0  0  0
  -29.6732  -13.4748   17.6978 H   0  0  0  0  0  0
  -27.8862  -11.3169   18.8719 H   0  0  0  0  0  0
  -27.4293  -12.5892   17.7760 H   0  0  0  0  0  0
  -27.6221  -14.2754   19.4460 H   0  0  0  0  0  0
  -28.7544  -12.2641   21.4381 H   0  0  0  0  0  0
  -28.4093  -13.9458   21.7662 H   0  0  0  0  0  0
  -25.2846   -9.5726   22.4734 H   0  0  0  0  0  0
  -24.0071   -7.4652   22.7470 H   0  0  0  0  0  0
  -21.0862   -8.8833   19.8947 H   0  0  0  0  0  0
  -22.3790  -10.9703   19.6135 H   0  0  0  0  0  0
  -21.2049   -7.6159   23.9740 H   0  0  0  0  0  0
  -21.1477   -6.0518   25.9083 H   0  0  0  0  0  0
  -22.0586   -2.7610   23.2812 H   0  0  0  0  0  0
  -22.4010  -12.0083   22.5027 H   0  0  0  0  0  0
  -21.0972  -13.1304   22.2413 H   0  0  0  0  0  0
  -24.6422  -15.8523   20.5252 H   0  0  0  0  0  0
  -26.2492  -15.6369   20.0403 H   0  0  0  0  0  0
  -26.7298  -32.5299   23.1048 H   0  0  0  0  0  0
  -25.0170  -33.9643   25.0407 H   0  0  0  0  0  0
  -22.7472  -31.2916   21.3874 H   0  0  0  0  0  0
  -23.3747  -35.9585   23.3240 H   0  0  0  0  0  0
  -24.3612  -36.8958   22.2073 H   0  0  0  0  0  0
  -23.7206  -37.6413   23.6725 H   0  0  0  0  0  0
  -26.1619  -31.4716   20.6262 H   0  0  0  0  0  0
  -26.8766  -30.7670   22.0378 H   0  0  0  0  0  0
  -28.1084  -28.7765   21.2940 H   0  0  0  0  0  0
  -25.9403  -25.9176   18.8904 H   0  0  0  0  0  0
  -24.0126  -27.3494   18.8917 H   0  0  0  0  0  0
  -23.7875  -30.5668   19.3969 H   0  0  0  0  0  0
  -22.7842  -29.2258   19.8567 H   0  0  0  0  0  0
  -25.1284  -36.1862   25.0782 H   0  0  0  0  0  0
  -21.0016  -28.3285   24.1354 H   0  0  0  0  0  0
  -20.5671  -26.2326   23.3613 H   0  0  0  0  0  0
  -21.6657  -26.7418   22.1197 H   0  0  0  0  0  0
  -19.6932  -25.6256   21.1244 H   0  0  0  0  0  0
  -19.6678  -27.3149   20.6695 H   0  0  0  0  0  0
  -17.4224  -26.6688   21.3999 H   0  0  0  0  0  0
  -18.0332  -26.0042   22.8993 H   0  0  0  0  0  0
  -19.7936  -30.7294   24.2219 H   0  0  0  0  0  0
  -17.4994  -31.6240   24.5146 H   0  0  0  0  0  0
  -15.5355  -30.2918   23.7649 H   0  0  0  0  0  0
  -15.8692  -28.0715   22.7162 H   0  0  0  0  0  0
  -24.5911  -30.7090   25.7746 H   0  0  0  0  0  0
  -24.8888  -32.2918   26.4817 H   0  0  0  0  0  0
  -25.7998  -30.8944   27.0251 H   0  0  0  0  0  0
  -26.3027  -29.6700   24.1326 H   0  0  0  0  0  0
  -27.4025  -29.7267   25.4877 H   0  0  0  0  0  0
  -27.8931  -30.4230   23.9649 H   0  0  0  0  0  0
  -27.2764  -33.3626   26.2072 H   0  0  0  0  0  0
  -28.3934  -32.6809   25.0361 H   0  0  0  0  0  0
  -28.0764  -31.8439   26.5448 H   0  0  0  0  0  0
  -28.2503  -38.0124   24.7577 H   0  0  0  0  0  0
  -28.1130  -36.2664   24.6119 H   0  0  0  0  0  0
  -27.2326  -37.1244   25.8832 H   0  0  0  0  0  0
  -20.9490  -29.8759   21.6792 H   0  0  0  0  0  0
  -26.0127  -38.2787   24.1446 H   0  0  0  0  0  0
  -28.2966  -22.3634   18.2778 H   0  0  0  0  0  0
  -27.8880  -23.7961   24.5859 H   0  0  0  0  0  0
  -28.1643  -22.1189   24.1107 H   0  0  0  0  0  0
  -26.9698  -23.0885   23.2574 H   0  0  0  0  0  0
  -28.3260  -19.1092   22.9079 H   0  0  0  0  0  0
  -28.5398  -17.4441   22.4420 H   0  0  0  0  0  0
  -27.5284  -18.4997   21.4675 H   0  0  0  0  0  0
  -30.9358  -19.5946   22.9005 H   0  0  0  0  0  0
  -31.8767  -19.0959   21.5162 H   0  0  0  0  0  0
  -31.1518  -17.8955   22.5590 H   0  0  0  0  0  0
  -26.8855  -24.4984   20.3025 H   0  0  0  0  0  0
  -27.7848  -24.6733   18.8186 H   0  0  0  0  0  0
  -28.8645  -24.6240   22.4808 H   0  0  0  0  0  0
  -30.0142  -23.5516   23.2216 H   0  0  0  0  0  0
  -30.9591  -17.7156   19.6614 H   0  0  0  0  0  0
  -29.2818  -17.7266   19.3145 H   0  0  0  0  0  0
  -28.8337  -15.8526   20.7505 H   0  0  0  0  0  0
  1 25  1  0  0  0
  1 30  2  0  0  0
  1 84  1  0  0  0
  2  3  1  0  0  0
  2 25  1  0  0  0
  2 85  1  0  0  0
  2 86  1  0  0  0
  3  4  1  0  0  0
  3 87  1  0  0  0
  3 88  1  0  0  0
  4  5  1  0  0  0
  4 89  1  0  0  0
  4 90  1  0  0  0
  5  6  1  0  0  0
  5 26  1  0  0  0
  5 91  1  0  0  0
  6 25  1  0  0  0
  6 92  1  0  0  0
  6 93  1  0  0  0
  7  8  2  0  0  0
  7 26  1  0  0  0
  7 29  1  0  0  0
  8  9  1  0  0  0
  8 22  1  0  0  0
  9 10  1  0  0  0
  9 27  2  0  0  0
 10 11  2  0  0  0
 10 15  1  0  0  0
 11 12  1  0  0  0
 11 94  1  0  0  0
 12 13  2  0  0  0
 12 95  1  0  0  0
 13 14  1  0  0  0
 13 31  1  0  0  0
 14 15  2  0  0  0
 14 96  1  0  0  0
 15 97  1  0  0  0
 16 17  2  0  0  0
 16 21  1  0  0  0
 16 31  1  0  0  0
 17 18  1  0  0  0
 17 98  1  0  0  0
 18 19  2  0  0  0
 18 99  1  0  0  0
 19 20  1  0  0  0
 19 24  1  0  0  0
 20 21  2  0  0  0
 20100  1  0  0  0
 21 23  1  0  0  0
 22 28  1  0  0  0
 22 32  2  0  0  0
 26 27  1  0  0  0
 28101  1  0  0  0
 28102  1  0  0  0
 29103  1  0  0  0
 29104  1  0  0  0
 33 34  1  0  0  0
 33 66  1  0  0  0
 33 70  2  0  0  0
 34 36  1  0  0  0
 34 59  1  0  0  0
 34105  1  0  0  0
 35 44  2  0  0  0
 35 45  1  0  0  0
 35 68  1  0  0  0
 36 56  1  0  0  0
 36106  1  0  0  0
 37 39  1  0  0  0
 37 47  1  0  0  0
 37 66  1  0  0  0
 37107  1  0  0  0
 38 43  2  0  0  0
 38 46  1  0  0  0
 38 47  1  0  0  0
 39 64  1  0  0  0
 39 67  2  0  0  0
 40 52  1  0  0  0
 40 53  2  0  0  0
 40 58  1  0  0  0
 41108  1  0  0  0
 41109  1  0  0  0
 41110  1  0  0  0
 41 48  1  0  0  0
 42 43  1  0  0  0
 42 66  1  0  0  0
 42111  1  0  0  0
 42112  1  0  0  0
 43 44  1  0  0  0
 44113  1  0  0  0
 45 46  2  0  0  0
 45114  1  0  0  0
 46115  1  0  0  0
 47116  1  0  0  0
 47117  1  0  0  0
 48 56  1  0  0  0
 48 65  1  0  0  0
 48118  1  0  0  0
 49 50  1  0  0  0
 49 53  1  0  0  0
 49 64  1  0  0  0
 49119  1  0  0  0
 50 51  1  0  0  0
 50120  1  0  0  0
 50121  1  0  0  0
 51 52  1  0  0  0
 51122  1  0  0  0
 51123  1  0  0  0
 52124  1  0  0  0
 52125  1  0  0  0
 53 54  1  0  0  0
 54 55  2  0  0  0
 54126  1  0  0  0
 55 57  1  0  0  0
 55127  1  0  0  0
 56 69  2  0  0  0
 57 58  2  0  0  0
 57128  1  0  0  0
 58129  1  0  0  0
 59 60  1  0  0  0
 59 61  1  0  0  0
 59 62  1  0  0  0
 60130  1  0  0  0
 60131  1  0  0  0
 60132  1  0  0  0
 61133  1  0  0  0
 61134  1  0  0  0
 61135  1  0  0  0
 62136  1  0  0  0
 62137  1  0  0  0
 62138  1  0  0  0
 63 65  1  0  0  0
 63139  1  0  0  0
 63140  1  0  0  0
 63141  1  0  0  0
 64142  1  0  0  0
 65143  1  0  0  0
 68 78  1  0  0  0
 71 72  2  0  0  0
 71 82  1  0  0  0
 71144  1  0  0  0
 72 73  1  0  0  0
 72 78  1  0  0  0
 73 79  1  0  0  0
 73 83  2  0  0  0
 74 81  1  0  0  0
 74 82  2  0  0  0
 74 83  1  0  0  0
 75 79  1  0  0  0
 75145  1  0  0  0
 75146  1  0  0  0
 75147  1  0  0  0
 76148  1  0  0  0
 76149  1  0  0  0
 76150  1  0  0  0
 76 81  1  0  0  0
 77 81  1  0  0  0
 77151  1  0  0  0
 77152  1  0  0  0
 77153  1  0  0  0
 78154  1  0  0  0
 78155  1  0  0  0
 79156  1  0  0  0
 79157  1  0  0  0
 80 81  1  0  0  0
 80 84  1  0  0  0
 80158  1  0  0  0
 80159  1  0  0  0
 84160  1  0  0  0
M  ISO  4   1 100  68 101  78 101  84 100
M  END
> <chiral flag>
0

> <version>
0

> <s_m_source_file>
/data/baiqing/PycharmProjects/Reinvent-master-3.2/result/LINK_invent/BTK/process_docking_weight1_custom_sum_contain_oxygen_bond_distance_aromatic_linkinvent_7_9_3/rearranged_h_0058.sdf

> <i_m_source_file_index>
6

> <r_mmod_Potential_Energy-OPLS-2005>
26.6223697662354

> <r_mmod_Stretch_Energy-OPLS-2005>
228.820007324219

> <r_mmod_Bend_Energy-OPLS-2005>
272.563049316406

> <r_mmod_Torsional_Energy-OPLS-2005>
216.373184204102

> <r_mmod_Improper_Torsional_Energy-OPLS-2005>
10.1634569168091

> <r_mmod_Van_der_Waal_Energy-OPLS-2005>
139.163604736328

> <r_mmod_Electrostatic_Energy-OPLS-2005>
-793.006469726562

> <r_mmod_Solvation_Energy-OPLS-2005>
-225.134887695312

> <b_mmod_Minimization_Converged-OPLS-2005>
0

> <r_mmod_RMS_Derivative-OPLS-2005>
8.22915267944336

$$$$
6
                    3D
 Structure written by MMmdl.
156164  0  0  1  0            999 V2000
  -30.6186  -14.7538   20.5040 C   0  0  0  0  0  0
  -30.4385  -12.4737   19.4706 C   0  0  0  0  0  0
  -29.5110  -12.5312   18.2344 C   0  0  0  0  0  0
  -28.0341  -12.3535   18.6417 C   0  0  0  0  0  0
  -27.6471  -13.2278   19.8635 C   0  0  2  0  0  0
  -28.6952  -13.0938   20.9884 C   0  0  0  0  0  0
  -25.2517  -13.8191   20.5695 C   0  0  0  0  0  0
  -24.1804  -13.0441   20.9195 C   0  0  0  0  0  0
  -24.6392  -11.6916   20.8744 C   0  0  0  0  0  0
  -23.9068  -10.4297   21.0399 C   0  0  0  0  0  0
  -24.3623   -9.4215   21.9179 C   0  0  0  0  0  0
  -23.6302   -8.2251   22.0755 C   0  0  0  0  0  0
  -22.4284   -8.0282   21.3550 C   0  0  0  0  0  0
  -21.9915   -9.0249   20.4650 C   0  0  0  0  0  0
  -22.7239  -10.2132   20.3050 C   0  0  0  0  0  0
  -21.6861   -6.0732   22.5280 C   0  0  0  0  0  0
  -21.4016   -6.5638   23.8212 C   0  0  0  0  0  0
  -21.3654   -5.6792   24.9176 C   0  0  0  0  0  0
  -21.6046   -4.3053   24.7227 C   0  0  0  0  0  0
  -21.8816   -3.8143   23.4348 C   0  0  0  0  0  0
  -21.9196   -4.6960   22.3405 C   0  0  0  0  0  0
  -22.7820  -13.5218   21.1845 C   0  0  0  0  0  0
  -22.1663   -4.2144   21.0982 F   0  0  0  0  0  0
  -21.5629   -3.4538   25.7741 F   0  0  0  0  0  0
  -29.9875  -13.5196   20.4257 N   0  0  0  0  0  0
  -26.2961  -12.9390   20.3333 N   0  0  0  0  0  0
  -25.9326  -11.6536   20.5761 N   0  0  0  0  0  0
  -22.0463  -12.8215   22.0404 N   0  0  0  0  0  0
  -25.4177  -15.1916   20.4075 N   0  0  0  0  0  0
  -31.7771  -14.8395   20.0830 O   0  0  0  0  0  0
  -21.6652   -6.8878   21.4245 O   0  0  0  0  0  0
  -22.3503  -14.5522   20.6685 O   0  0  0  0  0  0
  -24.6325  -31.8549   23.1975 C   0  0  0  0  0  0
  -25.9143  -32.4750   23.8325 C   0  0  1  0  0  0
  -27.2217  -27.2558   20.1276 C   0  0  0  0  0  0
  -25.5934  -33.8546   24.2245 N   0  0  0  0  0  0
  -23.4305  -30.4796   21.5397 C   0  0  2  0  0  0
  -24.8787  -28.9289   20.1075 C   0  0  0  0  0  0
  -22.7514  -29.4613   22.4875 C   0  0  0  0  0  0
  -18.0305  -28.1394   22.8481 C   0  0  0  0  0  0
  -24.1494  -36.7288   23.2639 C   0  0  0  0  0  0
  -25.9781  -30.7664   21.3794 C   0  0  0  0  0  0
  -26.0512  -29.3892   20.7208 C   0  0  0  0  0  0
  -27.2245  -28.5658   20.7196 C   0  0  0  0  0  0
  -26.0254  -26.8725   19.4761 C   0  0  0  0  0  0
  -24.8714  -27.6785   19.4749 C   0  0  0  0  0  0
  -23.6502  -29.8162   20.1553 C   0  0  0  0  0  0
  -25.4119  -36.3062   24.0322 C   0  0  1  0  0  0
  -20.5913  -28.3712   23.1250 C   0  0  2  0  0  0
  -20.6800  -26.9424   22.5401 C   0  0  0  0  0  0
  -19.5771  -26.6388   21.5207 C   0  0  0  0  0  0
  -18.1950  -26.7934   22.1617 C   0  0  0  0  0  0
  -19.1561  -28.8863   23.2866 C   0  0  0  0  0  0
  -18.9475  -30.1458   23.8894 C   0  0  0  0  0  0
  -17.6473  -30.6587   24.0566 C   0  0  0  0  0  0
  -25.9056  -34.9432   23.5089 C   0  0  0  0  0  0
  -16.5364  -29.9091   23.6330 C   0  0  0  0  0  0
  -16.7289  -28.6509   23.0349 C   0  0  0  0  0  0
  -26.4512  -31.6574   25.0709 C   0  0  0  0  0  0
  -25.3722  -31.3722   26.1419 C   0  0  0  0  0  0
  -27.0365  -30.2985   24.6204 C   0  0  0  0  0  0
  -27.6068  -32.4315   25.7477 C   0  0  0  0  0  0
  -27.5582  -37.1797   24.8463 C   0  0  0  0  0  0
  -21.4215  -29.3058   22.3620 N   0  0  0  0  0  0
  -26.4297  -37.3754   23.9403 N   0  0  0  0  0  0
  -24.6995  -31.0518   22.0949 N   0  0  0  0  0  0
  -23.4203  -28.8146   23.2975 O   0  0  0  0  0  0
  -28.3068  -26.3436   20.2026 O   0  0  0  0  0  0
  -26.5628  -34.8915   22.4656 O   0  0  0  0  0  0
  -23.5473  -32.1365   23.7274 O   0  0  0  0  0  0
  -30.2336  -20.6802   21.4711 C   0  0  0  0  0  0
  -30.6375  -19.3576   21.4801 C   0  0  0  0  0  0
  -29.8936  -18.7061   20.4437 C   0  0  0  0  0  0
  -29.0229  -16.0873   21.9016 C   0  0  0  0  0  0
  -30.0079  -17.2132   19.8884 C   0  0  0  0  0  0
  -29.0175  -23.6541   20.4172 C   0  0  0  0  0  0
  -28.5281  -22.1429   20.0733 C   0  0  0  0  0  0
  -28.0370  -24.8743   19.9872 C   0  0  0  0  0  0
  -31.6757  -18.7451   22.3838 C   0  0  0  0  0  0
  -29.1086  -19.6542   19.8503 N   0  0  0  0  0  0
  -29.3197  -20.8913   20.4552 N   0  0  0  0  0  0
  -29.8793  -15.9284   20.7223 N   0  0  0  0  0  0
  -32.4523  -17.9085   21.6969 F   0  0  0  0  0  0
  -32.4415  -19.7012   22.9111 F   0  0  0  0  0  0
  -31.0819  -18.0768   23.3712 F   0  0  0  0  0  0
  -31.4771  -12.6051   19.1629 H   0  0  0  0  0  0
  -30.3985  -11.4862   19.9338 H   0  0  0  0  0  0
  -29.7962  -11.7661   17.5110 H   0  0  0  0  0  0
  -29.6360  -13.4900   17.7282 H   0  0  0  0  0  0
  -27.8853  -11.3007   18.8827 H   0  0  0  0  0  0
  -27.3781  -12.5677   17.7968 H   0  0  0  0  0  0
  -27.6570  -14.2626   19.5200 H   0  0  0  0  0  0
  -28.7492  -12.0576   21.3255 H   0  0  0  0  0  0
  -28.4076  -13.6434   21.8785 H   0  0  0  0  0  0
  -25.2766   -9.5701   22.4753 H   0  0  0  0  0  0
  -24.0013   -7.4646   22.7477 H   0  0  0  0  0  0
  -21.0843   -8.8756   19.8959 H   0  0  0  0  0  0
  -22.3686  -10.9664   19.6157 H   0  0  0  0  0  0
  -21.2010   -7.6146   23.9715 H   0  0  0  0  0  0
  -21.1480   -6.0522   25.9080 H   0  0  0  0  0  0
  -22.0601   -2.7604   23.2850 H   0  0  0  0  0  0
  -22.4087  -11.9896   22.4822 H   0  0  0  0  0  0
  -21.1068  -13.1222   22.2593 H   0  0  0  0  0  0
  -24.6464  -15.8419   20.5112 H   0  0  0  0  0  0
  -26.2665  -15.6349   20.0805 H   0  0  0  0  0  0
  -26.7201  -32.5398   23.1065 H   0  0  0  0  0  0
  -25.0090  -33.9675   25.0394 H   0  0  0  0  0  0
  -22.7277  -31.3023   21.3935 H   0  0  0  0  0  0
  -23.3751  -35.9624   23.3293 H   0  0  0  0  0  0
  -24.3593  -36.8916   22.2056 H   0  0  0  0  0  0
  -23.7258  -37.6491   23.6668 H   0  0  0  0  0  0
  -26.1195  -31.5264   20.6099 H   0  0  0  0  0  0
  -26.8540  -30.8146   22.0147 H   0  0  0  0  0  0
  -28.1206  -28.9116   21.2165 H   0  0  0  0  0  0
  -25.9448  -25.9216   18.9722 H   0  0  0  0  0  0
  -23.9758  -27.3215   18.9848 H   0  0  0  0  0  0
  -23.7779  -30.5941   19.4012 H   0  0  0  0  0  0
  -22.7686  -29.2514   19.8470 H   0  0  0  0  0  0
  -25.1304  -36.1915   25.0814 H   0  0  0  0  0  0
  -21.0019  -28.3305   24.1366 H   0  0  0  0  0  0
  -20.5715  -26.2316   23.3607 H   0  0  0  0  0  0
  -21.6664  -26.7459   22.1182 H   0  0  0  0  0  0
  -19.6939  -25.6296   21.1243 H   0  0  0  0  0  0
  -19.6719  -27.3189   20.6727 H   0  0  0  0  0  0
  -17.4225  -26.6680   21.4016 H   0  0  0  0  0  0
  -18.0357  -26.0075   22.9010 H   0  0  0  0  0  0
  -19.7948  -30.7275   24.2270 H   0  0  0  0  0  0
  -17.5028  -31.6270   24.5164 H   0  0  0  0  0  0
  -15.5365  -30.2995   23.7649 H   0  0  0  0  0  0
  -15.8690  -28.0827   22.7066 H   0  0  0  0  0  0
  -24.5923  -30.7045   25.7741 H   0  0  0  0  0  0
  -24.8887  -32.2887   26.4804 H   0  0  0  0  0  0
  -25.8030  -30.8933   27.0220 H   0  0  0  0  0  0
  -26.2948  -29.6713   24.1245 H   0  0  0  0  0  0
  -27.4059  -29.7270   25.4732 H   0  0  0  0  0  0
  -27.8820  -30.4250   23.9439 H   0  0  0  0  0  0
  -27.2685  -33.3634   26.2024 H   0  0  0  0  0  0
  -28.3894  -32.6841   25.0306 H   0  0  0  0  0  0
  -28.0718  -31.8454   26.5420 H   0  0  0  0  0  0
  -28.2592  -38.0101   24.7517 H   0  0  0  0  0  0
  -28.1091  -36.2634   24.6290 H   0  0  0  0  0  0
  -27.2303  -37.1446   25.8866 H   0  0  0  0  0  0
  -20.9390  -29.8780   21.6833 H   0  0  0  0  0  0
  -26.0181  -38.2828   24.1400 H   0  0  0  0  0  0
  -30.5472  -21.4939   22.1094 H   0  0  0  0  0  0
  -28.9822  -17.1116   22.2654 H   0  0  0  0  0  0
  -29.3766  -15.4824   22.7378 H   0  0  0  0  0  0
  -27.9974  -15.8041   21.6677 H   0  0  0  0  0  0
  -30.9542  -17.1521   19.3497 H   0  0  0  0  0  0
  -29.2610  -17.0982   19.1027 H   0  0  0  0  0  0
  -29.9910  -23.8133   19.9538 H   0  0  0  0  0  0
  -29.1888  -23.7228   21.4918 H   0  0  0  0  0  0
  -28.3636  -22.0912   18.9967 H   0  0  0  0  0  0
  -27.5391  -22.0174   20.5153 H   0  0  0  0  0  0
  -27.0884  -24.6499   20.4765 H   0  0  0  0  0  0
  -27.8586  -24.7532   18.9187 H   0  0  0  0  0  0
  1 25  1  0  0  0
  1 30  2  0  0  0
  1 82  1  0  0  0
  2  3  1  0  0  0
  2 25  1  0  0  0
  2 86  1  0  0  0
  2 87  1  0  0  0
  3  4  1  0  0  0
  3 88  1  0  0  0
  3 89  1  0  0  0
  4  5  1  0  0  0
  4 90  1  0  0  0
  4 91  1  0  0  0
  5  6  1  0  0  0
  5 26  1  0  0  0
  5 92  1  0  0  0
  6 25  1  0  0  0
  6 93  1  0  0  0
  6 94  1  0  0  0
  7  8  2  0  0  0
  7 26  1  0  0  0
  7 29  1  0  0  0
  8  9  1  0  0  0
  8 22  1  0  0  0
  9 10  1  0  0  0
  9 27  2  0  0  0
 10 11  2  0  0  0
 10 15  1  0  0  0
 11 12  1  0  0  0
 11 95  1  0  0  0
 12 13  2  0  0  0
 12 96  1  0  0  0
 13 14  1  0  0  0
 13 31  1  0  0  0
 14 15  2  0  0  0
 14 97  1  0  0  0
 15 98  1  0  0  0
 16 17  2  0  0  0
 16 21  1  0  0  0
 16 31  1  0  0  0
 17 18  1  0  0  0
 17 99  1  0  0  0
 18 19  2  0  0  0
 18100  1  0  0  0
 19 20  1  0  0  0
 19 24  1  0  0  0
 20 21  2  0  0  0
 20101  1  0  0  0
 21 23  1  0  0  0
 22 28  1  0  0  0
 22 32  2  0  0  0
 26 27  1  0  0  0
 28102  1  0  0  0
 28103  1  0  0  0
 29104  1  0  0  0
 29105  1  0  0  0
 33 34  1  0  0  0
 33 66  1  0  0  0
 33 70  2  0  0  0
 34 36  1  0  0  0
 34 59  1  0  0  0
 34106  1  0  0  0
 35 44  2  0  0  0
 35 45  1  0  0  0
 35 68  1  0  0  0
 36 56  1  0  0  0
 36107  1  0  0  0
 37 39  1  0  0  0
 37 47  1  0  0  0
 37 66  1  0  0  0
 37108  1  0  0  0
 38 43  2  0  0  0
 38 46  1  0  0  0
 38 47  1  0  0  0
 39 64  1  0  0  0
 39 67  2  0  0  0
 40 52  1  0  0  0
 40 53  2  0  0  0
 40 58  1  0  0  0
 41109  1  0  0  0
 41110  1  0  0  0
 41111  1  0  0  0
 41 48  1  0  0  0
 42 43  1  0  0  0
 42 66  1  0  0  0
 42112  1  0  0  0
 42113  1  0  0  0
 43 44  1  0  0  0
 44114  1  0  0  0
 45 46  2  0  0  0
 45115  1  0  0  0
 46116  1  0  0  0
 47117  1  0  0  0
 47118  1  0  0  0
 48 56  1  0  0  0
 48 65  1  0  0  0
 48119  1  0  0  0
 49 50  1  0  0  0
 49 53  1  0  0  0
 49 64  1  0  0  0
 49120  1  0  0  0
 50 51  1  0  0  0
 50121  1  0  0  0
 50122  1  0  0  0
 51 52  1  0  0  0
 51123  1  0  0  0
 51124  1  0  0  0
 52125  1  0  0  0
 52126  1  0  0  0
 53 54  1  0  0  0
 54 55  2  0  0  0
 54127  1  0  0  0
 55 57  1  0  0  0
 55128  1  0  0  0
 56 69  2  0  0  0
 57 58  2  0  0  0
 57129  1  0  0  0
 58130  1  0  0  0
 59 60  1  0  0  0
 59 61  1  0  0  0
 59 62  1  0  0  0
 60131  1  0  0  0
 60132  1  0  0  0
 60133  1  0  0  0
 61134  1  0  0  0
 61135  1  0  0  0
 61136  1  0  0  0
 62137  1  0  0  0
 62138  1  0  0  0
 62139  1  0  0  0
 63 65  1  0  0  0
 63140  1  0  0  0
 63141  1  0  0  0
 63142  1  0  0  0
 64143  1  0  0  0
 65144  1  0  0  0
 68 78  1  0  0  0
 71 72  2  0  0  0
 71 81  1  0  0  0
 71145  1  0  0  0
 72 73  1  0  0  0
 72 79  1  0  0  0
 73 75  1  0  0  0
 73 80  2  0  0  0
 74 82  1  0  0  0
 74146  1  0  0  0
 74147  1  0  0  0
 74148  1  0  0  0
 75 82  1  0  0  0
 75149  1  0  0  0
 75150  1  0  0  0
 76 77  1  0  0  0
 76 78  1  0  0  0
 76151  1  0  0  0
 76152  1  0  0  0
 77 81  1  0  0  0
 77153  1  0  0  0
 77154  1  0  0  0
 78155  1  0  0  0
 78156  1  0  0  0
 79 83  1  0  0  0
 79 84  1  0  0  0
 79 85  1  0  0  0
 80 81  1  0  0  0
M  ISO  4   1 100  68 101  78 101  82 100
M  END
> <chiral flag>
0

> <version>
0

> <s_m_source_file>
/data/baiqing/PycharmProjects/Reinvent-master-3.2/result/LINK_invent/BTK/process_docking_weight1_custom_sum_contain_oxygen_bond_distance_aromatic_linkinvent_7_9_3/rearranged_h_0058.sdf

> <i_m_source_file_index>
7

> <r_mmod_Potential_Energy-OPLS-2005>
216.565292358398

> <r_mmod_Stretch_Energy-OPLS-2005>
131.904251098633

> <r_mmod_Bend_Energy-OPLS-2005>
184.243896484375

> <r_mmod_Torsional_Energy-OPLS-2005>
264.936004638672

> <r_mmod_Improper_Torsional_Energy-OPLS-2005>
9.56678771972656

> <r_mmod_Van_der_Waal_Energy-OPLS-2005>
122.471138000488

> <r_mmod_Electrostatic_Energy-OPLS-2005>
-379.588104248047

> <r_mmod_Solvation_Energy-OPLS-2005>
-201.519790649414

> <b_mmod_Minimization_Converged-OPLS-2005>
0

> <r_mmod_RMS_Derivative-OPLS-2005>
1.25086176395416

$$$$
7
                    3D
 Structure written by MMmdl.
158166  0  0  1  0            999 V2000
  -30.6192  -14.7388   20.5089 C   0  0  0  0  0  0
  -30.4338  -12.4601   19.4773 C   0  0  0  0  0  0
  -29.5112  -12.5177   18.2388 C   0  0  0  0  0  0
  -28.0365  -12.3406   18.6474 C   0  0  0  0  0  0
  -27.6445  -13.2302   19.8561 C   0  0  2  0  0  0
  -28.6841  -13.1307   20.9907 C   0  0  0  0  0  0
  -25.2518  -13.8195   20.5703 C   0  0  0  0  0  0
  -24.1801  -13.0438   20.9190 C   0  0  0  0  0  0
  -24.6392  -11.6915   20.8734 C   0  0  0  0  0  0
  -23.9070  -10.4291   21.0401 C   0  0  0  0  0  0
  -24.3621   -9.4212   21.9183 C   0  0  0  0  0  0
  -23.6296   -8.2248   22.0756 C   0  0  0  0  0  0
  -22.4276   -8.0282   21.3547 C   0  0  0  0  0  0
  -21.9912   -9.0254   20.4646 C   0  0  0  0  0  0
  -22.7243  -10.2133   20.3054 C   0  0  0  0  0  0
  -21.6850   -6.0736   22.5279 C   0  0  0  0  0  0
  -21.4010   -6.5640   23.8213 C   0  0  0  0  0  0
  -21.3656   -5.6795   24.9173 C   0  0  0  0  0  0
  -21.6042   -4.3057   24.7222 C   0  0  0  0  0  0
  -21.8822   -3.8149   23.4346 C   0  0  0  0  0  0
  -21.9195   -4.6967   22.3401 C   0  0  0  0  0  0
  -22.7824  -13.5223   21.1857 C   0  0  0  0  0  0
  -22.1664   -4.2153   21.0977 F   0  0  0  0  0  0
  -21.5629   -3.4538   25.7734 F   0  0  0  0  0  0
  -29.9895  -13.5103   20.4288 N   0  0  0  0  0  0
  -26.2943  -12.9399   20.3289 N   0  0  0  0  0  0
  -25.9324  -11.6539   20.5739 N   0  0  0  0  0  0
  -22.0475  -12.8212   22.0413 N   0  0  0  0  0  0
  -25.4222  -15.1921   20.4172 N   0  0  0  0  0  0
  -31.7589  -14.8585   20.0454 O   0  0  0  0  0  0
  -21.6643   -6.8880   21.4243 O   0  0  0  0  0  0
  -22.3508  -14.5532   20.6710 O   0  0  0  0  0  0
  -24.6307  -31.8535   23.1952 C   0  0  0  0  0  0
  -25.9126  -32.4747   23.8314 C   0  0  1  0  0  0
  -27.2283  -27.2569   20.1293 C   0  0  0  0  0  0
  -25.5936  -33.8551   24.2241 N   0  0  0  0  0  0
  -23.4285  -30.4730   21.5373 C   0  0  2  0  0  0
  -24.8767  -28.9152   20.1083 C   0  0  0  0  0  0
  -22.7499  -29.4584   22.4898 C   0  0  0  0  0  0
  -18.0288  -28.1373   22.8488 C   0  0  0  0  0  0
  -24.1486  -36.7266   23.2647 C   0  0  0  0  0  0
  -25.9730  -30.7652   21.3745 C   0  0  0  0  0  0
  -26.0452  -29.3862   20.7185 C   0  0  0  0  0  0
  -27.2190  -28.5685   20.7167 C   0  0  0  0  0  0
  -26.0326  -26.8464   19.5002 C   0  0  0  0  0  0
  -24.8762  -27.6548   19.4892 C   0  0  0  0  0  0
  -23.6468  -29.8024   20.1544 C   0  0  0  0  0  0
  -25.4112  -36.3055   24.0326 C   0  0  1  0  0  0
  -20.5896  -28.3692   23.1263 C   0  0  2  0  0  0
  -20.6769  -26.9409   22.5402 C   0  0  0  0  0  0
  -19.5746  -26.6372   21.5208 C   0  0  0  0  0  0
  -18.1927  -26.7918   22.1620 C   0  0  0  0  0  0
  -19.1544  -28.8846   23.2876 C   0  0  0  0  0  0
  -18.9473  -30.1453   23.8889 C   0  0  0  0  0  0
  -17.6471  -30.6582   24.0563 C   0  0  0  0  0  0
  -25.9059  -34.9433   23.5080 C   0  0  0  0  0  0
  -16.5361  -29.9081   23.6337 C   0  0  0  0  0  0
  -16.7276  -28.6493   23.0357 C   0  0  0  0  0  0
  -26.4500  -31.6577   25.0704 C   0  0  0  0  0  0
  -25.3723  -31.3720   26.1424 C   0  0  0  0  0  0
  -27.0375  -30.3002   24.6195 C   0  0  0  0  0  0
  -27.6045  -32.4329   25.7479 C   0  0  0  0  0  0
  -27.5565  -37.1788   24.8471 C   0  0  0  0  0  0
  -21.4201  -29.3044   22.3652 N   0  0  0  0  0  0
  -26.4275  -37.3763   23.9413 N   0  0  0  0  0  0
  -24.6962  -31.0499   22.0922 N   0  0  0  0  0  0
  -23.4202  -28.8129   23.2998 O   0  0  0  0  0  0
  -28.3587  -26.4099   20.2092 O   0  0  0  0  0  0
  -26.5638  -34.8916   22.4655 O   0  0  0  0  0  0
  -23.5451  -32.1347   23.7247 O   0  0  0  0  0  0
  -26.8920  -20.0871   18.8438 C   0  0  0  0  0  0
  -28.4132  -21.0616   19.8960 C   0  0  0  0  0  0
  -25.6559  -19.8459   18.0508 C   0  0  0  0  0  0
  -29.5913  -16.0433   22.3040 C   0  0  0  0  0  0
  -29.2087  -22.2993   20.4129 C   0  0  0  0  0  0
  -28.4627  -23.7230   20.7328 C   0  0  0  0  0  0
  -29.5194  -18.6746   20.7314 C   0  0  0  0  0  0
  -29.7830  -17.1852   20.0697 C   0  0  0  0  0  0
  -28.4371  -24.9866   19.7199 C   0  0  0  0  0  0
  -27.3582  -21.3303   19.1251 N   0  0  0  0  0  0
  -27.5979  -19.0795   19.3338 N   0  0  0  0  0  0
  -28.6231  -19.6726   20.0014 N   0  0  0  0  0  0
  -29.8916  -15.8763   20.8804 N   0  0  0  0  0  0
  -31.4740  -12.5853   19.1729 H   0  0  0  0  0  0
  -30.3850  -11.4765   19.9469 H   0  0  0  0  0  0
  -29.7937  -11.7462   17.5209 H   0  0  0  0  0  0
  -29.6398  -13.4731   17.7278 H   0  0  0  0  0  0
  -27.8906  -11.2899   18.9014 H   0  0  0  0  0  0
  -27.3800  -12.5409   17.8001 H   0  0  0  0  0  0
  -27.6492  -14.2595   19.4960 H   0  0  0  0  0  0
  -28.7222  -12.1170   21.3916 H   0  0  0  0  0  0
  -28.3882  -13.7653   21.8230 H   0  0  0  0  0  0
  -25.2766   -9.5684   22.4755 H   0  0  0  0  0  0
  -24.0001   -7.4638   22.7474 H   0  0  0  0  0  0
  -21.0845   -8.8771   19.8949 H   0  0  0  0  0  0
  -22.3705  -10.9667   19.6158 H   0  0  0  0  0  0
  -21.1999   -7.6148   23.9716 H   0  0  0  0  0  0
  -21.1473   -6.0522   25.9075 H   0  0  0  0  0  0
  -22.0604   -2.7612   23.2843 H   0  0  0  0  0  0
  -22.4087  -11.9867   22.4788 H   0  0  0  0  0  0
  -21.1097  -13.1235   22.2625 H   0  0  0  0  0  0
  -24.6597  -15.8479   20.5455 H   0  0  0  0  0  0
  -26.2857  -15.6399   20.1355 H   0  0  0  0  0  0
  -26.7189  -32.5390   23.1058 H   0  0  0  0  0  0
  -25.0122  -33.9697   25.0409 H   0  0  0  0  0  0
  -22.7260  -31.2952   21.3874 H   0  0  0  0  0  0
  -23.3758  -35.9593   23.3305 H   0  0  0  0  0  0
  -24.3580  -36.8883   22.2064 H   0  0  0  0  0  0
  -23.7227  -37.6455   23.6681 H   0  0  0  0  0  0
  -26.1109  -31.5253   20.6041 H   0  0  0  0  0  0
  -26.8511  -30.8167   22.0065 H   0  0  0  0  0  0
  -28.1148  -28.9260   21.2052 H   0  0  0  0  0  0
  -25.9520  -25.8787   19.0309 H   0  0  0  0  0  0
  -23.9791  -27.2869   19.0108 H   0  0  0  0  0  0
  -23.7695  -30.5753   19.3955 H   0  0  0  0  0  0
  -22.7668  -29.2319   19.8513 H   0  0  0  0  0  0
  -25.1291  -36.1898   25.0819 H   0  0  0  0  0  0
  -21.0000  -28.3265   24.1376 H   0  0  0  0  0  0
  -20.5666  -26.2302   23.3609 H   0  0  0  0  0  0
  -21.6638  -26.7420   22.1194 H   0  0  0  0  0  0
  -19.6914  -25.6285   21.1234 H   0  0  0  0  0  0
  -19.6673  -27.3189   20.6746 H   0  0  0  0  0  0
  -17.4197  -26.6678   21.4023 H   0  0  0  0  0  0
  -18.0322  -26.0049   22.9001 H   0  0  0  0  0  0
  -19.7954  -30.7272   24.2238 H   0  0  0  0  0  0
  -17.5028  -31.6263   24.5172 H   0  0  0  0  0  0
  -15.5363  -30.2985   23.7662 H   0  0  0  0  0  0
  -15.8668  -28.0815   22.7076 H   0  0  0  0  0  0
  -24.5922  -30.7044   25.7754 H   0  0  0  0  0  0
  -24.8897  -32.2888   26.4825 H   0  0  0  0  0  0
  -25.8039  -30.8921   27.0219 H   0  0  0  0  0  0
  -26.2971  -29.6720   24.1238 H   0  0  0  0  0  0
  -27.4095  -29.7287   25.4710 H   0  0  0  0  0  0
  -27.8821  -30.4289   23.9419 H   0  0  0  0  0  0
  -27.2653  -33.3651   26.2013 H   0  0  0  0  0  0
  -28.3881  -32.6852   25.0323 H   0  0  0  0  0  0
  -28.0697  -31.8486   26.5428 H   0  0  0  0  0  0
  -28.2581  -38.0088   24.7520 H   0  0  0  0  0  0
  -28.1048  -36.2613   24.6286 H   0  0  0  0  0  0
  -27.2285  -37.1422   25.8876 H   0  0  0  0  0  0
  -20.9384  -29.8773   21.6866 H   0  0  0  0  0  0
  -26.0140  -38.2828   24.1430 H   0  0  0  0  0  0
  -24.9701  -20.6879   18.1465 H   0  0  0  0  0  0
  -25.1440  -18.9498   18.4023 H   0  0  0  0  0  0
  -25.9027  -19.7145   16.9981 H   0  0  0  0  0  0
  -28.5377  -16.2866   22.4458 H   0  0  0  0  0  0
  -30.1953  -16.8420   22.7346 H   0  0  0  0  0  0
  -29.8067  -15.1493   22.8920 H   0  0  0  0  0  0
  -30.0341  -22.4789   19.7241 H   0  0  0  0  0  0
  -29.6840  -21.9712   21.3376 H   0  0  0  0  0  0
  -28.9920  -24.1081   21.6047 H   0  0  0  0  0  0
  -27.4556  -23.5296   21.1023 H   0  0  0  0  0  0
  -30.4771  -19.1614   20.9183 H   0  0  0  0  0  0
  -29.0614  -18.5581   21.7118 H   0  0  0  0  0  0
  -30.6746  -17.2669   19.4460 H   0  0  0  0  0  0
  -28.9883  -16.9717   19.3564 H   0  0  0  0  0  0
  -27.7246  -24.7896   18.9224 H   0  0  0  0  0  0
  -29.3960  -24.9582   19.2022 H   0  0  0  0  0  0
  1 25  1  0  0  0
  1 30  2  0  0  0
  1 83  1  0  0  0
  2  3  1  0  0  0
  2 25  1  0  0  0
  2 84  1  0  0  0
  2 85  1  0  0  0
  3  4  1  0  0  0
  3 86  1  0  0  0
  3 87  1  0  0  0
  4  5  1  0  0  0
  4 88  1  0  0  0
  4 89  1  0  0  0
  5  6  1  0  0  0
  5 26  1  0  0  0
  5 90  1  0  0  0
  6 25  1  0  0  0
  6 91  1  0  0  0
  6 92  1  0  0  0
  7  8  2  0  0  0
  7 26  1  0  0  0
  7 29  1  0  0  0
  8  9  1  0  0  0
  8 22  1  0  0  0
  9 10  1  0  0  0
  9 27  2  0  0  0
 10 11  2  0  0  0
 10 15  1  0  0  0
 11 12  1  0  0  0
 11 93  1  0  0  0
 12 13  2  0  0  0
 12 94  1  0  0  0
 13 14  1  0  0  0
 13 31  1  0  0  0
 14 15  2  0  0  0
 14 95  1  0  0  0
 15 96  1  0  0  0
 16 17  2  0  0  0
 16 21  1  0  0  0
 16 31  1  0  0  0
 17 18  1  0  0  0
 17 97  1  0  0  0
 18 19  2  0  0  0
 18 98  1  0  0  0
 19 20  1  0  0  0
 19 24  1  0  0  0
 20 21  2  0  0  0
 20 99  1  0  0  0
 21 23  1  0  0  0
 22 28  1  0  0  0
 22 32  2  0  0  0
 26 27  1  0  0  0
 28100  1  0  0  0
 28101  1  0  0  0
 29102  1  0  0  0
 29103  1  0  0  0
 33 34  1  0  0  0
 33 66  1  0  0  0
 33 70  2  0  0  0
 34 36  1  0  0  0
 34 59  1  0  0  0
 34104  1  0  0  0
 35 44  2  0  0  0
 35 45  1  0  0  0
 35 68  1  0  0  0
 36 56  1  0  0  0
 36105  1  0  0  0
 37 39  1  0  0  0
 37 47  1  0  0  0
 37 66  1  0  0  0
 37106  1  0  0  0
 38 43  2  0  0  0
 38 46  1  0  0  0
 38 47  1  0  0  0
 39 64  1  0  0  0
 39 67  2  0  0  0
 40 52  1  0  0  0
 40 53  2  0  0  0
 40 58  1  0  0  0
 41107  1  0  0  0
 41108  1  0  0  0
 41109  1  0  0  0
 41 48  1  0  0  0
 42 43  1  0  0  0
 42 66  1  0  0  0
 42110  1  0  0  0
 42111  1  0  0  0
 43 44  1  0  0  0
 44112  1  0  0  0
 45 46  2  0  0  0
 45113  1  0  0  0
 46114  1  0  0  0
 47115  1  0  0  0
 47116  1  0  0  0
 48 56  1  0  0  0
 48 65  1  0  0  0
 48117  1  0  0  0
 49 50  1  0  0  0
 49 53  1  0  0  0
 49 64  1  0  0  0
 49118  1  0  0  0
 50 51  1  0  0  0
 50119  1  0  0  0
 50120  1  0  0  0
 51 52  1  0  0  0
 51121  1  0  0  0
 51122  1  0  0  0
 52123  1  0  0  0
 52124  1  0  0  0
 53 54  1  0  0  0
 54 55  2  0  0  0
 54125  1  0  0  0
 55 57  1  0  0  0
 55126  1  0  0  0
 56 69  2  0  0  0
 57 58  2  0  0  0
 57127  1  0  0  0
 58128  1  0  0  0
 59 60  1  0  0  0
 59 61  1  0  0  0
 59 62  1  0  0  0
 60129  1  0  0  0
 60130  1  0  0  0
 60131  1  0  0  0
 61132  1  0  0  0
 61133  1  0  0  0
 61134  1  0  0  0
 62135  1  0  0  0
 62136  1  0  0  0
 62137  1  0  0  0
 63 65  1  0  0  0
 63138  1  0  0  0
 63139  1  0  0  0
 63140  1  0  0  0
 64141  1  0  0  0
 65142  1  0  0  0
 68 79  1  0  0  0
 71 73  1  0  0  0
 71 80  1  0  0  0
 71 81  2  0  0  0
 72 75  1  0  0  0
 72 80  2  0  0  0
 72 82  1  0  0  0
 73143  1  0  0  0
 73144  1  0  0  0
 73145  1  0  0  0
 74 83  1  0  0  0
 74146  1  0  0  0
 74147  1  0  0  0
 74148  1  0  0  0
 75 76  1  0  0  0
 75149  1  0  0  0
 75150  1  0  0  0
 76 79  1  0  0  0
 76151  1  0  0  0
 76152  1  0  0  0
 77 78  1  0  0  0
 77 82  1  0  0  0
 77153  1  0  0  0
 77154  1  0  0  0
 78 83  1  0  0  0
 78155  1  0  0  0
 78156  1  0  0  0
 79157  1  0  0  0
 79158  1  0  0  0
 81 82  1  0  0  0
M  ISO  4   1 100  68 101  79 101  83 100
M  END
> <chiral flag>
0

> <version>
0

> <s_m_source_file>
/data/baiqing/PycharmProjects/Reinvent-master-3.2/result/LINK_invent/BTK/process_docking_weight1_custom_sum_contain_oxygen_bond_distance_aromatic_linkinvent_7_9_3/rearranged_h_0058.sdf

> <i_m_source_file_index>
8

> <r_mmod_Potential_Energy-OPLS-2005>
309.334747314453

> <r_mmod_Stretch_Energy-OPLS-2005>
142.879638671875

> <r_mmod_Bend_Energy-OPLS-2005>
227.707809448242

> <r_mmod_Torsional_Energy-OPLS-2005>
303.279693603516

> <r_mmod_Improper_Torsional_Energy-OPLS-2005>
7.062584400177

> <r_mmod_Van_der_Waal_Energy-OPLS-2005>
117.577453613281

> <r_mmod_Electrostatic_Energy-OPLS-2005>
-357.924865722656

> <r_mmod_Solvation_Energy-OPLS-2005>
-210.382629394531

> <b_mmod_Minimization_Converged-OPLS-2005>
0

> <r_mmod_RMS_Derivative-OPLS-2005>
1.22436785697937

$$$$
8
                    3D
 Structure written by MMmdl.
151159  0  0  1  0            999 V2000
  -30.5204  -15.0052   20.3976 C   0  0  0  0  0  0
  -30.4385  -12.6243   19.4989 C   0  0  0  0  0  0
  -29.5209  -12.5376   18.2547 C   0  0  0  0  0  0
  -28.0506  -12.3311   18.6705 C   0  0  0  0  0  0
  -27.6265  -13.2588   19.8403 C   0  0  2  0  0  0
  -28.6721  -13.3011   20.9737 C   0  0  0  0  0  0
  -25.2437  -13.8220   20.5744 C   0  0  0  0  0  0
  -24.1776  -13.0424   20.9263 C   0  0  0  0  0  0
  -24.6404  -11.6924   20.8796 C   0  0  0  0  0  0
  -23.9083  -10.4300   21.0437 C   0  0  0  0  0  0
  -24.3629   -9.4197   21.9199 C   0  0  0  0  0  0
  -23.6304   -8.2227   22.0739 C   0  0  0  0  0  0
  -22.4281   -8.0282   21.3537 C   0  0  0  0  0  0
  -21.9946   -9.0261   20.4639 C   0  0  0  0  0  0
  -22.7265  -10.2147   20.3067 C   0  0  0  0  0  0
  -21.6867   -6.0757   22.5295 C   0  0  0  0  0  0
  -21.4016   -6.5656   23.8230 C   0  0  0  0  0  0
  -21.3657   -5.6801   24.9186 C   0  0  0  0  0  0
  -21.6032   -4.3070   24.7244 C   0  0  0  0  0  0
  -21.8814   -3.8168   23.4369 C   0  0  0  0  0  0
  -21.9192   -4.6984   22.3421 C   0  0  0  0  0  0
  -22.7792  -13.5200   21.1901 C   0  0  0  0  0  0
  -22.1653   -4.2171   21.1006 F   0  0  0  0  0  0
  -21.5634   -3.4539   25.7750 F   0  0  0  0  0  0
  -29.9351  -13.7352   20.3616 N   0  0  0  0  0  0
  -26.2877  -12.9475   20.3293 N   0  0  0  0  0  0
  -25.9347  -11.6596   20.5788 N   0  0  0  0  0  0
  -22.0438  -12.8169   22.0452 N   0  0  0  0  0  0
  -25.4059  -15.1935   20.4110 N   0  0  0  0  0  0
  -31.7314  -15.0570   20.1575 O   0  0  0  0  0  0
  -21.6641   -6.8887   21.4242 O   0  0  0  0  0  0
  -22.3472  -14.5488   20.6732 O   0  0  0  0  0  0
  -24.6462  -31.8423   23.1863 C   0  0  0  0  0  0
  -25.9228  -32.4679   23.8254 C   0  0  1  0  0  0
  -27.2099  -27.0856   20.1604 C   0  0  0  0  0  0
  -25.5972  -33.8486   24.2166 N   0  0  0  0  0  0
  -23.4529  -30.4594   21.5347 C   0  0  2  0  0  0
  -24.9024  -28.8794   20.1167 C   0  0  0  0  0  0
  -22.7575  -29.4536   22.4871 C   0  0  0  0  0  0
  -18.0299  -28.1402   22.8470 C   0  0  0  0  0  0
  -24.1489  -36.7237   23.2649 C   0  0  0  0  0  0
  -26.0139  -30.6968   21.3958 C   0  0  0  0  0  0
  -26.0833  -29.3034   20.7393 C   0  0  0  0  0  0
  -27.2380  -28.4233   20.7455 C   0  0  0  0  0  0
  -26.0072  -26.7879   19.4818 C   0  0  0  0  0  0
  -24.8807  -27.6366   19.4712 C   0  0  0  0  0  0
  -23.6824  -29.7873   20.1552 C   0  0  0  0  0  0
  -25.4127  -36.3021   24.0310 C   0  0  1  0  0  0
  -20.5922  -28.3729   23.1238 C   0  0  2  0  0  0
  -20.6789  -26.9435   22.5409 C   0  0  0  0  0  0
  -19.5766  -26.6395   21.5213 C   0  0  0  0  0  0
  -18.1945  -26.7941   22.1619 C   0  0  0  0  0  0
  -19.1555  -28.8886   23.2848 C   0  0  0  0  0  0
  -18.9472  -30.1484   23.8877 C   0  0  0  0  0  0
  -17.6462  -30.6606   24.0553 C   0  0  0  0  0  0
  -25.9086  -34.9397   23.5046 C   0  0  0  0  0  0
  -16.5361  -29.9095   23.6348 C   0  0  0  0  0  0
  -16.7285  -28.6516   23.0368 C   0  0  0  0  0  0
  -26.4537  -31.6554   25.0703 C   0  0  0  0  0  0
  -25.3727  -31.3714   26.1392 C   0  0  0  0  0  0
  -27.0415  -30.2956   24.6309 C   0  0  0  0  0  0
  -27.6075  -32.4312   25.7486 C   0  0  0  0  0  0
  -27.5570  -37.1766   24.8477 C   0  0  0  0  0  0
  -21.4270  -29.3053   22.3604 N   0  0  0  0  0  0
  -26.4290  -37.3736   23.9410 N   0  0  0  0  0  0
  -24.7251  -31.0213   22.0941 N   0  0  0  0  0  0
  -23.4185  -28.8102   23.3063 O   0  0  0  0  0  0
  -28.2390  -26.0581   20.2066 O   0  0  0  0  0  0
  -26.5670  -34.8908   22.4622 O   0  0  0  0  0  0
  -23.5566  -32.1321   23.7045 O   0  0  0  0  0  0
  -30.1352  -23.3644   19.5976 C   0  0  0  0  0  0
  -30.9309  -22.2357   19.3369 C   0  0  0  0  0  0
  -28.8719  -23.1927   20.1692 C   0  0  0  0  0  0
  -29.3908  -20.7278   20.1953 C   0  0  0  0  0  0
  -27.9386  -18.7993   19.2877 C   0  0  0  0  0  0
  -27.8775  -24.5229   20.3542 C   0  0  0  0  0  0
  -30.0939  -17.7750   20.3609 C   0  0  0  0  0  0
  -28.9995  -19.1017   20.3523 C   0  0  1  0  0  0
  -30.5606  -20.9616   19.6096 N   0  0  0  0  0  0
  -28.5424  -21.8255   20.4550 N   0  0  0  0  0  0
  -29.7441  -16.2081   20.4906 N   0  0  0  0  0  0
  -31.4735  -12.7842   19.1930 H   0  0  0  0  0  0
  -30.4427  -11.6795   20.0437 H   0  0  0  0  0  0
  -29.8429  -11.7275   17.5969 H   0  0  0  0  0  0
  -29.6077  -13.4567   17.6728 H   0  0  0  0  0  0
  -27.9350  -11.2878   18.9635 H   0  0  0  0  0  0
  -27.3873  -12.4760   17.8149 H   0  0  0  0  0  0
  -27.5829  -14.2611   19.4132 H   0  0  0  0  0  0
  -28.7737  -12.3257   21.4523 H   0  0  0  0  0  0
  -28.3683  -13.9985   21.7561 H   0  0  0  0  0  0
  -25.2756   -9.5683   22.4813 H   0  0  0  0  0  0
  -24.0026   -7.4610   22.7434 H   0  0  0  0  0  0
  -21.0886   -8.8790   19.8940 H   0  0  0  0  0  0
  -22.3715  -10.9702   19.6204 H   0  0  0  0  0  0
  -21.2010   -7.6162   23.9750 H   0  0  0  0  0  0
  -21.1471   -6.0527   25.9093 H   0  0  0  0  0  0
  -22.0598   -2.7632   23.2858 H   0  0  0  0  0  0
  -22.4067  -11.9849   22.4868 H   0  0  0  0  0  0
  -21.1044  -13.1189   22.2643 H   0  0  0  0  0  0
  -24.6284  -15.8365   20.5229 H   0  0  0  0  0  0
  -26.2226  -15.6291   20.0053 H   0  0  0  0  0  0
  -26.7291  -32.5262   23.0973 H   0  0  0  0  0  0
  -25.0118  -33.9600   25.0313 H   0  0  0  0  0  0
  -22.7586  -31.2874   21.3765 H   0  0  0  0  0  0
  -23.3777  -35.9545   23.3310 H   0  0  0  0  0  0
  -24.3571  -36.8872   22.2067 H   0  0  0  0  0  0
  -23.7214  -37.6416   23.6693 H   0  0  0  0  0  0
  -26.1744  -31.4470   20.6199 H   0  0  0  0  0  0
  -26.8819  -30.7479   22.0407 H   0  0  0  0  0  0
  -28.1351  -28.7423   21.2590 H   0  0  0  0  0  0
  -25.8988  -25.8567   18.9488 H   0  0  0  0  0  0
  -23.9824  -27.3095   18.9643 H   0  0  0  0  0  0
  -23.8255  -30.5626   19.4024 H   0  0  0  0  0  0
  -22.7933  -29.2345   19.8449 H   0  0  0  0  0  0
  -25.1305  -36.1858   25.0799 H   0  0  0  0  0  0
  -20.9985  -28.3335   24.1363 H   0  0  0  0  0  0
  -20.5710  -26.2330   23.3617 H   0  0  0  0  0  0
  -21.6651  -26.7463   22.1188 H   0  0  0  0  0  0
  -19.6943  -25.6302   21.1261 H   0  0  0  0  0  0
  -19.6730  -27.3190   20.6734 H   0  0  0  0  0  0
  -17.4214  -26.6690   21.4031 H   0  0  0  0  0  0
  -18.0361  -26.0092   22.9022 H   0  0  0  0  0  0
  -19.7955  -30.7311   24.2234 H   0  0  0  0  0  0
  -17.5029  -31.6286   24.5149 H   0  0  0  0  0  0
  -15.5363  -30.2978   23.7707 H   0  0  0  0  0  0
  -15.8685  -28.0828   22.7086 H   0  0  0  0  0  0
  -24.5935  -30.7045   25.7698 H   0  0  0  0  0  0
  -24.8889  -32.2871   26.4799 H   0  0  0  0  0  0
  -25.8012  -30.8902   27.0200 H   0  0  0  0  0  0
  -26.3042  -29.6653   24.1336 H   0  0  0  0  0  0
  -27.4051  -29.7268   25.4881 H   0  0  0  0  0  0
  -27.8933  -30.4187   23.9621 H   0  0  0  0  0  0
  -27.2709  -33.3655   26.1991 H   0  0  0  0  0  0
  -28.3929  -32.6799   25.0337 H   0  0  0  0  0  0
  -28.0711  -31.8491   26.5461 H   0  0  0  0  0  0
  -28.2582  -38.0068   24.7523 H   0  0  0  0  0  0
  -28.1066  -36.2596   24.6312 H   0  0  0  0  0  0
  -27.2288  -37.1414   25.8880 H   0  0  0  0  0  0
  -20.9490  -29.8710   21.6727 H   0  0  0  0  0  0
  -26.0164  -38.2804   24.1428 H   0  0  0  0  0  0
  -30.4853  -24.3544   19.3360 H   0  0  0  0  0  0
  -31.8994  -22.3594   18.8758 H   0  0  0  0  0  0
  -28.3523  -18.9202   18.2874 H   0  0  0  0  0  0
  -27.0980  -19.4875   19.3822 H   0  0  0  0  0  0
  -27.5485  -17.7864   19.3813 H   0  0  0  0  0  0
  -27.0543  -24.3014   19.6798 H   0  0  0  0  0  0
  -27.4470  -24.4276   21.3506 H   0  0  0  0  0  0
  -30.8215  -17.9812   21.1462 H   0  0  0  0  0  0
  -30.6650  -17.8580   19.4344 H   0  0  0  0  0  0
  -28.4996  -19.0524   21.3191 H   0  0  0  0  0  0
  -28.7627  -16.0232   20.6415 H   0  0  0  0  0  0
  1 25  1  0  0  0
  1 30  2  0  0  0
  1 81  1  0  0  0
  2  3  1  0  0  0
  2 25  1  0  0  0
  2 82  1  0  0  0
  2 83  1  0  0  0
  3  4  1  0  0  0
  3 84  1  0  0  0
  3 85  1  0  0  0
  4  5  1  0  0  0
  4 86  1  0  0  0
  4 87  1  0  0  0
  5  6  1  0  0  0
  5 26  1  0  0  0
  5 88  1  0  0  0
  6 25  1  0  0  0
  6 89  1  0  0  0
  6 90  1  0  0  0
  7  8  2  0  0  0
  7 26  1  0  0  0
  7 29  1  0  0  0
  8  9  1  0  0  0
  8 22  1  0  0  0
  9 10  1  0  0  0
  9 27  2  0  0  0
 10 11  2  0  0  0
 10 15  1  0  0  0
 11 12  1  0  0  0
 11 91  1  0  0  0
 12 13  2  0  0  0
 12 92  1  0  0  0
 13 14  1  0  0  0
 13 31  1  0  0  0
 14 15  2  0  0  0
 14 93  1  0  0  0
 15 94  1  0  0  0
 16 17  2  0  0  0
 16 21  1  0  0  0
 16 31  1  0  0  0
 17 18  1  0  0  0
 17 95  1  0  0  0
 18 19  2  0  0  0
 18 96  1  0  0  0
 19 20  1  0  0  0
 19 24  1  0  0  0
 20 21  2  0  0  0
 20 97  1  0  0  0
 21 23  1  0  0  0
 22 28  1  0  0  0
 22 32  2  0  0  0
 26 27  1  0  0  0
 28 98  1  0  0  0
 28 99  1  0  0  0
 29100  1  0  0  0
 29101  1  0  0  0
 33 34  1  0  0  0
 33 66  1  0  0  0
 33 70  2  0  0  0
 34 36  1  0  0  0
 34 59  1  0  0  0
 34102  1  0  0  0
 35 44  2  0  0  0
 35 45  1  0  0  0
 35 68  1  0  0  0
 36 56  1  0  0  0
 36103  1  0  0  0
 37 39  1  0  0  0
 37 47  1  0  0  0
 37 66  1  0  0  0
 37104  1  0  0  0
 38 43  2  0  0  0
 38 46  1  0  0  0
 38 47  1  0  0  0
 39 64  1  0  0  0
 39 67  2  0  0  0
 40 52  1  0  0  0
 40 53  2  0  0  0
 40 58  1  0  0  0
 41105  1  0  0  0
 41106  1  0  0  0
 41107  1  0  0  0
 41 48  1  0  0  0
 42 43  1  0  0  0
 42 66  1  0  0  0
 42108  1  0  0  0
 42109  1  0  0  0
 43 44  1  0  0  0
 44110  1  0  0  0
 45 46  2  0  0  0
 45111  1  0  0  0
 46112  1  0  0  0
 47113  1  0  0  0
 47114  1  0  0  0
 48 56  1  0  0  0
 48 65  1  0  0  0
 48115  1  0  0  0
 49 50  1  0  0  0
 49 53  1  0  0  0
 49 64  1  0  0  0
 49116  1  0  0  0
 50 51  1  0  0  0
 50117  1  0  0  0
 50118  1  0  0  0
 51 52  1  0  0  0
 51119  1  0  0  0
 51120  1  0  0  0
 52121  1  0  0  0
 52122  1  0  0  0
 53 54  1  0  0  0
 54 55  2  0  0  0
 54123  1  0  0  0
 55 57  1  0  0  0
 55124  1  0  0  0
 56 69  2  0  0  0
 57 58  2  0  0  0
 57125  1  0  0  0
 58126  1  0  0  0
 59 60  1  0  0  0
 59 61  1  0  0  0
 59 62  1  0  0  0
 60127  1  0  0  0
 60128  1  0  0  0
 60129  1  0  0  0
 61130  1  0  0  0
 61131  1  0  0  0
 61132  1  0  0  0
 62133  1  0  0  0
 62134  1  0  0  0
 62135  1  0  0  0
 63 65  1  0  0  0
 63136  1  0  0  0
 63137  1  0  0  0
 63138  1  0  0  0
 64139  1  0  0  0
 65140  1  0  0  0
 68 76  1  0  0  0
 71 72  2  0  0  0
 71 73  1  0  0  0
 71141  1  0  0  0
 72 79  1  0  0  0
 72142  1  0  0  0
 73 76  1  0  0  0
 73 80  2  0  0  0
 74 78  1  0  0  0
 74 79  2  0  0  0
 74 80  1  0  0  0
 75143  1  0  0  0
 75144  1  0  0  0
 75145  1  0  0  0
 75 78  1  0  0  0
 76146  1  0  0  0
 76147  1  0  0  0
 77 78  1  0  0  0
 77 81  1  0  0  0
 77148  1  0  0  0
 77149  1  0  0  0
 78150  1  0  0  0
 81151  1  0  0  0
M  ISO  4   1 100  68 101  76 101  81 100
M  END
> <chiral flag>
0

> <version>
0

> <s_m_source_file>
/data/baiqing/PycharmProjects/Reinvent-master-3.2/result/LINK_invent/BTK/process_docking_weight1_custom_sum_contain_oxygen_bond_distance_aromatic_linkinvent_7_9_3/rearranged_h_0058.sdf

> <i_m_source_file_index>
9

> <r_mmod_Potential_Energy-OPLS-2005>
189.654159545898

> <r_mmod_Stretch_Energy-OPLS-2005>
317.263397216797

> <r_mmod_Bend_Energy-OPLS-2005>
276.044860839844

> <r_mmod_Torsional_Energy-OPLS-2005>
217.34602355957

> <r_mmod_Improper_Torsional_Energy-OPLS-2005>
5.59100437164307

> <r_mmod_Van_der_Waal_Energy-OPLS-2005>
132.939300537109

> <r_mmod_Electrostatic_Energy-OPLS-2005>
-753.8466796875

> <r_mmod_Solvation_Energy-OPLS-2005>
-243.039154052734

> <b_mmod_Minimization_Converged-OPLS-2005>
0

> <r_mmod_RMS_Derivative-OPLS-2005>
3.39197897911072

$$$$
9
                    3D
 Structure written by MMmdl.
157165  0  0  1  0            999 V2000
  -30.4125  -15.4155   20.3201 C   0  0  0  0  0  0
  -30.4378  -12.9251   19.4960 C   0  0  0  0  0  0
  -29.5341  -12.5842   18.2839 C   0  0  0  0  0  0
  -28.1002  -12.2678   18.7428 C   0  0  0  0  0  0
  -27.6009  -13.2687   19.8108 C   0  0  2  0  0  0
  -28.6418  -13.5515   20.9157 C   0  0  0  0  0  0
  -25.2404  -13.8214   20.5817 C   0  0  0  0  0  0
  -24.1735  -13.0417   20.9283 C   0  0  0  0  0  0
  -24.6384  -11.6908   20.8790 C   0  0  0  0  0  0
  -23.9078  -10.4279   21.0425 C   0  0  0  0  0  0
  -24.3623   -9.4188   21.9200 C   0  0  0  0  0  0
  -23.6286   -8.2231   22.0763 C   0  0  0  0  0  0
  -22.4264   -8.0281   21.3555 C   0  0  0  0  0  0
  -21.9903   -9.0260   20.4660 C   0  0  0  0  0  0
  -22.7244  -10.2135   20.3071 C   0  0  0  0  0  0
  -21.6850   -6.0737   22.5280 C   0  0  0  0  0  0
  -21.4019   -6.5639   23.8213 C   0  0  0  0  0  0
  -21.3655   -5.6794   24.9173 C   0  0  0  0  0  0
  -21.6036   -4.3053   24.7223 C   0  0  0  0  0  0
  -21.8817   -3.8146   23.4340 C   0  0  0  0  0  0
  -21.9189   -4.6966   22.3398 C   0  0  0  0  0  0
  -22.7752  -13.5186   21.1906 C   0  0  0  0  0  0
  -22.1656   -4.2155   21.0975 F   0  0  0  0  0  0
  -21.5624   -3.4537   25.7731 F   0  0  0  0  0  0
  -29.8355  -14.0999   20.2382 N   0  0  0  0  0  0
  -26.2812  -12.9453   20.3290 N   0  0  0  0  0  0
  -25.9321  -11.6574   20.5760 N   0  0  0  0  0  0
  -22.0393  -12.8193   22.0470 N   0  0  0  0  0  0
  -25.4082  -15.1954   20.4284 N   0  0  0  0  0  0
  -31.6527  -15.3440   20.3185 O   0  0  0  0  0  0
  -21.6627   -6.8879   21.4239 O   0  0  0  0  0  0
  -22.3445  -14.5490   20.6734 O   0  0  0  0  0  0
  -24.6705  -31.8156   23.1653 C   0  0  0  0  0  0
  -25.9349  -32.4546   23.8149 C   0  0  1  0  0  0
  -27.2211  -26.8507   20.1917 C   0  0  0  0  0  0
  -25.5987  -33.8364   24.2044 N   0  0  0  0  0  0
  -23.4891  -30.4246   21.5166 C   0  0  2  0  0  0
  -24.9440  -28.7971   20.1173 C   0  0  0  0  0  0
  -22.7709  -29.4390   22.4763 C   0  0  0  0  0  0
  -18.0330  -28.1407   22.8461 C   0  0  0  0  0  0
  -24.1496  -36.7192   23.2648 C   0  0  0  0  0  0
  -26.0638  -30.5969   21.4077 C   0  0  0  0  0  0
  -26.1315  -29.1784   20.7541 C   0  0  0  0  0  0
  -27.2629  -28.2297   20.7620 C   0  0  0  0  0  0
  -26.0000  -26.6441   19.5062 C   0  0  0  0  0  0
  -24.9081  -27.5520   19.4717 C   0  0  0  0  0  0
  -23.7350  -29.7355   20.1460 C   0  0  0  0  0  0
  -25.4139  -36.2943   24.0290 C   0  0  1  0  0  0
  -20.5960  -28.3756   23.1175 C   0  0  2  0  0  0
  -20.6803  -26.9429   22.5403 C   0  0  0  0  0  0
  -19.5777  -26.6368   21.5215 C   0  0  0  0  0  0
  -18.1959  -26.7936   22.1621 C   0  0  0  0  0  0
  -19.1594  -28.8903   23.2800 C   0  0  0  0  0  0
  -18.9498  -30.1494   23.8838 C   0  0  0  0  0  0
  -17.6490  -30.6589   24.0550 C   0  0  0  0  0  0
  -25.9106  -34.9324   23.4997 C   0  0  0  0  0  0
  -16.5381  -29.9073   23.6344 C   0  0  0  0  0  0
  -16.7312  -28.6496   23.0357 C   0  0  0  0  0  0
  -26.4572  -31.6521   25.0708 C   0  0  0  0  0  0
  -25.3678  -31.3802   26.1354 C   0  0  0  0  0  0
  -27.0473  -30.2874   24.6501 C   0  0  0  0  0  0
  -27.6052  -32.4346   25.7514 C   0  0  0  0  0  0
  -27.5569  -37.1752   24.8463 C   0  0  0  0  0  0
  -21.4371  -29.3033   22.3517 N   0  0  0  0  0  0
  -26.4281  -37.3685   23.9402 N   0  0  0  0  0  0
  -24.7634  -30.9748   22.0828 N   0  0  0  0  0  0
  -23.4225  -28.7965   23.3035 O   0  0  0  0  0  0
  -28.2083  -25.7019   20.2314 O   0  0  0  0  0  0
  -26.5728  -34.8870   22.4598 O   0  0  0  0  0  0
  -23.5759  -32.1155   23.6704 O   0  0  0  0  0  0
  -29.8130  -22.1137   19.3253 C   0  0  0  0  0  0
  -28.7522  -22.4979   20.1411 C   0  0  0  0  0  0
  -29.3612  -20.0027   20.2698 C   0  0  0  0  0  0
  -29.8194  -17.3239   17.7306 C   0  0  0  0  0  0
  -30.9469  -18.4145   21.7204 C   0  0  0  0  0  0
  -27.4904  -20.8268   21.6881 C   0  0  0  0  0  0
  -27.8677  -24.0511   20.2835 C   0  0  0  0  0  0
  -28.9338  -16.8678   18.9040 C   0  0  0  0  0  0
  -29.6992  -18.3235   20.8302 C   0  0  2  0  0  0
  -28.5278  -21.1161   20.6984 N   0  0  0  0  0  0
  -30.1341  -20.7320   19.4300 N   0  3  0  0  0  0
  -29.7000  -16.7566   20.1495 N   0  0  0  0  0  0
  -31.4382  -13.1664   19.1348 H   0  0  0  0  0  0
  -30.5603  -12.0614   20.1519 H   0  0  0  0  0  0
  -29.9449  -11.7410   17.7263 H   0  0  0  0  0  0
  -29.5210  -13.4289   17.5941 H   0  0  0  0  0  0
  -28.1067  -11.2630   19.1671 H   0  0  0  0  0  0
  -27.4202  -12.2364   17.8904 H   0  0  0  0  0  0
  -27.4621  -14.1917   19.2573 H   0  0  0  0  0  0
  -28.8659  -12.6572   21.4992 H   0  0  0  0  0  0
  -28.2525  -14.2912   21.6168 H   0  0  0  0  0  0
  -25.2774   -9.5655   22.4779 H   0  0  0  0  0  0
  -23.9992   -7.4610   22.7471 H   0  0  0  0  0  0
  -21.0840   -8.8780   19.8963 H   0  0  0  0  0  0
  -22.3705  -10.9678   19.6180 H   0  0  0  0  0  0
  -21.2025   -7.6150   23.9722 H   0  0  0  0  0  0
  -21.1477   -6.0522   25.9081 H   0  0  0  0  0  0
  -22.0601   -2.7611   23.2835 H   0  0  0  0  0  0
  -22.3992  -11.9860   22.4884 H   0  0  0  0  0  0
  -21.1012  -13.1233   22.2652 H   0  0  0  0  0  0
  -24.6425  -15.8488   20.5536 H   0  0  0  0  0  0
  -26.2639  -15.6427   20.1292 H   0  0  0  0  0  0
  -26.7423  -32.5062   23.0863 H   0  0  0  0  0  0
  -25.0057  -33.9428   25.0144 H   0  0  0  0  0  0
  -22.8061  -31.2583   21.3400 H   0  0  0  0  0  0
  -23.3763  -35.9519   23.3280 H   0  0  0  0  0  0
  -24.3573  -36.8871   22.2069 H   0  0  0  0  0  0
  -23.7251  -37.6367   23.6731 H   0  0  0  0  0  0
  -26.2513  -31.3318   20.6240 H   0  0  0  0  0  0
  -26.9211  -30.6599   22.0661 H   0  0  0  0  0  0
  -28.1619  -28.5243   21.2840 H   0  0  0  0  0  0
  -25.8505  -25.7027   18.9991 H   0  0  0  0  0  0
  -24.0083  -27.2554   18.9506 H   0  0  0  0  0  0
  -23.9009  -30.5011   19.3871 H   0  0  0  0  0  0
  -22.8422  -29.1960   19.8249 H   0  0  0  0  0  0
  -25.1338  -36.1730   25.0782 H   0  0  0  0  0  0
  -21.0040  -28.3361   24.1302 H   0  0  0  0  0  0
  -20.5672  -26.2373   23.3646 H   0  0  0  0  0  0
  -21.6663  -26.7389   22.1216 H   0  0  0  0  0  0
  -19.6930  -25.6263   21.1278 H   0  0  0  0  0  0
  -19.6709  -27.3150   20.6720 H   0  0  0  0  0  0
  -17.4222  -26.6673   21.4029 H   0  0  0  0  0  0
  -18.0355  -26.0096   22.9038 H   0  0  0  0  0  0
  -19.7972  -30.7332   24.2177 H   0  0  0  0  0  0
  -17.5035  -31.6265   24.5163 H   0  0  0  0  0  0
  -15.5379  -30.2952   23.7698 H   0  0  0  0  0  0
  -15.8713  -28.0796   22.7101 H   0  0  0  0  0  0
  -24.5862  -30.7151   25.7663 H   0  0  0  0  0  0
  -24.8868  -32.3016   26.4648 H   0  0  0  0  0  0
  -25.7887  -30.9048   27.0222 H   0  0  0  0  0  0
  -26.3155  -29.6532   24.1488 H   0  0  0  0  0  0
  -27.3943  -29.7269   25.5191 H   0  0  0  0  0  0
  -27.9125  -30.4028   23.9971 H   0  0  0  0  0  0
  -27.2606  -33.3688   26.1964 H   0  0  0  0  0  0
  -28.3928  -32.6841   25.0391 H   0  0  0  0  0  0
  -28.0652  -31.8563   26.5536 H   0  0  0  0  0  0
  -28.2566  -38.0067   24.7505 H   0  0  0  0  0  0
  -28.1085  -36.2589   24.6296 H   0  0  0  0  0  0
  -27.2288  -37.1401   25.8869 H   0  0  0  0  0  0
  -20.9643  -29.8716   21.6626 H   0  0  0  0  0  0
  -26.0118  -38.2741   24.1410 H   0  0  0  0  0  0
  -30.3775  -22.7410   18.6493 H   0  0  0  0  0  0
  -29.2301  -17.4334   16.8194 H   0  0  0  0  0  0
  -30.6115  -16.6047   17.5206 H   0  0  0  0  0  0
  -30.2932  -18.2843   17.9282 H   0  0  0  0  0  0
  -30.8603  -19.2293   22.4397 H   0  0  0  0  0  0
  -31.8394  -18.5991   21.1217 H   0  0  0  0  0  0
  -31.1108  -17.5002   22.2897 H   0  0  0  0  0  0
  -26.8866  -21.7154   21.8650 H   0  0  0  0  0  0
  -27.9603  -20.5162   22.6213 H   0  0  0  0  0  0
  -26.8492  -20.0273   21.3158 H   0  0  0  0  0  0
  -27.3219  -23.9589   21.2221 H   0  0  0  0  0  0
  -27.0875  -23.9443   19.5316 H   0  0  0  0  0  0
  -28.4825  -15.9194   18.6294 H   0  0  0  0  0  0
  -28.1011  -17.5610   19.0363 H   0  0  0  0  0  0
  -28.8722  -18.2074   21.5315 H   0  0  0  0  0  0
  -30.9193  -20.3274   18.9351 H   0  0  0  0  0  0
  1 25  1  0  0  0
  1 30  2  0  0  0
  1 82  1  0  0  0
  2  3  1  0  0  0
  2 25  1  0  0  0
  2 83  1  0  0  0
  2 84  1  0  0  0
  3  4  1  0  0  0
  3 85  1  0  0  0
  3 86  1  0  0  0
  4  5  1  0  0  0
  4 87  1  0  0  0
  4 88  1  0  0  0
  5  6  1  0  0  0
  5 26  1  0  0  0
  5 89  1  0  0  0
  6 25  1  0  0  0
  6 90  1  0  0  0
  6 91  1  0  0  0
  7  8  2  0  0  0
  7 26  1  0  0  0
  7 29  1  0  0  0
  8  9  1  0  0  0
  8 22  1  0  0  0
  9 10  1  0  0  0
  9 27  2  0  0  0
 10 11  2  0  0  0
 10 15  1  0  0  0
 11 12  1  0  0  0
 11 92  1  0  0  0
 12 13  2  0  0  0
 12 93  1  0  0  0
 13 14  1  0  0  0
 13 31  1  0  0  0
 14 15  2  0  0  0
 14 94  1  0  0  0
 15 95  1  0  0  0
 16 17  2  0  0  0
 16 21  1  0  0  0
 16 31  1  0  0  0
 17 18  1  0  0  0
 17 96  1  0  0  0
 18 19  2  0  0  0
 18 97  1  0  0  0
 19 20  1  0  0  0
 19 24  1  0  0  0
 20 21  2  0  0  0
 20 98  1  0  0  0
 21 23  1  0  0  0
 22 28  1  0  0  0
 22 32  2  0  0  0
 26 27  1  0  0  0
 28 99  1  0  0  0
 28100  1  0  0  0
 29101  1  0  0  0
 29102  1  0  0  0
 33 34  1  0  0  0
 33 66  1  0  0  0
 33 70  2  0  0  0
 34 36  1  0  0  0
 34 59  1  0  0  0
 34103  1  0  0  0
 35 44  2  0  0  0
 35 45  1  0  0  0
 35 68  1  0  0  0
 36 56  1  0  0  0
 36104  1  0  0  0
 37 39  1  0  0  0
 37 47  1  0  0  0
 37 66  1  0  0  0
 37105  1  0  0  0
 38 43  2  0  0  0
 38 46  1  0  0  0
 38 47  1  0  0  0
 39 64  1  0  0  0
 39 67  2  0  0  0
 40 52  1  0  0  0
 40 53  2  0  0  0
 40 58  1  0  0  0
 41106  1  0  0  0
 41107  1  0  0  0
 41108  1  0  0  0
 41 48  1  0  0  0
 42 43  1  0  0  0
 42 66  1  0  0  0
 42109  1  0  0  0
 42110  1  0  0  0
 43 44  1  0  0  0
 44111  1  0  0  0
 45 46  2  0  0  0
 45112  1  0  0  0
 46113  1  0  0  0
 47114  1  0  0  0
 47115  1  0  0  0
 48 56  1  0  0  0
 48 65  1  0  0  0
 48116  1  0  0  0
 49 50  1  0  0  0
 49 53  1  0  0  0
 49 64  1  0  0  0
 49117  1  0  0  0
 50 51  1  0  0  0
 50118  1  0  0  0
 50119  1  0  0  0
 51 52  1  0  0  0
 51120  1  0  0  0
 51121  1  0  0  0
 52122  1  0  0  0
 52123  1  0  0  0
 53 54  1  0  0  0
 54 55  2  0  0  0
 54124  1  0  0  0
 55 57  1  0  0  0
 55125  1  0  0  0
 56 69  2  0  0  0
 57 58  2  0  0  0
 57126  1  0  0  0
 58127  1  0  0  0
 59 60  1  0  0  0
 59 61  1  0  0  0
 59 62  1  0  0  0
 60128  1  0  0  0
 60129  1  0  0  0
 60130  1  0  0  0
 61131  1  0  0  0
 61132  1  0  0  0
 61133  1  0  0  0
 62134  1  0  0  0
 62135  1  0  0  0
 62136  1  0  0  0
 63 65  1  0  0  0
 63137  1  0  0  0
 63138  1  0  0  0
 63139  1  0  0  0
 64140  1  0  0  0
 65141  1  0  0  0
 68 77  1  0  0  0
 71 72  2  0  0  0
 71 81  1  0  0  0
 71142  1  0  0  0
 72 77  1  0  0  0
 72 80  1  0  0  0
 73 79  1  0  0  0
 73 80  1  0  0  0
 73 81  2  0  0  0
 74 78  1  0  0  0
 74143  1  0  0  0
 74144  1  0  0  0
 74145  1  0  0  0
 75146  1  0  0  0
 75147  1  0  0  0
 75148  1  0  0  0
 75 79  1  0  0  0
 76 80  1  0  0  0
 76149  1  0  0  0
 76150  1  0  0  0
 76151  1  0  0  0
 77152  1  0  0  0
 77153  1  0  0  0
 78 82  1  0  0  0
 78154  1  0  0  0
 78155  1  0  0  0
 79 82  1  0  0  0
 79156  1  0  0  0
 81157  1  0  0  0
M  CHG  1  81   1
M  ISO  4   1 100  68 101  77 101  82 100
M  END
> <chiral flag>
0

> <version>
0

> <s_m_source_file>
/data/baiqing/PycharmProjects/Reinvent-master-3.2/result/LINK_invent/BTK/process_docking_weight1_custom_sum_contain_oxygen_bond_distance_aromatic_linkinvent_7_9_3/rearranged_h_0058.sdf

> <i_m_source_file_index>
10

> <r_mmod_Potential_Energy-OPLS-2005>
1685.58312988281

> <r_mmod_Stretch_Energy-OPLS-2005>
720.874572753906

> <r_mmod_Bend_Energy-OPLS-2005>
496.642913818359

> <r_mmod_Torsional_Energy-OPLS-2005>
317.112609863281

> <r_mmod_Improper_Torsional_Energy-OPLS-2005>
8.45074844360352

> <r_mmod_Van_der_Waal_Energy-OPLS-2005>
97.5130386352539

> <r_mmod_Electrostatic_Energy-OPLS-2005>
-156.987014770508

> <r_mmod_Solvation_Energy-OPLS-2005>
-412.726806640625

> <b_mmod_Minimization_Converged-OPLS-2005>
0

> <r_mmod_RMS_Derivative-OPLS-2005>
1.58624315261841

$$$$
10
                    3D
 Structure written by MMmdl.
175183  0  0  1  0            999 V2000
  -30.7539  -14.4339   20.6871 C   0  0  0  0  0  0
  -30.4130  -12.3209   19.4320 C   0  0  0  0  0  0
  -29.5091  -12.5643   18.2067 C   0  0  0  0  0  0
  -28.0300  -12.3915   18.5984 C   0  0  0  0  0  0
  -27.6643  -13.2035   19.8706 C   0  0  2  0  0  0
  -28.6851  -12.9431   20.9958 C   0  0  0  0  0  0
  -25.2632  -13.8163   20.5601 C   0  0  0  0  0  0
  -24.1889  -13.0458   20.9156 C   0  0  0  0  0  0
  -24.6412  -11.6916   20.8679 C   0  0  0  0  0  0
  -23.9041  -10.4329   21.0341 C   0  0  0  0  0  0
  -24.3599   -9.4288   21.9140 C   0  0  0  0  0  0
  -23.6332   -8.2319   22.0744 C   0  0  0  0  0  0
  -22.4320   -8.0302   21.3549 C   0  0  0  0  0  0
  -21.9927   -9.0234   20.4635 C   0  0  0  0  0  0
  -22.7201  -10.2138   20.3002 C   0  0  0  0  0  0
  -21.6903   -6.0735   22.5260 C   0  0  0  0  0  0
  -21.4026   -6.5638   23.8196 C   0  0  0  0  0  0
  -21.3672   -5.6788   24.9157 C   0  0  0  0  0  0
  -21.6062   -4.3050   24.7196 C   0  0  0  0  0  0
  -21.8803   -3.8132   23.4310 C   0  0  0  0  0  0
  -21.9191   -4.6958   22.3368 C   0  0  0  0  0  0
  -22.7932  -13.5279   21.1811 C   0  0  0  0  0  0
  -22.1665   -4.2150   21.0937 F   0  0  0  0  0  0
  -21.5634   -3.4513   25.7697 F   0  0  0  0  0  0
  -30.0346  -13.2774   20.4977 N   0  0  0  0  0  0
  -26.3038  -12.9292   20.3227 N   0  0  0  0  0  0
  -25.9338  -11.6478   20.5690 N   0  0  0  0  0  0
  -22.0548  -12.8301   22.0345 N   0  0  0  0  0  0
  -25.4391  -15.1889   20.4010 N   0  0  0  0  0  0
  -31.7681  -14.6453   20.0194 O   0  0  0  0  0  0
  -21.6706   -6.8897   21.4256 O   0  0  0  0  0  0
  -22.3639  -14.5577   20.6629 O   0  0  0  0  0  0
  -24.6216  -31.8653   23.2083 C   0  0  0  0  0  0
  -25.9090  -32.4804   23.8386 C   0  0  1  0  0  0
  -27.2342  -27.3843   20.0990 C   0  0  0  0  0  0
  -25.5927  -33.8612   24.2329 N   0  0  0  0  0  0
  -23.4128  -30.4908   21.5505 C   0  0  2  0  0  0
  -24.8598  -28.9587   20.1114 C   0  0  0  0  0  0
  -22.7450  -29.4666   22.4968 C   0  0  0  0  0  0
  -18.0285  -28.1417   22.8496 C   0  0  0  0  0  0
  -24.1478  -36.7281   23.2644 C   0  0  0  0  0  0
  -25.9492  -30.8144   21.3723 C   0  0  0  0  0  0
  -26.0243  -29.4482   20.7134 C   0  0  0  0  0  0
  -27.2144  -28.6725   20.7005 C   0  0  0  0  0  0
  -26.0412  -26.9272   19.4874 C   0  0  0  0  0  0
  -24.8680  -27.7014   19.4894 C   0  0  0  0  0  0
  -23.6235  -29.8302   20.1632 C   0  0  0  0  0  0
  -25.4099  -36.3104   24.0357 C   0  0  1  0  0  0
  -20.5883  -28.3696   23.1318 C   0  0  2  0  0  0
  -20.6781  -26.9428   22.5420 C   0  0  0  0  0  0
  -19.5751  -26.6414   21.5232 C   0  0  0  0  0  0
  -18.1931  -26.7958   22.1638 C   0  0  0  0  0  0
  -19.1527  -28.8879   23.2907 C   0  0  0  0  0  0
  -18.9446  -30.1481   23.8912 C   0  0  0  0  0  0
  -17.6444  -30.6612   24.0572 C   0  0  0  0  0  0
  -25.9046  -34.9463   23.5139 C   0  0  0  0  0  0
  -16.5341  -29.9110   23.6326 C   0  0  0  0  0  0
  -16.7277  -28.6537   23.0339 C   0  0  0  0  0  0
  -26.4499  -31.6594   25.0720 C   0  0  0  0  0  0
  -25.3732  -31.3701   26.1440 C   0  0  0  0  0  0
  -27.0357  -30.3029   24.6154 C   0  0  0  0  0  0
  -27.6093  -32.4303   25.7465 C   0  0  0  0  0  0
  -27.5582  -37.1784   24.8464 C   0  0  0  0  0  0
  -21.4177  -29.3040   22.3716 N   0  0  0  0  0  0
  -26.4280  -37.3788   23.9436 N   0  0  0  0  0  0
  -24.6803  -31.0715   22.1016 N   0  0  0  0  0  0
  -23.4195  -28.8195   23.3021 O   0  0  0  0  0  0
  -28.3897  -26.6050   20.1291 O   0  0  0  0  0  0
  -26.5599  -34.8941   22.4693 O   0  0  0  0  0  0
  -23.5397  -32.1442   23.7451 O   0  0  0  0  0  0
  -30.4952  -24.6194   21.0193 C   0  0  0  0  0  0
  -31.5264  -23.6867   21.1948 C   0  0  0  0  0  0
  -29.4403  -24.2636   20.1661 C   0  0  0  0  0  0
  -30.4869  -22.2269   19.7538 C   0  0  0  0  0  0
  -32.7380  -23.9985   22.0535 C   0  0  0  0  0  0
  -29.5709  -20.8867   17.7824 C   0  0  0  0  0  0
  -31.9377  -20.6443   18.3712 C   0  0  0  0  0  0
  -32.6248  -17.4570   20.3378 C   0  0  0  0  0  0
  -31.9221  -17.7851   22.6972 C   0  0  0  0  0  0
  -29.7616  -15.2305   22.8471 C   0  0  0  0  0  0
  -28.2195  -25.1723   19.9269 C   0  0  0  0  0  0
  -30.1783  -16.8604   21.0283 C   0  0  0  0  0  0
  -30.1517  -19.6113   19.8521 C   0  0  0  0  0  0
  -30.5376  -20.8626   18.9956 C   0  0  0  0  0  0
  -31.4256  -17.8267   21.2376 C   0  0  0  0  0  0
  -31.4987  -22.4817   20.5832 N   0  0  0  0  0  0
  -29.4517  -23.0492   19.5542 N   0  0  0  0  0  0
  -30.2359  -15.4306   21.4670 N   0  0  0  0  0  0
  -31.0895  -19.2676   20.9568 N   0  3  0  0  0  0
  -31.4658  -12.4004   19.1578 H   0  0  0  0  0  0
  -30.2784  -11.2934   19.7751 H   0  0  0  0  0  0
  -29.7709  -11.8903   17.3872 H   0  0  0  0  0  0
  -29.6668  -13.5792   17.8373 H   0  0  0  0  0  0
  -27.8595  -11.3285   18.7728 H   0  0  0  0  0  0
  -27.3821  -12.6703   17.7671 H   0  0  0  0  0  0
  -27.7191  -14.2607   19.6098 H   0  0  0  0  0  0
  -28.6653  -11.8861   21.2827 H   0  0  0  0  0  0
  -28.3702  -13.4697   21.8869 H   0  0  0  0  0  0
  -25.2750   -9.5800   22.4710 H   0  0  0  0  0  0
  -24.0019   -7.4727   22.7479 H   0  0  0  0  0  0
  -21.0843   -8.8671   19.8998 H   0  0  0  0  0  0
  -22.3598  -10.9596   19.6080 H   0  0  0  0  0  0
  -21.2056   -7.6163   23.9699 H   0  0  0  0  0  0
  -21.1529   -6.0526   25.9052 H   0  0  0  0  0  0
  -22.0596   -2.7607   23.2788 H   0  0  0  0  0  0
  -22.4158  -11.9960   22.4704 H   0  0  0  0  0  0
  -21.1144  -13.1309   22.2480 H   0  0  0  0  0  0
  -24.6909  -15.8526   20.5595 H   0  0  0  0  0  0
  -26.2979  -15.6227   20.0824 H   0  0  0  0  0  0
  -26.7155  -32.5511   23.1147 H   0  0  0  0  0  0
  -25.0063  -33.9746   25.0469 H   0  0  0  0  0  0
  -22.7059  -31.3110   21.4140 H   0  0  0  0  0  0
  -23.3771  -35.9575   23.3286 H   0  0  0  0  0  0
  -24.3557  -36.8905   22.2056 H   0  0  0  0  0  0
  -23.7197  -37.6474   23.6652 H   0  0  0  0  0  0
  -26.0742  -31.5854   20.6106 H   0  0  0  0  0  0
  -26.8307  -30.8598   21.9996 H   0  0  0  0  0  0
  -28.1110  -29.0462   21.1744 H   0  0  0  0  0  0
  -25.9811  -25.9673   18.9950 H   0  0  0  0  0  0
  -23.9757  -27.3246   19.0099 H   0  0  0  0  0  0
  -23.7326  -30.6107   19.4089 H   0  0  0  0  0  0
  -22.7461  -29.2540   19.8640 H   0  0  0  0  0  0
  -25.1279  -36.1957   25.0849 H   0  0  0  0  0  0
  -20.9991  -28.3267   24.1432 H   0  0  0  0  0  0
  -20.5742  -26.2287   23.3601 H   0  0  0  0  0  0
  -21.6640  -26.7506   22.1162 H   0  0  0  0  0  0
  -19.6903  -25.6336   21.1232 H   0  0  0  0  0  0
  -19.6709  -27.3241   20.6779 H   0  0  0  0  0  0
  -17.4218  -26.6749   21.4025 H   0  0  0  0  0  0
  -18.0306  -26.0098   22.9028 H   0  0  0  0  0  0
  -19.7930  -30.7293   24.2285 H   0  0  0  0  0  0
  -17.5005  -31.6284   24.5191 H   0  0  0  0  0  0
  -15.5339  -30.3004   23.7668 H   0  0  0  0  0  0
  -15.8683  -28.0873   22.7003 H   0  0  0  0  0  0
  -24.5909  -30.7067   25.7737 H   0  0  0  0  0  0
  -24.8901  -32.2845   26.4892 H   0  0  0  0  0  0
  -25.8026  -30.8837   27.0206 H   0  0  0  0  0  0
  -26.2924  -29.6734   24.1244 H   0  0  0  0  0  0
  -27.4156  -29.7329   25.4651 H   0  0  0  0  0  0
  -27.8750  -30.4338   23.9314 H   0  0  0  0  0  0
  -27.2756  -33.3616   26.2058 H   0  0  0  0  0  0
  -28.3880  -32.6839   25.0253 H   0  0  0  0  0  0
  -28.0794  -31.8400   26.5347 H   0  0  0  0  0  0
  -28.2594  -38.0093   24.7557 H   0  0  0  0  0  0
  -28.1092  -36.2631   24.6236 H   0  0  0  0  0  0
  -27.2296  -37.1373   25.8862 H   0  0  0  0  0  0
  -20.9361  -29.8721   21.6890 H   0  0  0  0  0  0
  -26.0181  -38.2864   24.1455 H   0  0  0  0  0  0
  -30.5015  -25.5792   21.5185 H   0  0  0  0  0  0
  -32.5210  -24.8109   22.7473 H   0  0  0  0  0  0
  -33.5774  -24.3063   21.4275 H   0  0  0  0  0  0
  -33.0514  -23.1304   22.6356 H   0  0  0  0  0  0
  -29.8237  -21.6880   17.0888 H   0  0  0  0  0  0
  -28.5346  -21.0279   18.0878 H   0  0  0  0  0  0
  -29.6126  -19.9555   17.2201 H   0  0  0  0  0  0
  -32.1951  -21.4642   17.6995 H   0  0  0  0  0  0
  -31.9782  -19.7161   17.7958 H   0  0  0  0  0  0
  -32.7235  -20.5865   19.1265 H   0  0  0  0  0  0
  -33.1146  -16.5441   20.6743 H   0  0  0  0  0  0
  -33.3985  -18.2233   20.3567 H   0  0  0  0  0  0
  -32.3352  -17.3199   19.2956 H   0  0  0  0  0  0
  -32.3162  -16.8001   22.9516 H   0  0  0  0  0  0
  -31.1275  -18.0368   23.4030 H   0  0  0  0  0  0
  -32.7340  -18.4953   22.8690 H   0  0  0  0  0  0
  -30.2236  -15.9303   23.5376 H   0  0  0  0  0  0
  -29.9788  -14.2343   23.2355 H   0  0  0  0  0  0
  -28.6844  -15.4060   22.9167 H   0  0  0  0  0  0
  -27.4242  -24.8028   20.5792 H   0  0  0  0  0  0
  -27.9011  -24.9889   18.9003 H   0  0  0  0  0  0
  -29.9068  -16.8260   19.9700 H   0  0  0  0  0  0
  -29.3173  -17.3140   21.5233 H   0  0  0  0  0  0
  -30.1012  -18.7723   19.1632 H   0  0  0  0  0  0
  -29.1486  -19.7312   20.2666 H   0  0  0  0  0  0
  -30.7052  -19.6687   21.7972 H   0  0  0  0  0  0
  -31.9514  -19.7645   20.7870 H   0  0  0  0  0  0
  1 25  1  0  0  0
  1 30  2  0  0  0
  1 88  1  0  0  0
  2  3  1  0  0  0
  2 25  1  0  0  0
  2 90  1  0  0  0
  2 91  1  0  0  0
  3  4  1  0  0  0
  3 92  1  0  0  0
  3 93  1  0  0  0
  4  5  1  0  0  0
  4 94  1  0  0  0
  4 95  1  0  0  0
  5  6  1  0  0  0
  5 26  1  0  0  0
  5 96  1  0  0  0
  6 25  1  0  0  0
  6 97  1  0  0  0
  6 98  1  0  0  0
  7  8  2  0  0  0
  7 26  1  0  0  0
  7 29  1  0  0  0
  8  9  1  0  0  0
  8 22  1  0  0  0
  9 10  1  0  0  0
  9 27  2  0  0  0
 10 11  2  0  0  0
 10 15  1  0  0  0
 11 12  1  0  0  0
 11 99  1  0  0  0
 12 13  2  0  0  0
 12100  1  0  0  0
 13 14  1  0  0  0
 13 31  1  0  0  0
 14 15  2  0  0  0
 14101  1  0  0  0
 15102  1  0  0  0
 16 17  2  0  0  0
 16 21  1  0  0  0
 16 31  1  0  0  0
 17 18  1  0  0  0
 17103  1  0  0  0
 18 19  2  0  0  0
 18104  1  0  0  0
 19 20  1  0  0  0
 19 24  1  0  0  0
 20 21  2  0  0  0
 20105  1  0  0  0
 21 23  1  0  0  0
 22 28  1  0  0  0
 22 32  2  0  0  0
 26 27  1  0  0  0
 28106  1  0  0  0
 28107  1  0  0  0
 29108  1  0  0  0
 29109  1  0  0  0
 33 34  1  0  0  0
 33 66  1  0  0  0
 33 70  2  0  0  0
 34 36  1  0  0  0
 34 59  1  0  0  0
 34110  1  0  0  0
 35 44  2  0  0  0
 35 45  1  0  0  0
 35 68  1  0  0  0
 36 56  1  0  0  0
 36111  1  0  0  0
 37 39  1  0  0  0
 37 47  1  0  0  0
 37 66  1  0  0  0
 37112  1  0  0  0
 38 43  2  0  0  0
 38 46  1  0  0  0
 38 47  1  0  0  0
 39 64  1  0  0  0
 39 67  2  0  0  0
 40 52  1  0  0  0
 40 53  2  0  0  0
 40 58  1  0  0  0
 41113  1  0  0  0
 41114  1  0  0  0
 41115  1  0  0  0
 41 48  1  0  0  0
 42 43  1  0  0  0
 42 66  1  0  0  0
 42116  1  0  0  0
 42117  1  0  0  0
 43 44  1  0  0  0
 44118  1  0  0  0
 45 46  2  0  0  0
 45119  1  0  0  0
 46120  1  0  0  0
 47121  1  0  0  0
 47122  1  0  0  0
 48 56  1  0  0  0
 48 65  1  0  0  0
 48123  1  0  0  0
 49 50  1  0  0  0
 49 53  1  0  0  0
 49 64  1  0  0  0
 49124  1  0  0  0
 50 51  1  0  0  0
 50125  1  0  0  0
 50126  1  0  0  0
 51 52  1  0  0  0
 51127  1  0  0  0
 51128  1  0  0  0
 52129  1  0  0  0
 52130  1  0  0  0
 53 54  1  0  0  0
 54 55  2  0  0  0
 54131  1  0  0  0
 55 57  1  0  0  0
 55132  1  0  0  0
 56 69  2  0  0  0
 57 58  2  0  0  0
 57133  1  0  0  0
 58134  1  0  0  0
 59 60  1  0  0  0
 59 61  1  0  0  0
 59 62  1  0  0  0
 60135  1  0  0  0
 60136  1  0  0  0
 60137  1  0  0  0
 61138  1  0  0  0
 61139  1  0  0  0
 61140  1  0  0  0
 62141  1  0  0  0
 62142  1  0  0  0
 62143  1  0  0  0
 63 65  1  0  0  0
 63144  1  0  0  0
 63145  1  0  0  0
 63146  1  0  0  0
 64147  1  0  0  0
 65148  1  0  0  0
 68 81  1  0  0  0
 71 72  2  0  0  0
 71 73  1  0  0  0
 71149  1  0  0  0
 72 75  1  0  0  0
 72 86  1  0  0  0
 73 81  1  0  0  0
 73 87  2  0  0  0
 74 84  1  0  0  0
 74 86  2  0  0  0
 74 87  1  0  0  0
 75150  1  0  0  0
 75151  1  0  0  0
 75152  1  0  0  0
 76153  1  0  0  0
 76154  1  0  0  0
 76155  1  0  0  0
 76 84  1  0  0  0
 77 84  1  0  0  0
 77156  1  0  0  0
 77157  1  0  0  0
 77158  1  0  0  0
 78159  1  0  0  0
 78160  1  0  0  0
 78161  1  0  0  0
 78 85  1  0  0  0
 79 85  1  0  0  0
 79162  1  0  0  0
 79163  1  0  0  0
 79164  1  0  0  0
 80 88  1  0  0  0
 80165  1  0  0  0
 80166  1  0  0  0
 80167  1  0  0  0
 81168  1  0  0  0
 81169  1  0  0  0
 82 85  1  0  0  0
 82 88  1  0  0  0
 82170  1  0  0  0
 82171  1  0  0  0
 83 84  1  0  0  0
 83 89  1  0  0  0
 83172  1  0  0  0
 83173  1  0  0  0
 85 89  1  0  0  0
 89174  1  0  0  0
 89175  1  0  0  0
M  CHG  1  89   1
M  ISO  4   1 100  68 101  81 101  88 100
M  END
> <chiral flag>
0

> <version>
0

> <s_m_source_file>
/data/baiqing/PycharmProjects/Reinvent-master-3.2/result/LINK_invent/BTK/process_docking_weight1_custom_sum_contain_oxygen_bond_distance_aromatic_linkinvent_7_9_3/rearranged_h_0058.sdf

> <i_m_source_file_index>
11

> <r_mmod_Potential_Energy-OPLS-2005>
-427.916748046875

> <r_mmod_Stretch_Energy-OPLS-2005>
60.536449432373

> <r_mmod_Bend_Energy-OPLS-2005>
146.828201293945

> <r_mmod_Torsional_Energy-OPLS-2005>
304.866973876953

> <r_mmod_Improper_Torsional_Energy-OPLS-2005>
4.44330501556396

> <r_mmod_Van_der_Waal_Energy-OPLS-2005>
178.354354858398

> <r_mmod_Electrostatic_Energy-OPLS-2005>
-729.640014648438

> <r_mmod_Solvation_Energy-OPLS-2005>
-409.016387939453

> <b_mmod_Minimization_Converged-OPLS-2005>
0

> <r_mmod_RMS_Derivative-OPLS-2005>
5.91015672683716

$$$$
11
                    3D
 Structure written by MMmdl.
159167  0  0  1  0            999 V2000
  -30.5268  -15.0300   20.4474 C   0  0  0  0  0  0
  -30.4440  -12.6564   19.4965 C   0  0  0  0  0  0
  -29.5220  -12.5615   18.2564 C   0  0  0  0  0  0
  -28.0533  -12.3399   18.6694 C   0  0  0  0  0  0
  -27.6285  -13.2553   19.8463 C   0  0  2  0  0  0
  -28.6797  -13.2498   20.9759 C   0  0  0  0  0  0
  -25.2403  -13.8197   20.5681 C   0  0  0  0  0  0
  -24.1748  -13.0422   20.9236 C   0  0  0  0  0  0
  -24.6402  -11.6919   20.8780 C   0  0  0  0  0  0
  -23.9093  -10.4290   21.0428 C   0  0  0  0  0  0
  -24.3634   -9.4208   21.9211 C   0  0  0  0  0  0
  -23.6302   -8.2243   22.0756 C   0  0  0  0  0  0
  -22.4289   -8.0290   21.3543 C   0  0  0  0  0  0
  -21.9934   -9.0266   20.4647 C   0  0  0  0  0  0
  -22.7261  -10.2146   20.3067 C   0  0  0  0  0  0
  -21.6848   -6.0736   22.5283 C   0  0  0  0  0  0
  -21.4013   -6.5636   23.8223 C   0  0  0  0  0  0
  -21.3656   -5.6788   24.9179 C   0  0  0  0  0  0
  -21.6046   -4.3048   24.7227 C   0  0  0  0  0  0
  -21.8812   -3.8143   23.4344 C   0  0  0  0  0  0
  -21.9193   -4.6965   22.3400 C   0  0  0  0  0  0
  -22.7769  -13.5196   21.1896 C   0  0  0  0  0  0
  -22.1657   -4.2156   21.0981 F   0  0  0  0  0  0
  -21.5638   -3.4532   25.7732 F   0  0  0  0  0  0
  -29.9302  -13.7534   20.3823 N   0  0  0  0  0  0
  -26.2871  -12.9461   20.3281 N   0  0  0  0  0  0
  -25.9348  -11.6583   20.5799 N   0  0  0  0  0  0
  -22.0412  -12.8202   22.0454 N   0  0  0  0  0  0
  -25.3943  -15.1913   20.3999 N   0  0  0  0  0  0
  -31.7184  -15.0609   20.1094 O   0  0  0  0  0  0
  -21.6639   -6.8893   21.4243 O   0  0  0  0  0  0
  -22.3453  -14.5501   20.6738 O   0  0  0  0  0  0
  -24.6474  -31.8405   23.1825 C   0  0  0  0  0  0
  -25.9224  -32.4676   23.8235 C   0  0  1  0  0  0
  -27.2192  -27.1004   20.1482 C   0  0  0  0  0  0
  -25.5951  -33.8485   24.2156 N   0  0  0  0  0  0
  -23.4537  -30.4574   21.5294 C   0  0  2  0  0  0
  -24.9027  -28.8760   20.1085 C   0  0  0  0  0  0
  -22.7594  -29.4529   22.4828 C   0  0  0  0  0  0
  -18.0316  -28.1398   22.8479 C   0  0  0  0  0  0
  -24.1496  -36.7249   23.2645 C   0  0  0  0  0  0
  -26.0123  -30.7017   21.3866 C   0  0  0  0  0  0
  -26.0822  -29.3096   20.7266 C   0  0  0  0  0  0
  -27.2412  -28.4397   20.7231 C   0  0  0  0  0  0
  -26.0103  -26.7721   19.4963 C   0  0  0  0  0  0
  -24.8809  -27.6220   19.4784 C   0  0  0  0  0  0
  -23.6814  -29.7834   20.1505 C   0  0  0  0  0  0
  -25.4132  -36.3023   24.0310 C   0  0  1  0  0  0
  -20.5936  -28.3735   23.1217 C   0  0  2  0  0  0
  -20.6798  -26.9427   22.5402 C   0  0  0  0  0  0
  -19.5769  -26.6379   21.5214 C   0  0  0  0  0  0
  -18.1952  -26.7936   22.1625 C   0  0  0  0  0  0
  -19.1575  -28.8888   23.2843 C   0  0  0  0  0  0
  -18.9482  -30.1478   23.8871 C   0  0  0  0  0  0
  -17.6476  -30.6593   24.0559 C   0  0  0  0  0  0
  -25.9080  -34.9402   23.5048 C   0  0  0  0  0  0
  -16.5370  -29.9082   23.6337 C   0  0  0  0  0  0
  -16.7295  -28.6502   23.0355 C   0  0  0  0  0  0
  -26.4524  -31.6566   25.0702 C   0  0  0  0  0  0
  -25.3685  -31.3762   26.1384 C   0  0  0  0  0  0
  -27.0390  -30.2952   24.6313 C   0  0  0  0  0  0
  -27.6044  -32.4340   25.7491 C   0  0  0  0  0  0
  -27.5579  -37.1782   24.8462 C   0  0  0  0  0  0
  -21.4283  -29.3055   22.3586 N   0  0  0  0  0  0
  -26.4286  -37.3740   23.9405 N   0  0  0  0  0  0
  -24.7247  -31.0219   22.0880 N   0  0  0  0  0  0
  -23.4216  -28.8089   23.3001 O   0  0  0  0  0  0
  -28.2733  -26.1054   20.2094 O   0  0  0  0  0  0
  -26.5674  -34.8909   22.4632 O   0  0  0  0  0  0
  -23.5583  -32.1299   23.7026 O   0  0  0  0  0  0
  -29.9725  -20.6149   20.6375 C   0  0  0  0  0  0
  -29.5073  -19.2514   20.2769 C   0  0  0  0  0  0
  -29.0760  -21.6607   20.2758 C   0  0  0  0  0  0
  -30.3155  -23.6936   19.3455 C   0  0  0  0  0  0
  -29.7347  -23.6468   21.7567 C   0  0  0  0  0  0
  -26.8514  -21.3534   19.0861 C   0  0  0  0  0  0
  -28.7274  -16.3514   21.6083 C   0  0  0  0  0  0
  -30.2824  -17.7577   20.2511 C   0  0  0  0  0  0
  -28.0351  -24.5485   20.0896 C   0  0  0  0  0  0
  -29.2048  -23.3311   20.3477 C   0  0  0  0  0  0
  -28.3180  -19.4952   19.7077 N   0  0  0  0  0  0
  -28.0728  -20.8730   19.7023 N   0  0  0  0  0  0
  -29.8039  -16.2790   20.6223 N   0  0  0  0  0  0
  -31.4712  -12.8317   19.1747 H   0  0  0  0  0  0
  -30.4726  -11.7030   20.0256 H   0  0  0  0  0  0
  -29.8497  -11.7535   17.6011 H   0  0  0  0  0  0
  -29.6063  -13.4787   17.6713 H   0  0  0  0  0  0
  -27.9513  -11.2939   18.9603 H   0  0  0  0  0  0
  -27.3911  -12.4866   17.8162 H   0  0  0  0  0  0
  -27.5933  -14.2654   19.4360 H   0  0  0  0  0  0
  -28.8086  -12.2398   21.3679 H   0  0  0  0  0  0
  -28.3585  -13.8331   21.8330 H   0  0  0  0  0  0
  -25.2782   -9.5675   22.4794 H   0  0  0  0  0  0
  -24.0000   -7.4619   22.7464 H   0  0  0  0  0  0
  -21.0868   -8.8783   19.8955 H   0  0  0  0  0  0
  -22.3722  -10.9684   19.6174 H   0  0  0  0  0  0
  -21.1995   -7.6148   23.9719 H   0  0  0  0  0  0
  -21.1494   -6.0528   25.9087 H   0  0  0  0  0  0
  -22.0596   -2.7609   23.2840 H   0  0  0  0  0  0
  -22.4012  -11.9861   22.4850 H   0  0  0  0  0  0
  -21.1022  -13.1219   22.2643 H   0  0  0  0  0  0
  -24.6213  -15.8377   20.5133 H   0  0  0  0  0  0
  -26.2368  -15.6367   20.0595 H   0  0  0  0  0  0
  -26.7295  -32.5264   23.0963 H   0  0  0  0  0  0
  -25.0068  -33.9578   25.0279 H   0  0  0  0  0  0
  -22.7597  -31.2848   21.3707 H   0  0  0  0  0  0
  -23.3769  -35.9567   23.3284 H   0  0  0  0  0  0
  -24.3582  -36.8908   22.2063 H   0  0  0  0  0  0
  -23.7238  -37.6433   23.6698 H   0  0  0  0  0  0
  -26.1744  -31.4562   20.6151 H   0  0  0  0  0  0
  -26.8808  -30.7506   22.0324 H   0  0  0  0  0  0
  -28.1428  -28.7682   21.2205 H   0  0  0  0  0  0
  -25.9073  -25.8142   19.0090 H   0  0  0  0  0  0
  -23.9790  -27.2865   18.9854 H   0  0  0  0  0  0
  -23.8220  -30.5561   19.3931 H   0  0  0  0  0  0
  -22.7951  -29.2271   19.8397 H   0  0  0  0  0  0
  -25.1324  -36.1848   25.0800 H   0  0  0  0  0  0
  -21.0030  -28.3325   24.1335 H   0  0  0  0  0  0
  -20.5695  -26.2336   23.3627 H   0  0  0  0  0  0
  -21.6655  -26.7422   22.1191 H   0  0  0  0  0  0
  -19.6917  -25.6283   21.1257 H   0  0  0  0  0  0
  -19.6700  -27.3181   20.6738 H   0  0  0  0  0  0
  -17.4215  -26.6687   21.4034 H   0  0  0  0  0  0
  -18.0346  -26.0087   22.9033 H   0  0  0  0  0  0
  -19.7959  -30.7309   24.2220 H   0  0  0  0  0  0
  -17.5027  -31.6269   24.5172 H   0  0  0  0  0  0
  -15.5373  -30.2969   23.7675 H   0  0  0  0  0  0
  -15.8699  -28.0814   22.7069 H   0  0  0  0  0  0
  -24.5863  -30.7123   25.7686 H   0  0  0  0  0  0
  -24.8879  -32.2950   26.4753 H   0  0  0  0  0  0
  -25.7946  -30.8957   27.0198 H   0  0  0  0  0  0
  -26.3011  -29.6667   24.1316 H   0  0  0  0  0  0
  -27.3984  -29.7268   25.4899 H   0  0  0  0  0  0
  -27.8929  -30.4180   23.9646 H   0  0  0  0  0  0
  -27.2625  -33.3662   26.1998 H   0  0  0  0  0  0
  -28.3883  -32.6868   25.0339 H   0  0  0  0  0  0
  -28.0677  -31.8515   26.5460 H   0  0  0  0  0  0
  -28.2580  -38.0096   24.7520 H   0  0  0  0  0  0
  -28.1090  -36.2621   24.6277 H   0  0  0  0  0  0
  -27.2290  -37.1415   25.8863 H   0  0  0  0  0  0
  -20.9499  -29.8749   21.6751 H   0  0  0  0  0  0
  -26.0156  -38.2805   24.1414 H   0  0  0  0  0  0
  -30.9370  -20.8162   21.0811 H   0  0  0  0  0  0
  -31.2376  -23.1481   19.5486 H   0  0  0  0  0  0
  -30.5539  -24.7573   19.3774 H   0  0  0  0  0  0
  -30.0140  -23.4537   18.3250 H   0  0  0  0  0  0
  -30.6626  -23.1159   21.9723 H   0  0  0  0  0  0
  -29.0072  -23.3578   22.5157 H   0  0  0  0  0  0
  -29.9354  -24.7113   21.8804 H   0  0  0  0  0  0
  -27.0967  -22.0283   18.2640 H   0  0  0  0  0  0
  -26.2584  -21.8942   19.8252 H   0  0  0  0  0  0
  -26.2559  -20.5269   18.6926 H   0  0  0  0  0  0
  -29.0048  -15.8300   22.5253 H   0  0  0  0  0  0
  -27.8087  -15.9261   21.2148 H   0  0  0  0  0  0
  -28.4966  -17.3749   21.9005 H   0  0  0  0  0  0
  -31.1834  -17.8819   20.8518 H   0  0  0  0  0  0
  -30.6755  -17.6506   19.2406 H   0  0  0  0  0  0
  -27.2005  -24.3244   20.7545 H   0  0  0  0  0  0
  -27.6463  -24.3841   19.0853 H   0  0  0  0  0  0
  1 25  1  0  0  0
  1 30  2  0  0  0
  1 83  1  0  0  0
  2  3  1  0  0  0
  2 25  1  0  0  0
  2 84  1  0  0  0
  2 85  1  0  0  0
  3  4  1  0  0  0
  3 86  1  0  0  0
  3 87  1  0  0  0
  4  5  1  0  0  0
  4 88  1  0  0  0
  4 89  1  0  0  0
  5  6  1  0  0  0
  5 26  1  0  0  0
  5 90  1  0  0  0
  6 25  1  0  0  0
  6 91  1  0  0  0
  6 92  1  0  0  0
  7  8  2  0  0  0
  7 26  1  0  0  0
  7 29  1  0  0  0
  8  9  1  0  0  0
  8 22  1  0  0  0
  9 10  1  0  0  0
  9 27  2  0  0  0
 10 11  2  0  0  0
 10 15  1  0  0  0
 11 12  1  0  0  0
 11 93  1  0  0  0
 12 13  2  0  0  0
 12 94  1  0  0  0
 13 14  1  0  0  0
 13 31  1  0  0  0
 14 15  2  0  0  0
 14 95  1  0  0  0
 15 96  1  0  0  0
 16 17  2  0  0  0
 16 21  1  0  0  0
 16 31  1  0  0  0
 17 18  1  0  0  0
 17 97  1  0  0  0
 18 19  2  0  0  0
 18 98  1  0  0  0
 19 20  1  0  0  0
 19 24  1  0  0  0
 20 21  2  0  0  0
 20 99  1  0  0  0
 21 23  1  0  0  0
 22 28  1  0  0  0
 22 32  2  0  0  0
 26 27  1  0  0  0
 28100  1  0  0  0
 28101  1  0  0  0
 29102  1  0  0  0
 29103  1  0  0  0
 33 34  1  0  0  0
 33 66  1  0  0  0
 33 70  2  0  0  0
 34 36  1  0  0  0
 34 59  1  0  0  0
 34104  1  0  0  0
 35 44  2  0  0  0
 35 45  1  0  0  0
 35 68  1  0  0  0
 36 56  1  0  0  0
 36105  1  0  0  0
 37 39  1  0  0  0
 37 47  1  0  0  0
 37 66  1  0  0  0
 37106  1  0  0  0
 38 43  2  0  0  0
 38 46  1  0  0  0
 38 47  1  0  0  0
 39 64  1  0  0  0
 39 67  2  0  0  0
 40 52  1  0  0  0
 40 53  2  0  0  0
 40 58  1  0  0  0
 41107  1  0  0  0
 41108  1  0  0  0
 41109  1  0  0  0
 41 48  1  0  0  0
 42 43  1  0  0  0
 42 66  1  0  0  0
 42110  1  0  0  0
 42111  1  0  0  0
 43 44  1  0  0  0
 44112  1  0  0  0
 45 46  2  0  0  0
 45113  1  0  0  0
 46114  1  0  0  0
 47115  1  0  0  0
 47116  1  0  0  0
 48 56  1  0  0  0
 48 65  1  0  0  0
 48117  1  0  0  0
 49 50  1  0  0  0
 49 53  1  0  0  0
 49 64  1  0  0  0
 49118  1  0  0  0
 50 51  1  0  0  0
 50119  1  0  0  0
 50120  1  0  0  0
 51 52  1  0  0  0
 51121  1  0  0  0
 51122  1  0  0  0
 52123  1  0  0  0
 52124  1  0  0  0
 53 54  1  0  0  0
 54 55  2  0  0  0
 54125  1  0  0  0
 55 57  1  0  0  0
 55126  1  0  0  0
 56 69  2  0  0  0
 57 58  2  0  0  0
 57127  1  0  0  0
 58128  1  0  0  0
 59 60  1  0  0  0
 59 61  1  0  0  0
 59 62  1  0  0  0
 60129  1  0  0  0
 60130  1  0  0  0
 60131  1  0  0  0
 61132  1  0  0  0
 61133  1  0  0  0
 61134  1  0  0  0
 62135  1  0  0  0
 62136  1  0  0  0
 62137  1  0  0  0
 63 65  1  0  0  0
 63138  1  0  0  0
 63139  1  0  0  0
 63140  1  0  0  0
 64141  1  0  0  0
 65142  1  0  0  0
 68 79  1  0  0  0
 71 72  1  0  0  0
 71 73  2  0  0  0
 71143  1  0  0  0
 72 78  1  0  0  0
 72 81  2  0  0  0
 73 80  1  0  0  0
 73 82  1  0  0  0
 74144  1  0  0  0
 74145  1  0  0  0
 74146  1  0  0  0
 74 80  1  0  0  0
 75 80  1  0  0  0
 75147  1  0  0  0
 75148  1  0  0  0
 75149  1  0  0  0
 76 82  1  0  0  0
 76150  1  0  0  0
 76151  1  0  0  0
 76152  1  0  0  0
 77 83  1  0  0  0
 77153  1  0  0  0
 77154  1  0  0  0
 77155  1  0  0  0
 78 83  1  0  0  0
 78156  1  0  0  0
 78157  1  0  0  0
 79 80  1  0  0  0
 79158  1  0  0  0
 79159  1  0  0  0
 81 82  1  0  0  0
M  ISO  4   1 100  68 101  79 101  83 100
M  END
> <chiral flag>
0

> <version>
0

> <s_m_source_file>
/data/baiqing/PycharmProjects/Reinvent-master-3.2/result/LINK_invent/BTK/process_docking_weight1_custom_sum_contain_oxygen_bond_distance_aromatic_linkinvent_7_9_3/rearranged_h_0058.sdf

> <i_m_source_file_index>
12

> <r_mmod_Potential_Energy-OPLS-2005>
657.786437988281

> <r_mmod_Stretch_Energy-OPLS-2005>
314.829223632812

> <r_mmod_Bend_Energy-OPLS-2005>
316.374267578125

> <r_mmod_Torsional_Energy-OPLS-2005>
264.363830566406

> <r_mmod_Improper_Torsional_Energy-OPLS-2005>
8.25994110107422

> <r_mmod_Van_der_Waal_Energy-OPLS-2005>
112.847366333008

> <r_mmod_Electrostatic_Energy-OPLS-2005>
-378.829132080078

> <r_mmod_Solvation_Energy-OPLS-2005>
-209.505966186523

> <b_mmod_Minimization_Converged-OPLS-2005>
0

> <r_mmod_RMS_Derivative-OPLS-2005>
2.35094475746155

$$$$
12
                    3D
 Structure written by MMmdl.
149157  0  0  1  0            999 V2000
  -30.5068  -15.0531   20.4678 C   0  0  0  0  0  0
  -30.4448  -12.6677   19.5122 C   0  0  0  0  0  0
  -29.5296  -12.5680   18.2646 C   0  0  0  0  0  0
  -28.0582  -12.3424   18.6632 C   0  0  0  0  0  0
  -27.6277  -13.2545   19.8383 C   0  0  2  0  0  0
  -28.6663  -13.2524   20.9747 C   0  0  0  0  0  0
  -25.2455  -13.8221   20.5709 C   0  0  0  0  0  0
  -24.1775  -13.0438   20.9224 C   0  0  0  0  0  0
  -24.6400  -11.6926   20.8745 C   0  0  0  0  0  0
  -23.9085  -10.4297   21.0405 C   0  0  0  0  0  0
  -24.3638   -9.4214   21.9178 C   0  0  0  0  0  0
  -23.6315   -8.2250   22.0736 C   0  0  0  0  0  0
  -22.4293   -8.0293   21.3539 C   0  0  0  0  0  0
  -21.9926   -9.0263   20.4637 C   0  0  0  0  0  0
  -22.7254  -10.2145   20.3052 C   0  0  0  0  0  0
  -21.6867   -6.0744   22.5282 C   0  0  0  0  0  0
  -21.4025   -6.5643   23.8216 C   0  0  0  0  0  0
  -21.3660   -5.6787   24.9172 C   0  0  0  0  0  0
  -21.6044   -4.3050   24.7215 C   0  0  0  0  0  0
  -21.8822   -3.8148   23.4334 C   0  0  0  0  0  0
  -21.9200   -4.6971   22.3399 C   0  0  0  0  0  0
  -22.7796  -13.5210   21.1894 C   0  0  0  0  0  0
  -22.1668   -4.2154   21.0975 F   0  0  0  0  0  0
  -21.5621   -3.4537   25.7728 F   0  0  0  0  0  0
  -29.9290  -13.7611   20.4051 N   0  0  0  0  0  0
  -26.2869  -12.9453   20.3209 N   0  0  0  0  0  0
  -25.9332  -11.6580   20.5704 N   0  0  0  0  0  0
  -22.0452  -12.8207   22.0463 N   0  0  0  0  0  0
  -25.4142  -15.1952   20.4183 N   0  0  0  0  0  0
  -31.6815  -15.1031   20.0735 O   0  0  0  0  0  0
  -21.6659   -6.8890   21.4244 O   0  0  0  0  0  0
  -22.3470  -14.5506   20.6722 O   0  0  0  0  0  0
  -24.6499  -31.8362   23.1830 C   0  0  0  0  0  0
  -25.9257  -32.4644   23.8224 C   0  0  1  0  0  0
  -27.2139  -27.0595   20.1637 C   0  0  0  0  0  0
  -25.5981  -33.8450   24.2137 N   0  0  0  0  0  0
  -23.4563  -30.4567   21.5284 C   0  0  2  0  0  0
  -24.9065  -28.8701   20.1101 C   0  0  0  0  0  0
  -22.7591  -29.4526   22.4807 C   0  0  0  0  0  0
  -18.0308  -28.1417   22.8464 C   0  0  0  0  0  0
  -24.1501  -36.7235   23.2647 C   0  0  0  0  0  0
  -26.0181  -30.6872   21.3918 C   0  0  0  0  0  0
  -26.0880  -29.2907   20.7343 C   0  0  0  0  0  0
  -27.2406  -28.4054   20.7379 C   0  0  0  0  0  0
  -26.0026  -26.7587   19.5009 C   0  0  0  0  0  0
  -24.8815  -27.6201   19.4750 C   0  0  0  0  0  0
  -23.6877  -29.7829   20.1493 C   0  0  0  0  0  0
  -25.4132  -36.2984   24.0299 C   0  0  1  0  0  0
  -20.5922  -28.3758   23.1200 C   0  0  2  0  0  0
  -20.6805  -26.9454   22.5397 C   0  0  0  0  0  0
  -19.5783  -26.6390   21.5213 C   0  0  0  0  0  0
  -18.1959  -26.7950   22.1615 C   0  0  0  0  0  0
  -19.1568  -28.8904   23.2825 C   0  0  0  0  0  0
  -18.9490  -30.1500   23.8855 C   0  0  0  0  0  0
  -17.6491  -30.6610   24.0572 C   0  0  0  0  0  0
  -25.9086  -34.9368   23.5020 C   0  0  0  0  0  0
  -16.5377  -29.9105   23.6354 C   0  0  0  0  0  0
  -16.7293  -28.6528   23.0352 C   0  0  0  0  0  0
  -26.4555  -31.6537   25.0691 C   0  0  0  0  0  0
  -25.3714  -31.3754   26.1368 C   0  0  0  0  0  0
  -27.0440  -30.2918   24.6340 C   0  0  0  0  0  0
  -27.6066  -32.4325   25.7479 C   0  0  0  0  0  0
  -27.5569  -37.1769   24.8458 C   0  0  0  0  0  0
  -21.4278  -29.3063   22.3553 N   0  0  0  0  0  0
  -26.4279  -37.3712   23.9400 N   0  0  0  0  0  0
  -24.7291  -31.0154   22.0895 N   0  0  0  0  0  0
  -23.4206  -28.8076   23.2987 O   0  0  0  0  0  0
  -28.2492  -26.0283   20.2216 O   0  0  0  0  0  0
  -26.5681  -34.8882   22.4606 O   0  0  0  0  0  0
  -23.5604  -32.1264   23.7005 O   0  0  0  0  0  0
  -30.1960  -19.5963   19.3765 C   0  0  0  0  0  0
  -29.7669  -17.7541   20.4081 C   0  0  0  0  0  0
  -29.2130  -16.1392   22.2260 C   0  0  0  0  0  0
  -28.9617  -23.0592   20.2519 C   0  0  0  0  0  0
  -28.4595  -21.4145   20.4129 C   0  0  0  0  0  0
  -27.9454  -24.4641   20.1974 C   0  0  0  0  0  0
  -30.5469  -18.2749   19.4017 N   0  0  0  0  0  0
  -28.9806  -18.7818   20.9405 N   0  0  0  0  0  0
  -29.2779  -20.0225   20.2702 N   0  0  0  0  0  0
  -29.7887  -16.2550   20.8793 N   0  0  0  0  0  0
  -31.4728  -12.8486   19.1948 H   0  0  0  0  0  0
  -30.4762  -11.7145   20.0426 H   0  0  0  0  0  0
  -29.8667  -11.7630   17.6112 H   0  0  0  0  0  0
  -29.6116  -13.4881   17.6839 H   0  0  0  0  0  0
  -27.9444  -11.2954   18.9457 H   0  0  0  0  0  0
  -27.4063  -12.4964   17.8025 H   0  0  0  0  0  0
  -27.5958  -14.2663   19.4330 H   0  0  0  0  0  0
  -28.7912  -12.2451   21.3746 H   0  0  0  0  0  0
  -28.3010  -13.8371   21.8116 H   0  0  0  0  0  0
  -25.2786   -9.5695   22.4751 H   0  0  0  0  0  0
  -24.0036   -7.4637   22.7442 H   0  0  0  0  0  0
  -21.0852   -8.8785   19.8951 H   0  0  0  0  0  0
  -22.3703  -10.9689   19.6170 H   0  0  0  0  0  0
  -21.2031   -7.6151   23.9719 H   0  0  0  0  0  0
  -21.1476   -6.0516   25.9073 H   0  0  0  0  0  0
  -22.0603   -2.7611   23.2833 H   0  0  0  0  0  0
  -22.4098  -11.9906   22.4896 H   0  0  0  0  0  0
  -21.1056  -13.1203   22.2646 H   0  0  0  0  0  0
  -24.6476  -15.8484   20.5378 H   0  0  0  0  0  0
  -26.2683  -15.6413   20.1084 H   0  0  0  0  0  0
  -26.7309  -32.5219   23.0928 H   0  0  0  0  0  0
  -25.0091  -33.9558   25.0257 H   0  0  0  0  0  0
  -22.7634  -31.2860   21.3694 H   0  0  0  0  0  0
  -23.3756  -35.9576   23.3275 H   0  0  0  0  0  0
  -24.3593  -36.8913   22.2073 H   0  0  0  0  0  0
  -23.7267  -37.6420   23.6718 H   0  0  0  0  0  0
  -26.1806  -31.4386   20.6178 H   0  0  0  0  0  0
  -26.8859  -30.7388   22.0380 H   0  0  0  0  0  0
  -28.1383  -28.7275   21.2463 H   0  0  0  0  0  0
  -25.8836  -25.8075   19.0069 H   0  0  0  0  0  0
  -23.9801  -27.2931   18.9744 H   0  0  0  0  0  0
  -23.8318  -30.5578   19.3949 H   0  0  0  0  0  0
  -22.7994  -29.2307   19.8356 H   0  0  0  0  0  0
  -25.1325  -36.1791   25.0789 H   0  0  0  0  0  0
  -21.0017  -28.3378   24.1317 H   0  0  0  0  0  0
  -20.5722  -26.2379   23.3629 H   0  0  0  0  0  0
  -21.6674  -26.7471   22.1191 H   0  0  0  0  0  0
  -19.6965  -25.6288   21.1278 H   0  0  0  0  0  0
  -19.6735  -27.3176   20.6724 H   0  0  0  0  0  0
  -17.4233  -26.6680   21.4017 H   0  0  0  0  0  0
  -18.0371  -26.0106   22.9028 H   0  0  0  0  0  0
  -19.7968  -30.7332   24.2198 H   0  0  0  0  0  0
  -17.5043  -31.6286   24.5189 H   0  0  0  0  0  0
  -15.5378  -30.3004   23.7704 H   0  0  0  0  0  0
  -15.8685  -28.0857   22.7062 H   0  0  0  0  0  0
  -24.5888  -30.7122   25.7661 H   0  0  0  0  0  0
  -24.8919  -32.2953   26.4719 H   0  0  0  0  0  0
  -25.7963  -30.8945   27.0189 H   0  0  0  0  0  0
  -26.3081  -29.6607   24.1349 H   0  0  0  0  0  0
  -27.4014  -29.7256   25.4953 H   0  0  0  0  0  0
  -27.8999  -30.4108   23.9696 H   0  0  0  0  0  0
  -27.2640  -33.3644   26.1982 H   0  0  0  0  0  0
  -28.3911  -32.6867   25.0340 H   0  0  0  0  0  0
  -28.0701  -31.8512   26.5460 H   0  0  0  0  0  0
  -28.2555  -38.0095   24.7511 H   0  0  0  0  0  0
  -28.1091  -36.2617   24.6262 H   0  0  0  0  0  0
  -27.2288  -37.1385   25.8863 H   0  0  0  0  0  0
  -20.9500  -29.8735   21.6689 H   0  0  0  0  0  0
  -26.0126  -38.2763   24.1437 H   0  0  0  0  0  0
  -30.5989  -20.2728   18.6352 H   0  0  0  0  0  0
  -29.6112  -15.3016   22.8019 H   0  0  0  0  0  0
  -29.4345  -17.0224   22.8273 H   0  0  0  0  0  0
  -28.1276  -16.0504   22.1693 H   0  0  0  0  0  0
  -29.5733  -23.0996   19.3507 H   0  0  0  0  0  0
  -29.6686  -23.2267   21.0640 H   0  0  0  0  0  0
  -27.6374  -21.3082   19.7060 H   0  0  0  0  0  0
  -27.9668  -21.3559   21.3838 H   0  0  0  0  0  0
  -27.2275  -24.3293   21.0066 H   0  0  0  0  0  0
  -27.3648  -24.3074   19.2895 H   0  0  0  0  0  0
  1 25  1  0  0  0
  1 30  2  0  0  0
  1 80  1  0  0  0
  2  3  1  0  0  0
  2 25  1  0  0  0
  2 81  1  0  0  0
  2 82  1  0  0  0
  3  4  1  0  0  0
  3 83  1  0  0  0
  3 84  1  0  0  0
  4  5  1  0  0  0
  4 85  1  0  0  0
  4 86  1  0  0  0
  5  6  1  0  0  0
  5 26  1  0  0  0
  5 87  1  0  0  0
  6 25  1  0  0  0
  6 88  1  0  0  0
  6 89  1  0  0  0
  7  8  2  0  0  0
  7 26  1  0  0  0
  7 29  1  0  0  0
  8  9  1  0  0  0
  8 22  1  0  0  0
  9 10  1  0  0  0
  9 27  2  0  0  0
 10 11  2  0  0  0
 10 15  1  0  0  0
 11 12  1  0  0  0
 11 90  1  0  0  0
 12 13  2  0  0  0
 12 91  1  0  0  0
 13 14  1  0  0  0
 13 31  1  0  0  0
 14 15  2  0  0  0
 14 92  1  0  0  0
 15 93  1  0  0  0
 16 17  2  0  0  0
 16 21  1  0  0  0
 16 31  1  0  0  0
 17 18  1  0  0  0
 17 94  1  0  0  0
 18 19  2  0  0  0
 18 95  1  0  0  0
 19 20  1  0  0  0
 19 24  1  0  0  0
 20 21  2  0  0  0
 20 96  1  0  0  0
 21 23  1  0  0  0
 22 28  1  0  0  0
 22 32  2  0  0  0
 26 27  1  0  0  0
 28 97  1  0  0  0
 28 98  1  0  0  0
 29 99  1  0  0  0
 29100  1  0  0  0
 33 34  1  0  0  0
 33 66  1  0  0  0
 33 70  2  0  0  0
 34 36  1  0  0  0
 34 59  1  0  0  0
 34101  1  0  0  0
 35 44  2  0  0  0
 35 45  1  0  0  0
 35 68  1  0  0  0
 36 56  1  0  0  0
 36102  1  0  0  0
 37 39  1  0  0  0
 37 47  1  0  0  0
 37 66  1  0  0  0
 37103  1  0  0  0
 38 43  2  0  0  0
 38 46  1  0  0  0
 38 47  1  0  0  0
 39 64  1  0  0  0
 39 67  2  0  0  0
 40 52  1  0  0  0
 40 53  2  0  0  0
 40 58  1  0  0  0
 41104  1  0  0  0
 41105  1  0  0  0
 41106  1  0  0  0
 41 48  1  0  0  0
 42 43  1  0  0  0
 42 66  1  0  0  0
 42107  1  0  0  0
 42108  1  0  0  0
 43 44  1  0  0  0
 44109  1  0  0  0
 45 46  2  0  0  0
 45110  1  0  0  0
 46111  1  0  0  0
 47112  1  0  0  0
 47113  1  0  0  0
 48 56  1  0  0  0
 48 65  1  0  0  0
 48114  1  0  0  0
 49 50  1  0  0  0
 49 53  1  0  0  0
 49 64  1  0  0  0
 49115  1  0  0  0
 50 51  1  0  0  0
 50116  1  0  0  0
 50117  1  0  0  0
 51 52  1  0  0  0
 51118  1  0  0  0
 51119  1  0  0  0
 52120  1  0  0  0
 52121  1  0  0  0
 53 54  1  0  0  0
 54 55  2  0  0  0
 54122  1  0  0  0
 55 57  1  0  0  0
 55123  1  0  0  0
 56 69  2  0  0  0
 57 58  2  0  0  0
 57124  1  0  0  0
 58125  1  0  0  0
 59 60  1  0  0  0
 59 61  1  0  0  0
 59 62  1  0  0  0
 60126  1  0  0  0
 60127  1  0  0  0
 60128  1  0  0  0
 61129  1  0  0  0
 61130  1  0  0  0
 61131  1  0  0  0
 62132  1  0  0  0
 62133  1  0  0  0
 62134  1  0  0  0
 63 65  1  0  0  0
 63135  1  0  0  0
 63136  1  0  0  0
 63137  1  0  0  0
 64138  1  0  0  0
 65139  1  0  0  0
 68 76  1  0  0  0
 71 77  2  0  0  0
 71 79  1  0  0  0
 71140  1  0  0  0
 72 77  1  0  0  0
 72 78  2  0  0  0
 72 80  1  0  0  0
 73 80  1  0  0  0
 73141  1  0  0  0
 73142  1  0  0  0
 73143  1  0  0  0
 74 75  1  0  0  0
 74 76  1  0  0  0
 74144  1  0  0  0
 74145  1  0  0  0
 75 79  1  0  0  0
 75146  1  0  0  0
 75147  1  0  0  0
 76148  1  0  0  0
 76149  1  0  0  0
 78 79  1  0  0  0
M  ISO  4   1 100  68 101  76 101  80 100
M  END
> <chiral flag>
0

> <version>
0

> <s_m_source_file>
/data/baiqing/PycharmProjects/Reinvent-master-3.2/result/LINK_invent/BTK/process_docking_weight1_custom_sum_contain_oxygen_bond_distance_aromatic_linkinvent_7_9_3/rearranged_h_0058.sdf

> <i_m_source_file_index>
13

> <r_mmod_Potential_Energy-OPLS-2005>
833.394714355469

> <r_mmod_Stretch_Energy-OPLS-2005>
366.195190429688

> <r_mmod_Bend_Energy-OPLS-2005>
329.67431640625

> <r_mmod_Torsional_Energy-OPLS-2005>
267.315368652344

> <r_mmod_Improper_Torsional_Energy-OPLS-2005>
3.93136477470398

> <r_mmod_Van_der_Waal_Energy-OPLS-2005>
121.217002868652

> <r_mmod_Electrostatic_Energy-OPLS-2005>
-294.045806884766

> <r_mmod_Solvation_Energy-OPLS-2005>
-220.246322631836

> <b_mmod_Minimization_Converged-OPLS-2005>
0

> <r_mmod_RMS_Derivative-OPLS-2005>
1.81351399421692

$$$$
13
                    3D
 Structure written by MMmdl.
154162  0  0  1  0            999 V2000
  -30.4960  -15.0529   20.3442 C   0  0  0  0  0  0
  -30.4392  -12.6504   19.4938 C   0  0  0  0  0  0
  -29.5092  -12.5233   18.2612 C   0  0  0  0  0  0
  -28.0515  -12.2961   18.6934 C   0  0  0  0  0  0
  -27.6237  -13.2589   19.8283 C   0  0  2  0  0  0
  -28.6682  -13.3379   20.9633 C   0  0  0  0  0  0
  -25.2419  -13.8254   20.5720 C   0  0  0  0  0  0
  -24.1757  -13.0436   20.9297 C   0  0  0  0  0  0
  -24.6418  -11.6948   20.8864 C   0  0  0  0  0  0
  -23.9095  -10.4297   21.0479 C   0  0  0  0  0  0
  -24.3657   -9.4187   21.9209 C   0  0  0  0  0  0
  -23.6316   -8.2243   22.0753 C   0  0  0  0  0  0
  -22.4293   -8.0307   21.3561 C   0  0  0  0  0  0
  -21.9962   -9.0276   20.4656 C   0  0  0  0  0  0
  -22.7300  -10.2138   20.3065 C   0  0  0  0  0  0
  -21.6831   -6.0744   22.5280 C   0  0  0  0  0  0
  -21.4013   -6.5648   23.8222 C   0  0  0  0  0  0
  -21.3661   -5.6794   24.9186 C   0  0  0  0  0  0
  -21.6038   -4.3063   24.7224 C   0  0  0  0  0  0
  -21.8818   -3.8152   23.4352 C   0  0  0  0  0  0
  -21.9195   -4.6972   22.3406 C   0  0  0  0  0  0
  -22.7747  -13.5199   21.1930 C   0  0  0  0  0  0
  -22.1647   -4.2154   21.0981 F   0  0  0  0  0  0
  -21.5634   -3.4543   25.7742 F   0  0  0  0  0  0
  -29.9352  -13.7675   20.3560 N   0  0  0  0  0  0
  -26.2861  -12.9510   20.3277 N   0  0  0  0  0  0
  -25.9344  -11.6655   20.5815 N   0  0  0  0  0  0
  -22.0388  -12.8166   22.0481 N   0  0  0  0  0  0
  -25.4022  -15.1998   20.4105 N   0  0  0  0  0  0
  -31.6832  -15.1232   20.0025 O   0  0  0  0  0  0
  -21.6638   -6.8897   21.4250 O   0  0  0  0  0  0
  -22.3432  -14.5470   20.6746 O   0  0  0  0  0  0
  -24.6482  -31.8378   23.1848 C   0  0  0  0  0  0
  -25.9192  -32.4703   23.8272 C   0  0  1  0  0  0
  -27.2218  -27.0590   20.1549 C   0  0  0  0  0  0
  -25.5919  -33.8518   24.2172 N   0  0  0  0  0  0
  -23.4627  -30.4511   21.5291 C   0  0  2  0  0  0
  -24.9183  -28.8718   20.1068 C   0  0  0  0  0  0
  -22.7621  -29.4491   22.4826 C   0  0  0  0  0  0
  -18.0325  -28.1402   22.8514 C   0  0  0  0  0  0
  -24.1505  -36.7301   23.2647 C   0  0  0  0  0  0
  -26.0213  -30.6827   21.4018 C   0  0  0  0  0  0
  -26.0910  -29.2850   20.7477 C   0  0  0  0  0  0
  -27.2321  -28.3843   20.7753 C   0  0  0  0  0  0
  -26.0240  -26.7803   19.4545 C   0  0  0  0  0  0
  -24.9014  -27.6351   19.4482 C   0  0  0  0  0  0
  -23.6978  -29.7809   20.1489 C   0  0  0  0  0  0
  -25.4137  -36.3065   24.0318 C   0  0  1  0  0  0
  -20.5931  -28.3775   23.1289 C   0  0  2  0  0  0
  -20.6795  -26.9462   22.5481 C   0  0  0  0  0  0
  -19.5810  -26.6477   21.5228 C   0  0  0  0  0  0
  -18.2013  -26.7938   22.1669 C   0  0  0  0  0  0
  -19.1565  -28.8909   23.2921 C   0  0  0  0  0  0
  -18.9453  -30.1564   23.8839 C   0  0  0  0  0  0
  -17.6430  -30.6631   24.0529 C   0  0  0  0  0  0
  -25.9056  -34.9425   23.5057 C   0  0  0  0  0  0
  -16.5351  -29.9077   23.6329 C   0  0  0  0  0  0
  -16.7314  -28.6490   23.0348 C   0  0  0  0  0  0
  -26.4485  -31.6606   25.0740 C   0  0  0  0  0  0
  -25.3648  -31.3785   26.1417 C   0  0  0  0  0  0
  -27.0362  -30.3017   24.6317 C   0  0  0  0  0  0
  -27.6013  -32.4362   25.7517 C   0  0  0  0  0  0
  -27.5590  -37.1823   24.8447 C   0  0  0  0  0  0
  -21.4278  -29.3074   22.3603 N   0  0  0  0  0  0
  -26.4315  -37.3768   23.9378 N   0  0  0  0  0  0
  -24.7319  -31.0145   22.0932 N   0  0  0  0  0  0
  -23.4227  -28.8036   23.3009 O   0  0  0  0  0  0
  -28.2428  -26.0225   20.2902 O   0  0  0  0  0  0
  -26.5657  -34.8918   22.4640 O   0  0  0  0  0  0
  -23.5564  -32.1287   23.6973 O   0  0  0  0  0  0
  -29.5834  -22.0442   20.0365 C   0  0  0  0  0  0
  -28.5484  -23.0408   20.1233 C   0  0  0  0  0  0
  -27.8378  -20.8882   20.6543 C   0  0  0  0  0  0
  -26.8801  -19.8098   21.0484 C   0  0  0  0  0  0
  -30.2644  -19.0535   22.0354 C   0  0  0  0  0  0
  -28.2769  -24.6059   19.5789 C   0  0  0  0  0  0
  -29.5320  -17.7212   19.9012 C   0  0  0  0  0  0
  -29.9263  -19.2592   20.5491 C   0  0  2  0  0  0
  -29.1411  -20.6997   20.3600 N   0  0  0  0  0  0
  -27.5134  -22.2101   20.5289 N   0  3  0  0  0  0
  -29.6896  -16.2320   20.5206 N   0  0  0  0  0  0
  -31.4621  -12.8206   19.1500 H   0  0  0  0  0  0
  -30.4688  -11.7141   20.0556 H   0  0  0  0  0  0
  -29.8360  -11.7003   17.6245 H   0  0  0  0  0  0
  -29.5742  -13.4253   17.6519 H   0  0  0  0  0  0
  -27.9779  -11.2667   19.0501 H   0  0  0  0  0  0
  -27.3750  -12.3717   17.8426 H   0  0  0  0  0  0
  -27.5701  -14.2446   19.3649 H   0  0  0  0  0  0
  -28.7710  -12.3776   21.4721 H   0  0  0  0  0  0
  -28.3492  -14.0627   21.7183 H   0  0  0  0  0  0
  -25.2783   -9.5630   22.4816 H   0  0  0  0  0  0
  -24.0002   -7.4592   22.7460 H   0  0  0  0  0  0
  -21.0883   -8.8833   19.8931 H   0  0  0  0  0  0
  -22.3803  -10.9706   19.6189 H   0  0  0  0  0  0
  -21.2000   -7.6150   23.9736 H   0  0  0  0  0  0
  -21.1476   -6.0520   25.9090 H   0  0  0  0  0  0
  -22.0601   -2.7614   23.2855 H   0  0  0  0  0  0
  -22.4001  -11.9811   22.4869 H   0  0  0  0  0  0
  -21.0970  -13.1164   22.2619 H   0  0  0  0  0  0
  -24.6208  -15.8412   20.5022 H   0  0  0  0  0  0
  -26.2234  -15.6338   20.0163 H   0  0  0  0  0  0
  -26.7250  -32.5281   23.0998 H   0  0  0  0  0  0
  -25.0089  -33.9631   25.0336 H   0  0  0  0  0  0
  -22.7691  -31.2789   21.3635 H   0  0  0  0  0  0
  -23.3774  -35.9627   23.3285 H   0  0  0  0  0  0
  -24.3594  -36.8961   22.2064 H   0  0  0  0  0  0
  -23.7254  -37.6491   23.6697 H   0  0  0  0  0  0
  -26.1711  -31.4268   20.6190 H   0  0  0  0  0  0
  -26.8937  -30.7487   22.0394 H   0  0  0  0  0  0
  -28.1074  -28.6751   21.3415 H   0  0  0  0  0  0
  -25.8827  -25.8489   18.9322 H   0  0  0  0  0  0
  -24.0096  -27.3123   18.9272 H   0  0  0  0  0  0
  -23.8503  -30.5545   19.3952 H   0  0  0  0  0  0
  -22.8154  -29.2247   19.8265 H   0  0  0  0  0  0
  -25.1328  -36.1927   25.0820 H   0  0  0  0  0  0
  -21.0021  -28.3394   24.1419 H   0  0  0  0  0  0
  -20.5603  -26.2411   23.3725 H   0  0  0  0  0  0
  -21.6695  -26.7426   22.1367 H   0  0  0  0  0  0
  -19.6759  -27.3391   20.6841 H   0  0  0  0  0  0
  -19.7051  -25.6437   21.1181 H   0  0  0  0  0  0
  -17.4277  -26.6644   21.4114 H   0  0  0  0  0  0
  -18.0504  -26.0052   22.9055 H   0  0  0  0  0  0
  -19.7919  -30.7422   24.2173 H   0  0  0  0  0  0
  -17.4951  -31.6328   24.5083 H   0  0  0  0  0  0
  -15.5353  -30.2982   23.7546 H   0  0  0  0  0  0
  -15.8727  -28.0773   22.7109 H   0  0  0  0  0  0
  -24.5804  -30.7172   25.7709 H   0  0  0  0  0  0
  -24.8864  -32.2968   26.4833 H   0  0  0  0  0  0
  -25.7912  -30.8936   27.0210 H   0  0  0  0  0  0
  -26.2973  -29.6735   24.1325 H   0  0  0  0  0  0
  -27.3993  -29.7309   25.4873 H   0  0  0  0  0  0
  -27.8873  -30.4290   23.9625 H   0  0  0  0  0  0
  -27.2612  -33.3653   26.2087 H   0  0  0  0  0  0
  -28.3834  -32.6937   25.0368 H   0  0  0  0  0  0
  -28.0677  -31.8503   26.5442 H   0  0  0  0  0  0
  -28.2591  -38.0133   24.7500 H   0  0  0  0  0  0
  -28.1105  -36.2664   24.6278 H   0  0  0  0  0  0
  -27.2294  -37.1467   25.8843 H   0  0  0  0  0  0
  -20.9460  -29.8777   21.6778 H   0  0  0  0  0  0
  -26.0196  -38.2849   24.1359 H   0  0  0  0  0  0
  -30.6080  -22.2057   19.7301 H   0  0  0  0  0  0
  -26.0268  -20.2489   21.5605 H   0  0  0  0  0  0
  -27.3762  -19.1050   21.7140 H   0  0  0  0  0  0
  -26.5489  -19.2962   20.1470 H   0  0  0  0  0  0
  -30.9303  -18.2010   22.1727 H   0  0  0  0  0  0
  -29.3657  -18.8576   22.6200 H   0  0  0  0  0  0
  -30.7664  -19.9208   22.4601 H   0  0  0  0  0  0
  -27.3812  -24.5012   18.9741 H   0  0  0  0  0  0
  -29.0420  -24.7508   18.8174 H   0  0  0  0  0  0
  -28.4650  -17.7914   19.6845 H   0  0  0  0  0  0
  -29.9833  -17.6744   18.9094 H   0  0  0  0  0  0
  -30.8869  -19.4726   20.0777 H   0  0  0  0  0  0
  -26.5713  -22.5522   20.6773 H   0  0  0  0  0  0
  -28.8241  -15.9574   20.9626 H   0  0  0  0  0  0
  1 25  1  0  0  0
  1 30  2  0  0  0
  1 81  1  0  0  0
  2  3  1  0  0  0
  2 25  1  0  0  0
  2 82  1  0  0  0
  2 83  1  0  0  0
  3  4  1  0  0  0
  3 84  1  0  0  0
  3 85  1  0  0  0
  4  5  1  0  0  0
  4 86  1  0  0  0
  4 87  1  0  0  0
  5  6  1  0  0  0
  5 26  1  0  0  0
  5 88  1  0  0  0
  6 25  1  0  0  0
  6 89  1  0  0  0
  6 90  1  0  0  0
  7  8  2  0  0  0
  7 26  1  0  0  0
  7 29  1  0  0  0
  8  9  1  0  0  0
  8 22  1  0  0  0
  9 10  1  0  0  0
  9 27  2  0  0  0
 10 11  2  0  0  0
 10 15  1  0  0  0
 11 12  1  0  0  0
 11 91  1  0  0  0
 12 13  2  0  0  0
 12 92  1  0  0  0
 13 14  1  0  0  0
 13 31  1  0  0  0
 14 15  2  0  0  0
 14 93  1  0  0  0
 15 94  1  0  0  0
 16 17  2  0  0  0
 16 21  1  0  0  0
 16 31  1  0  0  0
 17 18  1  0  0  0
 17 95  1  0  0  0
 18 19  2  0  0  0
 18 96  1  0  0  0
 19 20  1  0  0  0
 19 24  1  0  0  0
 20 21  2  0  0  0
 20 97  1  0  0  0
 21 23  1  0  0  0
 22 28  1  0  0  0
 22 32  2  0  0  0
 26 27  1  0  0  0
 28 98  1  0  0  0
 28 99  1  0  0  0
 29100  1  0  0  0
 29101  1  0  0  0
 33 34  1  0  0  0
 33 66  1  0  0  0
 33 70  2  0  0  0
 34 36  1  0  0  0
 34 59  1  0  0  0
 34102  1  0  0  0
 35 44  2  0  0  0
 35 45  1  0  0  0
 35 68  1  0  0  0
 36 56  1  0  0  0
 36103  1  0  0  0
 37 39  1  0  0  0
 37 47  1  0  0  0
 37 66  1  0  0  0
 37104  1  0  0  0
 38 43  2  0  0  0
 38 46  1  0  0  0
 38 47  1  0  0  0
 39 64  1  0  0  0
 39 67  2  0  0  0
 40 52  1  0  0  0
 40 53  2  0  0  0
 40 58  1  0  0  0
 41105  1  0  0  0
 41106  1  0  0  0
 41107  1  0  0  0
 41 48  1  0  0  0
 42 43  1  0  0  0
 42 66  1  0  0  0
 42108  1  0  0  0
 42109  1  0  0  0
 43 44  1  0  0  0
 44110  1  0  0  0
 45 46  2  0  0  0
 45111  1  0  0  0
 46112  1  0  0  0
 47113  1  0  0  0
 47114  1  0  0  0
 48 56  1  0  0  0
 48 65  1  0  0  0
 48115  1  0  0  0
 49 50  1  0  0  0
 49 53  1  0  0  0
 49 64  1  0  0  0
 49116  1  0  0  0
 50 51  1  0  0  0
 50117  1  0  0  0
 50118  1  0  0  0
 51 52  1  0  0  0
 51119  1  0  0  0
 51120  1  0  0  0
 52121  1  0  0  0
 52122  1  0  0  0
 53 54  1  0  0  0
 54 55  2  0  0  0
 54123  1  0  0  0
 55 57  1  0  0  0
 55124  1  0  0  0
 56 69  2  0  0  0
 57 58  2  0  0  0
 57125  1  0  0  0
 58126  1  0  0  0
 59 60  1  0  0  0
 59 61  1  0  0  0
 59 62  1  0  0  0
 60127  1  0  0  0
 60128  1  0  0  0
 60129  1  0  0  0
 61130  1  0  0  0
 61131  1  0  0  0
 61132  1  0  0  0
 62133  1  0  0  0
 62134  1  0  0  0
 62135  1  0  0  0
 63 65  1  0  0  0
 63136  1  0  0  0
 63137  1  0  0  0
 63138  1  0  0  0
 64139  1  0  0  0
 65140  1  0  0  0
 68 76  1  0  0  0
 71 72  2  0  0  0
 71 79  1  0  0  0
 71141  1  0  0  0
 72 76  1  0  0  0
 72 80  1  0  0  0
 73 74  1  0  0  0
 73 79  1  0  0  0
 73 80  2  0  0  0
 74142  1  0  0  0
 74143  1  0  0  0
 74144  1  0  0  0
 75145  1  0  0  0
 75146  1  0  0  0
 75147  1  0  0  0
 75 78  1  0  0  0
 76148  1  0  0  0
 76149  1  0  0  0
 77 78  1  0  0  0
 77 81  1  0  0  0
 77150  1  0  0  0
 77151  1  0  0  0
 78 79  1  0  0  0
 78152  1  0  0  0
 80153  1  0  0  0
 81154  1  0  0  0
M  CHG  1  80   1
M  ISO  4   1 100  68 101  76 101  81 100
M  END
> <chiral flag>
0

> <version>
0

> <s_m_source_file>
/data/baiqing/PycharmProjects/Reinvent-master-3.2/result/LINK_invent/BTK/process_docking_weight1_custom_sum_contain_oxygen_bond_distance_aromatic_linkinvent_7_9_3/rearranged_h_0058.sdf

> <i_m_source_file_index>
14

> <r_mmod_Potential_Energy-OPLS-2005>
652.713745117188

> <r_mmod_Stretch_Energy-OPLS-2005>
339.786285400391

> <r_mmod_Bend_Energy-OPLS-2005>
344.329620361328

> <r_mmod_Torsional_Energy-OPLS-2005>
267.522338867188

> <r_mmod_Improper_Torsional_Energy-OPLS-2005>
8.50608158111572

> <r_mmod_Van_der_Waal_Energy-OPLS-2005>
108.955940246582

> <r_mmod_Electrostatic_Energy-OPLS-2005>
-256.231872558594

> <r_mmod_Solvation_Energy-OPLS-2005>
-440.937469482422

> <b_mmod_Minimization_Converged-OPLS-2005>
0

> <r_mmod_RMS_Derivative-OPLS-2005>
7.2694149017334

$$$$
14
                    3D
 Structure written by MMmdl.
159167  0  0  1  0            999 V2000
  -30.6103  -14.4909   20.6165 C   0  0  0  0  0  0
  -30.4365  -12.3080   19.4513 C   0  0  0  0  0  0
  -29.5178  -12.5062   18.2242 C   0  0  0  0  0  0
  -28.0274  -12.3671   18.6071 C   0  0  0  0  0  0
  -27.6591  -13.1816   19.8755 C   0  0  2  0  0  0
  -28.6841  -12.9263   20.9990 C   0  0  0  0  0  0
  -25.2603  -13.8065   20.5566 C   0  0  0  0  0  0
  -24.1800  -13.0393   20.9035 C   0  0  0  0  0  0
  -24.6301  -11.6857   20.8633 C   0  0  0  0  0  0
  -23.8966  -10.4272   21.0349 C   0  0  0  0  0  0
  -24.3554   -9.4215   21.9142 C   0  0  0  0  0  0
  -23.6260   -8.2252   22.0776 C   0  0  0  0  0  0
  -22.4251   -8.0232   21.3554 C   0  0  0  0  0  0
  -21.9837   -9.0165   20.4656 C   0  0  0  0  0  0
  -22.7141  -10.2061   20.3041 C   0  0  0  0  0  0
  -21.6859   -6.0717   22.5277 C   0  0  0  0  0  0
  -21.4041   -6.5655   23.8198 C   0  0  0  0  0  0
  -21.3685   -5.6801   24.9161 C   0  0  0  0  0  0
  -21.6041   -4.3055   24.7208 C   0  0  0  0  0  0
  -21.8828   -3.8153   23.4329 C   0  0  0  0  0  0
  -21.9200   -4.6960   22.3391 C   0  0  0  0  0  0
  -22.7868  -13.5238   21.1768 C   0  0  0  0  0  0
  -22.1669   -4.2161   21.0963 F   0  0  0  0  0  0
  -21.5593   -3.4533   25.7712 F   0  0  0  0  0  0
  -30.0154  -13.2756   20.4743 N   0  0  0  0  0  0
  -26.2965  -12.9164   20.3234 N   0  0  0  0  0  0
  -25.9206  -11.6374   20.5637 N   0  0  0  0  0  0
  -22.0549  -12.8216   22.0352 N   0  0  0  0  0  0
  -25.4450  -15.1774   20.4081 N   0  0  0  0  0  0
  -31.7367  -14.7493   20.1781 O   0  0  0  0  0  0
  -21.6635   -6.8814   21.4237 O   0  0  0  0  0  0
  -22.3568  -14.5566   20.6646 O   0  0  0  0  0  0
  -24.6205  -31.8691   23.2149 C   0  0  0  0  0  0
  -25.9102  -32.4804   23.8433 C   0  0  1  0  0  0
  -27.1720  -27.4051   20.0874 C   0  0  0  0  0  0
  -25.5973  -33.8605   24.2364 N   0  0  0  0  0  0
  -23.3981  -30.5075   21.5618 C   0  0  2  0  0  0
  -24.8273  -29.0023   20.0989 C   0  0  0  0  0  0
  -22.7437  -29.4685   22.5022 C   0  0  0  0  0  0
  -18.0263  -28.1340   22.8505 C   0  0  0  0  0  0
  -24.1472  -36.7340   23.2630 C   0  0  0  0  0  0
  -25.9351  -30.8313   21.3694 C   0  0  0  0  0  0
  -25.9955  -29.4680   20.7163 C   0  0  0  0  0  0
  -27.1686  -28.6673   20.7265 C   0  0  0  0  0  0
  -25.9968  -27.0294   19.3767 C   0  0  0  0  0  0
  -24.8248  -27.7822   19.4229 C   0  0  0  0  0  0
  -23.5964  -29.8693   20.1652 C   0  0  0  0  0  0
  -25.4088  -36.3114   24.0349 C   0  0  1  0  0  0
  -20.5869  -28.3634   23.1306 C   0  0  2  0  0  0
  -20.6750  -26.9380   22.5367 C   0  0  0  0  0  0
  -19.5696  -26.6401   21.5169 C   0  0  0  0  0  0
  -18.1888  -26.7887   22.1612 C   0  0  0  0  0  0
  -19.1515  -28.8812   23.2900 C   0  0  0  0  0  0
  -18.9448  -30.1422   23.8906 C   0  0  0  0  0  0
  -17.6459  -30.6549   24.0570 C   0  0  0  0  0  0
  -25.9046  -34.9468   23.5146 C   0  0  0  0  0  0
  -16.5345  -29.9049   23.6317 C   0  0  0  0  0  0
  -16.7260  -28.6462   23.0367 C   0  0  0  0  0  0
  -26.4522  -31.6521   25.0702 C   0  0  0  0  0  0
  -25.3869  -31.3587   26.1500 C   0  0  0  0  0  0
  -27.0312  -30.2970   24.5993 C   0  0  0  0  0  0
  -27.6117  -32.4226   25.7455 C   0  0  0  0  0  0
  -27.5573  -37.1822   24.8481 C   0  0  0  0  0  0
  -21.4168  -29.3029   22.3772 N   0  0  0  0  0  0
  -26.4274  -37.3812   23.9441 N   0  0  0  0  0  0
  -24.6704  -31.0843   22.1064 N   0  0  0  0  0  0
  -23.4233  -28.8222   23.3014 O   0  0  0  0  0  0
  -28.2420  -26.5211   20.1954 O   0  0  0  0  0  0
  -26.5566  -34.8927   22.4684 O   0  0  0  0  0  0
  -23.5378  -32.1461   23.7538 O   0  0  0  0  0  0
  -29.3138  -20.4372   20.0219 C   0  0  0  0  0  0
  -28.9323  -19.1345   20.4799 C   0  0  0  0  0  0
  -28.2748  -21.2674   20.3545 C   0  0  0  0  0  0
  -30.7223  -17.9337   19.1610 C   0  0  0  0  0  0
  -26.1244  -20.8957   21.6846 C   0  0  0  0  0  0
  -27.9431  -22.6568   19.8675 C   0  0  0  0  0  0
  -28.5818  -23.9134   20.5373 C   0  0  0  0  0  0
  -29.9168  -16.8820   21.3576 C   0  0  0  0  0  0
  -27.8500  -25.1424   19.9515 C   0  0  0  0  0  0
  -29.5308  -17.7620   20.1263 C   0  0  1  0  0  0
  -27.7944  -19.2071   21.1652 N   0  0  0  0  0  0
  -27.3976  -20.5019   21.1019 N   0  0  0  0  0  0
  -29.7900  -15.4244   21.1445 N   0  0  0  0  0  0
  -31.4853  -12.4344   19.1783 H   0  0  0  0  0  0
  -30.3455  -11.2932   19.8472 H   0  0  0  0  0  0
  -29.7782  -11.7977   17.4378 H   0  0  0  0  0  0
  -29.6860  -13.5033   17.8141 H   0  0  0  0  0  0
  -27.8180  -11.3064   18.7625 H   0  0  0  0  0  0
  -27.3968  -12.6768   17.7730 H   0  0  0  0  0  0
  -27.7108  -14.2347   19.6027 H   0  0  0  0  0  0
  -28.6738  -11.8763   21.2955 H   0  0  0  0  0  0
  -28.4222  -13.4729   21.9056 H   0  0  0  0  0  0
  -25.2699   -9.5711   22.4689 H   0  0  0  0  0  0
  -23.9990   -7.4671   22.7524 H   0  0  0  0  0  0
  -21.0770   -8.8643   19.8948 H   0  0  0  0  0  0
  -22.3573  -10.9567   19.6158 H   0  0  0  0  0  0
  -21.2081   -7.6175   23.9704 H   0  0  0  0  0  0
  -21.1519   -6.0540   25.9058 H   0  0  0  0  0  0
  -22.0608   -2.7626   23.2810 H   0  0  0  0  0  0
  -22.4172  -11.9775   22.4511 H   0  0  0  0  0  0
  -21.1251  -13.1335   22.2734 H   0  0  0  0  0  0
  -24.6929  -15.8441   20.5482 H   0  0  0  0  0  0
  -26.3134  -15.6144   20.1244 H   0  0  0  0  0  0
  -26.7175  -32.5500   23.1210 H   0  0  0  0  0  0
  -25.0230  -33.9731   25.0576 H   0  0  0  0  0  0
  -22.6833  -31.3239   21.4391 H   0  0  0  0  0  0
  -23.3707  -35.9691   23.3248 H   0  0  0  0  0  0
  -24.3628  -36.8974   22.2060 H   0  0  0  0  0  0
  -23.7211  -37.6554   23.6639 H   0  0  0  0  0  0
  -26.0522  -31.5956   20.5960 H   0  0  0  0  0  0
  -26.8293  -30.8855   21.9787 H   0  0  0  0  0  0
  -28.0533  -29.0066   21.2483 H   0  0  0  0  0  0
  -25.9273  -26.1335   18.7838 H   0  0  0  0  0  0
  -23.9373  -27.4387   18.9049 H   0  0  0  0  0  0
  -23.7087  -30.6583   19.4196 H   0  0  0  0  0  0
  -22.7172  -29.3014   19.8599 H   0  0  0  0  0  0
  -25.1227  -36.2009   25.0834 H   0  0  0  0  0  0
  -20.9953  -28.3153   24.1431 H   0  0  0  0  0  0
  -20.5625  -26.2248   23.3540 H   0  0  0  0  0  0
  -21.6620  -26.7410   22.1172 H   0  0  0  0  0  0
  -19.6849  -25.6348   21.1092 H   0  0  0  0  0  0
  -19.6563  -27.3296   20.6761 H   0  0  0  0  0  0
  -17.4166  -26.6688   21.4000 H   0  0  0  0  0  0
  -18.0288  -25.9973   22.8949 H   0  0  0  0  0  0
  -19.7950  -30.7223   24.2258 H   0  0  0  0  0  0
  -17.5030  -31.6212   24.5205 H   0  0  0  0  0  0
  -15.5356  -30.2973   23.7632 H   0  0  0  0  0  0
  -15.8655  -28.0777   22.7091 H   0  0  0  0  0  0
  -24.6114  -30.6777   25.7956 H   0  0  0  0  0  0
  -24.8964  -32.2691   26.4954 H   0  0  0  0  0  0
  -25.8352  -30.8873   27.0257 H   0  0  0  0  0  0
  -26.2767  -29.6744   24.1148 H   0  0  0  0  0  0
  -27.4245  -29.7163   25.4354 H   0  0  0  0  0  0
  -27.8554  -30.4290   23.8974 H   0  0  0  0  0  0
  -27.2741  -33.3552   26.2003 H   0  0  0  0  0  0
  -28.3947  -32.6732   25.0279 H   0  0  0  0  0  0
  -28.0751  -31.8348   26.5399 H   0  0  0  0  0  0
  -28.2611  -38.0100   24.7551 H   0  0  0  0  0  0
  -28.1031  -36.2654   24.6246 H   0  0  0  0  0  0
  -27.2326  -37.1432   25.8891 H   0  0  0  0  0  0
  -20.9302  -29.8886   21.7150 H   0  0  0  0  0  0
  -26.0146  -38.2885   24.1443 H   0  0  0  0  0  0
  -30.1554  -20.7109   19.4036 H   0  0  0  0  0  0
  -30.4247  -18.4545   18.2525 H   0  0  0  0  0  0
  -31.1577  -16.9883   18.8413 H   0  0  0  0  0  0
  -31.5077  -18.5218   19.6358 H   0  0  0  0  0  0
  -25.4312  -21.1757   20.8910 H   0  0  0  0  0  0
  -26.2609  -21.7571   22.3396 H   0  0  0  0  0  0
  -25.6813  -20.0851   22.2666 H   0  0  0  0  0  0
  -26.8575  -22.7649   19.8921 H   0  0  0  0  0  0
  -28.1806  -22.6858   18.8036 H   0  0  0  0  0  0
  -29.6506  -23.9574   20.3423 H   0  0  0  0  0  0
  -28.4433  -23.8781   21.6193 H   0  0  0  0  0  0
  -29.1866  -17.0832   22.1420 H   0  0  0  0  0  0
  -30.8806  -17.1600   21.7868 H   0  0  0  0  0  0
  -26.8455  -24.9920   20.3549 H   0  0  0  0  0  0
  -27.7976  -25.0247   18.8672 H   0  0  0  0  0  0
  -28.7571  -17.2213   19.5779 H   0  0  0  0  0  0
  -28.8969  -15.0456   21.4241 H   0  0  0  0  0  0
  1 25  1  0  0  0
  1 30  2  0  0  0
  1 83  1  0  0  0
  2  3  1  0  0  0
  2 25  1  0  0  0
  2 84  1  0  0  0
  2 85  1  0  0  0
  3  4  1  0  0  0
  3 86  1  0  0  0
  3 87  1  0  0  0
  4  5  1  0  0  0
  4 88  1  0  0  0
  4 89  1  0  0  0
  5  6  1  0  0  0
  5 26  1  0  0  0
  5 90  1  0  0  0
  6 25  1  0  0  0
  6 91  1  0  0  0
  6 92  1  0  0  0
  7  8  2  0  0  0
  7 26  1  0  0  0
  7 29  1  0  0  0
  8  9  1  0  0  0
  8 22  1  0  0  0
  9 10  1  0  0  0
  9 27  2  0  0  0
 10 11  2  0  0  0
 10 15  1  0  0  0
 11 12  1  0  0  0
 11 93  1  0  0  0
 12 13  2  0  0  0
 12 94  1  0  0  0
 13 14  1  0  0  0
 13 31  1  0  0  0
 14 15  2  0  0  0
 14 95  1  0  0  0
 15 96  1  0  0  0
 16 17  2  0  0  0
 16 21  1  0  0  0
 16 31  1  0  0  0
 17 18  1  0  0  0
 17 97  1  0  0  0
 18 19  2  0  0  0
 18 98  1  0  0  0
 19 20  1  0  0  0
 19 24  1  0  0  0
 20 21  2  0  0  0
 20 99  1  0  0  0
 21 23  1  0  0  0
 22 28  1  0  0  0
 22 32  2  0  0  0
 26 27  1  0  0  0
 28100  1  0  0  0
 28101  1  0  0  0
 29102  1  0  0  0
 29103  1  0  0  0
 33 34  1  0  0  0
 33 66  1  0  0  0
 33 70  2  0  0  0
 34 36  1  0  0  0
 34 59  1  0  0  0
 34104  1  0  0  0
 35 44  2  0  0  0
 35 45  1  0  0  0
 35 68  1  0  0  0
 36 56  1  0  0  0
 36105  1  0  0  0
 37 39  1  0  0  0
 37 47  1  0  0  0
 37 66  1  0  0  0
 37106  1  0  0  0
 38 43  2  0  0  0
 38 46  1  0  0  0
 38 47  1  0  0  0
 39 64  1  0  0  0
 39 67  2  0  0  0
 40 52  1  0  0  0
 40 53  2  0  0  0
 40 58  1  0  0  0
 41107  1  0  0  0
 41108  1  0  0  0
 41109  1  0  0  0
 41 48  1  0  0  0
 42 43  1  0  0  0
 42 66  1  0  0  0
 42110  1  0  0  0
 42111  1  0  0  0
 43 44  1  0  0  0
 44112  1  0  0  0
 45 46  2  0  0  0
 45113  1  0  0  0
 46114  1  0  0  0
 47115  1  0  0  0
 47116  1  0  0  0
 48 56  1  0  0  0
 48 65  1  0  0  0
 48117  1  0  0  0
 49 50  1  0  0  0
 49 53  1  0  0  0
 49 64  1  0  0  0
 49118  1  0  0  0
 50 51  1  0  0  0
 50119  1  0  0  0
 50120  1  0  0  0
 51 52  1  0  0  0
 51121  1  0  0  0
 51122  1  0  0  0
 52123  1  0  0  0
 52124  1  0  0  0
 53 54  1  0  0  0
 54 55  2  0  0  0
 54125  1  0  0  0
 55 57  1  0  0  0
 55126  1  0  0  0
 56 69  2  0  0  0
 57 58  2  0  0  0
 57127  1  0  0  0
 58128  1  0  0  0
 59 60  1  0  0  0
 59 61  1  0  0  0
 59 62  1  0  0  0
 60129  1  0  0  0
 60130  1  0  0  0
 60131  1  0  0  0
 61132  1  0  0  0
 61133  1  0  0  0
 61134  1  0  0  0
 62135  1  0  0  0
 62136  1  0  0  0
 62137  1  0  0  0
 63 65  1  0  0  0
 63138  1  0  0  0
 63139  1  0  0  0
 63140  1  0  0  0
 64141  1  0  0  0
 65142  1  0  0  0
 68 79  1  0  0  0
 71 72  1  0  0  0
 71 73  2  0  0  0
 71143  1  0  0  0
 72 80  1  0  0  0
 72 81  2  0  0  0
 73 76  1  0  0  0
 73 82  1  0  0  0
 74144  1  0  0  0
 74145  1  0  0  0
 74146  1  0  0  0
 74 80  1  0  0  0
 75 82  1  0  0  0
 75147  1  0  0  0
 75148  1  0  0  0
 75149  1  0  0  0
 76 77  1  0  0  0
 76150  1  0  0  0
 76151  1  0  0  0
 77 79  1  0  0  0
 77152  1  0  0  0
 77153  1  0  0  0
 78 80  1  0  0  0
 78 83  1  0  0  0
 78154  1  0  0  0
 78155  1  0  0  0
 79156  1  0  0  0
 79157  1  0  0  0
 80158  1  0  0  0
 81 82  1  0  0  0
 83159  1  0  0  0
M  ISO  4   1 100  68 101  79 101  83 100
M  END
> <chiral flag>
0

> <version>
0

> <s_m_source_file>
/data/baiqing/PycharmProjects/Reinvent-master-3.2/result/LINK_invent/BTK/process_docking_weight1_custom_sum_contain_oxygen_bond_distance_aromatic_linkinvent_7_9_3/rearranged_h_0058.sdf

> <i_m_source_file_index>
15

> <r_mmod_Potential_Energy-OPLS-2005>
-66.5770568847656

> <r_mmod_Stretch_Energy-OPLS-2005>
41.5705070495605

> <r_mmod_Bend_Energy-OPLS-2005>
132.251373291016

> <r_mmod_Torsional_Energy-OPLS-2005>
215.363433837891

> <r_mmod_Improper_Torsional_Energy-OPLS-2005>
5.45442867279053

> <r_mmod_Van_der_Waal_Energy-OPLS-2005>
149.390426635742

> <r_mmod_Electrostatic_Energy-OPLS-2005>
-429.793975830078

> <r_mmod_Solvation_Energy-OPLS-2005>
-214.671325683594

> <b_mmod_Minimization_Converged-OPLS-2005>
0

> <r_mmod_RMS_Derivative-OPLS-2005>
6.63823556900024

$$$$
15
                    3D
 Structure written by MMmdl.
170178  0  0  1  0            999 V2000
  -30.7908  -14.4974   20.5582 C   0  0  0  0  0  0
  -30.4217  -12.3423   19.4024 C   0  0  0  0  0  0
  -29.4905  -12.4869   18.1872 C   0  0  0  0  0  0
  -28.0129  -12.3316   18.6073 C   0  0  0  0  0  0
  -27.6588  -13.1764   19.8587 C   0  0  2  0  0  0
  -28.7245  -12.9971   20.9550 C   0  0  0  0  0  0
  -25.2631  -13.7958   20.5716 C   0  0  0  0  0  0
  -24.1856  -13.0302   20.9187 C   0  0  0  0  0  0
  -24.6395  -11.6786   20.8755 C   0  0  0  0  0  0
  -23.9044  -10.4218   21.0424 C   0  0  0  0  0  0
  -24.3638   -9.4167   21.9203 C   0  0  0  0  0  0
  -23.6346   -8.2186   22.0798 C   0  0  0  0  0  0
  -22.4319   -8.0247   21.3587 C   0  0  0  0  0  0
  -21.9922   -9.0178   20.4670 C   0  0  0  0  0  0
  -22.7207  -10.2073   20.3071 C   0  0  0  0  0  0
  -21.6832   -6.0758   22.5324 C   0  0  0  0  0  0
  -21.3945   -6.5646   23.8247 C   0  0  0  0  0  0
  -21.3687   -5.6799   24.9214 C   0  0  0  0  0  0
  -21.6089   -4.3068   24.7256 C   0  0  0  0  0  0
  -21.8802   -3.8178   23.4362 C   0  0  0  0  0  0
  -21.9172   -4.6992   22.3426 C   0  0  0  0  0  0
  -22.7897  -13.5148   21.1881 C   0  0  0  0  0  0
  -22.1650   -4.2198   21.1004 F   0  0  0  0  0  0
  -21.5704   -3.4547   25.7760 F   0  0  0  0  0  0
  -30.0090  -13.3906   20.3640 N   0  0  0  0  0  0
  -26.3058  -12.9095   20.3398 N   0  0  0  0  0  0
  -25.9337  -11.6291   20.5833 N   0  0  0  0  0  0
  -22.0545  -12.8126   22.0441 N   0  0  0  0  0  0
  -25.4266  -15.1620   20.4199 N   0  0  0  0  0  0
  -31.9992  -14.3853   20.3266 O   0  0  0  0  0  0
  -21.6651   -6.8883   21.4287 O   0  0  0  0  0  0
  -22.3560  -14.5464   20.6758 O   0  0  0  0  0  0
  -24.6142  -31.8697   23.2121 C   0  0  0  0  0  0
  -25.9036  -32.4827   23.8413 C   0  0  1  0  0  0
  -27.2305  -27.4430   20.0661 C   0  0  0  0  0  0
  -25.5892  -33.8625   24.2339 N   0  0  0  0  0  0
  -23.4006  -30.4971   21.5526 C   0  0  2  0  0  0
  -24.8421  -28.9648   20.1174 C   0  0  0  0  0  0
  -22.7392  -29.4683   22.4989 C   0  0  0  0  0  0
  -18.0270  -28.1380   22.8487 C   0  0  0  0  0  0
  -24.1480  -36.7314   23.2635 C   0  0  0  0  0  0
  -25.9314  -30.8328   21.3676 C   0  0  0  0  0  0
  -26.0046  -29.4689   20.7110 C   0  0  0  0  0  0
  -27.1979  -28.7115   20.6907 C   0  0  0  0  0  0
  -26.0304  -26.9383   19.5087 C   0  0  0  0  0  0
  -24.8477  -27.6948   19.5211 C   0  0  0  0  0  0
  -23.6071  -29.8322   20.1668 C   0  0  0  0  0  0
  -25.4098  -36.3117   24.0342 C   0  0  1  0  0  0
  -20.5864  -28.3669   23.1303 C   0  0  2  0  0  0
  -20.6758  -26.9410   22.5400 C   0  0  0  0  0  0
  -19.5739  -26.6392   21.5195 C   0  0  0  0  0  0
  -18.1921  -26.7925   22.1617 C   0  0  0  0  0  0
  -19.1520  -28.8835   23.2897 C   0  0  0  0  0  0
  -18.9451  -30.1438   23.8913 C   0  0  0  0  0  0
  -17.6454  -30.6587   24.0562 C   0  0  0  0  0  0
  -25.9028  -34.9481   23.5137 C   0  0  0  0  0  0
  -16.5350  -29.9091   23.6318 C   0  0  0  0  0  0
  -16.7261  -28.6508   23.0346 C   0  0  0  0  0  0
  -26.4462  -31.6610   25.0743 C   0  0  0  0  0  0
  -25.3733  -31.3701   26.1496 C   0  0  0  0  0  0
  -27.0295  -30.3058   24.6123 C   0  0  0  0  0  0
  -27.6046  -32.4324   25.7488 C   0  0  0  0  0  0
  -27.5585  -37.1801   24.8454 C   0  0  0  0  0  0
  -21.4125  -29.3050   22.3715 N   0  0  0  0  0  0
  -26.4280  -37.3807   23.9424 N   0  0  0  0  0  0
  -24.6675  -31.0810   22.1014 N   0  0  0  0  0  0
  -23.4162  -28.8210   23.3011 O   0  0  0  0  0  0
  -28.4140  -26.7295   20.0490 O   0  0  0  0  0  0
  -26.5602  -34.8926   22.4706 O   0  0  0  0  0  0
  -23.5341  -32.1442   23.7523 O   0  0  0  0  0  0
  -30.4685  -20.2287   19.5592 C   0  0  0  0  0  0
  -30.7938  -18.1522   19.5933 C   0  0  0  0  0  0
  -32.9484  -19.9149   21.6929 C   0  0  0  0  0  0
  -28.0149  -16.9394   20.5397 C   0  0  0  0  0  0
  -28.7961  -15.7712   22.6872 C   0  0  0  0  0  0
  -30.4197  -21.6868   19.9360 C   0  0  0  0  0  0
  -31.2743  -16.7786   19.9872 C   0  0  0  0  0  0
  -28.9815  -22.2303   20.0139 C   0  0  0  0  0  0
  -28.8692  -23.7363   20.3317 C   0  0  0  0  0  0
  -29.5165  -24.6558   19.2739 C   0  0  0  0  0  0
  -31.5072  -19.3913   21.7124 C   0  0  0  0  0  0
  -28.6899  -25.9016   18.9106 C   0  0  0  0  0  0
  -29.2175  -16.4316   21.3624 C   0  0  0  0  0  0
  -30.0713  -19.7763   18.3639 N   0  0  0  0  0  0
  -30.2824  -18.4182   18.3874 N   0  0  0  0  0  0
  -30.9514  -19.2578   20.3678 N   0  0  0  0  0  0
  -30.2762  -15.7826   20.5253 N   0  0  0  0  0  0
  -31.4620  -12.4075   19.0788 H   0  0  0  0  0  0
  -30.3374  -11.3522   19.8468 H   0  0  0  0  0  0
  -29.7468  -11.7579   17.4166 H   0  0  0  0  0  0
  -29.6397  -13.4680   17.7386 H   0  0  0  0  0  0
  -27.8332  -11.2734   18.8077 H   0  0  0  0  0  0
  -27.3619  -12.6075   17.7783 H   0  0  0  0  0  0
  -27.6884  -14.2066   19.5287 H   0  0  0  0  0  0
  -28.7707  -11.9509   21.2640 H   0  0  0  0  0  0
  -28.4756  -13.5012   21.8694 H   0  0  0  0  0  0
  -25.2800   -9.5674   22.4752 H   0  0  0  0  0  0
  -24.0082   -7.4546   22.7473 H   0  0  0  0  0  0
  -21.0884   -8.8573   19.8960 H   0  0  0  0  0  0
  -22.3598  -10.9584   19.6174 H   0  0  0  0  0  0
  -21.1827   -7.6133   23.9737 H   0  0  0  0  0  0
  -21.1606   -6.0561   25.9119 H   0  0  0  0  0  0
  -22.0580   -2.7655   23.2819 H   0  0  0  0  0  0
  -22.4113  -11.9659   22.4608 H   0  0  0  0  0  0
  -21.1225  -13.1205   22.2797 H   0  0  0  0  0  0
  -24.6775  -15.8118   20.6306 H   0  0  0  0  0  0
  -26.3145  -15.6125   20.2381 H   0  0  0  0  0  0
  -26.7103  -32.5531   23.1173 H   0  0  0  0  0  0
  -25.0030  -33.9790   25.0475 H   0  0  0  0  0  0
  -22.6906  -31.3147   21.4128 H   0  0  0  0  0  0
  -23.3754  -35.9631   23.3280 H   0  0  0  0  0  0
  -24.3577  -36.8950   22.2052 H   0  0  0  0  0  0
  -23.7209  -37.6501   23.6662 H   0  0  0  0  0  0
  -26.0507  -31.6005   20.6021 H   0  0  0  0  0  0
  -26.8171  -30.8801   21.9893 H   0  0  0  0  0  0
  -28.1000  -29.1013   21.1419 H   0  0  0  0  0  0
  -25.9648  -25.9525   19.0767 H   0  0  0  0  0  0
  -23.9464  -27.2904   19.0822 H   0  0  0  0  0  0
  -23.7180  -30.6059   19.4065 H   0  0  0  0  0  0
  -22.7304  -29.2552   19.8680 H   0  0  0  0  0  0
  -25.1275  -36.1981   25.0834 H   0  0  0  0  0  0
  -20.9957  -28.3231   24.1421 H   0  0  0  0  0  0
  -20.5633  -26.2286   23.3584 H   0  0  0  0  0  0
  -21.6632  -26.7422   22.1217 H   0  0  0  0  0  0
  -19.6899  -25.6298   21.1229 H   0  0  0  0  0  0
  -19.6684  -27.3196   20.6719 H   0  0  0  0  0  0
  -17.4180  -26.6651   21.4036 H   0  0  0  0  0  0
  -18.0346  -26.0065   22.9013 H   0  0  0  0  0  0
  -19.7928  -30.7246   24.2299 H   0  0  0  0  0  0
  -17.5013  -31.6273   24.5162 H   0  0  0  0  0  0
  -15.5356  -30.3005   23.7626 H   0  0  0  0  0  0
  -15.8659  -28.0830   22.7060 H   0  0  0  0  0  0
  -24.5907  -30.7050   25.7820 H   0  0  0  0  0  0
  -24.8926  -32.2850   26.4974 H   0  0  0  0  0  0
  -25.8103  -30.8842   27.0231 H   0  0  0  0  0  0
  -26.2843  -29.6822   24.1170 H   0  0  0  0  0  0
  -27.4051  -29.7296   25.4588 H   0  0  0  0  0  0
  -27.8684  -30.4377   23.9284 H   0  0  0  0  0  0
  -27.2685  -33.3611   26.2106 H   0  0  0  0  0  0
  -28.3831  -32.6908   25.0298 H   0  0  0  0  0  0
  -28.0743  -31.8426   26.5368 H   0  0  0  0  0  0
  -28.2578  -38.0126   24.7571 H   0  0  0  0  0  0
  -28.1121  -36.2673   24.6204 H   0  0  0  0  0  0
  -27.2319  -37.1346   25.8857 H   0  0  0  0  0  0
  -20.9271  -29.8798   21.6972 H   0  0  0  0  0  0
  -26.0179  -38.2876   24.1475 H   0  0  0  0  0  0
  -33.3347  -20.0186   22.7103 H   0  0  0  0  0  0
  -33.0227  -20.8900   21.2087 H   0  0  0  0  0  0
  -33.6072  -19.2322   21.1563 H   0  0  0  0  0  0
  -28.2135  -17.9149   20.1010 H   0  0  0  0  0  0
  -27.1345  -17.0879   21.1655 H   0  0  0  0  0  0
  -27.7574  -16.2934   19.7058 H   0  0  0  0  0  0
  -28.6614  -16.5325   23.4556 H   0  0  0  0  0  0
  -29.5315  -15.0698   23.0808 H   0  0  0  0  0  0
  -27.8168  -15.2986   22.6071 H   0  0  0  0  0  0
  -30.9962  -22.2418   19.1960 H   0  0  0  0  0  0
  -30.9179  -21.8595   20.8883 H   0  0  0  0  0  0
  -32.0869  -16.8938   20.7048 H   0  0  0  0  0  0
  -31.7433  -16.3895   19.0813 H   0  0  0  0  0  0
  -28.4353  -21.6655   20.7701 H   0  0  0  0  0  0
  -28.4753  -22.0335   19.0683 H   0  0  0  0  0  0
  -29.3072  -23.9441   21.3093 H   0  0  0  0  0  0
  -27.8100  -23.9804   20.4289 H   0  0  0  0  0  0
  -29.6611  -24.0947   18.3493 H   0  0  0  0  0  0
  -30.5149  -24.9471   19.5976 H   0  0  0  0  0  0
  -30.8587  -20.0493   22.2924 H   0  0  0  0  0  0
  -31.4864  -18.4311   22.2260 H   0  0  0  0  0  0
  -27.8173  -25.5554   18.3660 H   0  0  0  0  0  0
  -29.2464  -26.5066   18.1947 H   0  0  0  0  0  0
  -29.6625  -17.3385   21.7535 H   0  0  0  0  0  0
  1 25  1  0  0  0
  1 30  2  0  0  0
  1 87  1  0  0  0
  2  3  1  0  0  0
  2 25  1  0  0  0
  2 88  1  0  0  0
  2 89  1  0  0  0
  3  4  1  0  0  0
  3 90  1  0  0  0
  3 91  1  0  0  0
  4  5  1  0  0  0
  4 92  1  0  0  0
  4 93  1  0  0  0
  5  6  1  0  0  0
  5 26  1  0  0  0
  5 94  1  0  0  0
  6 25  1  0  0  0
  6 95  1  0  0  0
  6 96  1  0  0  0
  7  8  2  0  0  0
  7 26  1  0  0  0
  7 29  1  0  0  0
  8  9  1  0  0  0
  8 22  1  0  0  0
  9 10  1  0  0  0
  9 27  2  0  0  0
 10 11  2  0  0  0
 10 15  1  0  0  0
 11 12  1  0  0  0
 11 97  1  0  0  0
 12 13  2  0  0  0
 12 98  1  0  0  0
 13 14  1  0  0  0
 13 31  1  0  0  0
 14 15  2  0  0  0
 14 99  1  0  0  0
 15100  1  0  0  0
 16 17  2  0  0  0
 16 21  1  0  0  0
 16 31  1  0  0  0
 17 18  1  0  0  0
 17101  1  0  0  0
 18 19  2  0  0  0
 18102  1  0  0  0
 19 20  1  0  0  0
 19 24  1  0  0  0
 20 21  2  0  0  0
 20103  1  0  0  0
 21 23  1  0  0  0
 22 28  1  0  0  0
 22 32  2  0  0  0
 26 27  1  0  0  0
 28104  1  0  0  0
 28105  1  0  0  0
 29106  1  0  0  0
 29107  1  0  0  0
 33 34  1  0  0  0
 33 66  1  0  0  0
 33 70  2  0  0  0
 34 36  1  0  0  0
 34 59  1  0  0  0
 34108  1  0  0  0
 35 44  2  0  0  0
 35 45  1  0  0  0
 35 68  1  0  0  0
 36 56  1  0  0  0
 36109  1  0  0  0
 37 39  1  0  0  0
 37 47  1  0  0  0
 37 66  1  0  0  0
 37110  1  0  0  0
 38 43  2  0  0  0
 38 46  1  0  0  0
 38 47  1  0  0  0
 39 64  1  0  0  0
 39 67  2  0  0  0
 40 52  1  0  0  0
 40 53  2  0  0  0
 40 58  1  0  0  0
 41111  1  0  0  0
 41112  1  0  0  0
 41113  1  0  0  0
 41 48  1  0  0  0
 42 43  1  0  0  0
 42 66  1  0  0  0
 42114  1  0  0  0
 42115  1  0  0  0
 43 44  1  0  0  0
 44116  1  0  0  0
 45 46  2  0  0  0
 45117  1  0  0  0
 46118  1  0  0  0
 47119  1  0  0  0
 47120  1  0  0  0
 48 56  1  0  0  0
 48 65  1  0  0  0
 48121  1  0  0  0
 49 50  1  0  0  0
 49 53  1  0  0  0
 49 64  1  0  0  0
 49122  1  0  0  0
 50 51  1  0  0  0
 50123  1  0  0  0
 50124  1  0  0  0
 51 52  1  0  0  0
 51125  1  0  0  0
 51126  1  0  0  0
 52127  1  0  0  0
 52128  1  0  0  0
 53 54  1  0  0  0
 54 55  2  0  0  0
 54129  1  0  0  0
 55 57  1  0  0  0
 55130  1  0  0  0
 56 69  2  0  0  0
 57 58  2  0  0  0
 57131  1  0  0  0
 58132  1  0  0  0
 59 60  1  0  0  0
 59 61  1  0  0  0
 59 62  1  0  0  0
 60133  1  0  0  0
 60134  1  0  0  0
 60135  1  0  0  0
 61136  1  0  0  0
 61137  1  0  0  0
 61138  1  0  0  0
 62139  1  0  0  0
 62140  1  0  0  0
 62141  1  0  0  0
 63 65  1  0  0  0
 63142  1  0  0  0
 63143  1  0  0  0
 63144  1  0  0  0
 64145  1  0  0  0
 65146  1  0  0  0
 68 82  1  0  0  0
 71 76  1  0  0  0
 71 84  2  0  0  0
 71 86  1  0  0  0
 72 77  1  0  0  0
 72 85  2  0  0  0
 72 86  1  0  0  0
 73 81  1  0  0  0
 73147  1  0  0  0
 73148  1  0  0  0
 73149  1  0  0  0
 74150  1  0  0  0
 74151  1  0  0  0
 74152  1  0  0  0
 74 83  1  0  0  0
 75 83  1  0  0  0
 75153  1  0  0  0
 75154  1  0  0  0
 75155  1  0  0  0
 76 78  1  0  0  0
 76156  1  0  0  0
 76157  1  0  0  0
 77 87  1  0  0  0
 77158  1  0  0  0
 77159  1  0  0  0
 78 79  1  0  0  0
 78160  1  0  0  0
 78161  1  0  0  0
 79 80  1  0  0  0
 79162  1  0  0  0
 79163  1  0  0  0
 80 82  1  0  0  0
 80164  1  0  0  0
 80165  1  0  0  0
 81 86  1  0  0  0
 81166  1  0  0  0
 81167  1  0  0  0
 82168  1  0  0  0
 82169  1  0  0  0
 83 87  1  0  0  0
 83170  1  0  0  0
 84 85  1  0  0  0
M  ISO  4   1 100  68 101  82 101  87 100
M  END
> <chiral flag>
0

> <version>
0

> <s_m_source_file>
/data/baiqing/PycharmProjects/Reinvent-master-3.2/result/LINK_invent/BTK/process_docking_weight1_custom_sum_contain_oxygen_bond_distance_aromatic_linkinvent_7_9_3/rearranged_h_0058.sdf

> <i_m_source_file_index>
16

> <r_mmod_Potential_Energy-OPLS-2005>
217.558334350586

> <r_mmod_Stretch_Energy-OPLS-2005>
48.428165435791

> <r_mmod_Bend_Energy-OPLS-2005>
181.000366210938

> <r_mmod_Torsional_Energy-OPLS-2005>
299.860534667969

> <r_mmod_Improper_Torsional_Energy-OPLS-2005>
17.237720489502

> <r_mmod_Van_der_Waal_Energy-OPLS-2005>
160.989868164062

> <r_mmod_Electrostatic_Energy-OPLS-2005>
-318.597991943359

> <r_mmod_Solvation_Energy-OPLS-2005>
-209.558944702148

> <b_mmod_Minimization_Converged-OPLS-2005>
0

> <r_mmod_RMS_Derivative-OPLS-2005>
4.4090723991394

$$$$
16
                    3D
 Structure written by MMmdl.
160168  0  0  1  0            999 V2000
  -30.5482  -15.0089   20.3943 C   0  0  0  0  0  0
  -30.4256  -12.6260   19.5217 C   0  0  0  0  0  0
  -29.5307  -12.5518   18.2634 C   0  0  0  0  0  0
  -28.0590  -12.3302   18.6638 C   0  0  0  0  0  0
  -27.6230  -13.2576   19.8312 C   0  0  2  0  0  0
  -28.6596  -13.3267   20.9735 C   0  0  0  0  0  0
  -25.2427  -13.8235   20.5633 C   0  0  0  0  0  0
  -24.1779  -13.0463   20.9254 C   0  0  0  0  0  0
  -24.6413  -11.6956   20.8777 C   0  0  0  0  0  0
  -23.9080  -10.4338   21.0422 C   0  0  0  0  0  0
  -24.3629   -9.4245   21.9202 C   0  0  0  0  0  0
  -23.6308   -8.2274   22.0744 C   0  0  0  0  0  0
  -22.4291   -8.0294   21.3539 C   0  0  0  0  0  0
  -21.9938   -9.0267   20.4638 C   0  0  0  0  0  0
  -22.7250  -10.2169   20.3055 C   0  0  0  0  0  0
  -21.6849   -6.0743   22.5289 C   0  0  0  0  0  0
  -21.4026   -6.5635   23.8228 C   0  0  0  0  0  0
  -21.3683   -5.6782   24.9185 C   0  0  0  0  0  0
  -21.6034   -4.3043   24.7224 C   0  0  0  0  0  0
  -21.8823   -3.8145   23.4347 C   0  0  0  0  0  0
  -21.9210   -4.6976   22.3417 C   0  0  0  0  0  0
  -22.7817  -13.5217   21.1845 C   0  0  0  0  0  0
  -22.1653   -4.2156   21.1002 F   0  0  0  0  0  0
  -21.5629   -3.4534   25.7730 F   0  0  0  0  0  0
  -29.9297  -13.7507   20.3781 N   0  0  0  0  0  0
  -26.2849  -12.9483   20.3179 N   0  0  0  0  0  0
  -25.9351  -11.6601   20.5748 N   0  0  0  0  0  0
  -22.0400  -12.8282   22.0399 N   0  0  0  0  0  0
  -25.4012  -15.1937   20.3866 N   0  0  0  0  0  0
  -31.7529  -14.9985   20.1258 O   0  0  0  0  0  0
  -21.6643   -6.8893   21.4243 O   0  0  0  0  0  0
  -22.3544  -14.5514   20.6621 O   0  0  0  0  0  0
  -24.6473  -31.8381   23.1845 C   0  0  0  0  0  0
  -25.9246  -32.4643   23.8215 C   0  0  1  0  0  0
  -27.2061  -27.0768   20.1837 C   0  0  0  0  0  0
  -25.6014  -33.8455   24.2163 N   0  0  0  0  0  0
  -23.4553  -30.4569   21.5297 C   0  0  2  0  0  0
  -24.9031  -28.8705   20.1138 C   0  0  0  0  0  0
  -22.7589  -29.4545   22.4845 C   0  0  0  0  0  0
  -18.0330  -28.1360   22.8476 C   0  0  0  0  0  0
  -24.1516  -36.7218   23.2646 C   0  0  0  0  0  0
  -26.0126  -30.6922   21.3948 C   0  0  0  0  0  0
  -26.0805  -29.2982   20.7391 C   0  0  0  0  0  0
  -27.2343  -28.4209   20.7532 C   0  0  0  0  0  0
  -26.0057  -26.7622   19.5120 C   0  0  0  0  0  0
  -24.8821  -27.6180   19.4795 C   0  0  0  0  0  0
  -23.6807  -29.7767   20.1527 C   0  0  0  0  0  0
  -25.4153  -36.3000   24.0314 C   0  0  1  0  0  0
  -20.5943  -28.3693   23.1218 C   0  0  2  0  0  0
  -20.6818  -26.9383   22.5419 C   0  0  0  0  0  0
  -19.5786  -26.6335   21.5224 C   0  0  0  0  0  0
  -18.1957  -26.7909   22.1607 C   0  0  0  0  0  0
  -19.1584  -28.8847   23.2840 C   0  0  0  0  0  0
  -18.9492  -30.1452   23.8843 C   0  0  0  0  0  0
  -17.6478  -30.6552   24.0535 C   0  0  0  0  0  0
  -25.9097  -34.9376   23.5036 C   0  0  0  0  0  0
  -16.5369  -29.9020   23.6341 C   0  0  0  0  0  0
  -16.7312  -28.6449   23.0347 C   0  0  0  0  0  0
  -26.4559  -31.6531   25.0686 C   0  0  0  0  0  0
  -25.3724  -31.3731   26.1375 C   0  0  0  0  0  0
  -27.0445  -30.2917   24.6325 C   0  0  0  0  0  0
  -27.6096  -32.4288   25.7456 C   0  0  0  0  0  0
  -27.5600  -37.1760   24.8461 C   0  0  0  0  0  0
  -21.4289  -29.3017   22.3584 N   0  0  0  0  0  0
  -26.4305  -37.3728   23.9410 N   0  0  0  0  0  0
  -24.7250  -31.0181   22.0901 N   0  0  0  0  0  0
  -23.4223  -28.8087   23.2998 O   0  0  0  0  0  0
  -28.2484  -26.0670   20.2327 O   0  0  0  0  0  0
  -26.5654  -34.8889   22.4598 O   0  0  0  0  0  0
  -23.5591  -32.1295   23.7032 O   0  0  0  0  0  0
  -28.0534  -20.8144   21.3103 C   0  0  0  0  0  0
  -28.8416  -21.5581   20.4416 C   0  0  0  0  0  0
  -29.3673  -19.1728   20.3637 C   0  0  0  0  0  0
  -30.0337  -18.6330   17.3609 C   0  0  0  0  0  0
  -31.6151  -17.9986   19.9530 C   0  0  0  0  0  0
  -27.7902  -18.4005   22.1030 C   0  0  0  0  0  0
  -28.9864  -23.1880   20.0864 C   0  0  0  0  0  0
  -29.7134  -17.5160   18.3673 C   0  0  0  0  0  0
  -27.9794  -24.5192   20.4668 C   0  0  0  0  0  0
  -30.0912  -17.7290   19.8679 C   0  0  2  0  0  0
  -28.3894  -19.4423   21.2657 N   0  0  0  0  0  0
  -29.6305  -20.4746   19.9105 N   0  3  0  0  0  0
  -29.8188  -16.2552   20.4684 N   0  0  0  0  0  0
  -31.4677  -12.7586   19.2243 H   0  0  0  0  0  0
  -30.3922  -11.6841   20.0704 H   0  0  0  0  0  0
  -29.8782  -11.7567   17.6051 H   0  0  0  0  0  0
  -29.6165  -13.4792   17.6920 H   0  0  0  0  0  0
  -27.9555  -11.2851   18.9590 H   0  0  0  0  0  0
  -27.4003  -12.4678   17.8034 H   0  0  0  0  0  0
  -27.5732  -14.2553   19.3982 H   0  0  0  0  0  0
  -28.7680  -12.3634   21.4703 H   0  0  0  0  0  0
  -28.3438  -14.0441   21.7324 H   0  0  0  0  0  0
  -25.2758   -9.5720   22.4775 H   0  0  0  0  0  0
  -24.0030   -7.4664   22.7431 H   0  0  0  0  0  0
  -21.0864   -8.8747   19.8942 H   0  0  0  0  0  0
  -22.3663  -10.9699   19.6160 H   0  0  0  0  0  0
  -21.2004   -7.6125   23.9747 H   0  0  0  0  0  0
  -21.1486   -6.0490   25.9092 H   0  0  0  0  0  0
  -22.0594   -2.7582   23.2827 H   0  0  0  0  0  0
  -22.3946  -12.0059   22.5004 H   0  0  0  0  0  0
  -21.0990  -13.1306   22.2406 H   0  0  0  0  0  0
  -24.5797  -15.7893   20.3923 H   0  0  0  0  0  0
  -26.1470  -15.5774   19.8251 H   0  0  0  0  0  0
  -26.7298  -32.5235   23.0915 H   0  0  0  0  0  0
  -25.0213  -33.9554   25.0350 H   0  0  0  0  0  0
  -22.7614  -31.2859   21.3722 H   0  0  0  0  0  0
  -23.3803  -35.9521   23.3255 H   0  0  0  0  0  0
  -24.3607  -36.8887   22.2068 H   0  0  0  0  0  0
  -23.7216  -37.6384   23.6697 H   0  0  0  0  0  0
  -26.1890  -31.4405   20.6227 H   0  0  0  0  0  0
  -26.8768  -30.7352   22.0450 H   0  0  0  0  0  0
  -28.1303  -28.7424   21.2653 H   0  0  0  0  0  0
  -25.9078  -25.8099   19.0109 H   0  0  0  0  0  0
  -23.9854  -27.2892   18.9719 H   0  0  0  0  0  0
  -23.8127  -30.5459   19.3902 H   0  0  0  0  0  0
  -22.7943  -29.2153   19.8509 H   0  0  0  0  0  0
  -25.1347  -36.1826   25.0802 H   0  0  0  0  0  0
  -21.0068  -28.3272   24.1320 H   0  0  0  0  0  0
  -20.5695  -26.2280   23.3631 H   0  0  0  0  0  0
  -21.6668  -26.7353   22.1193 H   0  0  0  0  0  0
  -19.6926  -25.6240   21.1237 H   0  0  0  0  0  0
  -19.6731  -27.3146   20.6748 H   0  0  0  0  0  0
  -17.4260  -26.6695   21.3988 H   0  0  0  0  0  0
  -18.0302  -26.0042   22.8967 H   0  0  0  0  0  0
  -19.7973  -30.7303   24.2144 H   0  0  0  0  0  0
  -17.5018  -31.6241   24.5109 H   0  0  0  0  0  0
  -15.5351  -30.2863   23.7720 H   0  0  0  0  0  0
  -15.8728  -28.0742   22.7043 H   0  0  0  0  0  0
  -24.5934  -30.7059   25.7686 H   0  0  0  0  0  0
  -24.8902  -32.2922   26.4717 H   0  0  0  0  0  0
  -25.8005  -30.8956   27.0206 H   0  0  0  0  0  0
  -26.3098  -29.6583   24.1361 H   0  0  0  0  0  0
  -27.4072  -29.7266   25.4923 H   0  0  0  0  0  0
  -27.8993  -30.4125   23.9664 H   0  0  0  0  0  0
  -27.2726  -33.3615   26.1978 H   0  0  0  0  0  0
  -28.3938  -32.6791   25.0299 H   0  0  0  0  0  0
  -28.0746  -31.8451   26.5408 H   0  0  0  0  0  0
  -28.2589  -38.0091   24.7550 H   0  0  0  0  0  0
  -28.1124  -36.2612   24.6242 H   0  0  0  0  0  0
  -27.2308  -37.1340   25.8861 H   0  0  0  0  0  0
  -20.9489  -29.8691   21.6745 H   0  0  0  0  0  0
  -26.0170  -38.2796   24.1425 H   0  0  0  0  0  0
  -27.2795  -21.1706   21.9795 H   0  0  0  0  0  0
  -29.8705  -18.2795   16.3432 H   0  0  0  0  0  0
  -31.0734  -18.9647   17.4079 H   0  0  0  0  0  0
  -29.3853  -19.5004   17.4774 H   0  0  0  0  0  0
  -31.8845  -18.9976   19.6049 H   0  0  0  0  0  0
  -32.1892  -17.3093   19.3330 H   0  0  0  0  0  0
  -31.9738  -17.9076   20.9777 H   0  0  0  0  0  0
  -27.2003  -18.8614   22.8985 H   0  0  0  0  0  0
  -28.5751  -17.7927   22.5551 H   0  0  0  0  0  0
  -27.1391  -17.7734   21.4949 H   0  0  0  0  0  0
  -29.1058  -23.2287   19.0047 H   0  0  0  0  0  0
  -29.9653  -23.4686   20.4728 H   0  0  0  0  0  0
  -30.1951  -16.6118   17.9924 H   0  0  0  0  0  0
  -28.6447  -17.3064   18.3004 H   0  0  0  0  0  0
  -27.8092  -24.4544   21.5400 H   0  0  0  0  0  0
  -27.0122  -24.2777   20.0366 H   0  0  0  0  0  0
  -30.3603  -20.6502   19.2294 H   0  0  0  0  0  0
  -28.8562  -16.1064   20.7238 H   0  0  0  0  0  0
  1 25  1  0  0  0
  1 30  2  0  0  0
  1 83  1  0  0  0
  2  3  1  0  0  0
  2 25  1  0  0  0
  2 84  1  0  0  0
  2 85  1  0  0  0
  3  4  1  0  0  0
  3 86  1  0  0  0
  3 87  1  0  0  0
  4  5  1  0  0  0
  4 88  1  0  0  0
  4 89  1  0  0  0
  5  6  1  0  0  0
  5 26  1  0  0  0
  5 90  1  0  0  0
  6 25  1  0  0  0
  6 91  1  0  0  0
  6 92  1  0  0  0
  7  8  2  0  0  0
  7 26  1  0  0  0
  7 29  1  0  0  0
  8  9  1  0  0  0
  8 22  1  0  0  0
  9 10  1  0  0  0
  9 27  2  0  0  0
 10 11  2  0  0  0
 10 15  1  0  0  0
 11 12  1  0  0  0
 11 93  1  0  0  0
 12 13  2  0  0  0
 12 94  1  0  0  0
 13 14  1  0  0  0
 13 31  1  0  0  0
 14 15  2  0  0  0
 14 95  1  0  0  0
 15 96  1  0  0  0
 16 17  2  0  0  0
 16 21  1  0  0  0
 16 31  1  0  0  0
 17 18  1  0  0  0
 17 97  1  0  0  0
 18 19  2  0  0  0
 18 98  1  0  0  0
 19 20  1  0  0  0
 19 24  1  0  0  0
 20 21  2  0  0  0
 20 99  1  0  0  0
 21 23  1  0  0  0
 22 28  1  0  0  0
 22 32  2  0  0  0
 26 27  1  0  0  0
 28100  1  0  0  0
 28101  1  0  0  0
 29102  1  0  0  0
 29103  1  0  0  0
 33 34  1  0  0  0
 33 66  1  0  0  0
 33 70  2  0  0  0
 34 36  1  0  0  0
 34 59  1  0  0  0
 34104  1  0  0  0
 35 44  2  0  0  0
 35 45  1  0  0  0
 35 68  1  0  0  0
 36 56  1  0  0  0
 36105  1  0  0  0
 37 39  1  0  0  0
 37 47  1  0  0  0
 37 66  1  0  0  0
 37106  1  0  0  0
 38 43  2  0  0  0
 38 46  1  0  0  0
 38 47  1  0  0  0
 39 64  1  0  0  0
 39 67  2  0  0  0
 40 52  1  0  0  0
 40 53  2  0  0  0
 40 58  1  0  0  0
 41107  1  0  0  0
 41108  1  0  0  0
 41109  1  0  0  0
 41 48  1  0  0  0
 42 43  1  0  0  0
 42 66  1  0  0  0
 42110  1  0  0  0
 42111  1  0  0  0
 43 44  1  0  0  0
 44112  1  0  0  0
 45 46  2  0  0  0
 45113  1  0  0  0
 46114  1  0  0  0
 47115  1  0  0  0
 47116  1  0  0  0
 48 56  1  0  0  0
 48 65  1  0  0  0
 48117  1  0  0  0
 49 50  1  0  0  0
 49 53  1  0  0  0
 49 64  1  0  0  0
 49118  1  0  0  0
 50 51  1  0  0  0
 50119  1  0  0  0
 50120  1  0  0  0
 51 52  1  0  0  0
 51121  1  0  0  0
 51122  1  0  0  0
 52123  1  0  0  0
 52124  1  0  0  0
 53 54  1  0  0  0
 54 55  2  0  0  0
 54125  1  0  0  0
 55 57  1  0  0  0
 55126  1  0  0  0
 56 69  2  0  0  0
 57 58  2  0  0  0
 57127  1  0  0  0
 58128  1  0  0  0
 59 60  1  0  0  0
 59 61  1  0  0  0
 59 62  1  0  0  0
 60129  1  0  0  0
 60130  1  0  0  0
 60131  1  0  0  0
 61132  1  0  0  0
 61133  1  0  0  0
 61134  1  0  0  0
 62135  1  0  0  0
 62136  1  0  0  0
 62137  1  0  0  0
 63 65  1  0  0  0
 63138  1  0  0  0
 63139  1  0  0  0
 63140  1  0  0  0
 64141  1  0  0  0
 65142  1  0  0  0
 68 79  1  0  0  0
 71 72  2  0  0  0
 71 81  1  0  0  0
 71143  1  0  0  0
 72 77  1  0  0  0
 72 82  1  0  0  0
 73 80  1  0  0  0
 73 81  1  0  0  0
 73 82  2  0  0  0
 74 78  1  0  0  0
 74144  1  0  0  0
 74145  1  0  0  0
 74146  1  0  0  0
 75147  1  0  0  0
 75148  1  0  0  0
 75149  1  0  0  0
 75 80  1  0  0  0
 76 81  1  0  0  0
 76150  1  0  0  0
 76151  1  0  0  0
 76152  1  0  0  0
 77 79  1  0  0  0
 77153  1  0  0  0
 77154  1  0  0  0
 78 80  1  0  0  0
 78155  1  0  0  0
 78156  1  0  0  0
 79157  1  0  0  0
 79158  1  0  0  0
 80 83  1  0  0  0
 82159  1  0  0  0
 83160  1  0  0  0
M  CHG  1  82   1
M  ISO  4   1 100  68 101  79 101  83 100
M  END
> <chiral flag>
0

> <version>
0

> <s_m_source_file>
/data/baiqing/PycharmProjects/Reinvent-master-3.2/result/LINK_invent/BTK/process_docking_weight1_custom_sum_contain_oxygen_bond_distance_aromatic_linkinvent_7_9_3/rearranged_h_0058.sdf

> <i_m_source_file_index>
17

> <r_mmod_Potential_Energy-OPLS-2005>
595.392028808594

> <r_mmod_Stretch_Energy-OPLS-2005>
333.012664794922

> <r_mmod_Bend_Energy-OPLS-2005>
309.432037353516

> <r_mmod_Torsional_Energy-OPLS-2005>
237.90168762207

> <r_mmod_Improper_Torsional_Energy-OPLS-2005>
8.42244911193848

> <r_mmod_Van_der_Waal_Energy-OPLS-2005>
111.287872314453

> <r_mmod_Electrostatic_Energy-OPLS-2005>
-223.669174194336

> <r_mmod_Solvation_Energy-OPLS-2005>
-420.210754394531

> <b_mmod_Minimization_Converged-OPLS-2005>
0

> <r_mmod_RMS_Derivative-OPLS-2005>
5.69608736038208

$$$$
17
                    3D
 Structure written by MMmdl.
151159  0  0  1  0            999 V2000
  -30.5598  -14.9511   20.4369 C   0  0  0  0  0  0
  -30.4354  -12.5890   19.5213 C   0  0  0  0  0  0
  -29.5314  -12.5422   18.2657 C   0  0  0  0  0  0
  -28.0590  -12.3278   18.6634 C   0  0  0  0  0  0
  -27.6300  -13.2523   19.8331 C   0  0  2  0  0  0
  -28.6631  -13.2583   20.9740 C   0  0  0  0  0  0
  -25.2476  -13.8236   20.5696 C   0  0  0  0  0  0
  -24.1787  -13.0461   20.9209 C   0  0  0  0  0  0
  -24.6399  -11.6944   20.8726 C   0  0  0  0  0  0
  -23.9080  -10.4312   21.0385 C   0  0  0  0  0  0
  -24.3629   -9.4233   21.9168 C   0  0  0  0  0  0
  -23.6304   -8.2266   22.0751 C   0  0  0  0  0  0
  -22.4296   -8.0290   21.3539 C   0  0  0  0  0  0
  -21.9914   -9.0269   20.4650 C   0  0  0  0  0  0
  -22.7239  -10.2145   20.3049 C   0  0  0  0  0  0
  -21.6864   -6.0737   22.5266 C   0  0  0  0  0  0
  -21.4018   -6.5638   23.8204 C   0  0  0  0  0  0
  -21.3655   -5.6793   24.9162 C   0  0  0  0  0  0
  -21.6045   -4.3050   24.7214 C   0  0  0  0  0  0
  -21.8821   -3.8147   23.4336 C   0  0  0  0  0  0
  -21.9200   -4.6963   22.3393 C   0  0  0  0  0  0
  -22.7803  -13.5232   21.1863 C   0  0  0  0  0  0
  -22.1664   -4.2149   21.0971 F   0  0  0  0  0  0
  -21.5638   -3.4537   25.7729 F   0  0  0  0  0  0
  -29.9461  -13.6916   20.4090 N   0  0  0  0  0  0
  -26.2884  -12.9466   20.3166 N   0  0  0  0  0  0
  -25.9334  -11.6597   20.5680 N   0  0  0  0  0  0
  -22.0453  -12.8232   22.0424 N   0  0  0  0  0  0
  -25.4173  -15.1976   20.4190 N   0  0  0  0  0  0
  -31.7500  -14.9624   20.1063 O   0  0  0  0  0  0
  -21.6658   -6.8885   21.4232 O   0  0  0  0  0  0
  -22.3473  -14.5526   20.6695 O   0  0  0  0  0  0
  -24.6458  -31.8433   23.1874 C   0  0  0  0  0  0
  -25.9220  -32.4689   23.8269 C   0  0  1  0  0  0
  -27.2070  -27.1142   20.1634 C   0  0  0  0  0  0
  -25.5975  -33.8498   24.2200 N   0  0  0  0  0  0
  -23.4484  -30.4640   21.5322 C   0  0  2  0  0  0
  -24.8962  -28.8882   20.1089 C   0  0  0  0  0  0
  -22.7582  -29.4553   22.4850 C   0  0  0  0  0  0
  -18.0326  -28.1375   22.8487 C   0  0  0  0  0  0
  -24.1482  -36.7245   23.2640 C   0  0  0  0  0  0
  -26.0059  -30.7120   21.3874 C   0  0  0  0  0  0
  -26.0746  -29.3201   20.7323 C   0  0  0  0  0  0
  -27.2317  -28.4505   20.7391 C   0  0  0  0  0  0
  -26.0037  -26.7921   19.4951 C   0  0  0  0  0  0
  -24.8761  -27.6394   19.4718 C   0  0  0  0  0  0
  -23.6751  -29.7942   20.1508 C   0  0  0  0  0  0
  -25.4116  -36.3027   24.0318 C   0  0  1  0  0  0
  -20.5932  -28.3712   23.1238 C   0  0  2  0  0  0
  -20.6799  -26.9415   22.5405 C   0  0  0  0  0  0
  -19.5770  -26.6370   21.5216 C   0  0  0  0  0  0
  -18.1955  -26.7916   22.1632 C   0  0  0  0  0  0
  -19.1575  -28.8866   23.2853 C   0  0  0  0  0  0
  -18.9486  -30.1462   23.8876 C   0  0  0  0  0  0
  -17.6476  -30.6577   24.0553 C   0  0  0  0  0  0
  -25.9074  -34.9406   23.5063 C   0  0  0  0  0  0
  -16.5375  -29.9066   23.6321 C   0  0  0  0  0  0
  -16.7308  -28.6478   23.0359 C   0  0  0  0  0  0
  -26.4542  -31.6548   25.0708 C   0  0  0  0  0  0
  -25.3730  -31.3736   26.1401 C   0  0  0  0  0  0
  -27.0406  -30.2948   24.6286 C   0  0  0  0  0  0
  -27.6083  -32.4305   25.7488 C   0  0  0  0  0  0
  -27.5568  -37.1783   24.8476 C   0  0  0  0  0  0
  -21.4275  -29.3040   22.3605 N   0  0  0  0  0  0
  -26.4283  -37.3742   23.9410 N   0  0  0  0  0  0
  -24.7197  -31.0287   22.0904 N   0  0  0  0  0  0
  -23.4228  -28.8105   23.3005 O   0  0  0  0  0  0
  -28.2533  -26.1169   20.2295 O   0  0  0  0  0  0
  -26.5655  -34.8901   22.4641 O   0  0  0  0  0  0
  -23.5576  -32.1325   23.7081 O   0  0  0  0  0  0
  -30.2062  -17.6226   19.9687 C   0  0  0  0  0  0
  -29.8876  -16.4102   20.6260 C   0  0  0  0  0  0
  -29.0181  -16.9373   21.6489 C   0  0  0  0  0  0
  -28.4067  -16.2528   22.8371 C   0  0  0  0  0  0
  -28.6311  -21.6175   20.4724 C   0  0  0  0  0  0
  -29.0122  -23.2686   20.3060 C   0  0  0  0  0  0
  -29.7193  -20.3449   20.2467 C   0  0  0  0  0  0
  -27.9411  -24.5818   20.2819 C   0  0  0  0  0  0
  -28.8025  -18.2809   21.5432 N   0  0  0  0  0  0
  -29.5295  -18.7850   20.5039 N   0  0  0  0  0  0
  -31.4758  -12.7249   19.2228 H   0  0  0  0  0  0
  -30.4120  -11.6316   20.0456 H   0  0  0  0  0  0
  -29.8593  -11.7506   17.5899 H   0  0  0  0  0  0
  -29.6296  -13.4786   17.7149 H   0  0  0  0  0  0
  -27.9501  -11.2841   18.9578 H   0  0  0  0  0  0
  -27.4040  -12.4697   17.8014 H   0  0  0  0  0  0
  -27.6028  -14.2619   19.4227 H   0  0  0  0  0  0
  -28.3383  -13.9134   21.7718 H   0  0  0  0  0  0
  -28.7503  -12.2698   21.4283 H   0  0  0  0  0  0
  -25.2777   -9.5724   22.4735 H   0  0  0  0  0  0
  -24.0026   -7.4675   22.7475 H   0  0  0  0  0  0
  -21.0839   -8.8779   19.8968 H   0  0  0  0  0  0
  -22.3686  -10.9687   19.6160 H   0  0  0  0  0  0
  -21.1995   -7.6149   23.9704 H   0  0  0  0  0  0
  -21.1478   -6.0513   25.9070 H   0  0  0  0  0  0
  -22.0604   -2.7608   23.2821 H   0  0  0  0  0  0
  -22.4088  -11.9926   22.4856 H   0  0  0  0  0  0
  -21.1061  -13.1251   22.2607 H   0  0  0  0  0  0
  -24.6566  -15.8541   20.5552 H   0  0  0  0  0  0
  -26.2692  -15.6420   20.1022 H   0  0  0  0  0  0
  -26.7294  -32.5291   23.1003 H   0  0  0  0  0  0
  -25.0113  -33.9610   25.0339 H   0  0  0  0  0  0
  -22.7510  -31.2896   21.3784 H   0  0  0  0  0  0
  -23.3750  -35.9572   23.3302 H   0  0  0  0  0  0
  -24.3569  -36.8874   22.2054 H   0  0  0  0  0  0
  -23.7230  -37.6443   23.6671 H   0  0  0  0  0  0
  -26.1618  -31.4632   20.6116 H   0  0  0  0  0  0
  -26.8775  -30.7653   22.0278 H   0  0  0  0  0  0
  -28.1285  -28.7774   21.2465 H   0  0  0  0  0  0
  -25.8937  -25.8459   18.9889 H   0  0  0  0  0  0
  -23.9796  -27.3101   18.9636 H   0  0  0  0  0  0
  -23.8115  -30.5686   19.3956 H   0  0  0  0  0  0
  -22.7883  -29.2388   19.8410 H   0  0  0  0  0  0
  -25.1299  -36.1860   25.0815 H   0  0  0  0  0  0
  -21.0039  -28.3298   24.1348 H   0  0  0  0  0  0
  -20.5680  -26.2335   23.3626 H   0  0  0  0  0  0
  -21.6665  -26.7399   22.1208 H   0  0  0  0  0  0
  -19.6923  -25.6276   21.1254 H   0  0  0  0  0  0
  -19.6688  -27.3165   20.6732 H   0  0  0  0  0  0
  -17.4222  -26.6672   21.4039 H   0  0  0  0  0  0
  -18.0350  -26.0059   22.9030 H   0  0  0  0  0  0
  -19.7960  -30.7291   24.2234 H   0  0  0  0  0  0
  -17.5025  -31.6252   24.5157 H   0  0  0  0  0  0
  -15.5368  -30.2955   23.7636 H   0  0  0  0  0  0
  -15.8718  -28.0774   22.7086 H   0  0  0  0  0  0
  -24.5934  -30.7055   25.7721 H   0  0  0  0  0  0
  -24.8883  -32.2911   26.4754 H   0  0  0  0  0  0
  -25.8018  -30.8970   27.0224 H   0  0  0  0  0  0
  -26.3022  -29.6673   24.1285 H   0  0  0  0  0  0
  -27.4016  -29.7247   25.4855 H   0  0  0  0  0  0
  -27.8934  -30.4181   23.9607 H   0  0  0  0  0  0
  -27.2704  -33.3638   26.2004 H   0  0  0  0  0  0
  -28.3933  -32.6812   25.0338 H   0  0  0  0  0  0
  -28.0713  -31.8467   26.5454 H   0  0  0  0  0  0
  -28.2597  -38.0062   24.7499 H   0  0  0  0  0  0
  -28.1053  -36.2600   24.6336 H   0  0  0  0  0  0
  -27.2293  -37.1464   25.8881 H   0  0  0  0  0  0
  -20.9484  -29.8766   21.6791 H   0  0  0  0  0  0
  -26.0152  -38.2819   24.1397 H   0  0  0  0  0  0
  -30.9163  -17.7635   19.1653 H   0  0  0  0  0  0
  -28.2612  -16.9456   23.6665 H   0  0  0  0  0  0
  -29.0500  -15.4565   23.2119 H   0  0  0  0  0  0
  -27.4301  -15.8351   22.5958 H   0  0  0  0  0  0
  -27.7950  -21.4189   19.8023 H   0  0  0  0  0  0
  -28.2119  -21.4948   21.4708 H   0  0  0  0  0  0
  -29.5937  -23.3464   19.3870 H   0  0  0  0  0  0
  -29.7340  -23.4876   21.0941 H   0  0  0  0  0  0
  -30.6070  -20.6115   20.8211 H   0  0  0  0  0  0
  -30.0471  -20.4199   19.2097 H   0  0  0  0  0  0
  -27.2989  -24.4601   21.1557 H   0  0  0  0  0  0
  -27.2952  -24.3645   19.4348 H   0  0  0  0  0  0
  1 25  1  0  0  0
  1 30  2  0  0  0
  1 72  1  0  0  0
  2  3  1  0  0  0
  2 25  1  0  0  0
  2 81  1  0  0  0
  2 82  1  0  0  0
  3  4  1  0  0  0
  3 83  1  0  0  0
  3 84  1  0  0  0
  4  5  1  0  0  0
  4 85  1  0  0  0
  4 86  1  0  0  0
  5  6  1  0  0  0
  5 26  1  0  0  0
  5 87  1  0  0  0
  6 25  1  0  0  0
  6 88  1  0  0  0
  6 89  1  0  0  0
  7  8  2  0  0  0
  7 26  1  0  0  0
  7 29  1  0  0  0
  8  9  1  0  0  0
  8 22  1  0  0  0
  9 10  1  0  0  0
  9 27  2  0  0  0
 10 11  2  0  0  0
 10 15  1  0  0  0
 11 12  1  0  0  0
 11 90  1  0  0  0
 12 13  2  0  0  0
 12 91  1  0  0  0
 13 14  1  0  0  0
 13 31  1  0  0  0
 14 15  2  0  0  0
 14 92  1  0  0  0
 15 93  1  0  0  0
 16 17  2  0  0  0
 16 21  1  0  0  0
 16 31  1  0  0  0
 17 18  1  0  0  0
 17 94  1  0  0  0
 18 19  2  0  0  0
 18 95  1  0  0  0
 19 20  1  0  0  0
 19 24  1  0  0  0
 20 21  2  0  0  0
 20 96  1  0  0  0
 21 23  1  0  0  0
 22 28  1  0  0  0
 22 32  2  0  0  0
 26 27  1  0  0  0
 28 97  1  0  0  0
 28 98  1  0  0  0
 29 99  1  0  0  0
 29100  1  0  0  0
 33 34  1  0  0  0
 33 66  1  0  0  0
 33 70  2  0  0  0
 34 36  1  0  0  0
 34 59  1  0  0  0
 34101  1  0  0  0
 35 44  2  0  0  0
 35 45  1  0  0  0
 35 68  1  0  0  0
 36 56  1  0  0  0
 36102  1  0  0  0
 37 39  1  0  0  0
 37 47  1  0  0  0
 37 66  1  0  0  0
 37103  1  0  0  0
 38 43  2  0  0  0
 38 46  1  0  0  0
 38 47  1  0  0  0
 39 64  1  0  0  0
 39 67  2  0  0  0
 40 52  1  0  0  0
 40 53  2  0  0  0
 40 58  1  0  0  0
 41104  1  0  0  0
 41105  1  0  0  0
 41106  1  0  0  0
 41 48  1  0  0  0
 42 43  1  0  0  0
 42 66  1  0  0  0
 42107  1  0  0  0
 42108  1  0  0  0
 43 44  1  0  0  0
 44109  1  0  0  0
 45 46  2  0  0  0
 45110  1  0  0  0
 46111  1  0  0  0
 47112  1  0  0  0
 47113  1  0  0  0
 48 56  1  0  0  0
 48 65  1  0  0  0
 48114  1  0  0  0
 49 50  1  0  0  0
 49 53  1  0  0  0
 49 64  1  0  0  0
 49115  1  0  0  0
 50 51  1  0  0  0
 50116  1  0  0  0
 50117  1  0  0  0
 51 52  1  0  0  0
 51118  1  0  0  0
 51119  1  0  0  0
 52120  1  0  0  0
 52121  1  0  0  0
 53 54  1  0  0  0
 54 55  2  0  0  0
 54122  1  0  0  0
 55 57  1  0  0  0
 55123  1  0  0  0
 56 69  2  0  0  0
 57 58  2  0  0  0
 57124  1  0  0  0
 58125  1  0  0  0
 59 60  1  0  0  0
 59 61  1  0  0  0
 59 62  1  0  0  0
 60126  1  0  0  0
 60127  1  0  0  0
 60128  1  0  0  0
 61129  1  0  0  0
 61130  1  0  0  0
 61131  1  0  0  0
 62132  1  0  0  0
 62133  1  0  0  0
 62134  1  0  0  0
 63 65  1  0  0  0
 63135  1  0  0  0
 63136  1  0  0  0
 63137  1  0  0  0
 64138  1  0  0  0
 65139  1  0  0  0
 68 78  1  0  0  0
 71 72  2  0  0  0
 71 80  1  0  0  0
 71140  1  0  0  0
 72 73  1  0  0  0
 73 74  1  0  0  0
 73 79  2  0  0  0
 74141  1  0  0  0
 74142  1  0  0  0
 74143  1  0  0  0
 75 76  1  0  0  0
 75 77  1  0  0  0
 75144  1  0  0  0
 75145  1  0  0  0
 76 78  1  0  0  0
 76146  1  0  0  0
 76147  1  0  0  0
 77 80  1  0  0  0
 77148  1  0  0  0
 77149  1  0  0  0
 78150  1  0  0  0
 78151  1  0  0  0
 79 80  1  0  0  0
M  ISO  4   1 100  68 101  72 100  78 101
M  END
> <chiral flag>
0

> <version>
0

> <s_m_source_file>
/data/baiqing/PycharmProjects/Reinvent-master-3.2/result/LINK_invent/BTK/process_docking_weight1_custom_sum_contain_oxygen_bond_distance_aromatic_linkinvent_7_9_3/rearranged_h_0058.sdf

> <i_m_source_file_index>
18

> <r_mmod_Potential_Energy-OPLS-2005>
527.54443359375

> <r_mmod_Stretch_Energy-OPLS-2005>
268.446136474609

> <r_mmod_Bend_Energy-OPLS-2005>
286.287170410156

> <r_mmod_Torsional_Energy-OPLS-2005>
206.676834106445

> <r_mmod_Improper_Torsional_Energy-OPLS-2005>
6.79973649978638

> <r_mmod_Van_der_Waal_Energy-OPLS-2005>
108.717330932617

> <r_mmod_Electrostatic_Energy-OPLS-2005>
-344.196441650391

> <r_mmod_Solvation_Energy-OPLS-2005>
-201.581512451172

> <b_mmod_Minimization_Converged-OPLS-2005>
0

> <r_mmod_RMS_Derivative-OPLS-2005>
2.01473426818848

$$$$
18
                    3D
 Structure written by MMmdl.
170179  0  0  1  0            999 V2000
  -30.7889  -14.4480   20.7023 C   0  0  0  0  0  0
  -30.4178  -12.3322   19.4470 C   0  0  0  0  0  0
  -29.5081  -12.5236   18.2198 C   0  0  0  0  0  0
  -28.0307  -12.3594   18.6157 C   0  0  0  0  0  0
  -27.6646  -13.2012   19.8660 C   0  0  2  0  0  0
  -28.6953  -13.0054   20.9974 C   0  0  0  0  0  0
  -25.2605  -13.8080   20.5645 C   0  0  0  0  0  0
  -24.1835  -13.0382   20.9107 C   0  0  0  0  0  0
  -24.6409  -11.6861   20.8688 C   0  0  0  0  0  0
  -23.9078  -10.4266   21.0395 C   0  0  0  0  0  0
  -24.3631   -9.4193   21.9184 C   0  0  0  0  0  0
  -23.6303   -8.2229   22.0761 C   0  0  0  0  0  0
  -22.4283   -8.0275   21.3543 C   0  0  0  0  0  0
  -21.9909   -9.0247   20.4646 C   0  0  0  0  0  0
  -22.7246  -10.2123   20.3056 C   0  0  0  0  0  0
  -21.6843   -6.0742   22.5289 C   0  0  0  0  0  0
  -21.4003   -6.5647   23.8224 C   0  0  0  0  0  0
  -21.3657   -5.6803   24.9181 C   0  0  0  0  0  0
  -21.6053   -4.3067   24.7235 C   0  0  0  0  0  0
  -21.8821   -3.8160   23.4354 C   0  0  0  0  0  0
  -21.9190   -4.6974   22.3410 C   0  0  0  0  0  0
  -22.7875  -13.5220   21.1799 C   0  0  0  0  0  0
  -22.1663   -4.2164   21.0986 F   0  0  0  0  0  0
  -21.5629   -3.4549   25.7739 F   0  0  0  0  0  0
  -30.0390  -13.3189   20.4830 N   0  0  0  0  0  0
  -26.3044  -12.9262   20.3285 N   0  0  0  0  0  0
  -25.9334  -11.6434   20.5675 N   0  0  0  0  0  0
  -22.0523  -12.8224   22.0373 N   0  0  0  0  0  0
  -25.4426  -15.1762   20.4218 N   0  0  0  0  0  0
  -31.7767  -14.6495   19.9838 O   0  0  0  0  0  0
  -21.6634   -6.8880   21.4253 O   0  0  0  0  0  0
  -22.3560  -14.5538   20.6671 O   0  0  0  0  0  0
  -24.6156  -31.8686   23.2077 C   0  0  0  0  0  0
  -25.9060  -32.4819   23.8372 C   0  0  1  0  0  0
  -27.2396  -27.4411   20.0870 C   0  0  0  0  0  0
  -25.5938  -33.8620   24.2316 N   0  0  0  0  0  0
  -23.4022  -30.4946   21.5472 C   0  0  2  0  0  0
  -24.8460  -28.9569   20.1124 C   0  0  0  0  0  0
  -22.7401  -29.4673   22.4956 C   0  0  0  0  0  0
  -18.0277  -28.1361   22.8487 C   0  0  0  0  0  0
  -24.1493  -36.7312   23.2638 C   0  0  0  0  0  0
  -25.9290  -30.8386   21.3531 C   0  0  0  0  0  0
  -26.0043  -29.4719   20.7025 C   0  0  0  0  0  0
  -27.2017  -28.7235   20.6814 C   0  0  0  0  0  0
  -26.0567  -26.9303   19.5051 C   0  0  0  0  0  0
  -24.8660  -27.6854   19.5114 C   0  0  0  0  0  0
  -23.6101  -29.8275   20.1595 C   0  0  0  0  0  0
  -25.4108  -36.3096   24.0332 C   0  0  1  0  0  0
  -20.5874  -28.3641   23.1312 C   0  0  2  0  0  0
  -20.6770  -26.9381   22.5399 C   0  0  0  0  0  0
  -19.5741  -26.6380   21.5196 C   0  0  0  0  0  0
  -18.1927  -26.7919   22.1618 C   0  0  0  0  0  0
  -19.1529  -28.8814   23.2913 C   0  0  0  0  0  0
  -18.9464  -30.1425   23.8909 C   0  0  0  0  0  0
  -17.6466  -30.6577   24.0559 C   0  0  0  0  0  0
  -25.9036  -34.9472   23.5111 C   0  0  0  0  0  0
  -16.5358  -29.9079   23.6328 C   0  0  0  0  0  0
  -16.7272  -28.6501   23.0339 C   0  0  0  0  0  0
  -26.4493  -31.6581   25.0691 C   0  0  0  0  0  0
  -25.3771  -31.3681   26.1445 C   0  0  0  0  0  0
  -27.0332  -30.3042   24.6040 C   0  0  0  0  0  0
  -27.6079  -32.4280   25.7457 C   0  0  0  0  0  0
  -27.5575  -37.1805   24.8469 C   0  0  0  0  0  0
  -21.4127  -29.3033   22.3713 N   0  0  0  0  0  0
  -26.4292  -37.3781   23.9407 N   0  0  0  0  0  0
  -24.6675  -31.0814   22.0953 N   0  0  0  0  0  0
  -23.4177  -28.8218   23.2998 O   0  0  0  0  0  0
  -28.4475  -26.7712   20.0941 O   0  0  0  0  0  0
  -26.5580  -34.8926   22.4660 O   0  0  0  0  0  0
  -23.5353  -32.1429   23.7477 O   0  0  0  0  0  0
  -27.7679  -17.5278   20.9427 C   0  0  0  0  0  0
  -29.8419  -17.9965   21.4203 C   0  0  0  0  0  0
  -28.6573  -18.6209   21.1153 C   0  0  0  0  0  0
  -28.6994  -20.9253   22.2332 C   0  0  0  0  0  0
  -28.7365  -20.8129   19.7482 C   0  0  0  0  0  0
  -28.1224  -22.3577   22.1427 C   0  0  0  0  0  0
  -28.1614  -22.2548   19.6824 C   0  0  0  0  0  0
  -28.2598  -20.0893   21.0211 C   0  0  1  0  0  0
  -30.0698  -25.2170   19.4777 C   0  0  0  0  0  0
  -30.0729  -14.8913   23.1983 C   0  0  0  0  0  0
  -31.9409  -16.1296   22.1968 C   0  0  0  0  0  0
  -28.0366  -24.4779   20.8777 C   0  0  0  0  0  0
  -28.5641  -25.3870   19.7297 C   0  0  2  0  0  0
  -30.5494  -15.5124   21.8551 C   0  0  0  0  0  0
  -28.3390  -16.3482   21.1373 N   0  0  0  0  0  0
  -29.6317  -16.6141   21.4481 N   0  0  0  0  0  0
  -28.5232  -23.0585   20.8878 N   0  3  1  0  0  0
  -31.4661  -12.4011   19.1514 H   0  0  0  0  0  0
  -30.3052  -11.3219   19.8450 H   0  0  0  0  0  0
  -29.7714  -11.8056   17.4417 H   0  0  0  0  0  0
  -29.6718  -13.5149   17.7935 H   0  0  0  0  0  0
  -27.8531  -11.2996   18.8133 H   0  0  0  0  0  0
  -27.3875  -12.6272   17.7770 H   0  0  0  0  0  0
  -27.7051  -14.2448   19.5561 H   0  0  0  0  0  0
  -28.6738  -11.9755   21.3593 H   0  0  0  0  0  0
  -28.3874  -13.6196   21.8322 H   0  0  0  0  0  0
  -25.2781   -9.5668   22.4749 H   0  0  0  0  0  0
  -24.0022   -7.4620   22.7477 H   0  0  0  0  0  0
  -21.0838   -8.8770   19.8953 H   0  0  0  0  0  0
  -22.3716  -10.9663   19.6163 H   0  0  0  0  0  0
  -21.1982   -7.6154   23.9725 H   0  0  0  0  0  0
  -21.1481   -6.0529   25.9082 H   0  0  0  0  0  0
  -22.0599   -2.7621   23.2848 H   0  0  0  0  0  0
  -22.4143  -11.9904   22.4793 H   0  0  0  0  0  0
  -21.1138  -13.1248   22.2574 H   0  0  0  0  0  0
  -24.7179  -15.8483   20.6470 H   0  0  0  0  0  0
  -26.3790  -15.5717   20.4000 H   0  0  0  0  0  0
  -26.7139  -32.5519   23.1141 H   0  0  0  0  0  0
  -25.0146  -33.9775   25.0503 H   0  0  0  0  0  0
  -22.6916  -31.3107   21.4074 H   0  0  0  0  0  0
  -23.3741  -35.9660   23.3288 H   0  0  0  0  0  0
  -24.3604  -36.8930   22.2058 H   0  0  0  0  0  0
  -23.7262  -37.6525   23.6653 H   0  0  0  0  0  0
  -26.0387  -31.6020   20.5817 H   0  0  0  0  0  0
  -26.8210  -30.8948   21.9671 H   0  0  0  0  0  0
  -28.1035  -29.1282   21.1188 H   0  0  0  0  0  0
  -26.0267  -25.9580   19.0408 H   0  0  0  0  0  0
  -23.9730  -27.2816   19.0543 H   0  0  0  0  0  0
  -23.7298  -30.6049   19.4056 H   0  0  0  0  0  0
  -22.7331  -29.2555   19.8539 H   0  0  0  0  0  0
  -25.1286  -36.1957   25.0827 H   0  0  0  0  0  0
  -20.9988  -28.3213   24.1424 H   0  0  0  0  0  0
  -20.5672  -26.2248   23.3580 H   0  0  0  0  0  0
  -21.6645  -26.7423   22.1189 H   0  0  0  0  0  0
  -19.6902  -25.6298   21.1209 H   0  0  0  0  0  0
  -19.6686  -27.3206   20.6745 H   0  0  0  0  0  0
  -17.4200  -26.6663   21.4024 H   0  0  0  0  0  0
  -18.0332  -26.0046   22.9006 H   0  0  0  0  0  0
  -19.7943  -30.7242   24.2274 H   0  0  0  0  0  0
  -17.5030  -31.6259   24.5151 H   0  0  0  0  0  0
  -15.5362  -30.2987   23.7635 H   0  0  0  0  0  0
  -15.8676  -28.0837   22.7013 H   0  0  0  0  0  0
  -24.5968  -30.6993   25.7793 H   0  0  0  0  0  0
  -24.8932  -32.2826   26.4884 H   0  0  0  0  0  0
  -25.8150  -30.8882   27.0202 H   0  0  0  0  0  0
  -26.2859  -29.6772   24.1163 H   0  0  0  0  0  0
  -27.4212  -29.7321   25.4471 H   0  0  0  0  0  0
  -27.8632  -30.4382   23.9100 H   0  0  0  0  0  0
  -27.2737  -33.3589   26.2048 H   0  0  0  0  0  0
  -28.3902  -32.6808   25.0287 H   0  0  0  0  0  0
  -28.0723  -31.8374   26.5365 H   0  0  0  0  0  0
  -28.2596  -38.0102   24.7527 H   0  0  0  0  0  0
  -28.1074  -36.2638   24.6286 H   0  0  0  0  0  0
  -27.2306  -37.1453   25.8879 H   0  0  0  0  0  0
  -20.9265  -29.8783   21.6979 H   0  0  0  0  0  0
  -26.0173  -38.2862   24.1412 H   0  0  0  0  0  0
  -26.7144  -17.5722   20.7070 H   0  0  0  0  0  0
  -30.8018  -18.4346   21.6582 H   0  0  0  0  0  0
  -28.3497  -20.4534   23.1522 H   0  0  0  0  0  0
  -29.7872  -20.9578   22.3029 H   0  0  0  0  0  0
  -29.8261  -20.8454   19.7164 H   0  0  0  0  0  0
  -28.4202  -20.2555   18.8646 H   0  0  0  0  0  0
  -28.4443  -22.9337   23.0114 H   0  0  0  0  0  0
  -27.0328  -22.3163   22.1971 H   0  0  0  0  0  0
  -27.0749  -22.2183   19.5824 H   0  0  0  0  0  0
  -28.5291  -22.7409   18.7795 H   0  0  0  0  0  0
  -27.1689  -20.1231   20.9987 H   0  0  0  0  0  0
  -30.6477  -25.3990   20.3851 H   0  0  0  0  0  0
  -30.4127  -25.9248   18.7233 H   0  0  0  0  0  0
  -30.3149  -24.2238   19.1077 H   0  0  0  0  0  0
  -30.4785  -15.4256   24.0575 H   0  0  0  0  0  0
  -30.3825  -13.8517   23.3037 H   0  0  0  0  0  0
  -28.9941  -14.9427   23.3357 H   0  0  0  0  0  0
  -32.3772  -16.6691   21.3537 H   0  0  0  0  0  0
  -32.6571  -15.3598   22.4869 H   0  0  0  0  0  0
  -31.8884  -16.8383   23.0250 H   0  0  0  0  0  0
  -26.9458  -24.4932   20.8900 H   0  0  0  0  0  0
  -28.3482  -24.9355   21.8160 H   0  0  0  0  0  0
  -28.0454  -25.1768   18.7937 H   0  0  0  0  0  0
  -29.5324  -23.1087   20.9062 H   0  0  0  0  0  0
  1 25  1  0  0  0
  1 30  2  0  0  0
  1 84  1  0  0  0
  2  3  1  0  0  0
  2 25  1  0  0  0
  2 88  1  0  0  0
  2 89  1  0  0  0
  3  4  1  0  0  0
  3 90  1  0  0  0
  3 91  1  0  0  0
  4  5  1  0  0  0
  4 92  1  0  0  0
  4 93  1  0  0  0
  5  6  1  0  0  0
  5 26  1  0  0  0
  5 94  1  0  0  0
  6 25  1  0  0  0
  6 95  1  0  0  0
  6 96  1  0  0  0
  7  8  2  0  0  0
  7 26  1  0  0  0
  7 29  1  0  0  0
  8  9  1  0  0  0
  8 22  1  0  0  0
  9 10  1  0  0  0
  9 27  2  0  0  0
 10 11  2  0  0  0
 10 15  1  0  0  0
 11 12  1  0  0  0
 11 97  1  0  0  0
 12 13  2  0  0  0
 12 98  1  0  0  0
 13 14  1  0  0  0
 13 31  1  0  0  0
 14 15  2  0  0  0
 14 99  1  0  0  0
 15100  1  0  0  0
 16 17  2  0  0  0
 16 21  1  0  0  0
 16 31  1  0  0  0
 17 18  1  0  0  0
 17101  1  0  0  0
 18 19  2  0  0  0
 18102  1  0  0  0
 19 20  1  0  0  0
 19 24  1  0  0  0
 20 21  2  0  0  0
 20103  1  0  0  0
 21 23  1  0  0  0
 22 28  1  0  0  0
 22 32  2  0  0  0
 26 27  1  0  0  0
 28104  1  0  0  0
 28105  1  0  0  0
 29106  1  0  0  0
 29107  1  0  0  0
 33 34  1  0  0  0
 33 66  1  0  0  0
 33 70  2  0  0  0
 34 36  1  0  0  0
 34 59  1  0  0  0
 34108  1  0  0  0
 35 44  2  0  0  0
 35 45  1  0  0  0
 35 68  1  0  0  0
 36 56  1  0  0  0
 36109  1  0  0  0
 37 39  1  0  0  0
 37 47  1  0  0  0
 37 66  1  0  0  0
 37110  1  0  0  0
 38 43  2  0  0  0
 38 46  1  0  0  0
 38 47  1  0  0  0
 39 64  1  0  0  0
 39 67  2  0  0  0
 40 52  1  0  0  0
 40 53  2  0  0  0
 40 58  1  0  0  0
 41111  1  0  0  0
 41112  1  0  0  0
 41113  1  0  0  0
 41 48  1  0  0  0
 42 43  1  0  0  0
 42 66  1  0  0  0
 42114  1  0  0  0
 42115  1  0  0  0
 43 44  1  0  0  0
 44116  1  0  0  0
 45 46  2  0  0  0
 45117  1  0  0  0
 46118  1  0  0  0
 47119  1  0  0  0
 47120  1  0  0  0
 48 56  1  0  0  0
 48 65  1  0  0  0
 48121  1  0  0  0
 49 50  1  0  0  0
 49 53  1  0  0  0
 49 64  1  0  0  0
 49122  1  0  0  0
 50 51  1  0  0  0
 50123  1  0  0  0
 50124  1  0  0  0
 51 52  1  0  0  0
 51125  1  0  0  0
 51126  1  0  0  0
 52127  1  0  0  0
 52128  1  0  0  0
 53 54  1  0  0  0
 54 55  2  0  0  0
 54129  1  0  0  0
 55 57  1  0  0  0
 55130  1  0  0  0
 56 69  2  0  0  0
 57 58  2  0  0  0
 57131  1  0  0  0
 58132  1  0  0  0
 59 60  1  0  0  0
 59 61  1  0  0  0
 59 62  1  0  0  0
 60133  1  0  0  0
 60134  1  0  0  0
 60135  1  0  0  0
 61136  1  0  0  0
 61137  1  0  0  0
 61138  1  0  0  0
 62139  1  0  0  0
 62140  1  0  0  0
 62141  1  0  0  0
 63 65  1  0  0  0
 63142  1  0  0  0
 63143  1  0  0  0
 63144  1  0  0  0
 64145  1  0  0  0
 65146  1  0  0  0
 68 83  1  0  0  0
 71 73  1  0  0  0
 71 85  2  0  0  0
 71147  1  0  0  0
 72 73  2  0  0  0
 72 86  1  0  0  0
 72148  1  0  0  0
 73 78  1  0  0  0
 74 76  1  0  0  0
 74 78  1  0  0  0
 74149  1  0  0  0
 74150  1  0  0  0
 75 77  1  0  0  0
 75 78  1  0  0  0
 75151  1  0  0  0
 75152  1  0  0  0
 76 87  1  0  0  0
 76153  1  0  0  0
 76154  1  0  0  0
 77 87  1  0  0  0
 77155  1  0  0  0
 77156  1  0  0  0
 78157  1  0  0  0
 79158  1  0  0  0
 79159  1  0  0  0
 79160  1  0  0  0
 79 83  1  0  0  0
 80161  1  0  0  0
 80162  1  0  0  0
 80163  1  0  0  0
 80 84  1  0  0  0
 81 84  1  0  0  0
 81164  1  0  0  0
 81165  1  0  0  0
 81166  1  0  0  0
 82 83  1  0  0  0
 82167  1  0  0  0
 82168  1  0  0  0
 82 87  1  0  0  0
 83169  1  0  0  0
 84 86  1  0  0  0
 85 86  1  0  0  0
 87170  1  0  0  0
M  CHG  1  87   1
M  ISO  4   1 100  68 101  83 101  84 100
M  END
> <chiral flag>
0

> <version>
0

> <s_m_source_file>
/data/baiqing/PycharmProjects/Reinvent-master-3.2/result/LINK_invent/BTK/process_docking_weight1_custom_sum_contain_oxygen_bond_distance_aromatic_linkinvent_7_9_3/rearranged_h_0058.sdf

> <i_m_source_file_index>
19

> <r_mmod_Potential_Energy-OPLS-2005>
13.5472717285156

> <r_mmod_Stretch_Energy-OPLS-2005>
50.0778656005859

> <r_mmod_Bend_Energy-OPLS-2005>
136.392639160156

> <r_mmod_Torsional_Energy-OPLS-2005>
250.808227539062

> <r_mmod_Improper_Torsional_Energy-OPLS-2005>
3.07728242874146

> <r_mmod_Van_der_Waal_Energy-OPLS-2005>
140.184341430664

> <r_mmod_Electrostatic_Energy-OPLS-2005>
-174.257797241211

> <r_mmod_Solvation_Energy-OPLS-2005>
-405.614013671875

> <b_mmod_Minimization_Converged-OPLS-2005>
0

> <r_mmod_RMS_Derivative-OPLS-2005>
2.56498885154724

$$$$
19
                    3D
 Structure written by MMmdl.
156164  0  0  1  0            999 V2000
  -30.5248  -15.0573   20.3165 C   0  0  0  0  0  0
  -30.4436  -12.6506   19.4763 C   0  0  0  0  0  0
  -29.5148  -12.4752   18.2531 C   0  0  0  0  0  0
  -28.0500  -12.2737   18.6948 C   0  0  0  0  0  0
  -27.6094  -13.2303   19.8341 C   0  0  2  0  0  0
  -28.6752  -13.3629   20.9416 C   0  0  0  0  0  0
  -25.2423  -13.8142   20.5845 C   0  0  0  0  0  0
  -24.1723  -13.0380   20.9302 C   0  0  0  0  0  0
  -24.6330  -11.6860   20.8832 C   0  0  0  0  0  0
  -23.9030  -10.4244   21.0452 C   0  0  0  0  0  0
  -24.3584   -9.4154   21.9213 C   0  0  0  0  0  0
  -23.6262   -8.2189   22.0763 C   0  0  0  0  0  0
  -22.4240   -8.0254   21.3549 C   0  0  0  0  0  0
  -21.9881   -9.0233   20.4658 C   0  0  0  0  0  0
  -22.7213  -10.2112   20.3081 C   0  0  0  0  0  0
  -21.6832   -6.0725   22.5295 C   0  0  0  0  0  0
  -21.4006   -6.5636   23.8231 C   0  0  0  0  0  0
  -21.3648   -5.6790   24.9193 C   0  0  0  0  0  0
  -21.6037   -4.3054   24.7234 C   0  0  0  0  0  0
  -21.8814   -3.8142   23.4357 C   0  0  0  0  0  0
  -21.9183   -4.6957   22.3410 C   0  0  0  0  0  0
  -22.7750  -13.5180   21.1905 C   0  0  0  0  0  0
  -22.1646   -4.2146   21.0986 F   0  0  0  0  0  0
  -21.5624   -3.4537   25.7746 F   0  0  0  0  0  0
  -29.9223  -13.7906   20.2840 N   0  0  0  0  0  0
  -26.2818  -12.9311   20.3422 N   0  0  0  0  0  0
  -25.9259  -11.6464   20.5869 N   0  0  0  0  0  0
  -22.0357  -12.8209   22.0452 N   0  0  0  0  0  0
  -25.4077  -15.1886   20.4287 N   0  0  0  0  0  0
  -31.7615  -15.0697   20.2981 O   0  0  0  0  0  0
  -21.6599   -6.8858   21.4253 O   0  0  0  0  0  0
  -22.3472  -14.5485   20.6726 O   0  0  0  0  0  0
  -24.6489  -31.8394   23.1868 C   0  0  0  0  0  0
  -25.9236  -32.4670   23.8270 C   0  0  1  0  0  0
  -27.2159  -27.0851   20.1495 C   0  0  0  0  0  0
  -25.5973  -33.8483   24.2169 N   0  0  0  0  0  0
  -23.4556  -30.4595   21.5324 C   0  0  2  0  0  0
  -24.9068  -28.8833   20.1064 C   0  0  0  0  0  0
  -22.7591  -29.4521   22.4827 C   0  0  0  0  0  0
  -18.0317  -28.1401   22.8480 C   0  0  0  0  0  0
  -24.1490  -36.7245   23.2642 C   0  0  0  0  0  0
  -26.0169  -30.6935   21.3976 C   0  0  0  0  0  0
  -26.0848  -29.3020   20.7364 C   0  0  0  0  0  0
  -27.2364  -28.4180   20.7472 C   0  0  0  0  0  0
  -26.0153  -26.7971   19.4577 C   0  0  0  0  0  0
  -24.8871  -27.6452   19.4518 C   0  0  0  0  0  0
  -23.6864  -29.7923   20.1511 C   0  0  0  0  0  0
  -25.4124  -36.3015   24.0307 C   0  0  1  0  0  0
  -20.5933  -28.3732   23.1221 C   0  0  2  0  0  0
  -20.6797  -26.9430   22.5402 C   0  0  0  0  0  0
  -19.5766  -26.6378   21.5218 C   0  0  0  0  0  0
  -18.1950  -26.7934   22.1630 C   0  0  0  0  0  0
  -19.1575  -28.8884   23.2841 C   0  0  0  0  0  0
  -18.9486  -30.1479   23.8868 C   0  0  0  0  0  0
  -17.6481  -30.6589   24.0564 C   0  0  0  0  0  0
  -25.9078  -34.9393   23.5042 C   0  0  0  0  0  0
  -16.5373  -29.9080   23.6343 C   0  0  0  0  0  0
  -16.7302  -28.6504   23.0355 C   0  0  0  0  0  0
  -26.4540  -31.6561   25.0733 C   0  0  0  0  0  0
  -25.3712  -31.3781   26.1423 C   0  0  0  0  0  0
  -27.0414  -30.2942   24.6361 C   0  0  0  0  0  0
  -27.6041  -32.4355   25.7530 C   0  0  0  0  0  0
  -27.5567  -37.1785   24.8465 C   0  0  0  0  0  0
  -21.4276  -29.3052   22.3579 N   0  0  0  0  0  0
  -26.4280  -37.3736   23.9404 N   0  0  0  0  0  0
  -24.7273  -31.0194   22.0935 N   0  0  0  0  0  0
  -23.4210  -28.8057   23.2989 O   0  0  0  0  0  0
  -28.2334  -26.0435   20.2534 O   0  0  0  0  0  0
  -26.5661  -34.8896   22.4618 O   0  0  0  0  0  0
  -23.5593  -32.1305   23.7045 O   0  0  0  0  0  0
  -28.8581  -22.4870   21.5824 C   0  0  0  0  0  0
  -28.9920  -21.9198   19.5487 C   0  0  0  0  0  0
  -28.6406  -23.0854   20.2918 C   0  0  0  0  0  0
  -29.9472  -19.2219   18.3847 C   0  0  0  0  0  0
  -31.5018  -19.4732   20.2651 C   0  0  0  0  0  0
  -29.1282  -16.2323   18.6947 C   0  0  0  0  0  0
  -27.9278  -24.5479   19.8565 C   0  0  0  0  0  0
  -29.6280  -17.7597   20.6181 C   0  0  0  0  0  0
  -30.0101  -19.2970   19.9229 C   0  0  0  0  0  0
  -29.2633  -21.1835   21.5920 N   0  0  0  0  0  0
  -29.3485  -20.7247   20.3096 N   0  0  0  0  0  0
  -29.7821  -16.2667   20.0110 N   0  0  0  0  0  0
  -31.4659  -12.8330   19.1411 H   0  0  0  0  0  0
  -30.4778  -11.7386   20.0739 H   0  0  0  0  0  0
  -29.8407  -11.6205   17.6593 H   0  0  0  0  0  0
  -29.5961  -13.3342   17.5880 H   0  0  0  0  0  0
  -27.9634  -11.2436   19.0418 H   0  0  0  0  0  0
  -27.3772  -12.3585   17.8410 H   0  0  0  0  0  0
  -27.4921  -14.2014   19.3754 H   0  0  0  0  0  0
  -28.8068  -12.4247   21.4816 H   0  0  0  0  0  0
  -28.3675  -14.1112   21.6742 H   0  0  0  0  0  0
  -25.2723   -9.5621   22.4806 H   0  0  0  0  0  0
  -23.9967   -7.4563   22.7460 H   0  0  0  0  0  0
  -21.0819   -8.8769   19.8943 H   0  0  0  0  0  0
  -22.3687  -10.9671   19.6204 H   0  0  0  0  0  0
  -21.2003   -7.6149   23.9744 H   0  0  0  0  0  0
  -21.1474   -6.0515   25.9104 H   0  0  0  0  0  0
  -22.0598   -2.7602   23.2866 H   0  0  0  0  0  0
  -22.3944  -11.9899   22.4928 H   0  0  0  0  0  0
  -21.0967  -13.1259   22.2591 H   0  0  0  0  0  0
  -24.6415  -15.8399   20.5604 H   0  0  0  0  0  0
  -26.2684  -15.6389   20.1448 H   0  0  0  0  0  0
  -26.7291  -32.5243   23.0988 H   0  0  0  0  0  0
  -25.0134  -33.9602   25.0326 H   0  0  0  0  0  0
  -22.7617  -31.2882   21.3771 H   0  0  0  0  0  0
  -23.3754  -35.9574   23.3292 H   0  0  0  0  0  0
  -24.3581  -36.8893   22.2061 H   0  0  0  0  0  0
  -23.7243  -37.6434   23.6692 H   0  0  0  0  0  0
  -26.1812  -31.4461   20.6252 H   0  0  0  0  0  0
  -26.8840  -30.7424   22.0450 H   0  0  0  0  0  0
  -28.1248  -28.7289   21.2773 H   0  0  0  0  0  0
  -25.8975  -25.8647   18.9269 H   0  0  0  0  0  0
  -23.9907  -27.3254   18.9381 H   0  0  0  0  0  0
  -23.8296  -30.5707   19.4008 H   0  0  0  0  0  0
  -22.8003  -29.2406   19.8328 H   0  0  0  0  0  0
  -25.1312  -36.1842   25.0798 H   0  0  0  0  0  0
  -21.0036  -28.3328   24.1337 H   0  0  0  0  0  0
  -20.5703  -26.2343   23.3623 H   0  0  0  0  0  0
  -21.6657  -26.7422   22.1194 H   0  0  0  0  0  0
  -19.6925  -25.6279   21.1269 H   0  0  0  0  0  0
  -19.6703  -27.3167   20.6728 H   0  0  0  0  0  0
  -17.4218  -26.6688   21.4033 H   0  0  0  0  0  0
  -18.0343  -26.0080   22.9030 H   0  0  0  0  0  0
  -19.7960  -30.7312   24.2213 H   0  0  0  0  0  0
  -17.5030  -31.6271   24.5165 H   0  0  0  0  0  0
  -15.5370  -30.2974   23.7675 H   0  0  0  0  0  0
  -15.8703  -28.0816   22.7070 H   0  0  0  0  0  0
  -24.5888  -30.7126   25.7754 H   0  0  0  0  0  0
  -24.8920  -32.2982   26.4775 H   0  0  0  0  0  0
  -25.7998  -30.9009   27.0245 H   0  0  0  0  0  0
  -26.3049  -29.6659   24.1341 H   0  0  0  0  0  0
  -27.3962  -29.7252   25.4964 H   0  0  0  0  0  0
  -27.8982  -30.4149   23.9731 H   0  0  0  0  0  0
  -27.2591  -33.3666   26.2034 H   0  0  0  0  0  0
  -28.3895  -32.6905   25.0401 H   0  0  0  0  0  0
  -28.0658  -31.8544   26.5523 H   0  0  0  0  0  0
  -28.2573  -38.0091   24.7500 H   0  0  0  0  0  0
  -28.1075  -36.2619   24.6302 H   0  0  0  0  0  0
  -27.2290  -37.1437   25.8871 H   0  0  0  0  0  0
  -20.9484  -29.8783   21.6769 H   0  0  0  0  0  0
  -26.0139  -38.2793   24.1428 H   0  0  0  0  0  0
  -28.6840  -22.9551   22.5410 H   0  0  0  0  0  0
  -28.9881  -21.8445   18.4714 H   0  0  0  0  0  0
  -30.6254  -18.4689   17.9923 H   0  0  0  0  0  0
  -30.2833  -20.1461   17.9180 H   0  0  0  0  0  0
  -28.9370  -19.0255   18.0284 H   0  0  0  0  0  0
  -32.0923  -18.6124   19.9478 H   0  0  0  0  0  0
  -31.6461  -19.5895   21.3400 H   0  0  0  0  0  0
  -31.9235  -20.3599   19.7881 H   0  0  0  0  0  0
  -28.2184  -16.8326   18.6776 H   0  0  0  0  0  0
  -28.8645  -15.2457   18.3413 H   0  0  0  0  0  0
  -29.8003  -16.5817   17.9176 H   0  0  0  0  0  0
  -26.8883  -24.4131   20.1527 H   0  0  0  0  0  0
  -27.8923  -24.5738   18.7667 H   0  0  0  0  0  0
  -28.5686  -17.8233   20.8686 H   0  0  0  0  0  0
  -30.1079  -17.7192   21.5967 H   0  0  0  0  0  0
  1 25  1  0  0  0
  1 30  2  0  0  0
  1 82  1  0  0  0
  2  3  1  0  0  0
  2 25  1  0  0  0
  2 83  1  0  0  0
  2 84  1  0  0  0
  3  4  1  0  0  0
  3 85  1  0  0  0
  3 86  1  0  0  0
  4  5  1  0  0  0
  4 87  1  0  0  0
  4 88  1  0  0  0
  5  6  1  0  0  0
  5 26  1  0  0  0
  5 89  1  0  0  0
  6 25  1  0  0  0
  6 90  1  0  0  0
  6 91  1  0  0  0
  7  8  2  0  0  0
  7 26  1  0  0  0
  7 29  1  0  0  0
  8  9  1  0  0  0
  8 22  1  0  0  0
  9 10  1  0  0  0
  9 27  2  0  0  0
 10 11  2  0  0  0
 10 15  1  0  0  0
 11 12  1  0  0  0
 11 92  1  0  0  0
 12 13  2  0  0  0
 12 93  1  0  0  0
 13 14  1  0  0  0
 13 31  1  0  0  0
 14 15  2  0  0  0
 14 94  1  0  0  0
 15 95  1  0  0  0
 16 17  2  0  0  0
 16 21  1  0  0  0
 16 31  1  0  0  0
 17 18  1  0  0  0
 17 96  1  0  0  0
 18 19  2  0  0  0
 18 97  1  0  0  0
 19 20  1  0  0  0
 19 24  1  0  0  0
 20 21  2  0  0  0
 20 98  1  0  0  0
 21 23  1  0  0  0
 22 28  1  0  0  0
 22 32  2  0  0  0
 26 27  1  0  0  0
 28 99  1  0  0  0
 28100  1  0  0  0
 29101  1  0  0  0
 29102  1  0  0  0
 33 34  1  0  0  0
 33 66  1  0  0  0
 33 70  2  0  0  0
 34 36  1  0  0  0
 34 59  1  0  0  0
 34103  1  0  0  0
 35 44  2  0  0  0
 35 45  1  0  0  0
 35 68  1  0  0  0
 36 56  1  0  0  0
 36104  1  0  0  0
 37 39  1  0  0  0
 37 47  1  0  0  0
 37 66  1  0  0  0
 37105  1  0  0  0
 38 43  2  0  0  0
 38 46  1  0  0  0
 38 47  1  0  0  0
 39 64  1  0  0  0
 39 67  2  0  0  0
 40 52  1  0  0  0
 40 53  2  0  0  0
 40 58  1  0  0  0
 41106  1  0  0  0
 41107  1  0  0  0
 41108  1  0  0  0
 41 48  1  0  0  0
 42 43  1  0  0  0
 42 66  1  0  0  0
 42109  1  0  0  0
 42110  1  0  0  0
 43 44  1  0  0  0
 44111  1  0  0  0
 45 46  2  0  0  0
 45112  1  0  0  0
 46113  1  0  0  0
 47114  1  0  0  0
 47115  1  0  0  0
 48 56  1  0  0  0
 48 65  1  0  0  0
 48116  1  0  0  0
 49 50  1  0  0  0
 49 53  1  0  0  0
 49 64  1  0  0  0
 49117  1  0  0  0
 50 51  1  0  0  0
 50118  1  0  0  0
 50119  1  0  0  0
 51 52  1  0  0  0
 51120  1  0  0  0
 51121  1  0  0  0
 52122  1  0  0  0
 52123  1  0  0  0
 53 54  1  0  0  0
 54 55  2  0  0  0
 54124  1  0  0  0
 55 57  1  0  0  0
 55125  1  0  0  0
 56 69  2  0  0  0
 57 58  2  0  0  0
 57126  1  0  0  0
 58127  1  0  0  0
 59 60  1  0  0  0
 59 61  1  0  0  0
 59 62  1  0  0  0
 60128  1  0  0  0
 60129  1  0  0  0
 60130  1  0  0  0
 61131  1  0  0  0
 61132  1  0  0  0
 61133  1  0  0  0
 62134  1  0  0  0
 62135  1  0  0  0
 62136  1  0  0  0
 63 65  1  0  0  0
 63137  1  0  0  0
 63138  1  0  0  0
 63139  1  0  0  0
 64140  1  0  0  0
 65141  1  0  0  0
 68 77  1  0  0  0
 71 73  1  0  0  0
 71 80  2  0  0  0
 71142  1  0  0  0
 72 73  2  0  0  0
 72 81  1  0  0  0
 72143  1  0  0  0
 73 77  1  0  0  0
 74144  1  0  0  0
 74145  1  0  0  0
 74146  1  0  0  0
 74 79  1  0  0  0
 75 79  1  0  0  0
 75147  1  0  0  0
 75148  1  0  0  0
 75149  1  0  0  0
 76 82  1  0  0  0
 76150  1  0  0  0
 76151  1  0  0  0
 76152  1  0  0  0
 77153  1  0  0  0
 77154  1  0  0  0
 78 79  1  0  0  0
 78 82  1  0  0  0
 78155  1  0  0  0
 78156  1  0  0  0
 79 81  1  0  0  0
 80 81  1  0  0  0
M  ISO  4   1 100  68 101  77 101  82 100
M  END
> <chiral flag>
0

> <version>
0

> <s_m_source_file>
/data/baiqing/PycharmProjects/Reinvent-master-3.2/result/LINK_invent/BTK/process_docking_weight1_custom_sum_contain_oxygen_bond_distance_aromatic_linkinvent_7_9_3/rearranged_h_0058.sdf

> <i_m_source_file_index>
20

> <r_mmod_Potential_Energy-OPLS-2005>
907.502075195312

> <r_mmod_Stretch_Energy-OPLS-2005>
332.380920410156

> <r_mmod_Bend_Energy-OPLS-2005>
329.580535888672

> <r_mmod_Torsional_Energy-OPLS-2005>
370.909393310547

> <r_mmod_Improper_Torsional_Energy-OPLS-2005>
12.9825992584229

> <r_mmod_Van_der_Waal_Energy-OPLS-2005>
127.828430175781

> <r_mmod_Electrostatic_Energy-OPLS-2005>
-329.975769042969

> <r_mmod_Solvation_Energy-OPLS-2005>
-213.183959960938

> <b_mmod_Minimization_Converged-OPLS-2005>
0

> <r_mmod_RMS_Derivative-OPLS-2005>
1.8919632434845

$$$$
20
                    3D
 Structure written by MMmdl.
153161  0  0  1  0            999 V2000
  -30.4325  -15.2596   20.3315 C   0  0  0  0  0  0
  -30.4404  -12.7900   19.5165 C   0  0  0  0  0  0
  -29.5378  -12.5868   18.2715 C   0  0  0  0  0  0
  -28.0804  -12.3066   18.6853 C   0  0  0  0  0  0
  -27.6105  -13.2609   19.8091 C   0  0  2  0  0  0
  -28.6477  -13.4211   20.9397 C   0  0  0  0  0  0
  -25.2339  -13.8156   20.5701 C   0  0  0  0  0  0
  -24.1719  -13.0331   20.9197 C   0  0  0  0  0  0
  -24.6394  -11.6863   20.8702 C   0  0  0  0  0  0
  -23.9094  -10.4246   21.0374 C   0  0  0  0  0  0
  -24.3648   -9.4191   21.9167 C   0  0  0  0  0  0
  -23.6313   -8.2242   22.0765 C   0  0  0  0  0  0
  -22.4291   -8.0275   21.3565 C   0  0  0  0  0  0
  -21.9936   -9.0231   20.4645 C   0  0  0  0  0  0
  -22.7258  -10.2098   20.3038 C   0  0  0  0  0  0
  -21.6836   -6.0733   22.5279 C   0  0  0  0  0  0
  -21.3971   -6.5636   23.8204 C   0  0  0  0  0  0
  -21.3667   -5.6802   24.9177 C   0  0  0  0  0  0
  -21.6067   -4.3068   24.7232 C   0  0  0  0  0  0
  -21.8823   -3.8143   23.4353 C   0  0  0  0  0  0
  -21.9200   -4.6962   22.3406 C   0  0  0  0  0  0
  -22.7747  -13.5102   21.1875 C   0  0  0  0  0  0
  -22.1684   -4.2152   21.0984 F   0  0  0  0  0  0
  -21.5661   -3.4554   25.7747 F   0  0  0  0  0  0
  -29.8880  -13.9366   20.3320 N   0  0  0  0  0  0
  -26.2804  -12.9438   20.3139 N   0  0  0  0  0  0
  -25.9329  -11.6553   20.5656 N   0  0  0  0  0  0
  -22.0430  -12.8077   22.0434 N   0  0  0  0  0  0
  -25.3745  -15.1883   20.4244 N   0  0  0  0  0  0
  -31.6643  -15.2206   20.1864 O   0  0  0  0  0  0
  -21.6645   -6.8879   21.4245 O   0  0  0  0  0  0
  -22.3425  -14.5420   20.6749 O   0  0  0  0  0  0
  -24.6607  -31.8264   23.1728 C   0  0  0  0  0  0
  -25.9307  -32.4590   23.8190 C   0  0  1  0  0  0
  -27.2289  -26.9680   20.1866 C   0  0  0  0  0  0
  -25.5979  -33.8402   24.2087 N   0  0  0  0  0  0
  -23.4755  -30.4347   21.5241 C   0  0  2  0  0  0
  -24.9266  -28.8253   20.1163 C   0  0  0  0  0  0
  -22.7680  -29.4435   22.4838 C   0  0  0  0  0  0
  -18.0319  -28.1398   22.8481 C   0  0  0  0  0  0
  -24.1484  -36.7205   23.2649 C   0  0  0  0  0  0
  -26.0421  -30.6427   21.3999 C   0  0  0  0  0  0
  -26.1095  -29.2390   20.7420 C   0  0  0  0  0  0
  -27.2570  -28.3318   20.7485 C   0  0  0  0  0  0
  -26.0152  -26.6931   19.5173 C   0  0  0  0  0  0
  -24.9021  -27.5714   19.4838 C   0  0  0  0  0  0
  -23.7099  -29.7459   20.1513 C   0  0  0  0  0  0
  -25.4128  -36.2979   24.0301 C   0  0  1  0  0  0
  -20.5944  -28.3740   23.1205 C   0  0  2  0  0  0
  -20.6786  -26.9423   22.5402 C   0  0  0  0  0  0
  -19.5749  -26.6372   21.5225 C   0  0  0  0  0  0
  -18.1941  -26.7937   22.1630 C   0  0  0  0  0  0
  -19.1585  -28.8896   23.2815 C   0  0  0  0  0  0
  -18.9490  -30.1494   23.8833 C   0  0  0  0  0  0
  -17.6481  -30.6593   24.0551 C   0  0  0  0  0  0
  -25.9097  -34.9353   23.5022 C   0  0  0  0  0  0
  -16.5372  -29.9072   23.6348 C   0  0  0  0  0  0
  -16.7303  -28.6486   23.0386 C   0  0  0  0  0  0
  -26.4550  -31.6551   25.0745 C   0  0  0  0  0  0
  -25.3675  -31.3800   26.1401 C   0  0  0  0  0  0
  -27.0463  -30.2924   24.6492 C   0  0  0  0  0  0
  -27.6023  -32.4402   25.7534 C   0  0  0  0  0  0
  -27.5578  -37.1752   24.8465 C   0  0  0  0  0  0
  -21.4355  -29.3025   22.3574 N   0  0  0  0  0  0
  -26.4283  -37.3716   23.9413 N   0  0  0  0  0  0
  -24.7474  -30.9960   22.0844 N   0  0  0  0  0  0
  -23.4231  -28.8022   23.3087 O   0  0  0  0  0  0
  -28.2491  -25.8940   20.2766 O   0  0  0  0  0  0
  -26.5720  -34.8885   22.4626 O   0  0  0  0  0  0
  -23.5673  -32.1227   23.6831 O   0  0  0  0  0  0
  -31.5081  -19.3282   21.9629 C   0  0  0  0  0  0
  -29.8452  -19.8087   20.7369 C   0  0  0  0  0  0
  -28.1786  -16.7495   20.6275 C   0  0  0  0  0  0
  -29.6162  -17.0195   18.6170 C   0  0  0  0  0  0
  -28.8176  -21.0634   20.1920 C   0  0  0  0  0  0
  -28.9969  -22.8309   20.4760 C   0  0  0  0  0  0
  -28.0258  -24.2854   20.0874 C   0  0  0  0  0  0
  -29.6285  -16.8406   20.1501 C   0  0  0  0  0  0
  -30.7615  -20.3726   21.5283 N   0  0  0  0  0  0
  -31.1658  -18.1295   21.5222 N   0  0  0  0  0  0
  -30.1024  -18.3233   20.6991 N   0  0  0  0  0  0
  -31.4649  -12.9772   19.1938 H   0  0  0  0  0  0
  -30.4918  -11.8758   20.1086 H   0  0  0  0  0  0
  -29.9135  -11.7784   17.6453 H   0  0  0  0  0  0
  -29.5708  -13.4839   17.6527 H   0  0  0  0  0  0
  -28.0206  -11.2711   19.0207 H   0  0  0  0  0  0
  -27.4205  -12.3859   17.8201 H   0  0  0  0  0  0
  -27.5191  -14.2144   19.2985 H   0  0  0  0  0  0
  -28.8182  -12.4724   21.4529 H   0  0  0  0  0  0
  -28.2853  -14.1081   21.7025 H   0  0  0  0  0  0
  -25.2788   -9.5691   22.4725 H   0  0  0  0  0  0
  -24.0017   -7.4655   22.7496 H   0  0  0  0  0  0
  -21.0883   -8.8736   19.8947 H   0  0  0  0  0  0
  -22.3708  -10.9638   19.6158 H   0  0  0  0  0  0
  -21.1884   -7.6127   23.9690 H   0  0  0  0  0  0
  -21.1510   -6.0538   25.9087 H   0  0  0  0  0  0
  -22.0584   -2.7597   23.2843 H   0  0  0  0  0  0
  -22.4074  -11.9736   22.4778 H   0  0  0  0  0  0
  -21.1066  -13.1105   22.2695 H   0  0  0  0  0  0
  -24.6044  -15.8333   20.5686 H   0  0  0  0  0  0
  -26.2409  -15.6543   20.1917 H   0  0  0  0  0  0
  -26.7391  -32.5114   23.0916 H   0  0  0  0  0  0
  -25.0061  -33.9455   25.0199 H   0  0  0  0  0  0
  -22.7851  -31.2621   21.3523 H   0  0  0  0  0  0
  -23.3777  -35.9505   23.3286 H   0  0  0  0  0  0
  -24.3542  -36.8889   22.2069 H   0  0  0  0  0  0
  -23.7203  -37.6364   23.6728 H   0  0  0  0  0  0
  -26.2316  -31.3843   20.6232 H   0  0  0  0  0  0
  -26.8980  -30.6848   22.0615 H   0  0  0  0  0  0
  -28.1543  -28.6504   21.2615 H   0  0  0  0  0  0
  -25.8959  -25.7283   19.0468 H   0  0  0  0  0  0
  -23.9993  -27.2422   18.9862 H   0  0  0  0  0  0
  -23.8567  -30.5098   19.3870 H   0  0  0  0  0  0
  -22.8211  -29.1911   19.8466 H   0  0  0  0  0  0
  -25.1321  -36.1784   25.0791 H   0  0  0  0  0  0
  -21.0009  -28.3334   24.1337 H   0  0  0  0  0  0
  -20.5685  -26.2360   23.3646 H   0  0  0  0  0  0
  -21.6646  -26.7400   22.1195 H   0  0  0  0  0  0
  -19.6903  -25.6276   21.1275 H   0  0  0  0  0  0
  -19.6674  -27.3165   20.6750 H   0  0  0  0  0  0
  -17.4212  -26.6721   21.4027 H   0  0  0  0  0  0
  -18.0289  -26.0079   22.9021 H   0  0  0  0  0  0
  -19.7965  -30.7340   24.2161 H   0  0  0  0  0  0
  -17.5024  -31.6262   24.5172 H   0  0  0  0  0  0
  -15.5363  -30.2943   23.7708 H   0  0  0  0  0  0
  -15.8711  -28.0771   22.7150 H   0  0  0  0  0  0
  -24.5851  -30.7149   25.7726 H   0  0  0  0  0  0
  -24.8854  -32.2988   26.4745 H   0  0  0  0  0  0
  -25.7894  -30.9027   27.0259 H   0  0  0  0  0  0
  -26.3155  -29.6591   24.1447 H   0  0  0  0  0  0
  -27.3943  -29.7287   25.5165 H   0  0  0  0  0  0
  -27.9107  -30.4117   23.9958 H   0  0  0  0  0  0
  -27.2573  -33.3749   26.1969 H   0  0  0  0  0  0
  -28.3884  -32.6911   25.0406 H   0  0  0  0  0  0
  -28.0651  -31.8660   26.5576 H   0  0  0  0  0  0
  -28.2565  -38.0085   24.7563 H   0  0  0  0  0  0
  -28.1115  -36.2614   24.6248 H   0  0  0  0  0  0
  -27.2293  -37.1339   25.8866 H   0  0  0  0  0  0
  -20.9650  -29.8684   21.6651 H   0  0  0  0  0  0
  -26.0147  -38.2772   24.1445 H   0  0  0  0  0  0
  -32.3419  -19.4534   22.6389 H   0  0  0  0  0  0
  -27.7118  -17.7336   20.6960 H   0  0  0  0  0  0
  -28.0908  -16.2940   21.6101 H   0  0  0  0  0  0
  -27.5906  -16.2065   19.9025 H   0  0  0  0  0  0
  -28.9973  -17.8625   18.3128 H   0  0  0  0  0  0
  -29.2398  -16.1355   18.0991 H   0  0  0  0  0  0
  -30.6256  -17.2044   18.2465 H   0  0  0  0  0  0
  -27.8326  -20.7950   20.5774 H   0  0  0  0  0  0
  -28.7307  -20.9261   19.1146 H   0  0  0  0  0  0
  -29.9886  -23.0614   20.0866 H   0  0  0  0  0  0
  -29.1267  -22.9041   21.5560 H   0  0  0  0  0  0
  -27.0624  -24.1101   20.5672 H   0  0  0  0  0  0
  -27.8075  -24.1939   19.0225 H   0  0  0  0  0  0
  1 25  1  0  0  0
  1 30  2  0  0  0
  1 78  1  0  0  0
  2  3  1  0  0  0
  2 25  1  0  0  0
  2 82  1  0  0  0
  2 83  1  0  0  0
  3  4  1  0  0  0
  3 84  1  0  0  0
  3 85  1  0  0  0
  4  5  1  0  0  0
  4 86  1  0  0  0
  4 87  1  0  0  0
  5  6  1  0  0  0
  5 26  1  0  0  0
  5 88  1  0  0  0
  6 25  1  0  0  0
  6 89  1  0  0  0
  6 90  1  0  0  0
  7  8  2  0  0  0
  7 26  1  0  0  0
  7 29  1  0  0  0
  8  9  1  0  0  0
  8 22  1  0  0  0
  9 10  1  0  0  0
  9 27  2  0  0  0
 10 11  2  0  0  0
 10 15  1  0  0  0
 11 12  1  0  0  0
 11 91  1  0  0  0
 12 13  2  0  0  0
 12 92  1  0  0  0
 13 14  1  0  0  0
 13 31  1  0  0  0
 14 15  2  0  0  0
 14 93  1  0  0  0
 15 94  1  0  0  0
 16 17  2  0  0  0
 16 21  1  0  0  0
 16 31  1  0  0  0
 17 18  1  0  0  0
 17 95  1  0  0  0
 18 19  2  0  0  0
 18 96  1  0  0  0
 19 20  1  0  0  0
 19 24  1  0  0  0
 20 21  2  0  0  0
 20 97  1  0  0  0
 21 23  1  0  0  0
 22 28  1  0  0  0
 22 32  2  0  0  0
 26 27  1  0  0  0
 28 98  1  0  0  0
 28 99  1  0  0  0
 29100  1  0  0  0
 29101  1  0  0  0
 33 34  1  0  0  0
 33 66  1  0  0  0
 33 70  2  0  0  0
 34 36  1  0  0  0
 34 59  1  0  0  0
 34102  1  0  0  0
 35 44  2  0  0  0
 35 45  1  0  0  0
 35 68  1  0  0  0
 36 56  1  0  0  0
 36103  1  0  0  0
 37 39  1  0  0  0
 37 47  1  0  0  0
 37 66  1  0  0  0
 37104  1  0  0  0
 38 43  2  0  0  0
 38 46  1  0  0  0
 38 47  1  0  0  0
 39 64  1  0  0  0
 39 67  2  0  0  0
 40 52  1  0  0  0
 40 53  2  0  0  0
 40 58  1  0  0  0
 41105  1  0  0  0
 41106  1  0  0  0
 41107  1  0  0  0
 41 48  1  0  0  0
 42 43  1  0  0  0
 42 66  1  0  0  0
 42108  1  0  0  0
 42109  1  0  0  0
 43 44  1  0  0  0
 44110  1  0  0  0
 45 46  2  0  0  0
 45111  1  0  0  0
 46112  1  0  0  0
 47113  1  0  0  0
 47114  1  0  0  0
 48 56  1  0  0  0
 48 65  1  0  0  0
 48115  1  0  0  0
 49 50  1  0  0  0
 49 53  1  0  0  0
 49 64  1  0  0  0
 49116  1  0  0  0
 50 51  1  0  0  0
 50117  1  0  0  0
 50118  1  0  0  0
 51 52  1  0  0  0
 51119  1  0  0  0
 51120  1  0  0  0
 52121  1  0  0  0
 52122  1  0  0  0
 53 54  1  0  0  0
 54 55  2  0  0  0
 54123  1  0  0  0
 55 57  1  0  0  0
 55124  1  0  0  0
 56 69  2  0  0  0
 57 58  2  0  0  0
 57125  1  0  0  0
 58126  1  0  0  0
 59 60  1  0  0  0
 59 61  1  0  0  0
 59 62  1  0  0  0
 60127  1  0  0  0
 60128  1  0  0  0
 60129  1  0  0  0
 61130  1  0  0  0
 61131  1  0  0  0
 61132  1  0  0  0
 62133  1  0  0  0
 62134  1  0  0  0
 62135  1  0  0  0
 63 65  1  0  0  0
 63136  1  0  0  0
 63137  1  0  0  0
 63138  1  0  0  0
 64139  1  0  0  0
 65140  1  0  0  0
 68 77  1  0  0  0
 71 79  1  0  0  0
 71 80  2  0  0  0
 71141  1  0  0  0
 72 75  1  0  0  0
 72 79  2  0  0  0
 72 81  1  0  0  0
 73142  1  0  0  0
 73143  1  0  0  0
 73144  1  0  0  0
 73 78  1  0  0  0
 74 78  1  0  0  0
 74145  1  0  0  0
 74146  1  0  0  0
 74147  1  0  0  0
 75 76  1  0  0  0
 75148  1  0  0  0
 75149  1  0  0  0
 76 77  1  0  0  0
 76150  1  0  0  0
 76151  1  0  0  0
 77152  1  0  0  0
 77153  1  0  0  0
 78 81  1  0  0  0
 80 81  1  0  0  0
M  ISO  4   1 100  68 101  77 101  78 100
M  END
> <chiral flag>
0

> <version>
0

> <s_m_source_file>
/data/baiqing/PycharmProjects/Reinvent-master-3.2/result/LINK_invent/BTK/process_docking_weight1_custom_sum_contain_oxygen_bond_distance_aromatic_linkinvent_7_9_3/rearranged_h_0058.sdf

> <i_m_source_file_index>
21

> <r_mmod_Potential_Energy-OPLS-2005>
1364.48974609375

> <r_mmod_Stretch_Energy-OPLS-2005>
596.676818847656

> <r_mmod_Bend_Energy-OPLS-2005>
479.27294921875

> <r_mmod_Torsional_Energy-OPLS-2005>
249.691192626953

> <r_mmod_Improper_Torsional_Energy-OPLS-2005>
7.95727205276489

> <r_mmod_Van_der_Waal_Energy-OPLS-2005>
108.286682128906

> <r_mmod_Electrostatic_Energy-OPLS-2005>
-277.761169433594

> <r_mmod_Solvation_Energy-OPLS-2005>
-222.070770263672

> <b_mmod_Minimization_Converged-OPLS-2005>
0

> <r_mmod_RMS_Derivative-OPLS-2005>
3.25690865516663

$$$$
21
                    3D
 Structure written by MMmdl.
150158  0  0  1  0            999 V2000
  -30.5031  -15.0164   20.4638 C   0  0  0  0  0  0
  -30.4545  -12.6572   19.4813 C   0  0  0  0  0  0
  -29.5153  -12.5361   18.2573 C   0  0  0  0  0  0
  -28.0637  -12.2725   18.6955 C   0  0  0  0  0  0
  -27.6335  -13.2233   19.8379 C   0  0  2  0  0  0
  -28.6750  -13.2308   20.9722 C   0  0  0  0  0  0
  -25.2567  -13.8139   20.5770 C   0  0  0  0  0  0
  -24.1817  -13.0409   20.9207 C   0  0  0  0  0  0
  -24.6377  -11.6868   20.8714 C   0  0  0  0  0  0
  -23.9034  -10.4277   21.0367 C   0  0  0  0  0  0
  -24.3597   -9.4200   21.9135 C   0  0  0  0  0  0
  -23.6274   -8.2243   22.0740 C   0  0  0  0  0  0
  -22.4261   -8.0280   21.3538 C   0  0  0  0  0  0
  -21.9887   -9.0239   20.4641 C   0  0  0  0  0  0
  -22.7205  -10.2112   20.3023 C   0  0  0  0  0  0
  -21.6844   -6.0754   22.5273 C   0  0  0  0  0  0
  -21.4004   -6.5661   23.8209 C   0  0  0  0  0  0
  -21.3641   -5.6806   24.9168 C   0  0  0  0  0  0
  -21.6036   -4.3074   24.7215 C   0  0  0  0  0  0
  -21.8815   -3.8172   23.4339 C   0  0  0  0  0  0
  -21.9185   -4.6987   22.3396 C   0  0  0  0  0  0
  -22.7856  -13.5212   21.1890 C   0  0  0  0  0  0
  -22.1665   -4.2180   21.0973 F   0  0  0  0  0  0
  -21.5609   -3.4551   25.7728 F   0  0  0  0  0  0
  -29.9299  -13.7328   20.3869 N   0  0  0  0  0  0
  -26.2918  -12.9290   20.3245 N   0  0  0  0  0  0
  -25.9295  -11.6457   20.5694 N   0  0  0  0  0  0
  -22.0521  -12.8197   22.0454 N   0  0  0  0  0  0
  -25.4468  -15.1850   20.4340 N   0  0  0  0  0  0
  -31.6763  -15.0876   20.0717 O   0  0  0  0  0  0
  -21.6615   -6.8885   21.4245 O   0  0  0  0  0  0
  -22.3533  -14.5505   20.6746 O   0  0  0  0  0  0
  -24.6503  -31.8376   23.1841 C   0  0  0  0  0  0
  -25.9248  -32.4672   23.8249 C   0  0  1  0  0  0
  -27.2131  -27.0771   20.1517 C   0  0  0  0  0  0
  -25.5961  -33.8472   24.2162 N   0  0  0  0  0  0
  -23.4575  -30.4558   21.5317 C   0  0  2  0  0  0
  -24.9055  -28.8733   20.1088 C   0  0  0  0  0  0
  -22.7593  -29.4524   22.4862 C   0  0  0  0  0  0
  -18.0332  -28.1393   22.8438 C   0  0  0  0  0  0
  -24.1496  -36.7247   23.2633 C   0  0  0  0  0  0
  -26.0164  -30.6942   21.3870 C   0  0  0  0  0  0
  -26.0856  -29.2986   20.7301 C   0  0  0  0  0  0
  -27.2405  -28.4198   20.7291 C   0  0  0  0  0  0
  -26.0060  -26.7691   19.4908 C   0  0  0  0  0  0
  -24.8817  -27.6268   19.4691 C   0  0  0  0  0  0
  -23.6840  -29.7808   20.1530 C   0  0  0  0  0  0
  -25.4122  -36.3017   24.0312 C   0  0  1  0  0  0
  -20.5949  -28.3755   23.1239 C   0  0  2  0  0  0
  -20.6851  -26.9456   22.5427 C   0  0  0  0  0  0
  -19.5848  -26.6411   21.5190 C   0  0  0  0  0  0
  -18.2008  -26.7956   22.1553 C   0  0  0  0  0  0
  -19.1585  -28.8879   23.2834 C   0  0  0  0  0  0
  -18.9455  -30.1456   23.8885 C   0  0  0  0  0  0
  -17.6449  -30.6563   24.0543 C   0  0  0  0  0  0
  -25.9077  -34.9389   23.5050 C   0  0  0  0  0  0
  -16.5340  -29.9045   23.6323 C   0  0  0  0  0  0
  -16.7289  -28.6470   23.0342 C   0  0  0  0  0  0
  -26.4558  -31.6560   25.0712 C   0  0  0  0  0  0
  -25.3754  -31.3746   26.1426 C   0  0  0  0  0  0
  -27.0424  -30.2949   24.6310 C   0  0  0  0  0  0
  -27.6083  -32.4334   25.7501 C   0  0  0  0  0  0
  -27.5581  -37.1768   24.8472 C   0  0  0  0  0  0
  -21.4289  -29.3058   22.3589 N   0  0  0  0  0  0
  -26.4290  -37.3731   23.9412 N   0  0  0  0  0  0
  -24.7291  -31.0172   22.0901 N   0  0  0  0  0  0
  -23.4200  -28.8094   23.3067 O   0  0  0  0  0  0
  -28.2556  -26.0587   20.2053 O   0  0  0  0  0  0
  -26.5657  -34.8895   22.4634 O   0  0  0  0  0  0
  -23.5599  -32.1250   23.7024 O   0  0  0  0  0  0
  -27.1891  -20.0309   21.2571 C   0  0  0  0  0  0
  -28.6579  -21.5250   20.4349 C   0  0  0  0  0  0
  -29.0974  -19.1199   20.4797 C   0  0  0  0  0  0
  -29.0189  -16.2529   22.0076 C   0  0  0  0  0  0
  -29.0353  -23.1483   20.2521 C   0  0  0  0  0  0
  -29.9650  -17.7132   20.1746 C   0  0  0  0  0  0
  -27.9676  -24.4947   20.1690 C   0  0  0  0  0  0
  -27.4869  -21.3095   21.0183 N   0  0  0  0  0  0
  -27.9012  -18.9286   21.0176 N   0  0  0  0  0  0
  -29.5077  -20.4310   20.1654 N   0  0  0  0  0  0
  -29.7463  -16.2205   20.7321 N   0  0  0  0  0  0
  -31.4630  -12.8695   19.1231 H   0  0  0  0  0  0
  -30.5391  -11.7063   20.0117 H   0  0  0  0  0  0
  -29.8537  -11.7365   17.5977 H   0  0  0  0  0  0
  -29.5533  -13.4564   17.6760 H   0  0  0  0  0  0
  -28.0140  -11.2401   19.0475 H   0  0  0  0  0  0
  -27.3796  -12.3368   17.8501 H   0  0  0  0  0  0
  -27.6026  -14.2240   19.4040 H   0  0  0  0  0  0
  -28.8080  -12.2274   21.3771 H   0  0  0  0  0  0
  -28.3150  -13.8210   21.8084 H   0  0  0  0  0  0
  -25.2733   -9.5708   22.4710 H   0  0  0  0  0  0
  -23.9983   -7.4658   22.7487 H   0  0  0  0  0  0
  -21.0801   -8.8740   19.8972 H   0  0  0  0  0  0
  -22.3621  -10.9645   19.6153 H   0  0  0  0  0  0
  -21.2006   -7.6169   23.9727 H   0  0  0  0  0  0
  -21.1457   -6.0535   25.9068 H   0  0  0  0  0  0
  -22.0611   -2.7642   23.2815 H   0  0  0  0  0  0
  -22.4094  -11.9749   22.4693 H   0  0  0  0  0  0
  -21.1196  -13.1265   22.2765 H   0  0  0  0  0  0
  -24.7210  -15.8722   20.5990 H   0  0  0  0  0  0
  -26.3387  -15.6056   20.2044 H   0  0  0  0  0  0
  -26.7311  -32.5257   23.0965 H   0  0  0  0  0  0
  -25.0152  -33.9602   25.0340 H   0  0  0  0  0  0
  -22.7647  -31.2853   21.3744 H   0  0  0  0  0  0
  -23.3767  -35.9583   23.3293 H   0  0  0  0  0  0
  -24.3575  -36.8870   22.2050 H   0  0  0  0  0  0
  -23.7266  -37.6443   23.6671 H   0  0  0  0  0  0
  -26.1776  -31.4439   20.6110 H   0  0  0  0  0  0
  -26.8866  -30.7457   22.0301 H   0  0  0  0  0  0
  -28.1396  -28.7440   21.2306 H   0  0  0  0  0  0
  -25.8923  -25.8189   18.9904 H   0  0  0  0  0  0
  -23.9826  -27.3015   18.9648 H   0  0  0  0  0  0
  -23.8158  -30.5539   19.3948 H   0  0  0  0  0  0
  -22.7964  -29.2249   19.8468 H   0  0  0  0  0  0
  -25.1320  -36.1833   25.0805 H   0  0  0  0  0  0
  -21.0036  -28.3389   24.1371 H   0  0  0  0  0  0
  -20.5763  -26.2345   23.3635 H   0  0  0  0  0  0
  -21.6748  -26.7531   22.1250 H   0  0  0  0  0  0
  -19.7050  -25.6318   21.1220 H   0  0  0  0  0  0
  -19.6817  -27.3233   20.6722 H   0  0  0  0  0  0
  -17.4344  -26.6765   21.3885 H   0  0  0  0  0  0
  -18.0361  -26.0059   22.8895 H   0  0  0  0  0  0
  -19.7903  -30.7285   24.2319 H   0  0  0  0  0  0
  -17.4997  -31.6235   24.5170 H   0  0  0  0  0  0
  -15.5348  -30.2970   23.7635 H   0  0  0  0  0  0
  -15.8700  -28.0770   22.7041 H   0  0  0  0  0  0
  -24.5914  -30.7124   25.7737 H   0  0  0  0  0  0
  -24.9004  -32.2940   26.4842 H   0  0  0  0  0  0
  -25.8051  -30.8898   27.0208 H   0  0  0  0  0  0
  -26.3036  -29.6659   24.1333 H   0  0  0  0  0  0
  -27.4045  -29.7250   25.4883 H   0  0  0  0  0  0
  -27.8947  -30.4185   23.9629 H   0  0  0  0  0  0
  -27.2660  -33.3618   26.2078 H   0  0  0  0  0  0
  -28.3893  -32.6913   25.0342 H   0  0  0  0  0  0
  -28.0783  -31.8486   26.5415 H   0  0  0  0  0  0
  -28.2596  -38.0057   24.7495 H   0  0  0  0  0  0
  -28.1059  -36.2585   24.6323 H   0  0  0  0  0  0
  -27.2291  -37.1461   25.8867 H   0  0  0  0  0  0
  -20.9535  -29.8598   21.6607 H   0  0  0  0  0  0
  -26.0142  -38.2800   24.1394 H   0  0  0  0  0  0
  -26.2316  -19.8653   21.7296 H   0  0  0  0  0  0
  -29.2111  -17.1815   22.5430 H   0  0  0  0  0  0
  -29.3212  -15.4683   22.7021 H   0  0  0  0  0  0
  -27.9459  -16.1718   21.8339 H   0  0  0  0  0  0
  -29.6448  -23.1911   19.3516 H   0  0  0  0  0  0
  -29.7427  -23.3587   21.0524 H   0  0  0  0  0  0
  -31.0095  -17.9583   20.3672 H   0  0  0  0  0  0
  -29.9093  -17.6000   19.0917 H   0  0  0  0  0  0
  -27.2665  -24.3416   20.9879 H   0  0  0  0  0  0
  -27.3880  -24.3135   19.2657 H   0  0  0  0  0  0
  1 25  1  0  0  0
  1 30  2  0  0  0
  1 81  1  0  0  0
  2  3  1  0  0  0
  2 25  1  0  0  0
  2 82  1  0  0  0
  2 83  1  0  0  0
  3  4  1  0  0  0
  3 84  1  0  0  0
  3 85  1  0  0  0
  4  5  1  0  0  0
  4 86  1  0  0  0
  4 87  1  0  0  0
  5  6  1  0  0  0
  5 26  1  0  0  0
  5 88  1  0  0  0
  6 25  1  0  0  0
  6 89  1  0  0  0
  6 90  1  0  0  0
  7  8  2  0  0  0
  7 26  1  0  0  0
  7 29  1  0  0  0
  8  9  1  0  0  0
  8 22  1  0  0  0
  9 10  1  0  0  0
  9 27  2  0  0  0
 10 11  2  0  0  0
 10 15  1  0  0  0
 11 12  1  0  0  0
 11 91  1  0  0  0
 12 13  2  0  0  0
 12 92  1  0  0  0
 13 14  1  0  0  0
 13 31  1  0  0  0
 14 15  2  0  0  0
 14 93  1  0  0  0
 15 94  1  0  0  0
 16 17  2  0  0  0
 16 21  1  0  0  0
 16 31  1  0  0  0
 17 18  1  0  0  0
 17 95  1  0  0  0
 18 19  2  0  0  0
 18 96  1  0  0  0
 19 20  1  0  0  0
 19 24  1  0  0  0
 20 21  2  0  0  0
 20 97  1  0  0  0
 21 23  1  0  0  0
 22 28  1  0  0  0
 22 32  2  0  0  0
 26 27  1  0  0  0
 28 98  1  0  0  0
 28 99  1  0  0  0
 29100  1  0  0  0
 29101  1  0  0  0
 33 34  1  0  0  0
 33 66  1  0  0  0
 33 70  2  0  0  0
 34 36  1  0  0  0
 34 59  1  0  0  0
 34102  1  0  0  0
 35 44  2  0  0  0
 35 45  1  0  0  0
 35 68  1  0  0  0
 36 56  1  0  0  0
 36103  1  0  0  0
 37 39  1  0  0  0
 37 47  1  0  0  0
 37 66  1  0  0  0
 37104  1  0  0  0
 38 43  2  0  0  0
 38 46  1  0  0  0
 38 47  1  0  0  0
 39 64  1  0  0  0
 39 67  2  0  0  0
 40 52  1  0  0  0
 40 53  2  0  0  0
 40 58  1  0  0  0
 41105  1  0  0  0
 41106  1  0  0  0
 41107  1  0  0  0
 41 48  1  0  0  0
 42 43  1  0  0  0
 42 66  1  0  0  0
 42108  1  0  0  0
 42109  1  0  0  0
 43 44  1  0  0  0
 44110  1  0  0  0
 45 46  2  0  0  0
 45111  1  0  0  0
 46112  1  0  0  0
 47113  1  0  0  0
 47114  1  0  0  0
 48 56  1  0  0  0
 48 65  1  0  0  0
 48115  1  0  0  0
 49 50  1  0  0  0
 49 53  1  0  0  0
 49 64  1  0  0  0
 49116  1  0  0  0
 50 51  1  0  0  0
 50117  1  0  0  0
 50118  1  0  0  0
 51 52  1  0  0  0
 51119  1  0  0  0
 51120  1  0  0  0
 52121  1  0  0  0
 52122  1  0  0  0
 53 54  1  0  0  0
 54 55  2  0  0  0
 54123  1  0  0  0
 55 57  1  0  0  0
 55124  1  0  0  0
 56 69  2  0  0  0
 57 58  2  0  0  0
 57125  1  0  0  0
 58126  1  0  0  0
 59 60  1  0  0  0
 59 61  1  0  0  0
 59 62  1  0  0  0
 60127  1  0  0  0
 60128  1  0  0  0
 60129  1  0  0  0
 61130  1  0  0  0
 61131  1  0  0  0
 61132  1  0  0  0
 62133  1  0  0  0
 62134  1  0  0  0
 62135  1  0  0  0
 63 65  1  0  0  0
 63136  1  0  0  0
 63137  1  0  0  0
 63138  1  0  0  0
 64139  1  0  0  0
 65140  1  0  0  0
 68 77  1  0  0  0
 71 78  2  0  0  0
 71 79  1  0  0  0
 71141  1  0  0  0
 72 75  1  0  0  0
 72 78  1  0  0  0
 72 80  2  0  0  0
 73 76  1  0  0  0
 73 79  2  0  0  0
 73 80  1  0  0  0
 74 81  1  0  0  0
 74142  1  0  0  0
 74143  1  0  0  0
 74144  1  0  0  0
 75 77  1  0  0  0
 75145  1  0  0  0
 75146  1  0  0  0
 76 81  1  0  0  0
 76147  1  0  0  0
 76148  1  0  0  0
 77149  1  0  0  0
 77150  1  0  0  0
M  ISO  4   1 100  68 101  77 101  81 100
M  END
> <chiral flag>
0

> <version>
0

> <s_m_source_file>
/data/baiqing/PycharmProjects/Reinvent-master-3.2/result/LINK_invent/BTK/process_docking_weight1_custom_sum_contain_oxygen_bond_distance_aromatic_linkinvent_7_9_3/rearranged_h_0058.sdf

> <i_m_source_file_index>
22

> <r_mmod_Potential_Energy-OPLS-2005>
50.4257049560547

> <r_mmod_Stretch_Energy-OPLS-2005>
329.896026611328

> <r_mmod_Bend_Energy-OPLS-2005>
292.522155761719

> <r_mmod_Torsional_Energy-OPLS-2005>
255.22541809082

> <r_mmod_Improper_Torsional_Energy-OPLS-2005>
7.15262222290039

> <r_mmod_Van_der_Waal_Energy-OPLS-2005>
153.839859008789

> <r_mmod_Electrostatic_Energy-OPLS-2005>
-996.218688964844

> <r_mmod_Solvation_Energy-OPLS-2005>
-231.864547729492

> <b_mmod_Minimization_Converged-OPLS-2005>
0

> <r_mmod_RMS_Derivative-OPLS-2005>
4.40606594085693

$$$$
22
                    3D
 Structure written by MMmdl.
151159  0  0  1  0            999 V2000
  -30.4564  -15.1982   20.4338 C   0  0  0  0  0  0
  -30.4486  -12.7686   19.5409 C   0  0  0  0  0  0
  -29.5416  -12.5872   18.2946 C   0  0  0  0  0  0
  -28.0751  -12.3323   18.6935 C   0  0  0  0  0  0
  -27.6174  -13.2615   19.8393 C   0  0  2  0  0  0
  -28.6491  -13.3193   20.9740 C   0  0  0  0  0  0
  -25.2410  -13.8187   20.5790 C   0  0  0  0  0  0
  -24.1750  -13.0369   20.9324 C   0  0  0  0  0  0
  -24.6398  -11.6879   20.8835 C   0  0  0  0  0  0
  -23.9093  -10.4224   21.0429 C   0  0  0  0  0  0
  -24.3635   -9.4115   21.9170 C   0  0  0  0  0  0
  -23.6270   -8.2171   22.0708 C   0  0  0  0  0  0
  -22.4256   -8.0240   21.3493 C   0  0  0  0  0  0
  -21.9930   -9.0229   20.4596 C   0  0  0  0  0  0
  -22.7294  -10.2092   20.3036 C   0  0  0  0  0  0
  -21.6807   -6.0736   22.5279 C   0  0  0  0  0  0
  -21.3967   -6.5625   23.8217 C   0  0  0  0  0  0
  -21.3663   -5.6772   24.9176 C   0  0  0  0  0  0
  -21.6051   -4.3037   24.7219 C   0  0  0  0  0  0
  -21.8810   -3.8141   23.4335 C   0  0  0  0  0  0
  -21.9167   -4.6961   22.3397 C   0  0  0  0  0  0
  -22.7766  -13.5106   21.1966 C   0  0  0  0  0  0
  -22.1641   -4.2161   21.0968 F   0  0  0  0  0  0
  -21.5654   -3.4519   25.7732 F   0  0  0  0  0  0
  -29.8935  -13.8838   20.3920 N   0  0  0  0  0  0
  -26.2810  -12.9428   20.3235 N   0  0  0  0  0  0
  -25.9317  -11.6546   20.5753 N   0  0  0  0  0  0
  -22.0441  -12.8042   22.0516 N   0  0  0  0  0  0
  -25.4034  -15.1917   20.4290 N   0  0  0  0  0  0
  -31.6457  -15.2235   20.0764 O   0  0  0  0  0  0
  -21.6569   -6.8875   21.4227 O   0  0  0  0  0  0
  -22.3387  -14.5346   20.6751 O   0  0  0  0  0  0
  -24.6572  -31.8310   23.1760 C   0  0  0  0  0  0
  -25.9270  -32.4636   23.8212 C   0  0  1  0  0  0
  -27.2161  -26.9742   20.1837 C   0  0  0  0  0  0
  -25.5958  -33.8452   24.2126 N   0  0  0  0  0  0
  -23.4698  -30.4420   21.5265 C   0  0  2  0  0  0
  -24.9251  -28.8418   20.1134 C   0  0  0  0  0  0
  -22.7647  -29.4464   22.4842 C   0  0  0  0  0  0
  -18.0325  -28.1406   22.8474 C   0  0  0  0  0  0
  -24.1491  -36.7217   23.2648 C   0  0  0  0  0  0
  -26.0374  -30.6496   21.4048 C   0  0  0  0  0  0
  -26.1071  -29.2450   20.7486 C   0  0  0  0  0  0
  -27.2472  -28.3287   20.7667 C   0  0  0  0  0  0
  -26.0123  -26.7218   19.4874 C   0  0  0  0  0  0
  -24.9006  -27.5976   19.4646 C   0  0  0  0  0  0
  -23.7088  -29.7635   20.1499 C   0  0  0  0  0  0
  -25.4135  -36.3007   24.0317 C   0  0  1  0  0  0
  -20.5940  -28.3734   23.1220 C   0  0  2  0  0  0
  -20.6811  -26.9430   22.5409 C   0  0  0  0  0  0
  -19.5777  -26.6383   21.5226 C   0  0  0  0  0  0
  -18.1958  -26.7941   22.1634 C   0  0  0  0  0  0
  -19.1582  -28.8897   23.2825 C   0  0  0  0  0  0
  -18.9489  -30.1496   23.8849 C   0  0  0  0  0  0
  -17.6476  -30.6597   24.0553 C   0  0  0  0  0  0
  -25.9099  -34.9381   23.5042 C   0  0  0  0  0  0
  -16.5369  -29.9080   23.6348 C   0  0  0  0  0  0
  -16.7303  -28.6504   23.0362 C   0  0  0  0  0  0
  -26.4538  -31.6558   25.0713 C   0  0  0  0  0  0
  -25.3658  -31.3775   26.1360 C   0  0  0  0  0  0
  -27.0451  -30.2946   24.6402 C   0  0  0  0  0  0
  -27.6057  -32.4345   25.7488 C   0  0  0  0  0  0
  -27.5579  -37.1776   24.8475 C   0  0  0  0  0  0
  -21.4330  -29.3032   22.3588 N   0  0  0  0  0  0
  -26.4293  -37.3735   23.9413 N   0  0  0  0  0  0
  -24.7417  -30.9988   22.0894 N   0  0  0  0  0  0
  -23.4222  -28.8072   23.3084 O   0  0  0  0  0  0
  -28.2023  -25.8711   20.2904 O   0  0  0  0  0  0
  -26.5710  -34.8906   22.4640 O   0  0  0  0  0  0
  -23.5649  -32.1276   23.6866 O   0  0  0  0  0  0
  -29.6268  -22.0874   19.5283 C   0  0  0  0  0  0
  -28.5778  -22.7633   20.2723 C   0  0  0  0  0  0
  -29.3325  -19.7190   20.3342 C   0  0  0  0  0  0
  -28.2544  -20.3871   21.0855 C   0  0  0  0  0  0
  -28.8583  -16.3511   21.8645 C   0  0  0  0  0  0
  -29.9118  -18.0620   20.2248 C   0  0  0  0  0  0
  -27.8577  -24.3163   19.9698 C   0  0  0  0  0  0
  -27.3379  -19.5840   22.0170 C   0  0  0  0  0  0
  -29.9764  -20.7047   19.5724 N   0  0  0  0  0  0
  -27.9329  -21.7858   21.0378 N   0  0  0  0  0  0
  -29.7111  -16.4595   20.6762 N   0  0  0  0  0  0
  -26.9289  -18.4650   21.4240 F   0  0  0  0  0  0
  -27.9798  -19.2845   23.1474 F   0  0  0  0  0  0
  -26.2426  -20.2755   22.3414 F   0  0  0  0  0  0
  -31.4648  -12.9890   19.2140 H   0  0  0  0  0  0
  -30.5280  -11.8429   20.1126 H   0  0  0  0  0  0
  -29.9135  -11.7819   17.6580 H   0  0  0  0  0  0
  -29.5987  -13.4969   17.6985 H   0  0  0  0  0  0
  -27.9826  -11.2929   19.0069 H   0  0  0  0  0  0
  -27.4186  -12.4539   17.8336 H   0  0  0  0  0  0
  -27.5610  -14.2629   19.4137 H   0  0  0  0  0  0
  -28.8182  -12.3234   21.3854 H   0  0  0  0  0  0
  -28.2264  -13.8770   21.8015 H   0  0  0  0  0  0
  -25.2801   -9.5525   22.4724 H   0  0  0  0  0  0
  -23.9948   -7.4518   22.7390 H   0  0  0  0  0  0
  -21.0891   -8.8777   19.8869 H   0  0  0  0  0  0
  -22.3792  -10.9631   19.6127 H   0  0  0  0  0  0
  -21.1896   -7.6113   23.9736 H   0  0  0  0  0  0
  -21.1513   -6.0485   25.9090 H   0  0  0  0  0  0
  -22.0576   -2.7597   23.2837 H   0  0  0  0  0  0
  -22.4136  -11.9781   22.5000 H   0  0  0  0  0  0
  -21.0981  -13.0922   22.2596 H   0  0  0  0  0  0
  -24.6382  -15.8417   20.5671 H   0  0  0  0  0  0
  -26.2494  -15.6383   20.1020 H   0  0  0  0  0  0
  -26.7337  -32.5200   23.0932 H   0  0  0  0  0  0
  -25.0038  -33.9551   25.0227 H   0  0  0  0  0  0
  -22.7789  -31.2708   21.3602 H   0  0  0  0  0  0
  -23.3782  -35.9511   23.3289 H   0  0  0  0  0  0
  -24.3559  -36.8873   22.2061 H   0  0  0  0  0  0
  -23.7214  -37.6391   23.6704 H   0  0  0  0  0  0
  -26.2154  -31.3958   20.6288 H   0  0  0  0  0  0
  -26.8966  -30.7034   22.0619 H   0  0  0  0  0  0
  -28.1346  -28.6243   21.3080 H   0  0  0  0  0  0
  -25.8855  -25.7774   18.9799 H   0  0  0  0  0  0
  -24.0042  -27.2807   18.9493 H   0  0  0  0  0  0
  -23.8605  -30.5353   19.3938 H   0  0  0  0  0  0
  -22.8189  -29.2163   19.8336 H   0  0  0  0  0  0
  -25.1330  -36.1812   25.0809 H   0  0  0  0  0  0
  -21.0009  -28.3323   24.1346 H   0  0  0  0  0  0
  -20.5711  -26.2354   23.3641 H   0  0  0  0  0  0
  -21.6676  -26.7435   22.1202 H   0  0  0  0  0  0
  -19.6924  -25.6283   21.1288 H   0  0  0  0  0  0
  -19.6706  -27.3172   20.6735 H   0  0  0  0  0  0
  -17.4232  -26.6686   21.4036 H   0  0  0  0  0  0
  -18.0327  -26.0097   22.9040 H   0  0  0  0  0  0
  -19.7961  -30.7327   24.2190 H   0  0  0  0  0  0
  -17.5028  -31.6268   24.5162 H   0  0  0  0  0  0
  -15.5368  -30.2957   23.7700 H   0  0  0  0  0  0
  -15.8713  -28.0804   22.7100 H   0  0  0  0  0  0
  -24.5831  -30.7162   25.7624 H   0  0  0  0  0  0
  -24.8857  -32.2969   26.4715 H   0  0  0  0  0  0
  -25.7861  -30.8949   27.0189 H   0  0  0  0  0  0
  -26.3133  -29.6627   24.1365 H   0  0  0  0  0  0
  -27.3988  -29.7288   25.5029 H   0  0  0  0  0  0
  -27.9058  -30.4183   23.9828 H   0  0  0  0  0  0
  -27.2657  -33.3672   26.1993 H   0  0  0  0  0  0
  -28.3879  -32.6867   25.0316 H   0  0  0  0  0  0
  -28.0716  -31.8525   26.5446 H   0  0  0  0  0  0
  -28.2609  -38.0068   24.7527 H   0  0  0  0  0  0
  -28.1079  -36.2604   24.6306 H   0  0  0  0  0  0
  -27.2302  -37.1413   25.8882 H   0  0  0  0  0  0
  -20.9590  -29.8693   21.6700 H   0  0  0  0  0  0
  -26.0154  -38.2803   24.1395 H   0  0  0  0  0  0
  -30.1802  -22.6684   18.8060 H   0  0  0  0  0  0
  -28.9219  -17.2356   22.4867 H   0  0  0  0  0  0
  -29.1824  -15.5562   22.5352 H   0  0  0  0  0  0
  -27.8181  -16.1702   21.5938 H   0  0  0  0  0  0
  -28.8686  -17.9415   19.9375 H   0  0  0  0  0  0
  -30.2843  -18.2665   21.2269 H   0  0  0  0  0  0
  -26.8429  -24.1858   20.3481 H   0  0  0  0  0  0
  -27.7446  -24.3130   18.8854 H   0  0  0  0  0  0
  1 25  1  0  0  0
  1 30  2  0  0  0
  1 81  1  0  0  0
  2  3  1  0  0  0
  2 25  1  0  0  0
  2 85  1  0  0  0
  2 86  1  0  0  0
  3  4  1  0  0  0
  3 87  1  0  0  0
  3 88  1  0  0  0
  4  5  1  0  0  0
  4 89  1  0  0  0
  4 90  1  0  0  0
  5  6  1  0  0  0
  5 26  1  0  0  0
  5 91  1  0  0  0
  6 25  1  0  0  0
  6 92  1  0  0  0
  6 93  1  0  0  0
  7  8  2  0  0  0
  7 26  1  0  0  0
  7 29  1  0  0  0
  8  9  1  0  0  0
  8 22  1  0  0  0
  9 10  1  0  0  0
  9 27  2  0  0  0
 10 11  2  0  0  0
 10 15  1  0  0  0
 11 12  1  0  0  0
 11 94  1  0  0  0
 12 13  2  0  0  0
 12 95  1  0  0  0
 13 14  1  0  0  0
 13 31  1  0  0  0
 14 15  2  0  0  0
 14 96  1  0  0  0
 15 97  1  0  0  0
 16 17  2  0  0  0
 16 21  1  0  0  0
 16 31  1  0  0  0
 17 18  1  0  0  0
 17 98  1  0  0  0
 18 19  2  0  0  0
 18 99  1  0  0  0
 19 20  1  0  0  0
 19 24  1  0  0  0
 20 21  2  0  0  0
 20100  1  0  0  0
 21 23  1  0  0  0
 22 28  1  0  0  0
 22 32  2  0  0  0
 26 27  1  0  0  0
 28101  1  0  0  0
 28102  1  0  0  0
 29103  1  0  0  0
 29104  1  0  0  0
 33 34  1  0  0  0
 33 66  1  0  0  0
 33 70  2  0  0  0
 34 36  1  0  0  0
 34 59  1  0  0  0
 34105  1  0  0  0
 35 44  2  0  0  0
 35 45  1  0  0  0
 35 68  1  0  0  0
 36 56  1  0  0  0
 36106  1  0  0  0
 37 39  1  0  0  0
 37 47  1  0  0  0
 37 66  1  0  0  0
 37107  1  0  0  0
 38 43  2  0  0  0
 38 46  1  0  0  0
 38 47  1  0  0  0
 39 64  1  0  0  0
 39 67  2  0  0  0
 40 52  1  0  0  0
 40 53  2  0  0  0
 40 58  1  0  0  0
 41108  1  0  0  0
 41109  1  0  0  0
 41110  1  0  0  0
 41 48  1  0  0  0
 42 43  1  0  0  0
 42 66  1  0  0  0
 42111  1  0  0  0
 42112  1  0  0  0
 43 44  1  0  0  0
 44113  1  0  0  0
 45 46  2  0  0  0
 45114  1  0  0  0
 46115  1  0  0  0
 47116  1  0  0  0
 47117  1  0  0  0
 48 56  1  0  0  0
 48 65  1  0  0  0
 48118  1  0  0  0
 49 50  1  0  0  0
 49 53  1  0  0  0
 49 64  1  0  0  0
 49119  1  0  0  0
 50 51  1  0  0  0
 50120  1  0  0  0
 50121  1  0  0  0
 51 52  1  0  0  0
 51122  1  0  0  0
 51123  1  0  0  0
 52124  1  0  0  0
 52125  1  0  0  0
 53 54  1  0  0  0
 54 55  2  0  0  0
 54126  1  0  0  0
 55 57  1  0  0  0
 55127  1  0  0  0
 56 69  2  0  0  0
 57 58  2  0  0  0
 57128  1  0  0  0
 58129  1  0  0  0
 59 60  1  0  0  0
 59 61  1  0  0  0
 59 62  1  0  0  0
 60130  1  0  0  0
 60131  1  0  0  0
 60132  1  0  0  0
 61133  1  0  0  0
 61134  1  0  0  0
 61135  1  0  0  0
 62136  1  0  0  0
 62137  1  0  0  0
 62138  1  0  0  0
 63 65  1  0  0  0
 63139  1  0  0  0
 63140  1  0  0  0
 63141  1  0  0  0
 64142  1  0  0  0
 65143  1  0  0  0
 68 77  1  0  0  0
 71 72  2  0  0  0
 71 79  1  0  0  0
 71144  1  0  0  0
 72 77  1  0  0  0
 72 80  1  0  0  0
 73 74  1  0  0  0
 73 76  1  0  0  0
 73 79  2  0  0  0
 74 78  1  0  0  0
 74 80  2  0  0  0
 75 81  1  0  0  0
 75145  1  0  0  0
 75146  1  0  0  0
 75147  1  0  0  0
 76 81  1  0  0  0
 76148  1  0  0  0
 76149  1  0  0  0
 77150  1  0  0  0
 77151  1  0  0  0
 78 82  1  0  0  0
 78 83  1  0  0  0
 78 84  1  0  0  0
M  ISO  4   1 100  68 101  77 101  81 100
M  END
> <chiral flag>
0

> <version>
0

> <s_m_source_file>
/data/baiqing/PycharmProjects/Reinvent-master-3.2/result/LINK_invent/BTK/process_docking_weight1_custom_sum_contain_oxygen_bond_distance_aromatic_linkinvent_7_9_3/rearranged_h_0058.sdf

> <i_m_source_file_index>
23

> <r_mmod_Potential_Energy-OPLS-2005>
1582.24926757812

> <r_mmod_Stretch_Energy-OPLS-2005>
504.585754394531

> <r_mmod_Bend_Energy-OPLS-2005>
628.998107910156

> <r_mmod_Torsional_Energy-OPLS-2005>
260.993957519531

> <r_mmod_Improper_Torsional_Energy-OPLS-2005>
7.72241878509521

> <r_mmod_Van_der_Waal_Energy-OPLS-2005>
154.554580688477

> <r_mmod_Electrostatic_Energy-OPLS-2005>
-143.156112670898

> <r_mmod_Solvation_Energy-OPLS-2005>
-217.288650512695

> <b_mmod_Minimization_Converged-OPLS-2005>
0

> <r_mmod_RMS_Derivative-OPLS-2005>
5.09246826171875

$$$$
23
                    3D
 Structure written by MMmdl.
156164  0  0  1  0            999 V2000
  -30.5964  -14.9649   20.4533 C   0  0  0  0  0  0
  -30.4374  -12.6096   19.5132 C   0  0  0  0  0  0
  -29.5255  -12.5272   18.2660 C   0  0  0  0  0  0
  -28.0558  -12.3329   18.6747 C   0  0  0  0  0  0
  -27.6326  -13.2590   19.8418 C   0  0  2  0  0  0
  -28.6712  -13.2928   20.9838 C   0  0  0  0  0  0
  -25.2455  -13.8216   20.5724 C   0  0  0  0  0  0
  -24.1805  -13.0445   20.9201 C   0  0  0  0  0  0
  -24.6415  -11.6917   20.8704 C   0  0  0  0  0  0
  -23.9092  -10.4299   21.0373 C   0  0  0  0  0  0
  -24.3631   -9.4199   21.9150 C   0  0  0  0  0  0
  -23.6310   -8.2235   22.0722 C   0  0  0  0  0  0
  -22.4278   -8.0276   21.3522 C   0  0  0  0  0  0
  -21.9916   -9.0252   20.4622 C   0  0  0  0  0  0
  -22.7255  -10.2131   20.3044 C   0  0  0  0  0  0
  -21.6857   -6.0731   22.5262 C   0  0  0  0  0  0
  -21.4012   -6.5641   23.8193 C   0  0  0  0  0  0
  -21.3649   -5.6795   24.9167 C   0  0  0  0  0  0
  -21.6048   -4.3048   24.7235 C   0  0  0  0  0  0
  -21.8826   -3.8136   23.4340 C   0  0  0  0  0  0
  -21.9207   -4.6953   22.3386 C   0  0  0  0  0  0
  -22.7810  -13.5179   21.1918 C   0  0  0  0  0  0
  -22.1673   -4.2120   21.0960 F   0  0  0  0  0  0
  -21.5635   -3.4531   25.7756 F   0  0  0  0  0  0
  -29.9587  -13.7137   20.4048 N   0  0  0  0  0  0
  -26.2898  -12.9505   20.3228 N   0  0  0  0  0  0
  -25.9359  -11.6595   20.5697 N   0  0  0  0  0  0
  -22.0511  -12.8126   22.0450 N   0  0  0  0  0  0
  -25.4164  -15.1967   20.4188 N   0  0  0  0  0  0
  -31.7354  -14.9958   19.9890 O   0  0  0  0  0  0
  -21.6640   -6.8880   21.4219 O   0  0  0  0  0  0
  -22.3435  -14.5504   20.6786 O   0  0  0  0  0  0
  -24.6437  -31.8336   23.1819 C   0  0  0  0  0  0
  -25.9163  -32.4646   23.8229 C   0  0  1  0  0  0
  -27.2161  -27.0928   20.1403 C   0  0  0  0  0  0
  -25.5808  -33.8438   24.2123 N   0  0  0  0  0  0
  -23.4574  -30.4481   21.5257 C   0  0  2  0  0  0
  -24.9118  -28.8755   20.1046 C   0  0  0  0  0  0
  -22.7579  -29.4438   22.4771 C   0  0  0  0  0  0
  -18.0271  -28.1418   22.8455 C   0  0  0  0  0  0
  -24.1481  -36.7297   23.2622 C   0  0  0  0  0  0
  -26.0177  -30.6918   21.3928 C   0  0  0  0  0  0
  -26.0879  -29.3011   20.7312 C   0  0  0  0  0  0
  -27.2401  -28.4234   20.7352 C   0  0  0  0  0  0
  -26.0124  -26.7808   19.4692 C   0  0  0  0  0  0
  -24.8864  -27.6333   19.4573 C   0  0  0  0  0  0
  -23.6970  -29.7845   20.1432 C   0  0  0  0  0  0
  -25.4074  -36.3008   24.0335 C   0  0  1  0  0  0
  -20.5875  -28.3740   23.1208 C   0  0  2  0  0  0
  -20.6753  -26.9422   22.5395 C   0  0  0  0  0  0
  -19.5739  -26.6391   21.5184 C   0  0  0  0  0  0
  -18.1942  -26.7961   22.1606 C   0  0  0  0  0  0
  -19.1522  -28.8899   23.2843 C   0  0  0  0  0  0
  -18.9454  -30.1481   23.8894 C   0  0  0  0  0  0
  -17.6457  -30.6624   24.0549 C   0  0  0  0  0  0
  -25.9040  -34.9386   23.5109 C   0  0  0  0  0  0
  -16.5344  -29.9142   23.6325 C   0  0  0  0  0  0
  -16.7260  -28.6546   23.0346 C   0  0  0  0  0  0
  -26.4449  -31.6528   25.0694 C   0  0  0  0  0  0
  -25.3593  -31.3750   26.1387 C   0  0  0  0  0  0
  -27.0278  -30.2866   24.6367 C   0  0  0  0  0  0
  -27.6040  -32.4286   25.7421 C   0  0  0  0  0  0
  -27.5669  -37.1661   24.8362 C   0  0  0  0  0  0
  -21.4230  -29.3030   22.3554 N   0  0  0  0  0  0
  -26.4223  -37.3744   23.9529 N   0  0  0  0  0  0
  -24.7263  -31.0136   22.0897 N   0  0  0  0  0  0
  -23.4239  -28.7901   23.2858 O   0  0  0  0  0  0
  -28.2604  -26.0887   20.2261 O   0  0  0  0  0  0
  -26.5721  -34.8923   22.4761 O   0  0  0  0  0  0
  -23.5522  -32.1180   23.6993 O   0  0  0  0  0  0
  -31.0014  -21.1073   21.2033 C   0  0  0  0  0  0
  -31.7387  -19.1420   20.8135 C   0  0  0  0  0  0
  -30.3659  -19.0574   20.5727 C   0  0  0  0  0  0
  -29.7156  -16.3259   22.2930 C   0  0  0  0  0  0
  -29.7148  -17.6069   20.1450 C   0  0  0  0  0  0
  -28.9149  -23.2273   20.5063 C   0  0  0  0  0  0
  -28.7755  -21.5289   20.2210 C   0  0  0  0  0  0
  -28.0719  -24.5630   19.8767 C   0  0  0  0  0  0
  -32.8599  -18.1646   20.5114 C   0  0  0  0  0  0
  -32.0860  -20.3808   21.3355 N   0  0  0  0  0  0
  -29.9400  -20.5225   20.6229 N   0  0  0  0  0  0
  -29.9481  -16.1870   20.8512 N   0  0  0  0  0  0
  -32.6459  -17.5270   19.3608 F   0  0  0  0  0  0
  -34.0358  -18.7897   20.3652 F   0  0  0  0  0  0
  -33.0165  -17.2685   21.4853 F   0  0  0  0  0  0
  -31.4652  -12.7617   19.1857 H   0  0  0  0  0  0
  -30.4402  -11.6646   20.0541 H   0  0  0  0  0  0
  -29.8388  -11.6974   17.6325 H   0  0  0  0  0  0
  -29.6250  -13.4267   17.6592 H   0  0  0  0  0  0
  -27.9395  -11.2933   18.9740 H   0  0  0  0  0  0
  -27.3979  -12.4806   17.8154 H   0  0  0  0  0  0
  -27.5947  -14.2640   19.4202 H   0  0  0  0  0  0
  -28.7515  -12.3186   21.4652 H   0  0  0  0  0  0
  -28.3356  -13.9878   21.7496 H   0  0  0  0  0  0
  -25.2790   -9.5662   22.4702 H   0  0  0  0  0  0
  -24.0021   -7.4611   22.7441 H   0  0  0  0  0  0
  -21.0831   -8.8789   19.8918 H   0  0  0  0  0  0
  -22.3716  -10.9674   19.6145 H   0  0  0  0  0  0
  -21.1983   -7.6154   23.9684 H   0  0  0  0  0  0
  -21.1463   -6.0525   25.9063 H   0  0  0  0  0  0
  -22.0610   -2.7593   23.2861 H   0  0  0  0  0  0
  -22.4229  -11.9829   22.4854 H   0  0  0  0  0  0
  -21.1083  -13.1041   22.2711 H   0  0  0  0  0  0
  -24.6551  -15.8566   20.5467 H   0  0  0  0  0  0
  -26.2837  -15.6318   20.1327 H   0  0  0  0  0  0
  -26.7203  -32.5229   23.0930 H   0  0  0  0  0  0
  -24.9593  -33.9444   25.0018 H   0  0  0  0  0  0
  -22.7655  -31.2746   21.3577 H   0  0  0  0  0  0
  -23.3815  -35.9545   23.2988 H   0  0  0  0  0  0
  -24.3594  -36.9269   22.2096 H   0  0  0  0  0  0
  -23.7145  -37.6366   23.6854 H   0  0  0  0  0  0
  -26.1745  -31.4425   20.6177 H   0  0  0  0  0  0
  -26.8836  -30.7353   22.0399 H   0  0  0  0  0  0
  -28.1350  -28.7294   21.2582 H   0  0  0  0  0  0
  -25.8881  -25.8329   18.9707 H   0  0  0  0  0  0
  -23.9848  -27.3113   18.9501 H   0  0  0  0  0  0
  -23.8577  -30.5577   19.3901 H   0  0  0  0  0  0
  -22.8180  -29.2291   19.8169 H   0  0  0  0  0  0
  -25.1213  -36.1820   25.0801 H   0  0  0  0  0  0
  -20.9918  -28.3363   24.1348 H   0  0  0  0  0  0
  -20.5598  -26.2330   23.3601 H   0  0  0  0  0  0
  -21.6635  -26.7408   22.1208 H   0  0  0  0  0  0
  -19.6877  -25.6288   21.1287 H   0  0  0  0  0  0
  -19.6756  -27.3153   20.6694 H   0  0  0  0  0  0
  -17.4166  -26.6625   21.4073 H   0  0  0  0  0  0
  -18.0366  -26.0144   22.9035 H   0  0  0  0  0  0
  -19.7931  -30.7232   24.2350 H   0  0  0  0  0  0
  -17.5046  -31.6319   24.5145 H   0  0  0  0  0  0
  -15.5360  -30.3060   23.7710 H   0  0  0  0  0  0
  -15.8625  -28.0920   22.7094 H   0  0  0  0  0  0
  -24.5799  -30.7060   25.7700 H   0  0  0  0  0  0
  -24.8696  -32.2897   26.4692 H   0  0  0  0  0  0
  -25.7815  -30.8987   27.0243 H   0  0  0  0  0  0
  -26.2852  -29.6524   24.1476 H   0  0  0  0  0  0
  -27.3851  -29.7247   25.5022 H   0  0  0  0  0  0
  -27.8816  -30.3984   23.9693 H   0  0  0  0  0  0
  -27.2693  -33.3637   26.1908 H   0  0  0  0  0  0
  -28.3816  -32.6732   25.0183 H   0  0  0  0  0  0
  -28.0710  -31.8447   26.5334 H   0  0  0  0  0  0
  -28.2293  -38.0323   24.7925 H   0  0  0  0  0  0
  -28.1556  -36.2920   24.5517 H   0  0  0  0  0  0
  -27.2464  -37.0479   25.8726 H   0  0  0  0  0  0
  -20.9423  -29.8906   21.6851 H   0  0  0  0  0  0
  -26.0112  -38.2748   24.1859 H   0  0  0  0  0  0
  -31.0381  -22.1500   21.4731 H   0  0  0  0  0  0
  -28.8010  -16.8887   22.4930 H   0  0  0  0  0  0
  -30.5493  -16.8592   22.7527 H   0  0  0  0  0  0
  -29.6299  -15.3761   22.8271 H   0  0  0  0  0  0
  -29.9429  -17.4441   19.0904 H   0  0  0  0  0  0
  -28.6321  -17.7370   20.1722 H   0  0  0  0  0  0
  -29.9443  -23.4914   20.2835 H   0  0  0  0  0  0
  -28.8106  -23.3152   21.5871 H   0  0  0  0  0  0
  -28.5883  -21.3712   19.1568 H   0  0  0  0  0  0
  -27.8678  -21.1624   20.7073 H   0  0  0  0  0  0
  -27.0152  -24.3160   19.9713 H   0  0  0  0  0  0
  -28.2724  -24.5364   18.8026 H   0  0  0  0  0  0
  1 25  1  0  0  0
  1 30  2  0  0  0
  1 82  1  0  0  0
  2  3  1  0  0  0
  2 25  1  0  0  0
  2 86  1  0  0  0
  2 87  1  0  0  0
  3  4  1  0  0  0
  3 88  1  0  0  0
  3 89  1  0  0  0
  4  5  1  0  0  0
  4 90  1  0  0  0
  4 91  1  0  0  0
  5  6  1  0  0  0
  5 26  1  0  0  0
  5 92  1  0  0  0
  6 25  1  0  0  0
  6 93  1  0  0  0
  6 94  1  0  0  0
  7  8  2  0  0  0
  7 26  1  0  0  0
  7 29  1  0  0  0
  8  9  1  0  0  0
  8 22  1  0  0  0
  9 10  1  0  0  0
  9 27  2  0  0  0
 10 11  2  0  0  0
 10 15  1  0  0  0
 11 12  1  0  0  0
 11 95  1  0  0  0
 12 13  2  0  0  0
 12 96  1  0  0  0
 13 14  1  0  0  0
 13 31  1  0  0  0
 14 15  2  0  0  0
 14 97  1  0  0  0
 15 98  1  0  0  0
 16 17  2  0  0  0
 16 21  1  0  0  0
 16 31  1  0  0  0
 17 18  1  0  0  0
 17 99  1  0  0  0
 18 19  2  0  0  0
 18100  1  0  0  0
 19 20  1  0  0  0
 19 24  1  0  0  0
 20 21  2  0  0  0
 20101  1  0  0  0
 21 23  1  0  0  0
 22 28  1  0  0  0
 22 32  2  0  0  0
 26 27  1  0  0  0
 28102  1  0  0  0
 28103  1  0  0  0
 29104  1  0  0  0
 29105  1  0  0  0
 33 34  1  0  0  0
 33 66  1  0  0  0
 33 70  2  0  0  0
 34 36  1  0  0  0
 34 59  1  0  0  0
 34106  1  0  0  0
 35 44  2  0  0  0
 35 45  1  0  0  0
 35 68  1  0  0  0
 36 56  1  0  0  0
 36107  1  0  0  0
 37 39  1  0  0  0
 37 47  1  0  0  0
 37 66  1  0  0  0
 37108  1  0  0  0
 38 43  2  0  0  0
 38 46  1  0  0  0
 38 47  1  0  0  0
 39 64  1  0  0  0
 39 67  2  0  0  0
 40 52  1  0  0  0
 40 53  2  0  0  0
 40 58  1  0  0  0
 41109  1  0  0  0
 41110  1  0  0  0
 41111  1  0  0  0
 41 48  1  0  0  0
 42 43  1  0  0  0
 42 66  1  0  0  0
 42112  1  0  0  0
 42113  1  0  0  0
 43 44  1  0  0  0
 44114  1  0  0  0
 45 46  2  0  0  0
 45115  1  0  0  0
 46116  1  0  0  0
 47117  1  0  0  0
 47118  1  0  0  0
 48 56  1  0  0  0
 48 65  1  0  0  0
 48119  1  0  0  0
 49 50  1  0  0  0
 49 53  1  0  0  0
 49 64  1  0  0  0
 49120  1  0  0  0
 50 51  1  0  0  0
 50121  1  0  0  0
 50122  1  0  0  0
 51 52  1  0  0  0
 51123  1  0  0  0
 51124  1  0  0  0
 52125  1  0  0  0
 52126  1  0  0  0
 53 54  1  0  0  0
 54 55  2  0  0  0
 54127  1  0  0  0
 55 57  1  0  0  0
 55128  1  0  0  0
 56 69  2  0  0  0
 57 58  2  0  0  0
 57129  1  0  0  0
 58130  1  0  0  0
 59 60  1  0  0  0
 59 61  1  0  0  0
 59 62  1  0  0  0
 60131  1  0  0  0
 60132  1  0  0  0
 60133  1  0  0  0
 61134  1  0  0  0
 61135  1  0  0  0
 61136  1  0  0  0
 62137  1  0  0  0
 62138  1  0  0  0
 62139  1  0  0  0
 63 65  1  0  0  0
 63140  1  0  0  0
 63141  1  0  0  0
 63142  1  0  0  0
 64143  1  0  0  0
 65144  1  0  0  0
 68 78  1  0  0  0
 71 80  2  0  0  0
 71 81  1  0  0  0
 71145  1  0  0  0
 72 73  2  0  0  0
 72 79  1  0  0  0
 72 80  1  0  0  0
 73 75  1  0  0  0
 73 81  1  0  0  0
 74 82  1  0  0  0
 74146  1  0  0  0
 74147  1  0  0  0
 74148  1  0  0  0
 75 82  1  0  0  0
 75149  1  0  0  0
 75150  1  0  0  0
 76 77  1  0  0  0
 76 78  1  0  0  0
 76151  1  0  0  0
 76152  1  0  0  0
 77 81  1  0  0  0
 77153  1  0  0  0
 77154  1  0  0  0
 78155  1  0  0  0
 78156  1  0  0  0
 79 83  1  0  0  0
 79 84  1  0  0  0
 79 85  1  0  0  0
M  ISO  4   1 100  68 101  78 101  82 100
M  END
> <chiral flag>
0

> <version>
0

> <s_m_source_file>
/data/baiqing/PycharmProjects/Reinvent-master-3.2/result/LINK_invent/BTK/process_docking_weight1_custom_sum_contain_oxygen_bond_distance_aromatic_linkinvent_7_9_3/rearranged_h_0058.sdf

> <i_m_source_file_index>
24

> <r_mmod_Potential_Energy-OPLS-2005>
913.183166503906

> <r_mmod_Stretch_Energy-OPLS-2005>
343.289367675781

> <r_mmod_Bend_Energy-OPLS-2005>
337.014892578125

> <r_mmod_Torsional_Energy-OPLS-2005>
300.174743652344

> <r_mmod_Improper_Torsional_Energy-OPLS-2005>
5.32949352264404

> <r_mmod_Van_der_Waal_Energy-OPLS-2005>
113.744277954102

> <r_mmod_Electrostatic_Energy-OPLS-2005>
-192.222320556641

> <r_mmod_Solvation_Energy-OPLS-2005>
-209.185958862305

> <b_mmod_Minimization_Converged-OPLS-2005>
0

> <r_mmod_RMS_Derivative-OPLS-2005>
8.11328411102295

$$$$
24
                    3D
 Structure written by MMmdl.
163171  0  0  1  0            999 V2000
  -30.6950  -14.4235   20.6373 C   0  0  0  0  0  0
  -30.4177  -12.3111   19.3742 C   0  0  0  0  0  0
  -29.4697  -12.5238   18.1747 C   0  0  0  0  0  0
  -27.9897  -12.3919   18.5944 C   0  0  0  0  0  0
  -27.6583  -13.1957   19.8804 C   0  0  2  0  0  0
  -28.7035  -12.9122   20.9791 C   0  0  0  0  0  0
  -25.2611  -13.8129   20.5751 C   0  0  0  0  0  0
  -24.1843  -13.0430   20.9227 C   0  0  0  0  0  0
  -24.6354  -11.6881   20.8772 C   0  0  0  0  0  0
  -23.9018  -10.4286   21.0401 C   0  0  0  0  0  0
  -24.3581   -9.4233   21.9191 C   0  0  0  0  0  0
  -23.6281   -8.2255   22.0768 C   0  0  0  0  0  0
  -22.4261   -8.0276   21.3569 C   0  0  0  0  0  0
  -21.9875   -9.0238   20.4669 C   0  0  0  0  0  0
  -22.7182  -10.2132   20.3076 C   0  0  0  0  0  0
  -21.6864   -6.0735   22.5302 C   0  0  0  0  0  0
  -21.4004   -6.5630   23.8240 C   0  0  0  0  0  0
  -21.3645   -5.6779   24.9199 C   0  0  0  0  0  0
  -21.6045   -4.3041   24.7236 C   0  0  0  0  0  0
  -21.8823   -3.8140   23.4351 C   0  0  0  0  0  0
  -21.9198   -4.6961   22.3415 C   0  0  0  0  0  0
  -22.7889  -13.5318   21.1798 C   0  0  0  0  0  0
  -22.1660   -4.2152   21.0986 F   0  0  0  0  0  0
  -21.5617   -3.4513   25.7734 F   0  0  0  0  0  0
  -30.0312  -13.2518   20.4342 N   0  0  0  0  0  0
  -26.3013  -12.9279   20.3433 N   0  0  0  0  0  0
  -25.9298  -11.6458   20.5839 N   0  0  0  0  0  0
  -22.0413  -12.8422   22.0313 N   0  0  0  0  0  0
  -25.4354  -15.1836   20.4120 N   0  0  0  0  0  0
  -31.7566  -14.7074   20.0766 O   0  0  0  0  0  0
  -21.6655   -6.8852   21.4254 O   0  0  0  0  0  0
  -22.3661  -14.5627   20.6571 O   0  0  0  0  0  0
  -24.6136  -31.8687   23.2087 C   0  0  0  0  0  0
  -25.9032  -32.4825   23.8391 C   0  0  1  0  0  0
  -27.2332  -27.4142   20.1168 C   0  0  0  0  0  0
  -25.5911  -33.8631   24.2314 N   0  0  0  0  0  0
  -23.4032  -30.4919   21.5481 C   0  0  2  0  0  0
  -24.8505  -28.9461   20.1245 C   0  0  0  0  0  0
  -22.7409  -29.4662   22.4990 C   0  0  0  0  0  0
  -18.0268  -28.1392   22.8507 C   0  0  0  0  0  0
  -24.1482  -36.7342   23.2640 C   0  0  0  0  0  0
  -25.9379  -30.8227   21.3722 C   0  0  0  0  0  0
  -26.0118  -29.4562   20.7183 C   0  0  0  0  0  0
  -27.2075  -28.7014   20.7041 C   0  0  0  0  0  0
  -26.0558  -26.9179   19.5182 C   0  0  0  0  0  0
  -24.8668  -27.6775   19.5204 C   0  0  0  0  0  0
  -23.6130  -29.8171   20.1663 C   0  0  0  0  0  0
  -25.4107  -36.3126   24.0321 C   0  0  1  0  0  0
  -20.5852  -28.3663   23.1324 C   0  0  2  0  0  0
  -20.6767  -26.9405   22.5415 C   0  0  0  0  0  0
  -19.5732  -26.6378   21.5232 C   0  0  0  0  0  0
  -18.1902  -26.7941   22.1617 C   0  0  0  0  0  0
  -19.1521  -28.8845   23.2908 C   0  0  0  0  0  0
  -18.9450  -30.1471   23.8889 C   0  0  0  0  0  0
  -17.6456  -30.6597   24.0575 C   0  0  0  0  0  0
  -25.9037  -34.9493   23.5115 C   0  0  0  0  0  0
  -16.5346  -29.9091   23.6366 C   0  0  0  0  0  0
  -16.7252  -28.6512   23.0366 C   0  0  0  0  0  0
  -26.4470  -31.6632   25.0748 C   0  0  0  0  0  0
  -25.3738  -31.3753   26.1501 C   0  0  0  0  0  0
  -27.0365  -30.3070   24.6222 C   0  0  0  0  0  0
  -27.6039  -32.4396   25.7492 C   0  0  0  0  0  0
  -27.5588  -37.1829   24.8453 C   0  0  0  0  0  0
  -21.4125  -29.3031   22.3723 N   0  0  0  0  0  0
  -26.4305  -37.3813   23.9385 N   0  0  0  0  0  0
  -24.6685  -31.0790   22.0980 N   0  0  0  0  0  0
  -23.4187  -28.8203   23.3014 O   0  0  0  0  0  0
  -28.4080  -26.6879   20.0606 O   0  0  0  0  0  0
  -26.5593  -34.8939   22.4676 O   0  0  0  0  0  0
  -23.5334  -32.1430   23.7482 O   0  0  0  0  0  0
  -29.6866  -23.3804   20.3930 C   0  0  0  0  0  0
  -27.6889  -24.8031   21.5277 C   0  0  0  0  0  0
  -28.9113  -22.8181   21.4389 C   0  0  0  0  0  0
  -28.4845  -25.3716   20.4983 C   0  0  0  0  0  0
  -30.2770  -21.7613   23.2592 C   0  0  0  0  0  0
  -31.9075  -16.6487   22.3836 C   0  0  0  0  0  0
  -29.6054  -16.5374   23.4296 C   0  0  0  0  0  0
  -29.7577  -20.3159   21.1851 C   0  0  0  0  0  0
  -29.9264  -17.7605   21.2132 C   0  0  0  0  0  0
  -29.2766  -21.4761   22.1245 C   0  0  2  0  0  0
  -30.3907  -16.5521   22.0976 C   0  0  0  0  0  0
  -27.9004  -23.5441   21.9966 N   0  0  0  0  0  0
  -29.4819  -24.6436   19.9275 N   0  0  0  0  0  0
  -30.0599  -15.2508   21.4862 N   0  0  0  0  0  0
  -30.0131  -19.0578   21.9450 N   0  3  0  0  0  0
  -28.1798  -20.9952   22.7218 F   0  0  0  0  0  0
  -31.4538  -12.4432   19.0581 H   0  0  0  0  0  0
  -30.3425  -11.2863   19.7403 H   0  0  0  0  0  0
  -29.6970  -11.8045   17.3886 H   0  0  0  0  0  0
  -29.6339  -13.5113   17.7413 H   0  0  0  0  0  0
  -27.7725  -11.3349   18.7477 H   0  0  0  0  0  0
  -27.3466  -12.7128   17.7754 H   0  0  0  0  0  0
  -27.7142  -14.2564   19.6327 H   0  0  0  0  0  0
  -28.6860  -11.8550   21.2443 H   0  0  0  0  0  0
  -28.4525  -13.4365   21.9028 H   0  0  0  0  0  0
  -25.2687   -9.5761   22.4828 H   0  0  0  0  0  0
  -24.0004   -7.4650   22.7499 H   0  0  0  0  0  0
  -21.0799   -8.8723   19.8979 H   0  0  0  0  0  0
  -22.3570  -10.9683   19.6223 H   0  0  0  0  0  0
  -21.1985   -7.6139   23.9745 H   0  0  0  0  0  0
  -21.1468   -6.0503   25.9109 H   0  0  0  0  0  0
  -22.0615   -2.7612   23.2855 H   0  0  0  0  0  0
  -22.3936  -12.0161   22.4904 H   0  0  0  0  0  0
  -21.1034  -13.1598   22.2337 H   0  0  0  0  0  0
  -24.6538  -15.8247   20.4960 H   0  0  0  0  0  0
  -26.2726  -15.6158   20.0415 H   0  0  0  0  0  0
  -26.7100  -32.5479   23.1143 H   0  0  0  0  0  0
  -25.0163  -33.9837   25.0521 H   0  0  0  0  0  0
  -22.6895  -31.3069   21.4049 H   0  0  0  0  0  0
  -23.3766  -35.9663   23.3303 H   0  0  0  0  0  0
  -24.3595  -36.8966   22.2066 H   0  0  0  0  0  0
  -23.7219  -37.6533   23.6671 H   0  0  0  0  0  0
  -26.0774  -31.5931   20.6163 H   0  0  0  0  0  0
  -26.8152  -30.8587   22.0060 H   0  0  0  0  0  0
  -28.1111  -29.1044   21.1409 H   0  0  0  0  0  0
  -26.0562  -25.9473   19.0435 H   0  0  0  0  0  0
  -23.9697  -27.2842   19.0581 H   0  0  0  0  0  0
  -23.7185  -30.5872   19.4022 H   0  0  0  0  0  0
  -22.7363  -29.2356   19.8744 H   0  0  0  0  0  0
  -25.1290  -36.2016   25.0823 H   0  0  0  0  0  0
  -20.9957  -28.3239   24.1436 H   0  0  0  0  0  0
  -20.5704  -26.2291   23.3611 H   0  0  0  0  0  0
  -21.6627  -26.7465   22.1174 H   0  0  0  0  0  0
  -19.6893  -25.6277   21.1271 H   0  0  0  0  0  0
  -19.6682  -27.3189   20.6761 H   0  0  0  0  0  0
  -17.4201  -26.6750   21.3983 H   0  0  0  0  0  0
  -18.0244  -26.0067   22.8975 H   0  0  0  0  0  0
  -19.7933  -30.7308   24.2215 H   0  0  0  0  0  0
  -17.5013  -31.6263   24.5186 H   0  0  0  0  0  0
  -15.5341  -30.2986   23.7717 H   0  0  0  0  0  0
  -15.8650  -28.0838   22.7080 H   0  0  0  0  0  0
  -24.5842  -30.7197   25.7806 H   0  0  0  0  0  0
  -24.9031  -32.2942   26.5017 H   0  0  0  0  0  0
  -25.8069  -30.8821   27.0214 H   0  0  0  0  0  0
  -26.2964  -29.6764   24.1294 H   0  0  0  0  0  0
  -27.4139  -29.7376   25.4726 H   0  0  0  0  0  0
  -27.8773  -30.4382   23.9408 H   0  0  0  0  0  0
  -27.2643  -33.3670   26.2110 H   0  0  0  0  0  0
  -28.3811  -32.7020   25.0303 H   0  0  0  0  0  0
  -28.0783  -31.8539   26.5376 H   0  0  0  0  0  0
  -28.2599  -38.0134   24.7539 H   0  0  0  0  0  0
  -28.1094  -36.2679   24.6231 H   0  0  0  0  0  0
  -27.2333  -37.1426   25.8864 H   0  0  0  0  0  0
  -20.9309  -29.8756   21.6935 H   0  0  0  0  0  0
  -26.0198  -38.2897   24.1390 H   0  0  0  0  0  0
  -30.5178  -22.8395   19.9662 H   0  0  0  0  0  0
  -26.9057  -25.3742   22.0072 H   0  0  0  0  0  0
  -31.2278  -22.1179   22.8655 H   0  0  0  0  0  0
  -30.4685  -20.8862   23.8801 H   0  0  0  0  0  0
  -29.8944  -22.5354   23.9231 H   0  0  0  0  0  0
  -32.1430  -17.4432   23.0895 H   0  0  0  0  0  0
  -32.4702  -16.8632   21.4711 H   0  0  0  0  0  0
  -32.3008  -15.7200   22.8029 H   0  0  0  0  0  0
  -29.8277  -17.3943   24.0662 H   0  0  0  0  0  0
  -29.8376  -15.6511   24.0211 H   0  0  0  0  0  0
  -28.5276  -16.5283   23.2593 H   0  0  0  0  0  0
  -30.6650  -20.5901   20.6438 H   0  0  0  0  0  0
  -28.9917  -20.1289   20.4322 H   0  0  0  0  0  0
  -28.8990  -17.6052   20.8760 H   0  0  0  0  0  0
  -30.5408  -17.8296   20.3138 H   0  0  0  0  0  0
  -29.2178  -14.8286   21.8474 H   0  0  0  0  0  0
  -29.3246  -19.0405   22.6834 H   0  0  0  0  0  0
  -30.9234  -19.1154   22.3737 H   0  0  0  0  0  0
  1 25  1  0  0  0
  1 30  2  0  0  0
  1 84  1  0  0  0
  2  3  1  0  0  0
  2 25  1  0  0  0
  2 87  1  0  0  0
  2 88  1  0  0  0
  3  4  1  0  0  0
  3 89  1  0  0  0
  3 90  1  0  0  0
  4  5  1  0  0  0
  4 91  1  0  0  0
  4 92  1  0  0  0
  5  6  1  0  0  0
  5 26  1  0  0  0
  5 93  1  0  0  0
  6 25  1  0  0  0
  6 94  1  0  0  0
  6 95  1  0  0  0
  7  8  2  0  0  0
  7 26  1  0  0  0
  7 29  1  0  0  0
  8  9  1  0  0  0
  8 22  1  0  0  0
  9 10  1  0  0  0
  9 27  2  0  0  0
 10 11  2  0  0  0
 10 15  1  0  0  0
 11 12  1  0  0  0
 11 96  1  0  0  0
 12 13  2  0  0  0
 12 97  1  0  0  0
 13 14  1  0  0  0
 13 31  1  0  0  0
 14 15  2  0  0  0
 14 98  1  0  0  0
 15 99  1  0  0  0
 16 17  2  0  0  0
 16 21  1  0  0  0
 16 31  1  0  0  0
 17 18  1  0  0  0
 17100  1  0  0  0
 18 19  2  0  0  0
 18101  1  0  0  0
 19 20  1  0  0  0
 19 24  1  0  0  0
 20 21  2  0  0  0
 20102  1  0  0  0
 21 23  1  0  0  0
 22 28  1  0  0  0
 22 32  2  0  0  0
 26 27  1  0  0  0
 28103  1  0  0  0
 28104  1  0  0  0
 29105  1  0  0  0
 29106  1  0  0  0
 33 34  1  0  0  0
 33 66  1  0  0  0
 33 70  2  0  0  0
 34 36  1  0  0  0
 34 59  1  0  0  0
 34107  1  0  0  0
 35 44  2  0  0  0
 35 45  1  0  0  0
 35 68  1  0  0  0
 36 56  1  0  0  0
 36108  1  0  0  0
 37 39  1  0  0  0
 37 47  1  0  0  0
 37 66  1  0  0  0
 37109  1  0  0  0
 38 43  2  0  0  0
 38 46  1  0  0  0
 38 47  1  0  0  0
 39 64  1  0  0  0
 39 67  2  0  0  0
 40 52  1  0  0  0
 40 53  2  0  0  0
 40 58  1  0  0  0
 41110  1  0  0  0
 41111  1  0  0  0
 41112  1  0  0  0
 41 48  1  0  0  0
 42 43  1  0  0  0
 42 66  1  0  0  0
 42113  1  0  0  0
 42114  1  0  0  0
 43 44  1  0  0  0
 44115  1  0  0  0
 45 46  2  0  0  0
 45116  1  0  0  0
 46117  1  0  0  0
 47118  1  0  0  0
 47119  1  0  0  0
 48 56  1  0  0  0
 48 65  1  0  0  0
 48120  1  0  0  0
 49 50  1  0  0  0
 49 53  1  0  0  0
 49 64  1  0  0  0
 49121  1  0  0  0
 50 51  1  0  0  0
 50122  1  0  0  0
 50123  1  0  0  0
 51 52  1  0  0  0
 51124  1  0  0  0
 51125  1  0  0  0
 52126  1  0  0  0
 52127  1  0  0  0
 53 54  1  0  0  0
 54 55  2  0  0  0
 54128  1  0  0  0
 55 57  1  0  0  0
 55129  1  0  0  0
 56 69  2  0  0  0
 57 58  2  0  0  0
 57130  1  0  0  0
 58131  1  0  0  0
 59 60  1  0  0  0
 59 61  1  0  0  0
 59 62  1  0  0  0
 60132  1  0  0  0
 60133  1  0  0  0
 60134  1  0  0  0
 61135  1  0  0  0
 61136  1  0  0  0
 61137  1  0  0  0
 62138  1  0  0  0
 62139  1  0  0  0
 62140  1  0  0  0
 63 65  1  0  0  0
 63141  1  0  0  0
 63142  1  0  0  0
 63143  1  0  0  0
 64144  1  0  0  0
 65145  1  0  0  0
 68 74  1  0  0  0
 71 73  2  0  0  0
 71 83  1  0  0  0
 71146  1  0  0  0
 72 74  1  0  0  0
 72 82  2  0  0  0
 72147  1  0  0  0
 73 80  1  0  0  0
 73 82  1  0  0  0
 74 83  2  0  0  0
 75148  1  0  0  0
 75149  1  0  0  0
 75150  1  0  0  0
 75 80  1  0  0  0
 76151  1  0  0  0
 76152  1  0  0  0
 76153  1  0  0  0
 76 81  1  0  0  0
 77 81  1  0  0  0
 77154  1  0  0  0
 77155  1  0  0  0
 77156  1  0  0  0
 78 80  1  0  0  0
 78 85  1  0  0  0
 78157  1  0  0  0
 78158  1  0  0  0
 79 81  1  0  0  0
 79 85  1  0  0  0
 79159  1  0  0  0
 79160  1  0  0  0
 80 86  1  0  0  0
 81 84  1  0  0  0
 84161  1  0  0  0
 85162  1  0  0  0
 85163  1  0  0  0
M  CHG  1  85   1
M  ISO  4   1 100  68 101  74 101  84 100
M  END
> <chiral flag>
0

> <version>
0

> <s_m_source_file>
/data/baiqing/PycharmProjects/Reinvent-master-3.2/result/LINK_invent/BTK/process_docking_weight1_custom_sum_contain_oxygen_bond_distance_aromatic_linkinvent_7_9_3/rearranged_h_0058.sdf

> <i_m_source_file_index>
25

> <r_mmod_Potential_Energy-OPLS-2005>
-184.414581298828

> <r_mmod_Stretch_Energy-OPLS-2005>
46.2408981323242

> <r_mmod_Bend_Energy-OPLS-2005>
118.520904541016

> <r_mmod_Torsional_Energy-OPLS-2005>
217.494018554688

> <r_mmod_Improper_Torsional_Energy-OPLS-2005>
3.34129166603088

> <r_mmod_Van_der_Waal_Energy-OPLS-2005>
156.591430664062

> <r_mmod_Electrostatic_Energy-OPLS-2005>
-258.210815429688

> <r_mmod_Solvation_Energy-OPLS-2005>
-479.068145751953

> <b_mmod_Minimization_Converged-OPLS-2005>
0

> <r_mmod_RMS_Derivative-OPLS-2005>
5.21301507949829

$$$$
25
                    3D
 Structure written by MMmdl.
154162  0  0  1  0            999 V2000
  -30.3941  -15.3911   20.3583 C   0  0  0  0  0  0
  -30.4389  -12.9107   19.5020 C   0  0  0  0  0  0
  -29.5386  -12.5935   18.2816 C   0  0  0  0  0  0
  -28.0952  -12.2935   18.7269 C   0  0  0  0  0  0
  -27.6033  -13.2825   19.8118 C   0  0  2  0  0  0
  -28.6385  -13.5234   20.9293 C   0  0  0  0  0  0
  -25.2390  -13.8238   20.5776 C   0  0  0  0  0  0
  -24.1735  -13.0421   20.9263 C   0  0  0  0  0  0
  -24.6408  -11.6928   20.8764 C   0  0  0  0  0  0
  -23.9099  -10.4295   21.0418 C   0  0  0  0  0  0
  -24.3637   -9.4210   21.9200 C   0  0  0  0  0  0
  -23.6310   -8.2244   22.0756 C   0  0  0  0  0  0
  -22.4287   -8.0276   21.3557 C   0  0  0  0  0  0
  -21.9931   -9.0255   20.4663 C   0  0  0  0  0  0
  -22.7266  -10.2138   20.3082 C   0  0  0  0  0  0
  -21.6868   -6.0740   22.5282 C   0  0  0  0  0  0
  -21.4016   -6.5637   23.8211 C   0  0  0  0  0  0
  -21.3664   -5.6785   24.9172 C   0  0  0  0  0  0
  -21.6050   -4.3051   24.7229 C   0  0  0  0  0  0
  -21.8814   -3.8148   23.4346 C   0  0  0  0  0  0
  -21.9194   -4.6966   22.3403 C   0  0  0  0  0  0
  -22.7769  -13.5175   21.1910 C   0  0  0  0  0  0
  -22.1680   -4.2153   21.0985 F   0  0  0  0  0  0
  -21.5642   -3.4536   25.7744 F   0  0  0  0  0  0
  -29.8382  -14.0720   20.2674 N   0  0  0  0  0  0
  -26.2796  -12.9524   20.3209 N   0  0  0  0  0  0
  -25.9335  -11.6630   20.5693 N   0  0  0  0  0  0
  -22.0442  -12.8153   22.0460 N   0  0  0  0  0  0
  -25.4006  -15.1970   20.4215 N   0  0  0  0  0  0
  -31.6330  -15.3503   20.2737 O   0  0  0  0  0  0
  -21.6650   -6.8874   21.4246 O   0  0  0  0  0  0
  -22.3467  -14.5489   20.6767 O   0  0  0  0  0  0
  -24.6704  -31.8164   23.1651 C   0  0  0  0  0  0
  -25.9344  -32.4544   23.8133 C   0  0  1  0  0  0
  -27.2123  -26.8446   20.1895 C   0  0  0  0  0  0
  -25.5980  -33.8364   24.2051 N   0  0  0  0  0  0
  -23.4883  -30.4265   21.5166 C   0  0  2  0  0  0
  -24.9401  -28.7961   20.1197 C   0  0  0  0  0  0
  -22.7697  -29.4414   22.4762 C   0  0  0  0  0  0
  -18.0336  -28.1407   22.8470 C   0  0  0  0  0  0
  -24.1502  -36.7197   23.2646 C   0  0  0  0  0  0
  -26.0614  -30.5937   21.4073 C   0  0  0  0  0  0
  -26.1280  -29.1743   20.7566 C   0  0  0  0  0  0
  -27.2595  -28.2254   20.7605 C   0  0  0  0  0  0
  -25.9913  -26.6398   19.5078 C   0  0  0  0  0  0
  -24.9020  -27.5506   19.4734 C   0  0  0  0  0  0
  -23.7324  -29.7366   20.1468 C   0  0  0  0  0  0
  -25.4150  -36.2952   24.0282 C   0  0  1  0  0  0
  -20.5976  -28.3764   23.1173 C   0  0  2  0  0  0
  -20.6816  -26.9436   22.5401 C   0  0  0  0  0  0
  -19.5784  -26.6370   21.5222 C   0  0  0  0  0  0
  -18.1972  -26.7942   22.1627 C   0  0  0  0  0  0
  -19.1605  -28.8911   23.2804 C   0  0  0  0  0  0
  -18.9497  -30.1490   23.8840 C   0  0  0  0  0  0
  -17.6493  -30.6591   24.0567 C   0  0  0  0  0  0
  -25.9113  -34.9323   23.5009 C   0  0  0  0  0  0
  -16.5388  -29.9082   23.6340 C   0  0  0  0  0  0
  -16.7326  -28.6503   23.0364 C   0  0  0  0  0  0
  -26.4571  -31.6512   25.0695 C   0  0  0  0  0  0
  -25.3676  -31.3778   26.1344 C   0  0  0  0  0  0
  -27.0463  -30.2858   24.6481 C   0  0  0  0  0  0
  -27.6059  -32.4330   25.7489 C   0  0  0  0  0  0
  -27.5576  -37.1772   24.8474 C   0  0  0  0  0  0
  -21.4371  -29.3051   22.3509 N   0  0  0  0  0  0
  -26.4307  -37.3676   23.9383 N   0  0  0  0  0  0
  -24.7616  -30.9743   22.0827 N   0  0  0  0  0  0
  -23.4225  -28.7986   23.3016 O   0  0  0  0  0  0
  -28.2042  -25.7004   20.1851 O   0  0  0  0  0  0
  -26.5733  -34.8882   22.4614 O   0  0  0  0  0  0
  -23.5743  -32.1176   23.6665 O   0  0  0  0  0  0
  -28.9618  -22.3477   18.5949 C   0  0  0  0  0  0
  -29.3478  -21.0970   18.0468 C   0  0  0  0  0  0
  -28.6605  -22.5025   19.9588 C   0  0  0  0  0  0
  -29.2208  -19.8863   20.0467 C   0  0  0  0  0  0
  -29.6742  -20.9875   16.5717 C   0  0  0  0  0  0
  -31.2036  -18.5619   21.1282 C   0  0  0  0  0  0
  -28.9294  -18.3391   22.1153 C   0  0  0  0  0  0
  -27.9295  -24.0574   20.4651 C   0  0  0  0  0  0
  -29.7166  -18.3401   20.7926 C   0  0  0  0  0  0
  -29.4594  -19.9313   18.7399 N   0  0  0  0  0  0
  -28.8384  -21.1818   20.6364 N   0  0  0  0  0  0
  -29.6259  -16.6911   20.3447 N   0  0  0  0  0  0
  -31.4457  -13.1446   19.1558 H   0  0  0  0  0  0
  -30.5506  -12.0365   20.1448 H   0  0  0  0  0  0
  -29.9400  -11.7521   17.7159 H   0  0  0  0  0  0
  -29.5387  -13.4490   17.6043 H   0  0  0  0  0  0
  -28.0797  -11.2772   19.1251 H   0  0  0  0  0  0
  -27.4183  -12.2961   17.8713 H   0  0  0  0  0  0
  -27.4938  -14.2304   19.2827 H   0  0  0  0  0  0
  -28.8486  -12.6130   21.4932 H   0  0  0  0  0  0
  -28.2585  -14.2528   21.6481 H   0  0  0  0  0  0
  -25.2798   -9.5680   22.4757 H   0  0  0  0  0  0
  -24.0046   -7.4620   22.7448 H   0  0  0  0  0  0
  -21.0882   -8.8757   19.8943 H   0  0  0  0  0  0
  -22.3728  -10.9669   19.6186 H   0  0  0  0  0  0
  -21.2001   -7.6147   23.9710 H   0  0  0  0  0  0
  -21.1512   -6.0530   25.9074 H   0  0  0  0  0  0
  -22.0589   -2.7613   23.2841 H   0  0  0  0  0  0
  -22.4106  -11.9844   22.4868 H   0  0  0  0  0  0
  -21.1059  -13.1158   22.2661 H   0  0  0  0  0  0
  -24.6260  -15.8426   20.5272 H   0  0  0  0  0  0
  -26.2361  -15.6395   20.0644 H   0  0  0  0  0  0
  -26.7430  -32.5071   23.0847 H   0  0  0  0  0  0
  -25.0045  -33.9420   25.0150 H   0  0  0  0  0  0
  -22.8059  -31.2598   21.3395 H   0  0  0  0  0  0
  -23.3751  -35.9542   23.3317 H   0  0  0  0  0  0
  -24.3553  -36.8838   22.2058 H   0  0  0  0  0  0
  -23.7298  -37.6402   23.6704 H   0  0  0  0  0  0
  -26.2533  -31.3248   20.6217 H   0  0  0  0  0  0
  -26.9181  -30.6588   22.0655 H   0  0  0  0  0  0
  -28.1622  -28.5197   21.2753 H   0  0  0  0  0  0
  -25.8538  -25.6955   19.0001 H   0  0  0  0  0  0
  -24.0049  -27.2552   18.9484 H   0  0  0  0  0  0
  -23.9011  -30.5023   19.3882 H   0  0  0  0  0  0
  -22.8391  -29.1978   19.8246 H   0  0  0  0  0  0
  -25.1361  -36.1752   25.0767 H   0  0  0  0  0  0
  -21.0062  -28.3383   24.1300 H   0  0  0  0  0  0
  -20.5705  -26.2382   23.3648 H   0  0  0  0  0  0
  -21.6675  -26.7417   22.1203 H   0  0  0  0  0  0
  -19.6938  -25.6270   21.1278 H   0  0  0  0  0  0
  -19.6709  -27.3156   20.6731 H   0  0  0  0  0  0
  -17.4240  -26.6691   21.4031 H   0  0  0  0  0  0
  -18.0355  -26.0092   22.9026 H   0  0  0  0  0  0
  -19.7968  -30.7323   24.2183 H   0  0  0  0  0  0
  -17.5046  -31.6265   24.5172 H   0  0  0  0  0  0
  -15.5393  -30.2969   23.7675 H   0  0  0  0  0  0
  -15.8733  -28.0803   22.7109 H   0  0  0  0  0  0
  -24.5870  -30.7123   25.7647 H   0  0  0  0  0  0
  -24.8847  -32.2978   26.4649 H   0  0  0  0  0  0
  -25.7882  -30.9022   27.0215 H   0  0  0  0  0  0
  -26.3141  -29.6514   24.1487 H   0  0  0  0  0  0
  -27.3961  -29.7255   25.5160 H   0  0  0  0  0  0
  -27.9100  -30.3993   23.9928 H   0  0  0  0  0  0
  -27.2639  -33.3681   26.1932 H   0  0  0  0  0  0
  -28.3933  -32.6816   25.0364 H   0  0  0  0  0  0
  -28.0670  -31.8559   26.5514 H   0  0  0  0  0  0
  -28.2619  -38.0042   24.7462 H   0  0  0  0  0  0
  -28.1055  -36.2568   24.6397 H   0  0  0  0  0  0
  -27.2270  -37.1534   25.8872 H   0  0  0  0  0  0
  -20.9631  -29.8728   21.6626 H   0  0  0  0  0  0
  -26.0153  -38.2742   24.1341 H   0  0  0  0  0  0
  -28.8501  -23.2069   17.9441 H   0  0  0  0  0  0
  -28.9944  -20.2926   16.0798 H   0  0  0  0  0  0
  -30.6932  -20.6252   16.4380 H   0  0  0  0  0  0
  -29.5894  -21.9498   16.0656 H   0  0  0  0  0  0
  -31.8063  -18.5948   20.2205 H   0  0  0  0  0  0
  -31.6007  -17.7771   21.7730 H   0  0  0  0  0  0
  -31.3529  -19.5104   21.6464 H   0  0  0  0  0  0
  -29.2001  -17.4987   22.7567 H   0  0  0  0  0  0
  -27.8556  -18.2846   21.9262 H   0  0  0  0  0  0
  -29.1048  -19.2516   22.6870 H   0  0  0  0  0  0
  -27.8807  -23.9819   21.5511 H   0  0  0  0  0  0
  -26.8921  -23.9219   20.1577 H   0  0  0  0  0  0
  -28.6618  -16.4839   20.1396 H   0  0  0  0  0  0
  1 25  1  0  0  0
  1 30  2  0  0  0
  1 82  1  0  0  0
  2  3  1  0  0  0
  2 25  1  0  0  0
  2 83  1  0  0  0
  2 84  1  0  0  0
  3  4  1  0  0  0
  3 85  1  0  0  0
  3 86  1  0  0  0
  4  5  1  0  0  0
  4 87  1  0  0  0
  4 88  1  0  0  0
  5  6  1  0  0  0
  5 26  1  0  0  0
  5 89  1  0  0  0
  6 25  1  0  0  0
  6 90  1  0  0  0
  6 91  1  0  0  0
  7  8  2  0  0  0
  7 26  1  0  0  0
  7 29  1  0  0  0
  8  9  1  0  0  0
  8 22  1  0  0  0
  9 10  1  0  0  0
  9 27  2  0  0  0
 10 11  2  0  0  0
 10 15  1  0  0  0
 11 12  1  0  0  0
 11 92  1  0  0  0
 12 13  2  0  0  0
 12 93  1  0  0  0
 13 14  1  0  0  0
 13 31  1  0  0  0
 14 15  2  0  0  0
 14 94  1  0  0  0
 15 95  1  0  0  0
 16 17  2  0  0  0
 16 21  1  0  0  0
 16 31  1  0  0  0
 17 18  1  0  0  0
 17 96  1  0  0  0
 18 19  2  0  0  0
 18 97  1  0  0  0
 19 20  1  0  0  0
 19 24  1  0  0  0
 20 21  2  0  0  0
 20 98  1  0  0  0
 21 23  1  0  0  0
 22 28  1  0  0  0
 22 32  2  0  0  0
 26 27  1  0  0  0
 28 99  1  0  0  0
 28100  1  0  0  0
 29101  1  0  0  0
 29102  1  0  0  0
 33 34  1  0  0  0
 33 66  1  0  0  0
 33 70  2  0  0  0
 34 36  1  0  0  0
 34 59  1  0  0  0
 34103  1  0  0  0
 35 44  2  0  0  0
 35 45  1  0  0  0
 35 68  1  0  0  0
 36 56  1  0  0  0
 36104  1  0  0  0
 37 39  1  0  0  0
 37 47  1  0  0  0
 37 66  1  0  0  0
 37105  1  0  0  0
 38 43  2  0  0  0
 38 46  1  0  0  0
 38 47  1  0  0  0
 39 64  1  0  0  0
 39 67  2  0  0  0
 40 52  1  0  0  0
 40 53  2  0  0  0
 40 58  1  0  0  0
 41106  1  0  0  0
 41107  1  0  0  0
 41108  1  0  0  0
 41 48  1  0  0  0
 42 43  1  0  0  0
 42 66  1  0  0  0
 42109  1  0  0  0
 42110  1  0  0  0
 43 44  1  0  0  0
 44111  1  0  0  0
 45 46  2  0  0  0
 45112  1  0  0  0
 46113  1  0  0  0
 47114  1  0  0  0
 47115  1  0  0  0
 48 56  1  0  0  0
 48 65  1  0  0  0
 48116  1  0  0  0
 49 50  1  0  0  0
 49 53  1  0  0  0
 49 64  1  0  0  0
 49117  1  0  0  0
 50 51  1  0  0  0
 50118  1  0  0  0
 50119  1  0  0  0
 51 52  1  0  0  0
 51120  1  0  0  0
 51121  1  0  0  0
 52122  1  0  0  0
 52123  1  0  0  0
 53 54  1  0  0  0
 54 55  2  0  0  0
 54124  1  0  0  0
 55 57  1  0  0  0
 55125  1  0  0  0
 56 69  2  0  0  0
 57 58  2  0  0  0
 57126  1  0  0  0
 58127  1  0  0  0
 59 60  1  0  0  0
 59 61  1  0  0  0
 59 62  1  0  0  0
 60128  1  0  0  0
 60129  1  0  0  0
 60130  1  0  0  0
 61131  1  0  0  0
 61132  1  0  0  0
 61133  1  0  0  0
 62134  1  0  0  0
 62135  1  0  0  0
 62136  1  0  0  0
 63 65  1  0  0  0
 63137  1  0  0  0
 63138  1  0  0  0
 63139  1  0  0  0
 64140  1  0  0  0
 65141  1  0  0  0
 68 78  1  0  0  0
 71 72  2  0  0  0
 71 73  1  0  0  0
 71142  1  0  0  0
 72 75  1  0  0  0
 72 80  1  0  0  0
 73 78  1  0  0  0
 73 81  2  0  0  0
 74 79  1  0  0  0
 74 80  2  0  0  0
 74 81  1  0  0  0
 75143  1  0  0  0
 75144  1  0  0  0
 75145  1  0  0  0
 76146  1  0  0  0
 76147  1  0  0  0
 76148  1  0  0  0
 76 79  1  0  0  0
 77 79  1  0  0  0
 77149  1  0  0  0
 77150  1  0  0  0
 77151  1  0  0  0
 78152  1  0  0  0
 78153  1  0  0  0
 79 82  1  0  0  0
 82154  1  0  0  0
M  ISO  4   1 100  68 101  78 101  82 100
M  END
> <chiral flag>
0

> <version>
0

> <s_m_source_file>
/data/baiqing/PycharmProjects/Reinvent-master-3.2/result/LINK_invent/BTK/process_docking_weight1_custom_sum_contain_oxygen_bond_distance_aromatic_linkinvent_7_9_3/rearranged_h_0058.sdf

> <i_m_source_file_index>
26

> <r_mmod_Potential_Energy-OPLS-2005>
1040.5185546875

> <r_mmod_Stretch_Energy-OPLS-2005>
705.869018554688

> <r_mmod_Bend_Energy-OPLS-2005>
500.933258056641

> <r_mmod_Torsional_Energy-OPLS-2005>
223.555404663086

> <r_mmod_Improper_Torsional_Energy-OPLS-2005>
7.65335416793823

> <r_mmod_Van_der_Waal_Energy-OPLS-2005>
125.95726776123

> <r_mmod_Electrostatic_Energy-OPLS-2005>
-875.693298339844

> <r_mmod_Solvation_Energy-OPLS-2005>
-243.389831542969

> <b_mmod_Minimization_Converged-OPLS-2005>
0

> <r_mmod_RMS_Derivative-OPLS-2005>
3.23497104644775

$$$$
26
                    3D
 Structure written by MMmdl.
147155  0  0  1  0            999 V2000
  -30.3987  -15.3068   20.3655 C   0  0  0  0  0  0
  -30.4441  -12.8259   19.5466 C   0  0  0  0  0  0
  -29.5487  -12.5986   18.3005 C   0  0  0  0  0  0
  -28.0944  -12.3128   18.7143 C   0  0  0  0  0  0
  -27.6136  -13.2830   19.8219 C   0  0  2  0  0  0
  -28.6396  -13.4604   20.9605 C   0  0  0  0  0  0
  -25.2396  -13.8261   20.5729 C   0  0  0  0  0  0
  -24.1749  -13.0440   20.9229 C   0  0  0  0  0  0
  -24.6410  -11.6937   20.8718 C   0  0  0  0  0  0
  -23.9103  -10.4295   21.0379 C   0  0  0  0  0  0
  -24.3644   -9.4214   21.9165 C   0  0  0  0  0  0
  -23.6311   -8.2254   22.0746 C   0  0  0  0  0  0
  -22.4292   -8.0282   21.3538 C   0  0  0  0  0  0
  -21.9929   -9.0251   20.4636 C   0  0  0  0  0  0
  -22.7267  -10.2130   20.3037 C   0  0  0  0  0  0
  -21.6862   -6.0732   22.5273 C   0  0  0  0  0  0
  -21.4022   -6.5634   23.8206 C   0  0  0  0  0  0
  -21.3668   -5.6790   24.9168 C   0  0  0  0  0  0
  -21.6048   -4.3051   24.7220 C   0  0  0  0  0  0
  -21.8816   -3.8141   23.4341 C   0  0  0  0  0  0
  -21.9196   -4.6959   22.3397 C   0  0  0  0  0  0
  -22.7766  -13.5184   21.1893 C   0  0  0  0  0  0
  -22.1657   -4.2145   21.0975 F   0  0  0  0  0  0
  -21.5639   -3.4534   25.7733 F   0  0  0  0  0  0
  -29.8825  -13.9722   20.3592 N   0  0  0  0  0  0
  -26.2827  -12.9548   20.3175 N   0  0  0  0  0  0
  -25.9350  -11.6645   20.5664 N   0  0  0  0  0  0
  -22.0426  -12.8166   22.0453 N   0  0  0  0  0  0
  -25.4047  -15.1999   20.4221 N   0  0  0  0  0  0
  -31.6064  -15.3089   20.0792 O   0  0  0  0  0  0
  -21.6653   -6.8879   21.4237 O   0  0  0  0  0  0
  -22.3436  -14.5479   20.6733 O   0  0  0  0  0  0
  -24.6656  -31.8210   23.1688 C   0  0  0  0  0  0
  -25.9322  -32.4572   23.8166 C   0  0  1  0  0  0
  -27.2194  -26.8981   20.1855 C   0  0  0  0  0  0
  -25.5983  -33.8392   24.2071 N   0  0  0  0  0  0
  -23.4826  -30.4319   21.5178 C   0  0  2  0  0  0
  -24.9383  -28.8158   20.1093 C   0  0  0  0  0  0
  -22.7681  -29.4431   22.4768 C   0  0  0  0  0  0
  -18.0328  -28.1412   22.8468 C   0  0  0  0  0  0
  -24.1493  -36.7195   23.2649 C   0  0  0  0  0  0
  -26.0536  -30.6156   21.4066 C   0  0  0  0  0  0
  -26.1213  -29.2032   20.7508 C   0  0  0  0  0  0
  -27.2536  -28.2648   20.7680 C   0  0  0  0  0  0
  -26.0114  -26.6785   19.4827 C   0  0  0  0  0  0
  -24.9111  -27.5750   19.4540 C   0  0  0  0  0  0
  -23.7247  -29.7463   20.1445 C   0  0  0  0  0  0
  -25.4137  -36.2962   24.0299 C   0  0  1  0  0  0
  -20.5953  -28.3765   23.1181 C   0  0  2  0  0  0
  -20.6804  -26.9442   22.5406 C   0  0  0  0  0  0
  -19.5778  -26.6378   21.5220 C   0  0  0  0  0  0
  -18.1960  -26.7943   22.1623 C   0  0  0  0  0  0
  -19.1588  -28.8909   23.2812 C   0  0  0  0  0  0
  -18.9496  -30.1492   23.8855 C   0  0  0  0  0  0
  -17.6488  -30.6600   24.0556 C   0  0  0  0  0  0
  -25.9104  -34.9344   23.5008 C   0  0  0  0  0  0
  -16.5379  -29.9086   23.6345 C   0  0  0  0  0  0
  -16.7308  -28.6503   23.0369 C   0  0  0  0  0  0
  -26.4568  -31.6526   25.0699 C   0  0  0  0  0  0
  -25.3687  -31.3781   26.1350 C   0  0  0  0  0  0
  -27.0469  -30.2886   24.6458 C   0  0  0  0  0  0
  -27.6057  -32.4340   25.7503 C   0  0  0  0  0  0
  -27.5570  -37.1759   24.8468 C   0  0  0  0  0  0
  -21.4349  -29.3046   22.3519 N   0  0  0  0  0  0
  -26.4281  -37.3698   23.9407 N   0  0  0  0  0  0
  -24.7552  -30.9840   22.0842 N   0  0  0  0  0  0
  -23.4211  -28.8009   23.3028 O   0  0  0  0  0  0
  -28.1935  -25.7584   20.2933 O   0  0  0  0  0  0
  -26.5718  -34.8884   22.4605 O   0  0  0  0  0  0
  -23.5717  -32.1201   23.6755 O   0  0  0  0  0  0
  -28.8833  -21.3398   19.5551 C   0  0  0  0  0  0
  -28.6112  -22.5707   20.2956 C   0  0  0  0  0  0
  -29.6712  -18.3833   18.4588 C   0  0  0  0  0  0
  -27.8958  -24.1621   19.9440 C   0  0  0  0  0  0
  -29.5914  -16.8678   20.6410 C   0  0  0  0  0  0
  -29.8173  -18.5447   19.9794 C   0  0  2  0  0  0
  -28.8066  -21.9809   21.5794 N   0  0  0  0  0  0
  -29.1752  -20.6700   21.5895 N   0  0  0  0  0  0
  -29.2138  -20.1009   20.3328 N   0  0  0  0  0  0
  -31.4662  -13.0252   19.2226 H   0  0  0  0  0  0
  -30.5036  -11.9172   20.1477 H   0  0  0  0  0  0
  -29.9371  -11.7793   17.6947 H   0  0  0  0  0  0
  -29.5797  -13.4888   17.6701 H   0  0  0  0  0  0
  -28.0485  -11.2866   19.0801 H   0  0  0  0  0  0
  -27.4342  -12.3595   17.8474 H   0  0  0  0  0  0
  -27.5286  -14.2517   19.3279 H   0  0  0  0  0  0
  -28.8032  -12.5261   21.4993 H   0  0  0  0  0  0
  -28.2690  -14.1804   21.6923 H   0  0  0  0  0  0
  -25.2783   -9.5697   22.4745 H   0  0  0  0  0  0
  -24.0011   -7.4655   22.7476 H   0  0  0  0  0  0
  -21.0852   -8.8769   19.8950 H   0  0  0  0  0  0
  -22.3705  -10.9664   19.6150 H   0  0  0  0  0  0
  -21.2006   -7.6139   23.9706 H   0  0  0  0  0  0
  -21.1502   -6.0519   25.9074 H   0  0  0  0  0  0
  -22.0589   -2.7602   23.2840 H   0  0  0  0  0  0
  -22.4065  -11.9847   22.4860 H   0  0  0  0  0  0
  -21.1033  -13.1167   22.2643 H   0  0  0  0  0  0
  -24.6391  -15.8532   20.5476 H   0  0  0  0  0  0
  -26.2576  -15.6443   20.1075 H   0  0  0  0  0  0
  -26.7392  -32.5106   23.0878 H   0  0  0  0  0  0
  -25.0082  -33.9470   25.0189 H   0  0  0  0  0  0
  -22.7978  -31.2646   21.3449 H   0  0  0  0  0  0
  -23.3771  -35.9511   23.3289 H   0  0  0  0  0  0
  -24.3569  -36.8860   22.2068 H   0  0  0  0  0  0
  -23.7236  -37.6371   23.6719 H   0  0  0  0  0  0
  -26.2398  -31.3542   20.6260 H   0  0  0  0  0  0
  -26.9115  -30.6732   22.0642 H   0  0  0  0  0  0
  -28.1420  -28.5555   21.3109 H   0  0  0  0  0  0
  -25.8725  -25.7354   18.9749 H   0  0  0  0  0  0
  -24.0155  -27.2749   18.9277 H   0  0  0  0  0  0
  -23.8813  -30.5147   19.3866 H   0  0  0  0  0  0
  -22.8340  -29.2014   19.8266 H   0  0  0  0  0  0
  -25.1338  -36.1760   25.0792 H   0  0  0  0  0  0
  -21.0045  -28.3377   24.1303 H   0  0  0  0  0  0
  -20.5690  -26.2384   23.3653 H   0  0  0  0  0  0
  -21.6667  -26.7419   22.1210 H   0  0  0  0  0  0
  -19.6941  -25.6278   21.1281 H   0  0  0  0  0  0
  -19.6715  -27.3163   20.6732 H   0  0  0  0  0  0
  -17.4232  -26.6692   21.4023 H   0  0  0  0  0  0
  -18.0345  -26.0095   22.9028 H   0  0  0  0  0  0
  -19.7971  -30.7319   24.2209 H   0  0  0  0  0  0
  -17.5040  -31.6278   24.5162 H   0  0  0  0  0  0
  -15.5377  -30.2975   23.7695 H   0  0  0  0  0  0
  -15.8706  -28.0803   22.7119 H   0  0  0  0  0  0
  -24.5891  -30.7106   25.7659 H   0  0  0  0  0  0
  -24.8850  -32.2981   26.4645 H   0  0  0  0  0  0
  -25.7911  -30.9037   27.0214 H   0  0  0  0  0  0
  -26.3142  -29.6549   24.1445 H   0  0  0  0  0  0
  -27.3967  -29.7266   25.5127 H   0  0  0  0  0  0
  -27.9102  -30.4057   23.9903 H   0  0  0  0  0  0
  -27.2626  -33.3693   26.1941 H   0  0  0  0  0  0
  -28.3938  -32.6815   25.0376 H   0  0  0  0  0  0
  -28.0646  -31.8556   26.5529 H   0  0  0  0  0  0
  -28.2574  -38.0067   24.7512 H   0  0  0  0  0  0
  -28.1078  -36.2593   24.6301 H   0  0  0  0  0  0
  -27.2285  -37.1406   25.8871 H   0  0  0  0  0  0
  -20.9611  -29.8712   21.6623 H   0  0  0  0  0  0
  -26.0127  -38.2758   24.1410 H   0  0  0  0  0  0
  -28.8459  -21.2426   18.4774 H   0  0  0  0  0  0
  -30.2006  -17.4994   18.1021 H   0  0  0  0  0  0
  -30.0818  -19.2396   17.9235 H   0  0  0  0  0  0
  -28.6232  -18.2807   18.1764 H   0  0  0  0  0  0
  -26.8649  -24.0578   20.2808 H   0  0  0  0  0  0
  -27.7975  -24.1866   18.8588 H   0  0  0  0  0  0
  -28.5391  -16.6395   20.4764 H   0  0  0  0  0  0
  -29.6637  -16.9859   21.7215 H   0  0  0  0  0  0
  -30.8865  -18.6856   20.1436 H   0  0  0  0  0  0
  1 25  1  0  0  0
  1 30  2  0  0  0
  1 75  1  0  0  0
  2  3  1  0  0  0
  2 25  1  0  0  0
  2 80  1  0  0  0
  2 81  1  0  0  0
  3  4  1  0  0  0
  3 82  1  0  0  0
  3 83  1  0  0  0
  4  5  1  0  0  0
  4 84  1  0  0  0
  4 85  1  0  0  0
  5  6  1  0  0  0
  5 26  1  0  0  0
  5 86  1  0  0  0
  6 25  1  0  0  0
  6 87  1  0  0  0
  6 88  1  0  0  0
  7  8  2  0  0  0
  7 26  1  0  0  0
  7 29  1  0  0  0
  8  9  1  0  0  0
  8 22  1  0  0  0
  9 10  1  0  0  0
  9 27  2  0  0  0
 10 11  2  0  0  0
 10 15  1  0  0  0
 11 12  1  0  0  0
 11 89  1  0  0  0
 12 13  2  0  0  0
 12 90  1  0  0  0
 13 14  1  0  0  0
 13 31  1  0  0  0
 14 15  2  0  0  0
 14 91  1  0  0  0
 15 92  1  0  0  0
 16 17  2  0  0  0
 16 21  1  0  0  0
 16 31  1  0  0  0
 17 18  1  0  0  0
 17 93  1  0  0  0
 18 19  2  0  0  0
 18 94  1  0  0  0
 19 20  1  0  0  0
 19 24  1  0  0  0
 20 21  2  0  0  0
 20 95  1  0  0  0
 21 23  1  0  0  0
 22 28  1  0  0  0
 22 32  2  0  0  0
 26 27  1  0  0  0
 28 96  1  0  0  0
 28 97  1  0  0  0
 29 98  1  0  0  0
 29 99  1  0  0  0
 33 34  1  0  0  0
 33 66  1  0  0  0
 33 70  2  0  0  0
 34 36  1  0  0  0
 34 59  1  0  0  0
 34100  1  0  0  0
 35 44  2  0  0  0
 35 45  1  0  0  0
 35 68  1  0  0  0
 36 56  1  0  0  0
 36101  1  0  0  0
 37 39  1  0  0  0
 37 47  1  0  0  0
 37 66  1  0  0  0
 37102  1  0  0  0
 38 43  2  0  0  0
 38 46  1  0  0  0
 38 47  1  0  0  0
 39 64  1  0  0  0
 39 67  2  0  0  0
 40 52  1  0  0  0
 40 53  2  0  0  0
 40 58  1  0  0  0
 41103  1  0  0  0
 41104  1  0  0  0
 41105  1  0  0  0
 41 48  1  0  0  0
 42 43  1  0  0  0
 42 66  1  0  0  0
 42106  1  0  0  0
 42107  1  0  0  0
 43 44  1  0  0  0
 44108  1  0  0  0
 45 46  2  0  0  0
 45109  1  0  0  0
 46110  1  0  0  0
 47111  1  0  0  0
 47112  1  0  0  0
 48 56  1  0  0  0
 48 65  1  0  0  0
 48113  1  0  0  0
 49 50  1  0  0  0
 49 53  1  0  0  0
 49 64  1  0  0  0
 49114  1  0  0  0
 50 51  1  0  0  0
 50115  1  0  0  0
 50116  1  0  0  0
 51 52  1  0  0  0
 51117  1  0  0  0
 51118  1  0  0  0
 52119  1  0  0  0
 52120  1  0  0  0
 53 54  1  0  0  0
 54 55  2  0  0  0
 54121  1  0  0  0
 55 57  1  0  0  0
 55122  1  0  0  0
 56 69  2  0  0  0
 57 58  2  0  0  0
 57123  1  0  0  0
 58124  1  0  0  0
 59 60  1  0  0  0
 59 61  1  0  0  0
 59 62  1  0  0  0
 60125  1  0  0  0
 60126  1  0  0  0
 60127  1  0  0  0
 61128  1  0  0  0
 61129  1  0  0  0
 61130  1  0  0  0
 62131  1  0  0  0
 62132  1  0  0  0
 62133  1  0  0  0
 63 65  1  0  0  0
 63134  1  0  0  0
 63135  1  0  0  0
 63136  1  0  0  0
 64137  1  0  0  0
 65138  1  0  0  0
 68 74  1  0  0  0
 71 72  2  0  0  0
 71 79  1  0  0  0
 71139  1  0  0  0
 72 74  1  0  0  0
 72 77  1  0  0  0
 73140  1  0  0  0
 73141  1  0  0  0
 73142  1  0  0  0
 73 76  1  0  0  0
 74143  1  0  0  0
 74144  1  0  0  0
 75 76  1  0  0  0
 75145  1  0  0  0
 75146  1  0  0  0
 76 79  1  0  0  0
 76147  1  0  0  0
 77 78  2  0  0  0
 78 79  1  0  0  0
M  ISO  4   1 100  68 101  74 101  75 100
M  END
> <chiral flag>
0

> <version>
0

> <s_m_source_file>
/data/baiqing/PycharmProjects/Reinvent-master-3.2/result/LINK_invent/BTK/process_docking_weight1_custom_sum_contain_oxygen_bond_distance_aromatic_linkinvent_7_9_3/rearranged_h_0058.sdf

> <i_m_source_file_index>
27

> <r_mmod_Potential_Energy-OPLS-2005>
1390.80639648438

> <r_mmod_Stretch_Energy-OPLS-2005>
637.025573730469

> <r_mmod_Bend_Energy-OPLS-2005>
477.418762207031

> <r_mmod_Torsional_Energy-OPLS-2005>
199.97184753418

> <r_mmod_Improper_Torsional_Energy-OPLS-2005>
4.65134620666504

> <r_mmod_Van_der_Waal_Energy-OPLS-2005>
105.397369384766

> <r_mmod_Electrostatic_Energy-OPLS-2005>
-316.082183837891

> <r_mmod_Solvation_Energy-OPLS-2005>
-223.311813354492

> <b_mmod_Minimization_Converged-OPLS-2005>
0

> <r_mmod_RMS_Derivative-OPLS-2005>
0.964434921741486

$$$$
27
                    3D
 Structure written by MMmdl.
162170  0  0  1  0            999 V2000
  -30.6538  -14.6165   20.4267 C   0  0  0  0  0  0
  -30.4335  -12.3419   19.4638 C   0  0  0  0  0  0
  -29.5073  -12.3620   18.2274 C   0  0  0  0  0  0
  -28.0164  -12.3052   18.6322 C   0  0  0  0  0  0
  -27.6412  -13.1995   19.8472 C   0  0  2  0  0  0
  -28.6953  -13.1156   20.9713 C   0  0  0  0  0  0
  -25.2559  -13.8130   20.5702 C   0  0  0  0  0  0
  -24.1803  -13.0422   20.9209 C   0  0  0  0  0  0
  -24.6344  -11.6889   20.8771 C   0  0  0  0  0  0
  -23.9010  -10.4285   21.0426 C   0  0  0  0  0  0
  -24.3581   -9.4200   21.9192 C   0  0  0  0  0  0
  -23.6279   -8.2220   22.0744 C   0  0  0  0  0  0
  -22.4259   -8.0265   21.3536 C   0  0  0  0  0  0
  -21.9881   -9.0234   20.4641 C   0  0  0  0  0  0
  -22.7189  -10.2126   20.3065 C   0  0  0  0  0  0
  -21.6852   -6.0725   22.5279 C   0  0  0  0  0  0
  -21.4012   -6.5635   23.8213 C   0  0  0  0  0  0
  -21.3661   -5.6790   24.9176 C   0  0  0  0  0  0
  -21.6038   -4.3053   24.7226 C   0  0  0  0  0  0
  -21.8824   -3.8141   23.4352 C   0  0  0  0  0  0
  -21.9200   -4.6955   22.3408 C   0  0  0  0  0  0
  -22.7841  -13.5238   21.1882 C   0  0  0  0  0  0
  -22.1673   -4.2145   21.0985 F   0  0  0  0  0  0
  -21.5626   -3.4539   25.7742 F   0  0  0  0  0  0
  -30.0035  -13.4140   20.3762 N   0  0  0  0  0  0
  -26.2940  -12.9249   20.3320 N   0  0  0  0  0  0
  -25.9261  -11.6435   20.5803 N   0  0  0  0  0  0
  -22.0496  -12.8210   22.0432 N   0  0  0  0  0  0
  -25.4345  -15.1850   20.4131 N   0  0  0  0  0  0
  -31.8703  -14.7078   20.2529 O   0  0  0  0  0  0
  -21.6632   -6.8859   21.4233 O   0  0  0  0  0  0
  -22.3536  -14.5563   20.6771 O   0  0  0  0  0  0
  -24.6163  -31.8651   23.2084 C   0  0  0  0  0  0
  -25.9045  -32.4809   23.8386 C   0  0  1  0  0  0
  -27.2379  -27.3956   20.1256 C   0  0  0  0  0  0
  -25.5898  -33.8608   24.2317 N   0  0  0  0  0  0
  -23.4083  -30.4866   21.5476 C   0  0  2  0  0  0
  -24.8624  -28.9464   20.1170 C   0  0  0  0  0  0
  -22.7421  -29.4646   22.4968 C   0  0  0  0  0  0
  -18.0272  -28.1377   22.8486 C   0  0  0  0  0  0
  -24.1488  -36.7308   23.2639 C   0  0  0  0  0  0
  -25.9399  -30.8183   21.3716 C   0  0  0  0  0  0
  -26.0211  -29.4469   20.7264 C   0  0  0  0  0  0
  -27.2135  -28.6779   20.7340 C   0  0  0  0  0  0
  -26.0687  -26.9229   19.4997 C   0  0  0  0  0  0
  -24.8825  -27.6833   19.4997 C   0  0  0  0  0  0
  -23.6234  -29.8166   20.1631 C   0  0  0  0  0  0
  -25.4109  -36.3104   24.0340 C   0  0  1  0  0  0
  -20.5864  -28.3672   23.1306 C   0  0  2  0  0  0
  -20.6765  -26.9404   22.5417 C   0  0  0  0  0  0
  -19.5750  -26.6385   21.5209 C   0  0  0  0  0  0
  -18.1924  -26.7923   22.1614 C   0  0  0  0  0  0
  -19.1520  -28.8840   23.2892 C   0  0  0  0  0  0
  -18.9454  -30.1445   23.8903 C   0  0  0  0  0  0
  -17.6457  -30.6583   24.0566 C   0  0  0  0  0  0
  -25.9039  -34.9470   23.5126 C   0  0  0  0  0  0
  -16.5347  -29.9087   23.6329 C   0  0  0  0  0  0
  -16.7262  -28.6505   23.0346 C   0  0  0  0  0  0
  -26.4466  -31.6590   25.0719 C   0  0  0  0  0  0
  -25.3730  -31.3724   26.1469 C   0  0  0  0  0  0
  -27.0311  -30.3027   24.6136 C   0  0  0  0  0  0
  -27.6046  -32.4315   25.7475 C   0  0  0  0  0  0
  -27.5585  -37.1801   24.8462 C   0  0  0  0  0  0
  -21.4143  -29.3034   22.3708 N   0  0  0  0  0  0
  -26.4292  -37.3792   23.9412 N   0  0  0  0  0  0
  -24.6724  -31.0724   22.1003 N   0  0  0  0  0  0
  -23.4173  -28.8193   23.3031 O   0  0  0  0  0  0
  -28.3606  -26.5875   20.0835 O   0  0  0  0  0  0
  -26.5604  -34.8924   22.4690 O   0  0  0  0  0  0
  -23.5344  -32.1422   23.7451 O   0  0  0  0  0  0
  -29.3818  -23.5402   20.3454 C   0  0  0  0  0  0
  -29.0838  -22.2111   20.8089 C   0  0  0  0  0  0
  -28.7488  -24.4124   21.2042 C   0  0  0  0  0  0
  -27.3218  -23.9715   23.2805 C   0  0  0  0  0  0
  -29.3972  -15.9930   18.9225 C   0  0  0  0  0  0
  -30.8505  -19.8693   22.0107 C   0  0  0  0  0  0
  -29.4781  -20.8583   20.1885 C   0  0  0  0  0  0
  -28.7357  -25.9460   21.3214 C   0  0  0  0  0  0
  -30.0494  -17.0094   21.0939 C   0  0  0  0  0  0
  -29.6996  -18.3798   20.3551 C   0  0  0  0  0  0
  -28.3172  -22.2648   21.8899 N   0  0  0  0  0  0
  -28.1191  -23.5891   22.1298 N   0  0  0  0  0  0
  -29.8684  -15.7390   20.2958 N   0  0  0  0  0  0
  -29.6867  -19.6852   21.1141 N   0  3  1  0  0  0
  -31.4758  -12.4518   19.1593 H   0  0  0  0  0  0
  -30.3686  -11.3773   19.9701 H   0  0  0  0  0  0
  -29.7290  -11.4974   17.6002 H   0  0  0  0  0  0
  -29.7211  -13.2151   17.5896 H   0  0  0  0  0  0
  -27.7958  -11.2637   18.8699 H   0  0  0  0  0  0
  -27.3860  -12.5498   17.7767 H   0  0  0  0  0  0
  -27.6196  -14.2172   19.4756 H   0  0  0  0  0  0
  -28.7004  -12.1229   21.4239 H   0  0  0  0  0  0
  -28.4613  -13.8206   21.7715 H   0  0  0  0  0  0
  -25.2720   -9.5690   22.4771 H   0  0  0  0  0  0
  -24.0015   -7.4590   22.7427 H   0  0  0  0  0  0
  -21.0831   -8.8730   19.8926 H   0  0  0  0  0  0
  -22.3634  -10.9668   19.6189 H   0  0  0  0  0  0
  -21.1997   -7.6140   23.9721 H   0  0  0  0  0  0
  -21.1485   -6.0515   25.9080 H   0  0  0  0  0  0
  -22.0603   -2.7604   23.2852 H   0  0  0  0  0  0
  -22.4127  -11.9844   22.4761 H   0  0  0  0  0  0
  -21.1123  -13.1228   22.2681 H   0  0  0  0  0  0
  -24.6797  -15.8526   20.5281 H   0  0  0  0  0  0
  -26.3026  -15.6153   20.1224 H   0  0  0  0  0  0
  -26.7115  -32.5525   23.1147 H   0  0  0  0  0  0
  -25.0052  -33.9772   25.0466 H   0  0  0  0  0  0
  -22.6985  -31.3041   21.4043 H   0  0  0  0  0  0
  -23.3751  -35.9639   23.3299 H   0  0  0  0  0  0
  -24.3586  -36.8926   22.2054 H   0  0  0  0  0  0
  -23.7235  -37.6512   23.6655 H   0  0  0  0  0  0
  -26.0572  -31.5807   20.6000 H   0  0  0  0  0  0
  -26.8242  -30.8745   21.9938 H   0  0  0  0  0  0
  -28.1067  -29.0639   21.2054 H   0  0  0  0  0  0
  -26.0761  -25.9531   19.0227 H   0  0  0  0  0  0
  -23.9949  -27.2916   19.0221 H   0  0  0  0  0  0
  -23.7345  -30.5914   19.4039 H   0  0  0  0  0  0
  -22.7471  -29.2386   19.8644 H   0  0  0  0  0  0
  -25.1280  -36.1968   25.0834 H   0  0  0  0  0  0
  -20.9951  -28.3245   24.1431 H   0  0  0  0  0  0
  -20.5673  -26.2277   23.3608 H   0  0  0  0  0  0
  -21.6639  -26.7451   22.1210 H   0  0  0  0  0  0
  -19.6921  -25.6300   21.1232 H   0  0  0  0  0  0
  -19.6698  -27.3204   20.6749 H   0  0  0  0  0  0
  -17.4198  -26.6670   21.4014 H   0  0  0  0  0  0
  -18.0326  -26.0057   22.9003 H   0  0  0  0  0  0
  -19.7935  -30.7252   24.2276 H   0  0  0  0  0  0
  -17.5022  -31.6269   24.5161 H   0  0  0  0  0  0
  -15.5352  -30.2996   23.7658 H   0  0  0  0  0  0
  -15.8657  -28.0838   22.7053 H   0  0  0  0  0  0
  -24.5896  -30.7074   25.7814 H   0  0  0  0  0  0
  -24.8928  -32.2892   26.4900 H   0  0  0  0  0  0
  -25.8073  -30.8906   27.0234 H   0  0  0  0  0  0
  -26.2877  -29.6774   24.1176 H   0  0  0  0  0  0
  -27.4047  -29.7282   25.4618 H   0  0  0  0  0  0
  -27.8724  -30.4329   23.9325 H   0  0  0  0  0  0
  -27.2670  -33.3613   26.2062 H   0  0  0  0  0  0
  -28.3843  -32.6869   25.0290 H   0  0  0  0  0  0
  -28.0720  -31.8428   26.5375 H   0  0  0  0  0  0
  -28.2593  -38.0106   24.7520 H   0  0  0  0  0  0
  -28.1085  -36.2637   24.6265 H   0  0  0  0  0  0
  -27.2306  -37.1428   25.8865 H   0  0  0  0  0  0
  -20.9304  -29.8757   21.6932 H   0  0  0  0  0  0
  -26.0180  -38.2870   24.1422 H   0  0  0  0  0  0
  -29.9836  -23.8177   19.4918 H   0  0  0  0  0  0
  -27.9199  -24.5805   23.9590 H   0  0  0  0  0  0
  -26.9718  -23.0907   23.8197 H   0  0  0  0  0  0
  -26.4553  -24.5478   22.9531 H   0  0  0  0  0  0
  -28.4025  -16.4378   18.9143 H   0  0  0  0  0  0
  -29.3099  -15.0998   18.3191 H   0  0  0  0  0  0
  -30.0886  -16.6322   18.3743 H   0  0  0  0  0  0
  -30.7757  -20.8113   22.5540 H   0  0  0  0  0  0
  -31.7842  -19.8746   21.4488 H   0  0  0  0  0  0
  -30.9044  -19.0786   22.7589 H   0  0  0  0  0  0
  -30.3790  -20.9872   19.5873 H   0  0  0  0  0  0
  -28.6985  -20.5912   19.4741 H   0  0  0  0  0  0
  -29.7353  -26.2924   21.5851 H   0  0  0  0  0  0
  -28.0864  -26.2676   22.1375 H   0  0  0  0  0  0
  -29.4350  -16.9144   21.9901 H   0  0  0  0  0  0
  -31.0834  -17.0532   21.4401 H   0  0  0  0  0  0
  -28.7037  -18.3108   19.9192 H   0  0  0  0  0  0
  -30.3993  -18.5091   19.5273 H   0  0  0  0  0  0
  -28.8690  -19.6865   21.7059 H   0  0  0  0  0  0
  1 25  1  0  0  0
  1 30  2  0  0  0
  1 83  1  0  0  0
  2  3  1  0  0  0
  2 25  1  0  0  0
  2 85  1  0  0  0
  2 86  1  0  0  0
  3  4  1  0  0  0
  3 87  1  0  0  0
  3 88  1  0  0  0
  4  5  1  0  0  0
  4 89  1  0  0  0
  4 90  1  0  0  0
  5  6  1  0  0  0
  5 26  1  0  0  0
  5 91  1  0  0  0
  6 25  1  0  0  0
  6 92  1  0  0  0
  6 93  1  0  0  0
  7  8  2  0  0  0
  7 26  1  0  0  0
  7 29  1  0  0  0
  8  9  1  0  0  0
  8 22  1  0  0  0
  9 10  1  0  0  0
  9 27  2  0  0  0
 10 11  2  0  0  0
 10 15  1  0  0  0
 11 12  1  0  0  0
 11 94  1  0  0  0
 12 13  2  0  0  0
 12 95  1  0  0  0
 13 14  1  0  0  0
 13 31  1  0  0  0
 14 15  2  0  0  0
 14 96  1  0  0  0
 15 97  1  0  0  0
 16 17  2  0  0  0
 16 21  1  0  0  0
 16 31  1  0  0  0
 17 18  1  0  0  0
 17 98  1  0  0  0
 18 19  2  0  0  0
 18 99  1  0  0  0
 19 20  1  0  0  0
 19 24  1  0  0  0
 20 21  2  0  0  0
 20100  1  0  0  0
 21 23  1  0  0  0
 22 28  1  0  0  0
 22 32  2  0  0  0
 26 27  1  0  0  0
 28101  1  0  0  0
 28102  1  0  0  0
 29103  1  0  0  0
 29104  1  0  0  0
 33 34  1  0  0  0
 33 66  1  0  0  0
 33 70  2  0  0  0
 34 36  1  0  0  0
 34 59  1  0  0  0
 34105  1  0  0  0
 35 44  2  0  0  0
 35 45  1  0  0  0
 35 68  1  0  0  0
 36 56  1  0  0  0
 36106  1  0  0  0
 37 39  1  0  0  0
 37 47  1  0  0  0
 37 66  1  0  0  0
 37107  1  0  0  0
 38 43  2  0  0  0
 38 46  1  0  0  0
 38 47  1  0  0  0
 39 64  1  0  0  0
 39 67  2  0  0  0
 40 52  1  0  0  0
 40 53  2  0  0  0
 40 58  1  0  0  0
 41108  1  0  0  0
 41109  1  0  0  0
 41110  1  0  0  0
 41 48  1  0  0  0
 42 43  1  0  0  0
 42 66  1  0  0  0
 42111  1  0  0  0
 42112  1  0  0  0
 43 44  1  0  0  0
 44113  1  0  0  0
 45 46  2  0  0  0
 45114  1  0  0  0
 46115  1  0  0  0
 47116  1  0  0  0
 47117  1  0  0  0
 48 56  1  0  0  0
 48 65  1  0  0  0
 48118  1  0  0  0
 49 50  1  0  0  0
 49 53  1  0  0  0
 49 64  1  0  0  0
 49119  1  0  0  0
 50 51  1  0  0  0
 50120  1  0  0  0
 50121  1  0  0  0
 51 52  1  0  0  0
 51122  1  0  0  0
 51123  1  0  0  0
 52124  1  0  0  0
 52125  1  0  0  0
 53 54  1  0  0  0
 54 55  2  0  0  0
 54126  1  0  0  0
 55 57  1  0  0  0
 55127  1  0  0  0
 56 69  2  0  0  0
 57 58  2  0  0  0
 57128  1  0  0  0
 58129  1  0  0  0
 59 60  1  0  0  0
 59 61  1  0  0  0
 59 62  1  0  0  0
 60130  1  0  0  0
 60131  1  0  0  0
 60132  1  0  0  0
 61133  1  0  0  0
 61134  1  0  0  0
 61135  1  0  0  0
 62136  1  0  0  0
 62137  1  0  0  0
 62138  1  0  0  0
 63 65  1  0  0  0
 63139  1  0  0  0
 63140  1  0  0  0
 63141  1  0  0  0
 64142  1  0  0  0
 65143  1  0  0  0
 68 78  1  0  0  0
 71 72  1  0  0  0
 71 73  2  0  0  0
 71144  1  0  0  0
 72 77  1  0  0  0
 72 81  2  0  0  0
 73 78  1  0  0  0
 73 82  1  0  0  0
 74 82  1  0  0  0
 74145  1  0  0  0
 74146  1  0  0  0
 74147  1  0  0  0
 75 83  1  0  0  0
 75148  1  0  0  0
 75149  1  0  0  0
 75150  1  0  0  0
 76151  1  0  0  0
 76152  1  0  0  0
 76153  1  0  0  0
 76 84  1  0  0  0
 77 84  1  0  0  0
 77154  1  0  0  0
 77155  1  0  0  0
 78156  1  0  0  0
 78157  1  0  0  0
 79 80  1  0  0  0
 79 83  1  0  0  0
 79158  1  0  0  0
 79159  1  0  0  0
 80 84  1  0  0  0
 80160  1  0  0  0
 80161  1  0  0  0
 81 82  1  0  0  0
 84162  1  0  0  0
M  CHG  1  84   1
M  ISO  4   1 100  68 101  78 101  83 100
M  END
> <chiral flag>
0

> <version>
0

> <s_m_source_file>
/data/baiqing/PycharmProjects/Reinvent-master-3.2/result/LINK_invent/BTK/process_docking_weight1_custom_sum_contain_oxygen_bond_distance_aromatic_linkinvent_7_9_3/rearranged_h_0058.sdf

> <i_m_source_file_index>
28

> <r_mmod_Potential_Energy-OPLS-2005>
9.72636222839355

> <r_mmod_Stretch_Energy-OPLS-2005>
58.9785499572754

> <r_mmod_Bend_Energy-OPLS-2005>
123.626289367676

> <r_mmod_Torsional_Energy-OPLS-2005>
339.362762451172

> <r_mmod_Improper_Torsional_Energy-OPLS-2005>
12.5042057037354

> <r_mmod_Van_der_Waal_Energy-OPLS-2005>
133.430786132812

> <r_mmod_Electrostatic_Energy-OPLS-2005>
-274.010223388672

> <r_mmod_Solvation_Energy-OPLS-2005>
-427.661895751953

> <b_mmod_Minimization_Converged-OPLS-2005>
0

> <r_mmod_RMS_Derivative-OPLS-2005>
1.72583174705505

$$$$
28
                    3D
 Structure written by MMmdl.
160168  0  0  1  0            999 V2000
  -30.7083  -14.5011   20.5402 C   0  0  0  0  0  0
  -30.4199  -12.3144   19.4447 C   0  0  0  0  0  0
  -29.5033  -12.5014   18.2167 C   0  0  0  0  0  0
  -28.0231  -12.3639   18.6265 C   0  0  0  0  0  0
  -27.6614  -13.2171   19.8724 C   0  0  2  0  0  0
  -28.7028  -13.0363   21.0017 C   0  0  0  0  0  0
  -25.2572  -13.8174   20.5673 C   0  0  0  0  0  0
  -24.1817  -13.0449   20.9179 C   0  0  0  0  0  0
  -24.6395  -11.6917   20.8734 C   0  0  0  0  0  0
  -23.9064  -10.4287   21.0391 C   0  0  0  0  0  0
  -24.3620   -9.4199   21.9172 C   0  0  0  0  0  0
  -23.6280   -8.2246   22.0751 C   0  0  0  0  0  0
  -22.4261   -8.0285   21.3547 C   0  0  0  0  0  0
  -21.9891   -9.0264   20.4651 C   0  0  0  0  0  0
  -22.7235  -10.2132   20.3046 C   0  0  0  0  0  0
  -21.6846   -6.0731   22.5261 C   0  0  0  0  0  0
  -21.4033   -6.5631   23.8201 C   0  0  0  0  0  0
  -21.3661   -5.6779   24.9162 C   0  0  0  0  0  0
  -21.6036   -4.3039   24.7207 C   0  0  0  0  0  0
  -21.8821   -3.8143   23.4324 C   0  0  0  0  0  0
  -21.9194   -4.6960   22.3379 C   0  0  0  0  0  0
  -22.7832  -13.5234   21.1832 C   0  0  0  0  0  0
  -22.1648   -4.2155   21.0953 F   0  0  0  0  0  0
  -21.5638   -3.4518   25.7720 F   0  0  0  0  0  0
  -30.0320  -13.3238   20.4447 N   0  0  0  0  0  0
  -26.3023  -12.9371   20.3354 N   0  0  0  0  0  0
  -25.9331  -11.6526   20.5755 N   0  0  0  0  0  0
  -22.0464  -12.8256   22.0400 N   0  0  0  0  0  0
  -25.4279  -15.1891   20.4039 N   0  0  0  0  0  0
  -31.8515  -14.6459   20.1027 O   0  0  0  0  0  0
  -21.6635   -6.8875   21.4221 O   0  0  0  0  0  0
  -22.3512  -14.5539   20.6674 O   0  0  0  0  0  0
  -24.6155  -31.8683   23.2121 C   0  0  0  0  0  0
  -25.9051  -32.4828   23.8401 C   0  0  1  0  0  0
  -27.2145  -27.4239   20.0978 C   0  0  0  0  0  0
  -25.5920  -33.8622   24.2336 N   0  0  0  0  0  0
  -23.4024  -30.4967   21.5517 C   0  0  2  0  0  0
  -24.8480  -28.9727   20.1060 C   0  0  0  0  0  0
  -22.7413  -29.4654   22.4959 C   0  0  0  0  0  0
  -18.0276  -28.1377   22.8476 C   0  0  0  0  0  0
  -24.1493  -36.7315   23.2632 C   0  0  0  0  0  0
  -25.9338  -30.8319   21.3672 C   0  0  0  0  0  0
  -26.0103  -29.4683   20.7110 C   0  0  0  0  0  0
  -27.1996  -28.7013   20.7078 C   0  0  0  0  0  0
  -26.0437  -26.9654   19.4534 C   0  0  0  0  0  0
  -24.8613  -27.7215   19.4702 C   0  0  0  0  0  0
  -23.6120  -29.8403   20.1621 C   0  0  0  0  0  0
  -25.4112  -36.3106   24.0332 C   0  0  1  0  0  0
  -20.5866  -28.3657   23.1314 C   0  0  2  0  0  0
  -20.6779  -26.9394   22.5413 C   0  0  0  0  0  0
  -19.5765  -26.6381   21.5200 C   0  0  0  0  0  0
  -18.1935  -26.7924   22.1597 C   0  0  0  0  0  0
  -19.1525  -28.8827   23.2897 C   0  0  0  0  0  0
  -18.9447  -30.1437   23.8914 C   0  0  0  0  0  0
  -17.6453  -30.6575   24.0560 C   0  0  0  0  0  0
  -25.9032  -34.9474   23.5122 C   0  0  0  0  0  0
  -16.5345  -29.9082   23.6324 C   0  0  0  0  0  0
  -16.7267  -28.6497   23.0340 C   0  0  0  0  0  0
  -26.4497  -31.6594   25.0712 C   0  0  0  0  0  0
  -25.3788  -31.3679   26.1476 C   0  0  0  0  0  0
  -27.0312  -30.3044   24.6044 C   0  0  0  0  0  0
  -27.6070  -32.4307   25.7484 C   0  0  0  0  0  0
  -27.5586  -37.1814   24.8459 C   0  0  0  0  0  0
  -21.4138  -29.3024   22.3707 N   0  0  0  0  0  0
  -26.4297  -37.3792   23.9404 N   0  0  0  0  0  0
  -24.6690  -31.0792   22.1019 N   0  0  0  0  0  0
  -23.4193  -28.8158   23.2962 O   0  0  0  0  0  0
  -28.3240  -26.6061   20.1611 O   0  0  0  0  0  0
  -26.5577  -34.8921   22.4671 O   0  0  0  0  0  0
  -23.5350  -32.1424   23.7526 O   0  0  0  0  0  0
  -31.1173  -22.4615   21.0716 C   0  0  0  0  0  0
  -30.4974  -24.6611   20.7150 C   0  0  0  0  0  0
  -29.7592  -22.0730   21.1747 C   0  0  0  0  0  0
  -29.1381  -24.2967   20.8264 C   0  0  0  0  0  0
  -29.6176  -17.9583   22.7923 C   0  0  0  0  0  0
  -29.7087  -19.6782   19.3142 C   0  0  0  0  0  0
  -29.3515  -20.6348   21.5690 C   0  0  0  0  0  0
  -28.0183  -25.3372   20.7885 C   0  0  0  0  0  0
  -30.3952  -16.9688   20.5901 C   0  0  0  0  0  0
  -29.5509  -18.1127   21.2538 C   0  0  2  0  0  0
  -31.4904  -23.7438   20.8290 N   0  0  0  0  0  0
  -28.7675  -23.0000   21.0456 N   0  0  0  0  0  0
  -29.9933  -15.5802   20.9256 N   0  0  0  0  0  0
  -29.9419  -19.5005   20.7750 N   0  3  1  0  0  0
  -31.4702  -12.3897   19.1579 H   0  0  0  0  0  0
  -30.2974  -11.3121   19.8607 H   0  0  0  0  0  0
  -29.7480  -11.7662   17.4494 H   0  0  0  0  0  0
  -29.6780  -13.4796   17.7649 H   0  0  0  0  0  0
  -27.8374  -11.3096   18.8365 H   0  0  0  0  0  0
  -27.3747  -12.6268   17.7905 H   0  0  0  0  0  0
  -27.6956  -14.2593   19.5532 H   0  0  0  0  0  0
  -28.6779  -12.0159   21.3879 H   0  0  0  0  0  0
  -28.4731  -13.6786   21.8528 H   0  0  0  0  0  0
  -25.2776   -9.5678   22.4732 H   0  0  0  0  0  0
  -23.9995   -7.4634   22.7476 H   0  0  0  0  0  0
  -21.0820   -8.8775   19.8962 H   0  0  0  0  0  0
  -22.3691  -10.9663   19.6145 H   0  0  0  0  0  0
  -21.2034   -7.6138   23.9701 H   0  0  0  0  0  0
  -21.1481   -6.0510   25.9066 H   0  0  0  0  0  0
  -22.0609   -2.7605   23.2803 H   0  0  0  0  0  0
  -22.4060  -11.9942   22.4831 H   0  0  0  0  0  0
  -21.1087  -13.1318   22.2586 H   0  0  0  0  0  0
  -24.6546  -15.8411   20.4866 H   0  0  0  0  0  0
  -26.2708  -15.6230   20.0527 H   0  0  0  0  0  0
  -26.7107  -32.5548   23.1148 H   0  0  0  0  0  0
  -25.0150  -33.9786   25.0539 H   0  0  0  0  0  0
  -22.6897  -31.3130   21.4190 H   0  0  0  0  0  0
  -23.3747  -35.9654   23.3290 H   0  0  0  0  0  0
  -24.3588  -36.8935   22.2045 H   0  0  0  0  0  0
  -23.7259  -37.6526   23.6647 H   0  0  0  0  0  0
  -26.0452  -31.5971   20.5981 H   0  0  0  0  0  0
  -26.8226  -30.8857   21.9833 H   0  0  0  0  0  0
  -28.0879  -29.0673   21.2031 H   0  0  0  0  0  0
  -26.0273  -26.0147   18.9397 H   0  0  0  0  0  0
  -23.9729  -27.3407   18.9862 H   0  0  0  0  0  0
  -23.7233  -30.6220   19.4096 H   0  0  0  0  0  0
  -22.7348  -29.2661   19.8608 H   0  0  0  0  0  0
  -25.1292  -36.1964   25.0825 H   0  0  0  0  0  0
  -20.9963  -28.3223   24.1432 H   0  0  0  0  0  0
  -20.5679  -26.2253   23.3589 H   0  0  0  0  0  0
  -21.6654  -26.7444   22.1206 H   0  0  0  0  0  0
  -19.6929  -25.6291   21.1231 H   0  0  0  0  0  0
  -19.6729  -27.3188   20.6727 H   0  0  0  0  0  0
  -17.4216  -26.6669   21.3992 H   0  0  0  0  0  0
  -18.0331  -26.0068   22.8992 H   0  0  0  0  0  0
  -19.7926  -30.7246   24.2293 H   0  0  0  0  0  0
  -17.5010  -31.6265   24.5149 H   0  0  0  0  0  0
  -15.5346  -30.2984   23.7651 H   0  0  0  0  0  0
  -15.8666  -28.0829   22.7046 H   0  0  0  0  0  0
  -24.5956  -30.7023   25.7824 H   0  0  0  0  0  0
  -24.8993  -32.2830   26.4961 H   0  0  0  0  0  0
  -25.8186  -30.8833   27.0202 H   0  0  0  0  0  0
  -26.2817  -29.6799   24.1163 H   0  0  0  0  0  0
  -27.4176  -29.7276   25.4455 H   0  0  0  0  0  0
  -27.8619  -30.4369   23.9107 H   0  0  0  0  0  0
  -27.2678  -33.3583   26.2102 H   0  0  0  0  0  0
  -28.3876  -32.6904   25.0323 H   0  0  0  0  0  0
  -28.0740  -31.8405   26.5380 H   0  0  0  0  0  0
  -28.2600  -38.0113   24.7508 H   0  0  0  0  0  0
  -28.1088  -36.2649   24.6281 H   0  0  0  0  0  0
  -27.2300  -37.1460   25.8860 H   0  0  0  0  0  0
  -20.9268  -29.8784   21.6983 H   0  0  0  0  0  0
  -26.0181  -38.2864   24.1417 H   0  0  0  0  0  0
  -31.9137  -21.7437   21.1974 H   0  0  0  0  0  0
  -30.7901  -25.6890   20.5559 H   0  0  0  0  0  0
  -29.4038  -16.9369   23.1077 H   0  0  0  0  0  0
  -28.8791  -18.5782   23.3007 H   0  0  0  0  0  0
  -30.6038  -18.2165   23.1820 H   0  0  0  0  0  0
  -29.9108  -20.6938   18.9757 H   0  0  0  0  0  0
  -28.6765  -19.4488   19.0471 H   0  0  0  0  0  0
  -30.3617  -19.0434   18.7171 H   0  0  0  0  0  0
  -28.2641  -20.5506   21.5403 H   0  0  0  0  0  0
  -29.6397  -20.5509   22.6163 H   0  0  0  0  0  0
  -27.7153  -25.5338   21.8181 H   0  0  0  0  0  0
  -27.1726  -24.8394   20.3142 H   0  0  0  0  0  0
  -31.4489  -17.1107   20.8421 H   0  0  0  0  0  0
  -30.3264  -17.0331   19.5056 H   0  0  0  0  0  0
  -28.5078  -17.9614   20.9666 H   0  0  0  0  0  0
  -29.0568  -15.4196   21.2627 H   0  0  0  0  0  0
  -30.9388  -19.5799   20.9062 H   0  0  0  0  0  0
  1 25  1  0  0  0
  1 30  2  0  0  0
  1 83  1  0  0  0
  2  3  1  0  0  0
  2 25  1  0  0  0
  2 85  1  0  0  0
  2 86  1  0  0  0
  3  4  1  0  0  0
  3 87  1  0  0  0
  3 88  1  0  0  0
  4  5  1  0  0  0
  4 89  1  0  0  0
  4 90  1  0  0  0
  5  6  1  0  0  0
  5 26  1  0  0  0
  5 91  1  0  0  0
  6 25  1  0  0  0
  6 92  1  0  0  0
  6 93  1  0  0  0
  7  8  2  0  0  0
  7 26  1  0  0  0
  7 29  1  0  0  0
  8  9  1  0  0  0
  8 22  1  0  0  0
  9 10  1  0  0  0
  9 27  2  0  0  0
 10 11  2  0  0  0
 10 15  1  0  0  0
 11 12  1  0  0  0
 11 94  1  0  0  0
 12 13  2  0  0  0
 12 95  1  0  0  0
 13 14  1  0  0  0
 13 31  1  0  0  0
 14 15  2  0  0  0
 14 96  1  0  0  0
 15 97  1  0  0  0
 16 17  2  0  0  0
 16 21  1  0  0  0
 16 31  1  0  0  0
 17 18  1  0  0  0
 17 98  1  0  0  0
 18 19  2  0  0  0
 18 99  1  0  0  0
 19 20  1  0  0  0
 19 24  1  0  0  0
 20 21  2  0  0  0
 20100  1  0  0  0
 21 23  1  0  0  0
 22 28  1  0  0  0
 22 32  2  0  0  0
 26 27  1  0  0  0
 28101  1  0  0  0
 28102  1  0  0  0
 29103  1  0  0  0
 29104  1  0  0  0
 33 34  1  0  0  0
 33 66  1  0  0  0
 33 70  2  0  0  0
 34 36  1  0  0  0
 34 59  1  0  0  0
 34105  1  0  0  0
 35 44  2  0  0  0
 35 45  1  0  0  0
 35 68  1  0  0  0
 36 56  1  0  0  0
 36106  1  0  0  0
 37 39  1  0  0  0
 37 47  1  0  0  0
 37 66  1  0  0  0
 37107  1  0  0  0
 38 43  2  0  0  0
 38 46  1  0  0  0
 38 47  1  0  0  0
 39 64  1  0  0  0
 39 67  2  0  0  0
 40 52  1  0  0  0
 40 53  2  0  0  0
 40 58  1  0  0  0
 41108  1  0  0  0
 41109  1  0  0  0
 41110  1  0  0  0
 41 48  1  0  0  0
 42 43  1  0  0  0
 42 66  1  0  0  0
 42111  1  0  0  0
 42112  1  0  0  0
 43 44  1  0  0  0
 44113  1  0  0  0
 45 46  2  0  0  0
 45114  1  0  0  0
 46115  1  0  0  0
 47116  1  0  0  0
 47117  1  0  0  0
 48 56  1  0  0  0
 48 65  1  0  0  0
 48118  1  0  0  0
 49 50  1  0  0  0
 49 53  1  0  0  0
 49 64  1  0  0  0
 49119  1  0  0  0
 50 51  1  0  0  0
 50120  1  0  0  0
 50121  1  0  0  0
 51 52  1  0  0  0
 51122  1  0  0  0
 51123  1  0  0  0
 52124  1  0  0  0
 52125  1  0  0  0
 53 54  1  0  0  0
 54 55  2  0  0  0
 54126  1  0  0  0
 55 57  1  0  0  0
 55127  1  0  0  0
 56 69  2  0  0  0
 57 58  2  0  0  0
 57128  1  0  0  0
 58129  1  0  0  0
 59 60  1  0  0  0
 59 61  1  0  0  0
 59 62  1  0  0  0
 60130  1  0  0  0
 60131  1  0  0  0
 60132  1  0  0  0
 61133  1  0  0  0
 61134  1  0  0  0
 61135  1  0  0  0
 62136  1  0  0  0
 62137  1  0  0  0
 62138  1  0  0  0
 63 65  1  0  0  0
 63139  1  0  0  0
 63140  1  0  0  0
 63141  1  0  0  0
 64142  1  0  0  0
 65143  1  0  0  0
 68 78  1  0  0  0
 71 73  2  0  0  0
 71 81  1  0  0  0
 71144  1  0  0  0
 72 74  1  0  0  0
 72 81  2  0  0  0
 72145  1  0  0  0
 73 77  1  0  0  0
 73 82  1  0  0  0
 74 78  1  0  0  0
 74 82  2  0  0  0
 75146  1  0  0  0
 75147  1  0  0  0
 75148  1  0  0  0
 75 80  1  0  0  0
 76149  1  0  0  0
 76150  1  0  0  0
 76151  1  0  0  0
 76 84  1  0  0  0
 77 84  1  0  0  0
 77152  1  0  0  0
 77153  1  0  0  0
 78154  1  0  0  0
 78155  1  0  0  0
 79 80  1  0  0  0
 79 83  1  0  0  0
 79156  1  0  0  0
 79157  1  0  0  0
 80 84  1  0  0  0
 80158  1  0  0  0
 83159  1  0  0  0
 84160  1  0  0  0
M  CHG  1  84   1
M  ISO  4   1 100  68 101  78 101  83 100
M  END
> <chiral flag>
0

> <version>
0

> <s_m_source_file>
/data/baiqing/PycharmProjects/Reinvent-master-3.2/result/LINK_invent/BTK/process_docking_weight1_custom_sum_contain_oxygen_bond_distance_aromatic_linkinvent_7_9_3/rearranged_h_0058.sdf

> <i_m_source_file_index>
29

> <r_mmod_Potential_Energy-OPLS-2005>
-120.003761291504

> <r_mmod_Stretch_Energy-OPLS-2005>
49.1989288330078

> <r_mmod_Bend_Energy-OPLS-2005>
103.418312072754

> <r_mmod_Torsional_Energy-OPLS-2005>
235.93766784668

> <r_mmod_Improper_Torsional_Energy-OPLS-2005>
6.30665445327759

> <r_mmod_Van_der_Waal_Energy-OPLS-2005>
167.74836730957

> <r_mmod_Electrostatic_Energy-OPLS-2005>
-226.150863647461

> <r_mmod_Solvation_Energy-OPLS-2005>
-477.006958007812

> <b_mmod_Minimization_Converged-OPLS-2005>
0

> <r_mmod_RMS_Derivative-OPLS-2005>
2.6650173664093

$$$$
29
                    3D
 Structure written by MMmdl.
157165  0  0  1  0            999 V2000
  -30.4755  -15.4013   20.2805 C   0  0  0  0  0  0
  -30.4499  -12.9111   19.4648 C   0  0  0  0  0  0
  -29.5364  -12.5748   18.2545 C   0  0  0  0  0  0
  -28.0917  -12.2788   18.7041 C   0  0  0  0  0  0
  -27.5962  -13.2938   19.7630 C   0  0  2  0  0  0
  -28.6447  -13.5862   20.8700 C   0  0  0  0  0  0
  -25.2323  -13.8171   20.5736 C   0  0  0  0  0  0
  -24.1686  -13.0335   20.9294 C   0  0  0  0  0  0
  -24.6396  -11.6874   20.8713 C   0  0  0  0  0  0
  -23.9074  -10.4236   21.0338 C   0  0  0  0  0  0
  -24.3616   -9.4183   21.9135 C   0  0  0  0  0  0
  -23.6299   -8.2224   22.0718 C   0  0  0  0  0  0
  -22.4281   -8.0253   21.3512 C   0  0  0  0  0  0
  -21.9898   -9.0217   20.4595 C   0  0  0  0  0  0
  -22.7243  -10.2097   20.2969 C   0  0  0  0  0  0
  -21.6830   -6.0731   22.5311 C   0  0  0  0  0  0
  -21.4020   -6.5631   23.8254 C   0  0  0  0  0  0
  -21.3668   -5.6775   24.9204 C   0  0  0  0  0  0
  -21.6038   -4.3044   24.7238 C   0  0  0  0  0  0
  -21.8822   -3.8135   23.4367 C   0  0  0  0  0  0
  -21.9184   -4.6957   22.3423 C   0  0  0  0  0  0
  -22.7707  -13.5071   21.1994 C   0  0  0  0  0  0
  -22.1639   -4.2150   21.1005 F   0  0  0  0  0  0
  -21.5629   -3.4511   25.7757 F   0  0  0  0  0  0
  -29.8671  -14.0966   20.2152 N   0  0  0  0  0  0
  -26.2765  -12.9529   20.3009 N   0  0  0  0  0  0
  -25.9334  -11.6612   20.5537 N   0  0  0  0  0  0
  -22.0372  -12.8033   22.0601 N   0  0  0  0  0  0
  -25.3901  -15.1839   20.4262 N   0  0  0  0  0  0
  -31.7062  -15.3135   20.1752 O   0  0  0  0  0  0
  -21.6613   -6.8877   21.4277 O   0  0  0  0  0  0
  -22.3356  -14.5349   20.6852 O   0  0  0  0  0  0
  -24.6795  -31.8134   23.1609 C   0  0  0  0  0  0
  -25.9431  -32.4549   23.8109 C   0  0  1  0  0  0
  -27.2515  -26.8491   20.1746 C   0  0  0  0  0  0
  -25.6069  -33.8360   24.2026 N   0  0  0  0  0  0
  -23.4982  -30.4217   21.5087 C   0  0  2  0  0  0
  -24.9568  -28.7885   20.1089 C   0  0  0  0  0  0
  -22.7749  -29.4393   22.4713 C   0  0  0  0  0  0
  -18.0344  -28.1475   22.8455 C   0  0  0  0  0  0
  -24.1485  -36.7183   23.2640 C   0  0  0  0  0  0
  -26.0715  -30.5944   21.4005 C   0  0  0  0  0  0
  -26.1405  -29.1730   20.7482 C   0  0  0  0  0  0
  -27.2687  -28.2232   20.7642 C   0  0  0  0  0  0
  -26.0320  -26.6369   19.4869 C   0  0  0  0  0  0
  -24.9323  -27.5410   19.4623 C   0  0  0  0  0  0
  -23.7519  -29.7351   20.1362 C   0  0  0  0  0  0
  -25.4126  -36.2924   24.0298 C   0  0  1  0  0  0
  -20.5979  -28.3827   23.1161 C   0  0  2  0  0  0
  -20.6838  -26.9499   22.5397 C   0  0  0  0  0  0
  -19.5805  -26.6422   21.5231 C   0  0  0  0  0  0
  -18.1978  -26.8002   22.1635 C   0  0  0  0  0  0
  -19.1603  -28.8967   23.2808 C   0  0  0  0  0  0
  -18.9519  -30.1535   23.8865 C   0  0  0  0  0  0
  -17.6510  -30.6648   24.0579 C   0  0  0  0  0  0
  -25.9117  -34.9317   23.4964 C   0  0  0  0  0  0
  -16.5406  -29.9145   23.6333 C   0  0  0  0  0  0
  -16.7321  -28.6580   23.0344 C   0  0  0  0  0  0
  -26.4616  -31.6533   25.0680 C   0  0  0  0  0  0
  -25.3694  -31.3880   26.1322 C   0  0  0  0  0  0
  -27.0515  -30.2889   24.6445 C   0  0  0  0  0  0
  -27.6087  -32.4339   25.7547 C   0  0  0  0  0  0
  -27.5547  -37.1763   24.8473 C   0  0  0  0  0  0
  -21.4400  -29.3086   22.3493 N   0  0  0  0  0  0
  -26.4239  -37.3685   23.9415 N   0  0  0  0  0  0
  -24.7719  -30.9731   22.0775 N   0  0  0  0  0  0
  -23.4258  -28.7933   23.2982 O   0  0  0  0  0  0
  -28.2293  -25.6935   20.3198 O   0  0  0  0  0  0
  -26.5680  -34.8876   22.4533 O   0  0  0  0  0  0
  -23.5846  -32.1110   23.6677 O   0  0  0  0  0  0
  -27.5717  -21.4744   19.5485 C   0  0  0  0  0  0
  -28.5265  -22.4130   19.9412 C   0  0  0  0  0  0
  -29.2559  -19.9490   20.0804 C   0  0  0  0  0  0
  -31.4350  -18.6383   19.4102 C   0  0  0  0  0  0
  -26.6554  -18.1590   20.1446 C   0  0  0  0  0  0
  -27.8895  -18.2495   17.8507 C   0  0  0  0  0  0
  -28.3434  -24.1764   19.5927 C   0  0  0  0  0  0
  -30.1797  -18.4207   20.2722 C   0  0  2  0  0  0
  -27.2154  -19.0212   19.0138 C   0  0  0  0  0  0
  -28.0232  -20.1288   19.5498 N   0  0  0  0  0  0
  -29.5596  -21.3670   20.2562 N   0  3  0  0  0  0
  -29.7923  -16.7488   20.2718 N   0  0  0  0  0  0
  -31.4455  -13.1460   19.0837 H   0  0  0  0  0  0
  -30.5850  -12.0466   20.1221 H   0  0  0  0  0  0
  -29.9280  -11.7359   17.6750 H   0  0  0  0  0  0
  -29.5447  -13.4233   17.5714 H   0  0  0  0  0  0
  -28.0532  -11.2669   19.1082 H   0  0  0  0  0  0
  -27.4272  -12.2643   17.8387 H   0  0  0  0  0  0
  -27.4563  -14.2084   19.1849 H   0  0  0  0  0  0
  -28.8341  -12.6991   21.4726 H   0  0  0  0  0  0
  -28.2786  -14.3666   21.5402 H   0  0  0  0  0  0
  -25.2796   -9.5679   22.4680 H   0  0  0  0  0  0
  -24.0007   -7.4610   22.7432 H   0  0  0  0  0  0
  -21.0796   -8.8715   19.8952 H   0  0  0  0  0  0
  -22.3668  -10.9587   19.6034 H   0  0  0  0  0  0
  -21.2021   -7.6141   23.9758 H   0  0  0  0  0  0
  -21.1467   -6.0503   25.9118 H   0  0  0  0  0  0
  -22.0585   -2.7587   23.2872 H   0  0  0  0  0  0
  -22.3899  -11.9638   22.4941 H   0  0  0  0  0  0
  -21.0986  -13.1060   22.2866 H   0  0  0  0  0  0
  -24.6224  -15.8348   20.5408 H   0  0  0  0  0  0
  -26.2227  -15.6275   20.0666 H   0  0  0  0  0  0
  -26.7516  -32.5074   23.0842 H   0  0  0  0  0  0
  -25.0339  -33.9409   25.0265 H   0  0  0  0  0  0
  -22.8180  -31.2567   21.3330 H   0  0  0  0  0  0
  -23.3741  -35.9513   23.3268 H   0  0  0  0  0  0
  -24.3559  -36.8847   22.2052 H   0  0  0  0  0  0
  -23.7248  -37.6386   23.6694 H   0  0  0  0  0  0
  -26.2499  -31.3253   20.6111 H   0  0  0  0  0  0
  -26.9351  -30.6655   22.0479 H   0  0  0  0  0  0
  -28.1550  -28.5187   21.3076 H   0  0  0  0  0  0
  -25.8757  -25.6792   19.0173 H   0  0  0  0  0  0
  -24.0310  -27.2277   18.9524 H   0  0  0  0  0  0
  -23.9539  -30.5107   19.3982 H   0  0  0  0  0  0
  -22.8571  -29.2206   19.7845 H   0  0  0  0  0  0
  -25.1316  -36.1674   25.0782 H   0  0  0  0  0  0
  -21.0081  -28.3457   24.1303 H   0  0  0  0  0  0
  -20.5763  -26.2457   23.3672 H   0  0  0  0  0  0
  -21.6690  -26.7515   22.1182 H   0  0  0  0  0  0
  -19.6964  -25.6316   21.1333 H   0  0  0  0  0  0
  -19.6733  -27.3188   20.6718 H   0  0  0  0  0  0
  -17.4244  -26.6760   21.4026 H   0  0  0  0  0  0
  -18.0328  -26.0180   22.9054 H   0  0  0  0  0  0
  -19.7981  -30.7349   24.2259 H   0  0  0  0  0  0
  -17.5067  -31.6315   24.5214 H   0  0  0  0  0  0
  -15.5409  -30.3061   23.7671 H   0  0  0  0  0  0
  -15.8733  -28.0915   22.7065 H   0  0  0  0  0  0
  -24.5850  -30.7246   25.7665 H   0  0  0  0  0  0
  -24.8929  -32.3146   26.4541 H   0  0  0  0  0  0
  -25.7892  -30.9196   27.0227 H   0  0  0  0  0  0
  -26.3178  -29.6547   24.1465 H   0  0  0  0  0  0
  -27.4058  -29.7285   25.5107 H   0  0  0  0  0  0
  -27.9101  -30.4103   23.9838 H   0  0  0  0  0  0
  -27.2623  -33.3649   26.2042 H   0  0  0  0  0  0
  -28.4006  -32.6878   25.0487 H   0  0  0  0  0  0
  -28.0623  -31.8508   26.5577 H   0  0  0  0  0  0
  -28.2567  -38.0057   24.7476 H   0  0  0  0  0  0
  -28.1040  -36.2587   24.6319 H   0  0  0  0  0  0
  -27.2279  -37.1431   25.8884 H   0  0  0  0  0  0
  -20.9679  -29.8803   21.6637 H   0  0  0  0  0  0
  -26.0070  -38.2732   24.1418 H   0  0  0  0  0  0
  -26.5962  -21.6962   19.1479 H   0  0  0  0  0  0
  -31.8438  -19.6309   19.6041 H   0  0  0  0  0  0
  -31.2018  -18.5879   18.3454 H   0  0  0  0  0  0
  -32.2435  -17.9384   19.6202 H   0  0  0  0  0  0
  -25.8526  -17.5382   19.7546 H   0  0  0  0  0  0
  -26.2088  -18.7863   20.9167 H   0  0  0  0  0  0
  -27.3948  -17.5327   20.6386 H   0  0  0  0  0  0
  -27.2937  -17.4005   17.5159 H   0  0  0  0  0  0
  -28.8759  -17.8590   18.0795 H   0  0  0  0  0  0
  -28.0030  -18.8900   16.9774 H   0  0  0  0  0  0
  -27.4412  -24.1812   18.9857 H   0  0  0  0  0  0
  -29.1261  -24.3557   18.8568 H   0  0  0  0  0  0
  -30.5320  -18.5435   21.2970 H   0  0  0  0  0  0
  -26.3472  -19.4909   18.5583 H   0  0  0  0  0  0
  -30.4941  -21.6437   20.5376 H   0  0  0  0  0  0
  -28.7948  -16.6233   20.3417 H   0  0  0  0  0  0
  1 25  1  0  0  0
  1 30  2  0  0  0
  1 82  1  0  0  0
  2  3  1  0  0  0
  2 25  1  0  0  0
  2 83  1  0  0  0
  2 84  1  0  0  0
  3  4  1  0  0  0
  3 85  1  0  0  0
  3 86  1  0  0  0
  4  5  1  0  0  0
  4 87  1  0  0  0
  4 88  1  0  0  0
  5  6  1  0  0  0
  5 26  1  0  0  0
  5 89  1  0  0  0
  6 25  1  0  0  0
  6 90  1  0  0  0
  6 91  1  0  0  0
  7  8  2  0  0  0
  7 26  1  0  0  0
  7 29  1  0  0  0
  8  9  1  0  0  0
  8 22  1  0  0  0
  9 10  1  0  0  0
  9 27  2  0  0  0
 10 11  2  0  0  0
 10 15  1  0  0  0
 11 12  1  0  0  0
 11 92  1  0  0  0
 12 13  2  0  0  0
 12 93  1  0  0  0
 13 14  1  0  0  0
 13 31  1  0  0  0
 14 15  2  0  0  0
 14 94  1  0  0  0
 15 95  1  0  0  0
 16 17  2  0  0  0
 16 21  1  0  0  0
 16 31  1  0  0  0
 17 18  1  0  0  0
 17 96  1  0  0  0
 18 19  2  0  0  0
 18 97  1  0  0  0
 19 20  1  0  0  0
 19 24  1  0  0  0
 20 21  2  0  0  0
 20 98  1  0  0  0
 21 23  1  0  0  0
 22 28  1  0  0  0
 22 32  2  0  0  0
 26 27  1  0  0  0
 28 99  1  0  0  0
 28100  1  0  0  0
 29101  1  0  0  0
 29102  1  0  0  0
 33 34  1  0  0  0
 33 66  1  0  0  0
 33 70  2  0  0  0
 34 36  1  0  0  0
 34 59  1  0  0  0
 34103  1  0  0  0
 35 44  2  0  0  0
 35 45  1  0  0  0
 35 68  1  0  0  0
 36 56  1  0  0  0
 36104  1  0  0  0
 37 39  1  0  0  0
 37 47  1  0  0  0
 37 66  1  0  0  0
 37105  1  0  0  0
 38 43  2  0  0  0
 38 46  1  0  0  0
 38 47  1  0  0  0
 39 64  1  0  0  0
 39 67  2  0  0  0
 40 52  1  0  0  0
 40 53  2  0  0  0
 40 58  1  0  0  0
 41106  1  0  0  0
 41107  1  0  0  0
 41108  1  0  0  0
 41 48  1  0  0  0
 42 43  1  0  0  0
 42 66  1  0  0  0
 42109  1  0  0  0
 42110  1  0  0  0
 43 44  1  0  0  0
 44111  1  0  0  0
 45 46  2  0  0  0
 45112  1  0  0  0
 46113  1  0  0  0
 47114  1  0  0  0
 47115  1  0  0  0
 48 56  1  0  0  0
 48 65  1  0  0  0
 48116  1  0  0  0
 49 50  1  0  0  0
 49 53  1  0  0  0
 49 64  1  0  0  0
 49117  1  0  0  0
 50 51  1  0  0  0
 50118  1  0  0  0
 50119  1  0  0  0
 51 52  1  0  0  0
 51120  1  0  0  0
 51121  1  0  0  0
 52122  1  0  0  0
 52123  1  0  0  0
 53 54  1  0  0  0
 54 55  2  0  0  0
 54124  1  0  0  0
 55 57  1  0  0  0
 55125  1  0  0  0
 56 69  2  0  0  0
 57 58  2  0  0  0
 57126  1  0  0  0
 58127  1  0  0  0
 59 60  1  0  0  0
 59 61  1  0  0  0
 59 62  1  0  0  0
 60128  1  0  0  0
 60129  1  0  0  0
 60130  1  0  0  0
 61131  1  0  0  0
 61132  1  0  0  0
 61133  1  0  0  0
 62134  1  0  0  0
 62135  1  0  0  0
 62136  1  0  0  0
 63 65  1  0  0  0
 63137  1  0  0  0
 63138  1  0  0  0
 63139  1  0  0  0
 64140  1  0  0  0
 65141  1  0  0  0
 68 77  1  0  0  0
 71 72  2  0  0  0
 71 80  1  0  0  0
 71142  1  0  0  0
 72 77  1  0  0  0
 72 81  1  0  0  0
 73 78  1  0  0  0
 73 80  1  0  0  0
 73 81  2  0  0  0
 74143  1  0  0  0
 74144  1  0  0  0
 74145  1  0  0  0
 74 78  1  0  0  0
 75146  1  0  0  0
 75147  1  0  0  0
 75148  1  0  0  0
 75 79  1  0  0  0
 76 79  1  0  0  0
 76149  1  0  0  0
 76150  1  0  0  0
 76151  1  0  0  0
 77152  1  0  0  0
 77153  1  0  0  0
 78 82  1  0  0  0
 78154  1  0  0  0
 79 80  1  0  0  0
 79155  1  0  0  0
 81156  1  0  0  0
 82157  1  0  0  0
M  CHG  1  81   1
M  ISO  4   1 100  68 101  77 101  82 100
M  END
> <chiral flag>
0

> <version>
0

> <s_m_source_file>
/data/baiqing/PycharmProjects/Reinvent-master-3.2/result/LINK_invent/BTK/process_docking_weight1_custom_sum_contain_oxygen_bond_distance_aromatic_linkinvent_7_9_3/rearranged_h_0058.sdf

> <i_m_source_file_index>
30

> <r_mmod_Potential_Energy-OPLS-2005>
1584.62512207031

> <r_mmod_Stretch_Energy-OPLS-2005>
728.683227539062

> <r_mmod_Bend_Energy-OPLS-2005>
572.504821777344

> <r_mmod_Torsional_Energy-OPLS-2005>
255.201629638672

> <r_mmod_Improper_Torsional_Energy-OPLS-2005>
8.51619815826416

> <r_mmod_Van_der_Waal_Energy-OPLS-2005>
105.214004516602

> <r_mmod_Electrostatic_Energy-OPLS-2005>
-258.618713378906

> <r_mmod_Solvation_Energy-OPLS-2005>
-439.544250488281

> <b_mmod_Minimization_Converged-OPLS-2005>
0

> <r_mmod_RMS_Derivative-OPLS-2005>
8.23503303527832

$$$$
30
                    3D
 Structure written by MMmdl.
159167  0  0  1  0            999 V2000
  -30.6267  -14.7228   20.5092 C   0  0  0  0  0  0
  -30.4289  -12.4524   19.4667 C   0  0  0  0  0  0
  -29.5061  -12.5205   18.2310 C   0  0  0  0  0  0
  -28.0300  -12.3460   18.6382 C   0  0  0  0  0  0
  -27.6441  -13.2308   19.8544 C   0  0  2  0  0  0
  -28.6858  -13.1299   20.9877 C   0  0  0  0  0  0
  -25.2530  -13.8223   20.5690 C   0  0  0  0  0  0
  -24.1807  -13.0464   20.9179 C   0  0  0  0  0  0
  -24.6406  -11.6937   20.8733 C   0  0  0  0  0  0
  -23.9101  -10.4299   21.0385 C   0  0  0  0  0  0
  -24.3652   -9.4216   21.9162 C   0  0  0  0  0  0
  -23.6320   -8.2262   22.0744 C   0  0  0  0  0  0
  -22.4295   -8.0295   21.3552 C   0  0  0  0  0  0
  -21.9945   -9.0264   20.4643 C   0  0  0  0  0  0
  -22.7280  -10.2138   20.3035 C   0  0  0  0  0  0
  -21.6874   -6.0747   22.5294 C   0  0  0  0  0  0
  -21.4020   -6.5640   23.8229 C   0  0  0  0  0  0
  -21.3654   -5.6785   24.9185 C   0  0  0  0  0  0
  -21.6046   -4.3050   24.7226 C   0  0  0  0  0  0
  -21.8826   -3.8155   23.4346 C   0  0  0  0  0  0
  -21.9203   -4.6978   22.3412 C   0  0  0  0  0  0
  -22.7824  -13.5228   21.1848 C   0  0  0  0  0  0
  -22.1661   -4.2170   21.0985 F   0  0  0  0  0  0
  -21.5626   -3.4511   25.7726 F   0  0  0  0  0  0
  -29.9912  -13.5006   20.4224 N   0  0  0  0  0  0
  -26.2950  -12.9421   20.3295 N   0  0  0  0  0  0
  -25.9335  -11.6569   20.5750 N   0  0  0  0  0  0
  -22.0485  -12.8197   22.0400 N   0  0  0  0  0  0
  -25.4284  -15.1947   20.4173 N   0  0  0  0  0  0
  -31.7667  -14.8435   20.0471 O   0  0  0  0  0  0
  -21.6674   -6.8881   21.4251 O   0  0  0  0  0  0
  -22.3484  -14.5522   20.6692 O   0  0  0  0  0  0
  -24.6312  -31.8547   23.1971 C   0  0  0  0  0  0
  -25.9139  -32.4750   23.8318 C   0  0  1  0  0  0
  -27.2246  -27.2588   20.1227 C   0  0  0  0  0  0
  -25.5941  -33.8553   24.2269 N   0  0  0  0  0  0
  -23.4273  -30.4765   21.5412 C   0  0  2  0  0  0
  -24.8737  -28.9206   20.1096 C   0  0  0  0  0  0
  -22.7512  -29.4593   22.4915 C   0  0  0  0  0  0
  -18.0299  -28.1369   22.8501 C   0  0  0  0  0  0
  -24.1491  -36.7269   23.2644 C   0  0  0  0  0  0
  -25.9728  -30.7679   21.3747 C   0  0  0  0  0  0
  -26.0436  -29.3891   20.7178 C   0  0  0  0  0  0
  -27.2173  -28.5695   20.7140 C   0  0  0  0  0  0
  -26.0240  -26.8519   19.4972 C   0  0  0  0  0  0
  -24.8695  -27.6615   19.4896 C   0  0  0  0  0  0
  -23.6434  -29.8075   20.1576 C   0  0  0  0  0  0
  -25.4119  -36.3071   24.0339 C   0  0  1  0  0  0
  -20.5906  -28.3683   23.1281 C   0  0  2  0  0  0
  -20.6783  -26.9398   22.5422 C   0  0  0  0  0  0
  -19.5758  -26.6370   21.5229 C   0  0  0  0  0  0
  -18.1935  -26.7916   22.1631 C   0  0  0  0  0  0
  -19.1552  -28.8844   23.2884 C   0  0  0  0  0  0
  -18.9462  -30.1445   23.8903 C   0  0  0  0  0  0
  -17.6454  -30.6569   24.0558 C   0  0  0  0  0  0
  -25.9059  -34.9438   23.5110 C   0  0  0  0  0  0
  -16.5352  -29.9064   23.6315 C   0  0  0  0  0  0
  -16.7284  -28.6476   23.0359 C   0  0  0  0  0  0
  -26.4522  -31.6565   25.0697 C   0  0  0  0  0  0
  -25.3753  -31.3669   26.1416 C   0  0  0  0  0  0
  -27.0373  -30.2997   24.6145 C   0  0  0  0  0  0
  -27.6079  -32.4306   25.7461 C   0  0  0  0  0  0
  -27.5585  -37.1789   24.8470 C   0  0  0  0  0  0
  -21.4217  -29.3033   22.3673 N   0  0  0  0  0  0
  -26.4293  -37.3772   23.9418 N   0  0  0  0  0  0
  -24.6964  -31.0514   22.0943 N   0  0  0  0  0  0
  -23.4225  -28.8143   23.3015 O   0  0  0  0  0  0
  -28.3514  -26.4043   20.2041 O   0  0  0  0  0  0
  -26.5630  -34.8914   22.4679 O   0  0  0  0  0  0
  -23.5464  -32.1370   23.7274 O   0  0  0  0  0  0
  -27.6851  -19.5411   21.9323 C   0  0  0  0  0  0
  -28.8656  -20.8516   20.5599 C   0  0  0  0  0  0
  -29.2669  -18.5544   20.6890 C   0  0  0  0  0  0
  -26.6176  -19.4182   22.9982 C   0  0  0  0  0  0
  -29.3434  -16.9440   18.7337 C   0  0  0  0  0  0
  -29.7771  -15.9628   22.3699 C   0  0  0  0  0  0
  -28.9479  -22.2581   19.8112 C   0  0  0  0  0  0
  -28.5699  -23.6687   20.5333 C   0  0  0  0  0  0
  -28.4361  -25.0130   19.6343 C   0  0  0  0  0  0
  -29.9296  -17.1969   20.1400 C   0  0  2  0  0  0
  -27.9042  -20.7667   21.4671 N   0  0  0  0  0  0
  -28.2845  -18.4122   21.5687 N   0  0  0  0  0  0
  -29.5909  -19.7681   20.1411 N   0  0  0  0  0  0
  -29.9099  -15.8507   20.9089 N   0  0  0  0  0  0
  -31.4685  -12.5757   19.1563 H   0  0  0  0  0  0
  -30.3780  -11.4660   19.9318 H   0  0  0  0  0  0
  -29.7909  -11.7570   17.5054 H   0  0  0  0  0  0
  -29.6318  -13.4797   17.7268 H   0  0  0  0  0  0
  -27.8688  -11.2933   18.8772 H   0  0  0  0  0  0
  -27.3805  -12.5652   17.7889 H   0  0  0  0  0  0
  -27.6476  -14.2611   19.4982 H   0  0  0  0  0  0
  -28.7218  -12.1183   21.3929 H   0  0  0  0  0  0
  -28.3972  -13.7736   21.8170 H   0  0  0  0  0  0
  -25.2794   -9.5695   22.4746 H   0  0  0  0  0  0
  -24.0034   -7.4657   22.7466 H   0  0  0  0  0  0
  -21.0879   -8.8791   19.8947 H   0  0  0  0  0  0
  -22.3736  -10.9679   19.6149 H   0  0  0  0  0  0
  -21.2004   -7.6148   23.9731 H   0  0  0  0  0  0
  -21.1472   -6.0512   25.9087 H   0  0  0  0  0  0
  -22.0617   -2.7620   23.2849 H   0  0  0  0  0  0
  -22.4087  -11.9833   22.4763 H   0  0  0  0  0  0
  -21.1111  -13.1231   22.2619 H   0  0  0  0  0  0
  -24.6746  -15.8589   20.5489 H   0  0  0  0  0  0
  -26.3076  -15.6394   20.1868 H   0  0  0  0  0  0
  -26.7200  -32.5404   23.1049 H   0  0  0  0  0  0
  -25.0103  -33.9686   25.0427 H   0  0  0  0  0  0
  -22.7225  -31.2981   21.3952 H   0  0  0  0  0  0
  -23.3771  -35.9579   23.3294 H   0  0  0  0  0  0
  -24.3581  -36.8903   22.2059 H   0  0  0  0  0  0
  -23.7216  -37.6458   23.6668 H   0  0  0  0  0  0
  -26.1097  -31.5260   20.6022 H   0  0  0  0  0  0
  -26.8514  -30.8195   22.0060 H   0  0  0  0  0  0
  -28.1140  -28.9243   21.2025 H   0  0  0  0  0  0
  -25.9247  -25.8853   19.0310 H   0  0  0  0  0  0
  -23.9704  -27.2974   19.0119 H   0  0  0  0  0  0
  -23.7628  -30.5816   19.3982 H   0  0  0  0  0  0
  -22.7620  -29.2378   19.8568 H   0  0  0  0  0  0
  -25.1297  -36.1922   25.0830 H   0  0  0  0  0  0
  -21.0004  -28.3261   24.1401 H   0  0  0  0  0  0
  -20.5683  -26.2300   23.3634 H   0  0  0  0  0  0
  -21.6649  -26.7414   22.1216 H   0  0  0  0  0  0
  -19.6910  -25.6283   21.1251 H   0  0  0  0  0  0
  -19.6680  -27.3191   20.6768 H   0  0  0  0  0  0
  -17.4216  -26.6706   21.4013 H   0  0  0  0  0  0
  -18.0294  -26.0039   22.9001 H   0  0  0  0  0  0
  -19.7931  -30.7267   24.2286 H   0  0  0  0  0  0
  -17.4995  -31.6249   24.5156 H   0  0  0  0  0  0
  -15.5350  -30.2958   23.7610 H   0  0  0  0  0  0
  -15.8697  -28.0774   22.7080 H   0  0  0  0  0  0
  -24.5939  -30.7020   25.7718 H   0  0  0  0  0  0
  -24.8926  -32.2810   26.4875 H   0  0  0  0  0  0
  -25.8074  -30.8808   27.0171 H   0  0  0  0  0  0
  -26.2936  -29.6726   24.1213 H   0  0  0  0  0  0
  -27.4143  -29.7265   25.4625 H   0  0  0  0  0  0
  -27.8776  -30.4303   23.9322 H   0  0  0  0  0  0
  -27.2703  -33.3616   26.2023 H   0  0  0  0  0  0
  -28.3880  -32.6856   25.0276 H   0  0  0  0  0  0
  -28.0760  -31.8443   26.5379 H   0  0  0  0  0  0
  -28.2599  -38.0094   24.7544 H   0  0  0  0  0  0
  -28.1091  -36.2628   24.6265 H   0  0  0  0  0  0
  -27.2306  -37.1398   25.8875 H   0  0  0  0  0  0
  -20.9412  -29.8752   21.6866 H   0  0  0  0  0  0
  -26.0177  -38.2847   24.1423 H   0  0  0  0  0  0
  -25.9135  -20.2497   22.9467 H   0  0  0  0  0  0
  -27.0755  -19.4272   23.9882 H   0  0  0  0  0  0
  -26.0535  -18.4909   22.8912 H   0  0  0  0  0  0
  -29.4787  -17.8170   18.0950 H   0  0  0  0  0  0
  -28.2715  -16.7492   18.7908 H   0  0  0  0  0  0
  -29.8121  -16.1043   18.2213 H   0  0  0  0  0  0
  -30.2180  -16.8857   22.7446 H   0  0  0  0  0  0
  -30.2628  -15.1502   22.9143 H   0  0  0  0  0  0
  -28.7229  -15.9501   22.6502 H   0  0  0  0  0  0
  -28.3064  -22.1558   18.9360 H   0  0  0  0  0  0
  -29.9562  -22.3476   19.4059 H   0  0  0  0  0  0
  -29.3045  -23.8445   21.3188 H   0  0  0  0  0  0
  -27.6187  -23.5348   21.0492 H   0  0  0  0  0  0
  -27.6722  -24.8399   18.8821 H   0  0  0  0  0  0
  -29.3478  -25.0494   19.0386 H   0  0  0  0  0  0
  -30.9868  -17.4359   20.0096 H   0  0  0  0  0  0
  1 25  1  0  0  0
  1 30  2  0  0  0
  1 84  1  0  0  0
  2  3  1  0  0  0
  2 25  1  0  0  0
  2 85  1  0  0  0
  2 86  1  0  0  0
  3  4  1  0  0  0
  3 87  1  0  0  0
  3 88  1  0  0  0
  4  5  1  0  0  0
  4 89  1  0  0  0
  4 90  1  0  0  0
  5  6  1  0  0  0
  5 26  1  0  0  0
  5 91  1  0  0  0
  6 25  1  0  0  0
  6 92  1  0  0  0
  6 93  1  0  0  0
  7  8  2  0  0  0
  7 26  1  0  0  0
  7 29  1  0  0  0
  8  9  1  0  0  0
  8 22  1  0  0  0
  9 10  1  0  0  0
  9 27  2  0  0  0
 10 11  2  0  0  0
 10 15  1  0  0  0
 11 12  1  0  0  0
 11 94  1  0  0  0
 12 13  2  0  0  0
 12 95  1  0  0  0
 13 14  1  0  0  0
 13 31  1  0  0  0
 14 15  2  0  0  0
 14 96  1  0  0  0
 15 97  1  0  0  0
 16 17  2  0  0  0
 16 21  1  0  0  0
 16 31  1  0  0  0
 17 18  1  0  0  0
 17 98  1  0  0  0
 18 19  2  0  0  0
 18 99  1  0  0  0
 19 20  1  0  0  0
 19 24  1  0  0  0
 20 21  2  0  0  0
 20100  1  0  0  0
 21 23  1  0  0  0
 22 28  1  0  0  0
 22 32  2  0  0  0
 26 27  1  0  0  0
 28101  1  0  0  0
 28102  1  0  0  0
 29103  1  0  0  0
 29104  1  0  0  0
 33 34  1  0  0  0
 33 66  1  0  0  0
 33 70  2  0  0  0
 34 36  1  0  0  0
 34 59  1  0  0  0
 34105  1  0  0  0
 35 44  2  0  0  0
 35 45  1  0  0  0
 35 68  1  0  0  0
 36 56  1  0  0  0
 36106  1  0  0  0
 37 39  1  0  0  0
 37 47  1  0  0  0
 37 66  1  0  0  0
 37107  1  0  0  0
 38 43  2  0  0  0
 38 46  1  0  0  0
 38 47  1  0  0  0
 39 64  1  0  0  0
 39 67  2  0  0  0
 40 52  1  0  0  0
 40 53  2  0  0  0
 40 58  1  0  0  0
 41108  1  0  0  0
 41109  1  0  0  0
 41110  1  0  0  0
 41 48  1  0  0  0
 42 43  1  0  0  0
 42 66  1  0  0  0
 42111  1  0  0  0
 42112  1  0  0  0
 43 44  1  0  0  0
 44113  1  0  0  0
 45 46  2  0  0  0
 45114  1  0  0  0
 46115  1  0  0  0
 47116  1  0  0  0
 47117  1  0  0  0
 48 56  1  0  0  0
 48 65  1  0  0  0
 48118  1  0  0  0
 49 50  1  0  0  0
 49 53  1  0  0  0
 49 64  1  0  0  0
 49119  1  0  0  0
 50 51  1  0  0  0
 50120  1  0  0  0
 50121  1  0  0  0
 51 52  1  0  0  0
 51122  1  0  0  0
 51123  1  0  0  0
 52124  1  0  0  0
 52125  1  0  0  0
 53 54  1  0  0  0
 54 55  2  0  0  0
 54126  1  0  0  0
 55 57  1  0  0  0
 55127  1  0  0  0
 56 69  2  0  0  0
 57 58  2  0  0  0
 57128  1  0  0  0
 58129  1  0  0  0
 59 60  1  0  0  0
 59 61  1  0  0  0
 59 62  1  0  0  0
 60130  1  0  0  0
 60131  1  0  0  0
 60132  1  0  0  0
 61133  1  0  0  0
 61134  1  0  0  0
 61135  1  0  0  0
 62136  1  0  0  0
 62137  1  0  0  0
 62138  1  0  0  0
 63 65  1  0  0  0
 63139  1  0  0  0
 63140  1  0  0  0
 63141  1  0  0  0
 64142  1  0  0  0
 65143  1  0  0  0
 68 79  1  0  0  0
 71 74  1  0  0  0
 71 81  2  0  0  0
 71 82  1  0  0  0
 72 77  1  0  0  0
 72 81  1  0  0  0
 72 83  2  0  0  0
 73 80  1  0  0  0
 73 82  2  0  0  0
 73 83  1  0  0  0
 74144  1  0  0  0
 74145  1  0  0  0
 74146  1  0  0  0
 75147  1  0  0  0
 75148  1  0  0  0
 75149  1  0  0  0
 75 80  1  0  0  0
 76 84  1  0  0  0
 76150  1  0  0  0
 76151  1  0  0  0
 76152  1  0  0  0
 77 78  1  0  0  0
 77153  1  0  0  0
 77154  1  0  0  0
 78 79  1  0  0  0
 78155  1  0  0  0
 78156  1  0  0  0
 79157  1  0  0  0
 79158  1  0  0  0
 80 84  1  0  0  0
 80159  1  0  0  0
M  ISO  4   1 100  68 101  79 101  84 100
M  END
> <chiral flag>
0

> <version>
0

> <s_m_source_file>
/data/baiqing/PycharmProjects/Reinvent-master-3.2/result/LINK_invent/BTK/process_docking_weight1_custom_sum_contain_oxygen_bond_distance_aromatic_linkinvent_7_9_3/rearranged_h_0058.sdf

> <i_m_source_file_index>
31

> <r_mmod_Potential_Energy-OPLS-2005>
-475.484313964844

> <r_mmod_Stretch_Energy-OPLS-2005>
131.874801635742

> <r_mmod_Bend_Energy-OPLS-2005>
189.111801147461

> <r_mmod_Torsional_Energy-OPLS-2005>
248.498916625977

> <r_mmod_Improper_Torsional_Energy-OPLS-2005>
8.94971179962158

> <r_mmod_Van_der_Waal_Energy-OPLS-2005>
159.063278198242

> <r_mmod_Electrostatic_Energy-OPLS-2005>
-1072.60974121094

> <r_mmod_Solvation_Energy-OPLS-2005>
-215.836853027344

> <b_mmod_Minimization_Converged-OPLS-2005>
0

> <r_mmod_RMS_Derivative-OPLS-2005>
2.11310267448425

$$$$
31
                    3D
 Structure written by MMmdl.
152160  0  0  1  0            999 V2000
  -30.6263  -14.7522   20.4783 C   0  0  0  0  0  0
  -30.4286  -12.4652   19.4672 C   0  0  0  0  0  0
  -29.5088  -12.5145   18.2281 C   0  0  0  0  0  0
  -28.0343  -12.3382   18.6423 C   0  0  0  0  0  0
  -27.6395  -13.2360   19.8463 C   0  0  2  0  0  0
  -28.6871  -13.1733   20.9791 C   0  0  0  0  0  0
  -25.2499  -13.8204   20.5696 C   0  0  0  0  0  0
  -24.1798  -13.0445   20.9207 C   0  0  0  0  0  0
  -24.6393  -11.6926   20.8748 C   0  0  0  0  0  0
  -23.9072  -10.4295   21.0408 C   0  0  0  0  0  0
  -24.3618   -9.4204   21.9181 C   0  0  0  0  0  0
  -23.6284   -8.2243   22.0761 C   0  0  0  0  0  0
  -22.4262   -8.0284   21.3549 C   0  0  0  0  0  0
  -21.9898   -9.0263   20.4657 C   0  0  0  0  0  0
  -22.7244  -10.2134   20.3059 C   0  0  0  0  0  0
  -21.6851   -6.0729   22.5277 C   0  0  0  0  0  0
  -21.4027   -6.5634   23.8210 C   0  0  0  0  0  0
  -21.3664   -5.6789   24.9172 C   0  0  0  0  0  0
  -21.6037   -4.3048   24.7221 C   0  0  0  0  0  0
  -21.8820   -3.8141   23.4343 C   0  0  0  0  0  0
  -21.9194   -4.6961   22.3402 C   0  0  0  0  0  0
  -22.7818  -13.5229   21.1849 C   0  0  0  0  0  0
  -22.1660   -4.2148   21.0977 F   0  0  0  0  0  0
  -21.5624   -3.4530   25.7733 F   0  0  0  0  0  0
  -29.9823  -13.5348   20.3911 N   0  0  0  0  0  0
  -26.2928  -12.9426   20.3263 N   0  0  0  0  0  0
  -25.9319  -11.6562   20.5733 N   0  0  0  0  0  0
  -22.0452  -12.8237   22.0410 N   0  0  0  0  0  0
  -25.4161  -15.1933   20.4125 N   0  0  0  0  0  0
  -31.8165  -14.8165   20.1653 O   0  0  0  0  0  0
  -21.6638   -6.8869   21.4233 O   0  0  0  0  0  0
  -22.3505  -14.5525   20.6687 O   0  0  0  0  0  0
  -24.6325  -31.8551   23.1956 C   0  0  0  0  0  0
  -25.9140  -32.4764   23.8318 C   0  0  1  0  0  0
  -27.2179  -27.2411   20.1436 C   0  0  0  0  0  0
  -25.5936  -33.8564   24.2247 N   0  0  0  0  0  0
  -23.4310  -30.4757   21.5401 C   0  0  2  0  0  0
  -24.8802  -28.9167   20.1134 C   0  0  0  0  0  0
  -22.7519  -29.4590   22.4902 C   0  0  0  0  0  0
  -18.0305  -28.1376   22.8494 C   0  0  0  0  0  0
  -24.1487  -36.7273   23.2637 C   0  0  0  0  0  0
  -25.9789  -30.7601   21.3808 C   0  0  0  0  0  0
  -26.0523  -29.3799   20.7250 C   0  0  0  0  0  0
  -27.2266  -28.5561   20.7263 C   0  0  0  0  0  0
  -26.0269  -26.8534   19.4945 C   0  0  0  0  0  0
  -24.8725  -27.6616   19.4862 C   0  0  0  0  0  0
  -23.6529  -29.8083   20.1572 C   0  0  0  0  0  0
  -25.4116  -36.3077   24.0329 C   0  0  1  0  0  0
  -20.5911  -28.3687   23.1268 C   0  0  2  0  0  0
  -20.6787  -26.9402   22.5405 C   0  0  0  0  0  0
  -19.5756  -26.6369   21.5216 C   0  0  0  0  0  0
  -18.1942  -26.7919   22.1632 C   0  0  0  0  0  0
  -19.1559  -28.8850   23.2877 C   0  0  0  0  0  0
  -18.9475  -30.1453   23.8891 C   0  0  0  0  0  0
  -17.6470  -30.6579   24.0552 C   0  0  0  0  0  0
  -25.9058  -34.9448   23.5089 C   0  0  0  0  0  0
  -16.5362  -29.9070   23.6325 C   0  0  0  0  0  0
  -16.7290  -28.6483   23.0360 C   0  0  0  0  0  0
  -26.4489  -31.6599   25.0720 C   0  0  0  0  0  0
  -25.3698  -31.3766   26.1434 C   0  0  0  0  0  0
  -27.0331  -30.3016   24.6208 C   0  0  0  0  0  0
  -27.6034  -32.4349   25.7500 C   0  0  0  0  0  0
  -27.5588  -37.1790   24.8462 C   0  0  0  0  0  0
  -21.4227  -29.3036   22.3655 N   0  0  0  0  0  0
  -26.4289  -37.3779   23.9421 N   0  0  0  0  0  0
  -24.6997  -31.0495   22.0943 N   0  0  0  0  0  0
  -23.4215  -28.8128   23.3005 O   0  0  0  0  0  0
  -28.2997  -26.3247   20.1703 O   0  0  0  0  0  0
  -26.5624  -34.8926   22.4658 O   0  0  0  0  0  0
  -23.5467  -32.1383   23.7231 O   0  0  0  0  0  0
  -29.2030  -20.1909   19.1854 C   0  0  0  0  0  0
  -29.6711  -18.6467   20.5523 C   0  0  0  0  0  0
  -31.8028  -17.5115   21.3323 C   0  0  0  0  0  0
  -28.8487  -23.5735   20.1211 C   0  0  0  0  0  0
  -28.4888  -22.1381   20.8116 C   0  0  0  0  0  0
  -28.0410  -24.9027   20.6258 C   0  0  0  0  0  0
  -30.2793  -17.3257   21.1875 C   0  0  2  0  0  0
  -29.5880  -18.8952   19.2058 N   0  0  0  0  0  0
  -29.3680  -19.7555   21.2899 N   0  0  0  0  0  0
  -29.0736  -20.7798   20.3840 N   0  0  0  0  0  0
  -29.8864  -15.8970   20.7578 N   0  0  0  0  0  0
  -31.4714  -12.5806   19.1676 H   0  0  0  0  0  0
  -30.3661  -11.4896   19.9530 H   0  0  0  0  0  0
  -29.7922  -11.7409   17.5122 H   0  0  0  0  0  0
  -29.6362  -13.4689   17.7140 H   0  0  0  0  0  0
  -27.8890  -11.2892   18.9009 H   0  0  0  0  0  0
  -27.3782  -12.5352   17.7933 H   0  0  0  0  0  0
  -27.6311  -14.2581   19.4663 H   0  0  0  0  0  0
  -28.7290  -12.1738   21.4155 H   0  0  0  0  0  0
  -28.4219  -13.8490   21.7937 H   0  0  0  0  0  0
  -25.2764   -9.5676   22.4752 H   0  0  0  0  0  0
  -23.9994   -7.4635   22.7485 H   0  0  0  0  0  0
  -21.0822   -8.8795   19.8967 H   0  0  0  0  0  0
  -22.3709  -10.9673   19.6169 H   0  0  0  0  0  0
  -21.2029   -7.6146   23.9712 H   0  0  0  0  0  0
  -21.1483   -6.0517   25.9072 H   0  0  0  0  0  0
  -22.0592   -2.7600   23.2844 H   0  0  0  0  0  0
  -22.4069  -11.9922   22.4838 H   0  0  0  0  0  0
  -21.1082  -13.1294   22.2609 H   0  0  0  0  0  0
  -24.6392  -15.8374   20.5144 H   0  0  0  0  0  0
  -26.2499  -15.6380   20.0521 H   0  0  0  0  0  0
  -26.7201  -32.5412   23.1052 H   0  0  0  0  0  0
  -25.0124  -33.9696   25.0421 H   0  0  0  0  0  0
  -22.7282  -31.2980   21.3913 H   0  0  0  0  0  0
  -23.3775  -35.9578   23.3277 H   0  0  0  0  0  0
  -24.3581  -36.8917   22.2055 H   0  0  0  0  0  0
  -23.7203  -37.6454   23.6669 H   0  0  0  0  0  0
  -26.1235  -31.5185   20.6102 H   0  0  0  0  0  0
  -26.8534  -30.8087   22.0169 H   0  0  0  0  0  0
  -28.1239  -28.9039   21.2182 H   0  0  0  0  0  0
  -25.9746  -25.8963   18.9954 H   0  0  0  0  0  0
  -23.9777  -27.3019   18.9973 H   0  0  0  0  0  0
  -23.7842  -30.5842   19.4024 H   0  0  0  0  0  0
  -22.7698  -29.2470   19.8476 H   0  0  0  0  0  0
  -25.1293  -36.1921   25.0820 H   0  0  0  0  0  0
  -21.0008  -28.3262   24.1386 H   0  0  0  0  0  0
  -20.5689  -26.2294   23.3614 H   0  0  0  0  0  0
  -21.6654  -26.7418   22.1197 H   0  0  0  0  0  0
  -19.6906  -25.6275   21.1258 H   0  0  0  0  0  0
  -19.6689  -27.3169   20.6740 H   0  0  0  0  0  0
  -17.4208  -26.6679   21.4036 H   0  0  0  0  0  0
  -18.0330  -26.0065   22.9031 H   0  0  0  0  0  0
  -19.7951  -30.7273   24.2261 H   0  0  0  0  0  0
  -17.5021  -31.6265   24.5141 H   0  0  0  0  0  0
  -15.5361  -30.2957   23.7648 H   0  0  0  0  0  0
  -15.8700  -28.0783   22.7081 H   0  0  0  0  0  0
  -24.5870  -30.7116   25.7763 H   0  0  0  0  0  0
  -24.8889  -32.2942   26.4835 H   0  0  0  0  0  0
  -25.8004  -30.8963   27.0228 H   0  0  0  0  0  0
  -26.2909  -29.6785   24.1202 H   0  0  0  0  0  0
  -27.3982  -29.7265   25.4725 H   0  0  0  0  0  0
  -27.8804  -30.4302   23.9469 H   0  0  0  0  0  0
  -27.2632  -33.3664   26.2037 H   0  0  0  0  0  0
  -28.3862  -32.6891   25.0342 H   0  0  0  0  0  0
  -28.0672  -31.8504   26.5454 H   0  0  0  0  0  0
  -28.2575  -38.0118   24.7562 H   0  0  0  0  0  0
  -28.1121  -36.2657   24.6226 H   0  0  0  0  0  0
  -27.2318  -37.1356   25.8864 H   0  0  0  0  0  0
  -20.9405  -29.8776   21.6878 H   0  0  0  0  0  0
  -26.0175  -38.2851   24.1445 H   0  0  0  0  0  0
  -28.9816  -20.7158   18.2649 H   0  0  0  0  0  0
  -32.0327  -18.4453   21.8466 H   0  0  0  0  0  0
  -32.2907  -17.5422   20.3583 H   0  0  0  0  0  0
  -32.2597  -16.7137   21.9171 H   0  0  0  0  0  0
  -28.6991  -23.4807   19.0459 H   0  0  0  0  0  0
  -29.9165  -23.7513   20.2524 H   0  0  0  0  0  0
  -27.4074  -22.0215   20.7349 H   0  0  0  0  0  0
  -28.6795  -22.2376   21.8802 H   0  0  0  0  0  0
  -28.1796  -24.9408   21.7069 H   0  0  0  0  0  0
  -26.9826  -24.6694   20.5166 H   0  0  0  0  0  0
  -29.9083  -17.3390   22.2132 H   0  0  0  0  0  0
  -28.8968  -15.7265   20.8396 H   0  0  0  0  0  0
  1 25  1  0  0  0
  1 30  2  0  0  0
  1 81  1  0  0  0
  2  3  1  0  0  0
  2 25  1  0  0  0
  2 82  1  0  0  0
  2 83  1  0  0  0
  3  4  1  0  0  0
  3 84  1  0  0  0
  3 85  1  0  0  0
  4  5  1  0  0  0
  4 86  1  0  0  0
  4 87  1  0  0  0
  5  6  1  0  0  0
  5 26  1  0  0  0
  5 88  1  0  0  0
  6 25  1  0  0  0
  6 89  1  0  0  0
  6 90  1  0  0  0
  7  8  2  0  0  0
  7 26  1  0  0  0
  7 29  1  0  0  0
  8  9  1  0  0  0
  8 22  1  0  0  0
  9 10  1  0  0  0
  9 27  2  0  0  0
 10 11  2  0  0  0
 10 15  1  0  0  0
 11 12  1  0  0  0
 11 91  1  0  0  0
 12 13  2  0  0  0
 12 92  1  0  0  0
 13 14  1  0  0  0
 13 31  1  0  0  0
 14 15  2  0  0  0
 14 93  1  0  0  0
 15 94  1  0  0  0
 16 17  2  0  0  0
 16 21  1  0  0  0
 16 31  1  0  0  0
 17 18  1  0  0  0
 17 95  1  0  0  0
 18 19  2  0  0  0
 18 96  1  0  0  0
 19 20  1  0  0  0
 19 24  1  0  0  0
 20 21  2  0  0  0
 20 97  1  0  0  0
 21 23  1  0  0  0
 22 28  1  0  0  0
 22 32  2  0  0  0
 26 27  1  0  0  0
 28 98  1  0  0  0
 28 99  1  0  0  0
 29100  1  0  0  0
 29101  1  0  0  0
 33 34  1  0  0  0
 33 66  1  0  0  0
 33 70  2  0  0  0
 34 36  1  0  0  0
 34 59  1  0  0  0
 34102  1  0  0  0
 35 44  2  0  0  0
 35 45  1  0  0  0
 35 68  1  0  0  0
 36 56  1  0  0  0
 36103  1  0  0  0
 37 39  1  0  0  0
 37 47  1  0  0  0
 37 66  1  0  0  0
 37104  1  0  0  0
 38 43  2  0  0  0
 38 46  1  0  0  0
 38 47  1  0  0  0
 39 64  1  0  0  0
 39 67  2  0  0  0
 40 52  1  0  0  0
 40 53  2  0  0  0
 40 58  1  0  0  0
 41105  1  0  0  0
 41106  1  0  0  0
 41107  1  0  0  0
 41 48  1  0  0  0
 42 43  1  0  0  0
 42 66  1  0  0  0
 42108  1  0  0  0
 42109  1  0  0  0
 43 44  1  0  0  0
 44110  1  0  0  0
 45 46  2  0  0  0
 45111  1  0  0  0
 46112  1  0  0  0
 47113  1  0  0  0
 47114  1  0  0  0
 48 56  1  0  0  0
 48 65  1  0  0  0
 48115  1  0  0  0
 49 50  1  0  0  0
 49 53  1  0  0  0
 49 64  1  0  0  0
 49116  1  0  0  0
 50 51  1  0  0  0
 50117  1  0  0  0
 50118  1  0  0  0
 51 52  1  0  0  0
 51119  1  0  0  0
 51120  1  0  0  0
 52121  1  0  0  0
 52122  1  0  0  0
 53 54  1  0  0  0
 54 55  2  0  0  0
 54123  1  0  0  0
 55 57  1  0  0  0
 55124  1  0  0  0
 56 69  2  0  0  0
 57 58  2  0  0  0
 57125  1  0  0  0
 58126  1  0  0  0
 59 60  1  0  0  0
 59 61  1  0  0  0
 59 62  1  0  0  0
 60127  1  0  0  0
 60128  1  0  0  0
 60129  1  0  0  0
 61130  1  0  0  0
 61131  1  0  0  0
 61132  1  0  0  0
 62133  1  0  0  0
 62134  1  0  0  0
 62135  1  0  0  0
 63 65  1  0  0  0
 63136  1  0  0  0
 63137  1  0  0  0
 63138  1  0  0  0
 64139  1  0  0  0
 65140  1  0  0  0
 68 76  1  0  0  0
 71 78  2  0  0  0
 71 80  1  0  0  0
 71141  1  0  0  0
 72 77  1  0  0  0
 72 78  1  0  0  0
 72 79  2  0  0  0
 73142  1  0  0  0
 73143  1  0  0  0
 73144  1  0  0  0
 73 77  1  0  0  0
 74 75  1  0  0  0
 74 76  1  0  0  0
 74145  1  0  0  0
 74146  1  0  0  0
 75 80  1  0  0  0
 75147  1  0  0  0
 75148  1  0  0  0
 76149  1  0  0  0
 76150  1  0  0  0
 77 81  1  0  0  0
 77151  1  0  0  0
 79 80  1  0  0  0
 81152  1  0  0  0
M  ISO  4   1 100  68 101  76 101  81 100
M  END
> <chiral flag>
0

> <version>
0

> <s_m_source_file>
/data/baiqing/PycharmProjects/Reinvent-master-3.2/result/LINK_invent/BTK/process_docking_weight1_custom_sum_contain_oxygen_bond_distance_aromatic_linkinvent_7_9_3/rearranged_h_0058.sdf

> <i_m_source_file_index>
32

> <r_mmod_Potential_Energy-OPLS-2005>
62.0850524902344

> <r_mmod_Stretch_Energy-OPLS-2005>
137.703155517578

> <r_mmod_Bend_Energy-OPLS-2005>
194.333953857422

> <r_mmod_Torsional_Energy-OPLS-2005>
213.104248046875

> <r_mmod_Improper_Torsional_Energy-OPLS-2005>
5.63562726974487

> <r_mmod_Van_der_Waal_Energy-OPLS-2005>
117.670211791992

> <r_mmod_Electrostatic_Energy-OPLS-2005>
-465.191436767578

> <r_mmod_Solvation_Energy-OPLS-2005>
-233.596893310547

> <b_mmod_Minimization_Converged-OPLS-2005>
0

> <r_mmod_RMS_Derivative-OPLS-2005>
1.55670738220215

$$$$
32
                    3D
 Structure written by MMmdl.
152160  0  0  1  0            999 V2000
  -30.5166  -15.0119   20.4724 C   0  0  0  0  0  0
  -30.4522  -12.6503   19.4871 C   0  0  0  0  0  0
  -29.5211  -12.5618   18.2520 C   0  0  0  0  0  0
  -28.0540  -12.3308   18.6669 C   0  0  0  0  0  0
  -27.6333  -13.2398   19.8493 C   0  0  2  0  0  0
  -28.6862  -13.1970   20.9758 C   0  0  0  0  0  0
  -25.2416  -13.8169   20.5628 C   0  0  0  0  0  0
  -24.1757  -13.0401   20.9211 C   0  0  0  0  0  0
  -24.6389  -11.6896   20.8766 C   0  0  0  0  0  0
  -23.9076  -10.4274   21.0416 C   0  0  0  0  0  0
  -24.3626   -9.4191   21.9193 C   0  0  0  0  0  0
  -23.6297   -8.2230   22.0757 C   0  0  0  0  0  0
  -22.4280   -8.0274   21.3544 C   0  0  0  0  0  0
  -21.9916   -9.0248   20.4647 C   0  0  0  0  0  0
  -22.7249  -10.2124   20.3062 C   0  0  0  0  0  0
  -21.6852   -6.0734   22.5280 C   0  0  0  0  0  0
  -21.4011   -6.5638   23.8212 C   0  0  0  0  0  0
  -21.3659   -5.6791   24.9173 C   0  0  0  0  0  0
  -21.6046   -4.3054   24.7225 C   0  0  0  0  0  0
  -21.8820   -3.8145   23.4345 C   0  0  0  0  0  0
  -21.9191   -4.6962   22.3402 C   0  0  0  0  0  0
  -22.7779  -13.5178   21.1871 C   0  0  0  0  0  0
  -22.1659   -4.2147   21.0980 F   0  0  0  0  0  0
  -21.5632   -3.4539   25.7739 F   0  0  0  0  0  0
  -29.9361  -13.7267   20.3952 N   0  0  0  0  0  0
  -26.2888  -12.9405   20.3279 N   0  0  0  0  0  0
  -25.9327  -11.6542   20.5778 N   0  0  0  0  0  0
  -22.0441  -12.8178   22.0446 N   0  0  0  0  0  0
  -25.3933  -15.1887   20.3898 N   0  0  0  0  0  0
  -31.7021  -15.0691   20.1170 O   0  0  0  0  0  0
  -21.6636   -6.8878   21.4244 O   0  0  0  0  0  0
  -22.3456  -14.5482   20.6719 O   0  0  0  0  0  0
  -24.6460  -31.8406   23.1840 C   0  0  0  0  0  0
  -25.9217  -32.4677   23.8246 C   0  0  1  0  0  0
  -27.2256  -27.1087   20.1651 C   0  0  0  0  0  0
  -25.5952  -33.8483   24.2166 N   0  0  0  0  0  0
  -23.4516  -30.4564   21.5304 C   0  0  2  0  0  0
  -24.9026  -28.8696   20.1179 C   0  0  0  0  0  0
  -22.7578  -29.4530   22.4856 C   0  0  0  0  0  0
  -18.0305  -28.1396   22.8476 C   0  0  0  0  0  0
  -24.1492  -36.7248   23.2644 C   0  0  0  0  0  0
  -26.0083  -30.7064   21.3850 C   0  0  0  0  0  0
  -26.0814  -29.3119   20.7325 C   0  0  0  0  0  0
  -27.2455  -28.4507   20.7308 C   0  0  0  0  0  0
  -26.0185  -26.7653   19.5222 C   0  0  0  0  0  0
  -24.8849  -27.6101   19.4966 C   0  0  0  0  0  0
  -23.6808  -29.7769   20.1536 C   0  0  0  0  0  0
  -25.4126  -36.3022   24.0313 C   0  0  1  0  0  0
  -20.5919  -28.3725   23.1231 C   0  0  2  0  0  0
  -20.6789  -26.9427   22.5403 C   0  0  0  0  0  0
  -19.5763  -26.6381   21.5212 C   0  0  0  0  0  0
  -18.1945  -26.7933   22.1625 C   0  0  0  0  0  0
  -19.1562  -28.8880   23.2844 C   0  0  0  0  0  0
  -18.9479  -30.1475   23.8870 C   0  0  0  0  0  0
  -17.6475  -30.6593   24.0558 C   0  0  0  0  0  0
  -25.9077  -34.9398   23.5052 C   0  0  0  0  0  0
  -16.5366  -29.9084   23.6337 C   0  0  0  0  0  0
  -16.7290  -28.6503   23.0358 C   0  0  0  0  0  0
  -26.4530  -31.6556   25.0701 C   0  0  0  0  0  0
  -25.3710  -31.3754   26.1395 C   0  0  0  0  0  0
  -27.0402  -30.2951   24.6300 C   0  0  0  0  0  0
  -27.6054  -32.4330   25.7490 C   0  0  0  0  0  0
  -27.5573  -37.1783   24.8468 C   0  0  0  0  0  0
  -21.4268  -29.3046   22.3602 N   0  0  0  0  0  0
  -26.4289  -37.3737   23.9405 N   0  0  0  0  0  0
  -24.7220  -31.0235   22.0883 N   0  0  0  0  0  0
  -23.4205  -28.8089   23.3029 O   0  0  0  0  0  0
  -28.2964  -26.1352   20.1581 O   0  0  0  0  0  0
  -26.5670  -34.8903   22.4635 O   0  0  0  0  0  0
  -23.5573  -32.1294   23.7044 O   0  0  0  0  0  0
  -27.7538  -20.2540   18.9857 C   0  0  0  0  0  0
  -29.0907  -18.8344   19.8463 C   0  0  0  0  0  0
  -28.6742  -16.2132   21.6822 C   0  0  0  0  0  0
  -30.1469  -17.7806   20.5147 C   0  0  0  0  0  0
  -28.7570  -23.2054   19.8686 C   0  0  0  0  0  0
  -29.0372  -21.6631   20.5838 C   0  0  0  0  0  0
  -28.1315  -24.6285   20.5745 C   0  0  0  0  0  0
  -27.4515  -19.0980   18.4079 N   0  0  0  0  0  0
  -28.3118  -18.1947   18.9558 N   0  0  0  0  0  0
  -28.7599  -20.2648   19.8802 N   0  0  0  0  0  0
  -29.7731  -16.2342   20.7119 N   0  0  0  0  0  0
  -31.4726  -12.8464   19.1551 H   0  0  0  0  0  0
  -30.5030  -11.6902   20.0032 H   0  0  0  0  0  0
  -29.8522  -11.7661   17.5834 H   0  0  0  0  0  0
  -29.5918  -13.4891   17.6815 H   0  0  0  0  0  0
  -27.9525  -11.2839   18.9555 H   0  0  0  0  0  0
  -27.3887  -12.4776   17.8153 H   0  0  0  0  0  0
  -27.6096  -14.2548   19.4518 H   0  0  0  0  0  0
  -28.8171  -12.1710   21.3238 H   0  0  0  0  0  0
  -28.3593  -13.7255   21.8645 H   0  0  0  0  0  0
  -25.2769   -9.5668   22.4771 H   0  0  0  0  0  0
  -24.0004   -7.4619   22.7474 H   0  0  0  0  0  0
  -21.0848   -8.8773   19.8951 H   0  0  0  0  0  0
  -22.3711  -10.9668   19.6176 H   0  0  0  0  0  0
  -21.2003   -7.6145   23.9717 H   0  0  0  0  0  0
  -21.1482   -6.0518   25.9077 H   0  0  0  0  0  0
  -22.0600   -2.7608   23.2845 H   0  0  0  0  0  0
  -22.4072  -11.9853   22.4850 H   0  0  0  0  0  0
  -21.1061  -13.1201   22.2661 H   0  0  0  0  0  0
  -24.6134  -15.8288   20.4900 H   0  0  0  0  0  0
  -26.2266  -15.6365   20.0294 H   0  0  0  0  0  0
  -26.7283  -32.5278   23.0973 H   0  0  0  0  0  0
  -25.0069  -33.9589   25.0294 H   0  0  0  0  0  0
  -22.7560  -31.2826   21.3701 H   0  0  0  0  0  0
  -23.3757  -35.9578   23.3299 H   0  0  0  0  0  0
  -24.3573  -36.8889   22.2059 H   0  0  0  0  0  0
  -23.7249  -37.6442   23.6688 H   0  0  0  0  0  0
  -26.1641  -31.4567   20.6088 H   0  0  0  0  0  0
  -26.8782  -30.7616   22.0278 H   0  0  0  0  0  0
  -28.1498  -28.7923   21.2146 H   0  0  0  0  0  0
  -25.9411  -25.8005   19.0414 H   0  0  0  0  0  0
  -23.9858  -27.2658   19.0042 H   0  0  0  0  0  0
  -23.8211  -30.5467   19.3940 H   0  0  0  0  0  0
  -22.7952  -29.2194   19.8435 H   0  0  0  0  0  0
  -25.1318  -36.1844   25.0805 H   0  0  0  0  0  0
  -21.0008  -28.3316   24.1353 H   0  0  0  0  0  0
  -20.5682  -26.2340   23.3624 H   0  0  0  0  0  0
  -21.6655  -26.7429   22.1202 H   0  0  0  0  0  0
  -19.6925  -25.6285   21.1259 H   0  0  0  0  0  0
  -19.6698  -27.3176   20.6729 H   0  0  0  0  0  0
  -17.4212  -26.6672   21.4032 H   0  0  0  0  0  0
  -18.0349  -26.0082   22.9030 H   0  0  0  0  0  0
  -19.7955  -30.7298   24.2227 H   0  0  0  0  0  0
  -17.5029  -31.6271   24.5163 H   0  0  0  0  0  0
  -15.5366  -30.2978   23.7676 H   0  0  0  0  0  0
  -15.8691  -28.0813   22.7089 H   0  0  0  0  0  0
  -24.5879  -30.7119   25.7706 H   0  0  0  0  0  0
  -24.8915  -32.2943   26.4779 H   0  0  0  0  0  0
  -25.7986  -30.8941   27.0199 H   0  0  0  0  0  0
  -26.3025  -29.6663   24.1303 H   0  0  0  0  0  0
  -27.4003  -29.7262   25.4881 H   0  0  0  0  0  0
  -27.8934  -30.4180   23.9626 H   0  0  0  0  0  0
  -27.2639  -33.3647   26.2012 H   0  0  0  0  0  0
  -28.3893  -32.6867   25.0341 H   0  0  0  0  0  0
  -28.0693  -31.8496   26.5453 H   0  0  0  0  0  0
  -28.2591  -38.0078   24.7502 H   0  0  0  0  0  0
  -28.1069  -36.2607   24.6314 H   0  0  0  0  0  0
  -27.2287  -37.1451   25.8871 H   0  0  0  0  0  0
  -20.9489  -29.8747   21.6763 H   0  0  0  0  0  0
  -26.0153  -38.2805   24.1401 H   0  0  0  0  0  0
  -27.1835  -21.1387   18.7452 H   0  0  0  0  0  0
  -28.9602  -15.6755   22.5869 H   0  0  0  0  0  0
  -27.7868  -15.7633   21.2517 H   0  0  0  0  0  0
  -28.3692  -17.2066   22.0135 H   0  0  0  0  0  0
  -30.4536  -18.1863   21.4793 H   0  0  0  0  0  0
  -31.0473  -17.8110   19.9009 H   0  0  0  0  0  0
  -28.1619  -23.0569   18.9698 H   0  0  0  0  0  0
  -29.7285  -23.4949   19.4678 H   0  0  0  0  0  0
  -28.4431  -21.6415   21.4978 H   0  0  0  0  0  0
  -30.0693  -21.6394   20.9347 H   0  0  0  0  0  0
  -28.5185  -24.6216   21.5934 H   0  0  0  0  0  0
  -27.0638  -24.4550   20.7094 H   0  0  0  0  0  0
  1 25  1  0  0  0
  1 30  2  0  0  0
  1 81  1  0  0  0
  2  3  1  0  0  0
  2 25  1  0  0  0
  2 82  1  0  0  0
  2 83  1  0  0  0
  3  4  1  0  0  0
  3 84  1  0  0  0
  3 85  1  0  0  0
  4  5  1  0  0  0
  4 86  1  0  0  0
  4 87  1  0  0  0
  5  6  1  0  0  0
  5 26  1  0  0  0
  5 88  1  0  0  0
  6 25  1  0  0  0
  6 89  1  0  0  0
  6 90  1  0  0  0
  7  8  2  0  0  0
  7 26  1  0  0  0
  7 29  1  0  0  0
  8  9  1  0  0  0
  8 22  1  0  0  0
  9 10  1  0  0  0
  9 27  2  0  0  0
 10 11  2  0  0  0
 10 15  1  0  0  0
 11 12  1  0  0  0
 11 91  1  0  0  0
 12 13  2  0  0  0
 12 92  1  0  0  0
 13 14  1  0  0  0
 13 31  1  0  0  0
 14 15  2  0  0  0
 14 93  1  0  0  0
 15 94  1  0  0  0
 16 17  2  0  0  0
 16 21  1  0  0  0
 16 31  1  0  0  0
 17 18  1  0  0  0
 17 95  1  0  0  0
 18 19  2  0  0  0
 18 96  1  0  0  0
 19 20  1  0  0  0
 19 24  1  0  0  0
 20 21  2  0  0  0
 20 97  1  0  0  0
 21 23  1  0  0  0
 22 28  1  0  0  0
 22 32  2  0  0  0
 26 27  1  0  0  0
 28 98  1  0  0  0
 28 99  1  0  0  0
 29100  1  0  0  0
 29101  1  0  0  0
 33 34  1  0  0  0
 33 66  1  0  0  0
 33 70  2  0  0  0
 34 36  1  0  0  0
 34 59  1  0  0  0
 34102  1  0  0  0
 35 44  2  0  0  0
 35 45  1  0  0  0
 35 68  1  0  0  0
 36 56  1  0  0  0
 36103  1  0  0  0
 37 39  1  0  0  0
 37 47  1  0  0  0
 37 66  1  0  0  0
 37104  1  0  0  0
 38 43  2  0  0  0
 38 46  1  0  0  0
 38 47  1  0  0  0
 39 64  1  0  0  0
 39 67  2  0  0  0
 40 52  1  0  0  0
 40 53  2  0  0  0
 40 58  1  0  0  0
 41105  1  0  0  0
 41106  1  0  0  0
 41107  1  0  0  0
 41 48  1  0  0  0
 42 43  1  0  0  0
 42 66  1  0  0  0
 42108  1  0  0  0
 42109  1  0  0  0
 43 44  1  0  0  0
 44110  1  0  0  0
 45 46  2  0  0  0
 45111  1  0  0  0
 46112  1  0  0  0
 47113  1  0  0  0
 47114  1  0  0  0
 48 56  1  0  0  0
 48 65  1  0  0  0
 48115  1  0  0  0
 49 50  1  0  0  0
 49 53  1  0  0  0
 49 64  1  0  0  0
 49116  1  0  0  0
 50 51  1  0  0  0
 50117  1  0  0  0
 50118  1  0  0  0
 51 52  1  0  0  0
 51119  1  0  0  0
 51120  1  0  0  0
 52121  1  0  0  0
 52122  1  0  0  0
 53 54  1  0  0  0
 54 55  2  0  0  0
 54123  1  0  0  0
 55 57  1  0  0  0
 55124  1  0  0  0
 56 69  2  0  0  0
 57 58  2  0  0  0
 57125  1  0  0  0
 58126  1  0  0  0
 59 60  1  0  0  0
 59 61  1  0  0  0
 59 62  1  0  0  0
 60127  1  0  0  0
 60128  1  0  0  0
 60129  1  0  0  0
 61130  1  0  0  0
 61131  1  0  0  0
 61132  1  0  0  0
 62133  1  0  0  0
 62134  1  0  0  0
 62135  1  0  0  0
 63 65  1  0  0  0
 63136  1  0  0  0
 63137  1  0  0  0
 63138  1  0  0  0
 64139  1  0  0  0
 65140  1  0  0  0
 68 77  1  0  0  0
 71 78  2  0  0  0
 71 80  1  0  0  0
 71141  1  0  0  0
 72 74  1  0  0  0
 72 79  2  0  0  0
 72 80  1  0  0  0
 73 81  1  0  0  0
 73142  1  0  0  0
 73143  1  0  0  0
 73144  1  0  0  0
 74 81  1  0  0  0
 74145  1  0  0  0
 74146  1  0  0  0
 75 76  1  0  0  0
 75 77  1  0  0  0
 75147  1  0  0  0
 75148  1  0  0  0
 76 80  1  0  0  0
 76149  1  0  0  0
 76150  1  0  0  0
 77151  1  0  0  0
 77152  1  0  0  0
 78 79  1  0  0  0
M  ISO  4   1 100  68 101  77 101  81 100
M  END
> <chiral flag>
0

> <version>
0

> <s_m_source_file>
/data/baiqing/PycharmProjects/Reinvent-master-3.2/result/LINK_invent/BTK/process_docking_weight1_custom_sum_contain_oxygen_bond_distance_aromatic_linkinvent_7_9_3/rearranged_h_0058.sdf

> <i_m_source_file_index>
33

> <r_mmod_Potential_Energy-OPLS-2005>
743.365600585938

> <r_mmod_Stretch_Energy-OPLS-2005>
333.389953613281

> <r_mmod_Bend_Energy-OPLS-2005>
362.078460693359

> <r_mmod_Torsional_Energy-OPLS-2005>
275.408081054688

> <r_mmod_Improper_Torsional_Energy-OPLS-2005>
6.84840822219849

> <r_mmod_Van_der_Waal_Energy-OPLS-2005>
119.89575958252

> <r_mmod_Electrostatic_Energy-OPLS-2005>
-337.763366699219

> <r_mmod_Solvation_Energy-OPLS-2005>
-229.625122070312

> <b_mmod_Minimization_Converged-OPLS-2005>
0

> <r_mmod_RMS_Derivative-OPLS-2005>
0.387822598218918

$$$$
33
                    3D
 Structure written by MMmdl.
154162  0  0  1  0            999 V2000
  -30.6250  -14.6978   20.4846 C   0  0  0  0  0  0
  -30.4335  -12.4223   19.4727 C   0  0  0  0  0  0
  -29.5089  -12.5040   18.2370 C   0  0  0  0  0  0
  -28.0298  -12.3479   18.6444 C   0  0  0  0  0  0
  -27.6495  -13.2244   19.8684 C   0  0  2  0  0  0
  -28.6984  -13.0975   20.9969 C   0  0  0  0  0  0
  -25.2545  -13.8179   20.5769 C   0  0  0  0  0  0
  -24.1797  -13.0440   20.9222 C   0  0  0  0  0  0
  -24.6365  -11.6911   20.8743 C   0  0  0  0  0  0
  -23.9044  -10.4295   21.0394 C   0  0  0  0  0  0
  -24.3607   -9.4221   21.9181 C   0  0  0  0  0  0
  -23.6291   -8.2248   22.0753 C   0  0  0  0  0  0
  -22.4260   -8.0292   21.3545 C   0  0  0  0  0  0
  -21.9896   -9.0260   20.4648 C   0  0  0  0  0  0
  -22.7215  -10.2143   20.3054 C   0  0  0  0  0  0
  -21.6846   -6.0747   22.5281 C   0  0  0  0  0  0
  -21.4019   -6.5642   23.8217 C   0  0  0  0  0  0
  -21.3671   -5.6787   24.9179 C   0  0  0  0  0  0
  -21.6052   -4.3056   24.7218 C   0  0  0  0  0  0
  -21.8816   -3.8155   23.4332 C   0  0  0  0  0  0
  -21.9190   -4.6977   22.3398 C   0  0  0  0  0  0
  -22.7828  -13.5256   21.1870 C   0  0  0  0  0  0
  -22.1658   -4.2172   21.0974 F   0  0  0  0  0  0
  -21.5626   -3.4529   25.7725 F   0  0  0  0  0  0
  -30.0008  -13.4681   20.4293 N   0  0  0  0  0  0
  -26.2973  -12.9376   20.3392 N   0  0  0  0  0  0
  -25.9308  -11.6522   20.5787 N   0  0  0  0  0  0
  -22.0452  -12.8260   22.0423 N   0  0  0  0  0  0
  -25.4279  -15.1902   20.4252 N   0  0  0  0  0  0
  -31.7905  -14.7760   20.0838 O   0  0  0  0  0  0
  -21.6635   -6.8879   21.4235 O   0  0  0  0  0  0
  -22.3532  -14.5571   20.6726 O   0  0  0  0  0  0
  -24.6284  -31.8585   23.2038 C   0  0  0  0  0  0
  -25.9136  -32.4764   23.8359 C   0  0  1  0  0  0
  -27.2090  -27.2954   20.1285 C   0  0  0  0  0  0
  -25.5968  -33.8563   24.2294 N   0  0  0  0  0  0
  -23.4231  -30.4835   21.5457 C   0  0  2  0  0  0
  -24.8698  -28.9410   20.1076 C   0  0  0  0  0  0
  -22.7496  -29.4601   22.4920 C   0  0  0  0  0  0
  -18.0307  -28.1402   22.8484 C   0  0  0  0  0  0
  -24.1493  -36.7268   23.2635 C   0  0  0  0  0  0
  -25.9691  -30.7813   21.3829 C   0  0  0  0  0  0
  -26.0394  -29.4094   20.7201 C   0  0  0  0  0  0
  -27.2161  -28.5969   20.7222 C   0  0  0  0  0  0
  -26.0271  -26.9006   19.4653 C   0  0  0  0  0  0
  -24.8665  -27.6933   19.4677 C   0  0  0  0  0  0
  -23.6393  -29.8219   20.1590 C   0  0  0  0  0  0
  -25.4118  -36.3064   24.0326 C   0  0  1  0  0  0
  -20.5903  -28.3686   23.1293 C   0  0  2  0  0  0
  -20.6791  -26.9405   22.5423 C   0  0  0  0  0  0
  -19.5763  -26.6383   21.5232 C   0  0  0  0  0  0
  -18.1942  -26.7947   22.1629 C   0  0  0  0  0  0
  -19.1556  -28.8866   23.2886 C   0  0  0  0  0  0
  -18.9465  -30.1467   23.8901 C   0  0  0  0  0  0
  -17.6464  -30.6592   24.0565 C   0  0  0  0  0  0
  -25.9059  -34.9435   23.5106 C   0  0  0  0  0  0
  -16.5359  -29.9083   23.6335 C   0  0  0  0  0  0
  -16.7291  -28.6517   23.0342 C   0  0  0  0  0  0
  -26.4515  -31.6574   25.0734 C   0  0  0  0  0  0
  -25.3763  -31.3707   26.1473 C   0  0  0  0  0  0
  -27.0365  -30.2989   24.6204 C   0  0  0  0  0  0
  -27.6064  -32.4328   25.7517 C   0  0  0  0  0  0
  -27.5587  -37.1779   24.8459 C   0  0  0  0  0  0
  -21.4210  -29.3024   22.3673 N   0  0  0  0  0  0
  -26.4285  -37.3769   23.9419 N   0  0  0  0  0  0
  -24.6917  -31.0581   22.0997 N   0  0  0  0  0  0
  -23.4221  -28.8150   23.3011 O   0  0  0  0  0  0
  -28.2830  -26.3865   20.1974 O   0  0  0  0  0  0
  -26.5603  -34.8899   22.4655 O   0  0  0  0  0  0
  -23.5448  -32.1395   23.7349 O   0  0  0  0  0  0
  -30.5784  -20.7487   20.8241 C   0  0  0  0  0  0
  -28.8114  -19.6626   20.1979 C   0  0  0  0  0  0
  -29.1982  -20.9625   20.5293 C   0  0  0  0  0  0
  -27.7966  -25.1433   22.2140 C   0  0  0  0  0  0
  -28.3406  -22.2832   20.6573 C   0  0  0  0  0  0
  -28.9165  -23.7535   20.3330 C   0  0  0  0  0  0
  -30.0525  -17.3002   19.8972 C   0  0  0  0  0  0
  -27.9658  -25.0067   20.6864 C   0  0  2  0  0  0
  -29.9412  -16.0824   20.9377 C   0  0  0  0  0  0
  -30.9733  -19.4763   20.6921 N   0  0  0  0  0  0
  -29.8855  -18.7552   20.3123 N   0  0  0  0  0  0
  -28.6444  -15.9190   21.1954 F   0  0  0  0  0  0
  -30.5368  -16.4585   22.0710 F   0  0  0  0  0  0
  -31.4765  -12.5313   19.1694 H   0  0  0  0  0  0
  -30.3685  -11.4371   19.9373 H   0  0  0  0  0  0
  -29.7797  -11.7324   17.5139 H   0  0  0  0  0  0
  -29.6527  -13.4605   17.7322 H   0  0  0  0  0  0
  -27.8640  -11.2963   18.8817 H   0  0  0  0  0  0
  -27.3775  -12.5741   17.7997 H   0  0  0  0  0  0
  -27.6613  -14.2569   19.5195 H   0  0  0  0  0  0
  -28.7292  -12.0737   21.3734 H   0  0  0  0  0  0
  -28.4435  -13.7039   21.8650 H   0  0  0  0  0  0
  -25.2744   -9.5724   22.4768 H   0  0  0  0  0  0
  -24.0016   -7.4644   22.7468 H   0  0  0  0  0  0
  -21.0829   -8.8780   19.8951 H   0  0  0  0  0  0
  -22.3660  -10.9699   19.6183 H   0  0  0  0  0  0
  -21.2009   -7.6149   23.9738 H   0  0  0  0  0  0
  -21.1498   -6.0506   25.9083 H   0  0  0  0  0  0
  -22.0580   -2.7621   23.2813 H   0  0  0  0  0  0
  -22.4025  -11.9924   22.4846 H   0  0  0  0  0  0
  -21.1084  -13.1341   22.2616 H   0  0  0  0  0  0
  -24.6747  -15.8522   20.5730 H   0  0  0  0  0  0
  -26.3054  -15.6349   20.1886 H   0  0  0  0  0  0
  -26.7196  -32.5422   23.1093 H   0  0  0  0  0  0
  -25.0178  -33.9701   25.0484 H   0  0  0  0  0  0
  -22.7175  -31.3042   21.4031 H   0  0  0  0  0  0
  -23.3767  -35.9586   23.3284 H   0  0  0  0  0  0
  -24.3589  -36.8910   22.2053 H   0  0  0  0  0  0
  -23.7225  -37.6453   23.6669 H   0  0  0  0  0  0
  -26.1135  -31.5481   20.6213 H   0  0  0  0  0  0
  -26.8441  -30.8197   22.0202 H   0  0  0  0  0  0
  -28.1103  -28.9411   21.2216 H   0  0  0  0  0  0
  -25.9796  -25.9545   18.9466 H   0  0  0  0  0  0
  -23.9743  -27.3361   18.9723 H   0  0  0  0  0  0
  -23.7553  -30.5986   19.4024 H   0  0  0  0  0  0
  -22.7613  -29.2478   19.8582 H   0  0  0  0  0  0
  -25.1293  -36.1904   25.0816 H   0  0  0  0  0  0
  -21.0013  -28.3275   24.1408 H   0  0  0  0  0  0
  -20.5719  -26.2294   23.3620 H   0  0  0  0  0  0
  -21.6657  -26.7451   22.1199 H   0  0  0  0  0  0
  -19.6908  -25.6290   21.1271 H   0  0  0  0  0  0
  -19.6711  -27.3193   20.6762 H   0  0  0  0  0  0
  -17.4219  -26.6719   21.4023 H   0  0  0  0  0  0
  -18.0309  -26.0096   22.9028 H   0  0  0  0  0  0
  -19.7931  -30.7289   24.2285 H   0  0  0  0  0  0
  -17.5002  -31.6265   24.5169 H   0  0  0  0  0  0
  -15.5352  -30.2971   23.7650 H   0  0  0  0  0  0
  -15.8701  -28.0825   22.7038 H   0  0  0  0  0  0
  -24.5910  -30.7096   25.7792 H   0  0  0  0  0  0
  -24.8998  -32.2877   26.4939 H   0  0  0  0  0  0
  -25.8094  -30.8842   27.0223 H   0  0  0  0  0  0
  -26.2937  -29.6738   24.1234 H   0  0  0  0  0  0
  -27.4058  -29.7233   25.4701 H   0  0  0  0  0  0
  -27.8823  -30.4249   23.9441 H   0  0  0  0  0  0
  -27.2649  -33.3611   26.2107 H   0  0  0  0  0  0
  -28.3880  -32.6934   25.0368 H   0  0  0  0  0  0
  -28.0746  -31.8473   26.5437 H   0  0  0  0  0  0
  -28.2570  -38.0107   24.7560 H   0  0  0  0  0  0
  -28.1121  -36.2644   24.6230 H   0  0  0  0  0  0
  -27.2322  -37.1377   25.8864 H   0  0  0  0  0  0
  -20.9409  -29.8711   21.6834 H   0  0  0  0  0  0
  -26.0164  -38.2833   24.1455 H   0  0  0  0  0  0
  -31.3054  -21.4786   21.1486 H   0  0  0  0  0  0
  -27.8417  -19.3068   19.8765 H   0  0  0  0  0  0
  -27.0479  -25.8927   22.4743 H   0  0  0  0  0  0
  -28.7333  -25.4360   22.6879 H   0  0  0  0  0  0
  -27.4682  -24.2136   22.6757 H   0  0  0  0  0  0
  -27.9782  -22.3124   21.6821 H   0  0  0  0  0  0
  -27.4267  -22.1700   20.0728 H   0  0  0  0  0  0
  -29.1468  -23.7937   19.2686 H   0  0  0  0  0  0
  -29.8677  -23.8891   20.8479 H   0  0  0  0  0  0
  -29.3477  -17.1146   19.0866 H   0  0  0  0  0  0
  -31.0294  -17.2315   19.4183 H   0  0  0  0  0  0
  -26.9972  -24.7011   20.2993 H   0  0  0  0  0  0
  1 25  1  0  0  0
  1 30  2  0  0  0
  1 79  1  0  0  0
  2  3  1  0  0  0
  2 25  1  0  0  0
  2 84  1  0  0  0
  2 85  1  0  0  0
  3  4  1  0  0  0
  3 86  1  0  0  0
  3 87  1  0  0  0
  4  5  1  0  0  0
  4 88  1  0  0  0
  4 89  1  0  0  0
  5  6  1  0  0  0
  5 26  1  0  0  0
  5 90  1  0  0  0
  6 25  1  0  0  0
  6 91  1  0  0  0
  6 92  1  0  0  0
  7  8  2  0  0  0
  7 26  1  0  0  0
  7 29  1  0  0  0
  8  9  1  0  0  0
  8 22  1  0  0  0
  9 10  1  0  0  0
  9 27  2  0  0  0
 10 11  2  0  0  0
 10 15  1  0  0  0
 11 12  1  0  0  0
 11 93  1  0  0  0
 12 13  2  0  0  0
 12 94  1  0  0  0
 13 14  1  0  0  0
 13 31  1  0  0  0
 14 15  2  0  0  0
 14 95  1  0  0  0
 15 96  1  0  0  0
 16 17  2  0  0  0
 16 21  1  0  0  0
 16 31  1  0  0  0
 17 18  1  0  0  0
 17 97  1  0  0  0
 18 19  2  0  0  0
 18 98  1  0  0  0
 19 20  1  0  0  0
 19 24  1  0  0  0
 20 21  2  0  0  0
 20 99  1  0  0  0
 21 23  1  0  0  0
 22 28  1  0  0  0
 22 32  2  0  0  0
 26 27  1  0  0  0
 28100  1  0  0  0
 28101  1  0  0  0
 29102  1  0  0  0
 29103  1  0  0  0
 33 34  1  0  0  0
 33 66  1  0  0  0
 33 70  2  0  0  0
 34 36  1  0  0  0
 34 59  1  0  0  0
 34104  1  0  0  0
 35 44  2  0  0  0
 35 45  1  0  0  0
 35 68  1  0  0  0
 36 56  1  0  0  0
 36105  1  0  0  0
 37 39  1  0  0  0
 37 47  1  0  0  0
 37 66  1  0  0  0
 37106  1  0  0  0
 38 43  2  0  0  0
 38 46  1  0  0  0
 38 47  1  0  0  0
 39 64  1  0  0  0
 39 67  2  0  0  0
 40 52  1  0  0  0
 40 53  2  0  0  0
 40 58  1  0  0  0
 41107  1  0  0  0
 41108  1  0  0  0
 41109  1  0  0  0
 41 48  1  0  0  0
 42 43  1  0  0  0
 42 66  1  0  0  0
 42110  1  0  0  0
 42111  1  0  0  0
 43 44  1  0  0  0
 44112  1  0  0  0
 45 46  2  0  0  0
 45113  1  0  0  0
 46114  1  0  0  0
 47115  1  0  0  0
 47116  1  0  0  0
 48 56  1  0  0  0
 48 65  1  0  0  0
 48117  1  0  0  0
 49 50  1  0  0  0
 49 53  1  0  0  0
 49 64  1  0  0  0
 49118  1  0  0  0
 50 51  1  0  0  0
 50119  1  0  0  0
 50120  1  0  0  0
 51 52  1  0  0  0
 51121  1  0  0  0
 51122  1  0  0  0
 52123  1  0  0  0
 52124  1  0  0  0
 53 54  1  0  0  0
 54 55  2  0  0  0
 54125  1  0  0  0
 55 57  1  0  0  0
 55126  1  0  0  0
 56 69  2  0  0  0
 57 58  2  0  0  0
 57127  1  0  0  0
 58128  1  0  0  0
 59 60  1  0  0  0
 59 61  1  0  0  0
 59 62  1  0  0  0
 60129  1  0  0  0
 60130  1  0  0  0
 60131  1  0  0  0
 61132  1  0  0  0
 61133  1  0  0  0
 61134  1  0  0  0
 62135  1  0  0  0
 62136  1  0  0  0
 62137  1  0  0  0
 63 65  1  0  0  0
 63138  1  0  0  0
 63139  1  0  0  0
 63140  1  0  0  0
 64141  1  0  0  0
 65142  1  0  0  0
 68 78  1  0  0  0
 71 73  1  0  0  0
 71 80  2  0  0  0
 71143  1  0  0  0
 72 73  2  0  0  0
 72 81  1  0  0  0
 72144  1  0  0  0
 73 75  1  0  0  0
 74145  1  0  0  0
 74146  1  0  0  0
 74147  1  0  0  0
 74 78  1  0  0  0
 75 76  1  0  0  0
 75148  1  0  0  0
 75149  1  0  0  0
 76 78  1  0  0  0
 76150  1  0  0  0
 76151  1  0  0  0
 77 79  1  0  0  0
 77 81  1  0  0  0
 77152  1  0  0  0
 77153  1  0  0  0
 78154  1  0  0  0
 79 82  1  0  0  0
 79 83  1  0  0  0
 80 81  1  0  0  0
M  ISO  4   1 100  68 101  78 101  79 100
M  END
> <chiral flag>
0

> <version>
0

> <s_m_source_file>
/data/baiqing/PycharmProjects/Reinvent-master-3.2/result/LINK_invent/BTK/process_docking_weight1_custom_sum_contain_oxygen_bond_distance_aromatic_linkinvent_7_9_3/rearranged_h_0058.sdf

> <i_m_source_file_index>
34

> <r_mmod_Potential_Energy-OPLS-2005>
175.004653930664

> <r_mmod_Stretch_Energy-OPLS-2005>
103.814895629883

> <r_mmod_Bend_Energy-OPLS-2005>
156.769744873047

> <r_mmod_Torsional_Energy-OPLS-2005>
212.807144165039

> <r_mmod_Improper_Torsional_Energy-OPLS-2005>
3.39555048942566

> <r_mmod_Van_der_Waal_Energy-OPLS-2005>
122.217834472656

> <r_mmod_Electrostatic_Energy-OPLS-2005>
-285.18701171875

> <r_mmod_Solvation_Energy-OPLS-2005>
-205.481018066406

> <b_mmod_Minimization_Converged-OPLS-2005>
0

> <r_mmod_RMS_Derivative-OPLS-2005>
2.3287558555603

$$$$
34
                    3D
 Structure written by MMmdl.
141149  0  0  1  0            999 V2000
  -30.2935  -15.7069   20.3076 C   0  0  0  0  0  0
  -30.4149  -13.1218   19.5630 C   0  0  0  0  0  0
  -29.5568  -12.6743   18.3423 C   0  0  0  0  0  0
  -28.1324  -12.3049   18.7781 C   0  0  0  0  0  0
  -27.5890  -13.3225   19.8049 C   0  0  2  0  0  0
  -28.5906  -13.6980   20.9221 C   0  0  0  0  0  0
  -25.2301  -13.8322   20.5802 C   0  0  0  0  0  0
  -24.1699  -13.0447   20.9269 C   0  0  0  0  0  0
  -24.6418  -11.6962   20.8740 C   0  0  0  0  0  0
  -23.9127  -10.4300   21.0382 C   0  0  0  0  0  0
  -24.3661   -9.4215   21.9170 C   0  0  0  0  0  0
  -23.6320   -8.2256   22.0751 C   0  0  0  0  0  0
  -22.4299   -8.0292   21.3544 C   0  0  0  0  0  0
  -21.9945   -9.0266   20.4642 C   0  0  0  0  0  0
  -22.7289  -10.2137   20.3042 C   0  0  0  0  0  0
  -21.6863   -6.0744   22.5279 C   0  0  0  0  0  0
  -21.4022   -6.5645   23.8213 C   0  0  0  0  0  0
  -21.3662   -5.6795   24.9173 C   0  0  0  0  0  0
  -21.6044   -4.3058   24.7223 C   0  0  0  0  0  0
  -21.8818   -3.8151   23.4343 C   0  0  0  0  0  0
  -21.9196   -4.6970   22.3401 C   0  0  0  0  0  0
  -22.7710  -13.5162   21.1919 C   0  0  0  0  0  0
  -22.1662   -4.2155   21.0978 F   0  0  0  0  0  0
  -21.5627   -3.4540   25.7735 F   0  0  0  0  0  0
  -29.7732  -14.3255   20.2823 N   0  0  0  0  0  0
  -26.2747  -12.9675   20.3201 N   0  0  0  0  0  0
  -25.9366  -11.6729   20.5659 N   0  0  0  0  0  0
  -22.0390  -12.8129   22.0475 N   0  0  0  0  0  0
  -25.3907  -15.2072   20.4327 N   0  0  0  0  0  0
  -31.5265  -15.5786   20.1474 O   0  0  0  0  0  0
  -21.6654   -6.8893   21.4244 O   0  0  0  0  0  0
  -22.3372  -14.5458   20.6762 O   0  0  0  0  0  0
  -24.6894  -31.7929   23.1461 C   0  0  0  0  0  0
  -25.9447  -32.4430   23.8030 C   0  0  1  0  0  0
  -27.2256  -26.6416   20.2232 C   0  0  0  0  0  0
  -25.6001  -33.8259   24.1912 N   0  0  0  0  0  0
  -23.5179  -30.3920   21.5015 C   0  0  2  0  0  0
  -24.9750  -28.7190   20.1200 C   0  0  0  0  0  0
  -22.7790  -29.4279   22.4694 C   0  0  0  0  0  0
  -18.0342  -28.1424   22.8452 C   0  0  0  0  0  0
  -24.1496  -36.7138   23.2654 C   0  0  0  0  0  0
  -26.1009  -30.5060   21.4190 C   0  0  0  0  0  0
  -26.1651  -29.0639   20.7709 C   0  0  0  0  0  0
  -27.2729  -28.0553   20.7862 C   0  0  0  0  0  0
  -26.0018  -26.5199   19.5137 C   0  0  0  0  0  0
  -24.9360  -27.4738   19.4671 C   0  0  0  0  0  0
  -23.7748  -29.6825   20.1396 C   0  0  0  0  0  0
  -25.4149  -36.2874   24.0277 C   0  0  1  0  0  0
  -20.5980  -28.3787   23.1131 C   0  0  2  0  0  0
  -20.6805  -26.9440   22.5404 C   0  0  0  0  0  0
  -19.5782  -26.6369   21.5216 C   0  0  0  0  0  0
  -18.1965  -26.7951   22.1618 C   0  0  0  0  0  0
  -19.1609  -28.8931   23.2770 C   0  0  0  0  0  0
  -18.9514  -30.1513   23.8819 C   0  0  0  0  0  0
  -17.6503  -30.6605   24.0549 C   0  0  0  0  0  0
  -25.9133  -34.9266   23.4936 C   0  0  0  0  0  0
  -16.5392  -29.9086   23.6352 C   0  0  0  0  0  0
  -16.7321  -28.6508   23.0368 C   0  0  0  0  0  0
  -26.4606  -31.6492   25.0678 C   0  0  0  0  0  0
  -25.3656  -31.3826   26.1282 C   0  0  0  0  0  0
  -27.0548  -30.2823   24.6623 C   0  0  0  0  0  0
  -27.6041  -32.4368   25.7502 C   0  0  0  0  0  0
  -27.5562  -37.1725   24.8466 C   0  0  0  0  0  0
  -21.4432  -29.3022   22.3444 N   0  0  0  0  0  0
  -26.4269  -37.3642   23.9407 N   0  0  0  0  0  0
  -24.7936  -30.9316   22.0745 N   0  0  0  0  0  0
  -23.4206  -28.7891   23.3068 O   0  0  0  0  0  0
  -28.1894  -25.4034   20.2965 O   0  0  0  0  0  0
  -26.5783  -34.8856   22.4560 O   0  0  0  0  0  0
  -23.5901  -32.1031   23.6379 O   0  0  0  0  0  0
  -30.0228  -18.8931   20.2400 C   0  0  0  0  0  0
  -29.5699  -17.4524   20.3528 C   0  0  0  0  0  0
  -29.0878  -21.9478   20.3653 C   0  0  0  0  0  0
  -28.0392  -23.6162   20.1941 C   0  0  0  0  0  0
  -28.2107  -17.9141   20.5188 N   0  0  0  0  0  0
  -27.9490  -19.2784   20.5199 N   0  0  0  0  0  0
  -29.0462  -20.1153   20.3152 N   0  0  0  0  0  0
  -31.4134  -13.3667   19.2003 H   0  0  0  0  0  0
  -30.5676  -12.2891   20.2518 H   0  0  0  0  0  0
  -30.0259  -11.8322   17.8317 H   0  0  0  0  0  0
  -29.5149  -13.4892   17.6182 H   0  0  0  0  0  0
  -28.1682  -11.3136   19.2317 H   0  0  0  0  0  0
  -27.4698  -12.2277   17.9152 H   0  0  0  0  0  0
  -27.4398  -14.2313   19.2198 H   0  0  0  0  0  0
  -28.8514  -12.8363   21.5384 H   0  0  0  0  0  0
  -28.1386  -14.4275   21.5956 H   0  0  0  0  0  0
  -25.2801   -9.5691   22.4752 H   0  0  0  0  0  0
  -24.0021   -7.4652   22.7479 H   0  0  0  0  0  0
  -21.0874   -8.8792   19.8950 H   0  0  0  0  0  0
  -22.3745  -10.9675   19.6152 H   0  0  0  0  0  0
  -21.2018   -7.6153   23.9718 H   0  0  0  0  0  0
  -21.1484   -6.0525   25.9076 H   0  0  0  0  0  0
  -22.0594   -2.7613   23.2841 H   0  0  0  0  0  0
  -22.4046  -11.9808   22.4864 H   0  0  0  0  0  0
  -21.0996  -13.1114   22.2684 H   0  0  0  0  0  0
  -24.6277  -15.8594   20.5768 H   0  0  0  0  0  0
  -26.2559  -15.6659   20.1720 H   0  0  0  0  0  0
  -26.7534  -32.4887   23.0743 H   0  0  0  0  0  0
  -25.0048  -33.9287   24.9998 H   0  0  0  0  0  0
  -22.8467  -31.2309   21.3062 H   0  0  0  0  0  0
  -23.3778  -35.9446   23.3260 H   0  0  0  0  0  0
  -24.3562  -36.8861   22.2080 H   0  0  0  0  0  0
  -23.7237  -37.6291   23.6774 H   0  0  0  0  0  0
  -26.3102  -31.2266   20.6274 H   0  0  0  0  0  0
  -26.9495  -30.5759   22.0870 H   0  0  0  0  0  0
  -28.1684  -28.3283   21.3264 H   0  0  0  0  0  0
  -25.8262  -25.5805   19.0088 H   0  0  0  0  0  0
  -24.0391  -27.2002   18.9283 H   0  0  0  0  0  0
  -23.9556  -30.4395   19.3757 H   0  0  0  0  0  0
  -22.8780  -29.1525   19.8143 H   0  0  0  0  0  0
  -25.1362  -36.1626   25.0767 H   0  0  0  0  0  0
  -21.0060  -28.3417   24.1258 H   0  0  0  0  0  0
  -20.5661  -26.2413   23.3672 H   0  0  0  0  0  0
  -21.6666  -26.7373   22.1227 H   0  0  0  0  0  0
  -19.6938  -25.6258   21.1298 H   0  0  0  0  0  0
  -19.6728  -27.3135   20.6712 H   0  0  0  0  0  0
  -17.4235  -26.6693   21.4021 H   0  0  0  0  0  0
  -18.0352  -26.0112   22.9031 H   0  0  0  0  0  0
  -19.7989  -30.7349   24.2155 H   0  0  0  0  0  0
  -17.5053  -31.6277   24.5166 H   0  0  0  0  0  0
  -15.5389  -30.2963   23.7721 H   0  0  0  0  0  0
  -15.8722  -28.0800   22.7129 H   0  0  0  0  0  0
  -24.5869  -30.7147   25.7579 H   0  0  0  0  0  0
  -24.8814  -32.3053   26.4490 H   0  0  0  0  0  0
  -25.7819  -30.9130   27.0203 H   0  0  0  0  0  0
  -26.3277  -29.6417   24.1623 H   0  0  0  0  0  0
  -27.3960  -29.7296   25.5386 H   0  0  0  0  0  0
  -27.9263  -30.3934   24.0169 H   0  0  0  0  0  0
  -27.2572  -33.3747   26.1851 H   0  0  0  0  0  0
  -28.3968  -32.6806   25.0416 H   0  0  0  0  0  0
  -28.0581  -31.8652   26.5606 H   0  0  0  0  0  0
  -28.2543  -38.0054   24.7515 H   0  0  0  0  0  0
  -28.1095  -36.2575   24.6293 H   0  0  0  0  0  0
  -27.2276  -37.1358   25.8867 H   0  0  0  0  0  0
  -20.9751  -29.8667   21.6491 H   0  0  0  0  0  0
  -26.0090  -38.2686   24.1422 H   0  0  0  0  0  0
  -31.0647  -19.1579   20.1088 H   0  0  0  0  0  0
  -29.5545  -22.1127   21.3359 H   0  0  0  0  0  0
  -29.8996  -22.1543   19.6687 H   0  0  0  0  0  0
  -27.2130  -23.4428   20.8835 H   0  0  0  0  0  0
  -27.5761  -23.5033   19.2139 H   0  0  0  0  0  0
  1 25  1  0  0  0
  1 30  2  0  0  0
  1 72  1  0  0  0
  2  3  1  0  0  0
  2 25  1  0  0  0
  2 78  1  0  0  0
  2 79  1  0  0  0
  3  4  1  0  0  0
  3 80  1  0  0  0
  3 81  1  0  0  0
  4  5  1  0  0  0
  4 82  1  0  0  0
  4 83  1  0  0  0
  5  6  1  0  0  0
  5 26  1  0  0  0
  5 84  1  0  0  0
  6 25  1  0  0  0
  6 85  1  0  0  0
  6 86  1  0  0  0
  7  8  2  0  0  0
  7 26  1  0  0  0
  7 29  1  0  0  0
  8  9  1  0  0  0
  8 22  1  0  0  0
  9 10  1  0  0  0
  9 27  2  0  0  0
 10 11  2  0  0  0
 10 15  1  0  0  0
 11 12  1  0  0  0
 11 87  1  0  0  0
 12 13  2  0  0  0
 12 88  1  0  0  0
 13 14  1  0  0  0
 13 31  1  0  0  0
 14 15  2  0  0  0
 14 89  1  0  0  0
 15 90  1  0  0  0
 16 17  2  0  0  0
 16 21  1  0  0  0
 16 31  1  0  0  0
 17 18  1  0  0  0
 17 91  1  0  0  0
 18 19  2  0  0  0
 18 92  1  0  0  0
 19 20  1  0  0  0
 19 24  1  0  0  0
 20 21  2  0  0  0
 20 93  1  0  0  0
 21 23  1  0  0  0
 22 28  1  0  0  0
 22 32  2  0  0  0
 26 27  1  0  0  0
 28 94  1  0  0  0
 28 95  1  0  0  0
 29 96  1  0  0  0
 29 97  1  0  0  0
 33 34  1  0  0  0
 33 66  1  0  0  0
 33 70  2  0  0  0
 34 36  1  0  0  0
 34 59  1  0  0  0
 34 98  1  0  0  0
 35 44  2  0  0  0
 35 45  1  0  0  0
 35 68  1  0  0  0
 36 56  1  0  0  0
 36 99  1  0  0  0
 37 39  1  0  0  0
 37 47  1  0  0  0
 37 66  1  0  0  0
 37100  1  0  0  0
 38 43  2  0  0  0
 38 46  1  0  0  0
 38 47  1  0  0  0
 39 64  1  0  0  0
 39 67  2  0  0  0
 40 52  1  0  0  0
 40 53  2  0  0  0
 40 58  1  0  0  0
 41101  1  0  0  0
 41102  1  0  0  0
 41103  1  0  0  0
 41 48  1  0  0  0
 42 43  1  0  0  0
 42 66  1  0  0  0
 42104  1  0  0  0
 42105  1  0  0  0
 43 44  1  0  0  0
 44106  1  0  0  0
 45 46  2  0  0  0
 45107  1  0  0  0
 46108  1  0  0  0
 47109  1  0  0  0
 47110  1  0  0  0
 48 56  1  0  0  0
 48 65  1  0  0  0
 48111  1  0  0  0
 49 50  1  0  0  0
 49 53  1  0  0  0
 49 64  1  0  0  0
 49112  1  0  0  0
 50 51  1  0  0  0
 50113  1  0  0  0
 50114  1  0  0  0
 51 52  1  0  0  0
 51115  1  0  0  0
 51116  1  0  0  0
 52117  1  0  0  0
 52118  1  0  0  0
 53 54  1  0  0  0
 54 55  2  0  0  0
 54119  1  0  0  0
 55 57  1  0  0  0
 55120  1  0  0  0
 56 69  2  0  0  0
 57 58  2  0  0  0
 57121  1  0  0  0
 58122  1  0  0  0
 59 60  1  0  0  0
 59 61  1  0  0  0
 59 62  1  0  0  0
 60123  1  0  0  0
 60124  1  0  0  0
 60125  1  0  0  0
 61126  1  0  0  0
 61127  1  0  0  0
 61128  1  0  0  0
 62129  1  0  0  0
 62130  1  0  0  0
 62131  1  0  0  0
 63 65  1  0  0  0
 63132  1  0  0  0
 63133  1  0  0  0
 63134  1  0  0  0
 64135  1  0  0  0
 65136  1  0  0  0
 68 74  1  0  0  0
 71 72  2  0  0  0
 71 77  1  0  0  0
 71137  1  0  0  0
 72 75  1  0  0  0
 73 74  1  0  0  0
 73 77  1  0  0  0
 73138  1  0  0  0
 73139  1  0  0  0
 74140  1  0  0  0
 74141  1  0  0  0
 75 76  2  0  0  0
 76 77  1  0  0  0
M  ISO  4   1 100  68 101  72 100  74 101
M  END
> <chiral flag>
0

> <version>
0

> <s_m_source_file>
/data/baiqing/PycharmProjects/Reinvent-master-3.2/result/LINK_invent/BTK/process_docking_weight1_custom_sum_contain_oxygen_bond_distance_aromatic_linkinvent_7_9_3/rearranged_h_0058.sdf

> <i_m_source_file_index>
35

> <r_mmod_Potential_Energy-OPLS-2005>
2765.70288085938

> <r_mmod_Stretch_Energy-OPLS-2005>
1215.27429199219

> <r_mmod_Bend_Energy-OPLS-2005>
704.393920898438

> <r_mmod_Torsional_Energy-OPLS-2005>
209.962814331055

> <r_mmod_Improper_Torsional_Energy-OPLS-2005>
3.1764862537384

> <r_mmod_Van_der_Waal_Energy-OPLS-2005>
108.072616577148

> <r_mmod_Electrostatic_Energy-OPLS-2005>
-272.817199707031

> <r_mmod_Solvation_Energy-OPLS-2005>
-210.527969360352

> <b_mmod_Minimization_Converged-OPLS-2005>
0

> <r_mmod_RMS_Derivative-OPLS-2005>
0.0520106479525566

$$$$
35
                    3D
 Structure written by MMmdl.
159167  0  0  1  0            999 V2000
  -30.6989  -14.4307   20.6051 C   0  0  0  0  0  0
  -30.4290  -12.2980   19.4006 C   0  0  0  0  0  0
  -29.4914  -12.5126   18.1939 C   0  0  0  0  0  0
  -28.0117  -12.3782   18.6072 C   0  0  0  0  0  0
  -27.6663  -13.1994   19.8781 C   0  0  2  0  0  0
  -28.7063  -12.9388   20.9901 C   0  0  0  0  0  0
  -25.2619  -13.8144   20.5672 C   0  0  0  0  0  0
  -24.1856  -13.0440   20.9175 C   0  0  0  0  0  0
  -24.6398  -11.6904   20.8726 C   0  0  0  0  0  0
  -23.9057  -10.4303   21.0399 C   0  0  0  0  0  0
  -24.3618   -9.4217   21.9171 C   0  0  0  0  0  0
  -23.6300   -8.2252   22.0741 C   0  0  0  0  0  0
  -22.4274   -8.0295   21.3546 C   0  0  0  0  0  0
  -21.9908   -9.0263   20.4641 C   0  0  0  0  0  0
  -22.7229  -10.2147   20.3050 C   0  0  0  0  0  0
  -21.6856   -6.0753   22.5282 C   0  0  0  0  0  0
  -21.4011   -6.5644   23.8220 C   0  0  0  0  0  0
  -21.3657   -5.6784   24.9173 C   0  0  0  0  0  0
  -21.6046   -4.3051   24.7210 C   0  0  0  0  0  0
  -21.8825   -3.8157   23.4328 C   0  0  0  0  0  0
  -21.9196   -4.6985   22.3395 C   0  0  0  0  0  0
  -22.7887  -13.5257   21.1839 C   0  0  0  0  0  0
  -22.1674   -4.2185   21.0971 F   0  0  0  0  0  0
  -21.5626   -3.4527   25.7716 F   0  0  0  0  0  0
  -30.0401  -13.2542   20.4453 N   0  0  0  0  0  0
  -26.3047  -12.9301   20.3363 N   0  0  0  0  0  0
  -25.9318  -11.6472   20.5739 N   0  0  0  0  0  0
  -22.0518  -12.8262   22.0397 N   0  0  0  0  0  0
  -25.4385  -15.1855   20.4091 N   0  0  0  0  0  0
  -31.8057  -14.6669   20.1122 O   0  0  0  0  0  0
  -21.6642   -6.8896   21.4245 O   0  0  0  0  0  0
  -22.3588  -14.5573   20.6685 O   0  0  0  0  0  0
  -24.6130  -31.8694   23.2118 C   0  0  0  0  0  0
  -25.9024  -32.4843   23.8404 C   0  0  1  0  0  0
  -27.2373  -27.4585   20.0894 C   0  0  0  0  0  0
  -25.5887  -33.8637   24.2329 N   0  0  0  0  0  0
  -23.4006  -30.4921   21.5533 C   0  0  2  0  0  0
  -24.8492  -28.9617   20.1172 C   0  0  0  0  0  0
  -22.7411  -29.4650   22.5003 C   0  0  0  0  0  0
  -18.0277  -28.1396   22.8513 C   0  0  0  0  0  0
  -24.1471  -36.7301   23.2639 C   0  0  0  0  0  0
  -25.9290  -30.8425   21.3625 C   0  0  0  0  0  0
  -26.0086  -29.4784   20.7090 C   0  0  0  0  0  0
  -27.2102  -28.7344   20.6912 C   0  0  0  0  0  0
  -26.0639  -26.9507   19.4925 C   0  0  0  0  0  0
  -24.8693  -27.6951   19.5070 C   0  0  0  0  0  0
  -23.6091  -29.8261   20.1676 C   0  0  0  0  0  0
  -25.4094  -36.3116   24.0340 C   0  0  1  0  0  0
  -20.5870  -28.3666   23.1342 C   0  0  2  0  0  0
  -20.6760  -26.9396   22.5438 C   0  0  0  0  0  0
  -19.5729  -26.6397   21.5238 C   0  0  0  0  0  0
  -18.1911  -26.7946   22.1646 C   0  0  0  0  0  0
  -19.1528  -28.8848   23.2931 C   0  0  0  0  0  0
  -18.9450  -30.1461   23.8922 C   0  0  0  0  0  0
  -17.6448  -30.6599   24.0570 C   0  0  0  0  0  0
  -25.9029  -34.9483   23.5130 C   0  0  0  0  0  0
  -16.5340  -29.9094   23.6349 C   0  0  0  0  0  0
  -16.7264  -28.6525   23.0352 C   0  0  0  0  0  0
  -26.4472  -31.6625   25.0724 C   0  0  0  0  0  0
  -25.3761  -31.3725   26.1493 C   0  0  0  0  0  0
  -27.0291  -30.3068   24.6077 C   0  0  0  0  0  0
  -27.6047  -32.4355   25.7482 C   0  0  0  0  0  0
  -27.5569  -37.1802   24.8471 C   0  0  0  0  0  0
  -21.4141  -29.3016   22.3736 N   0  0  0  0  0  0
  -26.4282  -37.3796   23.9419 N   0  0  0  0  0  0
  -24.6657  -31.0806   22.1018 N   0  0  0  0  0  0
  -23.4195  -28.8192   23.3033 O   0  0  0  0  0  0
  -28.3977  -26.7220   20.0588 O   0  0  0  0  0  0
  -26.5592  -34.8936   22.4689 O   0  0  0  0  0  0
  -23.5323  -32.1433   23.7523 O   0  0  0  0  0  0
  -30.7150  -24.6244   20.4610 C   0  0  0  0  0  0
  -29.3210  -24.4496   20.3544 C   0  0  0  0  0  0
  -29.7112  -22.3596   19.5089 C   0  0  0  0  0  0
  -30.1727  -19.1894   17.6689 C   0  0  0  0  0  0
  -28.3382  -25.5135   20.8244 C   0  0  0  0  0  0
  -29.1634  -21.0752   18.8952 C   0  0  0  0  0  0
  -30.2824  -17.5812   20.0414 C   0  0  0  0  0  0
  -30.3083  -16.8049   21.3808 C   0  0  0  0  0  0
  -30.0317  -19.1107   20.1988 C   0  0  0  0  0  0
  -31.5587  -23.6311   20.0808 N   0  0  0  0  0  0
  -28.8158  -23.2916   19.8626 N   0  0  0  0  0  0
  -31.0512  -22.4834   19.6002 N   0  0  0  0  0  0
  -29.9878  -15.3810   21.2282 N   0  0  0  0  0  0
  -30.1282  -19.9401   18.9504 N   0  3  1  0  0  0
  -31.4702  -12.4162   19.0956 H   0  0  0  0  0  0
  -30.3449  -11.2783   19.7768 H   0  0  0  0  0  0
  -29.7246  -11.7969   17.4033 H   0  0  0  0  0  0
  -29.6621  -13.5019   17.7664 H   0  0  0  0  0  0
  -27.8099  -11.3208   18.7805 H   0  0  0  0  0  0
  -27.3648  -12.6801   17.7821 H   0  0  0  0  0  0
  -27.7225  -14.2533   19.6028 H   0  0  0  0  0  0
  -28.6790  -11.8893   21.2897 H   0  0  0  0  0  0
  -28.4651  -13.4992   21.8944 H   0  0  0  0  0  0
  -25.2776   -9.5694   22.4726 H   0  0  0  0  0  0
  -24.0029   -7.4634   22.7435 H   0  0  0  0  0  0
  -21.0854   -8.8777   19.8931 H   0  0  0  0  0  0
  -22.3695  -10.9687   19.6157 H   0  0  0  0  0  0
  -21.2004   -7.6152   23.9736 H   0  0  0  0  0  0
  -21.1468   -6.0509   25.9081 H   0  0  0  0  0  0
  -22.0607   -2.7624   23.2805 H   0  0  0  0  0  0
  -22.4125  -11.9932   22.4803 H   0  0  0  0  0  0
  -21.1123  -13.1272   22.2565 H   0  0  0  0  0  0
  -24.6761  -15.8462   20.5161 H   0  0  0  0  0  0
  -26.2955  -15.6172   20.0867 H   0  0  0  0  0  0
  -26.7096  -32.5573   23.1174 H   0  0  0  0  0  0
  -25.0033  -33.9807   25.0473 H   0  0  0  0  0  0
  -22.6887  -31.3082   21.4156 H   0  0  0  0  0  0
  -23.3744  -35.9626   23.3328 H   0  0  0  0  0  0
  -24.3555  -36.8882   22.2046 H   0  0  0  0  0  0
  -23.7216  -37.6507   23.6640 H   0  0  0  0  0  0
  -26.0357  -31.6100   20.5950 H   0  0  0  0  0  0
  -26.8177  -30.8975   21.9786 H   0  0  0  0  0  0
  -28.1097  -29.1308   21.1402 H   0  0  0  0  0  0
  -26.0748  -25.9819   19.0128 H   0  0  0  0  0  0
  -23.9775  -27.2916   19.0479 H   0  0  0  0  0  0
  -23.7158  -30.6036   19.4101 H   0  0  0  0  0  0
  -22.7340  -29.2458   19.8705 H   0  0  0  0  0  0
  -25.1267  -36.1972   25.0832 H   0  0  0  0  0  0
  -20.9977  -28.3230   24.1455 H   0  0  0  0  0  0
  -20.5685  -26.2254   23.3617 H   0  0  0  0  0  0
  -21.6625  -26.7441   22.1201 H   0  0  0  0  0  0
  -19.6870  -25.6319   21.1236 H   0  0  0  0  0  0
  -19.6674  -27.3243   20.6799 H   0  0  0  0  0  0
  -17.4178  -26.6730   21.4046 H   0  0  0  0  0  0
  -18.0282  -26.0093   22.9042 H   0  0  0  0  0  0
  -19.7915  -30.7290   24.2292 H   0  0  0  0  0  0
  -17.4990  -31.6284   24.5154 H   0  0  0  0  0  0
  -15.5336  -30.2979   23.7677 H   0  0  0  0  0  0
  -15.8673  -28.0850   22.7032 H   0  0  0  0  0  0
  -24.5922  -30.7079   25.7849 H   0  0  0  0  0  0
  -24.8978  -32.2883   26.4973 H   0  0  0  0  0  0
  -25.8141  -30.8882   27.0230 H   0  0  0  0  0  0
  -26.2821  -29.6850   24.1133 H   0  0  0  0  0  0
  -27.4067  -29.7283   25.4519 H   0  0  0  0  0  0
  -27.8654  -30.4385   23.9209 H   0  0  0  0  0  0
  -27.2652  -33.3636   26.2091 H   0  0  0  0  0  0
  -28.3838  -32.6954   25.0307 H   0  0  0  0  0  0
  -28.0744  -31.8475   26.5374 H   0  0  0  0  0  0
  -28.2609  -38.0083   24.7507 H   0  0  0  0  0  0
  -28.1044  -36.2613   24.6308 H   0  0  0  0  0  0
  -27.2294  -37.1465   25.8880 H   0  0  0  0  0  0
  -20.9299  -29.8713   21.6937 H   0  0  0  0  0  0
  -26.0170  -38.2866   24.1456 H   0  0  0  0  0  0
  -31.1459  -25.5346   20.8537 H   0  0  0  0  0  0
  -30.2900  -19.8657   16.8213 H   0  0  0  0  0  0
  -29.2565  -18.6193   17.5117 H   0  0  0  0  0  0
  -31.0205  -18.5058   17.6257 H   0  0  0  0  0  0
  -28.5724  -25.7550   21.8618 H   0  0  0  0  0  0
  -27.3366  -25.0794   20.8363 H   0  0  0  0  0  0
  -28.9382  -21.3324   17.8608 H   0  0  0  0  0  0
  -28.2035  -20.8142   19.3404 H   0  0  0  0  0  0
  -29.5036  -17.1592   19.4036 H   0  0  0  0  0  0
  -31.2353  -17.3995   19.5425 H   0  0  0  0  0  0
  -29.5718  -17.2250   22.0662 H   0  0  0  0  0  0
  -31.2770  -16.9198   21.8700 H   0  0  0  0  0  0
  -30.7324  -19.5237   20.9248 H   0  0  0  0  0  0
  -29.0435  -19.2321   20.6452 H   0  0  0  0  0  0
  -29.0927  -15.0809   21.5872 H   0  0  0  0  0  0
  -31.0092  -20.4361   19.0153 H   0  0  0  0  0  0
  1 25  1  0  0  0
  1 30  2  0  0  0
  1 83  1  0  0  0
  2  3  1  0  0  0
  2 25  1  0  0  0
  2 85  1  0  0  0
  2 86  1  0  0  0
  3  4  1  0  0  0
  3 87  1  0  0  0
  3 88  1  0  0  0
  4  5  1  0  0  0
  4 89  1  0  0  0
  4 90  1  0  0  0
  5  6  1  0  0  0
  5 26  1  0  0  0
  5 91  1  0  0  0
  6 25  1  0  0  0
  6 92  1  0  0  0
  6 93  1  0  0  0
  7  8  2  0  0  0
  7 26  1  0  0  0
  7 29  1  0  0  0
  8  9  1  0  0  0
  8 22  1  0  0  0
  9 10  1  0  0  0
  9 27  2  0  0  0
 10 11  2  0  0  0
 10 15  1  0  0  0
 11 12  1  0  0  0
 11 94  1  0  0  0
 12 13  2  0  0  0
 12 95  1  0  0  0
 13 14  1  0  0  0
 13 31  1  0  0  0
 14 15  2  0  0  0
 14 96  1  0  0  0
 15 97  1  0  0  0
 16 17  2  0  0  0
 16 21  1  0  0  0
 16 31  1  0  0  0
 17 18  1  0  0  0
 17 98  1  0  0  0
 18 19  2  0  0  0
 18 99  1  0  0  0
 19 20  1  0  0  0
 19 24  1  0  0  0
 20 21  2  0  0  0
 20100  1  0  0  0
 21 23  1  0  0  0
 22 28  1  0  0  0
 22 32  2  0  0  0
 26 27  1  0  0  0
 28101  1  0  0  0
 28102  1  0  0  0
 29103  1  0  0  0
 29104  1  0  0  0
 33 34  1  0  0  0
 33 66  1  0  0  0
 33 70  2  0  0  0
 34 36  1  0  0  0
 34 59  1  0  0  0
 34105  1  0  0  0
 35 44  2  0  0  0
 35 45  1  0  0  0
 35 68  1  0  0  0
 36 56  1  0  0  0
 36106  1  0  0  0
 37 39  1  0  0  0
 37 47  1  0  0  0
 37 66  1  0  0  0
 37107  1  0  0  0
 38 43  2  0  0  0
 38 46  1  0  0  0
 38 47  1  0  0  0
 39 64  1  0  0  0
 39 67  2  0  0  0
 40 52  1  0  0  0
 40 53  2  0  0  0
 40 58  1  0  0  0
 41108  1  0  0  0
 41109  1  0  0  0
 41110  1  0  0  0
 41 48  1  0  0  0
 42 43  1  0  0  0
 42 66  1  0  0  0
 42111  1  0  0  0
 42112  1  0  0  0
 43 44  1  0  0  0
 44113  1  0  0  0
 45 46  2  0  0  0
 45114  1  0  0  0
 46115  1  0  0  0
 47116  1  0  0  0
 47117  1  0  0  0
 48 56  1  0  0  0
 48 65  1  0  0  0
 48118  1  0  0  0
 49 50  1  0  0  0
 49 53  1  0  0  0
 49 64  1  0  0  0
 49119  1  0  0  0
 50 51  1  0  0  0
 50120  1  0  0  0
 50121  1  0  0  0
 51 52  1  0  0  0
 51122  1  0  0  0
 51123  1  0  0  0
 52124  1  0  0  0
 52125  1  0  0  0
 53 54  1  0  0  0
 54 55  2  0  0  0
 54126  1  0  0  0
 55 57  1  0  0  0
 55127  1  0  0  0
 56 69  2  0  0  0
 57 58  2  0  0  0
 57128  1  0  0  0
 58129  1  0  0  0
 59 60  1  0  0  0
 59 61  1  0  0  0
 59 62  1  0  0  0
 60130  1  0  0  0
 60131  1  0  0  0
 60132  1  0  0  0
 61133  1  0  0  0
 61134  1  0  0  0
 61135  1  0  0  0
 62136  1  0  0  0
 62137  1  0  0  0
 62138  1  0  0  0
 63 65  1  0  0  0
 63139  1  0  0  0
 63140  1  0  0  0
 63141  1  0  0  0
 64142  1  0  0  0
 65143  1  0  0  0
 68 75  1  0  0  0
 71 72  2  0  0  0
 71 80  1  0  0  0
 71144  1  0  0  0
 72 75  1  0  0  0
 72 81  1  0  0  0
 73 76  1  0  0  0
 73 81  2  0  0  0
 73 82  1  0  0  0
 74145  1  0  0  0
 74146  1  0  0  0
 74147  1  0  0  0
 74 84  1  0  0  0
 75148  1  0  0  0
 75149  1  0  0  0
 76 84  1  0  0  0
 76150  1  0  0  0
 76151  1  0  0  0
 77 78  1  0  0  0
 77 79  1  0  0  0
 77152  1  0  0  0
 77153  1  0  0  0
 78 83  1  0  0  0
 78154  1  0  0  0
 78155  1  0  0  0
 79 84  1  0  0  0
 79156  1  0  0  0
 79157  1  0  0  0
 80 82  2  0  0  0
 83158  1  0  0  0
 84159  1  0  0  0
M  CHG  1  84   1
M  ISO  4   1 100  68 101  75 101  83 100
M  END
> <chiral flag>
0

> <version>
0

> <s_m_source_file>
/data/baiqing/PycharmProjects/Reinvent-master-3.2/result/LINK_invent/BTK/process_docking_weight1_custom_sum_contain_oxygen_bond_distance_aromatic_linkinvent_7_9_3/rearranged_h_0058.sdf

> <i_m_source_file_index>
36

> <r_mmod_Potential_Energy-OPLS-2005>
-248.519592285156

> <r_mmod_Stretch_Energy-OPLS-2005>
38.4446449279785

> <r_mmod_Bend_Energy-OPLS-2005>
101.580711364746

> <r_mmod_Torsional_Energy-OPLS-2005>
238.738311767578

> <r_mmod_Improper_Torsional_Energy-OPLS-2005>
3.29411935806274

> <r_mmod_Van_der_Waal_Energy-OPLS-2005>
171.482711791992

> <r_mmod_Electrostatic_Energy-OPLS-2005>
-343.042266845703

> <r_mmod_Solvation_Energy-OPLS-2005>
-467.841857910156

> <b_mmod_Minimization_Converged-OPLS-2005>
0

> <r_mmod_RMS_Derivative-OPLS-2005>
2.01689481735229

$$$$
36
                    3D
 Structure written by MMmdl.
155163  0  0  1  0            999 V2000
  -30.6959  -14.5818   20.4732 C   0  0  0  0  0  0
  -30.4146  -12.3467   19.4671 C   0  0  0  0  0  0
  -29.5044  -12.4845   18.2286 C   0  0  0  0  0  0
  -28.0236  -12.3462   18.6309 C   0  0  0  0  0  0
  -27.6470  -13.2289   19.8513 C   0  0  2  0  0  0
  -28.6888  -13.1220   20.9860 C   0  0  0  0  0  0
  -25.2534  -13.8204   20.5686 C   0  0  0  0  0  0
  -24.1814  -13.0451   20.9184 C   0  0  0  0  0  0
  -24.6394  -11.6925   20.8723 C   0  0  0  0  0  0
  -23.9062  -10.4295   21.0388 C   0  0  0  0  0  0
  -24.3610   -9.4213   21.9170 C   0  0  0  0  0  0
  -23.6287   -8.2248   22.0754 C   0  0  0  0  0  0
  -22.4268   -8.0283   21.3548 C   0  0  0  0  0  0
  -21.9898   -9.0252   20.4649 C   0  0  0  0  0  0
  -22.7227  -10.2130   20.3052 C   0  0  0  0  0  0
  -21.6858   -6.0727   22.5274 C   0  0  0  0  0  0
  -21.4015   -6.5632   23.8204 C   0  0  0  0  0  0
  -21.3664   -5.6791   24.9171 C   0  0  0  0  0  0
  -21.6048   -4.3051   24.7220 C   0  0  0  0  0  0
  -21.8823   -3.8139   23.4341 C   0  0  0  0  0  0
  -21.9193   -4.6954   22.3396 C   0  0  0  0  0  0
  -22.7838  -13.5235   21.1848 C   0  0  0  0  0  0
  -22.1666   -4.2142   21.0973 F   0  0  0  0  0  0
  -21.5627   -3.4535   25.7728 F   0  0  0  0  0  0
  -30.0142  -13.3972   20.4227 N   0  0  0  0  0  0
  -26.2963  -12.9409   20.3276 N   0  0  0  0  0  0
  -25.9329  -11.6550   20.5739 N   0  0  0  0  0  0
  -22.0478  -12.8237   22.0408 N   0  0  0  0  0  0
  -25.4245  -15.1931   20.4147 N   0  0  0  0  0  0
  -31.8823  -14.6446   20.1409 O   0  0  0  0  0  0
  -21.6643   -6.8874   21.4240 O   0  0  0  0  0  0
  -22.3522  -14.5535   20.6691 O   0  0  0  0  0  0
  -24.6242  -31.8640   23.2074 C   0  0  0  0  0  0
  -25.9104  -32.4806   23.8386 C   0  0  1  0  0  0
  -27.2145  -27.3450   20.1004 C   0  0  0  0  0  0
  -25.5930  -33.8604   24.2308 N   0  0  0  0  0  0
  -23.4158  -30.4913   21.5510 C   0  0  2  0  0  0
  -24.8590  -28.9604   20.1079 C   0  0  0  0  0  0
  -22.7461  -29.4643   22.4953 C   0  0  0  0  0  0
  -18.0284  -28.1395   22.8483 C   0  0  0  0  0  0
  -24.1490  -36.7302   23.2635 C   0  0  0  0  0  0
  -25.9579  -30.8015   21.3772 C   0  0  0  0  0  0
  -26.0299  -29.4340   20.7139 C   0  0  0  0  0  0
  -27.2119  -28.6380   20.7033 C   0  0  0  0  0  0
  -26.0181  -26.9297   19.4636 C   0  0  0  0  0  0
  -24.8543  -27.7120   19.4745 C   0  0  0  0  0  0
  -23.6281  -29.8369   20.1618 C   0  0  0  0  0  0
  -25.4113  -36.3098   24.0332 C   0  0  1  0  0  0
  -20.5881  -28.3688   23.1296 C   0  0  2  0  0  0
  -20.6776  -26.9419   22.5405 C   0  0  0  0  0  0
  -19.5748  -26.6392   21.5212 C   0  0  0  0  0  0
  -18.1929  -26.7938   22.1624 C   0  0  0  0  0  0
  -19.1535  -28.8860   23.2883 C   0  0  0  0  0  0
  -18.9457  -30.1465   23.8892 C   0  0  0  0  0  0
  -17.6457  -30.6591   24.0570 C   0  0  0  0  0  0
  -25.9048  -34.9467   23.5115 C   0  0  0  0  0  0
  -16.5350  -29.9090   23.6334 C   0  0  0  0  0  0
  -16.7271  -28.6517   23.0340 C   0  0  0  0  0  0
  -26.4486  -31.6599   25.0744 C   0  0  0  0  0  0
  -25.3720  -31.3729   26.1471 C   0  0  0  0  0  0
  -27.0320  -30.3024   24.6183 C   0  0  0  0  0  0
  -27.6059  -32.4318   25.7505 C   0  0  0  0  0  0
  -27.5586  -37.1805   24.8459 C   0  0  0  0  0  0
  -21.4177  -29.3047   22.3695 N   0  0  0  0  0  0
  -26.4295  -37.3789   23.9410 N   0  0  0  0  0  0
  -24.6849  -31.0672   22.1022 N   0  0  0  0  0  0
  -23.4200  -28.8163   23.3003 O   0  0  0  0  0  0
  -28.3222  -26.4853   20.1555 O   0  0  0  0  0  0
  -26.5606  -34.8923   22.4675 O   0  0  0  0  0  0
  -23.5408  -32.1424   23.7412 O   0  0  0  0  0  0
  -29.8761  -16.7712   19.4634 C   0  0  0  0  0  0
  -29.1945  -17.7382   21.8722 C   0  0  0  0  0  0
  -29.9741  -15.9291   20.6083 C   0  0  0  0  0  0
  -29.0953  -18.5715   20.7200 C   0  0  0  0  0  0
  -30.2860  -21.3811   21.6260 C   0  0  0  0  0  0
  -28.4231  -19.9806   20.7610 C   0  0  0  0  0  0
  -29.0566  -23.9190   20.3793 C   0  0  0  0  0  0
  -28.3943  -22.4732   20.3992 C   0  0  0  0  0  0
  -28.0250  -25.0502   20.0019 C   0  0  0  0  0  0
  -29.6354  -16.4417   21.8265 N   0  0  0  0  0  0
  -29.4426  -18.0671   19.5069 N   0  0  0  0  0  0
  -29.2539  -21.2326   20.5742 N   0  3  1  0  0  0
  -31.4636  -12.4167   19.1741 H   0  0  0  0  0  0
  -30.3007  -11.3615   19.9216 H   0  0  0  0  0  0
  -29.7604  -11.7251   17.4885 H   0  0  0  0  0  0
  -29.6707  -13.4504   17.7494 H   0  0  0  0  0  0
  -27.8476  -11.2965   18.8670 H   0  0  0  0  0  0
  -27.3765  -12.5771   17.7837 H   0  0  0  0  0  0
  -27.6576  -14.2587   19.4955 H   0  0  0  0  0  0
  -28.6748  -12.1264   21.4321 H   0  0  0  0  0  0
  -28.4547  -13.8220   21.7894 H   0  0  0  0  0  0
  -25.2751   -9.5697   22.4751 H   0  0  0  0  0  0
  -23.9998   -7.4644   22.7483 H   0  0  0  0  0  0
  -21.0825   -8.8757   19.8962 H   0  0  0  0  0  0
  -22.3665  -10.9663   19.6164 H   0  0  0  0  0  0
  -21.2015   -7.6141   23.9702 H   0  0  0  0  0  0
  -21.1486   -6.0522   25.9072 H   0  0  0  0  0  0
  -22.0599   -2.7602   23.2837 H   0  0  0  0  0  0
  -22.4075  -11.9894   22.4801 H   0  0  0  0  0  0
  -21.1098  -13.1279   22.2603 H   0  0  0  0  0  0
  -24.6614  -15.8493   20.5379 H   0  0  0  0  0  0
  -26.2841  -15.6359   20.1169 H   0  0  0  0  0  0
  -26.7176  -32.5468   23.1134 H   0  0  0  0  0  0
  -25.0085  -33.9762   25.0462 H   0  0  0  0  0  0
  -22.7078  -31.3114   21.4145 H   0  0  0  0  0  0
  -23.3755  -35.9632   23.3292 H   0  0  0  0  0  0
  -24.3586  -36.8919   22.2048 H   0  0  0  0  0  0
  -23.7234  -37.6504   23.6652 H   0  0  0  0  0  0
  -26.0887  -31.5695   20.6134 H   0  0  0  0  0  0
  -26.8390  -30.8451   22.0053 H   0  0  0  0  0  0
  -28.1085  -28.9967   21.1901 H   0  0  0  0  0  0
  -25.9369  -25.9834   18.9522 H   0  0  0  0  0  0
  -23.9603  -27.3471   18.9877 H   0  0  0  0  0  0
  -23.7454  -30.6194   19.4110 H   0  0  0  0  0  0
  -22.7477  -29.2675   19.8575 H   0  0  0  0  0  0
  -25.1290  -36.1954   25.0824 H   0  0  0  0  0  0
  -20.9975  -28.3258   24.1416 H   0  0  0  0  0  0
  -20.5689  -26.2296   23.3597 H   0  0  0  0  0  0
  -21.6648  -26.7458   22.1193 H   0  0  0  0  0  0
  -19.6904  -25.6300   21.1245 H   0  0  0  0  0  0
  -19.6692  -27.3202   20.6743 H   0  0  0  0  0  0
  -17.4200  -26.6680   21.4032 H   0  0  0  0  0  0
  -18.0334  -26.0093   22.9032 H   0  0  0  0  0  0
  -19.7932  -30.7290   24.2259 H   0  0  0  0  0  0
  -17.5009  -31.6273   24.5173 H   0  0  0  0  0  0
  -15.5349  -30.2988   23.7671 H   0  0  0  0  0  0
  -15.8670  -28.0846   22.7037 H   0  0  0  0  0  0
  -24.5903  -30.7067   25.7798 H   0  0  0  0  0  0
  -24.8902  -32.2893   26.4893 H   0  0  0  0  0  0
  -25.8053  -30.8908   27.0245 H   0  0  0  0  0  0
  -26.2893  -29.6786   24.1193 H   0  0  0  0  0  0
  -27.4004  -29.7266   25.4685 H   0  0  0  0  0  0
  -27.8771  -30.4314   23.9416 H   0  0  0  0  0  0
  -27.2686  -33.3611   26.2108 H   0  0  0  0  0  0
  -28.3857  -32.6884   25.0324 H   0  0  0  0  0  0
  -28.0743  -31.8422   26.5393 H   0  0  0  0  0  0
  -28.2595  -38.0113   24.7532 H   0  0  0  0  0  0
  -28.1092  -36.2645   24.6255 H   0  0  0  0  0  0
  -27.2309  -37.1423   25.8864 H   0  0  0  0  0  0
  -20.9345  -29.8789   21.6931 H   0  0  0  0  0  0
  -26.0172  -38.2862   24.1427 H   0  0  0  0  0  0
  -30.1871  -16.4090   18.4933 H   0  0  0  0  0  0
  -28.8895  -18.1065   22.8418 H   0  0  0  0  0  0
  -30.8896  -20.4777   21.7182 H   0  0  0  0  0  0
  -29.8317  -21.5863   22.5960 H   0  0  0  0  0  0
  -30.9710  -22.1964   21.3935 H   0  0  0  0  0  0
  -27.8812  -20.0635   21.7034 H   0  0  0  0  0  0
  -27.6517  -19.9720   19.9900 H   0  0  0  0  0  0
  -29.8863  -23.9422   19.6721 H   0  0  0  0  0  0
  -29.4767  -24.1397   21.3599 H   0  0  0  0  0  0
  -27.8366  -22.3446   19.4710 H   0  0  0  0  0  0
  -27.6426  -22.4709   21.1906 H   0  0  0  0  0  0
  -27.1322  -24.8393   20.5944 H   0  0  0  0  0  0
  -27.7610  -24.8754   18.9582 H   0  0  0  0  0  0
  -29.7494  -21.0969   19.7046 H   0  0  0  0  0  0
  1 25  1  0  0  0
  1 30  2  0  0  0
  1 73  1  0  0  0
  2  3  1  0  0  0
  2 25  1  0  0  0
  2 83  1  0  0  0
  2 84  1  0  0  0
  3  4  1  0  0  0
  3 85  1  0  0  0
  3 86  1  0  0  0
  4  5  1  0  0  0
  4 87  1  0  0  0
  4 88  1  0  0  0
  5  6  1  0  0  0
  5 26  1  0  0  0
  5 89  1  0  0  0
  6 25  1  0  0  0
  6 90  1  0  0  0
  6 91  1  0  0  0
  7  8  2  0  0  0
  7 26  1  0  0  0
  7 29  1  0  0  0
  8  9  1  0  0  0
  8 22  1  0  0  0
  9 10  1  0  0  0
  9 27  2  0  0  0
 10 11  2  0  0  0
 10 15  1  0  0  0
 11 12  1  0  0  0
 11 92  1  0  0  0
 12 13  2  0  0  0
 12 93  1  0  0  0
 13 14  1  0  0  0
 13 31  1  0  0  0
 14 15  2  0  0  0
 14 94  1  0  0  0
 15 95  1  0  0  0
 16 17  2  0  0  0
 16 21  1  0  0  0
 16 31  1  0  0  0
 17 18  1  0  0  0
 17 96  1  0  0  0
 18 19  2  0  0  0
 18 97  1  0  0  0
 19 20  1  0  0  0
 19 24  1  0  0  0
 20 21  2  0  0  0
 20 98  1  0  0  0
 21 23  1  0  0  0
 22 28  1  0  0  0
 22 32  2  0  0  0
 26 27  1  0  0  0
 28 99  1  0  0  0
 28100  1  0  0  0
 29101  1  0  0  0
 29102  1  0  0  0
 33 34  1  0  0  0
 33 66  1  0  0  0
 33 70  2  0  0  0
 34 36  1  0  0  0
 34 59  1  0  0  0
 34103  1  0  0  0
 35 44  2  0  0  0
 35 45  1  0  0  0
 35 68  1  0  0  0
 36 56  1  0  0  0
 36104  1  0  0  0
 37 39  1  0  0  0
 37 47  1  0  0  0
 37 66  1  0  0  0
 37105  1  0  0  0
 38 43  2  0  0  0
 38 46  1  0  0  0
 38 47  1  0  0  0
 39 64  1  0  0  0
 39 67  2  0  0  0
 40 52  1  0  0  0
 40 53  2  0  0  0
 40 58  1  0  0  0
 41106  1  0  0  0
 41107  1  0  0  0
 41108  1  0  0  0
 41 48  1  0  0  0
 42 43  1  0  0  0
 42 66  1  0  0  0
 42109  1  0  0  0
 42110  1  0  0  0
 43 44  1  0  0  0
 44111  1  0  0  0
 45 46  2  0  0  0
 45112  1  0  0  0
 46113  1  0  0  0
 47114  1  0  0  0
 47115  1  0  0  0
 48 56  1  0  0  0
 48 65  1  0  0  0
 48116  1  0  0  0
 49 50  1  0  0  0
 49 53  1  0  0  0
 49 64  1  0  0  0
 49117  1  0  0  0
 50 51  1  0  0  0
 50118  1  0  0  0
 50119  1  0  0  0
 51 52  1  0  0  0
 51120  1  0  0  0
 51121  1  0  0  0
 52122  1  0  0  0
 52123  1  0  0  0
 53 54  1  0  0  0
 54 55  2  0  0  0
 54124  1  0  0  0
 55 57  1  0  0  0
 55125  1  0  0  0
 56 69  2  0  0  0
 57 58  2  0  0  0
 57126  1  0  0  0
 58127  1  0  0  0
 59 60  1  0  0  0
 59 61  1  0  0  0
 59 62  1  0  0  0
 60128  1  0  0  0
 60129  1  0  0  0
 60130  1  0  0  0
 61131  1  0  0  0
 61132  1  0  0  0
 61133  1  0  0  0
 62134  1  0  0  0
 62135  1  0  0  0
 62136  1  0  0  0
 63 65  1  0  0  0
 63137  1  0  0  0
 63138  1  0  0  0
 63139  1  0  0  0
 64140  1  0  0  0
 65141  1  0  0  0
 68 79  1  0  0  0
 71 73  2  0  0  0
 71 81  1  0  0  0
 71142  1  0  0  0
 72 74  1  0  0  0
 72 80  2  0  0  0
 72143  1  0  0  0
 73 80  1  0  0  0
 74 76  1  0  0  0
 74 81  2  0  0  0
 75144  1  0  0  0
 75145  1  0  0  0
 75146  1  0  0  0
 75 82  1  0  0  0
 76 82  1  0  0  0
 76147  1  0  0  0
 76148  1  0  0  0
 77 78  1  0  0  0
 77 79  1  0  0  0
 77149  1  0  0  0
 77150  1  0  0  0
 78 82  1  0  0  0
 78151  1  0  0  0
 78152  1  0  0  0
 79153  1  0  0  0
 79154  1  0  0  0
 82155  1  0  0  0
M  CHG  1  82   1
M  ISO  4   1 100  68 101  73 100  79 101
M  END
> <chiral flag>
0

> <version>
0

> <s_m_source_file>
/data/baiqing/PycharmProjects/Reinvent-master-3.2/result/LINK_invent/BTK/process_docking_weight1_custom_sum_contain_oxygen_bond_distance_aromatic_linkinvent_7_9_3/rearranged_h_0058.sdf

> <i_m_source_file_index>
37

> <r_mmod_Potential_Energy-OPLS-2005>
57.1403656005859

> <r_mmod_Stretch_Energy-OPLS-2005>
69.3769760131836

> <r_mmod_Bend_Energy-OPLS-2005>
133.246994018555

> <r_mmod_Torsional_Energy-OPLS-2005>
213.756942749023

> <r_mmod_Improper_Torsional_Energy-OPLS-2005>
9.20237445831299

> <r_mmod_Van_der_Waal_Energy-OPLS-2005>
149.643630981445

> <r_mmod_Electrostatic_Energy-OPLS-2005>
-106.053184509277

> <r_mmod_Solvation_Energy-OPLS-2005>
-454.426177978516

> <b_mmod_Minimization_Converged-OPLS-2005>
0

> <r_mmod_RMS_Derivative-OPLS-2005>
1.41370892524719

$$$$
37
                    3D
 Structure written by MMmdl.
183192  0  0  1  0            999 V2000
  -30.7593  -14.3327   20.6477 C   0  0  0  0  0  0
  -30.4190  -12.2479   19.3890 C   0  0  0  0  0  0
  -29.4973  -12.5409   18.1888 C   0  0  0  0  0  0
  -28.0128  -12.4156   18.5864 C   0  0  0  0  0  0
  -27.6762  -13.1948   19.8859 C   0  0  2  0  0  0
  -28.7153  -12.8928   20.9931 C   0  0  0  0  0  0
  -25.2628  -13.8099   20.5617 C   0  0  0  0  0  0
  -24.1871  -13.0405   20.9149 C   0  0  0  0  0  0
  -24.6394  -11.6870   20.8689 C   0  0  0  0  0  0
  -23.9019  -10.4278   21.0360 C   0  0  0  0  0  0
  -24.3583   -9.4227   21.9149 C   0  0  0  0  0  0
  -23.6279   -8.2237   22.0731 C   0  0  0  0  0  0
  -22.4243   -8.0275   21.3534 C   0  0  0  0  0  0
  -21.9881   -9.0233   20.4619 C   0  0  0  0  0  0
  -22.7183  -10.2116   20.3016 C   0  0  0  0  0  0
  -21.6838   -6.0733   22.5296 C   0  0  0  0  0  0
  -21.4010   -6.5639   23.8227 C   0  0  0  0  0  0
  -21.3642   -5.6789   24.9187 C   0  0  0  0  0  0
  -21.6059   -4.3059   24.7220 C   0  0  0  0  0  0
  -21.8823   -3.8137   23.4335 C   0  0  0  0  0  0
  -21.9184   -4.6962   22.3399 C   0  0  0  0  0  0
  -22.7893  -13.5254   21.1819 C   0  0  0  0  0  0
  -22.1667   -4.2156   21.0976 F   0  0  0  0  0  0
  -21.5610   -3.4547   25.7721 F   0  0  0  0  0  0
  -30.0706  -13.1747   20.4705 N   0  0  0  0  0  0
  -26.3091  -12.9265   20.3360 N   0  0  0  0  0  0
  -25.9324  -11.6412   20.5703 N   0  0  0  0  0  0
  -22.0527  -12.8230   22.0364 N   0  0  0  0  0  0
  -25.4368  -15.1819   20.3937 N   0  0  0  0  0  0
  -31.7585  -14.6372   19.9947 O   0  0  0  0  0  0
  -21.6601   -6.8877   21.4247 O   0  0  0  0  0  0
  -22.3603  -14.5572   20.6688 O   0  0  0  0  0  0
  -24.6110  -31.8694   23.2138 C   0  0  0  0  0  0
  -25.9032  -32.4806   23.8403 C   0  0  1  0  0  0
  -27.2403  -27.4831   20.0915 C   0  0  0  0  0  0
  -25.5918  -33.8611   24.2345 N   0  0  0  0  0  0
  -23.3964  -30.4946   21.5526 C   0  0  2  0  0  0
  -24.8451  -28.9582   20.1249 C   0  0  0  0  0  0
  -22.7390  -29.4682   22.5030 C   0  0  0  0  0  0
  -18.0281  -28.1367   22.8472 C   0  0  0  0  0  0
  -24.1477  -36.7290   23.2637 C   0  0  0  0  0  0
  -25.9189  -30.8469   21.3631 C   0  0  0  0  0  0
  -26.0003  -29.4796   20.7244 C   0  0  0  0  0  0
  -27.2018  -28.7451   20.7161 C   0  0  0  0  0  0
  -26.0828  -26.9727   19.4728 C   0  0  0  0  0  0
  -24.8741  -27.6937   19.5094 C   0  0  0  0  0  0
  -23.6066  -29.8223   20.1678 C   0  0  0  0  0  0
  -25.4088  -36.3091   24.0347 C   0  0  1  0  0  0
  -20.5865  -28.3619   23.1327 C   0  0  2  0  0  0
  -20.6739  -26.9363   22.5404 C   0  0  0  0  0  0
  -19.5756  -26.6450   21.5135 C   0  0  0  0  0  0
  -18.1934  -26.7951   22.1531 C   0  0  0  0  0  0
  -19.1537  -28.8810   23.2902 C   0  0  0  0  0  0
  -18.9475  -30.1432   23.8890 C   0  0  0  0  0  0
  -17.6482  -30.6554   24.0581 C   0  0  0  0  0  0
  -25.9035  -34.9469   23.5138 C   0  0  0  0  0  0
  -16.5364  -29.9056   23.6344 C   0  0  0  0  0  0
  -16.7288  -28.6485   23.0337 C   0  0  0  0  0  0
  -26.4507  -31.6544   25.0692 C   0  0  0  0  0  0
  -25.3826  -31.3599   26.1470 C   0  0  0  0  0  0
  -27.0304  -30.2981   24.5990 C   0  0  0  0  0  0
  -27.6084  -32.4244   25.7466 C   0  0  0  0  0  0
  -27.5569  -37.1792   24.8476 C   0  0  0  0  0  0
  -21.4124  -29.2993   22.3729 N   0  0  0  0  0  0
  -26.4268  -37.3780   23.9450 N   0  0  0  0  0  0
  -24.6590  -31.0866   22.1009 N   0  0  0  0  0  0
  -23.4193  -28.8215   23.3041 O   0  0  0  0  0  0
  -28.4137  -26.7855   19.9938 O   0  0  0  0  0  0
  -26.5579  -34.8921   22.4690 O   0  0  0  0  0  0
  -23.5318  -32.1459   23.7574 O   0  0  0  0  0  0
  -29.6738  -18.7954   20.8525 C   0  0  0  0  0  0
  -30.1952  -25.8883   21.3788 C   0  0  0  0  0  0
  -30.3536  -17.5809   20.9281 C   0  0  0  0  0  0
  -30.4301  -19.9381   20.5567 C   0  0  0  0  0  0
  -30.1708  -24.8295   22.3225 C   0  0  0  0  0  0
  -28.8849  -26.0404   21.0213 C   0  0  0  0  0  0
  -32.3016  -18.6336   20.3626 C   0  0  0  0  0  0
  -33.7317  -18.5613   19.8742 C   0  0  0  0  0  0
  -24.7652  -23.2814   22.4482 C   0  0  0  0  0  0
  -28.3158  -21.3590   20.4134 C   0  0  0  0  0  0
  -30.3740  -22.1589   19.3649 C   0  0  0  0  0  0
  -29.9304  -21.1293   23.1152 C   0  0  0  0  0  0
  -31.3007  -24.0064   22.8871 C   0  0  0  0  0  0
  -29.5548  -16.3343   21.2670 C   0  0  0  0  0  0
  -26.6855  -24.8542   21.7460 C   0  0  0  0  0  0
  -31.4904  -22.7195   22.0544 C   0  0  0  0  0  0
  -26.2080  -23.7316   22.7032 C   0  0  1  0  0  0
  -29.8571  -21.3599   20.5968 C   0  0  0  0  0  0
  -31.6778  -17.5061   20.6798 N   0  0  0  0  0  0
  -31.7535  -19.8376   20.3469 N   0  0  0  0  0  0
  -28.9343  -24.4362   22.5918 N   0  0  0  0  0  0
  -28.1186  -25.1621   21.7880 N   0  0  0  0  0  0
  -30.2667  -15.1083   21.6072 N   0  0  0  0  0  0
  -30.1935  -21.9874   21.9249 N   0  3  1  0  0  0
  -26.3276  -24.1385   24.0552 O   0  0  0  0  0  0
  -31.4682  -12.3276   19.0959 H   0  0  0  0  0  0
  -30.2829  -11.2190   19.7294 H   0  0  0  0  0  0
  -29.7262  -11.8665   17.3621 H   0  0  0  0  0  0
  -29.6936  -13.5489   17.8208 H   0  0  0  0  0  0
  -27.7832  -11.3562   18.7118 H   0  0  0  0  0  0
  -27.3814  -12.7699   17.7705 H   0  0  0  0  0  0
  -27.7454  -14.2546   19.6438 H   0  0  0  0  0  0
  -28.6571  -11.8381   21.2690 H   0  0  0  0  0  0
  -28.4721  -13.4347   21.9078 H   0  0  0  0  0  0
  -25.2723   -9.5704   22.4718 H   0  0  0  0  0  0
  -24.0003   -7.4616   22.7448 H   0  0  0  0  0  0
  -21.0799   -8.8699   19.8927 H   0  0  0  0  0  0
  -22.3619  -10.9626   19.6102 H   0  0  0  0  0  0
  -21.2031   -7.6152   23.9761 H   0  0  0  0  0  0
  -21.1457   -6.0497   25.9106 H   0  0  0  0  0  0
  -22.0615   -2.7601   23.2819 H   0  0  0  0  0  0
  -22.4112  -11.9868   22.4710 H   0  0  0  0  0  0
  -21.1143  -13.1244   22.2556 H   0  0  0  0  0  0
  -24.6619  -15.8305   20.4928 H   0  0  0  0  0  0
  -26.2567  -15.6044   19.9771 H   0  0  0  0  0  0
  -26.7106  -32.5551   23.1179 H   0  0  0  0  0  0
  -25.0087  -33.9764   25.0496 H   0  0  0  0  0  0
  -22.6823  -31.3099   21.4139 H   0  0  0  0  0  0
  -23.3739  -35.9630   23.3301 H   0  0  0  0  0  0
  -24.3577  -36.8891   22.2057 H   0  0  0  0  0  0
  -23.7243  -37.6497   23.6637 H   0  0  0  0  0  0
  -26.0260  -31.6113   20.5936 H   0  0  0  0  0  0
  -26.8104  -30.9068   21.9737 H   0  0  0  0  0  0
  -28.0978  -29.1531   21.1627 H   0  0  0  0  0  0
  -26.1237  -26.0220   18.9591 H   0  0  0  0  0  0
  -23.9891  -27.2810   19.0443 H   0  0  0  0  0  0
  -23.7256  -30.5999   19.4121 H   0  0  0  0  0  0
  -22.7293  -29.2475   19.8603 H   0  0  0  0  0  0
  -25.1267  -36.1925   25.0836 H   0  0  0  0  0  0
  -20.9991  -28.3177   24.1439 H   0  0  0  0  0  0
  -20.5494  -26.2244   23.3575 H   0  0  0  0  0  0
  -21.6633  -26.7322   22.1294 H   0  0  0  0  0  0
  -19.6913  -25.6413   21.1036 H   0  0  0  0  0  0
  -19.6719  -27.3362   20.6752 H   0  0  0  0  0  0
  -17.4224  -26.6780   21.3906 H   0  0  0  0  0  0
  -18.0319  -26.0038   22.8858 H   0  0  0  0  0  0
  -19.7965  -30.7260   24.2226 H   0  0  0  0  0  0
  -17.5032  -31.6222   24.5206 H   0  0  0  0  0  0
  -15.5361  -30.2925   23.7693 H   0  0  0  0  0  0
  -15.8702  -28.0808   22.7007 H   0  0  0  0  0  0
  -24.6065  -30.6847   25.7851 H   0  0  0  0  0  0
  -24.8952  -32.2722   26.4902 H   0  0  0  0  0  0
  -25.8277  -30.8832   27.0211 H   0  0  0  0  0  0
  -26.2780  -29.6739   24.1144 H   0  0  0  0  0  0
  -27.4208  -29.7198   25.4374 H   0  0  0  0  0  0
  -27.8574  -30.4288   23.9007 H   0  0  0  0  0  0
  -27.2699  -33.3551   26.2019 H   0  0  0  0  0  0
  -28.3922  -32.6760   25.0317 H   0  0  0  0  0  0
  -28.0701  -31.8361   26.5404 H   0  0  0  0  0  0
  -28.2569  -38.0097   24.7530 H   0  0  0  0  0  0
  -28.1067  -36.2635   24.6272 H   0  0  0  0  0  0
  -27.2302  -37.1417   25.8876 H   0  0  0  0  0  0
  -20.9291  -29.8711   21.6939 H   0  0  0  0  0  0
  -26.0137  -38.2841   24.1476 H   0  0  0  0  0  0
  -28.6125  -18.8273   21.0533 H   0  0  0  0  0  0
  -31.0514  -26.3899   20.9450 H   0  0  0  0  0  0
  -34.0731  -17.5331   19.7609 H   0  0  0  0  0  0
  -34.3980  -19.0852   20.5580 H   0  0  0  0  0  0
  -33.8026  -19.0462   18.8987 H   0  0  0  0  0  0
  -24.6366  -22.9750   21.4082 H   0  0  0  0  0  0
  -24.0402  -24.0694   22.6535 H   0  0  0  0  0  0
  -24.5114  -22.4186   23.0655 H   0  0  0  0  0  0
  -28.0335  -20.8057   19.5151 H   0  0  0  0  0  0
  -27.9278  -22.3710   20.2960 H   0  0  0  0  0  0
  -27.7785  -20.9069   21.2438 H   0  0  0  0  0  0
  -29.9666  -21.7561   18.4371 H   0  0  0  0  0  0
  -31.4571  -22.1179   19.2432 H   0  0  0  0  0  0
  -30.0870  -23.2090   19.4165 H   0  0  0  0  0  0
  -30.0396  -21.6960   24.0362 H   0  0  0  0  0  0
  -30.6190  -20.2873   23.1736 H   0  0  0  0  0  0
  -28.9162  -20.7372   23.1245 H   0  0  0  0  0  0
  -31.0905  -23.7600   23.9275 H   0  0  0  0  0  0
  -32.2313  -24.5728   22.8947 H   0  0  0  0  0  0
  -28.8860  -16.1448   20.4244 H   0  0  0  0  0  0
  -28.9122  -16.5717   22.1150 H   0  0  0  0  0  0
  -26.1250  -25.7702   21.9349 H   0  0  0  0  0  0
  -26.4636  -24.5484   20.7230 H   0  0  0  0  0  0
  -32.2515  -22.0709   22.4886 H   0  0  0  0  0  0
  -31.9060  -23.0412   21.1033 H   0  0  0  0  0  0
  -26.8428  -22.8565   22.5621 H   0  0  0  0  0  0
  -29.7653  -14.5781   22.3018 H   0  0  0  0  0  0
  -29.5279  -22.7486   22.0101 H   0  0  0  0  0  0
  -27.2549  -24.3170   24.1957 H   0  0  0  0  0  0
  1 25  1  0  0  0
  1 30  2  0  0  0
  1 93  1  0  0  0
  2  3  1  0  0  0
  2 25  1  0  0  0
  2 96  1  0  0  0
  2 97  1  0  0  0
  3  4  1  0  0  0
  3 98  1  0  0  0
  3 99  1  0  0  0
  4  5  1  0  0  0
  4100  1  0  0  0
  4101  1  0  0  0
  5  6  1  0  0  0
  5 26  1  0  0  0
  5102  1  0  0  0
  6 25  1  0  0  0
  6103  1  0  0  0
  6104  1  0  0  0
  7  8  2  0  0  0
  7 26  1  0  0  0
  7 29  1  0  0  0
  8  9  1  0  0  0
  8 22  1  0  0  0
  9 10  1  0  0  0
  9 27  2  0  0  0
 10 11  2  0  0  0
 10 15  1  0  0  0
 11 12  1  0  0  0
 11105  1  0  0  0
 12 13  2  0  0  0
 12106  1  0  0  0
 13 14  1  0  0  0
 13 31  1  0  0  0
 14 15  2  0  0  0
 14107  1  0  0  0
 15108  1  0  0  0
 16 17  2  0  0  0
 16 21  1  0  0  0
 16 31  1  0  0  0
 17 18  1  0  0  0
 17109  1  0  0  0
 18 19  2  0  0  0
 18110  1  0  0  0
 19 20  1  0  0  0
 19 24  1  0  0  0
 20 21  2  0  0  0
 20111  1  0  0  0
 21 23  1  0  0  0
 22 28  1  0  0  0
 22 32  2  0  0  0
 26 27  1  0  0  0
 28112  1  0  0  0
 28113  1  0  0  0
 29114  1  0  0  0
 29115  1  0  0  0
 33 34  1  0  0  0
 33 66  1  0  0  0
 33 70  2  0  0  0
 34 36  1  0  0  0
 34 59  1  0  0  0
 34116  1  0  0  0
 35 44  2  0  0  0
 35 45  1  0  0  0
 35 68  1  0  0  0
 36 56  1  0  0  0
 36117  1  0  0  0
 37 39  1  0  0  0
 37 47  1  0  0  0
 37 66  1  0  0  0
 37118  1  0  0  0
 38 43  2  0  0  0
 38 46  1  0  0  0
 38 47  1  0  0  0
 39 64  1  0  0  0
 39 67  2  0  0  0
 40 52  1  0  0  0
 40 53  2  0  0  0
 40 58  1  0  0  0
 41119  1  0  0  0
 41120  1  0  0  0
 41121  1  0  0  0
 41 48  1  0  0  0
 42 43  1  0  0  0
 42 66  1  0  0  0
 42122  1  0  0  0
 42123  1  0  0  0
 43 44  1  0  0  0
 44124  1  0  0  0
 45 46  2  0  0  0
 45125  1  0  0  0
 46126  1  0  0  0
 47127  1  0  0  0
 47128  1  0  0  0
 48 56  1  0  0  0
 48 65  1  0  0  0
 48129  1  0  0  0
 49 50  1  0  0  0
 49 53  1  0  0  0
 49 64  1  0  0  0
 49130  1  0  0  0
 50 51  1  0  0  0
 50131  1  0  0  0
 50132  1  0  0  0
 51 52  1  0  0  0
 51133  1  0  0  0
 51134  1  0  0  0
 52135  1  0  0  0
 52136  1  0  0  0
 53 54  1  0  0  0
 54 55  2  0  0  0
 54137  1  0  0  0
 55 57  1  0  0  0
 55138  1  0  0  0
 56 69  2  0  0  0
 57 58  2  0  0  0
 57139  1  0  0  0
 58140  1  0  0  0
 59 60  1  0  0  0
 59 61  1  0  0  0
 59 62  1  0  0  0
 60141  1  0  0  0
 60142  1  0  0  0
 60143  1  0  0  0
 61144  1  0  0  0
 61145  1  0  0  0
 61146  1  0  0  0
 62147  1  0  0  0
 62148  1  0  0  0
 62149  1  0  0  0
 63 65  1  0  0  0
 63150  1  0  0  0
 63151  1  0  0  0
 63152  1  0  0  0
 64153  1  0  0  0
 65154  1  0  0  0
 68 76  1  0  0  0
 71 73  2  0  0  0
 71 74  1  0  0  0
 71155  1  0  0  0
 72 75  1  0  0  0
 72 76  2  0  0  0
 72156  1  0  0  0
 73 84  1  0  0  0
 73 89  1  0  0  0
 74 88  1  0  0  0
 74 90  2  0  0  0
 75 83  1  0  0  0
 75 91  2  0  0  0
 76 92  1  0  0  0
 77 78  1  0  0  0
 77 89  2  0  0  0
 77 90  1  0  0  0
 78157  1  0  0  0
 78158  1  0  0  0
 78159  1  0  0  0
 79160  1  0  0  0
 79161  1  0  0  0
 79162  1  0  0  0
 79 87  1  0  0  0
 80163  1  0  0  0
 80164  1  0  0  0
 80165  1  0  0  0
 80 88  1  0  0  0
 81 88  1  0  0  0
 81166  1  0  0  0
 81167  1  0  0  0
 81168  1  0  0  0
 82169  1  0  0  0
 82170  1  0  0  0
 82171  1  0  0  0
 82 94  1  0  0  0
 83 86  1  0  0  0
 83172  1  0  0  0
 83173  1  0  0  0
 84 93  1  0  0  0
 84174  1  0  0  0
 84175  1  0  0  0
 85 87  1  0  0  0
 85 92  1  0  0  0
 85176  1  0  0  0
 85177  1  0  0  0
 86 94  1  0  0  0
 86178  1  0  0  0
 86179  1  0  0  0
 87 95  1  0  0  0
 87180  1  0  0  0
 88 94  1  0  0  0
 91 92  1  0  0  0
 93181  1  0  0  0
 94182  1  0  0  0
 95183  1  0  0  0
M  CHG  1  94   1
M  ISO  4   1 100  68 101  76 101  93 100
M  END
> <chiral flag>
0

> <version>
0

> <s_m_source_file>
/data/baiqing/PycharmProjects/Reinvent-master-3.2/result/LINK_invent/BTK/process_docking_weight1_custom_sum_contain_oxygen_bond_distance_aromatic_linkinvent_7_9_3/rearranged_h_0058.sdf

> <i_m_source_file_index>
38

> <r_mmod_Potential_Energy-OPLS-2005>
-841.447937011719

> <r_mmod_Stretch_Energy-OPLS-2005>
37.6585121154785

> <r_mmod_Bend_Energy-OPLS-2005>
135.382217407227

> <r_mmod_Torsional_Energy-OPLS-2005>
270.587677001953

> <r_mmod_Improper_Torsional_Energy-OPLS-2005>
9.61946296691895

> <r_mmod_Van_der_Waal_Energy-OPLS-2005>
171.919158935547

> <r_mmod_Electrostatic_Energy-OPLS-2005>
-1006.29968261719

> <r_mmod_Solvation_Energy-OPLS-2005>
-467.729278564453

> <b_mmod_Minimization_Converged-OPLS-2005>
0

> <r_mmod_RMS_Derivative-OPLS-2005>
5.34850978851318

$$$$
38
                    3D
 Structure written by MMmdl.
155163  0  0  1  0            999 V2000
  -30.5986  -14.8035   20.3861 C   0  0  0  0  0  0
  -30.4420  -12.4751   19.4755 C   0  0  0  0  0  0
  -29.5156  -12.4229   18.2400 C   0  0  0  0  0  0
  -28.0370  -12.2810   18.6602 C   0  0  0  0  0  0
  -27.6299  -13.2119   19.8341 C   0  0  2  0  0  0
  -28.6836  -13.2225   20.9603 C   0  0  0  0  0  0
  -25.2520  -13.8138   20.5743 C   0  0  0  0  0  0
  -24.1787  -13.0412   20.9232 C   0  0  0  0  0  0
  -24.6350  -11.6883   20.8774 C   0  0  0  0  0  0
  -23.9027  -10.4273   21.0425 C   0  0  0  0  0  0
  -24.3590   -9.4192   21.9196 C   0  0  0  0  0  0
  -23.6276   -8.2223   22.0754 C   0  0  0  0  0  0
  -22.4261   -8.0262   21.3540 C   0  0  0  0  0  0
  -21.9889   -9.0234   20.4645 C   0  0  0  0  0  0
  -22.7207  -10.2118   20.3066 C   0  0  0  0  0  0
  -21.6847   -6.0726   22.5278 C   0  0  0  0  0  0
  -21.4009   -6.5633   23.8209 C   0  0  0  0  0  0
  -21.3660   -5.6789   24.9175 C   0  0  0  0  0  0
  -21.6046   -4.3050   24.7228 C   0  0  0  0  0  0
  -21.8820   -3.8141   23.4350 C   0  0  0  0  0  0
  -21.9192   -4.6956   22.3405 C   0  0  0  0  0  0
  -22.7817  -13.5217   21.1881 C   0  0  0  0  0  0
  -22.1663   -4.2141   21.0983 F   0  0  0  0  0  0
  -21.5630   -3.4534   25.7741 F   0  0  0  0  0  0
  -29.9692  -13.5746   20.3461 N   0  0  0  0  0  0
  -26.2894  -12.9286   20.3284 N   0  0  0  0  0  0
  -25.9270  -11.6458   20.5788 N   0  0  0  0  0  0
  -22.0445  -12.8219   22.0432 N   0  0  0  0  0  0
  -25.4262  -15.1863   20.4205 N   0  0  0  0  0  0
  -31.8263  -14.8531   20.2662 O   0  0  0  0  0  0
  -21.6628   -6.8862   21.4238 O   0  0  0  0  0  0
  -22.3518  -14.5525   20.6723 O   0  0  0  0  0  0
  -24.6306  -31.8546   23.1970 C   0  0  0  0  0  0
  -25.9130  -32.4754   23.8323 C   0  0  1  0  0  0
  -27.2262  -27.2663   20.1472 C   0  0  0  0  0  0
  -25.5925  -33.8554   24.2250 N   0  0  0  0  0  0
  -23.4279  -30.4746   21.5399 C   0  0  2  0  0  0
  -24.8781  -28.9151   20.1159 C   0  0  0  0  0  0
  -22.7499  -29.4597   22.4915 C   0  0  0  0  0  0
  -18.0290  -28.1382   22.8488 C   0  0  0  0  0  0
  -24.1489  -36.7283   23.2640 C   0  0  0  0  0  0
  -25.9718  -30.7722   21.3730 C   0  0  0  0  0  0
  -26.0485  -29.3920   20.7211 C   0  0  0  0  0  0
  -27.2291  -28.5824   20.7187 C   0  0  0  0  0  0
  -26.0353  -26.8473   19.5203 C   0  0  0  0  0  0
  -24.8763  -27.6508   19.5026 C   0  0  0  0  0  0
  -23.6475  -29.8020   20.1585 C   0  0  0  0  0  0
  -25.4117  -36.3070   24.0326 C   0  0  1  0  0  0
  -20.5894  -28.3691   23.1270 C   0  0  2  0  0  0
  -20.6776  -26.9406   22.5412 C   0  0  0  0  0  0
  -19.5752  -26.6380   21.5214 C   0  0  0  0  0  0
  -18.1931  -26.7924   22.1628 C   0  0  0  0  0  0
  -19.1544  -28.8854   23.2873 C   0  0  0  0  0  0
  -18.9467  -30.1455   23.8893 C   0  0  0  0  0  0
  -17.6466  -30.6585   24.0562 C   0  0  0  0  0  0
  -25.9056  -34.9439   23.5093 C   0  0  0  0  0  0
  -16.5356  -29.9082   23.6332 C   0  0  0  0  0  0
  -16.7277  -28.6497   23.0358 C   0  0  0  0  0  0
  -26.4505  -31.6580   25.0710 C   0  0  0  0  0  0
  -25.3728  -31.3726   26.1432 C   0  0  0  0  0  0
  -27.0355  -30.3000   24.6188 C   0  0  0  0  0  0
  -27.6055  -32.4325   25.7488 C   0  0  0  0  0  0
  -27.5578  -37.1796   24.8466 C   0  0  0  0  0  0
  -21.4208  -29.3036   22.3658 N   0  0  0  0  0  0
  -26.4292  -37.3769   23.9408 N   0  0  0  0  0  0
  -24.6958  -31.0518   22.0937 N   0  0  0  0  0  0
  -23.4199  -28.8147   23.3023 O   0  0  0  0  0  0
  -28.3283  -26.3855   20.1480 O   0  0  0  0  0  0
  -26.5631  -34.8915   22.4664 O   0  0  0  0  0  0
  -23.5455  -32.1362   23.7272 O   0  0  0  0  0  0
  -29.4624  -18.7273   20.5430 C   0  0  0  0  0  0
  -28.0138  -20.1606   19.9241 C   0  0  0  0  0  0
  -26.7651  -20.7731   19.3816 C   0  0  0  0  0  0
  -29.1989  -16.1443   18.9445 C   0  0  0  0  0  0
  -30.2231  -17.3537   20.8340 C   0  0  0  0  0  0
  -28.6698  -23.6321   20.0952 C   0  0  0  0  0  0
  -28.9161  -22.3402   21.0544 C   0  0  0  0  0  0
  -28.1874  -25.0283   20.7779 C   0  0  0  0  0  0
  -28.2725  -18.8421   19.8710 N   0  0  0  0  0  0
  -29.8952  -19.9442   20.9833 N   0  0  0  0  0  0
  -28.9487  -20.8862   20.5616 N   0  0  0  0  0  0
  -29.8360  -15.9753   20.2589 N   0  0  0  0  0  0
  -31.4771  -12.6188   19.1600 H   0  0  0  0  0  0
  -30.4203  -11.5283   20.0180 H   0  0  0  0  0  0
  -29.7953  -11.5770   17.6103 H   0  0  0  0  0  0
  -29.6559  -13.3013   17.6137 H   0  0  0  0  0  0
  -27.8935  -11.2422   18.9592 H   0  0  0  0  0  0
  -27.3813  -12.4401   17.8035 H   0  0  0  0  0  0
  -27.5795  -14.2068   19.4086 H   0  0  0  0  0  0
  -28.7423  -12.2524   21.4554 H   0  0  0  0  0  0
  -28.4144  -13.9510   21.7273 H   0  0  0  0  0  0
  -25.2730   -9.5671   22.4777 H   0  0  0  0  0  0
  -23.9986   -7.4612   22.7468 H   0  0  0  0  0  0
  -21.0824   -8.8748   19.8948 H   0  0  0  0  0  0
  -22.3660  -10.9662   19.6185 H   0  0  0  0  0  0
  -21.1995   -7.6139   23.9710 H   0  0  0  0  0  0
  -21.1486   -6.0521   25.9078 H   0  0  0  0  0  0
  -22.0600   -2.7603   23.2852 H   0  0  0  0  0  0
  -22.4047  -11.9887   22.4843 H   0  0  0  0  0  0
  -21.1064  -13.1256   22.2617 H   0  0  0  0  0  0
  -24.6668  -15.8459   20.5485 H   0  0  0  0  0  0
  -26.2924  -15.6298   20.1418 H   0  0  0  0  0  0
  -26.7195  -32.5416   23.1065 H   0  0  0  0  0  0
  -25.0070  -33.9692   25.0393 H   0  0  0  0  0  0
  -22.7245  -31.2963   21.3904 H   0  0  0  0  0  0
  -23.3752  -35.9614   23.3302 H   0  0  0  0  0  0
  -24.3578  -36.8908   22.2054 H   0  0  0  0  0  0
  -23.7244  -37.6482   23.6669 H   0  0  0  0  0  0
  -26.1055  -31.5309   20.6008 H   0  0  0  0  0  0
  -26.8508  -30.8266   22.0036 H   0  0  0  0  0  0
  -28.1301  -28.9479   21.1913 H   0  0  0  0  0  0
  -25.9980  -25.8742   19.0507 H   0  0  0  0  0  0
  -23.9808  -27.2800   19.0234 H   0  0  0  0  0  0
  -23.7712  -30.5749   19.3990 H   0  0  0  0  0  0
  -22.7665  -29.2329   19.8560 H   0  0  0  0  0  0
  -25.1299  -36.1913   25.0819 H   0  0  0  0  0  0
  -20.9989  -28.3269   24.1389 H   0  0  0  0  0  0
  -20.5665  -26.2300   23.3618 H   0  0  0  0  0  0
  -21.6643  -26.7421   22.1210 H   0  0  0  0  0  0
  -19.6914  -25.6290   21.1245 H   0  0  0  0  0  0
  -19.6689  -27.3191   20.6744 H   0  0  0  0  0  0
  -17.4201  -26.6672   21.4031 H   0  0  0  0  0  0
  -18.0330  -26.0064   22.9022 H   0  0  0  0  0  0
  -19.7943  -30.7271   24.2261 H   0  0  0  0  0  0
  -17.5021  -31.6267   24.5160 H   0  0  0  0  0  0
  -15.5357  -30.2984   23.7656 H   0  0  0  0  0  0
  -15.8678  -28.0814   22.7079 H   0  0  0  0  0  0
  -24.5908  -30.7071   25.7760 H   0  0  0  0  0  0
  -24.8914  -32.2892   26.4846 H   0  0  0  0  0  0
  -25.8046  -30.8909   27.0214 H   0  0  0  0  0  0
  -26.2936  -29.6737   24.1217 H   0  0  0  0  0  0
  -27.4049  -29.7271   25.4704 H   0  0  0  0  0  0
  -27.8806  -30.4278   23.9420 H   0  0  0  0  0  0
  -27.2660  -33.3628   26.2052 H   0  0  0  0  0  0
  -28.3874  -32.6880   25.0324 H   0  0  0  0  0  0
  -28.0715  -31.8459   26.5415 H   0  0  0  0  0  0
  -28.2596  -38.0092   24.7511 H   0  0  0  0  0  0
  -28.1073  -36.2622   24.6297 H   0  0  0  0  0  0
  -27.2295  -37.1452   25.8869 H   0  0  0  0  0  0
  -20.9393  -29.8747   21.6853 H   0  0  0  0  0  0
  -26.0168  -38.2841   24.1407 H   0  0  0  0  0  0
  -26.0182  -20.0044   19.1829 H   0  0  0  0  0  0
  -26.9797  -21.2961   18.4500 H   0  0  0  0  0  0
  -26.3422  -21.4805   20.0948 H   0  0  0  0  0  0
  -29.6549  -16.9656   18.3892 H   0  0  0  0  0  0
  -28.1372  -16.3597   19.0568 H   0  0  0  0  0  0
  -29.2830  -15.2803   18.2918 H   0  0  0  0  0  0
  -31.2659  -17.5183   20.5601 H   0  0  0  0  0  0
  -30.2408  -17.2316   21.9170 H   0  0  0  0  0  0
  -27.9428  -23.3761   19.3260 H   0  0  0  0  0  0
  -29.5997  -23.8185   19.5584 H   0  0  0  0  0  0
  -28.1341  -22.3649   21.8142 H   0  0  0  0  0  0
  -29.8379  -22.5127   21.6105 H   0  0  0  0  0  0
  -28.7433  -25.1153   21.7118 H   0  0  0  0  0  0
  -27.1541  -24.8916   21.0996 H   0  0  0  0  0  0
  1 25  1  0  0  0
  1 30  2  0  0  0
  1 82  1  0  0  0
  2  3  1  0  0  0
  2 25  1  0  0  0
  2 83  1  0  0  0
  2 84  1  0  0  0
  3  4  1  0  0  0
  3 85  1  0  0  0
  3 86  1  0  0  0
  4  5  1  0  0  0
  4 87  1  0  0  0
  4 88  1  0  0  0
  5  6  1  0  0  0
  5 26  1  0  0  0
  5 89  1  0  0  0
  6 25  1  0  0  0
  6 90  1  0  0  0
  6 91  1  0  0  0
  7  8  2  0  0  0
  7 26  1  0  0  0
  7 29  1  0  0  0
  8  9  1  0  0  0
  8 22  1  0  0  0
  9 10  1  0  0  0
  9 27  2  0  0  0
 10 11  2  0  0  0
 10 15  1  0  0  0
 11 12  1  0  0  0
 11 92  1  0  0  0
 12 13  2  0  0  0
 12 93  1  0  0  0
 13 14  1  0  0  0
 13 31  1  0  0  0
 14 15  2  0  0  0
 14 94  1  0  0  0
 15 95  1  0  0  0
 16 17  2  0  0  0
 16 21  1  0  0  0
 16 31  1  0  0  0
 17 18  1  0  0  0
 17 96  1  0  0  0
 18 19  2  0  0  0
 18 97  1  0  0  0
 19 20  1  0  0  0
 19 24  1  0  0  0
 20 21  2  0  0  0
 20 98  1  0  0  0
 21 23  1  0  0  0
 22 28  1  0  0  0
 22 32  2  0  0  0
 26 27  1  0  0  0
 28 99  1  0  0  0
 28100  1  0  0  0
 29101  1  0  0  0
 29102  1  0  0  0
 33 34  1  0  0  0
 33 66  1  0  0  0
 33 70  2  0  0  0
 34 36  1  0  0  0
 34 59  1  0  0  0
 34103  1  0  0  0
 35 44  2  0  0  0
 35 45  1  0  0  0
 35 68  1  0  0  0
 36 56  1  0  0  0
 36104  1  0  0  0
 37 39  1  0  0  0
 37 47  1  0  0  0
 37 66  1  0  0  0
 37105  1  0  0  0
 38 43  2  0  0  0
 38 46  1  0  0  0
 38 47  1  0  0  0
 39 64  1  0  0  0
 39 67  2  0  0  0
 40 52  1  0  0  0
 40 53  2  0  0  0
 40 58  1  0  0  0
 41106  1  0  0  0
 41107  1  0  0  0
 41108  1  0  0  0
 41 48  1  0  0  0
 42 43  1  0  0  0
 42 66  1  0  0  0
 42109  1  0  0  0
 42110  1  0  0  0
 43 44  1  0  0  0
 44111  1  0  0  0
 45 46  2  0  0  0
 45112  1  0  0  0
 46113  1  0  0  0
 47114  1  0  0  0
 47115  1  0  0  0
 48 56  1  0  0  0
 48 65  1  0  0  0
 48116  1  0  0  0
 49 50  1  0  0  0
 49 53  1  0  0  0
 49 64  1  0  0  0
 49117  1  0  0  0
 50 51  1  0  0  0
 50118  1  0  0  0
 50119  1  0  0  0
 51 52  1  0  0  0
 51120  1  0  0  0
 51121  1  0  0  0
 52122  1  0  0  0
 52123  1  0  0  0
 53 54  1  0  0  0
 54 55  2  0  0  0
 54124  1  0  0  0
 55 57  1  0  0  0
 55125  1  0  0  0
 56 69  2  0  0  0
 57 58  2  0  0  0
 57126  1  0  0  0
 58127  1  0  0  0
 59 60  1  0  0  0
 59 61  1  0  0  0
 59 62  1  0  0  0
 60128  1  0  0  0
 60129  1  0  0  0
 60130  1  0  0  0
 61131  1  0  0  0
 61132  1  0  0  0
 61133  1  0  0  0
 62134  1  0  0  0
 62135  1  0  0  0
 62136  1  0  0  0
 63 65  1  0  0  0
 63137  1  0  0  0
 63138  1  0  0  0
 63139  1  0  0  0
 64140  1  0  0  0
 65141  1  0  0  0
 68 78  1  0  0  0
 71 75  1  0  0  0
 71 79  1  0  0  0
 71 80  2  0  0  0
 72 73  1  0  0  0
 72 79  2  0  0  0
 72 81  1  0  0  0
 73142  1  0  0  0
 73143  1  0  0  0
 73144  1  0  0  0
 74 82  1  0  0  0
 74145  1  0  0  0
 74146  1  0  0  0
 74147  1  0  0  0
 75 82  1  0  0  0
 75148  1  0  0  0
 75149  1  0  0  0
 76 77  1  0  0  0
 76 78  1  0  0  0
 76150  1  0  0  0
 76151  1  0  0  0
 77 81  1  0  0  0
 77152  1  0  0  0
 77153  1  0  0  0
 78154  1  0  0  0
 78155  1  0  0  0
 80 81  1  0  0  0
M  ISO  4   1 100  68 101  78 101  82 100
M  END
> <chiral flag>
0

> <version>
0

> <s_m_source_file>
/data/baiqing/PycharmProjects/Reinvent-master-3.2/result/LINK_invent/BTK/process_docking_weight1_custom_sum_contain_oxygen_bond_distance_aromatic_linkinvent_7_9_3/rearranged_h_0058.sdf

> <i_m_source_file_index>
39

> <r_mmod_Potential_Energy-OPLS-2005>
253.02229309082

> <r_mmod_Stretch_Energy-OPLS-2005>
133.760208129883

> <r_mmod_Bend_Energy-OPLS-2005>
187.184646606445

> <r_mmod_Torsional_Energy-OPLS-2005>
312.625457763672

> <r_mmod_Improper_Torsional_Energy-OPLS-2005>
11.7851591110229

> <r_mmod_Van_der_Waal_Energy-OPLS-2005>
120.331756591797

> <r_mmod_Electrostatic_Energy-OPLS-2005>
-404.127258300781

> <r_mmod_Solvation_Energy-OPLS-2005>
-215.241912841797

> <b_mmod_Minimization_Converged-OPLS-2005>
0

> <r_mmod_RMS_Derivative-OPLS-2005>
0.598838925361633

$$$$
39
                    3D
 Structure written by MMmdl.
162171  0  0  1  0            999 V2000
  -30.6886  -14.5186   20.6069 C   0  0  0  0  0  0
  -30.4358  -12.3504   19.4243 C   0  0  0  0  0  0
  -29.4984  -12.5186   18.2102 C   0  0  0  0  0  0
  -28.0201  -12.3686   18.6232 C   0  0  0  0  0  0
  -27.6636  -13.2110   19.8771 C   0  0  2  0  0  0
  -28.7057  -12.9794   20.9916 C   0  0  0  0  0  0
  -25.2606  -13.8204   20.5674 C   0  0  0  0  0  0
  -24.1859  -13.0484   20.9169 C   0  0  0  0  0  0
  -24.6414  -11.6945   20.8748 C   0  0  0  0  0  0
  -23.9086  -10.4321   21.0413 C   0  0  0  0  0  0
  -24.3628   -9.4227   21.9190 C   0  0  0  0  0  0
  -23.6292   -8.2270   22.0761 C   0  0  0  0  0  0
  -22.4274   -8.0310   21.3548 C   0  0  0  0  0  0
  -21.9923   -9.0293   20.4651 C   0  0  0  0  0  0
  -22.7267  -10.2166   20.3057 C   0  0  0  0  0  0
  -21.6856   -6.0755   22.5277 C   0  0  0  0  0  0
  -21.4013   -6.5648   23.8217 C   0  0  0  0  0  0
  -21.3652   -5.6794   24.9170 C   0  0  0  0  0  0
  -21.6042   -4.3056   24.7215 C   0  0  0  0  0  0
  -21.8825   -3.8155   23.4332 C   0  0  0  0  0  0
  -21.9198   -4.6978   22.3398 C   0  0  0  0  0  0
  -22.7876  -13.5276   21.1828 C   0  0  0  0  0  0
  -22.1666   -4.2169   21.0967 F   0  0  0  0  0  0
  -21.5624   -3.4531   25.7725 F   0  0  0  0  0  0
  -30.0275  -13.3316   20.4472 N   0  0  0  0  0  0
  -26.3038  -12.9375   20.3368 N   0  0  0  0  0  0
  -25.9338  -11.6530   20.5779 N   0  0  0  0  0  0
  -22.0519  -12.8256   22.0365 N   0  0  0  0  0  0
  -25.4366  -15.1932   20.4086 N   0  0  0  0  0  0
  -31.7800  -14.7095   20.0601 O   0  0  0  0  0  0
  -21.6642   -6.8901   21.4240 O   0  0  0  0  0  0
  -22.3566  -14.5594   20.6691 O   0  0  0  0  0  0
  -24.6164  -31.8624   23.2107 C   0  0  0  0  0  0
  -25.9076  -32.4764   23.8369 C   0  0  1  0  0  0
  -27.2372  -27.4033   20.0874 C   0  0  0  0  0  0
  -25.5958  -33.8564   24.2326 N   0  0  0  0  0  0
  -23.4043  -30.4819   21.5538 C   0  0  2  0  0  0
  -24.8484  -28.9389   20.1184 C   0  0  0  0  0  0
  -22.7399  -29.4611   22.5043 C   0  0  0  0  0  0
  -18.0260  -28.1329   22.8520 C   0  0  0  0  0  0
  -24.1496  -36.7286   23.2659 C   0  0  0  0  0  0
  -25.9348  -30.8091   21.3727 C   0  0  0  0  0  0
  -26.0082  -29.4424   20.7175 C   0  0  0  0  0  0
  -27.1991  -28.6762   20.7104 C   0  0  0  0  0  0
  -26.0528  -26.9133   19.4932 C   0  0  0  0  0  0
  -24.8652  -27.6711   19.5100 C   0  0  0  0  0  0
  -23.6123  -29.8098   20.1703 C   0  0  0  0  0  0
  -25.4128  -36.3076   24.0346 C   0  0  1  0  0  0
  -20.5844  -28.3629   23.1359 C   0  0  2  0  0  0
  -20.6767  -26.9368   22.5449 C   0  0  0  0  0  0
  -19.5749  -26.6358   21.5237 C   0  0  0  0  0  0
  -18.1908  -26.7899   22.1609 C   0  0  0  0  0  0
  -19.1506  -28.8799   23.2918 C   0  0  0  0  0  0
  -18.9435  -30.1413   23.8911 C   0  0  0  0  0  0
  -17.6443  -30.6571   24.0551 C   0  0  0  0  0  0
  -25.9037  -34.9433   23.5120 C   0  0  0  0  0  0
  -16.5332  -29.9059   23.6327 C   0  0  0  0  0  0
  -16.7248  -28.6444   23.0401 C   0  0  0  0  0  0
  -26.4529  -31.6531   25.0679 C   0  0  0  0  0  0
  -25.3852  -31.3675   26.1492 C   0  0  0  0  0  0
  -27.0324  -30.2949   24.6067 C   0  0  0  0  0  0
  -27.6142  -32.4249   25.7374 C   0  0  0  0  0  0
  -27.5553  -37.1849   24.8515 C   0  0  0  0  0  0
  -21.4128  -29.2983   22.3760 N   0  0  0  0  0  0
  -26.4333  -37.3740   23.9359 N   0  0  0  0  0  0
  -24.6695  -31.0676   22.1032 N   0  0  0  0  0  0
  -23.4145  -28.8177   23.3120 O   0  0  0  0  0  0
  -28.4158  -26.6754   20.1107 O   0  0  0  0  0  0
  -26.5546  -34.8887   22.4649 O   0  0  0  0  0  0
  -23.5358  -32.1435   23.7484 O   0  0  0  0  0  0
  -28.1152  -23.7545   20.8143 C   0  0  0  0  0  0
  -27.9271  -22.3699   21.0374 C   0  0  0  0  0  0
  -28.6318  -17.7341   20.9768 C   0  0  0  0  0  0
  -30.4296  -17.6222   19.7868 C   0  0  0  0  0  0
  -28.4557  -24.1753   19.5133 C   0  0  0  0  0  0
  -28.0764  -21.4625   19.9520 C   0  0  0  0  0  0
  -28.6839  -18.8676   20.1789 C   0  0  0  0  0  0
  -31.0637  -16.0634   22.6044 C   0  0  0  0  0  0
  -26.7784  -19.6343   18.7619 C   0  0  0  0  0  0
  -26.5922  -19.8185   21.1933 C   0  0  0  0  0  0
  -28.6689  -25.6543   19.1184 C   0  0  0  0  0  0
  -30.1024  -15.6977   21.4592 C   0  0  1  0  0  0
  -27.6030  -19.9648   20.0271 C   0  0  0  0  0  0
  -29.8496  -18.7685   19.4073 N   0  0  0  0  0  0
  -28.6596  -23.2581   18.5269 N   0  0  0  0  0  0
  -28.4857  -21.9404   18.7408 N   0  0  0  0  0  0
  -29.7509  -16.9357   20.7234 N   0  0  0  0  0  0
  -31.4734  -12.4743   19.1116 H   0  0  0  0  0  0
  -30.3707  -11.3376   19.8267 H   0  0  0  0  0  0
  -29.7469  -11.7891   17.4389 H   0  0  0  0  0  0
  -29.6551  -13.5024   17.7654 H   0  0  0  0  0  0
  -27.8389  -11.3125   18.8255 H   0  0  0  0  0  0
  -27.3663  -12.6319   17.7919 H   0  0  0  0  0  0
  -27.7123  -14.2614   19.5855 H   0  0  0  0  0  0
  -28.7035  -11.9288   21.2869 H   0  0  0  0  0  0
  -28.4385  -13.5083   21.9018 H   0  0  0  0  0  0
  -25.2778   -9.5699   22.4765 H   0  0  0  0  0  0
  -24.0005   -7.4662   22.7475 H   0  0  0  0  0  0
  -21.0861   -8.8828   19.8947 H   0  0  0  0  0  0
  -22.3741  -10.9710   19.6157 H   0  0  0  0  0  0
  -21.2002   -7.6162   23.9722 H   0  0  0  0  0  0
  -21.1461   -6.0515   25.9075 H   0  0  0  0  0  0
  -22.0607   -2.7622   23.2824 H   0  0  0  0  0  0
  -22.4126  -11.9883   22.4701 H   0  0  0  0  0  0
  -21.1149  -13.1294   22.2608 H   0  0  0  0  0  0
  -24.6772  -15.8545   20.5246 H   0  0  0  0  0  0
  -26.2945  -15.6252   20.0907 H   0  0  0  0  0  0
  -26.7106  -32.5463   23.1074 H   0  0  0  0  0  0
  -25.0248  -33.9706   25.0573 H   0  0  0  0  0  0
  -22.6926  -31.2984   21.4141 H   0  0  0  0  0  0
  -23.3762  -35.9619   23.3336 H   0  0  0  0  0  0
  -24.3575  -36.8911   22.2075 H   0  0  0  0  0  0
  -23.7245  -37.6483   23.6685 H   0  0  0  0  0  0
  -26.0564  -31.5752   20.6076 H   0  0  0  0  0  0
  -26.8192  -30.8544   21.9957 H   0  0  0  0  0  0
  -28.0931  -29.0588   21.1844 H   0  0  0  0  0  0
  -26.0253  -25.9357   19.0342 H   0  0  0  0  0  0
  -23.9681  -27.2688   19.0588 H   0  0  0  0  0  0
  -23.7224  -30.5853   19.4119 H   0  0  0  0  0  0
  -22.7350  -29.2292   19.8771 H   0  0  0  0  0  0
  -25.1322  -36.1960   25.0843 H   0  0  0  0  0  0
  -20.9891  -28.3210   24.1500 H   0  0  0  0  0  0
  -20.5736  -26.2215   23.3623 H   0  0  0  0  0  0
  -21.6639  -26.7475   22.1212 H   0  0  0  0  0  0
  -19.6930  -25.6283   21.1235 H   0  0  0  0  0  0
  -19.6707  -27.3192   20.6786 H   0  0  0  0  0  0
  -17.4231  -26.6728   21.3940 H   0  0  0  0  0  0
  -18.0224  -25.9978   22.8921 H   0  0  0  0  0  0
  -19.7928  -30.7197   24.2287 H   0  0  0  0  0  0
  -17.5021  -31.6256   24.5139 H   0  0  0  0  0  0
  -15.5329  -30.2959   23.7651 H   0  0  0  0  0  0
  -15.8651  -28.0731   22.7171 H   0  0  0  0  0  0
  -24.5951  -30.7073   25.7889 H   0  0  0  0  0  0
  -24.9131  -32.2847   26.5021 H   0  0  0  0  0  0
  -25.8274  -30.8786   27.0186 H   0  0  0  0  0  0
  -26.2786  -29.6606   24.1374 H   0  0  0  0  0  0
  -27.4348  -29.7281   25.4474 H   0  0  0  0  0  0
  -27.8542  -30.4204   23.9012 H   0  0  0  0  0  0
  -27.2866  -33.3697   26.1716 H   0  0  0  0  0  0
  -28.4032  -32.6535   25.0194 H   0  0  0  0  0  0
  -28.0672  -31.8478   26.5446 H   0  0  0  0  0  0
  -28.2756  -37.9948   24.7292 H   0  0  0  0  0  0
  -28.0850  -36.2478   24.6726 H   0  0  0  0  0  0
  -27.2206  -37.1980   25.8901 H   0  0  0  0  0  0
  -20.9297  -29.8638   21.6919 H   0  0  0  0  0  0
  -26.0235  -38.2856   24.1214 H   0  0  0  0  0  0
  -27.9755  -24.4717   21.6102 H   0  0  0  0  0  0
  -27.6165  -22.0401   22.0162 H   0  0  0  0  0  0
  -27.8857  -17.4282   21.6988 H   0  0  0  0  0  0
  -31.3779  -17.2920   19.3849 H   0  0  0  0  0  0
  -30.6787  -16.9058   23.1793 H   0  0  0  0  0  0
  -32.0499  -16.3442   22.2322 H   0  0  0  0  0  0
  -31.1902  -15.2278   23.2936 H   0  0  0  0  0  0
  -27.3926  -19.6658   17.8618 H   0  0  0  0  0  0
  -25.9560  -20.3356   18.6238 H   0  0  0  0  0  0
  -26.3519  -18.6325   18.8200 H   0  0  0  0  0  0
  -27.0814  -19.9132   22.1624 H   0  0  0  0  0  0
  -26.0914  -18.8513   21.1814 H   0  0  0  0  0  0
  -25.8104  -20.5764   21.1369 H   0  0  0  0  0  0
  -28.1435  -25.8689   18.1872 H   0  0  0  0  0  0
  -29.7269  -25.7478   18.8724 H   0  0  0  0  0  0
  -29.1821  -15.3909   21.9421 H   0  0  0  0  0  0
  1 25  1  0  0  0
  1 30  2  0  0  0
  1 82  1  0  0  0
  2  3  1  0  0  0
  2 25  1  0  0  0
  2 88  1  0  0  0
  2 89  1  0  0  0
  3  4  1  0  0  0
  3 90  1  0  0  0
  3 91  1  0  0  0
  4  5  1  0  0  0
  4 92  1  0  0  0
  4 93  1  0  0  0
  5  6  1  0  0  0
  5 26  1  0  0  0
  5 94  1  0  0  0
  6 25  1  0  0  0
  6 95  1  0  0  0
  6 96  1  0  0  0
  7  8  2  0  0  0
  7 26  1  0  0  0
  7 29  1  0  0  0
  8  9  1  0  0  0
  8 22  1  0  0  0
  9 10  1  0  0  0
  9 27  2  0  0  0
 10 11  2  0  0  0
 10 15  1  0  0  0
 11 12  1  0  0  0
 11 97  1  0  0  0
 12 13  2  0  0  0
 12 98  1  0  0  0
 13 14  1  0  0  0
 13 31  1  0  0  0
 14 15  2  0  0  0
 14 99  1  0  0  0
 15100  1  0  0  0
 16 17  2  0  0  0
 16 21  1  0  0  0
 16 31  1  0  0  0
 17 18  1  0  0  0
 17101  1  0  0  0
 18 19  2  0  0  0
 18102  1  0  0  0
 19 20  1  0  0  0
 19 24  1  0  0  0
 20 21  2  0  0  0
 20103  1  0  0  0
 21 23  1  0  0  0
 22 28  1  0  0  0
 22 32  2  0  0  0
 26 27  1  0  0  0
 28104  1  0  0  0
 28105  1  0  0  0
 29106  1  0  0  0
 29107  1  0  0  0
 33 34  1  0  0  0
 33 66  1  0  0  0
 33 70  2  0  0  0
 34 36  1  0  0  0
 34 59  1  0  0  0
 34108  1  0  0  0
 35 44  2  0  0  0
 35 45  1  0  0  0
 35 68  1  0  0  0
 36 56  1  0  0  0
 36109  1  0  0  0
 37 39  1  0  0  0
 37 47  1  0  0  0
 37 66  1  0  0  0
 37110  1  0  0  0
 38 43  2  0  0  0
 38 46  1  0  0  0
 38 47  1  0  0  0
 39 64  1  0  0  0
 39 67  2  0  0  0
 40 52  1  0  0  0
 40 53  2  0  0  0
 40 58  1  0  0  0
 41111  1  0  0  0
 41112  1  0  0  0
 41113  1  0  0  0
 41 48  1  0  0  0
 42 43  1  0  0  0
 42 66  1  0  0  0
 42114  1  0  0  0
 42115  1  0  0  0
 43 44  1  0  0  0
 44116  1  0  0  0
 45 46  2  0  0  0
 45117  1  0  0  0
 46118  1  0  0  0
 47119  1  0  0  0
 47120  1  0  0  0
 48 56  1  0  0  0
 48 65  1  0  0  0
 48121  1  0  0  0
 49 50  1  0  0  0
 49 53  1  0  0  0
 49 64  1  0  0  0
 49122  1  0  0  0
 50 51  1  0  0  0
 50123  1  0  0  0
 50124  1  0  0  0
 51 52  1  0  0  0
 51125  1  0  0  0
 51126  1  0  0  0
 52127  1  0  0  0
 52128  1  0  0  0
 53 54  1  0  0  0
 54 55  2  0  0  0
 54129  1  0  0  0
 55 57  1  0  0  0
 55130  1  0  0  0
 56 69  2  0  0  0
 57 58  2  0  0  0
 57131  1  0  0  0
 58132  1  0  0  0
 59 60  1  0  0  0
 59 61  1  0  0  0
 59 62  1  0  0  0
 60133  1  0  0  0
 60134  1  0  0  0
 60135  1  0  0  0
 61136  1  0  0  0
 61137  1  0  0  0
 61138  1  0  0  0
 62139  1  0  0  0
 62140  1  0  0  0
 62141  1  0  0  0
 63 65  1  0  0  0
 63142  1  0  0  0
 63143  1  0  0  0
 63144  1  0  0  0
 64145  1  0  0  0
 65146  1  0  0  0
 68 81  1  0  0  0
 71 72  2  0  0  0
 71 75  1  0  0  0
 71147  1  0  0  0
 72 76  1  0  0  0
 72148  1  0  0  0
 73 77  2  0  0  0
 73 87  1  0  0  0
 73149  1  0  0  0
 74 84  2  0  0  0
 74 87  1  0  0  0
 74150  1  0  0  0
 75 81  1  0  0  0
 75 85  2  0  0  0
 76 83  1  0  0  0
 76 86  2  0  0  0
 77 83  1  0  0  0
 77 84  1  0  0  0
 78151  1  0  0  0
 78152  1  0  0  0
 78153  1  0  0  0
 78 82  1  0  0  0
 79154  1  0  0  0
 79155  1  0  0  0
 79156  1  0  0  0
 79 83  1  0  0  0
 80 83  1  0  0  0
 80157  1  0  0  0
 80158  1  0  0  0
 80159  1  0  0  0
 81160  1  0  0  0
 81161  1  0  0  0
 82 87  1  0  0  0
 82162  1  0  0  0
 85 86  1  0  0  0
M  ISO  4   1 100  68 101  81 101  82 100
M  END
> <chiral flag>
0

> <version>
0

> <s_m_source_file>
/data/baiqing/PycharmProjects/Reinvent-master-3.2/result/LINK_invent/BTK/process_docking_weight1_custom_sum_contain_oxygen_bond_distance_aromatic_linkinvent_7_9_3/rearranged_h_0058.sdf

> <i_m_source_file_index>
40

> <r_mmod_Potential_Energy-OPLS-2005>
123.047889709473

> <r_mmod_Stretch_Energy-OPLS-2005>
56.8267822265625

> <r_mmod_Bend_Energy-OPLS-2005>
143.179489135742

> <r_mmod_Torsional_Energy-OPLS-2005>
198.28352355957

> <r_mmod_Improper_Torsional_Energy-OPLS-2005>
3.38811874389648

> <r_mmod_Van_der_Waal_Energy-OPLS-2005>
151.67839050293

> <r_mmod_Electrostatic_Energy-OPLS-2005>
-215.616836547852

> <r_mmod_Solvation_Energy-OPLS-2005>
-231.717361450195

> <b_mmod_Minimization_Converged-OPLS-2005>
0

> <r_mmod_RMS_Derivative-OPLS-2005>
2.65255260467529

$$$$
40
                    3D
 Structure written by MMmdl.
166174  0  0  1  0            999 V2000
  -30.5679  -14.7217   20.5173 C   0  0  0  0  0  0
  -30.4494  -12.4513   19.4575 C   0  0  0  0  0  0
  -29.5155  -12.5252   18.2267 C   0  0  0  0  0  0
  -28.0385  -12.3377   18.6310 C   0  0  0  0  0  0
  -27.6453  -13.2123   19.8497 C   0  0  2  0  0  0
  -28.6879  -13.0946   20.9815 C   0  0  0  0  0  0
  -25.2563  -13.8163   20.5663 C   0  0  0  0  0  0
  -24.1822  -13.0441   20.9182 C   0  0  0  0  0  0
  -24.6367  -11.6897   20.8698 C   0  0  0  0  0  0
  -23.9025  -10.4301   21.0374 C   0  0  0  0  0  0
  -24.3578   -9.4241   21.9165 C   0  0  0  0  0  0
  -23.6277   -8.2270   22.0751 C   0  0  0  0  0  0
  -22.4269   -8.0280   21.3537 C   0  0  0  0  0  0
  -21.9882   -9.0247   20.4642 C   0  0  0  0  0  0
  -22.7184  -10.2143   20.3049 C   0  0  0  0  0  0
  -21.6878   -6.0717   22.5272 C   0  0  0  0  0  0
  -21.4019   -6.5615   23.8200 C   0  0  0  0  0  0
  -21.3662   -5.6774   24.9161 C   0  0  0  0  0  0
  -21.6053   -4.3043   24.7220 C   0  0  0  0  0  0
  -21.8824   -3.8128   23.4350 C   0  0  0  0  0  0
  -21.9208   -4.6942   22.3403 C   0  0  0  0  0  0
  -22.7846  -13.5251   21.1846 C   0  0  0  0  0  0
  -22.1671   -4.2113   21.0987 F   0  0  0  0  0  0
  -21.5637   -3.4541   25.7744 F   0  0  0  0  0  0
  -29.9982  -13.4704   20.4291 N   0  0  0  0  0  0
  -26.2943  -12.9308   20.3246 N   0  0  0  0  0  0
  -25.9288  -11.6471   20.5690 N   0  0  0  0  0  0
  -22.0467  -12.8259   22.0403 N   0  0  0  0  0  0
  -25.4315  -15.1884   20.4087 N   0  0  0  0  0  0
  -31.7260  -14.8978   20.1275 O   0  0  0  0  0  0
  -21.6655   -6.8859   21.4237 O   0  0  0  0  0  0
  -22.3530  -14.5547   20.6695 O   0  0  0  0  0  0
  -24.6289  -31.8599   23.2034 C   0  0  0  0  0  0
  -25.9122  -32.4798   23.8368 C   0  0  1  0  0  0
  -27.2228  -27.2885   20.1229 C   0  0  0  0  0  0
  -25.5912  -33.8601   24.2274 N   0  0  0  0  0  0
  -23.4251  -30.4832   21.5471 C   0  0  2  0  0  0
  -24.8714  -28.9374   20.1131 C   0  0  0  0  0  0
  -22.7512  -29.4618   22.4942 C   0  0  0  0  0  0
  -18.0288  -28.1396   22.8513 C   0  0  0  0  0  0
  -24.1471  -36.7310   23.2643 C   0  0  0  0  0  0
  -25.9698  -30.7812   21.3779 C   0  0  0  0  0  0
  -26.0432  -29.4057   20.7203 C   0  0  0  0  0  0
  -27.2214  -28.5965   20.7117 C   0  0  0  0  0  0
  -26.0236  -26.8833   19.4914 C   0  0  0  0  0  0
  -24.8672  -27.6845   19.4855 C   0  0  0  0  0  0
  -23.6420  -29.8222   20.1613 C   0  0  0  0  0  0
  -25.4099  -36.3097   24.0325 C   0  0  1  0  0  0
  -20.5902  -28.3714   23.1298 C   0  0  2  0  0  0
  -20.6790  -26.9437   22.5419 C   0  0  0  0  0  0
  -19.5751  -26.6393   21.5240 C   0  0  0  0  0  0
  -18.1929  -26.7952   22.1641 C   0  0  0  0  0  0
  -19.1541  -28.8866   23.2907 C   0  0  0  0  0  0
  -18.9460  -30.1476   23.8924 C   0  0  0  0  0  0
  -17.6454  -30.6605   24.0563 C   0  0  0  0  0  0
  -25.9042  -34.9471   23.5102 C   0  0  0  0  0  0
  -16.5346  -29.9101   23.6332 C   0  0  0  0  0  0
  -16.7277  -28.6506   23.0381 C   0  0  0  0  0  0
  -26.4481  -31.6639   25.0768 C   0  0  0  0  0  0
  -25.3681  -31.3797   26.1481 C   0  0  0  0  0  0
  -27.0340  -30.3063   24.6251 C   0  0  0  0  0  0
  -27.6033  -32.4402   25.7533 C   0  0  0  0  0  0
  -27.5578  -37.1807   24.8459 C   0  0  0  0  0  0
  -21.4217  -29.3064   22.3695 N   0  0  0  0  0  0
  -26.4280  -37.3794   23.9412 N   0  0  0  0  0  0
  -24.6949  -31.0585   22.0995 N   0  0  0  0  0  0
  -23.4213  -28.8149   23.3031 O   0  0  0  0  0  0
  -28.3377  -26.4218   20.1817 O   0  0  0  0  0  0
  -26.5615  -34.8936   22.4678 O   0  0  0  0  0  0
  -23.5451  -32.1403   23.7341 O   0  0  0  0  0  0
  -29.8131  -21.4304   20.1699 C   0  0  0  0  0  0
  -28.0035  -21.7185   21.2891 C   0  0  0  0  0  0
  -29.3040  -20.1463   20.4590 C   0  0  0  0  0  0
  -29.1584  -24.4009   22.2688 C   0  0  0  0  0  0
  -28.3162  -24.6557   18.4690 C   0  0  0  0  0  0
  -30.8079  -18.8175   18.9100 C   0  0  0  0  0  0
  -28.4554  -18.1582   19.1972 C   0  0  0  0  0  0
  -29.6896  -15.9737   20.9988 C   0  0  0  0  0  0
  -29.1591  -23.9677   20.7920 C   0  0  2  0  0  0
  -30.1196  -17.5521   21.0716 C   0  0  2  0  0  0
  -28.1766  -24.9438   19.9748 C   0  0  1  0  0  0
  -29.6884  -18.6783   19.9666 C   0  0  0  0  0  0
  -28.1408  -20.3860   21.1997 N   0  0  0  0  0  0
  -28.9788  -22.4496   20.7203 N   0  0  0  0  0  0
  -31.5128  -17.7286   21.5351 N   0  3  0  0  0  0
  -31.4838  -12.6093   19.1481 H   0  0  0  0  0  0
  -30.4209  -11.4575   19.9080 H   0  0  0  0  0  0
  -29.8018  -11.7760   17.4870 H   0  0  0  0  0  0
  -29.6366  -13.4940   17.7399 H   0  0  0  0  0  0
  -27.8818  -11.2834   18.8633 H   0  0  0  0  0  0
  -27.3883  -12.5602   17.7839 H   0  0  0  0  0  0
  -27.6480  -14.2389   19.4878 H   0  0  0  0  0  0
  -28.7210  -12.0732   21.3669 H   0  0  0  0  0  0
  -28.4019  -13.7192   21.8279 H   0  0  0  0  0  0
  -25.2727   -9.5745   22.4709 H   0  0  0  0  0  0
  -24.0009   -7.4674   22.7465 H   0  0  0  0  0  0
  -21.0827   -8.8734   19.8932 H   0  0  0  0  0  0
  -22.3623  -10.9661   19.6145 H   0  0  0  0  0  0
  -21.1993   -7.6114   23.9686 H   0  0  0  0  0  0
  -21.1484   -6.0504   25.9056 H   0  0  0  0  0  0
  -22.0604   -2.7589   23.2870 H   0  0  0  0  0  0
  -22.4077  -11.9950   22.4853 H   0  0  0  0  0  0
  -21.1066  -13.1270   22.2524 H   0  0  0  0  0  0
  -24.6721  -15.8501   20.5272 H   0  0  0  0  0  0
  -26.2853  -15.6235   20.0861 H   0  0  0  0  0  0
  -26.7202  -32.5444   23.1128 H   0  0  0  0  0  0
  -25.0047  -33.9760   25.0407 H   0  0  0  0  0  0
  -22.7205  -31.3045   21.4047 H   0  0  0  0  0  0
  -23.3742  -35.9642   23.3299 H   0  0  0  0  0  0
  -24.3543  -36.8941   22.2057 H   0  0  0  0  0  0
  -23.7210  -37.6497   23.6684 H   0  0  0  0  0  0
  -26.1012  -31.5400   20.6051 H   0  0  0  0  0  0
  -26.8516  -30.8354   22.0048 H   0  0  0  0  0  0
  -28.1206  -28.9565   21.1916 H   0  0  0  0  0  0
  -25.9432  -25.9248   19.0026 H   0  0  0  0  0  0
  -23.9726  -27.3227   18.9976 H   0  0  0  0  0  0
  -23.7686  -30.6018   19.4102 H   0  0  0  0  0  0
  -22.7600  -29.2580   19.8528 H   0  0  0  0  0  0
  -25.1279  -36.1955   25.0819 H   0  0  0  0  0  0
  -20.9995  -28.3290   24.1423 H   0  0  0  0  0  0
  -20.5749  -26.2325   23.3629 H   0  0  0  0  0  0
  -21.6650  -26.7506   22.1175 H   0  0  0  0  0  0
  -19.6917  -25.6303   21.1288 H   0  0  0  0  0  0
  -19.6678  -27.3202   20.6772 H   0  0  0  0  0  0
  -17.4219  -26.6753   21.4016 H   0  0  0  0  0  0
  -18.0283  -26.0070   22.9004 H   0  0  0  0  0  0
  -19.7918  -30.7294   24.2316 H   0  0  0  0  0  0
  -17.4991  -31.6290   24.5154 H   0  0  0  0  0  0
  -15.5350  -30.3004   23.7633 H   0  0  0  0  0  0
  -15.8682  -28.0812   22.7121 H   0  0  0  0  0  0
  -24.5835  -30.7185   25.7781 H   0  0  0  0  0  0
  -24.8905  -32.2985   26.4913 H   0  0  0  0  0  0
  -25.7971  -30.8941   27.0258 H   0  0  0  0  0  0
  -26.2941  -29.6815   24.1239 H   0  0  0  0  0  0
  -27.3981  -29.7329   25.4784 H   0  0  0  0  0  0
  -27.8837  -30.4360   23.9542 H   0  0  0  0  0  0
  -27.2636  -33.3702   26.2119 H   0  0  0  0  0  0
  -28.3838  -32.6979   25.0359 H   0  0  0  0  0  0
  -28.0726  -31.8530   26.5438 H   0  0  0  0  0  0
  -28.2597  -38.0102   24.7513 H   0  0  0  0  0  0
  -28.1064  -36.2635   24.6274 H   0  0  0  0  0  0
  -27.2303  -37.1453   25.8862 H   0  0  0  0  0  0
  -20.9412  -29.8766   21.6883 H   0  0  0  0  0  0
  -26.0160  -38.2875   24.1404 H   0  0  0  0  0  0
  -30.6940  -21.7048   19.6067 H   0  0  0  0  0  0
  -27.1859  -22.1756   21.8291 H   0  0  0  0  0  0
  -29.4335  -25.4505   22.3714 H   0  0  0  0  0  0
  -29.8711  -23.8207   22.8540 H   0  0  0  0  0  0
  -28.1710  -24.2824   22.7180 H   0  0  0  0  0  0
  -27.9269  -23.6665   18.2260 H   0  0  0  0  0  0
  -29.3642  -24.6782   18.1657 H   0  0  0  0  0  0
  -27.7916  -25.3836   17.8536 H   0  0  0  0  0  0
  -30.4840  -19.4365   18.0708 H   0  0  0  0  0  0
  -31.1052  -17.8519   18.5002 H   0  0  0  0  0  0
  -31.6982  -19.2967   19.3165 H   0  0  0  0  0  0
  -28.1113  -18.8851   18.4602 H   0  0  0  0  0  0
  -27.6204  -17.9688   19.8736 H   0  0  0  0  0  0
  -28.6661  -17.2365   18.6542 H   0  0  0  0  0  0
  -28.7265  -15.8994   20.5022 H   0  0  0  0  0  0
  -29.4549  -15.7126   22.0306 H   0  0  0  0  0  0
  -30.1656  -24.1640   20.4224 H   0  0  0  0  0  0
  -29.5413  -17.8838   21.9354 H   0  0  0  0  0  0
  -27.1725  -24.6666   20.2970 H   0  0  0  0  0  0
  -32.1652  -17.3944   20.8456 H   0  0  0  0  0  0
  -31.6694  -17.2210   22.3872 H   0  0  0  0  0  0
  -31.7003  -18.6999   21.7133 H   0  0  0  0  0  0
  1 25  1  0  0  0
  1 30  2  0  0  0
  1 78  1  0  0  0
  2  3  1  0  0  0
  2 25  1  0  0  0
  2 86  1  0  0  0
  2 87  1  0  0  0
  3  4  1  0  0  0
  3 88  1  0  0  0
  3 89  1  0  0  0
  4  5  1  0  0  0
  4 90  1  0  0  0
  4 91  1  0  0  0
  5  6  1  0  0  0
  5 26  1  0  0  0
  5 92  1  0  0  0
  6 25  1  0  0  0
  6 93  1  0  0  0
  6 94  1  0  0  0
  7  8  2  0  0  0
  7 26  1  0  0  0
  7 29  1  0  0  0
  8  9  1  0  0  0
  8 22  1  0  0  0
  9 10  1  0  0  0
  9 27  2  0  0  0
 10 11  2  0  0  0
 10 15  1  0  0  0
 11 12  1  0  0  0
 11 95  1  0  0  0
 12 13  2  0  0  0
 12 96  1  0  0  0
 13 14  1  0  0  0
 13 31  1  0  0  0
 14 15  2  0  0  0
 14 97  1  0  0  0
 15 98  1  0  0  0
 16 17  2  0  0  0
 16 21  1  0  0  0
 16 31  1  0  0  0
 17 18  1  0  0  0
 17 99  1  0  0  0
 18 19  2  0  0  0
 18100  1  0  0  0
 19 20  1  0  0  0
 19 24  1  0  0  0
 20 21  2  0  0  0
 20101  1  0  0  0
 21 23  1  0  0  0
 22 28  1  0  0  0
 22 32  2  0  0  0
 26 27  1  0  0  0
 28102  1  0  0  0
 28103  1  0  0  0
 29104  1  0  0  0
 29105  1  0  0  0
 33 34  1  0  0  0
 33 66  1  0  0  0
 33 70  2  0  0  0
 34 36  1  0  0  0
 34 59  1  0  0  0
 34106  1  0  0  0
 35 44  2  0  0  0
 35 45  1  0  0  0
 35 68  1  0  0  0
 36 56  1  0  0  0
 36107  1  0  0  0
 37 39  1  0  0  0
 37 47  1  0  0  0
 37 66  1  0  0  0
 37108  1  0  0  0
 38 43  2  0  0  0
 38 46  1  0  0  0
 38 47  1  0  0  0
 39 64  1  0  0  0
 39 67  2  0  0  0
 40 52  1  0  0  0
 40 53  2  0  0  0
 40 58  1  0  0  0
 41109  1  0  0  0
 41110  1  0  0  0
 41111  1  0  0  0
 41 48  1  0  0  0
 42 43  1  0  0  0
 42 66  1  0  0  0
 42112  1  0  0  0
 42113  1  0  0  0
 43 44  1  0  0  0
 44114  1  0  0  0
 45 46  2  0  0  0
 45115  1  0  0  0
 46116  1  0  0  0
 47117  1  0  0  0
 47118  1  0  0  0
 48 56  1  0  0  0
 48 65  1  0  0  0
 48119  1  0  0  0
 49 50  1  0  0  0
 49 53  1  0  0  0
 49 64  1  0  0  0
 49120  1  0  0  0
 50 51  1  0  0  0
 50121  1  0  0  0
 50122  1  0  0  0
 51 52  1  0  0  0
 51123  1  0  0  0
 51124  1  0  0  0
 52125  1  0  0  0
 52126  1  0  0  0
 53 54  1  0  0  0
 54 55  2  0  0  0
 54127  1  0  0  0
 55 57  1  0  0  0
 55128  1  0  0  0
 56 69  2  0  0  0
 57 58  2  0  0  0
 57129  1  0  0  0
 58130  1  0  0  0
 59 60  1  0  0  0
 59 61  1  0  0  0
 59 62  1  0  0  0
 60131  1  0  0  0
 60132  1  0  0  0
 60133  1  0  0  0
 61134  1  0  0  0
 61135  1  0  0  0
 61136  1  0  0  0
 62137  1  0  0  0
 62138  1  0  0  0
 62139  1  0  0  0
 63 65  1  0  0  0
 63140  1  0  0  0
 63141  1  0  0  0
 63142  1  0  0  0
 64143  1  0  0  0
 65144  1  0  0  0
 68 81  1  0  0  0
 71 73  2  0  0  0
 71 84  1  0  0  0
 71145  1  0  0  0
 72 83  2  0  0  0
 72 84  1  0  0  0
 72146  1  0  0  0
 73 82  1  0  0  0
 73 83  1  0  0  0
 74147  1  0  0  0
 74148  1  0  0  0
 74149  1  0  0  0
 74 79  1  0  0  0
 75150  1  0  0  0
 75151  1  0  0  0
 75152  1  0  0  0
 75 81  1  0  0  0
 76153  1  0  0  0
 76154  1  0  0  0
 76155  1  0  0  0
 76 82  1  0  0  0
 77 82  1  0  0  0
 77156  1  0  0  0
 77157  1  0  0  0
 77158  1  0  0  0
 78 80  1  0  0  0
 78159  1  0  0  0
 78160  1  0  0  0
 79 81  1  0  0  0
 79 84  1  0  0  0
 79161  1  0  0  0
 80 82  1  0  0  0
 80 85  1  0  0  0
 80162  1  0  0  0
 81163  1  0  0  0
 85164  1  0  0  0
 85165  1  0  0  0
 85166  1  0  0  0
M  CHG  1  85   1
M  ISO  4   1 100  68 101  78 100  81 101
M  END
> <chiral flag>
0

> <version>
0

> <s_m_source_file>
/data/baiqing/PycharmProjects/Reinvent-master-3.2/result/LINK_invent/BTK/process_docking_weight1_custom_sum_contain_oxygen_bond_distance_aromatic_linkinvent_7_9_3/rearranged_h_0058.sdf

> <i_m_source_file_index>
41

> <r_mmod_Potential_Energy-OPLS-2005>
-107.110763549805

> <r_mmod_Stretch_Energy-OPLS-2005>
126.010078430176

> <r_mmod_Bend_Energy-OPLS-2005>
196.908905029297

> <r_mmod_Torsional_Energy-OPLS-2005>
211.057250976562

> <r_mmod_Improper_Torsional_Energy-OPLS-2005>
3.81941747665405

> <r_mmod_Van_der_Waal_Energy-OPLS-2005>
118.290855407715

> <r_mmod_Electrostatic_Energy-OPLS-2005>
-380.395050048828

> <r_mmod_Solvation_Energy-OPLS-2005>
-454.562255859375

> <b_mmod_Minimization_Converged-OPLS-2005>
0

> <r_mmod_RMS_Derivative-OPLS-2005>
2.88373351097107

$$$$
41
                    3D
 Structure written by MMmdl.
150158  0  0  1  0            999 V2000
  -30.5168  -15.0340   20.3742 C   0  0  0  0  0  0
  -30.4471  -12.6370   19.5041 C   0  0  0  0  0  0
  -29.5310  -12.5316   18.2614 C   0  0  0  0  0  0
  -28.0670  -12.3048   18.6808 C   0  0  0  0  0  0
  -27.6273  -13.2525   19.8276 C   0  0  2  0  0  0
  -28.6737  -13.3197   20.9617 C   0  0  0  0  0  0
  -25.2460  -13.8195   20.5698 C   0  0  0  0  0  0
  -24.1780  -13.0425   20.9220 C   0  0  0  0  0  0
  -24.6403  -11.6910   20.8743 C   0  0  0  0  0  0
  -23.9074  -10.4292   21.0415 C   0  0  0  0  0  0
  -24.3614   -9.4194   21.9194 C   0  0  0  0  0  0
  -23.6269   -8.2238   22.0772 C   0  0  0  0  0  0
  -22.4239   -8.0292   21.3564 C   0  0  0  0  0  0
  -21.9898   -9.0262   20.4653 C   0  0  0  0  0  0
  -22.7243  -10.2130   20.3072 C   0  0  0  0  0  0
  -21.6834   -6.0721   22.5272 C   0  0  0  0  0  0
  -21.4003   -6.5620   23.8207 C   0  0  0  0  0  0
  -21.3690   -5.6778   24.9179 C   0  0  0  0  0  0
  -21.6064   -4.3033   24.7217 C   0  0  0  0  0  0
  -21.8821   -3.8124   23.4331 C   0  0  0  0  0  0
  -21.9186   -4.6951   22.3391 C   0  0  0  0  0  0
  -22.7793  -13.5212   21.1852 C   0  0  0  0  0  0
  -22.1658   -4.2133   21.0964 F   0  0  0  0  0  0
  -21.5655   -3.4523   25.7735 F   0  0  0  0  0  0
  -29.9416  -13.7543   20.3579 N   0  0  0  0  0  0
  -26.2893  -12.9442   20.3213 N   0  0  0  0  0  0
  -25.9338  -11.6559   20.5729 N   0  0  0  0  0  0
  -22.0399  -12.8264   22.0407 N   0  0  0  0  0  0
  -25.4111  -15.1938   20.4109 N   0  0  0  0  0  0
  -31.7282  -15.0773   20.1318 O   0  0  0  0  0  0
  -21.6618   -6.8872   21.4237 O   0  0  0  0  0  0
  -22.3498  -14.5514   20.6673 O   0  0  0  0  0  0
  -24.6494  -31.8408   23.1792 C   0  0  0  0  0  0
  -25.9231  -32.4677   23.8243 C   0  0  1  0  0  0
  -27.2311  -27.0822   20.1511 C   0  0  0  0  0  0
  -25.5960  -33.8474   24.2186 N   0  0  0  0  0  0
  -23.4587  -30.4532   21.5263 C   0  0  2  0  0  0
  -24.9124  -28.8658   20.1117 C   0  0  0  0  0  0
  -22.7609  -29.4537   22.4821 C   0  0  0  0  0  0
  -18.0329  -28.1391   22.8465 C   0  0  0  0  0  0
  -24.1487  -36.7242   23.2644 C   0  0  0  0  0  0
  -26.0186  -30.6906   21.3926 C   0  0  0  0  0  0
  -26.0895  -29.2949   20.7382 C   0  0  0  0  0  0
  -27.2465  -28.4163   20.7457 C   0  0  0  0  0  0
  -26.0252  -26.7674   19.4865 C   0  0  0  0  0  0
  -24.8951  -27.6159   19.4732 C   0  0  0  0  0  0
  -23.6896  -29.7704   20.1509 C   0  0  0  0  0  0
  -25.4125  -36.3041   24.0332 C   0  0  1  0  0  0
  -20.5946  -28.3735   23.1184 C   0  0  2  0  0  0
  -20.6773  -26.9429   22.5374 C   0  0  0  0  0  0
  -19.5762  -26.6402   21.5179 C   0  0  0  0  0  0
  -18.1939  -26.7952   22.1563 C   0  0  0  0  0  0
  -19.1589  -28.8869   23.2835 C   0  0  0  0  0  0
  -18.9519  -30.1451   23.8897 C   0  0  0  0  0  0
  -17.6511  -30.6578   24.0578 C   0  0  0  0  0  0
  -25.9081  -34.9406   23.5072 C   0  0  0  0  0  0
  -16.5403  -29.9085   23.6323 C   0  0  0  0  0  0
  -16.7322  -28.6493   23.0375 C   0  0  0  0  0  0
  -26.4519  -31.6561   25.0710 C   0  0  0  0  0  0
  -25.3656  -31.3751   26.1367 C   0  0  0  0  0  0
  -27.0412  -30.2963   24.6347 C   0  0  0  0  0  0
  -27.6081  -32.4325   25.7460 C   0  0  0  0  0  0
  -27.5583  -37.1787   24.8481 C   0  0  0  0  0  0
  -21.4296  -29.3058   22.3552 N   0  0  0  0  0  0
  -26.4311  -37.3747   23.9404 N   0  0  0  0  0  0
  -24.7279  -31.0195   22.0861 N   0  0  0  0  0  0
  -23.4189  -28.8090   23.3001 O   0  0  0  0  0  0
  -28.2784  -26.0709   20.2172 O   0  0  0  0  0  0
  -26.5674  -34.8911   22.4657 O   0  0  0  0  0  0
  -23.5593  -32.1314   23.6970 O   0  0  0  0  0  0
  -28.8608  -18.6915   20.5929 C   0  0  0  0  0  0
  -29.3162  -20.0408   20.1422 C   0  0  0  0  0  0
  -29.8053  -17.6661   20.2987 C   0  0  0  0  0  0
  -32.0496  -17.9829   19.0736 C   0  0  0  0  0  0
  -28.5450  -21.5197   19.9255 C   0  0  0  0  0  0
  -28.9830  -23.1316   20.2930 C   0  0  0  0  0  0
  -28.0331  -24.5282   19.9557 C   0  0  0  0  0  0
  -30.5160  -19.7838   19.5991 N   0  0  0  0  0  0
  -30.8099  -18.4219   19.6808 N   0  0  0  0  0  0
  -29.7064  -16.2170   20.4932 N   0  0  0  0  0  0
  -31.4790  -12.7990   19.1898 H   0  0  0  0  0  0
  -30.4559  -11.6995   20.0622 H   0  0  0  0  0  0
  -29.8642  -11.7209   17.6124 H   0  0  0  0  0  0
  -29.6060  -13.4464   17.6706 H   0  0  0  0  0  0
  -27.9795  -11.2696   19.0110 H   0  0  0  0  0  0
  -27.4075  -12.4108   17.8188 H   0  0  0  0  0  0
  -27.5758  -14.2454   19.3774 H   0  0  0  0  0  0
  -28.7804  -12.3520   21.4546 H   0  0  0  0  0  0
  -28.3602  -14.0222   21.7349 H   0  0  0  0  0  0
  -25.2766   -9.5625   22.4769 H   0  0  0  0  0  0
  -23.9948   -7.4626   22.7505 H   0  0  0  0  0  0
  -21.0829   -8.8802   19.8946 H   0  0  0  0  0  0
  -22.3724  -10.9678   19.6174 H   0  0  0  0  0  0
  -21.1975   -7.6119   23.9703 H   0  0  0  0  0  0
  -21.1521   -6.0508   25.9088 H   0  0  0  0  0  0
  -22.0560   -2.7576   23.2838 H   0  0  0  0  0  0
  -22.3944  -11.9959   22.4908 H   0  0  0  0  0  0
  -21.1029  -13.1371   22.2536 H   0  0  0  0  0  0
  -24.6350  -15.8400   20.5107 H   0  0  0  0  0  0
  -26.2470  -15.6327   20.0515 H   0  0  0  0  0  0
  -26.7292  -32.5281   23.0965 H   0  0  0  0  0  0
  -25.0089  -33.9554   25.0328 H   0  0  0  0  0  0
  -22.7664  -31.2816   21.3595 H   0  0  0  0  0  0
  -23.3775  -35.9550   23.3325 H   0  0  0  0  0  0
  -24.3565  -36.8857   22.2055 H   0  0  0  0  0  0
  -23.7212  -37.6435   23.6659 H   0  0  0  0  0  0
  -26.1866  -31.4372   20.6152 H   0  0  0  0  0  0
  -26.8828  -30.7432   22.0418 H   0  0  0  0  0  0
  -28.1385  -28.7302   21.2693 H   0  0  0  0  0  0
  -25.9207  -25.8116   18.9940 H   0  0  0  0  0  0
  -23.9982  -27.2800   18.9707 H   0  0  0  0  0  0
  -23.8276  -30.5338   19.3859 H   0  0  0  0  0  0
  -22.8060  -29.2082   19.8439 H   0  0  0  0  0  0
  -25.1299  -36.1898   25.0832 H   0  0  0  0  0  0
  -21.0072  -28.3301   24.1291 H   0  0  0  0  0  0
  -20.5635  -26.2392   23.3631 H   0  0  0  0  0  0
  -21.6627  -26.7393   22.1161 H   0  0  0  0  0  0
  -19.6924  -25.6307   21.1201 H   0  0  0  0  0  0
  -19.6730  -27.3230   20.6724 H   0  0  0  0  0  0
  -17.4200  -26.6745   21.3974 H   0  0  0  0  0  0
  -18.0324  -26.0081   22.8940 H   0  0  0  0  0  0
  -19.8006  -30.7246   24.2272 H   0  0  0  0  0  0
  -17.5083  -31.6236   24.5198 H   0  0  0  0  0  0
  -15.5400  -30.2985   23.7646 H   0  0  0  0  0  0
  -15.8730  -28.0810   22.7105 H   0  0  0  0  0  0
  -24.5851  -30.7107   25.7627 H   0  0  0  0  0  0
  -24.8795  -32.2916   26.4728 H   0  0  0  0  0  0
  -25.7864  -30.8933   27.0202 H   0  0  0  0  0  0
  -26.3060  -29.6647   24.1345 H   0  0  0  0  0  0
  -27.4004  -29.7307   25.4956 H   0  0  0  0  0  0
  -27.8972  -30.4200   23.9712 H   0  0  0  0  0  0
  -27.2732  -33.3671   26.1966 H   0  0  0  0  0  0
  -28.3881  -32.6812   25.0248 H   0  0  0  0  0  0
  -28.0760  -31.8500   26.5402 H   0  0  0  0  0  0
  -28.2625  -38.0057   24.7502 H   0  0  0  0  0  0
  -28.1061  -36.2591   24.6354 H   0  0  0  0  0  0
  -27.2298  -37.1497   25.8885 H   0  0  0  0  0  0
  -20.9543  -29.8805   21.6748 H   0  0  0  0  0  0
  -26.0208  -38.2846   24.1349 H   0  0  0  0  0  0
  -27.8935  -18.5018   21.0350 H   0  0  0  0  0  0
  -32.8104  -17.8347   19.8419 H   0  0  0  0  0  0
  -32.4107  -18.7258   18.3600 H   0  0  0  0  0  0
  -31.8933  -17.0521   18.5309 H   0  0  0  0  0  0
  -27.5605  -21.4032   20.3759 H   0  0  0  0  0  0
  -28.3236  -21.5613   18.8575 H   0  0  0  0  0  0
  -29.9516  -23.2982   19.8199 H   0  0  0  0  0  0
  -29.1956  -23.1477   21.3615 H   0  0  0  0  0  0
  -27.0693  -24.3162   20.4174 H   0  0  0  0  0  0
  -27.8383  -24.4762   18.8846 H   0  0  0  0  0  0
  -28.7687  -15.9448   20.7407 H   0  0  0  0  0  0
  1 25  1  0  0  0
  1 30  2  0  0  0
  1 80  1  0  0  0
  2  3  1  0  0  0
  2 25  1  0  0  0
  2 81  1  0  0  0
  2 82  1  0  0  0
  3  4  1  0  0  0
  3 83  1  0  0  0
  3 84  1  0  0  0
  4  5  1  0  0  0
  4 85  1  0  0  0
  4 86  1  0  0  0
  5  6  1  0  0  0
  5 26  1  0  0  0
  5 87  1  0  0  0
  6 25  1  0  0  0
  6 88  1  0  0  0
  6 89  1  0  0  0
  7  8  2  0  0  0
  7 26  1  0  0  0
  7 29  1  0  0  0
  8  9  1  0  0  0
  8 22  1  0  0  0
  9 10  1  0  0  0
  9 27  2  0  0  0
 10 11  2  0  0  0
 10 15  1  0  0  0
 11 12  1  0  0  0
 11 90  1  0  0  0
 12 13  2  0  0  0
 12 91  1  0  0  0
 13 14  1  0  0  0
 13 31  1  0  0  0
 14 15  2  0  0  0
 14 92  1  0  0  0
 15 93  1  0  0  0
 16 17  2  0  0  0
 16 21  1  0  0  0
 16 31  1  0  0  0
 17 18  1  0  0  0
 17 94  1  0  0  0
 18 19  2  0  0  0
 18 95  1  0  0  0
 19 20  1  0  0  0
 19 24  1  0  0  0
 20 21  2  0  0  0
 20 96  1  0  0  0
 21 23  1  0  0  0
 22 28  1  0  0  0
 22 32  2  0  0  0
 26 27  1  0  0  0
 28 97  1  0  0  0
 28 98  1  0  0  0
 29 99  1  0  0  0
 29100  1  0  0  0
 33 34  1  0  0  0
 33 66  1  0  0  0
 33 70  2  0  0  0
 34 36  1  0  0  0
 34 59  1  0  0  0
 34101  1  0  0  0
 35 44  2  0  0  0
 35 45  1  0  0  0
 35 68  1  0  0  0
 36 56  1  0  0  0
 36102  1  0  0  0
 37 39  1  0  0  0
 37 47  1  0  0  0
 37 66  1  0  0  0
 37103  1  0  0  0
 38 43  2  0  0  0
 38 46  1  0  0  0
 38 47  1  0  0  0
 39 64  1  0  0  0
 39 67  2  0  0  0
 40 52  1  0  0  0
 40 53  2  0  0  0
 40 58  1  0  0  0
 41104  1  0  0  0
 41105  1  0  0  0
 41106  1  0  0  0
 41 48  1  0  0  0
 42 43  1  0  0  0
 42 66  1  0  0  0
 42107  1  0  0  0
 42108  1  0  0  0
 43 44  1  0  0  0
 44109  1  0  0  0
 45 46  2  0  0  0
 45110  1  0  0  0
 46111  1  0  0  0
 47112  1  0  0  0
 47113  1  0  0  0
 48 56  1  0  0  0
 48 65  1  0  0  0
 48114  1  0  0  0
 49 50  1  0  0  0
 49 53  1  0  0  0
 49 64  1  0  0  0
 49115  1  0  0  0
 50 51  1  0  0  0
 50116  1  0  0  0
 50117  1  0  0  0
 51 52  1  0  0  0
 51118  1  0  0  0
 51119  1  0  0  0
 52120  1  0  0  0
 52121  1  0  0  0
 53 54  1  0  0  0
 54 55  2  0  0  0
 54122  1  0  0  0
 55 57  1  0  0  0
 55123  1  0  0  0
 56 69  2  0  0  0
 57 58  2  0  0  0
 57124  1  0  0  0
 58125  1  0  0  0
 59 60  1  0  0  0
 59 61  1  0  0  0
 59 62  1  0  0  0
 60126  1  0  0  0
 60127  1  0  0  0
 60128  1  0  0  0
 61129  1  0  0  0
 61130  1  0  0  0
 61131  1  0  0  0
 62132  1  0  0  0
 62133  1  0  0  0
 62134  1  0  0  0
 63 65  1  0  0  0
 63135  1  0  0  0
 63136  1  0  0  0
 63137  1  0  0  0
 64138  1  0  0  0
 65139  1  0  0  0
 68 77  1  0  0  0
 71 72  1  0  0  0
 71 73  2  0  0  0
 71140  1  0  0  0
 72 75  1  0  0  0
 72 78  2  0  0  0
 73 79  1  0  0  0
 73 80  1  0  0  0
 74 79  1  0  0  0
 74141  1  0  0  0
 74142  1  0  0  0
 74143  1  0  0  0
 75 76  1  0  0  0
 75144  1  0  0  0
 75145  1  0  0  0
 76 77  1  0  0  0
 76146  1  0  0  0
 76147  1  0  0  0
 77148  1  0  0  0
 77149  1  0  0  0
 78 79  1  0  0  0
 80150  1  0  0  0
M  ISO  4   1 100  68 101  77 101  80 100
M  END
> <chiral flag>
0

> <version>
0

> <s_m_source_file>
/data/baiqing/PycharmProjects/Reinvent-master-3.2/result/LINK_invent/BTK/process_docking_weight1_custom_sum_contain_oxygen_bond_distance_aromatic_linkinvent_7_9_3/rearranged_h_0058.sdf

> <i_m_source_file_index>
42

> <r_mmod_Potential_Energy-OPLS-2005>
524.85107421875

> <r_mmod_Stretch_Energy-OPLS-2005>
309.44677734375

> <r_mmod_Bend_Energy-OPLS-2005>
319.099304199219

> <r_mmod_Torsional_Energy-OPLS-2005>
202.004928588867

> <r_mmod_Improper_Torsional_Energy-OPLS-2005>
5.62441492080688

> <r_mmod_Van_der_Waal_Energy-OPLS-2005>
108.872543334961

> <r_mmod_Electrostatic_Energy-OPLS-2005>
-446.054565429688

> <r_mmod_Solvation_Energy-OPLS-2005>
-224.58186340332

> <b_mmod_Minimization_Converged-OPLS-2005>
0

> <r_mmod_RMS_Derivative-OPLS-2005>
3.86394667625427

$$$$
42
                    3D
 Structure written by MMmdl.
157165  0  0  1  0            999 V2000
  -30.6090  -14.7674   20.4759 C   0  0  0  0  0  0
  -30.4272  -12.4671   19.4605 C   0  0  0  0  0  0
  -29.4925  -12.5031   18.2281 C   0  0  0  0  0  0
  -28.0118  -12.3724   18.6359 C   0  0  0  0  0  0
  -27.6411  -13.2434   19.8624 C   0  0  2  0  0  0
  -28.6912  -13.1251   20.9805 C   0  0  0  0  0  0
  -25.2455  -13.8270   20.5723 C   0  0  0  0  0  0
  -24.1723  -13.0473   20.9231 C   0  0  0  0  0  0
  -24.6371  -11.6988   20.8774 C   0  0  0  0  0  0
  -23.9094  -10.4324   21.0423 C   0  0  0  0  0  0
  -24.3671   -9.4197   21.9155 C   0  0  0  0  0  0
  -23.6320   -8.2235   22.0706 C   0  0  0  0  0  0
  -22.4293   -8.0282   21.3520 C   0  0  0  0  0  0
  -21.9964   -9.0270   20.4631 C   0  0  0  0  0  0
  -22.7317  -10.2151   20.3031 C   0  0  0  0  0  0
  -21.6867   -6.0755   22.5303 C   0  0  0  0  0  0
  -21.4006   -6.5638   23.8237 C   0  0  0  0  0  0
  -21.3662   -5.6769   24.9192 C   0  0  0  0  0  0
  -21.6058   -4.3043   24.7229 C   0  0  0  0  0  0
  -21.8815   -3.8155   23.4343 C   0  0  0  0  0  0
  -21.9165   -4.6975   22.3412 C   0  0  0  0  0  0
  -22.7753  -13.5221   21.1891 C   0  0  0  0  0  0
  -22.1649   -4.2164   21.0999 F   0  0  0  0  0  0
  -21.5633   -3.4540   25.7744 F   0  0  0  0  0  0
  -29.9828  -13.5286   20.4054 N   0  0  0  0  0  0
  -26.2932  -12.9503   20.3409 N   0  0  0  0  0  0
  -25.9315  -11.6651   20.5841 N   0  0  0  0  0  0
  -22.0436  -12.8108   22.0459 N   0  0  0  0  0  0
  -25.4125  -15.1962   20.4178 N   0  0  0  0  0  0
  -31.7566  -14.8706   20.0363 O   0  0  0  0  0  0
  -21.6630   -6.8897   21.4268 O   0  0  0  0  0  0
  -22.3380  -14.5496   20.6752 O   0  0  0  0  0  0
  -24.6317  -31.8576   23.1967 C   0  0  0  0  0  0
  -25.9121  -32.4758   23.8360 C   0  0  1  0  0  0
  -27.2337  -27.2619   20.0959 C   0  0  0  0  0  0
  -25.5933  -33.8584   24.2264 N   0  0  0  0  0  0
  -23.4315  -30.4749   21.5442 C   0  0  2  0  0  0
  -24.8798  -28.9271   20.1099 C   0  0  0  0  0  0
  -22.7557  -29.4591   22.4960 C   0  0  0  0  0  0
  -18.0296  -28.1375   22.8488 C   0  0  0  0  0  0
  -24.1505  -36.7294   23.2627 C   0  0  0  0  0  0
  -25.9762  -30.7660   21.3800 C   0  0  0  0  0  0
  -26.0514  -29.3862   20.7216 C   0  0  0  0  0  0
  -27.2274  -28.5646   20.7074 C   0  0  0  0  0  0
  -26.0404  -26.8927   19.4308 C   0  0  0  0  0  0
  -24.8788  -27.6885   19.4573 C   0  0  0  0  0  0
  -23.6512  -29.8152   20.1602 C   0  0  0  0  0  0
  -25.4118  -36.3084   24.0314 C   0  0  1  0  0  0
  -20.5909  -28.3678   23.1299 C   0  0  2  0  0  0
  -20.6813  -26.9411   22.5414 C   0  0  0  0  0  0
  -19.5788  -26.6366   21.5235 C   0  0  0  0  0  0
  -18.1959  -26.7911   22.1630 C   0  0  0  0  0  0
  -19.1546  -28.8851   23.2872 C   0  0  0  0  0  0
  -18.9468  -30.1462   23.8882 C   0  0  0  0  0  0
  -17.6469  -30.6587   24.0545 C   0  0  0  0  0  0
  -25.9052  -34.9444   23.5072 C   0  0  0  0  0  0
  -16.5359  -29.9092   23.6319 C   0  0  0  0  0  0
  -16.7281  -28.6498   23.0356 C   0  0  0  0  0  0
  -26.4492  -31.6586   25.0736 C   0  0  0  0  0  0
  -25.3709  -31.3748   26.1446 C   0  0  0  0  0  0
  -27.0249  -30.2992   24.6124 C   0  0  0  0  0  0
  -27.6011  -32.4334   25.7527 C   0  0  0  0  0  0
  -27.5588  -37.1800   24.8437 C   0  0  0  0  0  0
  -21.4265  -29.3012   22.3713 N   0  0  0  0  0  0
  -26.4274  -37.3791   23.9421 N   0  0  0  0  0  0
  -24.6991  -31.0542   22.0942 N   0  0  0  0  0  0
  -23.4247  -28.8133   23.3074 O   0  0  0  0  0  0
  -28.3422  -26.3695   20.1596 O   0  0  0  0  0  0
  -26.5639  -34.8933   22.4663 O   0  0  0  0  0  0
  -23.5449  -32.1405   23.7228 O   0  0  0  0  0  0
  -29.6003  -18.7030   20.2666 C   0  0  0  0  0  0
  -31.3115  -17.4389   17.9558 C   0  0  0  0  0  0
  -29.3832  -16.0099   22.1832 C   0  0  0  0  0  0
  -29.9346  -16.9271   18.3961 C   0  0  0  0  0  0
  -29.0712  -23.6648   20.2435 C   0  0  0  0  0  0
  -28.6782  -22.1916   19.6650 C   0  0  0  0  0  0
  -28.2331  -24.9408   19.6660 C   0  0  0  0  0  0
  -29.5228  -17.1464   19.8853 C   0  0  2  0  0  0
  -30.2198  -19.3127   21.3344 N   0  0  0  0  0  0
  -28.9948  -19.6437   19.5058 N   0  0  0  0  0  0
  -29.9815  -20.6153   21.2676 N   0  0  0  0  0  0
  -29.2584  -20.8472   20.1430 N   0  0  0  0  0  0
  -29.8535  -15.9131   20.7893 N   0  0  0  0  0  0
  -31.4599  -12.5935   19.1372 H   0  0  0  0  0  0
  -30.3844  -11.4828   19.9330 H   0  0  0  0  0  0
  -29.7476  -11.7046   17.5323 H   0  0  0  0  0  0
  -29.6356  -13.4343   17.6788 H   0  0  0  0  0  0
  -27.8024  -11.3257   18.8436 H   0  0  0  0  0  0
  -27.3641  -12.6449   17.8029 H   0  0  0  0  0  0
  -27.6427  -14.2798   19.5201 H   0  0  0  0  0  0
  -28.7426  -12.1049   21.3573 H   0  0  0  0  0  0
  -28.3946  -13.7228   21.8346 H   0  0  0  0  0  0
  -25.2826   -9.5656   22.4723 H   0  0  0  0  0  0
  -24.0041   -7.4593   22.7391 H   0  0  0  0  0  0
  -21.0897   -8.8868   19.8876 H   0  0  0  0  0  0
  -22.3816  -10.9727   19.6143 H   0  0  0  0  0  0
  -21.2020   -7.6146   23.9773 H   0  0  0  0  0  0
  -21.1488   -6.0490   25.9097 H   0  0  0  0  0  0
  -22.0580   -2.7620   23.2869 H   0  0  0  0  0  0
  -22.4127  -11.9788   22.4804 H   0  0  0  0  0  0
  -21.1046  -13.1090   22.2707 H   0  0  0  0  0  0
  -24.6595  -15.8634   20.5496 H   0  0  0  0  0  0
  -26.2822  -15.6424   20.1591 H   0  0  0  0  0  0
  -26.7178  -32.5438   23.1115 H   0  0  0  0  0  0
  -25.0103  -33.9796   25.0413 H   0  0  0  0  0  0
  -22.7198  -31.2905   21.3992 H   0  0  0  0  0  0
  -23.3790  -35.9597   23.3202 H   0  0  0  0  0  0
  -24.3603  -36.9007   22.2058 H   0  0  0  0  0  0
  -23.7229  -37.6449   23.6709 H   0  0  0  0  0  0
  -26.1124  -31.5316   20.6137 H   0  0  0  0  0  0
  -26.8557  -30.8245   22.0077 H   0  0  0  0  0  0
  -28.1250  -28.9138   21.1979 H   0  0  0  0  0  0
  -25.9567  -25.9756   18.8655 H   0  0  0  0  0  0
  -23.9871  -27.3454   18.9506 H   0  0  0  0  0  0
  -23.7896  -30.5964   19.4125 H   0  0  0  0  0  0
  -22.7709  -29.2559   19.8401 H   0  0  0  0  0  0
  -25.1303  -36.1902   25.0795 H   0  0  0  0  0  0
  -20.9935  -28.3239   24.1452 H   0  0  0  0  0  0
  -20.5808  -26.2280   23.3612 H   0  0  0  0  0  0
  -21.6678  -26.7521   22.1163 H   0  0  0  0  0  0
  -19.6972  -25.6282   21.1292 H   0  0  0  0  0  0
  -19.6718  -27.3164   20.6767 H   0  0  0  0  0  0
  -17.4243  -26.6650   21.4017 H   0  0  0  0  0  0
  -18.0334  -26.0062   22.9027 H   0  0  0  0  0  0
  -19.7937  -30.7273   24.2246 H   0  0  0  0  0  0
  -17.5019  -31.6261   24.5140 H   0  0  0  0  0  0
  -15.5363  -30.2987   23.7630 H   0  0  0  0  0  0
  -15.8679  -28.0800   22.7094 H   0  0  0  0  0  0
  -24.5911  -30.7045   25.7840 H   0  0  0  0  0  0
  -24.8866  -32.2898   26.4842 H   0  0  0  0  0  0
  -25.8052  -30.9004   27.0244 H   0  0  0  0  0  0
  -26.2751  -29.6834   24.1121 H   0  0  0  0  0  0
  -27.3920  -29.7164   25.4581 H   0  0  0  0  0  0
  -27.8673  -30.4280   23.9319 H   0  0  0  0  0  0
  -27.2585  -33.3676   26.2002 H   0  0  0  0  0  0
  -28.3886  -32.6825   25.0400 H   0  0  0  0  0  0
  -28.0564  -31.8504   26.5536 H   0  0  0  0  0  0
  -28.2514  -38.0192   24.7596 H   0  0  0  0  0  0
  -28.1190  -36.2721   24.6115 H   0  0  0  0  0  0
  -27.2328  -37.1255   25.8845 H   0  0  0  0  0  0
  -20.9481  -29.8691   21.6857 H   0  0  0  0  0  0
  -26.0132  -38.2834   24.1508 H   0  0  0  0  0  0
  -31.2842  -18.5128   17.7656 H   0  0  0  0  0  0
  -31.6129  -16.9512   17.0271 H   0  0  0  0  0  0
  -32.0812  -17.2381   18.6972 H   0  0  0  0  0  0
  -29.6646  -15.1407   22.7815 H   0  0  0  0  0  0
  -28.2960  -16.0590   22.2172 H   0  0  0  0  0  0
  -29.7887  -16.8716   22.7135 H   0  0  0  0  0  0
  -29.8529  -15.8735   18.1241 H   0  0  0  0  0  0
  -29.1979  -17.4211   17.7577 H   0  0  0  0  0  0
  -30.1325  -23.8443   20.0640 H   0  0  0  0  0  0
  -28.9436  -23.6358   21.3243 H   0  0  0  0  0  0
  -28.8380  -22.2296   18.5848 H   0  0  0  0  0  0
  -27.5975  -22.0969   19.7808 H   0  0  0  0  0  0
  -27.2001  -24.6078   19.7403 H   0  0  0  0  0  0
  -28.4638  -25.0007   18.5985 H   0  0  0  0  0  0
  -28.4412  -17.0032   19.8372 H   0  0  0  0  0  0
  1 25  1  0  0  0
  1 30  2  0  0  0
  1 83  1  0  0  0
  2  3  1  0  0  0
  2 25  1  0  0  0
  2 84  1  0  0  0
  2 85  1  0  0  0
  3  4  1  0  0  0
  3 86  1  0  0  0
  3 87  1  0  0  0
  4  5  1  0  0  0
  4 88  1  0  0  0
  4 89  1  0  0  0
  5  6  1  0  0  0
  5 26  1  0  0  0
  5 90  1  0  0  0
  6 25  1  0  0  0
  6 91  1  0  0  0
  6 92  1  0  0  0
  7  8  2  0  0  0
  7 26  1  0  0  0
  7 29  1  0  0  0
  8  9  1  0  0  0
  8 22  1  0  0  0
  9 10  1  0  0  0
  9 27  2  0  0  0
 10 11  2  0  0  0
 10 15  1  0  0  0
 11 12  1  0  0  0
 11 93  1  0  0  0
 12 13  2  0  0  0
 12 94  1  0  0  0
 13 14  1  0  0  0
 13 31  1  0  0  0
 14 15  2  0  0  0
 14 95  1  0  0  0
 15 96  1  0  0  0
 16 17  2  0  0  0
 16 21  1  0  0  0
 16 31  1  0  0  0
 17 18  1  0  0  0
 17 97  1  0  0  0
 18 19  2  0  0  0
 18 98  1  0  0  0
 19 20  1  0  0  0
 19 24  1  0  0  0
 20 21  2  0  0  0
 20 99  1  0  0  0
 21 23  1  0  0  0
 22 28  1  0  0  0
 22 32  2  0  0  0
 26 27  1  0  0  0
 28100  1  0  0  0
 28101  1  0  0  0
 29102  1  0  0  0
 29103  1  0  0  0
 33 34  1  0  0  0
 33 66  1  0  0  0
 33 70  2  0  0  0
 34 36  1  0  0  0
 34 59  1  0  0  0
 34104  1  0  0  0
 35 44  2  0  0  0
 35 45  1  0  0  0
 35 68  1  0  0  0
 36 56  1  0  0  0
 36105  1  0  0  0
 37 39  1  0  0  0
 37 47  1  0  0  0
 37 66  1  0  0  0
 37106  1  0  0  0
 38 43  2  0  0  0
 38 46  1  0  0  0
 38 47  1  0  0  0
 39 64  1  0  0  0
 39 67  2  0  0  0
 40 52  1  0  0  0
 40 53  2  0  0  0
 40 58  1  0  0  0
 41107  1  0  0  0
 41108  1  0  0  0
 41109  1  0  0  0
 41 48  1  0  0  0
 42 43  1  0  0  0
 42 66  1  0  0  0
 42110  1  0  0  0
 42111  1  0  0  0
 43 44  1  0  0  0
 44112  1  0  0  0
 45 46  2  0  0  0
 45113  1  0  0  0
 46114  1  0  0  0
 47115  1  0  0  0
 47116  1  0  0  0
 48 56  1  0  0  0
 48 65  1  0  0  0
 48117  1  0  0  0
 49 50  1  0  0  0
 49 53  1  0  0  0
 49 64  1  0  0  0
 49118  1  0  0  0
 50 51  1  0  0  0
 50119  1  0  0  0
 50120  1  0  0  0
 51 52  1  0  0  0
 51121  1  0  0  0
 51122  1  0  0  0
 52123  1  0  0  0
 52124  1  0  0  0
 53 54  1  0  0  0
 54 55  2  0  0  0
 54125  1  0  0  0
 55 57  1  0  0  0
 55126  1  0  0  0
 56 69  2  0  0  0
 57 58  2  0  0  0
 57127  1  0  0  0
 58128  1  0  0  0
 59 60  1  0  0  0
 59 61  1  0  0  0
 59 62  1  0  0  0
 60129  1  0  0  0
 60130  1  0  0  0
 60131  1  0  0  0
 61132  1  0  0  0
 61133  1  0  0  0
 61134  1  0  0  0
 62135  1  0  0  0
 62136  1  0  0  0
 62137  1  0  0  0
 63 65  1  0  0  0
 63138  1  0  0  0
 63139  1  0  0  0
 63140  1  0  0  0
 64141  1  0  0  0
 65142  1  0  0  0
 68 77  1  0  0  0
 71 78  1  0  0  0
 71 79  1  0  0  0
 71 80  2  0  0  0
 72 74  1  0  0  0
 72143  1  0  0  0
 72144  1  0  0  0
 72145  1  0  0  0
 73 83  1  0  0  0
 73146  1  0  0  0
 73147  1  0  0  0
 73148  1  0  0  0
 74149  1  0  0  0
 74150  1  0  0  0
 74 78  1  0  0  0
 75 76  1  0  0  0
 75 77  1  0  0  0
 75151  1  0  0  0
 75152  1  0  0  0
 76 82  1  0  0  0
 76153  1  0  0  0
 76154  1  0  0  0
 77155  1  0  0  0
 77156  1  0  0  0
 78 83  1  0  0  0
 78157  1  0  0  0
 79 81  2  0  0  0
 80 82  1  0  0  0
 81 82  1  0  0  0
M  ISO  4   1 100  68 101  77 101  83 100
M  END
> <chiral flag>
0

> <version>
0

> <s_m_source_file>
/data/baiqing/PycharmProjects/Reinvent-master-3.2/result/LINK_invent/BTK/process_docking_weight1_custom_sum_contain_oxygen_bond_distance_aromatic_linkinvent_7_9_3/rearranged_h_0058.sdf

> <i_m_source_file_index>
43

> <r_mmod_Potential_Energy-OPLS-2005>
319.368408203125

> <r_mmod_Stretch_Energy-OPLS-2005>
155.884353637695

> <r_mmod_Bend_Energy-OPLS-2005>
228.072387695312

> <r_mmod_Torsional_Energy-OPLS-2005>
282.632751464844

> <r_mmod_Improper_Torsional_Energy-OPLS-2005>
6.19787693023682

> <r_mmod_Van_der_Waal_Energy-OPLS-2005>
119.524040222168

> <r_mmod_Electrostatic_Energy-OPLS-2005>
-339.446411132812

> <r_mmod_Solvation_Energy-OPLS-2005>
-219.100006103516

> <b_mmod_Minimization_Converged-OPLS-2005>
0

> <r_mmod_RMS_Derivative-OPLS-2005>
8.93277168273926

$$$$
43
                    3D
 Structure written by MMmdl.
166174  0  0  1  0            999 V2000
  -30.5092  -15.2535   20.3114 C   0  0  0  0  0  0
  -30.4476  -12.7922   19.4800 C   0  0  0  0  0  0
  -29.5256  -12.4426   18.2831 C   0  0  0  0  0  0
  -28.1196  -12.1183   18.7988 C   0  0  0  0  0  0
  -27.6143  -13.1783   19.7953 C   0  0  2  0  0  0
  -28.6458  -13.4918   20.9056 C   0  0  0  0  0  0
  -25.2731  -13.7988   20.5831 C   0  0  0  0  0  0
  -24.1959  -13.0428   20.9384 C   0  0  0  0  0  0
  -24.6325  -11.6802   20.8805 C   0  0  0  0  0  0
  -23.8950  -10.4247   21.0453 C   0  0  0  0  0  0
  -24.3543   -9.4175   21.9206 C   0  0  0  0  0  0
  -23.6267   -8.2184   22.0705 C   0  0  0  0  0  0
  -22.4253   -8.0209   21.3525 C   0  0  0  0  0  0
  -21.9875   -9.0175   20.4625 C   0  0  0  0  0  0
  -22.7135  -10.2094   20.3071 C   0  0  0  0  0  0
  -21.6825   -6.0690   22.5296 C   0  0  0  0  0  0
  -21.4018   -6.5592   23.8242 C   0  0  0  0  0  0
  -21.3731   -5.6767   24.9211 C   0  0  0  0  0  0
  -21.6018   -4.3009   24.7267 C   0  0  0  0  0  0
  -21.8758   -3.8104   23.4368 C   0  0  0  0  0  0
  -21.9140   -4.6901   22.3436 C   0  0  0  0  0  0
  -22.7985  -13.5283   21.2040 C   0  0  0  0  0  0
  -22.1636   -4.2095   21.1016 F   0  0  0  0  0  0
  -21.5667   -3.4514   25.7797 F   0  0  0  0  0  0
  -29.8881  -13.9683   20.2713 N   0  0  0  0  0  0
  -26.2918  -12.8972   20.3214 N   0  0  0  0  0  0
  -25.9185  -11.6181   20.5653 N   0  0  0  0  0  0
  -22.0650  -12.8318   22.0605 N   0  0  0  0  0  0
  -25.4943  -15.1684   20.4109 N   0  0  0  0  0  0
  -31.7144  -15.1196   20.0488 O   0  0  0  0  0  0
  -21.6582   -6.8825   21.4259 O   0  0  0  0  0  0
  -22.3681  -14.5573   20.6773 O   0  0  0  0  0  0
  -24.6523  -31.8295   23.1728 C   0  0  0  0  0  0
  -25.9272  -32.4635   23.8119 C   0  0  1  0  0  0
  -27.2462  -26.9952   20.1696 C   0  0  0  0  0  0
  -25.5965  -33.8438   24.2058 N   0  0  0  0  0  0
  -23.4637  -30.4261   21.5309 C   0  0  2  0  0  0
  -24.9209  -28.8271   20.1179 C   0  0  0  0  0  0
  -22.7614  -29.4363   22.4962 C   0  0  0  0  0  0
  -18.0296  -28.1274   22.8438 C   0  0  0  0  0  0
  -24.1468  -36.7205   23.2632 C   0  0  0  0  0  0
  -26.0258  -30.6652   21.3795 C   0  0  0  0  0  0
  -26.1064  -29.2555   20.7323 C   0  0  0  0  0  0
  -27.2636  -28.3610   20.7313 C   0  0  0  0  0  0
  -26.0287  -26.7051   19.5109 C   0  0  0  0  0  0
  -24.9084  -27.5730   19.4833 C   0  0  0  0  0  0
  -23.6906  -29.7292   20.1613 C   0  0  0  0  0  0
  -25.4123  -36.2994   24.0283 C   0  0  1  0  0  0
  -20.5923  -28.3452   23.1303 C   0  0  2  0  0  0
  -20.6569  -26.9147   22.5398 C   0  0  0  0  0  0
  -19.5760  -26.6588   21.4854 C   0  0  0  0  0  0
  -18.1962  -26.7917   22.1322 C   0  0  0  0  0  0
  -19.1583  -28.8651   23.2939 C   0  0  0  0  0  0
  -18.9566  -30.1162   23.9127 C   0  0  0  0  0  0
  -17.6591  -30.6401   24.0708 C   0  0  0  0  0  0
  -25.9097  -34.9381   23.4994 C   0  0  0  0  0  0
  -16.5447  -29.8995   23.6370 C   0  0  0  0  0  0
  -16.7319  -28.6439   23.0281 C   0  0  0  0  0  0
  -26.4542  -31.6521   25.0586 C   0  0  0  0  0  0
  -25.3635  -31.3803   26.1203 C   0  0  0  0  0  0
  -27.0411  -30.2899   24.6213 C   0  0  0  0  0  0
  -27.6075  -32.4244   25.7401 C   0  0  0  0  0  0
  -27.5570  -37.1758   24.8481 C   0  0  0  0  0  0
  -21.4290  -29.2807   22.3669 N   0  0  0  0  0  0
  -26.4300  -37.3718   23.9395 N   0  0  0  0  0  0
  -24.7371  -30.9980   22.0852 N   0  0  0  0  0  0
  -23.4257  -28.7969   23.3146 O   0  0  0  0  0  0
  -28.2852  -25.9374   20.2262 O   0  0  0  0  0  0
  -26.5715  -34.8922   22.4595 O   0  0  0  0  0  0
  -23.5582  -32.1236   23.6820 O   0  0  0  0  0  0
  -29.0243  -19.9113   18.3017 C   0  0  0  0  0  0
  -29.1778  -19.7379   19.6632 C   0  0  0  0  0  0
  -28.6204  -17.8196   18.6001 C   0  0  0  0  0  0
  -28.0983  -16.4817   18.2051 C   0  0  0  0  0  0
  -28.0409  -21.8562   16.9826 C   0  0  0  0  0  0
  -29.5201  -16.6545   23.1663 C   0  0  0  0  0  0
  -31.8165  -17.4481   22.4133 C   0  0  0  0  0  0
  -29.2982  -21.0835   17.4113 C   0  0  0  0  0  0
  -29.2103  -21.1755   20.5996 C   0  0  0  0  0  0
  -29.1903  -22.9456   20.1976 C   0  0  0  0  0  0
  -28.0617  -24.3199   20.1637 C   0  0  0  0  0  0
  -30.0139  -16.9434   20.6171 C   0  0  2  0  0  0
  -30.3017  -17.4167   22.0788 C   0  0  0  0  0  0
  -28.5239  -18.7795   17.7091 N   0  0  0  0  0  0
  -29.2990  -18.1593   19.7360 N   0  0  0  0  0  0
  -31.4352  -13.0027   19.0656 H   0  0  0  0  0  0
  -30.6001  -11.9185   20.1123 H   0  0  0  0  0  0
  -29.9187  -11.5791   17.7357 H   0  0  0  0  0  0
  -29.4948  -13.2598   17.5649 H   0  0  0  0  0  0
  -28.2076  -11.1678   19.3264 H   0  0  0  0  0  0
  -27.4117  -11.9481   17.9907 H   0  0  0  0  0  0
  -27.4563  -14.0285   19.1551 H   0  0  0  0  0  0
  -28.8538  -12.5985   21.4928 H   0  0  0  0  0  0
  -28.2607  -14.2373   21.6026 H   0  0  0  0  0  0
  -25.2673   -9.5618   22.4797 H   0  0  0  0  0  0
  -23.9969   -7.4550   22.7383 H   0  0  0  0  0  0
  -21.0799   -8.8606   19.8972 H   0  0  0  0  0  0
  -22.3584  -10.9630   19.6187 H   0  0  0  0  0  0
  -21.2038   -7.6115   23.9750 H   0  0  0  0  0  0
  -21.1676   -6.0508   25.9156 H   0  0  0  0  0  0
  -22.0478   -2.7558   23.2866 H   0  0  0  0  0  0
  -22.4219  -11.9875   22.4823 H   0  0  0  0  0  0
  -21.1347  -13.1446   22.3002 H   0  0  0  0  0  0
  -24.7951  -15.8833   20.5622 H   0  0  0  0  0  0
  -26.3713  -15.5404   20.0599 H   0  0  0  0  0  0
  -26.7355  -32.5198   23.0833 H   0  0  0  0  0  0
  -25.0022  -33.9533   25.0144 H   0  0  0  0  0  0
  -22.7650  -31.2488   21.3577 H   0  0  0  0  0  0
  -23.3760  -35.9514   23.3289 H   0  0  0  0  0  0
  -24.3559  -36.8851   22.2064 H   0  0  0  0  0  0
  -23.7222  -37.6379   23.6685 H   0  0  0  0  0  0
  -26.1677  -31.4052   20.5902 H   0  0  0  0  0  0
  -26.8997  -30.7448   22.0158 H   0  0  0  0  0  0
  -28.1692  -28.6928   21.2223 H   0  0  0  0  0  0
  -25.9187  -25.7453   19.0284 H   0  0  0  0  0  0
  -24.0081  -27.2350   18.9868 H   0  0  0  0  0  0
  -23.7986  -30.4803   19.3763 H   0  0  0  0  0  0
  -22.8100  -29.1442   19.8879 H   0  0  0  0  0  0
  -25.1314  -36.1783   25.0780 H   0  0  0  0  0  0
  -21.0065  -28.2801   24.1415 H   0  0  0  0  0  0
  -21.6465  -26.6895   22.1442 H   0  0  0  0  0  0
  -20.4907  -26.2016   23.3500 H   0  0  0  0  0  0
  -19.6926  -25.6773   21.0248 H   0  0  0  0  0  0
  -19.6737  -27.3863   20.6763 H   0  0  0  0  0  0
  -17.4349  -26.6822   21.3564 H   0  0  0  0  0  0
  -18.0472  -25.9843   22.8542 H   0  0  0  0  0  0
  -19.8118  -30.6811   24.2599 H   0  0  0  0  0  0
  -17.5183  -31.6045   24.5414 H   0  0  0  0  0  0
  -15.5441  -30.2956   23.7552 H   0  0  0  0  0  0
  -15.8734  -28.0854   22.6806 H   0  0  0  0  0  0
  -24.5840  -30.7147   25.7469 H   0  0  0  0  0  0
  -24.8787  -32.3017   26.4418 H   0  0  0  0  0  0
  -25.7771  -30.9079   27.0108 H   0  0  0  0  0  0
  -26.3058  -29.6630   24.1146 H   0  0  0  0  0  0
  -27.3940  -29.7192   25.4821 H   0  0  0  0  0  0
  -27.8968  -30.4131   23.9574 H   0  0  0  0  0  0
  -27.2729  -33.3591   26.1881 H   0  0  0  0  0  0
  -28.3942  -32.6701   25.0266 H   0  0  0  0  0  0
  -28.0632  -31.8390   26.5388 H   0  0  0  0  0  0
  -28.2584  -38.0050   24.7479 H   0  0  0  0  0  0
  -28.1049  -36.2579   24.6324 H   0  0  0  0  0  0
  -27.2271  -37.1393   25.8880 H   0  0  0  0  0  0
  -20.9495  -29.8439   21.6790 H   0  0  0  0  0  0
  -26.0130  -38.2762   24.1422 H   0  0  0  0  0  0
  -28.5325  -16.1794   17.2504 H   0  0  0  0  0  0
  -28.3680  -15.7563   18.9390 H   0  0  0  0  0  0
  -27.0018  -16.4894   18.1084 H   0  0  0  0  0  0
  -27.4145  -21.2297   16.3460 H   0  0  0  0  0  0
  -28.3093  -22.7384   16.3976 H   0  0  0  0  0  0
  -27.4379  -22.1712   17.8329 H   0  0  0  0  0  0
  -29.7438  -15.5871   23.1737 H   0  0  0  0  0  0
  -28.4442  -16.7812   23.0369 H   0  0  0  0  0  0
  -29.7742  -17.0362   24.1538 H   0  0  0  0  0  0
  -32.0118  -17.8059   23.4246 H   0  0  0  0  0  0
  -32.3332  -18.1372   21.7393 H   0  0  0  0  0  0
  -32.2901  -16.4709   22.3399 H   0  0  0  0  0  0
  -29.7836  -20.7204   16.5070 H   0  0  0  0  0  0
  -30.0546  -21.7188   17.8579 H   0  0  0  0  0  0
  -30.1470  -21.0711   21.1559 H   0  0  0  0  0  0
  -28.4875  -21.0473   21.4079 H   0  0  0  0  0  0
  -29.8517  -23.1192   19.3518 H   0  0  0  0  0  0
  -29.8093  -23.3092   21.0229 H   0  0  0  0  0  0
  -27.3120  -24.1284   20.9311 H   0  0  0  0  0  0
  -27.5243  -24.1917   19.2220 H   0  0  0  0  0  0
  -30.9662  -17.2459   20.1820 H   0  0  0  0  0  0
  -29.9974  -18.4599   22.1445 H   0  0  0  0  0  0
  1 25  1  0  0  0
  1 30  2  0  0  0
  1 82  1  0  0  0
  2  3  1  0  0  0
  2 25  1  0  0  0
  2 86  1  0  0  0
  2 87  1  0  0  0
  3  4  1  0  0  0
  3 88  1  0  0  0
  3 89  1  0  0  0
  4  5  1  0  0  0
  4 90  1  0  0  0
  4 91  1  0  0  0
  5  6  1  0  0  0
  5 26  1  0  0  0
  5 92  1  0  0  0
  6 25  1  0  0  0
  6 93  1  0  0  0
  6 94  1  0  0  0
  7  8  2  0  0  0
  7 26  1  0  0  0
  7 29  1  0  0  0
  8  9  1  0  0  0
  8 22  1  0  0  0
  9 10  1  0  0  0
  9 27  2  0  0  0
 10 11  2  0  0  0
 10 15  1  0  0  0
 11 12  1  0  0  0
 11 95  1  0  0  0
 12 13  2  0  0  0
 12 96  1  0  0  0
 13 14  1  0  0  0
 13 31  1  0  0  0
 14 15  2  0  0  0
 14 97  1  0  0  0
 15 98  1  0  0  0
 16 17  2  0  0  0
 16 21  1  0  0  0
 16 31  1  0  0  0
 17 18  1  0  0  0
 17 99  1  0  0  0
 18 19  2  0  0  0
 18100  1  0  0  0
 19 20  1  0  0  0
 19 24  1  0  0  0
 20 21  2  0  0  0
 20101  1  0  0  0
 21 23  1  0  0  0
 22 28  1  0  0  0
 22 32  2  0  0  0
 26 27  1  0  0  0
 28102  1  0  0  0
 28103  1  0  0  0
 29104  1  0  0  0
 29105  1  0  0  0
 33 34  1  0  0  0
 33 66  1  0  0  0
 33 70  2  0  0  0
 34 36  1  0  0  0
 34 59  1  0  0  0
 34106  1  0  0  0
 35 44  2  0  0  0
 35 45  1  0  0  0
 35 68  1  0  0  0
 36 56  1  0  0  0
 36107  1  0  0  0
 37 39  1  0  0  0
 37 47  1  0  0  0
 37 66  1  0  0  0
 37108  1  0  0  0
 38 43  2  0  0  0
 38 46  1  0  0  0
 38 47  1  0  0  0
 39 64  1  0  0  0
 39 67  2  0  0  0
 40 52  1  0  0  0
 40 53  2  0  0  0
 40 58  1  0  0  0
 41109  1  0  0  0
 41110  1  0  0  0
 41111  1  0  0  0
 41 48  1  0  0  0
 42 43  1  0  0  0
 42 66  1  0  0  0
 42112  1  0  0  0
 42113  1  0  0  0
 43 44  1  0  0  0
 44114  1  0  0  0
 45 46  2  0  0  0
 45115  1  0  0  0
 46116  1  0  0  0
 47117  1  0  0  0
 47118  1  0  0  0
 48 56  1  0  0  0
 48 65  1  0  0  0
 48119  1  0  0  0
 49 50  1  0  0  0
 49 53  1  0  0  0
 49 64  1  0  0  0
 49120  1  0  0  0
 50 51  1  0  0  0
 50121  1  0  0  0
 50122  1  0  0  0
 51 52  1  0  0  0
 51123  1  0  0  0
 51124  1  0  0  0
 52125  1  0  0  0
 52126  1  0  0  0
 53 54  1  0  0  0
 54 55  2  0  0  0
 54127  1  0  0  0
 55 57  1  0  0  0
 55128  1  0  0  0
 56 69  2  0  0  0
 57 58  2  0  0  0
 57129  1  0  0  0
 58130  1  0  0  0
 59 60  1  0  0  0
 59 61  1  0  0  0
 59 62  1  0  0  0
 60131  1  0  0  0
 60132  1  0  0  0
 60133  1  0  0  0
 61134  1  0  0  0
 61135  1  0  0  0
 61136  1  0  0  0
 62137  1  0  0  0
 62138  1  0  0  0
 62139  1  0  0  0
 63 65  1  0  0  0
 63140  1  0  0  0
 63141  1  0  0  0
 63142  1  0  0  0
 64143  1  0  0  0
 65144  1  0  0  0
 68 81  1  0  0  0
 71 72  2  0  0  0
 71 78  1  0  0  0
 71 84  1  0  0  0
 72 79  1  0  0  0
 72 85  1  0  0  0
 73 74  1  0  0  0
 73 84  2  0  0  0
 73 85  1  0  0  0
 74145  1  0  0  0
 74146  1  0  0  0
 74147  1  0  0  0
 75 78  1  0  0  0
 75148  1  0  0  0
 75149  1  0  0  0
 75150  1  0  0  0
 76151  1  0  0  0
 76152  1  0  0  0
 76153  1  0  0  0
 76 83  1  0  0  0
 77 83  1  0  0  0
 77154  1  0  0  0
 77155  1  0  0  0
 77156  1  0  0  0
 78157  1  0  0  0
 78158  1  0  0  0
 79 80  1  0  0  0
 79159  1  0  0  0
 79160  1  0  0  0
 80 81  1  0  0  0
 80161  1  0  0  0
 80162  1  0  0  0
 81163  1  0  0  0
 81164  1  0  0  0
 82 83  1  0  0  0
 82 85  1  0  0  0
 82165  1  0  0  0
 83166  1  0  0  0
M  ISO  4   1 100  68 101  81 101  82 100
M  END
> <chiral flag>
0

> <version>
0

> <s_m_source_file>
/data/baiqing/PycharmProjects/Reinvent-master-3.2/result/LINK_invent/BTK/process_docking_weight1_custom_sum_contain_oxygen_bond_distance_aromatic_linkinvent_7_9_3/rearranged_h_0058.sdf

> <i_m_source_file_index>
44

> <r_mmod_Potential_Energy-OPLS-2005>
1522.93896484375

> <r_mmod_Stretch_Energy-OPLS-2005>
639.864379882812

> <r_mmod_Bend_Energy-OPLS-2005>
601.501403808594

> <r_mmod_Torsional_Energy-OPLS-2005>
262.754791259766

> <r_mmod_Improper_Torsional_Energy-OPLS-2005>
2.31001400947571

> <r_mmod_Van_der_Waal_Energy-OPLS-2005>
115.838287353516

> <r_mmod_Electrostatic_Energy-OPLS-2005>
-312.546569824219

> <r_mmod_Solvation_Energy-OPLS-2005>
-198.566131591797

> <b_mmod_Minimization_Converged-OPLS-2005>
0

> <r_mmod_RMS_Derivative-OPLS-2005>
11.644980430603

$$$$
44
                    3D
 Structure written by MMmdl.
156164  0  0  1  0            999 V2000
  -30.4874  -15.0461   20.3964 C   0  0  0  0  0  0
  -30.4426  -12.6488   19.5255 C   0  0  0  0  0  0
  -29.5312  -12.5598   18.2788 C   0  0  0  0  0  0
  -28.0668  -12.3214   18.6880 C   0  0  0  0  0  0
  -27.6290  -13.2568   19.8439 C   0  0  2  0  0  0
  -28.6642  -13.3128   20.9885 C   0  0  0  0  0  0
  -25.2461  -13.8226   20.5756 C   0  0  0  0  0  0
  -24.1768  -13.0445   20.9226 C   0  0  0  0  0  0
  -24.6387  -11.6930   20.8733 C   0  0  0  0  0  0
  -23.9075  -10.4304   21.0394 C   0  0  0  0  0  0
  -24.3618   -9.4217   21.9175 C   0  0  0  0  0  0
  -23.6304   -8.2244   22.0740 C   0  0  0  0  0  0
  -22.4281   -8.0280   21.3540 C   0  0  0  0  0  0
  -21.9917   -9.0246   20.4629 C   0  0  0  0  0  0
  -22.7244  -10.2134   20.3048 C   0  0  0  0  0  0
  -21.6853   -6.0731   22.5279 C   0  0  0  0  0  0
  -21.4011   -6.5637   23.8210 C   0  0  0  0  0  0
  -21.3657   -5.6785   24.9169 C   0  0  0  0  0  0
  -21.6059   -4.3052   24.7220 C   0  0  0  0  0  0
  -21.8819   -3.8146   23.4341 C   0  0  0  0  0  0
  -21.9196   -4.6961   22.3400 C   0  0  0  0  0  0
  -22.7796  -13.5229   21.1881 C   0  0  0  0  0  0
  -22.1671   -4.2156   21.0964 F   0  0  0  0  0  0
  -21.5629   -3.4528   25.7724 F   0  0  0  0  0  0
  -29.9368  -13.7560   20.3997 N   0  0  0  0  0  0
  -26.2880  -12.9470   20.3272 N   0  0  0  0  0  0
  -25.9323  -11.6589   20.5732 N   0  0  0  0  0  0
  -22.0430  -12.8215   22.0414 N   0  0  0  0  0  0
  -25.4185  -15.1956   20.4245 N   0  0  0  0  0  0
  -31.6690  -15.1279   20.0442 O   0  0  0  0  0  0
  -21.6638   -6.8876   21.4244 O   0  0  0  0  0  0
  -22.3480  -14.5520   20.6703 O   0  0  0  0  0  0
  -24.6501  -31.8354   23.1759 C   0  0  0  0  0  0
  -25.9224  -32.4673   23.8180 C   0  0  1  0  0  0
  -27.2318  -27.0631   20.1599 C   0  0  0  0  0  0
  -25.5971  -33.8477   24.2136 N   0  0  0  0  0  0
  -23.4598  -30.4461   21.5233 C   0  0  2  0  0  0
  -24.9116  -28.8564   20.0982 C   0  0  0  0  0  0
  -22.7599  -29.4482   22.4810 C   0  0  0  0  0  0
  -18.0315  -28.1436   22.8529 C   0  0  0  0  0  0
  -24.1459  -36.7186   23.2640 C   0  0  0  0  0  0
  -26.0160  -30.6831   21.3855 C   0  0  0  0  0  0
  -26.0844  -29.2853   20.7280 C   0  0  0  0  0  0
  -27.2338  -28.4025   20.7454 C   0  0  0  0  0  0
  -26.0369  -26.7480   19.4766 C   0  0  0  0  0  0
  -24.9073  -27.6058   19.4525 C   0  0  0  0  0  0
  -23.6866  -29.7652   20.1413 C   0  0  0  0  0  0
  -25.4095  -36.3007   24.0331 C   0  0  1  0  0  0
  -20.5934  -28.3743   23.1266 C   0  0  2  0  0  0
  -20.6783  -26.9424   22.5443 C   0  0  0  0  0  0
  -19.5746  -26.6422   21.5242 C   0  0  0  0  0  0
  -18.1944  -26.7988   22.1645 C   0  0  0  0  0  0
  -19.1578  -28.8908   23.2914 C   0  0  0  0  0  0
  -18.9505  -30.1512   23.8919 C   0  0  0  0  0  0
  -17.6509  -30.6641   24.0583 C   0  0  0  0  0  0
  -25.9087  -34.9403   23.5056 C   0  0  0  0  0  0
  -16.5395  -29.9146   23.6369 C   0  0  0  0  0  0
  -16.7300  -28.6556   23.0408 C   0  0  0  0  0  0
  -26.4513  -31.6578   25.0686 C   0  0  0  0  0  0
  -25.3681  -31.3803   26.1350 C   0  0  0  0  0  0
  -27.0385  -30.3006   24.6249 C   0  0  0  0  0  0
  -27.6062  -32.4348   25.7458 C   0  0  0  0  0  0
  -27.5574  -37.1717   24.8451 C   0  0  0  0  0  0
  -21.4279  -29.3041   22.3588 N   0  0  0  0  0  0
  -26.4218  -37.3766   23.9482 N   0  0  0  0  0  0
  -24.7292  -31.0140   22.0812 N   0  0  0  0  0  0
  -23.4197  -28.8065   23.3023 O   0  0  0  0  0  0
  -28.2792  -26.0656   20.3418 O   0  0  0  0  0  0
  -26.5677  -34.8933   22.4637 O   0  0  0  0  0  0
  -23.5614  -32.1237   23.6964 O   0  0  0  0  0  0
  -26.6431  -21.5196   20.2309 C   0  0  0  0  0  0
  -28.2602  -23.0748   20.1701 C   0  0  0  0  0  0
  -28.7313  -20.6649   20.3247 C   0  0  0  0  0  0
  -30.0636  -24.7671   19.3355 C   0  0  0  0  0  0
  -29.1094  -18.9688   22.2497 C   0  0  0  0  0  0
  -31.0713  -19.6302   20.8692 C   0  0  0  0  0  0
  -29.5644  -17.7267   20.0037 C   0  0  0  0  0  0
  -28.5677  -24.6598   19.6613 C   0  0  2  0  0  0
  -29.5722  -19.2627   20.8058 C   0  0  0  0  0  0
  -26.9610  -22.8115   20.1978 N   0  0  0  0  0  0
  -27.4280  -20.4433   20.2584 N   0  0  0  0  0  0
  -29.1869  -22.0058   20.2808 N   0  0  0  0  0  0
  -29.6784  -16.2223   20.6028 N   0  0  0  0  0  0
  -31.4745  -12.8215   19.2145 H   0  0  0  0  0  0
  -30.4530  -11.7043   20.0701 H   0  0  0  0  0  0
  -29.8725  -11.7638   17.6152 H   0  0  0  0  0  0
  -29.6049  -13.4867   17.7084 H   0  0  0  0  0  0
  -27.9777  -11.2823   19.0044 H   0  0  0  0  0  0
  -27.4074  -12.4405   17.8292 H   0  0  0  0  0  0
  -27.5839  -14.2541   19.4069 H   0  0  0  0  0  0
  -28.7675  -12.3420   21.4738 H   0  0  0  0  0  0
  -28.3395  -14.0101   21.7632 H   0  0  0  0  0  0
  -25.2760   -9.5692   22.4760 H   0  0  0  0  0  0
  -24.0009   -7.4634   22.7458 H   0  0  0  0  0  0
  -21.0852   -8.8764   19.8935 H   0  0  0  0  0  0
  -22.3695  -10.9666   19.6157 H   0  0  0  0  0  0
  -21.1994   -7.6139   23.9718 H   0  0  0  0  0  0
  -21.1488   -6.0502   25.9070 H   0  0  0  0  0  0
  -22.0602   -2.7613   23.2823 H   0  0  0  0  0  0
  -22.4034  -11.9889   22.4836 H   0  0  0  0  0  0
  -21.1043  -13.1242   22.2605 H   0  0  0  0  0  0
  -24.6565  -15.8570   20.5297 H   0  0  0  0  0  0
  -26.2805  -15.6312   20.1231 H   0  0  0  0  0  0
  -26.7294  -32.5257   23.0912 H   0  0  0  0  0  0
  -25.0183  -33.9570   25.0333 H   0  0  0  0  0  0
  -22.7709  -31.2799   21.3630 H   0  0  0  0  0  0
  -23.3771  -35.9458   23.3276 H   0  0  0  0  0  0
  -24.3537  -36.8819   22.2056 H   0  0  0  0  0  0
  -23.7130  -37.6360   23.6645 H   0  0  0  0  0  0
  -26.1806  -31.4301   20.6060 H   0  0  0  0  0  0
  -26.8844  -30.7417   22.0294 H   0  0  0  0  0  0
  -28.1177  -28.7244   21.2776 H   0  0  0  0  0  0
  -25.9468  -25.7799   19.0045 H   0  0  0  0  0  0
  -24.0102  -27.2754   18.9428 H   0  0  0  0  0  0
  -23.8212  -30.5328   19.3781 H   0  0  0  0  0  0
  -22.7976  -29.2104   19.8350 H   0  0  0  0  0  0
  -25.1274  -36.1817   25.0821 H   0  0  0  0  0  0
  -21.0083  -28.3316   24.1358 H   0  0  0  0  0  0
  -20.5689  -26.2334   23.3672 H   0  0  0  0  0  0
  -21.6670  -26.7449   22.1227 H   0  0  0  0  0  0
  -19.6892  -25.6334   21.1292 H   0  0  0  0  0  0
  -19.6685  -27.3221   20.6765 H   0  0  0  0  0  0
  -17.4220  -26.6778   21.4036 H   0  0  0  0  0  0
  -18.0292  -26.0145   22.9046 H   0  0  0  0  0  0
  -19.7977  -30.7337   24.2277 H   0  0  0  0  0  0
  -17.5062  -31.6314   24.5187 H   0  0  0  0  0  0
  -15.5397  -30.3066   23.7679 H   0  0  0  0  0  0
  -15.8692  -28.0869   22.7147 H   0  0  0  0  0  0
  -24.5882  -30.7111   25.7688 H   0  0  0  0  0  0
  -24.8826  -32.3004   26.4651 H   0  0  0  0  0  0
  -25.7986  -30.9091   27.0205 H   0  0  0  0  0  0
  -26.2994  -29.6761   24.1216 H   0  0  0  0  0  0
  -27.3974  -29.7283   25.4824 H   0  0  0  0  0  0
  -27.8927  -30.4275   23.9582 H   0  0  0  0  0  0
  -27.2632  -33.3640   26.1995 H   0  0  0  0  0  0
  -28.3881  -32.6878   25.0306 H   0  0  0  0  0  0
  -28.0648  -31.8474   26.5405 H   0  0  0  0  0  0
  -28.2520  -38.0100   24.7755 H   0  0  0  0  0  0
  -28.1155  -36.2689   24.5973 H   0  0  0  0  0  0
  -27.2361  -37.1044   25.8857 H   0  0  0  0  0  0
  -20.9480  -29.8740   21.6761 H   0  0  0  0  0  0
  -26.0094  -38.2795   24.1657 H   0  0  0  0  0  0
  -25.5844  -21.3066   20.2395 H   0  0  0  0  0  0
  -30.3675  -24.0124   18.6109 H   0  0  0  0  0  0
  -30.6602  -24.6228   20.2363 H   0  0  0  0  0  0
  -30.3161  -25.7434   18.9215 H   0  0  0  0  0  0
  -29.2681  -19.8319   22.8970 H   0  0  0  0  0  0
  -29.6377  -18.1234   22.6902 H   0  0  0  0  0  0
  -28.0448  -18.7347   22.2737 H   0  0  0  0  0  0
  -31.2471  -20.5075   21.4947 H   0  0  0  0  0  0
  -31.4651  -19.8505   19.8760 H   0  0  0  0  0  0
  -31.6615  -18.8122   21.2854 H   0  0  0  0  0  0
  -30.2646  -17.7869   19.1688 H   0  0  0  0  0  0
  -28.5935  -17.7020   19.5076 H   0  0  0  0  0  0
  -28.0559  -24.7181   18.7000 H   0  0  0  0  0  0
  -28.8032  -15.9491   21.0275 H   0  0  0  0  0  0
  1 25  1  0  0  0
  1 30  2  0  0  0
  1 83  1  0  0  0
  2  3  1  0  0  0
  2 25  1  0  0  0
  2 84  1  0  0  0
  2 85  1  0  0  0
  3  4  1  0  0  0
  3 86  1  0  0  0
  3 87  1  0  0  0
  4  5  1  0  0  0
  4 88  1  0  0  0
  4 89  1  0  0  0
  5  6  1  0  0  0
  5 26  1  0  0  0
  5 90  1  0  0  0
  6 25  1  0  0  0
  6 91  1  0  0  0
  6 92  1  0  0  0
  7  8  2  0  0  0
  7 26  1  0  0  0
  7 29  1  0  0  0
  8  9  1  0  0  0
  8 22  1  0  0  0
  9 10  1  0  0  0
  9 27  2  0  0  0
 10 11  2  0  0  0
 10 15  1  0  0  0
 11 12  1  0  0  0
 11 93  1  0  0  0
 12 13  2  0  0  0
 12 94  1  0  0  0
 13 14  1  0  0  0
 13 31  1  0  0  0
 14 15  2  0  0  0
 14 95  1  0  0  0
 15 96  1  0  0  0
 16 17  2  0  0  0
 16 21  1  0  0  0
 16 31  1  0  0  0
 17 18  1  0  0  0
 17 97  1  0  0  0
 18 19  2  0  0  0
 18 98  1  0  0  0
 19 20  1  0  0  0
 19 24  1  0  0  0
 20 21  2  0  0  0
 20 99  1  0  0  0
 21 23  1  0  0  0
 22 28  1  0  0  0
 22 32  2  0  0  0
 26 27  1  0  0  0
 28100  1  0  0  0
 28101  1  0  0  0
 29102  1  0  0  0
 29103  1  0  0  0
 33 34  1  0  0  0
 33 66  1  0  0  0
 33 70  2  0  0  0
 34 36  1  0  0  0
 34 59  1  0  0  0
 34104  1  0  0  0
 35 44  2  0  0  0
 35 45  1  0  0  0
 35 68  1  0  0  0
 36 56  1  0  0  0
 36105  1  0  0  0
 37 39  1  0  0  0
 37 47  1  0  0  0
 37 66  1  0  0  0
 37106  1  0  0  0
 38 43  2  0  0  0
 38 46  1  0  0  0
 38 47  1  0  0  0
 39 64  1  0  0  0
 39 67  2  0  0  0
 40 52  1  0  0  0
 40 53  2  0  0  0
 40 58  1  0  0  0
 41107  1  0  0  0
 41108  1  0  0  0
 41109  1  0  0  0
 41 48  1  0  0  0
 42 43  1  0  0  0
 42 66  1  0  0  0
 42110  1  0  0  0
 42111  1  0  0  0
 43 44  1  0  0  0
 44112  1  0  0  0
 45 46  2  0  0  0
 45113  1  0  0  0
 46114  1  0  0  0
 47115  1  0  0  0
 47116  1  0  0  0
 48 56  1  0  0  0
 48 65  1  0  0  0
 48117  1  0  0  0
 49 50  1  0  0  0
 49 53  1  0  0  0
 49 64  1  0  0  0
 49118  1  0  0  0
 50 51  1  0  0  0
 50119  1  0  0  0
 50120  1  0  0  0
 51 52  1  0  0  0
 51121  1  0  0  0
 51122  1  0  0  0
 52123  1  0  0  0
 52124  1  0  0  0
 53 54  1  0  0  0
 54 55  2  0  0  0
 54125  1  0  0  0
 55 57  1  0  0  0
 55126  1  0  0  0
 56 69  2  0  0  0
 57 58  2  0  0  0
 57127  1  0  0  0
 58128  1  0  0  0
 59 60  1  0  0  0
 59 61  1  0  0  0
 59 62  1  0  0  0
 60129  1  0  0  0
 60130  1  0  0  0
 60131  1  0  0  0
 61132  1  0  0  0
 61133  1  0  0  0
 61134  1  0  0  0
 62135  1  0  0  0
 62136  1  0  0  0
 62137  1  0  0  0
 63 65  1  0  0  0
 63138  1  0  0  0
 63139  1  0  0  0
 63140  1  0  0  0
 64141  1  0  0  0
 65142  1  0  0  0
 68 78  1  0  0  0
 71 80  2  0  0  0
 71 81  1  0  0  0
 71143  1  0  0  0
 72 78  1  0  0  0
 72 80  1  0  0  0
 72 82  2  0  0  0
 73 79  1  0  0  0
 73 81  2  0  0  0
 73 82  1  0  0  0
 74144  1  0  0  0
 74145  1  0  0  0
 74146  1  0  0  0
 74 78  1  0  0  0
 75147  1  0  0  0
 75148  1  0  0  0
 75149  1  0  0  0
 75 79  1  0  0  0
 76 79  1  0  0  0
 76150  1  0  0  0
 76151  1  0  0  0
 76152  1  0  0  0
 77 79  1  0  0  0
 77 83  1  0  0  0
 77153  1  0  0  0
 77154  1  0  0  0
 78155  1  0  0  0
 83156  1  0  0  0
M  ISO  4   1 100  68 101  78 101  83 100
M  END
> <chiral flag>
0

> <version>
0

> <s_m_source_file>
/data/baiqing/PycharmProjects/Reinvent-master-3.2/result/LINK_invent/BTK/process_docking_weight1_custom_sum_contain_oxygen_bond_distance_aromatic_linkinvent_7_9_3/rearranged_h_0058.sdf

> <i_m_source_file_index>
45

> <r_mmod_Potential_Energy-OPLS-2005>
137.543548583984

> <r_mmod_Stretch_Energy-OPLS-2005>
362.868194580078

> <r_mmod_Bend_Energy-OPLS-2005>
370.625213623047

> <r_mmod_Torsional_Energy-OPLS-2005>
241.578048706055

> <r_mmod_Improper_Torsional_Energy-OPLS-2005>
9.98306465148926

> <r_mmod_Van_der_Waal_Energy-OPLS-2005>
139.532089233398

> <r_mmod_Electrostatic_Energy-OPLS-2005>
-1025.90087890625

> <r_mmod_Solvation_Energy-OPLS-2005>
-231.216567993164

> <b_mmod_Minimization_Converged-OPLS-2005>
0

> <r_mmod_RMS_Derivative-OPLS-2005>
5.41023540496826

$$$$
45
                    3D
 Structure written by MMmdl.
156164  0  0  1  0            999 V2000
  -30.8781  -14.7189   20.3724 C   0  0  0  0  0  0
  -30.3439  -12.4343   19.5182 C   0  0  0  0  0  0
  -29.4917  -12.5342   18.2393 C   0  0  0  0  0  0
  -28.0205  -12.3740   18.6560 C   0  0  0  0  0  0
  -27.6326  -13.2899   19.8487 C   0  0  2  0  0  0
  -28.6960  -13.3666   20.9801 C   0  0  0  0  0  0
  -25.2508  -13.8324   20.5932 C   0  0  0  0  0  0
  -24.1881  -13.0569   20.9382 C   0  0  0  0  0  0
  -24.6461  -11.7005   20.8882 C   0  0  0  0  0  0
  -23.9124  -10.4362   21.0392 C   0  0  0  0  0  0
  -24.3675   -9.4298   21.9208 C   0  0  0  0  0  0
  -23.6353   -8.2325   22.0808 C   0  0  0  0  0  0
  -22.4346   -8.0315   21.3579 C   0  0  0  0  0  0
  -21.9977   -9.0274   20.4658 C   0  0  0  0  0  0
  -22.7293  -10.2165   20.3019 C   0  0  0  0  0  0
  -21.6879   -6.0731   22.5284 C   0  0  0  0  0  0
  -21.4026   -6.5609   23.8231 C   0  0  0  0  0  0
  -21.3711   -5.6764   24.9192 C   0  0  0  0  0  0
  -21.6070   -4.3028   24.7234 C   0  0  0  0  0  0
  -21.8804   -3.8127   23.4341 C   0  0  0  0  0  0
  -21.9215   -4.6951   22.3395 C   0  0  0  0  0  0
  -22.7842  -13.5295   21.1940 C   0  0  0  0  0  0
  -22.1732   -4.2152   21.0978 F   0  0  0  0  0  0
  -21.5635   -3.4486   25.7722 F   0  0  0  0  0  0
  -30.0151  -13.6222   20.3712 N   0  0  0  0  0  0
  -26.2997  -12.9654   20.3490 N   0  0  0  0  0  0
  -25.9406  -11.6713   20.5839 N   0  0  0  0  0  0
  -22.0368  -12.8376   22.0414 N   0  0  0  0  0  0
  -25.4187  -15.2071   20.4320 N   0  0  0  0  0  0
  -32.0090  -14.4286   19.9921 O   0  0  0  0  0  0
  -21.6741   -6.8895   21.4245 O   0  0  0  0  0  0
  -22.3559  -14.5582   20.6637 O   0  0  0  0  0  0
  -24.6310  -31.8581   23.2035 C   0  0  0  0  0  0
  -25.9172  -32.4738   23.8386 C   0  0  1  0  0  0
  -27.1761  -27.2890   20.0668 C   0  0  0  0  0  0
  -25.6013  -33.8545   24.2323 N   0  0  0  0  0  0
  -23.4192  -30.4955   21.5443 C   0  0  2  0  0  0
  -24.8557  -28.9579   20.1003 C   0  0  0  0  0  0
  -22.7475  -29.4655   22.4832 C   0  0  0  0  0  0
  -18.0295  -28.1363   22.8459 C   0  0  0  0  0  0
  -24.1494  -36.7262   23.2636 C   0  0  0  0  0  0
  -25.9711  -30.7706   21.3953 C   0  0  0  0  0  0
  -26.0313  -29.4050   20.7150 C   0  0  0  0  0  0
  -27.1963  -28.5752   20.6996 C   0  0  0  0  0  0
  -25.9913  -26.9282   19.3930 C   0  0  0  0  0  0
  -24.8392  -27.7271   19.4360 C   0  0  0  0  0  0
  -23.6328  -29.8487   20.1544 C   0  0  0  0  0  0
  -25.4107  -36.3043   24.0347 C   0  0  1  0  0  0
  -20.5900  -28.3682   23.1214 C   0  0  2  0  0  0
  -20.6774  -26.9395   22.5353 C   0  0  0  0  0  0
  -19.5750  -26.6345   21.5156 C   0  0  0  0  0  0
  -18.1941  -26.7908   22.1571 C   0  0  0  0  0  0
  -19.1557  -28.8809   23.2845 C   0  0  0  0  0  0
  -18.9494  -30.1414   23.8870 C   0  0  0  0  0  0
  -17.6490  -30.6561   24.0532 C   0  0  0  0  0  0
  -25.9079  -34.9398   23.5084 C   0  0  0  0  0  0
  -16.5369  -29.9072   23.6308 C   0  0  0  0  0  0
  -16.7297  -28.6476   23.0364 C   0  0  0  0  0  0
  -26.4582  -31.6570   25.0765 C   0  0  0  0  0  0
  -25.3868  -31.3697   26.1524 C   0  0  0  0  0  0
  -27.0494  -30.2984   24.6284 C   0  0  0  0  0  0
  -27.6131  -32.4361   25.7550 C   0  0  0  0  0  0
  -27.5577  -37.1790   24.8451 C   0  0  0  0  0  0
  -21.4169  -29.3067   22.3630 N   0  0  0  0  0  0
  -26.4275  -37.3736   23.9422 N   0  0  0  0  0  0
  -24.6913  -31.0600   22.1008 N   0  0  0  0  0  0
  -23.4203  -28.8197   23.2925 O   0  0  0  0  0  0
  -28.2391  -26.3681   20.0676 O   0  0  0  0  0  0
  -26.5570  -34.8852   22.4633 O   0  0  0  0  0  0
  -23.5452  -32.1443   23.7295 O   0  0  0  0  0  0
  -29.8288  -18.7617   20.6500 C   0  0  0  0  0  0
  -29.1626  -19.5051   19.6900 C   0  0  0  0  0  0
  -32.1413  -16.9529   20.1111 C   0  0  0  0  0  0
  -30.9957  -16.4281   22.3067 C   0  0  0  0  0  0
  -29.2839  -21.0520   19.3332 C   0  0  0  0  0  0
  -28.2598  -22.2000   19.8397 C   0  0  0  0  0  0
  -28.6785  -23.7384   19.5559 C   0  0  0  0  0  0
  -27.8909  -24.9243   20.2942 C   0  0  0  0  0  0
  -30.8124  -16.3293   20.7574 C   0  0  0  0  0  0
  -28.5959  -18.5244   18.8405 N   0  0  0  0  0  0
  -29.0059  -17.3053   19.1719 N   0  0  0  0  0  0
  -29.7928  -17.3869   20.2894 N   0  0  0  0  0  0
  -31.3981  -12.3146   19.2712 H   0  0  0  0  0  0
  -30.0998  -11.5093   20.0414 H   0  0  0  0  0  0
  -29.7764  -11.7629   17.5218 H   0  0  0  0  0  0
  -29.6534  -13.4967   17.7449 H   0  0  0  0  0  0
  -27.8825  -11.3291   18.9279 H   0  0  0  0  0  0
  -27.3571  -12.5556   17.8057 H   0  0  0  0  0  0
  -27.5786  -14.2963   19.4337 H   0  0  0  0  0  0
  -28.7053  -12.4483   21.5678 H   0  0  0  0  0  0
  -28.4382  -14.1662   21.6744 H   0  0  0  0  0  0
  -25.2781   -9.5843   22.4845 H   0  0  0  0  0  0
  -24.0065   -7.4723   22.7553 H   0  0  0  0  0  0
  -21.0910   -8.8798   19.8884 H   0  0  0  0  0  0
  -22.3798  -10.9725   19.6141 H   0  0  0  0  0  0
  -21.2016   -7.6114   23.9743 H   0  0  0  0  0  0
  -21.1601   -6.0492   25.9130 H   0  0  0  0  0  0
  -22.0536   -2.7556   23.2857 H   0  0  0  0  0  0
  -22.3819  -12.0137   22.5129 H   0  0  0  0  0  0
  -21.0898  -13.1428   22.2257 H   0  0  0  0  0  0
  -24.6583  -15.8663   20.5378 H   0  0  0  0  0  0
  -26.2743  -15.6395   20.1087 H   0  0  0  0  0  0
  -26.7241  -32.5357   23.1112 H   0  0  0  0  0  0
  -25.0300  -33.9700   25.0555 H   0  0  0  0  0  0
  -22.7155  -31.3173   21.4058 H   0  0  0  0  0  0
  -23.3785  -35.9587   23.3248 H   0  0  0  0  0  0
  -24.3541  -36.8892   22.2056 H   0  0  0  0  0  0
  -23.7251  -37.6440   23.6693 H   0  0  0  0  0  0
  -26.1339  -31.5521   20.6542 H   0  0  0  0  0  0
  -26.8362  -30.7782   22.0428 H   0  0  0  0  0  0
  -28.0927  -28.8978   21.2086 H   0  0  0  0  0  0
  -25.9323  -26.0160   18.8196 H   0  0  0  0  0  0
  -23.9459  -27.3900   18.9298 H   0  0  0  0  0  0
  -23.7691  -30.6354   19.4147 H   0  0  0  0  0  0
  -22.7454  -29.3002   19.8326 H   0  0  0  0  0  0
  -25.1304  -36.1860   25.0858 H   0  0  0  0  0  0
  -20.9986  -28.3249   24.1317 H   0  0  0  0  0  0
  -20.5584  -26.2314   23.3563 H   0  0  0  0  0  0
  -21.6678  -26.7368   22.1211 H   0  0  0  0  0  0
  -19.6942  -25.6251   21.1197 H   0  0  0  0  0  0
  -19.6713  -27.3131   20.6680 H   0  0  0  0  0  0
  -17.4213  -26.6609   21.3973 H   0  0  0  0  0  0
  -18.0376  -26.0054   22.8970 H   0  0  0  0  0  0
  -19.7973  -30.7217   24.2213 H   0  0  0  0  0  0
  -17.5065  -31.6225   24.5167 H   0  0  0  0  0  0
  -15.5374  -30.2977   23.7640 H   0  0  0  0  0  0
  -15.8679  -28.0749   22.7161 H   0  0  0  0  0  0
  -24.6012  -30.7046   25.7888 H   0  0  0  0  0  0
  -24.9141  -32.2864   26.5074 H   0  0  0  0  0  0
  -25.8268  -30.8810   27.0218 H   0  0  0  0  0  0
  -26.3104  -29.6637   24.1360 H   0  0  0  0  0  0
  -27.4221  -29.7288   25.4813 H   0  0  0  0  0  0
  -27.8949  -30.4229   23.9505 H   0  0  0  0  0  0
  -27.2723  -33.3634   26.2136 H   0  0  0  0  0  0
  -28.3963  -32.6956   25.0437 H   0  0  0  0  0  0
  -28.0805  -31.8513   26.5457 H   0  0  0  0  0  0
  -28.2574  -38.0109   24.7537 H   0  0  0  0  0  0
  -28.1082  -36.2642   24.6252 H   0  0  0  0  0  0
  -27.2237  -37.1356   25.8820 H   0  0  0  0  0  0
  -20.9308  -29.8864   21.6920 H   0  0  0  0  0  0
  -26.0127  -38.2780   24.1490 H   0  0  0  0  0  0
  -30.4994  -19.1063   21.4374 H   0  0  0  0  0  0
  -33.0616  -16.6515   20.6269 H   0  0  0  0  0  0
  -32.1898  -18.0448   20.0667 H   0  0  0  0  0  0
  -32.2677  -16.6618   19.0600 H   0  0  0  0  0  0
  -31.5056  -17.3428   22.6064 H   0  0  0  0  0  0
  -31.6078  -15.6144   22.7112 H   0  0  0  0  0  0
  -30.0434  -16.3939   22.8402 H   0  0  0  0  0  0
  -29.3287  -21.1358   18.2418 H   0  0  0  0  0  0
  -30.2820  -21.3844   19.6472 H   0  0  0  0  0  0
  -28.1257  -22.1021   20.9159 H   0  0  0  0  0  0
  -27.2626  -22.0223   19.4179 H   0  0  0  0  0  0
  -28.6291  -23.9144   18.4754 H   0  0  0  0  0  0
  -29.7308  -23.8530   19.8204 H   0  0  0  0  0  0
  -28.0181  -24.7864   21.3684 H   0  0  0  0  0  0
  -26.8307  -24.7075   20.1632 H   0  0  0  0  0  0
  1 25  1  0  0  0
  1 30  2  0  0  0
  1 79  1  0  0  0
  2  3  1  0  0  0
  2 25  1  0  0  0
  2 83  1  0  0  0
  2 84  1  0  0  0
  3  4  1  0  0  0
  3 85  1  0  0  0
  3 86  1  0  0  0
  4  5  1  0  0  0
  4 87  1  0  0  0
  4 88  1  0  0  0
  5  6  1  0  0  0
  5 26  1  0  0  0
  5 89  1  0  0  0
  6 25  1  0  0  0
  6 90  1  0  0  0
  6 91  1  0  0  0
  7  8  2  0  0  0
  7 26  1  0  0  0
  7 29  1  0  0  0
  8  9  1  0  0  0
  8 22  1  0  0  0
  9 10  1  0  0  0
  9 27  2  0  0  0
 10 11  2  0  0  0
 10 15  1  0  0  0
 11 12  1  0  0  0
 11 92  1  0  0  0
 12 13  2  0  0  0
 12 93  1  0  0  0
 13 14  1  0  0  0
 13 31  1  0  0  0
 14 15  2  0  0  0
 14 94  1  0  0  0
 15 95  1  0  0  0
 16 17  2  0  0  0
 16 21  1  0  0  0
 16 31  1  0  0  0
 17 18  1  0  0  0
 17 96  1  0  0  0
 18 19  2  0  0  0
 18 97  1  0  0  0
 19 20  1  0  0  0
 19 24  1  0  0  0
 20 21  2  0  0  0
 20 98  1  0  0  0
 21 23  1  0  0  0
 22 28  1  0  0  0
 22 32  2  0  0  0
 26 27  1  0  0  0
 28 99  1  0  0  0
 28100  1  0  0  0
 29101  1  0  0  0
 29102  1  0  0  0
 33 34  1  0  0  0
 33 66  1  0  0  0
 33 70  2  0  0  0
 34 36  1  0  0  0
 34 59  1  0  0  0
 34103  1  0  0  0
 35 44  2  0  0  0
 35 45  1  0  0  0
 35 68  1  0  0  0
 36 56  1  0  0  0
 36104  1  0  0  0
 37 39  1  0  0  0
 37 47  1  0  0  0
 37 66  1  0  0  0
 37105  1  0  0  0
 38 43  2  0  0  0
 38 46  1  0  0  0
 38 47  1  0  0  0
 39 64  1  0  0  0
 39 67  2  0  0  0
 40 52  1  0  0  0
 40 53  2  0  0  0
 40 58  1  0  0  0
 41106  1  0  0  0
 41107  1  0  0  0
 41108  1  0  0  0
 41 48  1  0  0  0
 42 43  1  0  0  0
 42 66  1  0  0  0
 42109  1  0  0  0
 42110  1  0  0  0
 43 44  1  0  0  0
 44111  1  0  0  0
 45 46  2  0  0  0
 45112  1  0  0  0
 46113  1  0  0  0
 47114  1  0  0  0
 47115  1  0  0  0
 48 56  1  0  0  0
 48 65  1  0  0  0
 48116  1  0  0  0
 49 50  1  0  0  0
 49 53  1  0  0  0
 49 64  1  0  0  0
 49117  1  0  0  0
 50 51  1  0  0  0
 50118  1  0  0  0
 50119  1  0  0  0
 51 52  1  0  0  0
 51120  1  0  0  0
 51121  1  0  0  0
 52122  1  0  0  0
 52123  1  0  0  0
 53 54  1  0  0  0
 54 55  2  0  0  0
 54124  1  0  0  0
 55 57  1  0  0  0
 55125  1  0  0  0
 56 69  2  0  0  0
 57 58  2  0  0  0
 57126  1  0  0  0
 58127  1  0  0  0
 59 60  1  0  0  0
 59 61  1  0  0  0
 59 62  1  0  0  0
 60128  1  0  0  0
 60129  1  0  0  0
 60130  1  0  0  0
 61131  1  0  0  0
 61132  1  0  0  0
 61133  1  0  0  0
 62134  1  0  0  0
 62135  1  0  0  0
 62136  1  0  0  0
 63 65  1  0  0  0
 63137  1  0  0  0
 63138  1  0  0  0
 63139  1  0  0  0
 64140  1  0  0  0
 65141  1  0  0  0
 68 78  1  0  0  0
 71 72  2  0  0  0
 71 82  1  0  0  0
 71142  1  0  0  0
 72 75  1  0  0  0
 72 80  1  0  0  0
 73143  1  0  0  0
 73144  1  0  0  0
 73145  1  0  0  0
 73 79  1  0  0  0
 74 79  1  0  0  0
 74146  1  0  0  0
 74147  1  0  0  0
 74148  1  0  0  0
 75 76  1  0  0  0
 75149  1  0  0  0
 75150  1  0  0  0
 76 77  1  0  0  0
 76151  1  0  0  0
 76152  1  0  0  0
 77 78  1  0  0  0
 77153  1  0  0  0
 77154  1  0  0  0
 78155  1  0  0  0
 78156  1  0  0  0
 79 82  1  0  0  0
 80 81  2  0  0  0
 81 82  1  0  0  0
M  ISO  4   1 100  68 101  78 101  79 100
M  END
> <chiral flag>
0

> <version>
0

> <s_m_source_file>
/data/baiqing/PycharmProjects/Reinvent-master-3.2/result/LINK_invent/BTK/process_docking_weight1_custom_sum_contain_oxygen_bond_distance_aromatic_linkinvent_7_9_3/rearranged_h_0058.sdf

> <i_m_source_file_index>
46

> <r_mmod_Potential_Energy-OPLS-2005>
424.747375488281

> <r_mmod_Stretch_Energy-OPLS-2005>
148.393646240234

> <r_mmod_Bend_Energy-OPLS-2005>
281.968811035156

> <r_mmod_Torsional_Energy-OPLS-2005>
240.931976318359

> <r_mmod_Improper_Torsional_Energy-OPLS-2005>
7.77315092086792

> <r_mmod_Van_der_Waal_Energy-OPLS-2005>
145.837799072266

> <r_mmod_Electrostatic_Energy-OPLS-2005>
-320.715972900391

> <r_mmod_Solvation_Energy-OPLS-2005>
-195.974868774414

> <b_mmod_Minimization_Converged-OPLS-2005>
0

> <r_mmod_RMS_Derivative-OPLS-2005>
12.4838333129883

$$$$
46
                    3D
 Structure written by MMmdl.
154162  0  0  1  0            999 V2000
  -30.3680  -15.3488   20.4003 C   0  0  0  0  0  0
  -30.4597  -12.8642   19.5381 C   0  0  0  0  0  0
  -29.5533  -12.6336   18.2990 C   0  0  0  0  0  0
  -28.1066  -12.3114   18.7158 C   0  0  0  0  0  0
  -27.6219  -13.2609   19.8376 C   0  0  2  0  0  0
  -28.6613  -13.4131   20.9756 C   0  0  0  0  0  0
  -25.2308  -13.8006   20.5482 C   0  0  0  0  0  0
  -24.1740  -13.0267   20.9150 C   0  0  0  0  0  0
  -24.6437  -11.6785   20.8759 C   0  0  0  0  0  0
  -23.9073  -10.4216   21.0414 C   0  0  0  0  0  0
  -24.3615   -9.4163   21.9204 C   0  0  0  0  0  0
  -23.6285   -8.2204   22.0755 C   0  0  0  0  0  0
  -22.4260   -8.0245   21.3540 C   0  0  0  0  0  0
  -21.9905   -9.0217   20.4637 C   0  0  0  0  0  0
  -22.7239  -10.2086   20.3056 C   0  0  0  0  0  0
  -21.6809   -6.0733   22.5288 C   0  0  0  0  0  0
  -21.4005   -6.5634   23.8241 C   0  0  0  0  0  0
  -21.3673   -5.6770   24.9204 C   0  0  0  0  0  0
  -21.6052   -4.3033   24.7222 C   0  0  0  0  0  0
  -21.8822   -3.8143   23.4342 C   0  0  0  0  0  0
  -21.9188   -4.6972   22.3414 C   0  0  0  0  0  0
  -22.7780  -13.5090   21.1851 C   0  0  0  0  0  0
  -22.1642   -4.2177   21.0976 F   0  0  0  0  0  0
  -21.5651   -3.4497   25.7723 F   0  0  0  0  0  0
  -29.8829  -13.9915   20.3772 N   0  0  0  0  0  0
  -26.2880  -12.9357   20.3211 N   0  0  0  0  0  0
  -25.9410  -11.6477   20.5758 N   0  0  0  0  0  0
  -22.0381  -12.8182   22.0427 N   0  0  0  0  0  0
  -25.3600  -15.1686   20.3590 N   0  0  0  0  0  0
  -31.5747  -15.3708   20.1077 O   0  0  0  0  0  0
  -21.6608   -6.8854   21.4231 O   0  0  0  0  0  0
  -22.3517  -14.5453   20.6727 O   0  0  0  0  0  0
  -24.6597  -31.8226   23.1675 C   0  0  0  0  0  0
  -25.9272  -32.4596   23.8156 C   0  0  1  0  0  0
  -27.2573  -26.9359   20.2132 C   0  0  0  0  0  0
  -25.5953  -33.8403   24.2091 N   0  0  0  0  0  0
  -23.4777  -30.4266   21.5199 C   0  0  2  0  0  0
  -24.9402  -28.8039   20.1284 C   0  0  0  0  0  0
  -22.7662  -29.4405   22.4822 C   0  0  0  0  0  0
  -18.0295  -28.1442   22.8513 C   0  0  0  0  0  0
  -24.1484  -36.7207   23.2641 C   0  0  0  0  0  0
  -26.0407  -30.6361   21.3917 C   0  0  0  0  0  0
  -26.1232  -29.2170   20.7588 C   0  0  0  0  0  0
  -27.2724  -28.3083   20.7729 C   0  0  0  0  0  0
  -26.0395  -26.6646   19.5429 C   0  0  0  0  0  0
  -24.9260  -27.5475   19.4980 C   0  0  0  0  0  0
  -23.7228  -29.7322   20.1507 C   0  0  0  0  0  0
  -25.4114  -36.2966   24.0326 C   0  0  1  0  0  0
  -20.5926  -28.3731   23.1224 C   0  0  2  0  0  0
  -20.6765  -26.9456   22.5332 C   0  0  0  0  0  0
  -19.5690  -26.6385   21.5187 C   0  0  0  0  0  0
  -18.1883  -26.8004   22.1601 C   0  0  0  0  0  0
  -19.1566  -28.8876   23.2914 C   0  0  0  0  0  0
  -18.9525  -30.1451   23.9010 C   0  0  0  0  0  0
  -17.6514  -30.6559   24.0765 C   0  0  0  0  0  0
  -25.9076  -34.9358   23.5043 C   0  0  0  0  0  0
  -16.5386  -29.9113   23.6484 C   0  0  0  0  0  0
  -16.7277  -28.6578   23.0414 C   0  0  0  0  0  0
  -26.4571  -31.6488   25.0620 C   0  0  0  0  0  0
  -25.3733  -31.3684   26.1295 C   0  0  0  0  0  0
  -27.0431  -30.2867   24.6235 C   0  0  0  0  0  0
  -27.6114  -32.4239   25.7398 C   0  0  0  0  0  0
  -27.5573  -37.1762   24.8475 C   0  0  0  0  0  0
  -21.4310  -29.3103   22.3664 N   0  0  0  0  0  0
  -26.4269  -37.3699   23.9435 N   0  0  0  0  0  0
  -24.7484  -30.9863   22.0835 N   0  0  0  0  0  0
  -23.4216  -28.7895   23.2978 O   0  0  0  0  0  0
  -28.3296  -25.8999   20.1742 O   0  0  0  0  0  0
  -26.5661  -34.8910   22.4611 O   0  0  0  0  0  0
  -23.5664  -32.1161   23.6766 O   0  0  0  0  0  0
  -30.6684  -20.6306   20.5605 C   0  0  0  0  0  0
  -28.8228  -19.7594   20.1805 C   0  0  0  0  0  0
  -29.3476  -21.1243   20.2079 C   0  0  0  0  0  0
  -28.0035  -16.6795   20.4771 C   0  0  0  0  0  0
  -27.6686  -22.5538   18.7556 C   0  0  0  0  0  0
  -30.0608  -23.2903   18.8866 C   0  0  0  0  0  0
  -28.3602  -24.2898   20.5707 C   0  0  0  0  0  0
  -29.5035  -16.8939   20.7230 C   0  0  2  0  0  0
  -28.8554  -22.7779   19.7188 C   0  0  0  0  0  0
  -30.8622  -19.2707   20.7050 N   0  0  0  0  0  0
  -29.7163  -18.5668   20.4357 N   0  0  0  0  0  0
  -31.4752  -13.0993   19.2083 H   0  0  0  0  0  0
  -30.5511  -11.9368   20.1052 H   0  0  0  0  0  0
  -29.9600  -11.8418   17.6694 H   0  0  0  0  0  0
  -29.5594  -13.5434   17.6971 H   0  0  0  0  0  0
  -28.0708  -11.2768   19.0606 H   0  0  0  0  0  0
  -27.4392  -12.3661   17.8533 H   0  0  0  0  0  0
  -27.5325  -14.2249   19.3452 H   0  0  0  0  0  0
  -28.8583  -12.4479   21.4452 H   0  0  0  0  0  0
  -28.3006  -14.0421   21.7855 H   0  0  0  0  0  0
  -25.2758   -9.5661   22.4788 H   0  0  0  0  0  0
  -24.0006   -7.4603   22.7505 H   0  0  0  0  0  0
  -21.0836   -8.8756   19.8938 H   0  0  0  0  0  0
  -22.3724  -10.9646   19.6180 H   0  0  0  0  0  0
  -21.1970   -7.6131   23.9745 H   0  0  0  0  0  0
  -21.1491   -6.0498   25.9109 H   0  0  0  0  0  0
  -22.0596   -2.7605   23.2831 H   0  0  0  0  0  0
  -22.3889  -11.9853   22.4937 H   0  0  0  0  0  0
  -21.1014  -13.1320   22.2552 H   0  0  0  0  0  0
  -24.5798  -15.8051   20.4645 H   0  0  0  0  0  0
  -26.2079  -15.6249   20.0525 H   0  0  0  0  0  0
  -26.7340  -32.5160   23.0883 H   0  0  0  0  0  0
  -25.0172  -33.9515   25.0286 H   0  0  0  0  0  0
  -22.7889  -31.2570   21.3450 H   0  0  0  0  0  0
  -23.3793  -35.9498   23.3232 H   0  0  0  0  0  0
  -24.3581  -36.8870   22.2070 H   0  0  0  0  0  0
  -23.7226  -37.6381   23.6691 H   0  0  0  0  0  0
  -26.1883  -31.3665   20.5964 H   0  0  0  0  0  0
  -26.9147  -30.7243   22.0263 H   0  0  0  0  0  0
  -28.1688  -28.6393   21.2798 H   0  0  0  0  0  0
  -25.9400  -25.7095   19.0473 H   0  0  0  0  0  0
  -24.0311  -27.2245   18.9792 H   0  0  0  0  0  0
  -23.8874  -30.4985   19.3941 H   0  0  0  0  0  0
  -22.8336  -29.1851   19.8282 H   0  0  0  0  0  0
  -25.1312  -36.1785   25.0827 H   0  0  0  0  0  0
  -20.9990  -28.3230   24.1336 H   0  0  0  0  0  0
  -20.5720  -26.2326   23.3534 H   0  0  0  0  0  0
  -21.6590  -26.7413   22.1066 H   0  0  0  0  0  0
  -19.6811  -25.6292   21.1250 H   0  0  0  0  0  0
  -19.6611  -27.3147   20.6663 H   0  0  0  0  0  0
  -17.4187  -26.6839   21.3967 H   0  0  0  0  0  0
  -18.0158  -26.0162   22.8983 H   0  0  0  0  0  0
  -19.8003  -30.7250   24.2405 H   0  0  0  0  0  0
  -17.5120  -31.6202   24.5467 H   0  0  0  0  0  0
  -15.5428  -30.3102   23.7795 H   0  0  0  0  0  0
  -15.8663  -28.0979   22.7060 H   0  0  0  0  0  0
  -24.6005  -30.6918   25.7622 H   0  0  0  0  0  0
  -24.8826  -32.2843   26.4573 H   0  0  0  0  0  0
  -25.8035  -30.8975   27.0147 H   0  0  0  0  0  0
  -26.3024  -29.6594   24.1254 H   0  0  0  0  0  0
  -27.4038  -29.7162   25.4807 H   0  0  0  0  0  0
  -27.8937  -30.4078   23.9534 H   0  0  0  0  0  0
  -27.2765  -33.3632   26.1810 H   0  0  0  0  0  0
  -28.4016  -32.6629   25.0263 H   0  0  0  0  0  0
  -28.0666  -31.8424   26.5417 H   0  0  0  0  0  0
  -28.2566  -38.0082   24.7541 H   0  0  0  0  0  0
  -28.1100  -36.2619   24.6272 H   0  0  0  0  0  0
  -27.2283  -37.1360   25.8872 H   0  0  0  0  0  0
  -20.9516  -29.8984   21.7012 H   0  0  0  0  0  0
  -26.0122  -38.2751   24.1488 H   0  0  0  0  0  0
  -31.5561  -21.2406   20.6713 H   0  0  0  0  0  0
  -27.7916  -19.5313   19.9470 H   0  0  0  0  0  0
  -27.4182  -17.5688   20.7033 H   0  0  0  0  0  0
  -27.5924  -15.9346   21.1527 H   0  0  0  0  0  0
  -27.8018  -16.4147   19.4401 H   0  0  0  0  0  0
  -27.8814  -21.8128   17.9832 H   0  0  0  0  0  0
  -27.3763  -23.4731   18.2444 H   0  0  0  0  0  0
  -26.7984  -22.2018   19.3093 H   0  0  0  0  0  0
  -30.3613  -22.5974   18.0987 H   0  0  0  0  0  0
  -30.9316  -23.4656   19.5225 H   0  0  0  0  0  0
  -29.8495  -24.2437   18.3996 H   0  0  0  0  0  0
  -29.0819  -24.3289   21.3888 H   0  0  0  0  0  0
  -27.4225  -24.0887   21.0949 H   0  0  0  0  0  0
  -29.5829  -16.8668   21.8117 H   0  0  0  0  0  0
  1 25  1  0  0  0
  1 30  2  0  0  0
  1 78  1  0  0  0
  2  3  1  0  0  0
  2 25  1  0  0  0
  2 82  1  0  0  0
  2 83  1  0  0  0
  3  4  1  0  0  0
  3 84  1  0  0  0
  3 85  1  0  0  0
  4  5  1  0  0  0
  4 86  1  0  0  0
  4 87  1  0  0  0
  5  6  1  0  0  0
  5 26  1  0  0  0
  5 88  1  0  0  0
  6 25  1  0  0  0
  6 89  1  0  0  0
  6 90  1  0  0  0
  7  8  2  0  0  0
  7 26  1  0  0  0
  7 29  1  0  0  0
  8  9  1  0  0  0
  8 22  1  0  0  0
  9 10  1  0  0  0
  9 27  2  0  0  0
 10 11  2  0  0  0
 10 15  1  0  0  0
 11 12  1  0  0  0
 11 91  1  0  0  0
 12 13  2  0  0  0
 12 92  1  0  0  0
 13 14  1  0  0  0
 13 31  1  0  0  0
 14 15  2  0  0  0
 14 93  1  0  0  0
 15 94  1  0  0  0
 16 17  2  0  0  0
 16 21  1  0  0  0
 16 31  1  0  0  0
 17 18  1  0  0  0
 17 95  1  0  0  0
 18 19  2  0  0  0
 18 96  1  0  0  0
 19 20  1  0  0  0
 19 24  1  0  0  0
 20 21  2  0  0  0
 20 97  1  0  0  0
 21 23  1  0  0  0
 22 28  1  0  0  0
 22 32  2  0  0  0
 26 27  1  0  0  0
 28 98  1  0  0  0
 28 99  1  0  0  0
 29100  1  0  0  0
 29101  1  0  0  0
 33 34  1  0  0  0
 33 66  1  0  0  0
 33 70  2  0  0  0
 34 36  1  0  0  0
 34 59  1  0  0  0
 34102  1  0  0  0
 35 44  2  0  0  0
 35 45  1  0  0  0
 35 68  1  0  0  0
 36 56  1  0  0  0
 36103  1  0  0  0
 37 39  1  0  0  0
 37 47  1  0  0  0
 37 66  1  0  0  0
 37104  1  0  0  0
 38 43  2  0  0  0
 38 46  1  0  0  0
 38 47  1  0  0  0
 39 64  1  0  0  0
 39 67  2  0  0  0
 40 52  1  0  0  0
 40 53  2  0  0  0
 40 58  1  0  0  0
 41105  1  0  0  0
 41106  1  0  0  0
 41107  1  0  0  0
 41 48  1  0  0  0
 42 43  1  0  0  0
 42 66  1  0  0  0
 42108  1  0  0  0
 42109  1  0  0  0
 43 44  1  0  0  0
 44110  1  0  0  0
 45 46  2  0  0  0
 45111  1  0  0  0
 46112  1  0  0  0
 47113  1  0  0  0
 47114  1  0  0  0
 48 56  1  0  0  0
 48 65  1  0  0  0
 48115  1  0  0  0
 49 50  1  0  0  0
 49 53  1  0  0  0
 49 64  1  0  0  0
 49116  1  0  0  0
 50 51  1  0  0  0
 50117  1  0  0  0
 50118  1  0  0  0
 51 52  1  0  0  0
 51119  1  0  0  0
 51120  1  0  0  0
 52121  1  0  0  0
 52122  1  0  0  0
 53 54  1  0  0  0
 54 55  2  0  0  0
 54123  1  0  0  0
 55 57  1  0  0  0
 55124  1  0  0  0
 56 69  2  0  0  0
 57 58  2  0  0  0
 57125  1  0  0  0
 58126  1  0  0  0
 59 60  1  0  0  0
 59 61  1  0  0  0
 59 62  1  0  0  0
 60127  1  0  0  0
 60128  1  0  0  0
 60129  1  0  0  0
 61130  1  0  0  0
 61131  1  0  0  0
 61132  1  0  0  0
 62133  1  0  0  0
 62134  1  0  0  0
 62135  1  0  0  0
 63 65  1  0  0  0
 63136  1  0  0  0
 63137  1  0  0  0
 63138  1  0  0  0
 64139  1  0  0  0
 65140  1  0  0  0
 68 77  1  0  0  0
 71 73  1  0  0  0
 71 80  2  0  0  0
 71141  1  0  0  0
 72 73  2  0  0  0
 72 81  1  0  0  0
 72142  1  0  0  0
 73 79  1  0  0  0
 74143  1  0  0  0
 74144  1  0  0  0
 74145  1  0  0  0
 74 78  1  0  0  0
 75146  1  0  0  0
 75147  1  0  0  0
 75148  1  0  0  0
 75 79  1  0  0  0
 76 79  1  0  0  0
 76149  1  0  0  0
 76150  1  0  0  0
 76151  1  0  0  0
 77 79  1  0  0  0
 77152  1  0  0  0
 77153  1  0  0  0
 78 81  1  0  0  0
 78154  1  0  0  0
 80 81  1  0  0  0
M  ISO  4   1 100  68 101  77 101  78 100
M  END
> <chiral flag>
0

> <version>
0

> <s_m_source_file>
/data/baiqing/PycharmProjects/Reinvent-master-3.2/result/LINK_invent/BTK/process_docking_weight1_custom_sum_contain_oxygen_bond_distance_aromatic_linkinvent_7_9_3/rearranged_h_0058.sdf

> <i_m_source_file_index>
47

> <r_mmod_Potential_Energy-OPLS-2005>
1521.00646972656

> <r_mmod_Stretch_Energy-OPLS-2005>
650.30224609375

> <r_mmod_Bend_Energy-OPLS-2005>
513.998229980469

> <r_mmod_Torsional_Energy-OPLS-2005>
241.958312988281

> <r_mmod_Improper_Torsional_Energy-OPLS-2005>
5.71223974227905

> <r_mmod_Van_der_Waal_Energy-OPLS-2005>
114.117805480957

> <r_mmod_Electrostatic_Energy-OPLS-2005>
-272.016418457031

> <r_mmod_Solvation_Energy-OPLS-2005>
-216.000793457031

> <b_mmod_Minimization_Converged-OPLS-2005>
0

> <r_mmod_RMS_Derivative-OPLS-2005>
7.21434688568115

$$$$
47
                    3D
 Structure written by MMmdl.
168177  0  0  1  0            999 V2000
  -30.7395  -14.4317   20.5714 C   0  0  0  0  0  0
  -30.4174  -12.2785   19.4262 C   0  0  0  0  0  0
  -29.4946  -12.4890   18.2095 C   0  0  0  0  0  0
  -28.0105  -12.3736   18.6178 C   0  0  0  0  0  0
  -27.6627  -13.2088   19.8802 C   0  0  2  0  0  0
  -28.7045  -12.9900   21.0007 C   0  0  0  0  0  0
  -25.2588  -13.8152   20.5686 C   0  0  0  0  0  0
  -24.1811  -13.0420   20.9173 C   0  0  0  0  0  0
  -24.6377  -11.6896   20.8742 C   0  0  0  0  0  0
  -23.9043  -10.4261   21.0407 C   0  0  0  0  0  0
  -24.3590   -9.4172   21.9177 C   0  0  0  0  0  0
  -23.6264   -8.2213   22.0751 C   0  0  0  0  0  0
  -22.4251   -8.0254   21.3537 C   0  0  0  0  0  0
  -21.9884   -9.0231   20.4651 C   0  0  0  0  0  0
  -22.7217  -10.2102   20.3063 C   0  0  0  0  0  0
  -21.6844   -6.0708   22.5282 C   0  0  0  0  0  0
  -21.4011   -6.5624   23.8212 C   0  0  0  0  0  0
  -21.3653   -5.6780   24.9173 C   0  0  0  0  0  0
  -21.6053   -4.3049   24.7225 C   0  0  0  0  0  0
  -21.8818   -3.8134   23.4349 C   0  0  0  0  0  0
  -21.9184   -4.6940   22.3402 C   0  0  0  0  0  0
  -22.7834  -13.5231   21.1847 C   0  0  0  0  0  0
  -22.1663   -4.2129   21.0980 F   0  0  0  0  0  0
  -21.5620   -3.4540   25.7738 F   0  0  0  0  0  0
  -30.0373  -13.2733   20.4409 N   0  0  0  0  0  0
  -26.3027  -12.9328   20.3405 N   0  0  0  0  0  0
  -25.9308  -11.6481   20.5788 N   0  0  0  0  0  0
  -22.0482  -12.8213   22.0423 N   0  0  0  0  0  0
  -25.4347  -15.1832   20.4122 N   0  0  0  0  0  0
  -31.8706  -14.5945   20.1141 O   0  0  0  0  0  0
  -21.6626   -6.8842   21.4234 O   0  0  0  0  0  0
  -22.3500  -14.5509   20.6690 O   0  0  0  0  0  0
  -24.6113  -31.8717   23.2186 C   0  0  0  0  0  0
  -25.9038  -32.4846   23.8445 C   0  0  1  0  0  0
  -27.2182  -27.4518   20.0607 C   0  0  0  0  0  0
  -25.5904  -33.8644   24.2382 N   0  0  0  0  0  0
  -23.3934  -30.4999   21.5595 C   0  0  2  0  0  0
  -24.8350  -28.9734   20.1141 C   0  0  0  0  0  0
  -22.7387  -29.4707   22.5059 C   0  0  0  0  0  0
  -18.0234  -28.1394   22.8533 C   0  0  0  0  0  0
  -24.1492  -36.7321   23.2634 C   0  0  0  0  0  0
  -25.9218  -30.8328   21.3772 C   0  0  0  0  0  0
  -25.9928  -29.4714   20.7220 C   0  0  0  0  0  0
  -27.1804  -28.7060   20.7112 C   0  0  0  0  0  0
  -26.0511  -26.9969   19.4075 C   0  0  0  0  0  0
  -24.8569  -27.7308   19.4640 C   0  0  0  0  0  0
  -23.5978  -29.8378   20.1717 C   0  0  0  0  0  0
  -25.4124  -36.3112   24.0320 C   0  0  1  0  0  0
  -20.5855  -28.3695   23.1343 C   0  0  2  0  0  0
  -20.6763  -26.9456   22.5387 C   0  0  0  0  0  0
  -19.5690  -26.6392   21.5232 C   0  0  0  0  0  0
  -18.1855  -26.7960   22.1616 C   0  0  0  0  0  0
  -19.1512  -28.8842   23.2924 C   0  0  0  0  0  0
  -18.9501  -30.1471   23.8868 C   0  0  0  0  0  0
  -17.6529  -30.6655   24.0484 C   0  0  0  0  0  0
  -25.9028  -34.9475   23.5159 C   0  0  0  0  0  0
  -16.5386  -29.9145   23.6408 C   0  0  0  0  0  0
  -16.7252  -28.6528   23.0484 C   0  0  0  0  0  0
  -26.4464  -31.6578   25.0737 C   0  0  0  0  0  0
  -25.3730  -31.3705   26.1491 C   0  0  0  0  0  0
  -27.0295  -30.3018   24.6094 C   0  0  0  0  0  0
  -27.6024  -32.4308   25.7479 C   0  0  0  0  0  0
  -27.5588  -37.1803   24.8458 C   0  0  0  0  0  0
  -21.4106  -29.3142   22.3831 N   0  0  0  0  0  0
  -26.4324  -37.3787   23.9372 N   0  0  0  0  0  0
  -24.6604  -31.0806   22.1097 N   0  0  0  0  0  0
  -23.4186  -28.8234   23.3068 O   0  0  0  0  0  0
  -28.3936  -26.7283   20.1232 O   0  0  0  0  0  0
  -26.5579  -34.8919   22.4725 O   0  0  0  0  0  0
  -23.5302  -32.1481   23.7559 O   0  0  0  0  0  0
  -24.8088  -18.6587   22.5597 C   0  0  0  0  0  0
  -26.6710  -18.0899   23.2210 C   0  0  0  0  0  0
  -27.0533  -21.8246   20.4714 C   0  0  0  0  0  0
  -25.9578  -23.5324   22.0027 C   0  0  0  0  0  0
  -28.1042  -22.8919   20.1026 C   0  0  0  0  0  0
  -27.0574  -24.5459   21.6445 C   0  0  0  0  0  0
  -26.4270  -22.0700   21.8652 C   0  0  1  0  0  0
  -27.5187  -24.3118   20.1943 C   0  0  1  0  0  0
  -27.8631  -17.2411   23.4931 C   0  0  0  0  0  0
  -25.2438  -21.1107   22.1586 C   0  0  0  0  0  0
  -28.4795  -25.3883   19.6123 C   0  0  0  0  0  0
  -28.3121  -16.5999   22.1807 C   0  0  0  0  0  0
  -29.7265  -16.0173   22.1856 C   0  0  0  0  0  0
  -25.4266  -17.5717   23.0028 N   0  0  0  0  0  0
  -26.8150  -19.3904   22.9677 N   0  0  0  0  0  0
  -25.5881  -19.7429   22.5127 N   0  0  0  0  0  0
  -30.0220  -15.5213   20.8460 N   0  0  0  0  0  0
  -31.4635  -12.3633   19.1275 H   0  0  0  0  0  0
  -30.3045  -11.2690   19.8260 H   0  0  0  0  0  0
  -29.7272  -11.7626   17.4287 H   0  0  0  0  0  0
  -29.6788  -13.4729   17.7763 H   0  0  0  0  0  0
  -27.7915  -11.3177   18.7944 H   0  0  0  0  0  0
  -27.3734  -12.6756   17.7841 H   0  0  0  0  0  0
  -27.7069  -14.2578   19.5874 H   0  0  0  0  0  0
  -28.6664  -11.9605   21.3563 H   0  0  0  0  0  0
  -28.4784  -13.6052   21.8720 H   0  0  0  0  0  0
  -25.2710   -9.5636   22.4775 H   0  0  0  0  0  0
  -23.9962   -7.4587   22.7452 H   0  0  0  0  0  0
  -21.0827   -8.8731   19.8956 H   0  0  0  0  0  0
  -22.3654  -10.9631   19.6194 H   0  0  0  0  0  0
  -21.2025   -7.6142   23.9701 H   0  0  0  0  0  0
  -21.1487   -6.0523   25.9069 H   0  0  0  0  0  0
  -22.0608   -2.7605   23.2857 H   0  0  0  0  0  0
  -22.4083  -11.9872   22.4811 H   0  0  0  0  0  0
  -21.1112  -13.1240   22.2644 H   0  0  0  0  0  0
  -24.7339  -15.8512   20.7104 H   0  0  0  0  0  0
  -26.3330  -15.6102   20.2317 H   0  0  0  0  0  0
  -26.7096  -32.5574   23.1195 H   0  0  0  0  0  0
  -25.0024  -33.9825   25.0492 H   0  0  0  0  0  0
  -22.6806  -31.3173   21.4297 H   0  0  0  0  0  0
  -23.3742  -35.9657   23.3302 H   0  0  0  0  0  0
  -24.3577  -36.8943   22.2040 H   0  0  0  0  0  0
  -23.7253  -37.6532   23.6664 H   0  0  0  0  0  0
  -26.0289  -31.6026   20.6132 H   0  0  0  0  0  0
  -26.8113  -30.8844   21.9924 H   0  0  0  0  0  0
  -28.0656  -29.0722   21.2129 H   0  0  0  0  0  0
  -26.0296  -26.0913   18.8267 H   0  0  0  0  0  0
  -23.9668  -27.3577   18.9733 H   0  0  0  0  0  0
  -23.7087  -30.6158   19.4155 H   0  0  0  0  0  0
  -22.7183  -29.2597   19.8804 H   0  0  0  0  0  0
  -25.1283  -36.1985   25.0801 H   0  0  0  0  0  0
  -20.9921  -28.3262   24.1469 H   0  0  0  0  0  0
  -20.5796  -26.2304   23.3574 H   0  0  0  0  0  0
  -21.6616  -26.7590   22.1040 H   0  0  0  0  0  0
  -19.6730  -25.6278   21.1284 H   0  0  0  0  0  0
  -19.6666  -27.3128   20.6707 H   0  0  0  0  0  0
  -17.4187  -26.6852   21.3928 H   0  0  0  0  0  0
  -18.0206  -25.9975   22.8888 H   0  0  0  0  0  0
  -19.7947  -30.7317   24.2294 H   0  0  0  0  0  0
  -17.5187  -31.6381   24.5046 H   0  0  0  0  0  0
  -15.5405  -30.3007   23.7893 H   0  0  0  0  0  0
  -15.8596  -28.0859   22.7390 H   0  0  0  0  0  0
  -24.5889  -30.7059   25.7860 H   0  0  0  0  0  0
  -24.8931  -32.2872   26.4914 H   0  0  0  0  0  0
  -25.8061  -30.8895   27.0267 H   0  0  0  0  0  0
  -26.2848  -29.6788   24.1128 H   0  0  0  0  0  0
  -27.4070  -29.7223   25.4529 H   0  0  0  0  0  0
  -27.8676  -30.4364   23.9256 H   0  0  0  0  0  0
  -27.2626  -33.3611   26.2050 H   0  0  0  0  0  0
  -28.3803  -32.6868   25.0274 H   0  0  0  0  0  0
  -28.0725  -31.8453   26.5388 H   0  0  0  0  0  0
  -28.2582  -38.0111   24.7488 H   0  0  0  0  0  0
  -28.1095  -36.2634   24.6310 H   0  0  0  0  0  0
  -27.2285  -37.1469   25.8856 H   0  0  0  0  0  0
  -20.9259  -29.9197   21.7374 H   0  0  0  0  0  0
  -26.0200  -38.2846   24.1430 H   0  0  0  0  0  0
  -23.7740  -18.6695   22.2477 H   0  0  0  0  0  0
  -27.5076  -20.8346   20.4370 H   0  0  0  0  0  0
  -26.2725  -21.8184   19.7077 H   0  0  0  0  0  0
  -25.0876  -23.7014   21.3606 H   0  0  0  0  0  0
  -25.6224  -23.7109   23.0252 H   0  0  0  0  0  0
  -28.4764  -22.6917   19.0977 H   0  0  0  0  0  0
  -28.9687  -22.8081   20.7627 H   0  0  0  0  0  0
  -27.9024  -24.4681   22.3289 H   0  0  0  0  0  0
  -26.6539  -25.5484   21.7764 H   0  0  0  0  0  0
  -27.2007  -21.9292   22.6213 H   0  0  0  0  0  0
  -26.6316  -24.2934   19.5661 H   0  0  0  0  0  0
  -27.6197  -16.4767   24.2310 H   0  0  0  0  0  0
  -28.6542  -17.8518   23.9253 H   0  0  0  0  0  0
  -24.5826  -21.0772   21.2926 H   0  0  0  0  0  0
  -24.6424  -21.5041   22.9781 H   0  0  0  0  0  0
  -28.4137  -25.4134   18.5221 H   0  0  0  0  0  0
  -29.5001  -25.0680   19.8256 H   0  0  0  0  0  0
  -28.2452  -17.3488   21.3885 H   0  0  0  0  0  0
  -27.5925  -15.8230   21.9263 H   0  0  0  0  0  0
  -29.8269  -15.2490   22.9536 H   0  0  0  0  0  0
  -30.4542  -16.7986   22.4177 H   0  0  0  0  0  0
  -30.3326  -16.2833   20.2578 H   0  0  0  0  0  0
  1 25  1  0  0  0
  1 30  2  0  0  0
  1 87  1  0  0  0
  2  3  1  0  0  0
  2 25  1  0  0  0
  2 88  1  0  0  0
  2 89  1  0  0  0
  3  4  1  0  0  0
  3 90  1  0  0  0
  3 91  1  0  0  0
  4  5  1  0  0  0
  4 92  1  0  0  0
  4 93  1  0  0  0
  5  6  1  0  0  0
  5 26  1  0  0  0
  5 94  1  0  0  0
  6 25  1  0  0  0
  6 95  1  0  0  0
  6 96  1  0  0  0
  7  8  2  0  0  0
  7 26  1  0  0  0
  7 29  1  0  0  0
  8  9  1  0  0  0
  8 22  1  0  0  0
  9 10  1  0  0  0
  9 27  2  0  0  0
 10 11  2  0  0  0
 10 15  1  0  0  0
 11 12  1  0  0  0
 11 97  1  0  0  0
 12 13  2  0  0  0
 12 98  1  0  0  0
 13 14  1  0  0  0
 13 31  1  0  0  0
 14 15  2  0  0  0
 14 99  1  0  0  0
 15100  1  0  0  0
 16 17  2  0  0  0
 16 21  1  0  0  0
 16 31  1  0  0  0
 17 18  1  0  0  0
 17101  1  0  0  0
 18 19  2  0  0  0
 18102  1  0  0  0
 19 20  1  0  0  0
 19 24  1  0  0  0
 20 21  2  0  0  0
 20103  1  0  0  0
 21 23  1  0  0  0
 22 28  1  0  0  0
 22 32  2  0  0  0
 26 27  1  0  0  0
 28104  1  0  0  0
 28105  1  0  0  0
 29106  1  0  0  0
 29107  1  0  0  0
 33 34  1  0  0  0
 33 66  1  0  0  0
 33 70  2  0  0  0
 34 36  1  0  0  0
 34 59  1  0  0  0
 34108  1  0  0  0
 35 44  2  0  0  0
 35 45  1  0  0  0
 35 68  1  0  0  0
 36 56  1  0  0  0
 36109  1  0  0  0
 37 39  1  0  0  0
 37 47  1  0  0  0
 37 66  1  0  0  0
 37110  1  0  0  0
 38 43  2  0  0  0
 38 46  1  0  0  0
 38 47  1  0  0  0
 39 64  1  0  0  0
 39 67  2  0  0  0
 40 52  1  0  0  0
 40 53  2  0  0  0
 40 58  1  0  0  0
 41111  1  0  0  0
 41112  1  0  0  0
 41113  1  0  0  0
 41 48  1  0  0  0
 42 43  1  0  0  0
 42 66  1  0  0  0
 42114  1  0  0  0
 42115  1  0  0  0
 43 44  1  0  0  0
 44116  1  0  0  0
 45 46  2  0  0  0
 45117  1  0  0  0
 46118  1  0  0  0
 47119  1  0  0  0
 47120  1  0  0  0
 48 56  1  0  0  0
 48 65  1  0  0  0
 48121  1  0  0  0
 49 50  1  0  0  0
 49 53  1  0  0  0
 49 64  1  0  0  0
 49122  1  0  0  0
 50 51  1  0  0  0
 50123  1  0  0  0
 50124  1  0  0  0
 51 52  1  0  0  0
 51125  1  0  0  0
 51126  1  0  0  0
 52127  1  0  0  0
 52128  1  0  0  0
 53 54  1  0  0  0
 54 55  2  0  0  0
 54129  1  0  0  0
 55 57  1  0  0  0
 55130  1  0  0  0
 56 69  2  0  0  0
 57 58  2  0  0  0
 57131  1  0  0  0
 58132  1  0  0  0
 59 60  1  0  0  0
 59 61  1  0  0  0
 59 62  1  0  0  0
 60133  1  0  0  0
 60134  1  0  0  0
 60135  1  0  0  0
 61136  1  0  0  0
 61137  1  0  0  0
 61138  1  0  0  0
 62139  1  0  0  0
 62140  1  0  0  0
 62141  1  0  0  0
 63 65  1  0  0  0
 63142  1  0  0  0
 63143  1  0  0  0
 63144  1  0  0  0
 64145  1  0  0  0
 65146  1  0  0  0
 68 81  1  0  0  0
 71 84  2  0  0  0
 71 86  1  0  0  0
 71147  1  0  0  0
 72 79  1  0  0  0
 72 84  1  0  0  0
 72 85  2  0  0  0
 73 75  1  0  0  0
 73 77  1  0  0  0
 73148  1  0  0  0
 73149  1  0  0  0
 74 76  1  0  0  0
 74 77  1  0  0  0
 74150  1  0  0  0
 74151  1  0  0  0
 75 78  1  0  0  0
 75152  1  0  0  0
 75153  1  0  0  0
 76 78  1  0  0  0
 76154  1  0  0  0
 76155  1  0  0  0
 77 80  1  0  0  0
 77156  1  0  0  0
 78 81  1  0  0  0
 78157  1  0  0  0
 79 82  1  0  0  0
 79158  1  0  0  0
 79159  1  0  0  0
 80 86  1  0  0  0
 80160  1  0  0  0
 80161  1  0  0  0
 81162  1  0  0  0
 81163  1  0  0  0
 82 83  1  0  0  0
 82164  1  0  0  0
 82165  1  0  0  0
 83 87  1  0  0  0
 83166  1  0  0  0
 83167  1  0  0  0
 85 86  1  0  0  0
 87168  1  0  0  0
M  ISO  4   1 100  68 101  81 101  87 100
M  END
> <chiral flag>
0

> <version>
0

> <s_m_source_file>
/data/baiqing/PycharmProjects/Reinvent-master-3.2/result/LINK_invent/BTK/process_docking_weight1_custom_sum_contain_oxygen_bond_distance_aromatic_linkinvent_7_9_3/rearranged_h_0058.sdf

> <i_m_source_file_index>
48

> <r_mmod_Potential_Energy-OPLS-2005>
3.48118233680725

> <r_mmod_Stretch_Energy-OPLS-2005>
33.0263633728027

> <r_mmod_Bend_Energy-OPLS-2005>
131.692657470703

> <r_mmod_Torsional_Energy-OPLS-2005>
280.123504638672

> <r_mmod_Improper_Torsional_Energy-OPLS-2005>
17.2642726898193

> <r_mmod_Van_der_Waal_Energy-OPLS-2005>
128.709030151367

> <r_mmod_Electrostatic_Energy-OPLS-2005>
-385.351531982422

> <r_mmod_Solvation_Energy-OPLS-2005>
-216.264312744141

> <b_mmod_Minimization_Converged-OPLS-2005>
0

> <r_mmod_RMS_Derivative-OPLS-2005>
5.95062112808228

$$$$
48
                    3D
 Structure written by MMmdl.
152160  0  0  1  0            999 V2000
  -30.2962  -15.7087   20.6172 C   0  0  0  0  0  0
  -30.4640  -13.1787   19.6396 C   0  0  0  0  0  0
  -29.6010  -12.8609   18.3777 C   0  0  0  0  0  0
  -28.1575  -12.4561   18.7498 C   0  0  0  0  0  0
  -27.6297  -13.3550   19.8892 C   0  0  2  0  0  0
  -28.6492  -13.5813   21.0390 C   0  0  0  0  0  0
  -25.2230  -13.8305   20.5676 C   0  0  0  0  0  0
  -24.1728  -13.0469   20.9240 C   0  0  0  0  0  0
  -24.6535  -11.6969   20.8807 C   0  0  0  0  0  0
  -23.9256  -10.4311   21.0437 C   0  0  0  0  0  0
  -24.3737   -9.4184   21.9249 C   0  0  0  0  0  0
  -23.6371   -8.2253   22.0735 C   0  0  0  0  0  0
  -22.4346   -8.0349   21.3535 C   0  0  0  0  0  0
  -22.0028   -9.0332   20.4636 C   0  0  0  0  0  0
  -22.7407  -10.2201   20.3077 C   0  0  0  0  0  0
  -21.6870   -6.0782   22.5282 C   0  0  0  0  0  0
  -21.4034   -6.5637   23.8238 C   0  0  0  0  0  0
  -21.3694   -5.6760   24.9189 C   0  0  0  0  0  0
  -21.6105   -4.3021   24.7193 C   0  0  0  0  0  0
  -21.8835   -3.8128   23.4289 C   0  0  0  0  0  0
  -21.9175   -4.7003   22.3359 C   0  0  0  0  0  0
  -22.7669  -13.5179   21.1906 C   0  0  0  0  0  0
  -22.1619   -4.2193   21.0910 F   0  0  0  0  0  0
  -21.5660   -3.4491   25.7678 F   0  0  0  0  0  0
  -29.8274  -14.3026   20.4862 N   0  0  0  0  0  0
  -26.2903  -12.9812   20.3466 N   0  0  0  0  0  0
  -25.9553  -11.6814   20.5866 N   0  0  0  0  0  0
  -22.0297  -12.8222   22.0422 N   0  0  0  0  0  0
  -25.3637  -15.2045   20.3709 N   0  0  0  0  0  0
  -31.4914  -15.6729   20.2646 O   0  0  0  0  0  0
  -21.6656   -6.8977   21.4247 O   0  0  0  0  0  0
  -22.3369  -14.5515   20.6718 O   0  0  0  0  0  0
  -24.6870  -31.7865   23.1485 C   0  0  0  0  0  0
  -25.9428  -32.4388   23.8048 C   0  0  1  0  0  0
  -27.2674  -26.6140   20.3380 C   0  0  0  0  0  0
  -25.6025  -33.8236   24.1990 N   0  0  0  0  0  0
  -23.5271  -30.3822   21.4923 C   0  0  2  0  0  0
  -25.0076  -28.7033   20.1273 C   0  0  0  0  0  0
  -22.7794  -29.4234   22.4604 C   0  0  0  0  0  0
  -18.0360  -28.1423   22.8438 C   0  0  0  0  0  0
  -24.1541  -36.7150   23.2657 C   0  0  0  0  0  0
  -26.1049  -30.4996   21.4345 C   0  0  0  0  0  0
  -26.1765  -29.0496   20.8120 C   0  0  0  0  0  0
  -27.2759  -28.0339   20.8896 C   0  0  0  0  0  0
  -26.0725  -26.5025   19.5596 C   0  0  0  0  0  0
  -25.0049  -27.4603   19.4686 C   0  0  0  0  0  0
  -23.8028  -29.6721   20.1301 C   0  0  0  0  0  0
  -25.4182  -36.2854   24.0274 C   0  0  1  0  0  0
  -20.6011  -28.3791   23.1107 C   0  0  2  0  0  0
  -20.6824  -26.9426   22.5391 C   0  0  0  0  0  0
  -19.5797  -26.6356   21.5208 C   0  0  0  0  0  0
  -18.1990  -26.7948   22.1606 C   0  0  0  0  0  0
  -19.1632  -28.8910   23.2774 C   0  0  0  0  0  0
  -18.9516  -30.1477   23.8861 C   0  0  0  0  0  0
  -17.6500  -30.6593   24.0543 C   0  0  0  0  0  0
  -25.9137  -34.9238   23.4963 C   0  0  0  0  0  0
  -16.5409  -29.9072   23.6332 C   0  0  0  0  0  0
  -16.7328  -28.6497   23.0358 C   0  0  0  0  0  0
  -26.4649  -31.6423   25.0660 C   0  0  0  0  0  0
  -25.3788  -31.3693   26.1311 C   0  0  0  0  0  0
  -27.0585  -30.2769   24.6539 C   0  0  0  0  0  0
  -27.6147  -32.4277   25.7494 C   0  0  0  0  0  0
  -27.5587  -37.1743   24.8459 C   0  0  0  0  0  0
  -21.4415  -29.3023   22.3349 N   0  0  0  0  0  0
  -26.4303  -37.3613   23.9380 N   0  0  0  0  0  0
  -24.7962  -30.9234   22.0806 N   0  0  0  0  0  0
  -23.4201  -28.7839   23.2973 O   0  0  0  0  0  0
  -28.2349  -25.3749   20.5202 O   0  0  0  0  0  0
  -26.5742  -34.8779   22.4560 O   0  0  0  0  0  0
  -23.5872  -32.0994   23.6355 O   0  0  0  0  0  0
  -30.1695  -21.5976   21.5468 C   0  0  0  0  0  0
  -28.9938  -21.9263   20.8267 C   0  0  0  0  0  0
  -29.6229  -19.3028   21.0016 C   0  0  0  0  0  0
  -29.7075  -17.2017   22.7305 C   0  0  0  0  0  0
  -27.9941  -17.1955   21.0367 C   0  0  0  0  0  0
  -31.8124  -19.7243   22.2309 C   0  0  0  0  0  0
  -28.0930  -23.5810   20.4184 C   0  0  0  0  0  0
  -29.5136  -17.3792   21.1842 C   0  0  0  0  0  0
  -30.5362  -20.1848   21.5789 N   0  0  0  0  0  0
  -28.7260  -20.4199   20.5626 N   0  3  0  0  0  0
  -31.4645  -13.4728   19.3118 H   0  0  0  0  0  0
  -30.6449  -12.2781   20.2344 H   0  0  0  0  0  0
  -30.0896  -12.1275   17.7400 H   0  0  0  0  0  0
  -29.5562  -13.7840   17.8017 H   0  0  0  0  0  0
  -28.1456  -11.4099   19.0398 H   0  0  0  0  0  0
  -27.5141  -12.5529   17.8741 H   0  0  0  0  0  0
  -27.5226  -14.3390   19.4260 H   0  0  0  0  0  0
  -28.9220  -12.6239   21.4938 H   0  0  0  0  0  0
  -28.2153  -14.1576   21.8545 H   0  0  0  0  0  0
  -25.2895   -9.5629   22.4863 H   0  0  0  0  0  0
  -24.0078   -7.4620   22.7461 H   0  0  0  0  0  0
  -21.0953   -8.8965   19.8909 H   0  0  0  0  0  0
  -22.3991  -10.9758   19.6187 H   0  0  0  0  0  0
  -21.2038   -7.6125   23.9771 H   0  0  0  0  0  0
  -21.1526   -6.0446   25.9133 H   0  0  0  0  0  0
  -22.0592   -2.7573   23.2756 H   0  0  0  0  0  0
  -22.3812  -11.9854   22.4849 H   0  0  0  0  0  0
  -21.0907  -13.1266   22.2596 H   0  0  0  0  0  0
  -24.5811  -15.8481   20.4063 H   0  0  0  0  0  0
  -26.1852  -15.6028   19.9356 H   0  0  0  0  0  0
  -26.7507  -32.4877   23.0746 H   0  0  0  0  0  0
  -25.0118  -33.9338   25.0108 H   0  0  0  0  0  0
  -22.8562  -31.2201   21.2862 H   0  0  0  0  0  0
  -23.3772  -35.9502   23.3237 H   0  0  0  0  0  0
  -24.3648  -36.8884   22.2092 H   0  0  0  0  0  0
  -23.7347  -37.6336   23.6766 H   0  0  0  0  0  0
  -26.2976  -31.2012   20.6238 H   0  0  0  0  0  0
  -26.9586  -30.5984   22.0895 H   0  0  0  0  0  0
  -28.1248  -28.2946   21.5045 H   0  0  0  0  0  0
  -25.9200  -25.5644   19.0501 H   0  0  0  0  0  0
  -24.1429  -27.1903   18.8813 H   0  0  0  0  0  0
  -24.0006  -30.4316   19.3734 H   0  0  0  0  0  0
  -22.9153  -29.1454   19.7818 H   0  0  0  0  0  0
  -25.1397  -36.1610   25.0755 H   0  0  0  0  0  0
  -21.0084  -28.3414   24.1237 H   0  0  0  0  0  0
  -20.5770  -26.2359   23.3634 H   0  0  0  0  0  0
  -21.6670  -26.7413   22.1145 H   0  0  0  0  0  0
  -19.6982  -25.6249   21.1309 H   0  0  0  0  0  0
  -19.6790  -27.3085   20.6664 H   0  0  0  0  0  0
  -17.4268  -26.6666   21.3988 H   0  0  0  0  0  0
  -18.0360  -26.0100   22.9001 H   0  0  0  0  0  0
  -19.7996  -30.7267   24.2259 H   0  0  0  0  0  0
  -17.5076  -31.6259   24.5169 H   0  0  0  0  0  0
  -15.5422  -30.2977   23.7691 H   0  0  0  0  0  0
  -15.8709  -28.0793   22.7139 H   0  0  0  0  0  0
  -24.6013  -30.6963   25.7627 H   0  0  0  0  0  0
  -24.8923  -32.2860   26.4619 H   0  0  0  0  0  0
  -25.8055  -30.8978   27.0157 H   0  0  0  0  0  0
  -26.3261  -29.6385   24.1546 H   0  0  0  0  0  0
  -27.4009  -29.7191   25.5254 H   0  0  0  0  0  0
  -27.9252  -30.3875   24.0043 H   0  0  0  0  0  0
  -27.2706  -33.3629   26.1877 H   0  0  0  0  0  0
  -28.4052  -32.6716   25.0405 H   0  0  0  0  0  0
  -28.0632  -31.8502   26.5561 H   0  0  0  0  0  0
  -28.2533  -38.0104   24.7466 H   0  0  0  0  0  0
  -28.1167  -36.2611   24.6321 H   0  0  0  0  0  0
  -27.2275  -37.1367   25.8858 H   0  0  0  0  0  0
  -20.9691  -29.8654   21.6401 H   0  0  0  0  0  0
  -26.0108  -38.2660   24.1343 H   0  0  0  0  0  0
  -30.8215  -22.3010   22.0645 H   0  0  0  0  0  0
  -30.7429  -17.0827   23.0540 H   0  0  0  0  0  0
  -29.1556  -16.3417   23.1156 H   0  0  0  0  0  0
  -29.3102  -18.0597   23.2777 H   0  0  0  0  0  0
  -27.4681  -17.7585   21.8155 H   0  0  0  0  0  0
  -27.6786  -16.1626   21.1615 H   0  0  0  0  0  0
  -27.6337  -17.5645   20.0780 H   0  0  0  0  0  0
  -32.2036  -18.8239   21.7487 H   0  0  0  0  0  0
  -31.7031  -19.5435   23.3037 H   0  0  0  0  0  0
  -32.6049  -20.4816   22.1351 H   0  0  0  0  0  0
  -27.0879  -23.4213   20.8153 H   0  0  0  0  0  0
  -27.9471  -23.4792   19.3433 H   0  0  0  0  0  0
  -27.8590  -20.1780   20.0921 H   0  0  0  0  0  0
  1 25  1  0  0  0
  1 30  2  0  0  0
  1 78  1  0  0  0
  2  3  1  0  0  0
  2 25  1  0  0  0
  2 81  1  0  0  0
  2 82  1  0  0  0
  3  4  1  0  0  0
  3 83  1  0  0  0
  3 84  1  0  0  0
  4  5  1  0  0  0
  4 85  1  0  0  0
  4 86  1  0  0  0
  5  6  1  0  0  0
  5 26  1  0  0  0
  5 87  1  0  0  0
  6 25  1  0  0  0
  6 88  1  0  0  0
  6 89  1  0  0  0
  7  8  2  0  0  0
  7 26  1  0  0  0
  7 29  1  0  0  0
  8  9  1  0  0  0
  8 22  1  0  0  0
  9 10  1  0  0  0
  9 27  2  0  0  0
 10 11  2  0  0  0
 10 15  1  0  0  0
 11 12  1  0  0  0
 11 90  1  0  0  0
 12 13  2  0  0  0
 12 91  1  0  0  0
 13 14  1  0  0  0
 13 31  1  0  0  0
 14 15  2  0  0  0
 14 92  1  0  0  0
 15 93  1  0  0  0
 16 17  2  0  0  0
 16 21  1  0  0  0
 16 31  1  0  0  0
 17 18  1  0  0  0
 17 94  1  0  0  0
 18 19  2  0  0  0
 18 95  1  0  0  0
 19 20  1  0  0  0
 19 24  1  0  0  0
 20 21  2  0  0  0
 20 96  1  0  0  0
 21 23  1  0  0  0
 22 28  1  0  0  0
 22 32  2  0  0  0
 26 27  1  0  0  0
 28 97  1  0  0  0
 28 98  1  0  0  0
 29 99  1  0  0  0
 29100  1  0  0  0
 33 34  1  0  0  0
 33 66  1  0  0  0
 33 70  2  0  0  0
 34 36  1  0  0  0
 34 59  1  0  0  0
 34101  1  0  0  0
 35 44  2  0  0  0
 35 45  1  0  0  0
 35 68  1  0  0  0
 36 56  1  0  0  0
 36102  1  0  0  0
 37 39  1  0  0  0
 37 47  1  0  0  0
 37 66  1  0  0  0
 37103  1  0  0  0
 38 43  2  0  0  0
 38 46  1  0  0  0
 38 47  1  0  0  0
 39 64  1  0  0  0
 39 67  2  0  0  0
 40 52  1  0  0  0
 40 53  2  0  0  0
 40 58  1  0  0  0
 41104  1  0  0  0
 41105  1  0  0  0
 41106  1  0  0  0
 41 48  1  0  0  0
 42 43  1  0  0  0
 42 66  1  0  0  0
 42107  1  0  0  0
 42108  1  0  0  0
 43 44  1  0  0  0
 44109  1  0  0  0
 45 46  2  0  0  0
 45110  1  0  0  0
 46111  1  0  0  0
 47112  1  0  0  0
 47113  1  0  0  0
 48 56  1  0  0  0
 48 65  1  0  0  0
 48114  1  0  0  0
 49 50  1  0  0  0
 49 53  1  0  0  0
 49 64  1  0  0  0
 49115  1  0  0  0
 50 51  1  0  0  0
 50116  1  0  0  0
 50117  1  0  0  0
 51 52  1  0  0  0
 51118  1  0  0  0
 51119  1  0  0  0
 52120  1  0  0  0
 52121  1  0  0  0
 53 54  1  0  0  0
 54 55  2  0  0  0
 54122  1  0  0  0
 55 57  1  0  0  0
 55123  1  0  0  0
 56 69  2  0  0  0
 57 58  2  0  0  0
 57124  1  0  0  0
 58125  1  0  0  0
 59 60  1  0  0  0
 59 61  1  0  0  0
 59 62  1  0  0  0
 60126  1  0  0  0
 60127  1  0  0  0
 60128  1  0  0  0
 61129  1  0  0  0
 61130  1  0  0  0
 61131  1  0  0  0
 62132  1  0  0  0
 62133  1  0  0  0
 62134  1  0  0  0
 63 65  1  0  0  0
 63135  1  0  0  0
 63136  1  0  0  0
 63137  1  0  0  0
 64138  1  0  0  0
 65139  1  0  0  0
 68 77  1  0  0  0
 71 72  2  0  0  0
 71 79  1  0  0  0
 71140  1  0  0  0
 72 77  1  0  0  0
 72 80  1  0  0  0
 73 78  1  0  0  0
 73 79  1  0  0  0
 73 80  2  0  0  0
 74141  1  0  0  0
 74142  1  0  0  0
 74143  1  0  0  0
 74 78  1  0  0  0
 75 78  1  0  0  0
 75144  1  0  0  0
 75145  1  0  0  0
 75146  1  0  0  0
 76 79  1  0  0  0
 76147  1  0  0  0
 76148  1  0  0  0
 76149  1  0  0  0
 77150  1  0  0  0
 77151  1  0  0  0
 80152  1  0  0  0
M  CHG  1  80   1
M  ISO  4   1 100  68 101  77 101  78 100
M  END
> <chiral flag>
0

> <version>
0

> <s_m_source_file>
/data/baiqing/PycharmProjects/Reinvent-master-3.2/result/LINK_invent/BTK/process_docking_weight1_custom_sum_contain_oxygen_bond_distance_aromatic_linkinvent_7_9_3/rearranged_h_0058.sdf

> <i_m_source_file_index>
49

> <r_mmod_Potential_Energy-OPLS-2005>
2830.09887695312

> <r_mmod_Stretch_Energy-OPLS-2005>
1316.35119628906

> <r_mmod_Bend_Energy-OPLS-2005>
705.724914550781

> <r_mmod_Torsional_Energy-OPLS-2005>
232.035705566406

> <r_mmod_Improper_Torsional_Energy-OPLS-2005>
4.31910371780396

> <r_mmod_Van_der_Waal_Energy-OPLS-2005>
108.486038208008

> <r_mmod_Electrostatic_Energy-OPLS-2005>
-190.414077758789

> <r_mmod_Solvation_Energy-OPLS-2005>
-409.025543212891

> <b_mmod_Minimization_Converged-OPLS-2005>
0

> <r_mmod_RMS_Derivative-OPLS-2005>
13.8779716491699

$$$$
49
                    3D
 Structure written by MMmdl.
160168  0  0  1  0            999 V2000
  -30.5039  -15.0290   20.4661 C   0  0  0  0  0  0
  -30.4713  -12.6597   19.4941 C   0  0  0  0  0  0
  -29.5246  -12.5687   18.2703 C   0  0  0  0  0  0
  -28.0554  -12.3515   18.6923 C   0  0  0  0  0  0
  -27.6455  -13.2444   19.8914 C   0  0  2  0  0  0
  -28.7132  -13.1816   21.0057 C   0  0  0  0  0  0
  -25.2462  -13.8171   20.5772 C   0  0  0  0  0  0
  -24.1750  -13.0450   20.9267 C   0  0  0  0  0  0
  -24.6356  -11.6926   20.8842 C   0  0  0  0  0  0
  -23.9035  -10.4313   21.0445 C   0  0  0  0  0  0
  -24.3605   -9.4216   21.9202 C   0  0  0  0  0  0
  -23.6319   -8.2231   22.0787 C   0  0  0  0  0  0
  -22.4322   -8.0216   21.3545 C   0  0  0  0  0  0
  -21.9917   -9.0193   20.4678 C   0  0  0  0  0  0
  -22.7205  -10.2103   20.3082 C   0  0  0  0  0  0
  -21.6851   -6.0705   22.5253 C   0  0  0  0  0  0
  -21.3979   -6.5638   23.8176 C   0  0  0  0  0  0
  -21.3691   -5.6805   24.9157 C   0  0  0  0  0  0
  -21.6074   -4.3074   24.7204 C   0  0  0  0  0  0
  -21.8832   -3.8132   23.4340 C   0  0  0  0  0  0
  -21.9180   -4.6929   22.3381 C   0  0  0  0  0  0
  -22.7745  -13.5245   21.1857 C   0  0  0  0  0  0
  -22.1624   -4.2119   21.0953 F   0  0  0  0  0  0
  -21.5726   -3.4571   25.7738 F   0  0  0  0  0  0
  -29.9501  -13.7269   20.4103 N   0  0  0  0  0  0
  -26.2966  -12.9411   20.3590 N   0  0  0  0  0  0
  -25.9353  -11.6562   20.6017 N   0  0  0  0  0  0
  -22.0409  -12.8232   22.0423 N   0  0  0  0  0  0
  -25.4148  -15.1839   20.3907 N   0  0  0  0  0  0
  -31.6788  -15.1057   20.0846 O   0  0  0  0  0  0
  -21.6669   -6.8820   21.4212 O   0  0  0  0  0  0
  -22.3431  -14.5548   20.6700 O   0  0  0  0  0  0
  -24.6472  -31.8388   23.1819 C   0  0  0  0  0  0
  -25.9208  -32.4699   23.8219 C   0  0  1  0  0  0
  -27.2114  -27.0891   20.1162 C   0  0  0  0  0  0
  -25.5939  -33.8501   24.2120 N   0  0  0  0  0  0
  -23.4558  -30.4563   21.5285 C   0  0  2  0  0  0
  -24.9031  -28.8847   20.0992 C   0  0  0  0  0  0
  -22.7574  -29.4504   22.4818 C   0  0  0  0  0  0
  -18.0294  -28.1385   22.8490 C   0  0  0  0  0  0
  -24.1486  -36.7255   23.2642 C   0  0  0  0  0  0
  -26.0168  -30.6896   21.3977 C   0  0  0  0  0  0
  -26.0818  -29.2994   20.7313 C   0  0  0  0  0  0
  -27.2308  -28.4114   20.7326 C   0  0  0  0  0  0
  -26.0078  -26.8016   19.4346 C   0  0  0  0  0  0
  -24.8783  -27.6488   19.4409 C   0  0  0  0  0  0
  -23.6816  -29.7857   20.1483 C   0  0  0  0  0  0
  -25.4133  -36.3042   24.0308 C   0  0  1  0  0  0
  -20.5912  -28.3708   23.1235 C   0  0  2  0  0  0
  -20.6805  -26.9406   22.5417 C   0  0  0  0  0  0
  -19.5774  -26.6357   21.5225 C   0  0  0  0  0  0
  -18.1937  -26.7929   22.1618 C   0  0  0  0  0  0
  -19.1551  -28.8862   23.2852 C   0  0  0  0  0  0
  -18.9480  -30.1462   23.8875 C   0  0  0  0  0  0
  -17.6481  -30.6599   24.0549 C   0  0  0  0  0  0
  -25.9088  -34.9439   23.5034 C   0  0  0  0  0  0
  -16.5360  -29.9095   23.6362 C   0  0  0  0  0  0
  -16.7271  -28.6503   23.0389 C   0  0  0  0  0  0
  -26.4504  -31.6607   25.0695 C   0  0  0  0  0  0
  -25.3640  -31.3850   26.1365 C   0  0  0  0  0  0
  -27.0391  -30.2991   24.6354 C   0  0  0  0  0  0
  -27.6006  -32.4405   25.7482 C   0  0  0  0  0  0
  -27.5575  -37.1776   24.8438 C   0  0  0  0  0  0
  -21.4258  -29.3034   22.3597 N   0  0  0  0  0  0
  -26.4271  -37.3781   23.9419 N   0  0  0  0  0  0
  -24.7273  -31.0164   22.0926 N   0  0  0  0  0  0
  -23.4196  -28.8027   23.2968 O   0  0  0  0  0  0
  -28.2452  -26.0627   20.1928 O   0  0  0  0  0  0
  -26.5650  -34.8943   22.4600 O   0  0  0  0  0  0
  -23.5586  -32.1253   23.7012 O   0  0  0  0  0  0
  -29.8188  -22.8350   20.9884 C   0  0  0  0  0  0
  -28.7645  -23.1588   20.1469 C   0  0  0  0  0  0
  -29.2069  -20.7594   20.1836 C   0  0  0  0  0  0
  -29.0427  -18.8940   18.4183 C   0  0  0  0  0  0
  -27.5864  -18.8140   20.4375 C   0  0  0  0  0  0
  -31.0501  -20.7428   21.7937 C   0  0  0  0  0  0
  -28.8697  -16.1607   21.9269 C   0  0  0  0  0  0
  -27.9659  -24.5715   19.7710 C   0  0  0  0  0  0
  -30.0689  -17.8160   20.5317 C   0  0  0  0  0  0
  -29.0326  -19.0918   19.9552 C   0  0  0  0  0  0
  -30.0493  -21.4436   20.9917 N   0  0  0  0  0  0
  -28.4500  -21.8281   19.6823 N   0  3  0  0  0  0
  -29.7374  -16.2405   20.7362 N   0  0  0  0  0  0
  -31.4874  -12.8703   19.1444 H   0  0  0  0  0  0
  -30.5521  -11.6957   19.9988 H   0  0  0  0  0  0
  -29.8499  -11.7732   17.5985 H   0  0  0  0  0  0
  -29.5972  -13.5015   17.7119 H   0  0  0  0  0  0
  -27.9467  -11.3013   18.9660 H   0  0  0  0  0  0
  -27.3769  -12.5187   17.8556 H   0  0  0  0  0  0
  -27.6270  -14.2718   19.5271 H   0  0  0  0  0  0
  -28.8571  -12.1476   21.3270 H   0  0  0  0  0  0
  -28.4139  -13.6918   21.9165 H   0  0  0  0  0  0
  -25.2773   -9.5731   22.4734 H   0  0  0  0  0  0
  -24.0091   -7.4649   22.7500 H   0  0  0  0  0  0
  -21.0881   -8.8615   19.8993 H   0  0  0  0  0  0
  -22.3623  -10.9589   19.6165 H   0  0  0  0  0  0
  -21.1919   -7.6140   23.9638 H   0  0  0  0  0  0
  -21.1540   -6.0562   25.9056 H   0  0  0  0  0  0
  -22.0611   -2.7587   23.2823 H   0  0  0  0  0  0
  -22.4142  -11.9976   22.4837 H   0  0  0  0  0  0
  -21.0990  -13.1151   22.2720 H   0  0  0  0  0  0
  -24.6223  -15.8156   20.3840 H   0  0  0  0  0  0
  -26.2245  -15.5461   19.9091 H   0  0  0  0  0  0
  -26.7263  -32.5273   23.0926 H   0  0  0  0  0  0
  -25.0127  -33.9599   25.0299 H   0  0  0  0  0  0
  -22.7662  -31.2896   21.3701 H   0  0  0  0  0  0
  -23.3797  -35.9531   23.3251 H   0  0  0  0  0  0
  -24.3594  -36.8943   22.2065 H   0  0  0  0  0  0
  -23.7183  -37.6415   23.6723 H   0  0  0  0  0  0
  -26.1840  -31.4470   20.6295 H   0  0  0  0  0  0
  -26.8862  -30.7332   22.0453 H   0  0  0  0  0  0
  -28.1224  -28.7088   21.2630 H   0  0  0  0  0  0
  -25.8869  -25.8777   18.8891 H   0  0  0  0  0  0
  -23.9769  -27.3425   18.9266 H   0  0  0  0  0  0
  -23.8130  -30.5522   19.3844 H   0  0  0  0  0  0
  -22.7986  -29.2186   19.8481 H   0  0  0  0  0  0
  -25.1335  -36.1837   25.0802 H   0  0  0  0  0  0
  -21.0003  -28.3283   24.1359 H   0  0  0  0  0  0
  -20.5700  -26.2297   23.3629 H   0  0  0  0  0  0
  -21.6664  -26.7421   22.1195 H   0  0  0  0  0  0
  -19.6924  -25.6246   21.1288 H   0  0  0  0  0  0
  -19.6723  -27.3170   20.6753 H   0  0  0  0  0  0
  -17.4217  -26.6661   21.4007 H   0  0  0  0  0  0
  -18.0302  -26.0076   22.9007 H   0  0  0  0  0  0
  -19.7957  -30.7278   24.2217 H   0  0  0  0  0  0
  -17.5053  -31.6295   24.5128 H   0  0  0  0  0  0
  -15.5358  -30.3001   23.7755 H   0  0  0  0  0  0
  -15.8648  -28.0837   22.7141 H   0  0  0  0  0  0
  -24.5760  -30.7283   25.7650 H   0  0  0  0  0  0
  -24.8900  -32.3083   26.4725 H   0  0  0  0  0  0
  -25.7857  -30.8998   27.0174 H   0  0  0  0  0  0
  -26.3019  -29.6703   24.1341 H   0  0  0  0  0  0
  -27.3957  -29.7324   25.4967 H   0  0  0  0  0  0
  -27.8972  -30.4241   23.9740 H   0  0  0  0  0  0
  -27.2558  -33.3740   26.1962 H   0  0  0  0  0  0
  -28.3868  -32.6914   25.0340 H   0  0  0  0  0  0
  -28.0629  -31.8584   26.5468 H   0  0  0  0  0  0
  -28.2539  -38.0128   24.7631 H   0  0  0  0  0  0
  -28.1114  -36.2674   24.6096 H   0  0  0  0  0  0
  -27.2302  -37.1238   25.8832 H   0  0  0  0  0  0
  -20.9436  -29.8731   21.6785 H   0  0  0  0  0  0
  -26.0114  -38.2820   24.1523 H   0  0  0  0  0  0
  -30.3995  -23.5044   21.6075 H   0  0  0  0  0  0
  -28.3049  -19.5150   17.9088 H   0  0  0  0  0  0
  -28.8298  -17.8630   18.1374 H   0  0  0  0  0  0
  -30.0097  -19.1492   17.9803 H   0  0  0  0  0  0
  -26.8599  -19.4448   19.9194 H   0  0  0  0  0  0
  -27.4690  -19.0297   21.4993 H   0  0  0  0  0  0
  -27.2654  -17.7871   20.2677 H   0  0  0  0  0  0
  -31.7739  -21.4449   22.2090 H   0  0  0  0  0  0
  -31.5783  -20.0264   21.1645 H   0  0  0  0  0  0
  -30.5333  -20.2200   22.5989 H   0  0  0  0  0  0
  -28.6697  -17.1270   22.3816 H   0  0  0  0  0  0
  -29.3038  -15.5523   22.7304 H   0  0  0  0  0  0
  -27.8818  -15.7849   21.6670 H   0  0  0  0  0  0
  -26.9424  -24.3744   20.0856 H   0  0  0  0  0  0
  -27.9250  -24.6014   18.6809 H   0  0  0  0  0  0
  -30.4111  -18.1298   21.5170 H   0  0  0  0  0  0
  -30.9958  -17.8531   19.9571 H   0  0  0  0  0  0
  -27.6894  -21.6780   19.0298 H   0  0  0  0  0  0
  1 25  1  0  0  0
  1 30  2  0  0  0
  1 83  1  0  0  0
  2  3  1  0  0  0
  2 25  1  0  0  0
  2 84  1  0  0  0
  2 85  1  0  0  0
  3  4  1  0  0  0
  3 86  1  0  0  0
  3 87  1  0  0  0
  4  5  1  0  0  0
  4 88  1  0  0  0
  4 89  1  0  0  0
  5  6  1  0  0  0
  5 26  1  0  0  0
  5 90  1  0  0  0
  6 25  1  0  0  0
  6 91  1  0  0  0
  6 92  1  0  0  0
  7  8  2  0  0  0
  7 26  1  0  0  0
  7 29  1  0  0  0
  8  9  1  0  0  0
  8 22  1  0  0  0
  9 10  1  0  0  0
  9 27  2  0  0  0
 10 11  2  0  0  0
 10 15  1  0  0  0
 11 12  1  0  0  0
 11 93  1  0  0  0
 12 13  2  0  0  0
 12 94  1  0  0  0
 13 14  1  0  0  0
 13 31  1  0  0  0
 14 15  2  0  0  0
 14 95  1  0  0  0
 15 96  1  0  0  0
 16 17  2  0  0  0
 16 21  1  0  0  0
 16 31  1  0  0  0
 17 18  1  0  0  0
 17 97  1  0  0  0
 18 19  2  0  0  0
 18 98  1  0  0  0
 19 20  1  0  0  0
 19 24  1  0  0  0
 20 21  2  0  0  0
 20 99  1  0  0  0
 21 23  1  0  0  0
 22 28  1  0  0  0
 22 32  2  0  0  0
 26 27  1  0  0  0
 28100  1  0  0  0
 28101  1  0  0  0
 29102  1  0  0  0
 29103  1  0  0  0
 33 34  1  0  0  0
 33 66  1  0  0  0
 33 70  2  0  0  0
 34 36  1  0  0  0
 34 59  1  0  0  0
 34104  1  0  0  0
 35 44  2  0  0  0
 35 45  1  0  0  0
 35 68  1  0  0  0
 36 56  1  0  0  0
 36105  1  0  0  0
 37 39  1  0  0  0
 37 47  1  0  0  0
 37 66  1  0  0  0
 37106  1  0  0  0
 38 43  2  0  0  0
 38 46  1  0  0  0
 38 47  1  0  0  0
 39 64  1  0  0  0
 39 67  2  0  0  0
 40 52  1  0  0  0
 40 53  2  0  0  0
 40 58  1  0  0  0
 41107  1  0  0  0
 41108  1  0  0  0
 41109  1  0  0  0
 41 48  1  0  0  0
 42 43  1  0  0  0
 42 66  1  0  0  0
 42110  1  0  0  0
 42111  1  0  0  0
 43 44  1  0  0  0
 44112  1  0  0  0
 45 46  2  0  0  0
 45113  1  0  0  0
 46114  1  0  0  0
 47115  1  0  0  0
 47116  1  0  0  0
 48 56  1  0  0  0
 48 65  1  0  0  0
 48117  1  0  0  0
 49 50  1  0  0  0
 49 53  1  0  0  0
 49 64  1  0  0  0
 49118  1  0  0  0
 50 51  1  0  0  0
 50119  1  0  0  0
 50120  1  0  0  0
 51 52  1  0  0  0
 51121  1  0  0  0
 51122  1  0  0  0
 52123  1  0  0  0
 52124  1  0  0  0
 53 54  1  0  0  0
 54 55  2  0  0  0
 54125  1  0  0  0
 55 57  1  0  0  0
 55126  1  0  0  0
 56 69  2  0  0  0
 57 58  2  0  0  0
 57127  1  0  0  0
 58128  1  0  0  0
 59 60  1  0  0  0
 59 61  1  0  0  0
 59 62  1  0  0  0
 60129  1  0  0  0
 60130  1  0  0  0
 60131  1  0  0  0
 61132  1  0  0  0
 61133  1  0  0  0
 61134  1  0  0  0
 62135  1  0  0  0
 62136  1  0  0  0
 62137  1  0  0  0
 63 65  1  0  0  0
 63138  1  0  0  0
 63139  1  0  0  0
 63140  1  0  0  0
 64141  1  0  0  0
 65142  1  0  0  0
 68 78  1  0  0  0
 71 72  2  0  0  0
 71 81  1  0  0  0
 71143  1  0  0  0
 72 78  1  0  0  0
 72 82  1  0  0  0
 73 80  1  0  0  0
 73 81  1  0  0  0
 73 82  2  0  0  0
 74144  1  0  0  0
 74145  1  0  0  0
 74146  1  0  0  0
 74 80  1  0  0  0
 75 80  1  0  0  0
 75147  1  0  0  0
 75148  1  0  0  0
 75149  1  0  0  0
 76 81  1  0  0  0
 76150  1  0  0  0
 76151  1  0  0  0
 76152  1  0  0  0
 77 83  1  0  0  0
 77153  1  0  0  0
 77154  1  0  0  0
 77155  1  0  0  0
 78156  1  0  0  0
 78157  1  0  0  0
 79 80  1  0  0  0
 79 83  1  0  0  0
 79158  1  0  0  0
 79159  1  0  0  0
 82160  1  0  0  0
M  CHG  1  82   1
M  ISO  4   1 100  68 101  78 101  83 100
M  END
> <chiral flag>
0

> <version>
0

> <s_m_source_file>
/data/baiqing/PycharmProjects/Reinvent-master-3.2/result/LINK_invent/BTK/process_docking_weight1_custom_sum_contain_oxygen_bond_distance_aromatic_linkinvent_7_9_3/rearranged_h_0058.sdf

> <i_m_source_file_index>
50

> <r_mmod_Potential_Energy-OPLS-2005>
734.745544433594

> <r_mmod_Stretch_Energy-OPLS-2005>
355.544952392578

> <r_mmod_Bend_Energy-OPLS-2005>
317.502716064453

> <r_mmod_Torsional_Energy-OPLS-2005>
296.876007080078

> <r_mmod_Improper_Torsional_Energy-OPLS-2005>
8.68625259399414

> <r_mmod_Van_der_Waal_Energy-OPLS-2005>
122.770324707031

> <r_mmod_Electrostatic_Energy-OPLS-2005>
-196.010314941406

> <r_mmod_Solvation_Energy-OPLS-2005>
-407.313293457031

> <b_mmod_Minimization_Converged-OPLS-2005>
0

> <r_mmod_RMS_Derivative-OPLS-2005>
7.04594755172729

$$$$
50
                    3D
 Structure written by MMmdl.
170178  0  0  1  0            999 V2000
  -30.5045  -15.0269   20.3389 C   0  0  0  0  0  0
  -30.4512  -12.6263   19.5078 C   0  0  0  0  0  0
  -29.5376  -12.5053   18.2639 C   0  0  0  0  0  0
  -28.0679  -12.2843   18.6738 C   0  0  0  0  0  0
  -27.6205  -13.2348   19.8118 C   0  0  2  0  0  0
  -28.6598  -13.3303   20.9464 C   0  0  0  0  0  0
  -25.2429  -13.7986   20.5527 C   0  0  0  0  0  0
  -24.1774  -13.0311   20.9256 C   0  0  0  0  0  0
  -24.6397  -11.6813   20.8809 C   0  0  0  0  0  0
  -23.9055  -10.4229   21.0464 C   0  0  0  0  0  0
  -24.3597   -9.4144   21.9224 C   0  0  0  0  0  0
  -23.6262   -8.2187   22.0759 C   0  0  0  0  0  0
  -22.4255   -8.0250   21.3546 C   0  0  0  0  0  0
  -21.9904   -9.0229   20.4650 C   0  0  0  0  0  0
  -22.7236  -10.2102   20.3089 C   0  0  0  0  0  0
  -21.6822   -6.0719   22.5284 C   0  0  0  0  0  0
  -21.3995   -6.5619   23.8219 C   0  0  0  0  0  0
  -21.3660   -5.6774   24.9187 C   0  0  0  0  0  0
  -21.6038   -4.3036   24.7236 C   0  0  0  0  0  0
  -21.8817   -3.8133   23.4352 C   0  0  0  0  0  0
  -21.9183   -4.6950   22.3411 C   0  0  0  0  0  0
  -22.7818  -13.5179   21.1868 C   0  0  0  0  0  0
  -22.1654   -4.2148   21.0983 F   0  0  0  0  0  0
  -21.5639   -3.4514   25.7740 F   0  0  0  0  0  0
  -29.9371  -13.7451   20.3521 N   0  0  0  0  0  0
  -26.2853  -12.9248   20.3095 N   0  0  0  0  0  0
  -25.9331  -11.6413   20.5747 N   0  0  0  0  0  0
  -22.0402  -12.8241   22.0429 N   0  0  0  0  0  0
  -25.3963  -15.1592   20.3569 N   0  0  0  0  0  0
  -31.7408  -15.0437   20.2908 O   0  0  0  0  0  0
  -21.6601   -6.8862   21.4248 O   0  0  0  0  0  0
  -22.3559  -14.5482   20.6678 O   0  0  0  0  0  0
  -24.6432  -31.8436   23.1840 C   0  0  0  0  0  0
  -25.9217  -32.4673   23.8229 C   0  0  1  0  0  0
  -27.2313  -27.1373   20.1628 C   0  0  0  0  0  0
  -25.5976  -33.8473   24.2171 N   0  0  0  0  0  0
  -23.4447  -30.4583   21.5302 C   0  0  2  0  0  0
  -24.8958  -28.8697   20.1215 C   0  0  0  0  0  0
  -22.7555  -29.4552   22.4885 C   0  0  0  0  0  0
  -18.0319  -28.1367   22.8496 C   0  0  0  0  0  0
  -24.1491  -36.7226   23.2639 C   0  0  0  0  0  0
  -25.9997  -30.7158   21.3801 C   0  0  0  0  0  0
  -26.0728  -29.3227   20.7316 C   0  0  0  0  0  0
  -27.2427  -28.4759   20.7277 C   0  0  0  0  0  0
  -26.0248  -26.7706   19.5346 C   0  0  0  0  0  0
  -24.8829  -27.6047   19.5095 C   0  0  0  0  0  0
  -23.6707  -29.7704   20.1569 C   0  0  0  0  0  0
  -25.4125  -36.3007   24.0315 C   0  0  1  0  0  0
  -20.5933  -28.3700   23.1242 C   0  0  2  0  0  0
  -20.6814  -26.9388   22.5439 C   0  0  0  0  0  0
  -19.5776  -26.6332   21.5257 C   0  0  0  0  0  0
  -18.1970  -26.7884   22.1701 C   0  0  0  0  0  0
  -19.1577  -28.8862   23.2847 C   0  0  0  0  0  0
  -18.9494  -30.1466   23.8867 C   0  0  0  0  0  0
  -17.6489  -30.6576   24.0561 C   0  0  0  0  0  0
  -25.9074  -34.9388   23.5041 C   0  0  0  0  0  0
  -16.5376  -29.9060   23.6342 C   0  0  0  0  0  0
  -16.7306  -28.6470   23.0368 C   0  0  0  0  0  0
  -26.4533  -31.6540   25.0670 C   0  0  0  0  0  0
  -25.3725  -31.3729   26.1370 C   0  0  0  0  0  0
  -27.0410  -30.2937   24.6257 C   0  0  0  0  0  0
  -27.6070  -32.4307   25.7456 C   0  0  0  0  0  0
  -27.5571  -37.1768   24.8467 C   0  0  0  0  0  0
  -21.4258  -29.3004   22.3601 N   0  0  0  0  0  0
  -26.4277  -37.3743   23.9417 N   0  0  0  0  0  0
  -24.7154  -31.0284   22.0861 N   0  0  0  0  0  0
  -23.4198  -28.8141   23.3070 O   0  0  0  0  0  0
  -28.3346  -26.2178   20.0896 O   0  0  0  0  0  0
  -26.5656  -34.8899   22.4615 O   0  0  0  0  0  0
  -23.5552  -32.1313   23.7068 O   0  0  0  0  0  0
  -28.3961  -19.7348   21.4223 C   0  0  0  0  0  0
  -29.2333  -20.3691   20.5418 C   0  0  0  0  0  0
  -29.4529  -17.9556   20.4182 C   0  0  0  0  0  0
  -25.4361  -19.6263   20.5086 C   0  0  0  0  0  0
  -23.7579  -18.6446   22.0799 C   0  0  0  0  0  0
  -29.4923  -21.9879   20.3580 C   0  0  0  0  0  0
  -28.3575  -23.2242   20.1239 C   0  0  0  0  0  0
  -26.2017  -18.0238   22.4622 C   0  0  0  0  0  0
  -27.5640  -17.4192   21.9902 C   0  0  0  0  0  0
  -30.2102  -16.5913   18.3185 C   0  0  0  0  0  0
  -28.4085  -24.8064   20.7384 C   0  0  0  0  0  0
  -29.7098  -16.4179   19.7904 C   0  0  1  0  0  0
  -25.1218  -18.4159   21.4045 C   0  0  0  0  0  0
  -28.4662  -18.3462   21.2772 N   0  0  0  0  0  0
  -29.9151  -19.2186   20.0020 N   0  3  0  0  0  0
  -29.2045  -17.1247   17.3663 N   0  3  0  0  0  0
  -31.4809  -12.8016   19.1894 H   0  0  0  0  0  0
  -30.4660  -11.6911   20.0713 H   0  0  0  0  0  0
  -29.8751  -11.6844   17.6292 H   0  0  0  0  0  0
  -29.6196  -13.4051   17.6557 H   0  0  0  0  0  0
  -27.9738  -11.2494   19.0022 H   0  0  0  0  0  0
  -27.4099  -12.3851   17.8108 H   0  0  0  0  0  0
  -27.5539  -14.2127   19.3408 H   0  0  0  0  0  0
  -28.7614  -12.3763   21.4655 H   0  0  0  0  0  0
  -28.3406  -14.0578   21.6937 H   0  0  0  0  0  0
  -25.2736   -9.5610   22.4812 H   0  0  0  0  0  0
  -23.9955   -7.4566   22.7469 H   0  0  0  0  0  0
  -21.0834   -8.8759   19.8949 H   0  0  0  0  0  0
  -22.3701  -10.9655   19.6208 H   0  0  0  0  0  0
  -21.1971   -7.6125   23.9729 H   0  0  0  0  0  0
  -21.1486   -6.0498   25.9094 H   0  0  0  0  0  0
  -22.0598   -2.7598   23.2851 H   0  0  0  0  0  0
  -22.3958  -11.9920   22.4886 H   0  0  0  0  0  0
  -21.1028  -13.1336   22.2564 H   0  0  0  0  0  0
  -24.5769  -15.7543   20.4000 H   0  0  0  0  0  0
  -26.1498  -15.5653   19.8241 H   0  0  0  0  0  0
  -26.7283  -32.5283   23.0955 H   0  0  0  0  0  0
  -25.0144  -33.9582   25.0336 H   0  0  0  0  0  0
  -22.7445  -31.2820   21.3680 H   0  0  0  0  0  0
  -23.3762  -35.9549   23.3288 H   0  0  0  0  0  0
  -24.3560  -36.8858   22.2049 H   0  0  0  0  0  0
  -23.7230  -37.6414   23.6677 H   0  0  0  0  0  0
  -26.1553  -31.4681   20.6053 H   0  0  0  0  0  0
  -26.8704  -30.7664   22.0235 H   0  0  0  0  0  0
  -28.1522  -28.8353   21.1904 H   0  0  0  0  0  0
  -25.9606  -25.8050   19.0532 H   0  0  0  0  0  0
  -23.9839  -27.2498   19.0233 H   0  0  0  0  0  0
  -23.7963  -30.5320   19.3856 H   0  0  0  0  0  0
  -22.7881  -29.2000   19.8600 H   0  0  0  0  0  0
  -25.1318  -36.1817   25.0811 H   0  0  0  0  0  0
  -21.0017  -28.3292   24.1364 H   0  0  0  0  0  0
  -20.5679  -26.2325   23.3679 H   0  0  0  0  0  0
  -21.6685  -26.7362   22.1265 H   0  0  0  0  0  0
  -19.6927  -25.6216   21.1334 H   0  0  0  0  0  0
  -19.6695  -27.3118   20.6764 H   0  0  0  0  0  0
  -17.4208  -26.6549   21.4147 H   0  0  0  0  0  0
  -18.0422  -26.0081   22.9172 H   0  0  0  0  0  0
  -19.7963  -30.7311   24.2202 H   0  0  0  0  0  0
  -17.5036  -31.6245   24.5200 H   0  0  0  0  0  0
  -15.5373  -30.2943   23.7714 H   0  0  0  0  0  0
  -15.8715  -28.0762   22.7113 H   0  0  0  0  0  0
  -24.5933  -30.7036   25.7692 H   0  0  0  0  0  0
  -24.8881  -32.2911   26.4713 H   0  0  0  0  0  0
  -25.8026  -30.8965   27.0193 H   0  0  0  0  0  0
  -26.3023  -29.6628   24.1292 H   0  0  0  0  0  0
  -27.4056  -29.7261   25.4829 H   0  0  0  0  0  0
  -27.8920  -30.4161   23.9548 H   0  0  0  0  0  0
  -27.2672  -33.3642   26.1966 H   0  0  0  0  0  0
  -28.3933  -32.6814   25.0314 H   0  0  0  0  0  0
  -28.0692  -31.8466   26.5430 H   0  0  0  0  0  0
  -28.2599  -38.0062   24.7543 H   0  0  0  0  0  0
  -28.1073  -36.2598   24.6286 H   0  0  0  0  0  0
  -27.2289  -37.1399   25.8872 H   0  0  0  0  0  0
  -20.9492  -29.8611   21.6687 H   0  0  0  0  0  0
  -26.0129  -38.2807   24.1442 H   0  0  0  0  0  0
  -27.7025  -20.2000   22.1061 H   0  0  0  0  0  0
  -25.5924  -20.5375   21.0871 H   0  0  0  0  0  0
  -24.6053  -19.8196   19.8296 H   0  0  0  0  0  0
  -26.3017  -19.4589   19.8703 H   0  0  0  0  0  0
  -22.9862  -18.8631   21.3404 H   0  0  0  0  0  0
  -23.7904  -19.4837   22.7766 H   0  0  0  0  0  0
  -23.4272  -17.7656   22.6346 H   0  0  0  0  0  0
  -30.2198  -22.0947   19.5532 H   0  0  0  0  0  0
  -30.0470  -22.2745   21.2503 H   0  0  0  0  0  0
  -27.4337  -22.8213   20.5413 H   0  0  0  0  0  0
  -28.1428  -23.2829   19.0575 H   0  0  0  0  0  0
  -26.3647  -18.8527   23.1507 H   0  0  0  0  0  0
  -25.7502  -17.2566   23.0904 H   0  0  0  0  0  0
  -27.3883  -16.5473   21.3695 H   0  0  0  0  0  0
  -28.1127  -17.0612   22.8610 H   0  0  0  0  0  0
  -30.5460  -15.6428   17.8969 H   0  0  0  0  0  0
  -31.0947  -17.2287   18.3039 H   0  0  0  0  0  0
  -29.3634  -24.8524   21.2633 H   0  0  0  0  0  0
  -27.6814  -24.8388   21.5508 H   0  0  0  0  0  0
  -28.6920  -16.0557   19.6996 H   0  0  0  0  0  0
  -24.9832  -17.5790   20.7304 H   0  0  0  0  0  0
  -30.7007  -19.3316   19.3722 H   0  0  0  0  0  0
  -29.6472  -17.2744   16.4748 H   0  0  0  0  0  0
  -28.8154  -18.0057   17.6517 H   0  0  0  0  0  0
  -28.4545  -16.4741   17.2075 H   0  0  0  0  0  0
  1 25  1  0  0  0
  1 30  2  0  0  0
  1 82  1  0  0  0
  2  3  1  0  0  0
  2 25  1  0  0  0
  2 87  1  0  0  0
  2 88  1  0  0  0
  3  4  1  0  0  0
  3 89  1  0  0  0
  3 90  1  0  0  0
  4  5  1  0  0  0
  4 91  1  0  0  0
  4 92  1  0  0  0
  5  6  1  0  0  0
  5 26  1  0  0  0
  5 93  1  0  0  0
  6 25  1  0  0  0
  6 94  1  0  0  0
  6 95  1  0  0  0
  7  8  2  0  0  0
  7 26  1  0  0  0
  7 29  1  0  0  0
  8  9  1  0  0  0
  8 22  1  0  0  0
  9 10  1  0  0  0
  9 27  2  0  0  0
 10 11  2  0  0  0
 10 15  1  0  0  0
 11 12  1  0  0  0
 11 96  1  0  0  0
 12 13  2  0  0  0
 12 97  1  0  0  0
 13 14  1  0  0  0
 13 31  1  0  0  0
 14 15  2  0  0  0
 14 98  1  0  0  0
 15 99  1  0  0  0
 16 17  2  0  0  0
 16 21  1  0  0  0
 16 31  1  0  0  0
 17 18  1  0  0  0
 17100  1  0  0  0
 18 19  2  0  0  0
 18101  1  0  0  0
 19 20  1  0  0  0
 19 24  1  0  0  0
 20 21  2  0  0  0
 20102  1  0  0  0
 21 23  1  0  0  0
 22 28  1  0  0  0
 22 32  2  0  0  0
 26 27  1  0  0  0
 28103  1  0  0  0
 28104  1  0  0  0
 29105  1  0  0  0
 29106  1  0  0  0
 33 34  1  0  0  0
 33 66  1  0  0  0
 33 70  2  0  0  0
 34 36  1  0  0  0
 34 59  1  0  0  0
 34107  1  0  0  0
 35 44  2  0  0  0
 35 45  1  0  0  0
 35 68  1  0  0  0
 36 56  1  0  0  0
 36108  1  0  0  0
 37 39  1  0  0  0
 37 47  1  0  0  0
 37 66  1  0  0  0
 37109  1  0  0  0
 38 43  2  0  0  0
 38 46  1  0  0  0
 38 47  1  0  0  0
 39 64  1  0  0  0
 39 67  2  0  0  0
 40 52  1  0  0  0
 40 53  2  0  0  0
 40 58  1  0  0  0
 41110  1  0  0  0
 41111  1  0  0  0
 41112  1  0  0  0
 41 48  1  0  0  0
 42 43  1  0  0  0
 42 66  1  0  0  0
 42113  1  0  0  0
 42114  1  0  0  0
 43 44  1  0  0  0
 44115  1  0  0  0
 45 46  2  0  0  0
 45116  1  0  0  0
 46117  1  0  0  0
 47118  1  0  0  0
 47119  1  0  0  0
 48 56  1  0  0  0
 48 65  1  0  0  0
 48120  1  0  0  0
 49 50  1  0  0  0
 49 53  1  0  0  0
 49 64  1  0  0  0
 49121  1  0  0  0
 50 51  1  0  0  0
 50122  1  0  0  0
 50123  1  0  0  0
 51 52  1  0  0  0
 51124  1  0  0  0
 51125  1  0  0  0
 52126  1  0  0  0
 52127  1  0  0  0
 53 54  1  0  0  0
 54 55  2  0  0  0
 54128  1  0  0  0
 55 57  1  0  0  0
 55129  1  0  0  0
 56 69  2  0  0  0
 57 58  2  0  0  0
 57130  1  0  0  0
 58131  1  0  0  0
 59 60  1  0  0  0
 59 61  1  0  0  0
 59 62  1  0  0  0
 60132  1  0  0  0
 60133  1  0  0  0
 60134  1  0  0  0
 61135  1  0  0  0
 61136  1  0  0  0
 61137  1  0  0  0
 62138  1  0  0  0
 62139  1  0  0  0
 62140  1  0  0  0
 63 65  1  0  0  0
 63141  1  0  0  0
 63142  1  0  0  0
 63143  1  0  0  0
 64144  1  0  0  0
 65145  1  0  0  0
 68 81  1  0  0  0
 71 72  2  0  0  0
 71 84  1  0  0  0
 71146  1  0  0  0
 72 76  1  0  0  0
 72 85  1  0  0  0
 73 82  1  0  0  0
 73 84  1  0  0  0
 73 85  2  0  0  0
 74147  1  0  0  0
 74148  1  0  0  0
 74149  1  0  0  0
 74 83  1  0  0  0
 75 83  1  0  0  0
 75150  1  0  0  0
 75151  1  0  0  0
 75152  1  0  0  0
 76 77  1  0  0  0
 76153  1  0  0  0
 76154  1  0  0  0
 77 81  1  0  0  0
 77155  1  0  0  0
 77156  1  0  0  0
 78 79  1  0  0  0
 78 83  1  0  0  0
 78157  1  0  0  0
 78158  1  0  0  0
 79 84  1  0  0  0
 79159  1  0  0  0
 79160  1  0  0  0
 80 86  1  0  0  0
 80161  1  0  0  0
 80162  1  0  0  0
 80 82  1  0  0  0
 81163  1  0  0  0
 81164  1  0  0  0
 82165  1  0  0  0
 83166  1  0  0  0
 85167  1  0  0  0
 86168  1  0  0  0
 86169  1  0  0  0
 86170  1  0  0  0
M  CHG  2  85   1  86   1
M  ISO  4   1 100  68 101  81 101  82 100
M  END
> <chiral flag>
0

> <version>
0

> <s_m_source_file>
/data/baiqing/PycharmProjects/Reinvent-master-3.2/result/LINK_invent/BTK/process_docking_weight1_custom_sum_contain_oxygen_bond_distance_aromatic_linkinvent_7_9_3/rearranged_h_0058.sdf

> <i_m_source_file_index>
51

> <r_mmod_Potential_Energy-OPLS-2005>
458.620849609375

> <r_mmod_Stretch_Energy-OPLS-2005>
298.455047607422

> <r_mmod_Bend_Energy-OPLS-2005>
347.343414306641

> <r_mmod_Torsional_Energy-OPLS-2005>
292.802551269531

> <r_mmod_Improper_Torsional_Energy-OPLS-2005>
22.4389572143555

> <r_mmod_Van_der_Waal_Energy-OPLS-2005>
100.39289855957

> <r_mmod_Electrostatic_Energy-OPLS-2005>
185.14826965332

> <r_mmod_Solvation_Energy-OPLS-2005>
-1008.54840087891

> <b_mmod_Minimization_Converged-OPLS-2005>
0

> <r_mmod_RMS_Derivative-OPLS-2005>
2.92096495628357

$$$$
51
                    3D
 Structure written by MMmdl.
156164  0  0  1  0            999 V2000
  -30.6742  -14.7152   20.5040 C   0  0  0  0  0  0
  -30.4321  -12.4435   19.4723 C   0  0  0  0  0  0
  -29.5111  -12.5211   18.2352 C   0  0  0  0  0  0
  -28.0368  -12.3561   18.6480 C   0  0  0  0  0  0
  -27.6520  -13.2413   19.8633 C   0  0  2  0  0  0
  -28.6993  -13.1514   20.9954 C   0  0  0  0  0  0
  -25.2534  -13.8237   20.5752 C   0  0  0  0  0  0
  -24.1834  -13.0477   20.9206 C   0  0  0  0  0  0
  -24.6440  -11.6942   20.8756 C   0  0  0  0  0  0
  -23.9130  -10.4302   21.0401 C   0  0  0  0  0  0
  -24.3667   -9.4203   21.9175 C   0  0  0  0  0  0
  -23.6317   -8.2249   22.0751 C   0  0  0  0  0  0
  -22.4291   -8.0299   21.3547 C   0  0  0  0  0  0
  -21.9952   -9.0284   20.4647 C   0  0  0  0  0  0
  -22.7303  -10.2147   20.3052 C   0  0  0  0  0  0
  -21.6854   -6.0751   22.5264 C   0  0  0  0  0  0
  -21.4010   -6.5646   23.8204 C   0  0  0  0  0  0
  -21.3662   -5.6802   24.9167 C   0  0  0  0  0  0
  -21.6050   -4.3065   24.7220 C   0  0  0  0  0  0
  -21.8816   -3.8159   23.4339 C   0  0  0  0  0  0
  -21.9189   -4.6973   22.3394 C   0  0  0  0  0  0
  -22.7829  -13.5217   21.1867 C   0  0  0  0  0  0
  -22.1650   -4.2156   21.0973 F   0  0  0  0  0  0
  -21.5643   -3.4546   25.7735 F   0  0  0  0  0  0
  -30.0077  -13.5056   20.4213 N   0  0  0  0  0  0
  -26.3007  -12.9486   20.3368 N   0  0  0  0  0  0
  -25.9381  -11.6610   20.5795 N   0  0  0  0  0  0
  -22.0492  -12.8194   22.0414 N   0  0  0  0  0  0
  -25.4218  -15.1979   20.4236 N   0  0  0  0  0  0
  -31.8049  -14.8088   20.0197 O   0  0  0  0  0  0
  -21.6647   -6.8899   21.4234 O   0  0  0  0  0  0
  -22.3495  -14.5521   20.6703 O   0  0  0  0  0  0
  -24.6286  -31.8525   23.1923 C   0  0  0  0  0  0
  -25.9131  -32.4716   23.8261 C   0  0  1  0  0  0
  -27.2492  -27.2660   20.1018 C   0  0  0  0  0  0
  -25.5933  -33.8518   24.2143 N   0  0  0  0  0  0
  -23.4255  -30.4601   21.5447 C   0  0  2  0  0  0
  -24.8786  -28.9013   20.1201 C   0  0  0  0  0  0
  -22.7514  -29.4494   22.5021 C   0  0  0  0  0  0
  -18.0274  -28.1350   22.8471 C   0  0  0  0  0  0
  -24.1508  -36.7274   23.2610 C   0  0  0  0  0  0
  -25.9694  -30.7592   21.3748 C   0  0  0  0  0  0
  -26.0494  -29.3804   20.7185 C   0  0  0  0  0  0
  -27.2314  -28.5730   20.7003 C   0  0  0  0  0  0
  -26.0487  -26.8463   19.4849 C   0  0  0  0  0  0
  -24.8809  -27.6386   19.5028 C   0  0  0  0  0  0
  -23.6455  -29.7846   20.1657 C   0  0  0  0  0  0
  -25.4142  -36.3006   24.0249 C   0  0  1  0  0  0
  -20.5867  -28.3608   23.1354 C   0  0  2  0  0  0
  -20.6777  -26.9349   22.5429 C   0  0  0  0  0  0
  -19.5767  -26.6355   21.5209 C   0  0  0  0  0  0
  -18.1932  -26.7894   22.1608 C   0  0  0  0  0  0
  -19.1524  -28.8812   23.2872 C   0  0  0  0  0  0
  -18.9443  -30.1436   23.8847 C   0  0  0  0  0  0
  -17.6443  -30.6563   24.0522 C   0  0  0  0  0  0
  -25.9097  -34.9397   23.4993 C   0  0  0  0  0  0
  -16.5330  -29.9048   23.6324 C   0  0  0  0  0  0
  -16.7257  -28.6465   23.0345 C   0  0  0  0  0  0
  -26.4493  -31.6579   25.0686 C   0  0  0  0  0  0
  -25.3685  -31.3771   26.1384 C   0  0  0  0  0  0
  -27.0307  -30.2968   24.6206 C   0  0  0  0  0  0
  -27.6028  -32.4364   25.7483 C   0  0  0  0  0  0
  -27.5580  -37.1771   24.8434 C   0  0  0  0  0  0
  -21.4220  -29.2937   22.3782 N   0  0  0  0  0  0
  -26.4282  -37.3738   23.9396 N   0  0  0  0  0  0
  -24.6923  -31.0451   22.0924 N   0  0  0  0  0  0
  -23.4218  -28.8077   23.3144 O   0  0  0  0  0  0
  -28.3941  -26.4340   20.1663 O   0  0  0  0  0  0
  -26.5701  -34.8891   22.4590 O   0  0  0  0  0  0
  -23.5445  -32.1376   23.7224 O   0  0  0  0  0  0
  -29.0487  -20.8983   20.4808 C   0  0  0  0  0  0
  -29.4906  -18.6071   20.6702 C   0  0  0  0  0  0
  -28.0363  -19.6421   22.0371 C   0  0  0  0  0  0
  -29.8355  -15.9263   22.3992 C   0  0  0  0  0  0
  -29.0828  -22.3002   19.7120 C   0  0  0  0  0  0
  -30.2288  -17.2371   20.2577 C   0  0  0  0  0  0
  -28.7389  -23.7167   20.4422 C   0  0  0  0  0  0
  -28.5347  -25.0642   19.5596 C   0  0  0  0  0  0
  -27.0066  -19.5012   23.1734 C   0  0  0  0  0  0
  -29.7265  -19.7949   20.0266 N   0  0  0  0  0  0
  -28.1830  -20.8483   21.4778 N   0  0  0  0  0  0
  -28.6280  -18.5082   21.6603 N   0  0  0  0  0  0
  -30.0191  -15.8630   20.9409 N   0  0  0  0  0  0
  -26.7750  -20.6626   23.7923 F   0  0  0  0  0  0
  -25.8546  -19.0509   22.6696 F   0  0  0  0  0  0
  -27.4313  -18.6245   24.0901 F   0  0  0  0  0  0
  -31.4737  -12.5428   19.1623 H   0  0  0  0  0  0
  -30.3664  -11.4602   19.9421 H   0  0  0  0  0  0
  -29.7855  -11.7530   17.5099 H   0  0  0  0  0  0
  -29.6438  -13.4808   17.7318 H   0  0  0  0  0  0
  -27.8767  -11.3041   18.8893 H   0  0  0  0  0  0
  -27.3868  -12.5830   17.8027 H   0  0  0  0  0  0
  -27.6565  -14.2716   19.5040 H   0  0  0  0  0  0
  -28.7284  -12.1479   21.4204 H   0  0  0  0  0  0
  -28.4195  -13.8081   21.8173 H   0  0  0  0  0  0
  -25.2811   -9.5655   22.4762 H   0  0  0  0  0  0
  -24.0012   -7.4634   22.7466 H   0  0  0  0  0  0
  -21.0890   -8.8838   19.8944 H   0  0  0  0  0  0
  -22.3785  -10.9708   19.6174 H   0  0  0  0  0  0
  -21.1987   -7.6149   23.9708 H   0  0  0  0  0  0
  -21.1495   -6.0530   25.9074 H   0  0  0  0  0  0
  -22.0595   -2.7618   23.2841 H   0  0  0  0  0  0
  -22.4149  -11.9871   22.4813 H   0  0  0  0  0  0
  -21.1090  -13.1167   22.2630 H   0  0  0  0  0  0
  -24.6634  -15.8560   20.5631 H   0  0  0  0  0  0
  -26.2923  -15.6445   20.1653 H   0  0  0  0  0  0
  -26.7191  -32.5346   23.0997 H   0  0  0  0  0  0
  -24.9987  -33.9675   25.0211 H   0  0  0  0  0  0
  -22.7131  -31.2724   21.3936 H   0  0  0  0  0  0
  -23.3740  -35.9636   23.3254 H   0  0  0  0  0  0
  -24.3552  -36.8975   22.2027 H   0  0  0  0  0  0
  -23.7340  -37.6470   23.6728 H   0  0  0  0  0  0
  -26.1102  -31.5219   20.6083 H   0  0  0  0  0  0
  -26.8407  -30.8060   22.0141 H   0  0  0  0  0  0
  -28.1363  -28.9353   21.1688 H   0  0  0  0  0  0
  -25.9838  -25.8861   18.9969 H   0  0  0  0  0  0
  -23.9786  -27.2617   19.0430 H   0  0  0  0  0  0
  -23.7695  -30.5571   19.4059 H   0  0  0  0  0  0
  -22.7681  -29.2129   19.8583 H   0  0  0  0  0  0
  -25.1346  -36.1759   25.0730 H   0  0  0  0  0  0
  -20.9848  -28.3113   24.1522 H   0  0  0  0  0  0
  -20.5706  -26.2163   23.3578 H   0  0  0  0  0  0
  -21.6650  -26.7448   22.1193 H   0  0  0  0  0  0
  -19.6936  -25.6259   21.1264 H   0  0  0  0  0  0
  -19.6740  -27.3146   20.6722 H   0  0  0  0  0  0
  -17.4206  -26.6596   21.4010 H   0  0  0  0  0  0
  -18.0351  -26.0033   22.9006 H   0  0  0  0  0  0
  -19.7911  -30.7273   24.2182 H   0  0  0  0  0  0
  -17.4989  -31.6248   24.5120 H   0  0  0  0  0  0
  -15.5324  -30.2924   23.7713 H   0  0  0  0  0  0
  -15.8647  -28.0787   22.7091 H   0  0  0  0  0  0
  -24.5872  -30.7103   25.7709 H   0  0  0  0  0  0
  -24.8856  -32.2960   26.4723 H   0  0  0  0  0  0
  -25.7953  -30.8999   27.0211 H   0  0  0  0  0  0
  -26.2853  -29.6765   24.1209 H   0  0  0  0  0  0
  -27.3901  -29.7192   25.4734 H   0  0  0  0  0  0
  -27.8790  -30.4167   23.9459 H   0  0  0  0  0  0
  -27.2583  -33.3682   26.1984 H   0  0  0  0  0  0
  -28.3883  -32.6921   25.0355 H   0  0  0  0  0  0
  -28.0642  -31.8553   26.5480 H   0  0  0  0  0  0
  -28.2518  -38.0140   24.7547 H   0  0  0  0  0  0
  -28.1157  -36.2666   24.6180 H   0  0  0  0  0  0
  -27.2296  -37.1313   25.8831 H   0  0  0  0  0  0
  -20.9438  -29.8575   21.6903 H   0  0  0  0  0  0
  -26.0101  -38.2761   24.1501 H   0  0  0  0  0  0
  -28.7833  -16.0781   22.6398 H   0  0  0  0  0  0
  -30.4099  -16.7500   22.8262 H   0  0  0  0  0  0
  -30.1600  -15.0234   22.9236 H   0  0  0  0  0  0
  -28.4146  -22.1911   18.8593 H   0  0  0  0  0  0
  -30.0780  -22.4045   19.2804 H   0  0  0  0  0  0
  -31.3052  -17.4238   20.2597 H   0  0  0  0  0  0
  -29.9725  -17.0806   19.2107 H   0  0  0  0  0  0
  -29.5467  -23.9041   21.1488 H   0  0  0  0  0  0
  -27.8395  -23.5864   21.0450 H   0  0  0  0  0  0
  -27.7774  -24.8772   18.8047 H   0  0  0  0  0  0
  -29.4482  -25.1593   18.9685 H   0  0  0  0  0  0
  1 25  1  0  0  0
  1 30  2  0  0  0
  1 83  1  0  0  0
  2  3  1  0  0  0
  2 25  1  0  0  0
  2 87  1  0  0  0
  2 88  1  0  0  0
  3  4  1  0  0  0
  3 89  1  0  0  0
  3 90  1  0  0  0
  4  5  1  0  0  0
  4 91  1  0  0  0
  4 92  1  0  0  0
  5  6  1  0  0  0
  5 26  1  0  0  0
  5 93  1  0  0  0
  6 25  1  0  0  0
  6 94  1  0  0  0
  6 95  1  0  0  0
  7  8  2  0  0  0
  7 26  1  0  0  0
  7 29  1  0  0  0
  8  9  1  0  0  0
  8 22  1  0  0  0
  9 10  1  0  0  0
  9 27  2  0  0  0
 10 11  2  0  0  0
 10 15  1  0  0  0
 11 12  1  0  0  0
 11 96  1  0  0  0
 12 13  2  0  0  0
 12 97  1  0  0  0
 13 14  1  0  0  0
 13 31  1  0  0  0
 14 15  2  0  0  0
 14 98  1  0  0  0
 15 99  1  0  0  0
 16 17  2  0  0  0
 16 21  1  0  0  0
 16 31  1  0  0  0
 17 18  1  0  0  0
 17100  1  0  0  0
 18 19  2  0  0  0
 18101  1  0  0  0
 19 20  1  0  0  0
 19 24  1  0  0  0
 20 21  2  0  0  0
 20102  1  0  0  0
 21 23  1  0  0  0
 22 28  1  0  0  0
 22 32  2  0  0  0
 26 27  1  0  0  0
 28103  1  0  0  0
 28104  1  0  0  0
 29105  1  0  0  0
 29106  1  0  0  0
 33 34  1  0  0  0
 33 66  1  0  0  0
 33 70  2  0  0  0
 34 36  1  0  0  0
 34 59  1  0  0  0
 34107  1  0  0  0
 35 44  2  0  0  0
 35 45  1  0  0  0
 35 68  1  0  0  0
 36 56  1  0  0  0
 36108  1  0  0  0
 37 39  1  0  0  0
 37 47  1  0  0  0
 37 66  1  0  0  0
 37109  1  0  0  0
 38 43  2  0  0  0
 38 46  1  0  0  0
 38 47  1  0  0  0
 39 64  1  0  0  0
 39 67  2  0  0  0
 40 52  1  0  0  0
 40 53  2  0  0  0
 40 58  1  0  0  0
 41110  1  0  0  0
 41111  1  0  0  0
 41112  1  0  0  0
 41 48  1  0  0  0
 42 43  1  0  0  0
 42 66  1  0  0  0
 42113  1  0  0  0
 42114  1  0  0  0
 43 44  1  0  0  0
 44115  1  0  0  0
 45 46  2  0  0  0
 45116  1  0  0  0
 46117  1  0  0  0
 47118  1  0  0  0
 47119  1  0  0  0
 48 56  1  0  0  0
 48 65  1  0  0  0
 48120  1  0  0  0
 49 50  1  0  0  0
 49 53  1  0  0  0
 49 64  1  0  0  0
 49121  1  0  0  0
 50 51  1  0  0  0
 50122  1  0  0  0
 50123  1  0  0  0
 51 52  1  0  0  0
 51124  1  0  0  0
 51125  1  0  0  0
 52126  1  0  0  0
 52127  1  0  0  0
 53 54  1  0  0  0
 54 55  2  0  0  0
 54128  1  0  0  0
 55 57  1  0  0  0
 55129  1  0  0  0
 56 69  2  0  0  0
 57 58  2  0  0  0
 57130  1  0  0  0
 58131  1  0  0  0
 59 60  1  0  0  0
 59 61  1  0  0  0
 59 62  1  0  0  0
 60132  1  0  0  0
 60133  1  0  0  0
 60134  1  0  0  0
 61135  1  0  0  0
 61136  1  0  0  0
 61137  1  0  0  0
 62138  1  0  0  0
 62139  1  0  0  0
 62140  1  0  0  0
 63 65  1  0  0  0
 63141  1  0  0  0
 63142  1  0  0  0
 63143  1  0  0  0
 64144  1  0  0  0
 65145  1  0  0  0
 68 78  1  0  0  0
 71 75  1  0  0  0
 71 80  2  0  0  0
 71 81  1  0  0  0
 72 76  1  0  0  0
 72 80  1  0  0  0
 72 82  2  0  0  0
 73 79  1  0  0  0
 73 81  2  0  0  0
 73 82  1  0  0  0
 74 83  1  0  0  0
 74146  1  0  0  0
 74147  1  0  0  0
 74148  1  0  0  0
 75 77  1  0  0  0
 75149  1  0  0  0
 75150  1  0  0  0
 76 83  1  0  0  0
 76151  1  0  0  0
 76152  1  0  0  0
 77 78  1  0  0  0
 77153  1  0  0  0
 77154  1  0  0  0
 78155  1  0  0  0
 78156  1  0  0  0
 79 84  1  0  0  0
 79 85  1  0  0  0
 79 86  1  0  0  0
M  ISO  4   1 100  68 101  78 101  83 100
M  END
> <chiral flag>
0

> <version>
0

> <s_m_source_file>
/data/baiqing/PycharmProjects/Reinvent-master-3.2/result/LINK_invent/BTK/process_docking_weight1_custom_sum_contain_oxygen_bond_distance_aromatic_linkinvent_7_9_3/rearranged_h_0058.sdf

> <i_m_source_file_index>
52

> <r_mmod_Potential_Energy-OPLS-2005>
-316.013702392578

> <r_mmod_Stretch_Energy-OPLS-2005>
136.135787963867

> <r_mmod_Bend_Energy-OPLS-2005>
198.415054321289

> <r_mmod_Torsional_Energy-OPLS-2005>
257.479278564453

> <r_mmod_Improper_Torsional_Energy-OPLS-2005>
7.74735069274902

> <r_mmod_Van_der_Waal_Energy-OPLS-2005>
163.148773193359

> <r_mmod_Electrostatic_Energy-OPLS-2005>
-944.466613769531

> <r_mmod_Solvation_Energy-OPLS-2005>
-205.751495361328

> <b_mmod_Minimization_Converged-OPLS-2005>
0

> <r_mmod_RMS_Derivative-OPLS-2005>
4.49455738067627

$$$$
52
                    3D
 Structure written by MMmdl.
163171  0  0  1  0            999 V2000
  -30.7549  -14.4118   20.6889 C   0  0  0  0  0  0
  -30.4148  -12.3223   19.3992 C   0  0  0  0  0  0
  -29.4835  -12.5367   18.1909 C   0  0  0  0  0  0
  -28.0086  -12.3774   18.6051 C   0  0  0  0  0  0
  -27.6606  -13.2022   19.8714 C   0  0  2  0  0  0
  -28.6988  -12.9475   20.9856 C   0  0  0  0  0  0
  -25.2563  -13.8134   20.5629 C   0  0  0  0  0  0
  -24.1831  -13.0415   20.9181 C   0  0  0  0  0  0
  -24.6385  -11.6890   20.8728 C   0  0  0  0  0  0
  -23.9048  -10.4284   21.0396 C   0  0  0  0  0  0
  -24.3609   -9.4206   21.9177 C   0  0  0  0  0  0
  -23.6287   -8.2240   22.0750 C   0  0  0  0  0  0
  -22.4266   -8.0280   21.3540 C   0  0  0  0  0  0
  -21.9901   -9.0244   20.4642 C   0  0  0  0  0  0
  -22.7226  -10.2128   20.3046 C   0  0  0  0  0  0
  -21.6853   -6.0739   22.5281 C   0  0  0  0  0  0
  -21.4009   -6.5635   23.8218 C   0  0  0  0  0  0
  -21.3659   -5.6787   24.9177 C   0  0  0  0  0  0
  -21.6045   -4.3050   24.7229 C   0  0  0  0  0  0
  -21.8820   -3.8146   23.4347 C   0  0  0  0  0  0
  -21.9187   -4.6962   22.3405 C   0  0  0  0  0  0
  -22.7861  -13.5229   21.1850 C   0  0  0  0  0  0
  -22.1659   -4.2149   21.0982 F   0  0  0  0  0  0
  -21.5634   -3.4535   25.7741 F   0  0  0  0  0  0
  -30.0333  -13.2774   20.4551 N   0  0  0  0  0  0
  -26.3001  -12.9306   20.3310 N   0  0  0  0  0  0
  -25.9300  -11.6470   20.5721 N   0  0  0  0  0  0
  -22.0495  -12.8225   22.0411 N   0  0  0  0  0  0
  -25.4211  -15.1848   20.3952 N   0  0  0  0  0  0
  -31.7693  -14.6707   20.0310 O   0  0  0  0  0  0
  -21.6632   -6.8877   21.4243 O   0  0  0  0  0  0
  -22.3549  -14.5535   20.6703 O   0  0  0  0  0  0
  -24.6138  -31.8694   23.2066 C   0  0  0  0  0  0
  -25.9022  -32.4830   23.8382 C   0  0  1  0  0  0
  -27.2381  -27.4480   20.0815 C   0  0  0  0  0  0
  -25.5901  -33.8627   24.2333 N   0  0  0  0  0  0
  -23.4011  -30.4926   21.5476 C   0  0  2  0  0  0
  -24.8470  -28.9559   20.1166 C   0  0  0  0  0  0
  -22.7380  -29.4700   22.4976 C   0  0  0  0  0  0
  -18.0279  -28.1389   22.8479 C   0  0  0  0  0  0
  -24.1501  -36.7341   23.2643 C   0  0  0  0  0  0
  -25.9290  -30.8375   21.3586 C   0  0  0  0  0  0
  -26.0082  -29.4720   20.7068 C   0  0  0  0  0  0
  -27.2089  -28.7271   20.6805 C   0  0  0  0  0  0
  -26.0602  -26.9434   19.4889 C   0  0  0  0  0  0
  -24.8673  -27.6905   19.5061 C   0  0  0  0  0  0
  -23.6060  -29.8187   20.1655 C   0  0  0  0  0  0
  -25.4110  -36.3126   24.0347 C   0  0  1  0  0  0
  -20.5865  -28.3691   23.1305 C   0  0  2  0  0  0
  -20.6772  -26.9427   22.5413 C   0  0  0  0  0  0
  -19.5758  -26.6385   21.5210 C   0  0  0  0  0  0
  -18.1932  -26.7934   22.1615 C   0  0  0  0  0  0
  -19.1523  -28.8843   23.2903 C   0  0  0  0  0  0
  -18.9451  -30.1437   23.8939 C   0  0  0  0  0  0
  -17.6457  -30.6595   24.0568 C   0  0  0  0  0  0
  -25.9024  -34.9480   23.5133 C   0  0  0  0  0  0
  -16.5347  -29.9097   23.6338 C   0  0  0  0  0  0
  -16.7270  -28.6515   23.0357 C   0  0  0  0  0  0
  -26.4434  -31.6604   25.0698 C   0  0  0  0  0  0
  -25.3683  -31.3687   26.1435 C   0  0  0  0  0  0
  -27.0274  -30.3061   24.6045 C   0  0  0  0  0  0
  -27.6036  -32.4299   25.7439 C   0  0  0  0  0  0
  -27.5592  -37.1814   24.8458 C   0  0  0  0  0  0
  -21.4106  -29.3074   22.3708 N   0  0  0  0  0  0
  -26.4311  -37.3791   23.9397 N   0  0  0  0  0  0
  -24.6665  -31.0787   22.0977 N   0  0  0  0  0  0
  -23.4152  -28.8235   23.3010 O   0  0  0  0  0  0
  -28.4060  -26.7176   20.0677 O   0  0  0  0  0  0
  -26.5569  -34.8916   22.4680 O   0  0  0  0  0  0
  -23.5331  -32.1445   23.7454 O   0  0  0  0  0  0
  -30.7892  -17.9202   21.3768 C   0  0  0  0  0  0
  -28.8477  -17.1265   20.8374 C   0  0  0  0  0  0
  -29.9826  -18.9533   20.9490 C   0  0  0  0  0  0
  -31.5399  -15.4574   22.8571 C   0  0  0  0  0  0
  -26.9174  -22.6942   21.0445 C   0  0  0  0  0  0
  -30.2721  -20.4363   20.9954 C   0  0  0  0  0  0
  -30.0233  -21.2267   19.6879 C   0  0  0  0  0  0
  -28.5845  -21.7580   19.4978 C   0  0  0  0  0  0
  -28.3769  -24.2414   19.7459 C   0  0  0  0  0  0
  -28.3451  -25.4432   20.7283 C   0  0  0  0  0  0
  -30.3895  -15.4014   21.8311 C   0  0  1  0  0  0
  -28.7379  -18.4335   20.5972 N   0  0  0  0  0  0
  -30.0283  -16.7472   21.3519 N   0  0  0  0  0  0
  -28.2418  -22.8997   20.4022 N   0  3  1  0  0  0
  -31.4582  -12.4218   19.0951 H   0  0  0  0  0  0
  -30.3195  -11.3011   19.7718 H   0  0  0  0  0  0
  -29.7272  -11.8309   17.3953 H   0  0  0  0  0  0
  -29.6430  -13.5333   17.7756 H   0  0  0  0  0  0
  -27.8268  -11.3184   18.7917 H   0  0  0  0  0  0
  -27.3523  -12.6559   17.7799 H   0  0  0  0  0  0
  -27.7152  -14.2548   19.5938 H   0  0  0  0  0  0
  -28.6805  -11.8942   21.2698 H   0  0  0  0  0  0
  -28.4101  -13.4745   21.8891 H   0  0  0  0  0  0
  -25.2758   -9.5685   22.4750 H   0  0  0  0  0  0
  -23.9997   -7.4632   22.7470 H   0  0  0  0  0  0
  -21.0835   -8.8763   19.8951 H   0  0  0  0  0  0
  -22.3683  -10.9663   19.6154 H   0  0  0  0  0  0
  -21.2000   -7.6143   23.9722 H   0  0  0  0  0  0
  -21.1480   -6.0516   25.9081 H   0  0  0  0  0  0
  -22.0599   -2.7606   23.2848 H   0  0  0  0  0  0
  -22.4098  -11.9881   22.4797 H   0  0  0  0  0  0
  -21.1114  -13.1264   22.2613 H   0  0  0  0  0  0
  -24.6321  -15.8189   20.4661 H   0  0  0  0  0  0
  -26.2292  -15.6121   19.9629 H   0  0  0  0  0  0
  -26.7096  -32.5527   23.1159 H   0  0  0  0  0  0
  -25.0058  -33.9795   25.0481 H   0  0  0  0  0  0
  -22.6928  -31.3112   21.4027 H   0  0  0  0  0  0
  -23.3753  -35.9693   23.3312 H   0  0  0  0  0  0
  -24.3637  -36.8945   22.2068 H   0  0  0  0  0  0
  -23.7252  -37.6546   23.6646 H   0  0  0  0  0  0
  -26.0389  -31.6018   20.5882 H   0  0  0  0  0  0
  -26.8203  -30.8958   21.9727 H   0  0  0  0  0  0
  -28.1110  -29.1226   21.1249 H   0  0  0  0  0  0
  -26.0583  -25.9812   18.9998 H   0  0  0  0  0  0
  -23.9744  -27.2903   19.0464 H   0  0  0  0  0  0
  -23.7053  -30.5898   19.4007 H   0  0  0  0  0  0
  -22.7311  -29.2337   19.8758 H   0  0  0  0  0  0
  -25.1280  -36.2028   25.0844 H   0  0  0  0  0  0
  -20.9973  -28.3287   24.1425 H   0  0  0  0  0  0
  -20.5690  -26.2303   23.3596 H   0  0  0  0  0  0
  -21.6633  -26.7488   22.1194 H   0  0  0  0  0  0
  -19.6919  -25.6287   21.1262 H   0  0  0  0  0  0
  -19.6701  -27.3176   20.6718 H   0  0  0  0  0  0
  -17.4190  -26.6686   21.4028 H   0  0  0  0  0  0
  -18.0351  -26.0070   22.9008 H   0  0  0  0  0  0
  -19.7926  -30.7224   24.2359 H   0  0  0  0  0  0
  -17.5023  -31.6293   24.5140 H   0  0  0  0  0  0
  -15.5358  -30.3019   23.7623 H   0  0  0  0  0  0
  -15.8670  -28.0832   22.7082 H   0  0  0  0  0  0
  -24.5872  -30.7026   25.7745 H   0  0  0  0  0  0
  -24.8813  -32.2810   26.4880 H   0  0  0  0  0  0
  -25.8006  -30.8838   27.0197 H   0  0  0  0  0  0
  -26.2813  -29.6808   24.1118 H   0  0  0  0  0  0
  -27.4109  -29.7310   25.4483 H   0  0  0  0  0  0
  -27.8615  -30.4428   23.9164 H   0  0  0  0  0  0
  -27.2726  -33.3619   26.2038 H   0  0  0  0  0  0
  -28.3823  -32.6823   25.0228 H   0  0  0  0  0  0
  -28.0727  -31.8379   26.5310 H   0  0  0  0  0  0
  -28.2589  -38.0128   24.7523 H   0  0  0  0  0  0
  -28.1103  -36.2649   24.6275 H   0  0  0  0  0  0
  -27.2309  -37.1473   25.8861 H   0  0  0  0  0  0
  -20.9246  -29.8801   21.6946 H   0  0  0  0  0  0
  -26.0219  -38.2887   24.1358 H   0  0  0  0  0  0
  -31.8011  -17.9455   21.7582 H   0  0  0  0  0  0
  -28.0251  -16.4397   20.6979 H   0  0  0  0  0  0
  -31.3072  -16.1439   23.6712 H   0  0  0  0  0  0
  -32.4777  -15.7797   22.4037 H   0  0  0  0  0  0
  -31.7118  -14.4760   23.3001 H   0  0  0  0  0  0
  -26.8584  -21.7127   21.5172 H   0  0  0  0  0  0
  -26.1138  -22.7593   20.3110 H   0  0  0  0  0  0
  -26.7182  -23.4200   21.8319 H   0  0  0  0  0  0
  -31.3249  -20.5647   21.2506 H   0  0  0  0  0  0
  -29.7312  -20.8949   21.8226 H   0  0  0  0  0  0
  -30.3044  -20.6072   18.8359 H   0  0  0  0  0  0
  -30.7004  -22.0810   19.6559 H   0  0  0  0  0  0
  -27.8918  -20.9252   19.6343 H   0  0  0  0  0  0
  -28.4474  -22.0653   18.4599 H   0  0  0  0  0  0
  -29.3265  -24.2761   19.2105 H   0  0  0  0  0  0
  -27.6004  -24.3490   18.9896 H   0  0  0  0  0  0
  -29.2054  -25.3826   21.3946 H   0  0  0  0  0  0
  -27.4696  -25.4066   21.3764 H   0  0  0  0  0  0
  -29.5310  -15.0599   22.3968 H   0  0  0  0  0  0
  -28.9127  -22.8674   21.1558 H   0  0  0  0  0  0
  1 25  1  0  0  0
  1 30  2  0  0  0
  1 81  1  0  0  0
  2  3  1  0  0  0
  2 25  1  0  0  0
  2 85  1  0  0  0
  2 86  1  0  0  0
  3  4  1  0  0  0
  3 87  1  0  0  0
  3 88  1  0  0  0
  4  5  1  0  0  0
  4 89  1  0  0  0
  4 90  1  0  0  0
  5  6  1  0  0  0
  5 26  1  0  0  0
  5 91  1  0  0  0
  6 25  1  0  0  0
  6 92  1  0  0  0
  6 93  1  0  0  0
  7  8  2  0  0  0
  7 26  1  0  0  0
  7 29  1  0  0  0
  8  9  1  0  0  0
  8 22  1  0  0  0
  9 10  1  0  0  0
  9 27  2  0  0  0
 10 11  2  0  0  0
 10 15  1  0  0  0
 11 12  1  0  0  0
 11 94  1  0  0  0
 12 13  2  0  0  0
 12 95  1  0  0  0
 13 14  1  0  0  0
 13 31  1  0  0  0
 14 15  2  0  0  0
 14 96  1  0  0  0
 15 97  1  0  0  0
 16 17  2  0  0  0
 16 21  1  0  0  0
 16 31  1  0  0  0
 17 18  1  0  0  0
 17 98  1  0  0  0
 18 19  2  0  0  0
 18 99  1  0  0  0
 19 20  1  0  0  0
 19 24  1  0  0  0
 20 21  2  0  0  0
 20100  1  0  0  0
 21 23  1  0  0  0
 22 28  1  0  0  0
 22 32  2  0  0  0
 26 27  1  0  0  0
 28101  1  0  0  0
 28102  1  0  0  0
 29103  1  0  0  0
 29104  1  0  0  0
 33 34  1  0  0  0
 33 66  1  0  0  0
 33 70  2  0  0  0
 34 36  1  0  0  0
 34 59  1  0  0  0
 34105  1  0  0  0
 35 44  2  0  0  0
 35 45  1  0  0  0
 35 68  1  0  0  0
 36 56  1  0  0  0
 36106  1  0  0  0
 37 39  1  0  0  0
 37 47  1  0  0  0
 37 66  1  0  0  0
 37107  1  0  0  0
 38 43  2  0  0  0
 38 46  1  0  0  0
 38 47  1  0  0  0
 39 64  1  0  0  0
 39 67  2  0  0  0
 40 52  1  0  0  0
 40 53  2  0  0  0
 40 58  1  0  0  0
 41108  1  0  0  0
 41109  1  0  0  0
 41110  1  0  0  0
 41 48  1  0  0  0
 42 43  1  0  0  0
 42 66  1  0  0  0
 42111  1  0  0  0
 42112  1  0  0  0
 43 44  1  0  0  0
 44113  1  0  0  0
 45 46  2  0  0  0
 45114  1  0  0  0
 46115  1  0  0  0
 47116  1  0  0  0
 47117  1  0  0  0
 48 56  1  0  0  0
 48 65  1  0  0  0
 48118  1  0  0  0
 49 50  1  0  0  0
 49 53  1  0  0  0
 49 64  1  0  0  0
 49119  1  0  0  0
 50 51  1  0  0  0
 50120  1  0  0  0
 50121  1  0  0  0
 51 52  1  0  0  0
 51122  1  0  0  0
 51123  1  0  0  0
 52124  1  0  0  0
 52125  1  0  0  0
 53 54  1  0  0  0
 54 55  2  0  0  0
 54126  1  0  0  0
 55 57  1  0  0  0
 55127  1  0  0  0
 56 69  2  0  0  0
 57 58  2  0  0  0
 57128  1  0  0  0
 58129  1  0  0  0
 59 60  1  0  0  0
 59 61  1  0  0  0
 59 62  1  0  0  0
 60130  1  0  0  0
 60131  1  0  0  0
 60132  1  0  0  0
 61133  1  0  0  0
 61134  1  0  0  0
 61135  1  0  0  0
 62136  1  0  0  0
 62137  1  0  0  0
 62138  1  0  0  0
 63 65  1  0  0  0
 63139  1  0  0  0
 63140  1  0  0  0
 63141  1  0  0  0
 64142  1  0  0  0
 65143  1  0  0  0
 68 80  1  0  0  0
 71 73  2  0  0  0
 71 83  1  0  0  0
 71144  1  0  0  0
 72 82  2  0  0  0
 72 83  1  0  0  0
 72145  1  0  0  0
 73 76  1  0  0  0
 73 82  1  0  0  0
 74146  1  0  0  0
 74147  1  0  0  0
 74148  1  0  0  0
 74 81  1  0  0  0
 75149  1  0  0  0
 75150  1  0  0  0
 75151  1  0  0  0
 75 84  1  0  0  0
 76 77  1  0  0  0
 76152  1  0  0  0
 76153  1  0  0  0
 77 78  1  0  0  0
 77154  1  0  0  0
 77155  1  0  0  0
 78 84  1  0  0  0
 78156  1  0  0  0
 78157  1  0  0  0
 79 80  1  0  0  0
 79 84  1  0  0  0
 79158  1  0  0  0
 79159  1  0  0  0
 80160  1  0  0  0
 80161  1  0  0  0
 81 83  1  0  0  0
 81162  1  0  0  0
 84163  1  0  0  0
M  CHG  1  84   1
M  ISO  4   1 100  68 101  80 101  81 100
M  END
> <chiral flag>
0

> <version>
0

> <s_m_source_file>
/data/baiqing/PycharmProjects/Reinvent-master-3.2/result/LINK_invent/BTK/process_docking_weight1_custom_sum_contain_oxygen_bond_distance_aromatic_linkinvent_7_9_3/rearranged_h_0058.sdf

> <i_m_source_file_index>
53

> <r_mmod_Potential_Energy-OPLS-2005>
-109.515953063965

> <r_mmod_Stretch_Energy-OPLS-2005>
38.3742790222168

> <r_mmod_Bend_Energy-OPLS-2005>
108.381538391113

> <r_mmod_Torsional_Energy-OPLS-2005>
234.665573120117

> <r_mmod_Improper_Torsional_Energy-OPLS-2005>
3.20774793624878

> <r_mmod_Van_der_Waal_Energy-OPLS-2005>
124.773078918457

> <r_mmod_Electrostatic_Energy-OPLS-2005>
-221.174926757812

> <r_mmod_Solvation_Energy-OPLS-2005>
-406.495483398438

> <b_mmod_Minimization_Converged-OPLS-2005>
0

> <r_mmod_RMS_Derivative-OPLS-2005>
2.1682722568512

$$$$
53
                    3D
 Structure written by MMmdl.
160168  0  0  1  0            999 V2000
  -30.6141  -14.6748   20.5467 C   0  0  0  0  0  0
  -30.4455  -12.4271   19.4498 C   0  0  0  0  0  0
  -29.5087  -12.5204   18.2245 C   0  0  0  0  0  0
  -28.0337  -12.3440   18.6392 C   0  0  0  0  0  0
  -27.6541  -13.2172   19.8642 C   0  0  2  0  0  0
  -28.7007  -13.0732   20.9906 C   0  0  0  0  0  0
  -25.2572  -13.8169   20.5692 C   0  0  0  0  0  0
  -24.1836  -13.0435   20.9188 C   0  0  0  0  0  0
  -24.6406  -11.6906   20.8741 C   0  0  0  0  0  0
  -23.9074  -10.4291   21.0409 C   0  0  0  0  0  0
  -24.3624   -9.4205   21.9187 C   0  0  0  0  0  0
  -23.6296   -8.2242   22.0756 C   0  0  0  0  0  0
  -22.4277   -8.0282   21.3546 C   0  0  0  0  0  0
  -21.9916   -9.0259   20.4649 C   0  0  0  0  0  0
  -22.7247  -10.2135   20.3059 C   0  0  0  0  0  0
  -21.6852   -6.0740   22.5281 C   0  0  0  0  0  0
  -21.4012   -6.5643   23.8215 C   0  0  0  0  0  0
  -21.3657   -5.6795   24.9176 C   0  0  0  0  0  0
  -21.6044   -4.3058   24.7225 C   0  0  0  0  0  0
  -21.8820   -3.8152   23.4346 C   0  0  0  0  0  0
  -21.9191   -4.6968   22.3403 C   0  0  0  0  0  0
  -22.7856  -13.5228   21.1853 C   0  0  0  0  0  0
  -22.1662   -4.2155   21.0981 F   0  0  0  0  0  0
  -21.5627   -3.4541   25.7737 F   0  0  0  0  0  0
  -30.0088  -13.4441   20.4304 N   0  0  0  0  0  0
  -26.3004  -12.9352   20.3334 N   0  0  0  0  0  0
  -25.9338  -11.6507   20.5764 N   0  0  0  0  0  0
  -22.0501  -12.8219   22.0409 N   0  0  0  0  0  0
  -25.4284  -15.1891   20.4116 N   0  0  0  0  0  0
  -31.7508  -14.8401   20.0907 O   0  0  0  0  0  0
  -21.6637   -6.8883   21.4244 O   0  0  0  0  0  0
  -22.3541  -14.5537   20.6703 O   0  0  0  0  0  0
  -24.6292  -31.8580   23.2022 C   0  0  0  0  0  0
  -25.9133  -32.4769   23.8350 C   0  0  1  0  0  0
  -27.2208  -27.2926   20.1129 C   0  0  0  0  0  0
  -25.5940  -33.8571   24.2271 N   0  0  0  0  0  0
  -23.4239  -30.4833   21.5457 C   0  0  2  0  0  0
  -24.8698  -28.9396   20.1091 C   0  0  0  0  0  0
  -22.7493  -29.4617   22.4926 C   0  0  0  0  0  0
  -18.0293  -28.1388   22.8478 C   0  0  0  0  0  0
  -24.1493  -36.7288   23.2637 C   0  0  0  0  0  0
  -25.9689  -30.7795   21.3799 C   0  0  0  0  0  0
  -26.0417  -29.4064   20.7183 C   0  0  0  0  0  0
  -27.2191  -28.5945   20.7120 C   0  0  0  0  0  0
  -26.0236  -26.8939   19.4707 C   0  0  0  0  0  0
  -24.8643  -27.6897   19.4767 C   0  0  0  0  0  0
  -23.6391  -29.8220   20.1601 C   0  0  0  0  0  0
  -25.4118  -36.3076   24.0325 C   0  0  1  0  0  0
  -20.5895  -28.3691   23.1276 C   0  0  2  0  0  0
  -20.6783  -26.9409   22.5413 C   0  0  0  0  0  0
  -19.5755  -26.6380   21.5216 C   0  0  0  0  0  0
  -18.1935  -26.7930   22.1623 C   0  0  0  0  0  0
  -19.1547  -28.8856   23.2870 C   0  0  0  0  0  0
  -18.9465  -30.1457   23.8885 C   0  0  0  0  0  0
  -17.6465  -30.6586   24.0559 C   0  0  0  0  0  0
  -25.9056  -34.9447   23.5097 C   0  0  0  0  0  0
  -16.5354  -29.9080   23.6338 C   0  0  0  0  0  0
  -16.7281  -28.6503   23.0348 C   0  0  0  0  0  0
  -26.4500  -31.6591   25.0737 C   0  0  0  0  0  0
  -25.3719  -31.3745   26.1456 C   0  0  0  0  0  0
  -27.0347  -30.3010   24.6223 C   0  0  0  0  0  0
  -27.6052  -32.4335   25.7511 C   0  0  0  0  0  0
  -27.5578  -37.1800   24.8461 C   0  0  0  0  0  0
  -21.4205  -29.3043   22.3670 N   0  0  0  0  0  0
  -26.4292  -37.3773   23.9404 N   0  0  0  0  0  0
  -24.6928  -31.0570   22.0991 N   0  0  0  0  0  0
  -23.4206  -28.8147   23.3007 O   0  0  0  0  0  0
  -28.3235  -26.4109   20.1752 O   0  0  0  0  0  0
  -26.5622  -34.8917   22.4661 O   0  0  0  0  0  0
  -23.5451  -32.1391   23.7340 O   0  0  0  0  0  0
  -29.5627  -18.5555   21.2366 C   0  0  0  0  0  0
  -30.5567  -17.7599   19.5020 C   0  0  0  0  0  0
  -29.8942  -19.6488   20.4282 C   0  0  0  0  0  0
  -30.1673  -15.9277   22.7194 C   0  0  0  0  0  0
  -27.3972  -21.8982   20.5632 C   0  0  0  0  0  0
  -29.8355  -21.2034   20.7026 C   0  0  0  0  0  0
  -29.1167  -23.7988   20.3203 C   0  0  0  0  0  0
  -28.0838  -24.9620   19.9025 C   0  0  0  0  0  0
  -29.8585  -15.9230   21.2085 C   0  0  1  0  0  0
  -28.7989  -22.2285   20.0056 C   0  0  2  0  0  0
  -28.8016  -21.9890   18.4676 C   0  0  0  0  0  0
  -30.5418  -19.0918   19.3169 N   0  0  0  0  0  0
  -30.0243  -17.3343   20.6613 N   0  0  0  0  0  0
  -27.9387  -22.7949   17.8520 F   0  0  0  0  0  0
  -30.0139  -22.2248   17.9649 F   0  0  0  0  0  0
  -28.4380  -20.7463   18.1560 F   0  0  0  0  0  0
  -31.4825  -12.5681   19.1409 H   0  0  0  0  0  0
  -30.4024  -11.4315   19.8938 H   0  0  0  0  0  0
  -29.7808  -11.7673   17.4841 H   0  0  0  0  0  0
  -29.6380  -13.4884   17.7379 H   0  0  0  0  0  0
  -27.8813  -11.2904   18.8772 H   0  0  0  0  0  0
  -27.3742  -12.5627   17.7985 H   0  0  0  0  0  0
  -27.6714  -14.2518   19.5219 H   0  0  0  0  0  0
  -28.7275  -12.0460   21.3570 H   0  0  0  0  0  0
  -28.4334  -13.6804   21.8553 H   0  0  0  0  0  0
  -25.2772   -9.5675   22.4760 H   0  0  0  0  0  0
  -24.0004   -7.4632   22.7476 H   0  0  0  0  0  0
  -21.0846   -8.8783   19.8954 H   0  0  0  0  0  0
  -22.3715  -10.9675   19.6167 H   0  0  0  0  0  0
  -21.2006   -7.6151   23.9720 H   0  0  0  0  0  0
  -21.1476   -6.0524   25.9078 H   0  0  0  0  0  0
  -22.0601   -2.7614   23.2844 H   0  0  0  0  0  0
  -22.4114  -11.9873   22.4784 H   0  0  0  0  0  0
  -21.1125  -13.1251   22.2629 H   0  0  0  0  0  0
  -24.6626  -15.8441   20.5258 H   0  0  0  0  0  0
  -26.2817  -15.6314   20.0950 H   0  0  0  0  0  0
  -26.7195  -32.5426   23.1088 H   0  0  0  0  0  0
  -25.0093  -33.9711   25.0420 H   0  0  0  0  0  0
  -22.7192  -31.3050   21.4037 H   0  0  0  0  0  0
  -23.3756  -35.9620   23.3305 H   0  0  0  0  0  0
  -24.3576  -36.8909   22.2048 H   0  0  0  0  0  0
  -23.7251  -37.6493   23.6659 H   0  0  0  0  0  0
  -26.1075  -31.5447   20.6147 H   0  0  0  0  0  0
  -26.8463  -30.8226   22.0139 H   0  0  0  0  0  0
  -28.1150  -28.9456   21.2048 H   0  0  0  0  0  0
  -25.9428  -25.9438   18.9644 H   0  0  0  0  0  0
  -23.9679  -27.3287   18.9915 H   0  0  0  0  0  0
  -23.7596  -30.6007   19.4059 H   0  0  0  0  0  0
  -22.7578  -29.2541   19.8566 H   0  0  0  0  0  0
  -25.1301  -36.1919   25.0818 H   0  0  0  0  0  0
  -20.9982  -28.3269   24.1398 H   0  0  0  0  0  0
  -20.5698  -26.2291   23.3610 H   0  0  0  0  0  0
  -21.6646  -26.7447   22.1189 H   0  0  0  0  0  0
  -19.6918  -25.6292   21.1242 H   0  0  0  0  0  0
  -19.6701  -27.3192   20.6746 H   0  0  0  0  0  0
  -17.4208  -26.6682   21.4021 H   0  0  0  0  0  0
  -18.0324  -26.0078   22.9022 H   0  0  0  0  0  0
  -19.7944  -30.7276   24.2246 H   0  0  0  0  0  0
  -17.5021  -31.6267   24.5158 H   0  0  0  0  0  0
  -15.5353  -30.2969   23.7681 H   0  0  0  0  0  0
  -15.8682  -28.0821   22.7058 H   0  0  0  0  0  0
  -24.5898  -30.7089   25.7787 H   0  0  0  0  0  0
  -24.8899  -32.2915   26.4861 H   0  0  0  0  0  0
  -25.8029  -30.8939   27.0247 H   0  0  0  0  0  0
  -26.2937  -29.6756   24.1233 H   0  0  0  0  0  0
  -27.4011  -29.7278   25.4749 H   0  0  0  0  0  0
  -27.8823  -30.4286   23.9484 H   0  0  0  0  0  0
  -27.2659  -33.3641   26.2077 H   0  0  0  0  0  0
  -28.3868  -32.6893   25.0343 H   0  0  0  0  0  0
  -28.0714  -31.8470   26.5437 H   0  0  0  0  0  0
  -28.2595  -38.0098   24.7511 H   0  0  0  0  0  0
  -28.1078  -36.2630   24.6289 H   0  0  0  0  0  0
  -27.2294  -37.1455   25.8865 H   0  0  0  0  0  0
  -20.9386  -29.8767   21.6877 H   0  0  0  0  0  0
  -26.0174  -38.2848   24.1408 H   0  0  0  0  0  0
  -29.0745  -18.5583   22.2021 H   0  0  0  0  0  0
  -30.9875  -17.0832   18.7772 H   0  0  0  0  0  0
  -29.4311  -16.5092   23.2741 H   0  0  0  0  0  0
  -31.1507  -16.3554   22.9178 H   0  0  0  0  0  0
  -30.1559  -14.9220   23.1415 H   0  0  0  0  0  0
  -27.3245  -22.1341   21.6250 H   0  0  0  0  0  0
  -27.1656  -20.8391   20.4468 H   0  0  0  0  0  0
  -26.6143  -22.4511   20.0448 H   0  0  0  0  0  0
  -30.8286  -21.5940   20.4807 H   0  0  0  0  0  0
  -29.7447  -21.3446   21.7796 H   0  0  0  0  0  0
  -29.2723  -23.8896   21.3953 H   0  0  0  0  0  0
  -30.0823  -24.0403   19.8759 H   0  0  0  0  0  0
  -27.1401  -24.6958   20.3788 H   0  0  0  0  0  0
  -27.9227  -24.9023   18.8288 H   0  0  0  0  0  0
  -28.7941  -15.7262   21.0973 H   0  0  0  0  0  0
  1 25  1  0  0  0
  1 30  2  0  0  0
  1 79  1  0  0  0
  2  3  1  0  0  0
  2 25  1  0  0  0
  2 87  1  0  0  0
  2 88  1  0  0  0
  3  4  1  0  0  0
  3 89  1  0  0  0
  3 90  1  0  0  0
  4  5  1  0  0  0
  4 91  1  0  0  0
  4 92  1  0  0  0
  5  6  1  0  0  0
  5 26  1  0  0  0
  5 93  1  0  0  0
  6 25  1  0  0  0
  6 94  1  0  0  0
  6 95  1  0  0  0
  7  8  2  0  0  0
  7 26  1  0  0  0
  7 29  1  0  0  0
  8  9  1  0  0  0
  8 22  1  0  0  0
  9 10  1  0  0  0
  9 27  2  0  0  0
 10 11  2  0  0  0
 10 15  1  0  0  0
 11 12  1  0  0  0
 11 96  1  0  0  0
 12 13  2  0  0  0
 12 97  1  0  0  0
 13 14  1  0  0  0
 13 31  1  0  0  0
 14 15  2  0  0  0
 14 98  1  0  0  0
 15 99  1  0  0  0
 16 17  2  0  0  0
 16 21  1  0  0  0
 16 31  1  0  0  0
 17 18  1  0  0  0
 17100  1  0  0  0
 18 19  2  0  0  0
 18101  1  0  0  0
 19 20  1  0  0  0
 19 24  1  0  0  0
 20 21  2  0  0  0
 20102  1  0  0  0
 21 23  1  0  0  0
 22 28  1  0  0  0
 22 32  2  0  0  0
 26 27  1  0  0  0
 28103  1  0  0  0
 28104  1  0  0  0
 29105  1  0  0  0
 29106  1  0  0  0
 33 34  1  0  0  0
 33 66  1  0  0  0
 33 70  2  0  0  0
 34 36  1  0  0  0
 34 59  1  0  0  0
 34107  1  0  0  0
 35 44  2  0  0  0
 35 45  1  0  0  0
 35 68  1  0  0  0
 36 56  1  0  0  0
 36108  1  0  0  0
 37 39  1  0  0  0
 37 47  1  0  0  0
 37 66  1  0  0  0
 37109  1  0  0  0
 38 43  2  0  0  0
 38 46  1  0  0  0
 38 47  1  0  0  0
 39 64  1  0  0  0
 39 67  2  0  0  0
 40 52  1  0  0  0
 40 53  2  0  0  0
 40 58  1  0  0  0
 41110  1  0  0  0
 41111  1  0  0  0
 41112  1  0  0  0
 41 48  1  0  0  0
 42 43  1  0  0  0
 42 66  1  0  0  0
 42113  1  0  0  0
 42114  1  0  0  0
 43 44  1  0  0  0
 44115  1  0  0  0
 45 46  2  0  0  0
 45116  1  0  0  0
 46117  1  0  0  0
 47118  1  0  0  0
 47119  1  0  0  0
 48 56  1  0  0  0
 48 65  1  0  0  0
 48120  1  0  0  0
 49 50  1  0  0  0
 49 53  1  0  0  0
 49 64  1  0  0  0
 49121  1  0  0  0
 50 51  1  0  0  0
 50122  1  0  0  0
 50123  1  0  0  0
 51 52  1  0  0  0
 51124  1  0  0  0
 51125  1  0  0  0
 52126  1  0  0  0
 52127  1  0  0  0
 53 54  1  0  0  0
 54 55  2  0  0  0
 54128  1  0  0  0
 55 57  1  0  0  0
 55129  1  0  0  0
 56 69  2  0  0  0
 57 58  2  0  0  0
 57130  1  0  0  0
 58131  1  0  0  0
 59 60  1  0  0  0
 59 61  1  0  0  0
 59 62  1  0  0  0
 60132  1  0  0  0
 60133  1  0  0  0
 60134  1  0  0  0
 61135  1  0  0  0
 61136  1  0  0  0
 61137  1  0  0  0
 62138  1  0  0  0
 62139  1  0  0  0
 62140  1  0  0  0
 63 65  1  0  0  0
 63141  1  0  0  0
 63142  1  0  0  0
 63143  1  0  0  0
 64144  1  0  0  0
 65145  1  0  0  0
 68 78  1  0  0  0
 71 73  2  0  0  0
 71 83  1  0  0  0
 71146  1  0  0  0
 72 82  2  0  0  0
 72 83  1  0  0  0
 72147  1  0  0  0
 73 76  1  0  0  0
 73 82  1  0  0  0
 74148  1  0  0  0
 74149  1  0  0  0
 74150  1  0  0  0
 74 79  1  0  0  0
 75151  1  0  0  0
 75152  1  0  0  0
 75153  1  0  0  0
 75 80  1  0  0  0
 76 80  1  0  0  0
 76154  1  0  0  0
 76155  1  0  0  0
 77 78  1  0  0  0
 77 80  1  0  0  0
 77156  1  0  0  0
 77157  1  0  0  0
 78158  1  0  0  0
 78159  1  0  0  0
 79 83  1  0  0  0
 79160  1  0  0  0
 80 81  1  0  0  0
 81 84  1  0  0  0
 81 85  1  0  0  0
 81 86  1  0  0  0
M  ISO  4   1 100  68 101  78 101  79 100
M  END
> <chiral flag>
0

> <version>
0

> <s_m_source_file>
/data/baiqing/PycharmProjects/Reinvent-master-3.2/result/LINK_invent/BTK/process_docking_weight1_custom_sum_contain_oxygen_bond_distance_aromatic_linkinvent_7_9_3/rearranged_h_0058.sdf

> <i_m_source_file_index>
54

> <r_mmod_Potential_Energy-OPLS-2005>
146.028869628906

> <r_mmod_Stretch_Energy-OPLS-2005>
111.766395568848

> <r_mmod_Bend_Energy-OPLS-2005>
170.494583129883

> <r_mmod_Torsional_Energy-OPLS-2005>
206.893508911133

> <r_mmod_Improper_Torsional_Energy-OPLS-2005>
2.98931741714478

> <r_mmod_Van_der_Waal_Energy-OPLS-2005>
127.162261962891

> <r_mmod_Electrostatic_Energy-OPLS-2005>
-324.639984130859

> <r_mmod_Solvation_Energy-OPLS-2005>
-208.964706420898

> <b_mmod_Minimization_Converged-OPLS-2005>
0

> <r_mmod_RMS_Derivative-OPLS-2005>
0.677188813686371

$$$$
54
                    3D
 Structure written by MMmdl.
155163  0  0  1  0            999 V2000
  -30.6293  -14.7639   20.5203 C   0  0  0  0  0  0
  -30.4371  -12.4934   19.4592 C   0  0  0  0  0  0
  -29.5059  -12.5350   18.2263 C   0  0  0  0  0  0
  -28.0304  -12.3517   18.6374 C   0  0  0  0  0  0
  -27.6445  -13.2252   19.8601 C   0  0  2  0  0  0
  -28.6964  -13.0916   20.9809 C   0  0  0  0  0  0
  -25.2482  -13.8175   20.5667 C   0  0  0  0  0  0
  -24.1778  -13.0422   20.9214 C   0  0  0  0  0  0
  -24.6390  -11.6911   20.8779 C   0  0  0  0  0  0
  -23.9080  -10.4287   21.0439 C   0  0  0  0  0  0
  -24.3634   -9.4193   21.9206 C   0  0  0  0  0  0
  -23.6302   -8.2229   22.0762 C   0  0  0  0  0  0
  -22.4280   -8.0286   21.3551 C   0  0  0  0  0  0
  -21.9928   -9.0267   20.4652 C   0  0  0  0  0  0
  -22.7263  -10.2143   20.3072 C   0  0  0  0  0  0
  -21.6853   -6.0746   22.5284 C   0  0  0  0  0  0
  -21.4013   -6.5647   23.8222 C   0  0  0  0  0  0
  -21.3663   -5.6797   24.9182 C   0  0  0  0  0  0
  -21.6042   -4.3058   24.7231 C   0  0  0  0  0  0
  -21.8822   -3.8157   23.4351 C   0  0  0  0  0  0
  -21.9189   -4.6972   22.3407 C   0  0  0  0  0  0
  -22.7798  -13.5192   21.1880 C   0  0  0  0  0  0
  -22.1649   -4.2163   21.0980 F   0  0  0  0  0  0
  -21.5640   -3.4541   25.7743 F   0  0  0  0  0  0
  -29.9781  -13.5399   20.4118 N   0  0  0  0  0  0
  -26.2937  -12.9380   20.3328 N   0  0  0  0  0  0
  -25.9312  -11.6533   20.5794 N   0  0  0  0  0  0
  -22.0445  -12.8188   22.0448 N   0  0  0  0  0  0
  -25.4101  -15.1896   20.4013 N   0  0  0  0  0  0
  -31.8049  -14.8161   20.1405 O   0  0  0  0  0  0
  -21.6633   -6.8891   21.4243 O   0  0  0  0  0  0
  -22.3477  -14.5503   20.6739 O   0  0  0  0  0  0
  -24.6337  -31.8550   23.2015 C   0  0  0  0  0  0
  -25.9154  -32.4744   23.8357 C   0  0  1  0  0  0
  -27.2102  -27.2467   20.1243 C   0  0  0  0  0  0
  -25.5944  -33.8553   24.2270 N   0  0  0  0  0  0
  -23.4297  -30.4829   21.5457 C   0  0  2  0  0  0
  -24.8731  -28.9329   20.1114 C   0  0  0  0  0  0
  -22.7510  -29.4611   22.4909 C   0  0  0  0  0  0
  -18.0300  -28.1361   22.8494 C   0  0  0  0  0  0
  -24.1488  -36.7290   23.2641 C   0  0  0  0  0  0
  -25.9793  -30.7630   21.3840 C   0  0  0  0  0  0
  -26.0488  -29.3863   20.7228 C   0  0  0  0  0  0
  -27.2207  -28.5574   20.7181 C   0  0  0  0  0  0
  -26.0089  -26.8760   19.4743 C   0  0  0  0  0  0
  -24.8592  -27.6848   19.4776 C   0  0  0  0  0  0
  -23.6469  -29.8239   20.1602 C   0  0  0  0  0  0
  -25.4109  -36.3067   24.0323 C   0  0  1  0  0  0
  -20.5905  -28.3686   23.1258 C   0  0  2  0  0  0
  -20.6781  -26.9404   22.5399 C   0  0  0  0  0  0
  -19.5746  -26.6368   21.5211 C   0  0  0  0  0  0
  -18.1930  -26.7902   22.1631 C   0  0  0  0  0  0
  -19.1554  -28.8842   23.2867 C   0  0  0  0  0  0
  -18.9473  -30.1441   23.8881 C   0  0  0  0  0  0
  -17.6470  -30.6568   24.0557 C   0  0  0  0  0  0
  -25.9054  -34.9433   23.5096 C   0  0  0  0  0  0
  -16.5363  -29.9064   23.6326 C   0  0  0  0  0  0
  -16.7287  -28.6474   23.0359 C   0  0  0  0  0  0
  -26.4514  -31.6566   25.0744 C   0  0  0  0  0  0
  -25.3759  -31.3721   26.1486 C   0  0  0  0  0  0
  -27.0349  -30.2963   24.6248 C   0  0  0  0  0  0
  -27.6047  -32.4334   25.7515 C   0  0  0  0  0  0
  -27.5577  -37.1799   24.8466 C   0  0  0  0  0  0
  -21.4215  -29.3048   22.3647 N   0  0  0  0  0  0
  -26.4285  -37.3765   23.9413 N   0  0  0  0  0  0
  -24.7003  -31.0527   22.0985 N   0  0  0  0  0  0
  -23.4202  -28.8149   23.3009 O   0  0  0  0  0  0
  -28.2911  -26.3255   20.1671 O   0  0  0  0  0  0
  -26.5625  -34.8907   22.4664 O   0  0  0  0  0  0
  -23.5485  -32.1387   23.7299 O   0  0  0  0  0  0
  -29.7880  -18.6753   20.2257 C   0  0  0  0  0  0
  -29.0849  -20.7476   20.2439 C   0  0  0  0  0  0
  -28.3115  -20.7997   17.8329 C   0  0  0  0  0  0
  -28.8664  -16.0768   21.7599 C   0  0  0  0  0  0
  -30.5838  -17.3472   20.5408 C   0  0  0  0  0  0
  -28.4630  -22.1494   20.6459 C   0  0  0  0  0  0
  -29.0296  -23.6206   20.2475 C   0  0  0  0  0  0
  -27.9686  -24.8514   20.2871 C   0  0  0  0  0  0
  -29.6679  -19.8067   21.0438 N   0  0  0  0  0  0
  -29.3387  -18.9121   18.9927 N   0  0  0  0  0  0
  -28.9084  -20.2164   19.0198 N   0  0  0  0  0  0
  -29.9496  -15.9695   20.7779 N   0  0  0  0  0  0
  -31.4714  -12.6341   19.1431 H   0  0  0  0  0  0
  -30.4145  -11.5073   19.9261 H   0  0  0  0  0  0
  -29.7946  -11.7641   17.5109 H   0  0  0  0  0  0
  -29.6230  -13.4903   17.7100 H   0  0  0  0  0  0
  -27.8765  -11.2980   18.8761 H   0  0  0  0  0  0
  -27.3741  -12.5715   17.7950 H   0  0  0  0  0  0
  -27.6536  -14.2576   19.5114 H   0  0  0  0  0  0
  -28.7643  -12.0503   21.3021 H   0  0  0  0  0  0
  -28.4084  -13.6172   21.8846 H   0  0  0  0  0  0
  -25.2784   -9.5665   22.4773 H   0  0  0  0  0  0
  -24.0030   -7.4612   22.7463 H   0  0  0  0  0  0
  -21.0874   -8.8786   19.8942 H   0  0  0  0  0  0
  -22.3737  -10.9689   19.6183 H   0  0  0  0  0  0
  -21.1995   -7.6154   23.9733 H   0  0  0  0  0  0
  -21.1483   -6.0518   25.9084 H   0  0  0  0  0  0
  -22.0598   -2.7620   23.2842 H   0  0  0  0  0  0
  -22.4059  -11.9857   22.4849 H   0  0  0  0  0  0
  -21.1064  -13.1207   22.2661 H   0  0  0  0  0  0
  -24.6404  -15.8399   20.5177 H   0  0  0  0  0  0
  -26.2567  -15.6353   20.0718 H   0  0  0  0  0  0
  -26.7223  -32.5383   23.1106 H   0  0  0  0  0  0
  -25.0109  -33.9701   25.0424 H   0  0  0  0  0  0
  -22.7269  -31.3070   21.4041 H   0  0  0  0  0  0
  -23.3741  -35.9633   23.3290 H   0  0  0  0  0  0
  -24.3598  -36.8928   22.2066 H   0  0  0  0  0  0
  -23.7250  -37.6486   23.6680 H   0  0  0  0  0  0
  -26.1258  -31.5235   20.6165 H   0  0  0  0  0  0
  -26.8536  -30.8063   22.0211 H   0  0  0  0  0  0
  -28.1178  -28.9011   21.2132 H   0  0  0  0  0  0
  -25.9117  -25.9433   18.9442 H   0  0  0  0  0  0
  -23.9624  -27.3334   18.9859 H   0  0  0  0  0  0
  -23.7744  -30.6043   19.4094 H   0  0  0  0  0  0
  -22.7624  -29.2655   19.8506 H   0  0  0  0  0  0
  -25.1289  -36.1914   25.0814 H   0  0  0  0  0  0
  -21.0006  -28.3259   24.1373 H   0  0  0  0  0  0
  -20.5674  -26.2306   23.3609 H   0  0  0  0  0  0
  -21.6647  -26.7411   22.1197 H   0  0  0  0  0  0
  -19.6905  -25.6280   21.1235 H   0  0  0  0  0  0
  -19.6660  -27.3179   20.6739 H   0  0  0  0  0  0
  -17.4202  -26.6659   21.4031 H   0  0  0  0  0  0
  -18.0323  -26.0032   22.9016 H   0  0  0  0  0  0
  -19.7952  -30.7262   24.2231 H   0  0  0  0  0  0
  -17.5027  -31.6250   24.5158 H   0  0  0  0  0  0
  -15.5357  -30.2962   23.7645 H   0  0  0  0  0  0
  -15.8689  -28.0784   22.7079 H   0  0  0  0  0  0
  -24.5911  -30.7082   25.7847 H   0  0  0  0  0  0
  -24.8995  -32.2897   26.4945 H   0  0  0  0  0  0
  -25.8108  -30.8892   27.0248 H   0  0  0  0  0  0
  -26.2927  -29.6713   24.1267 H   0  0  0  0  0  0
  -27.3991  -29.7221   25.4780 H   0  0  0  0  0  0
  -27.8836  -30.4198   23.9516 H   0  0  0  0  0  0
  -27.2614  -33.3645   26.2047 H   0  0  0  0  0  0
  -28.3874  -32.6886   25.0357 H   0  0  0  0  0  0
  -28.0697  -31.8506   26.5483 H   0  0  0  0  0  0
  -28.2577  -38.0111   24.7515 H   0  0  0  0  0  0
  -28.1083  -36.2637   24.6276 H   0  0  0  0  0  0
  -27.2309  -37.1440   25.8874 H   0  0  0  0  0  0
  -20.9384  -29.8810   21.6894 H   0  0  0  0  0  0
  -26.0152  -38.2833   24.1409 H   0  0  0  0  0  0
  -27.2259  -20.8044   17.9280 H   0  0  0  0  0  0
  -28.5873  -20.2336   16.9430 H   0  0  0  0  0  0
  -28.6599  -21.8253   17.7101 H   0  0  0  0  0  0
  -29.1005  -15.5123   22.6623 H   0  0  0  0  0  0
  -27.9233  -15.7290   21.3478 H   0  0  0  0  0  0
  -28.6950  -17.1011   22.0919 H   0  0  0  0  0  0
  -31.2091  -17.5471   21.4117 H   0  0  0  0  0  0
  -31.2945  -17.2374   19.7208 H   0  0  0  0  0  0
  -28.3483  -22.1357   21.7299 H   0  0  0  0  0  0
  -27.4370  -22.1121   20.2813 H   0  0  0  0  0  0
  -29.4347  -23.5721   19.2365 H   0  0  0  0  0  0
  -29.8795  -23.8486   20.8918 H   0  0  0  0  0  0
  -27.3962  -24.7517   21.2115 H   0  0  0  0  0  0
  -27.2826  -24.5759   19.4912 H   0  0  0  0  0  0
  1 25  1  0  0  0
  1 30  2  0  0  0
  1 82  1  0  0  0
  2  3  1  0  0  0
  2 25  1  0  0  0
  2 83  1  0  0  0
  2 84  1  0  0  0
  3  4  1  0  0  0
  3 85  1  0  0  0
  3 86  1  0  0  0
  4  5  1  0  0  0
  4 87  1  0  0  0
  4 88  1  0  0  0
  5  6  1  0  0  0
  5 26  1  0  0  0
  5 89  1  0  0  0
  6 25  1  0  0  0
  6 90  1  0  0  0
  6 91  1  0  0  0
  7  8  2  0  0  0
  7 26  1  0  0  0
  7 29  1  0  0  0
  8  9  1  0  0  0
  8 22  1  0  0  0
  9 10  1  0  0  0
  9 27  2  0  0  0
 10 11  2  0  0  0
 10 15  1  0  0  0
 11 12  1  0  0  0
 11 92  1  0  0  0
 12 13  2  0  0  0
 12 93  1  0  0  0
 13 14  1  0  0  0
 13 31  1  0  0  0
 14 15  2  0  0  0
 14 94  1  0  0  0
 15 95  1  0  0  0
 16 17  2  0  0  0
 16 21  1  0  0  0
 16 31  1  0  0  0
 17 18  1  0  0  0
 17 96  1  0  0  0
 18 19  2  0  0  0
 18 97  1  0  0  0
 19 20  1  0  0  0
 19 24  1  0  0  0
 20 21  2  0  0  0
 20 98  1  0  0  0
 21 23  1  0  0  0
 22 28  1  0  0  0
 22 32  2  0  0  0
 26 27  1  0  0  0
 28 99  1  0  0  0
 28100  1  0  0  0
 29101  1  0  0  0
 29102  1  0  0  0
 33 34  1  0  0  0
 33 66  1  0  0  0
 33 70  2  0  0  0
 34 36  1  0  0  0
 34 59  1  0  0  0
 34103  1  0  0  0
 35 44  2  0  0  0
 35 45  1  0  0  0
 35 68  1  0  0  0
 36 56  1  0  0  0
 36104  1  0  0  0
 37 39  1  0  0  0
 37 47  1  0  0  0
 37 66  1  0  0  0
 37105  1  0  0  0
 38 43  2  0  0  0
 38 46  1  0  0  0
 38 47  1  0  0  0
 39 64  1  0  0  0
 39 67  2  0  0  0
 40 52  1  0  0  0
 40 53  2  0  0  0
 40 58  1  0  0  0
 41106  1  0  0  0
 41107  1  0  0  0
 41108  1  0  0  0
 41 48  1  0  0  0
 42 43  1  0  0  0
 42 66  1  0  0  0
 42109  1  0  0  0
 42110  1  0  0  0
 43 44  1  0  0  0
 44111  1  0  0  0
 45 46  2  0  0  0
 45112  1  0  0  0
 46113  1  0  0  0
 47114  1  0  0  0
 47115  1  0  0  0
 48 56  1  0  0  0
 48 65  1  0  0  0
 48116  1  0  0  0
 49 50  1  0  0  0
 49 53  1  0  0  0
 49 64  1  0  0  0
 49117  1  0  0  0
 50 51  1  0  0  0
 50118  1  0  0  0
 50119  1  0  0  0
 51 52  1  0  0  0
 51120  1  0  0  0
 51121  1  0  0  0
 52122  1  0  0  0
 52123  1  0  0  0
 53 54  1  0  0  0
 54 55  2  0  0  0
 54124  1  0  0  0
 55 57  1  0  0  0
 55125  1  0  0  0
 56 69  2  0  0  0
 57 58  2  0  0  0
 57126  1  0  0  0
 58127  1  0  0  0
 59 60  1  0  0  0
 59 61  1  0  0  0
 59 62  1  0  0  0
 60128  1  0  0  0
 60129  1  0  0  0
 60130  1  0  0  0
 61131  1  0  0  0
 61132  1  0  0  0
 61133  1  0  0  0
 62134  1  0  0  0
 62135  1  0  0  0
 62136  1  0  0  0
 63 65  1  0  0  0
 63137  1  0  0  0
 63138  1  0  0  0
 63139  1  0  0  0
 64140  1  0  0  0
 65141  1  0  0  0
 68 78  1  0  0  0
 71 75  1  0  0  0
 71 79  1  0  0  0
 71 80  2  0  0  0
 72 76  1  0  0  0
 72 79  2  0  0  0
 72 81  1  0  0  0
 73 81  1  0  0  0
 73142  1  0  0  0
 73143  1  0  0  0
 73144  1  0  0  0
 74 82  1  0  0  0
 74145  1  0  0  0
 74146  1  0  0  0
 74147  1  0  0  0
 75 82  1  0  0  0
 75148  1  0  0  0
 75149  1  0  0  0
 76 77  1  0  0  0
 76150  1  0  0  0
 76151  1  0  0  0
 77 78  1  0  0  0
 77152  1  0  0  0
 77153  1  0  0  0
 78154  1  0  0  0
 78155  1  0  0  0
 80 81  1  0  0  0
M  ISO  4   1 100  68 101  78 101  82 100
M  END
> <chiral flag>
0

> <version>
0

> <s_m_source_file>
/data/baiqing/PycharmProjects/Reinvent-master-3.2/result/LINK_invent/BTK/process_docking_weight1_custom_sum_contain_oxygen_bond_distance_aromatic_linkinvent_7_9_3/rearranged_h_0058.sdf

> <i_m_source_file_index>
55

> <r_mmod_Potential_Energy-OPLS-2005>
195.304626464844

> <r_mmod_Stretch_Energy-OPLS-2005>
134.582962036133

> <r_mmod_Bend_Energy-OPLS-2005>
207.763137817383

> <r_mmod_Torsional_Energy-OPLS-2005>
250.760848999023

> <r_mmod_Improper_Torsional_Energy-OPLS-2005>
9.67356777191162

> <r_mmod_Van_der_Waal_Energy-OPLS-2005>
131.922027587891

> <r_mmod_Electrostatic_Energy-OPLS-2005>
-404.222442626953

> <r_mmod_Solvation_Energy-OPLS-2005>
-223.600692749023

> <b_mmod_Minimization_Converged-OPLS-2005>
0

> <r_mmod_RMS_Derivative-OPLS-2005>
1.57905161380768

$$$$
55
                    3D
 Structure written by MMmdl.
169177  0  0  1  0            999 V2000
  -30.7195  -14.5597   20.5235 C   0  0  0  0  0  0
  -30.4182  -12.3596   19.4411 C   0  0  0  0  0  0
  -29.4946  -12.4848   18.2128 C   0  0  0  0  0  0
  -28.0151  -12.3528   18.6222 C   0  0  0  0  0  0
  -27.6464  -13.2268   19.8514 C   0  0  2  0  0  0
  -28.6923  -13.0887   20.9757 C   0  0  0  0  0  0
  -25.2531  -13.8217   20.5684 C   0  0  0  0  0  0
  -24.1820  -13.0462   20.9201 C   0  0  0  0  0  0
  -24.6394  -11.6936   20.8739 C   0  0  0  0  0  0
  -23.9070  -10.4305   21.0407 C   0  0  0  0  0  0
  -24.3631   -9.4222   21.9184 C   0  0  0  0  0  0
  -23.6310   -8.2252   22.0751 C   0  0  0  0  0  0
  -22.4293   -8.0280   21.3534 C   0  0  0  0  0  0
  -21.9923   -9.0263   20.4644 C   0  0  0  0  0  0
  -22.7248  -10.2145   20.3052 C   0  0  0  0  0  0
  -21.6868   -6.0741   22.5283 C   0  0  0  0  0  0
  -21.4031   -6.5646   23.8219 C   0  0  0  0  0  0
  -21.3648   -5.6789   24.9180 C   0  0  0  0  0  0
  -21.6034   -4.3051   24.7228 C   0  0  0  0  0  0
  -21.8824   -3.8153   23.4350 C   0  0  0  0  0  0
  -21.9214   -4.6969   22.3409 C   0  0  0  0  0  0
  -22.7840  -13.5241   21.1858 C   0  0  0  0  0  0
  -22.1671   -4.2155   21.0977 F   0  0  0  0  0  0
  -21.5613   -3.4530   25.7741 F   0  0  0  0  0  0
  -30.0042  -13.4014   20.3989 N   0  0  0  0  0  0
  -26.2954  -12.9419   20.3281 N   0  0  0  0  0  0
  -25.9329  -11.6560   20.5776 N   0  0  0  0  0  0
  -22.0463  -12.8246   22.0407 N   0  0  0  0  0  0
  -25.4230  -15.1939   20.4077 N   0  0  0  0  0  0
  -31.9262  -14.5552   20.2936 O   0  0  0  0  0  0
  -21.6653   -6.8883   21.4244 O   0  0  0  0  0  0
  -22.3522  -14.5525   20.6667 O   0  0  0  0  0  0
  -24.6201  -31.8632   23.2082 C   0  0  0  0  0  0
  -25.9091  -32.4781   23.8353 C   0  0  1  0  0  0
  -27.2200  -27.3847   20.0814 C   0  0  0  0  0  0
  -25.5946  -33.8581   24.2288 N   0  0  0  0  0  0
  -23.4077  -30.4923   21.5491 C   0  0  2  0  0  0
  -24.8458  -28.9540   20.1115 C   0  0  0  0  0  0
  -22.7418  -29.4653   22.4956 C   0  0  0  0  0  0
  -18.0282  -28.1385   22.8481 C   0  0  0  0  0  0
  -24.1494  -36.7296   23.2639 C   0  0  0  0  0  0
  -25.9431  -30.8113   21.3697 C   0  0  0  0  0  0
  -26.0115  -29.4461   20.7075 C   0  0  0  0  0  0
  -27.1980  -28.6682   20.6895 C   0  0  0  0  0  0
  -26.0194  -26.9089   19.5066 C   0  0  0  0  0  0
  -24.8460  -27.6847   19.5129 C   0  0  0  0  0  0
  -23.6137  -29.8301   20.1626 C   0  0  0  0  0  0
  -25.4126  -36.3089   24.0324 C   0  0  1  0  0  0
  -20.5870  -28.3675   23.1317 C   0  0  2  0  0  0
  -20.6778  -26.9407   22.5425 C   0  0  0  0  0  0
  -19.5762  -26.6392   21.5220 C   0  0  0  0  0  0
  -18.1930  -26.7936   22.1612 C   0  0  0  0  0  0
  -19.1524  -28.8846   23.2894 C   0  0  0  0  0  0
  -18.9450  -30.1451   23.8918 C   0  0  0  0  0  0
  -17.6453  -30.6593   24.0561 C   0  0  0  0  0  0
  -25.9053  -34.9455   23.5093 C   0  0  0  0  0  0
  -16.5344  -29.9093   23.6336 C   0  0  0  0  0  0
  -16.7268  -28.6506   23.0358 C   0  0  0  0  0  0
  -26.4504  -31.6593   25.0716 C   0  0  0  0  0  0
  -25.3765  -31.3729   26.1470 C   0  0  0  0  0  0
  -27.0353  -30.3025   24.6161 C   0  0  0  0  0  0
  -27.6064  -32.4331   25.7490 C   0  0  0  0  0  0
  -27.5573  -37.1808   24.8467 C   0  0  0  0  0  0
  -21.4144  -29.3044   22.3713 N   0  0  0  0  0  0
  -26.4300  -37.3782   23.9399 N   0  0  0  0  0  0
  -24.6751  -31.0702   22.1003 N   0  0  0  0  0  0
  -23.4178  -28.8177   23.2997 O   0  0  0  0  0  0
  -28.3921  -26.6362   20.1099 O   0  0  0  0  0  0
  -26.5602  -34.8914   22.4650 O   0  0  0  0  0  0
  -23.5382  -32.1418   23.7463 O   0  0  0  0  0  0
  -27.8643  -20.4250   19.9989 C   0  0  0  0  0  0
  -29.9553  -20.2893   21.6807 C   0  0  0  0  0  0
  -28.5409  -21.6082   20.4026 C   0  0  0  0  0  0
  -29.2668  -19.1053   21.3000 C   0  0  0  0  0  0
  -32.2318  -17.7501   19.8012 C   0  0  0  0  0  0
  -32.2252  -16.2960   17.7355 C   0  0  0  0  0  0
  -30.9481  -18.4123   17.7811 C   0  0  0  0  0  0
  -28.0125  -23.0084   20.0113 C   0  0  0  0  0  0
  -29.5903  -17.7660   22.0102 C   0  0  0  0  0  0
  -29.0467  -24.1732   19.9438 C   0  0  0  0  0  0
  -29.1642  -16.3764   21.4073 C   0  0  0  0  0  0
  -30.0553  -16.4731   19.0957 C   0  0  0  0  0  0
  -28.5830  -25.4919   19.2398 C   0  0  0  0  0  0
  -31.3673  -17.2051   18.6426 C   0  0  0  0  0  0
  -29.5895  -21.5311   21.2598 N   0  0  0  0  0  0
  -28.1981  -19.1867   20.4643 N   0  0  0  0  0  0
  -30.0345  -15.7403   20.3811 N   0  0  0  0  0  0
  -31.4593  -12.4585   19.1249 H   0  0  0  0  0  0
  -30.3317  -11.3700   19.8933 H   0  0  0  0  0  0
  -29.7402  -11.7165   17.4788 H   0  0  0  0  0  0
  -29.6580  -13.4438   17.7186 H   0  0  0  0  0  0
  -27.8312  -11.3006   18.8437 H   0  0  0  0  0  0
  -27.3664  -12.6001   17.7802 H   0  0  0  0  0  0
  -27.6636  -14.2636   19.5102 H   0  0  0  0  0  0
  -28.6931  -12.0753   21.3751 H   0  0  0  0  0  0
  -28.4463  -13.7396   21.8127 H   0  0  0  0  0  0
  -25.2778   -9.5709   22.4760 H   0  0  0  0  0  0
  -24.0030   -7.4647   22.7470 H   0  0  0  0  0  0
  -21.0840   -8.8771   19.8962 H   0  0  0  0  0  0
  -22.3687  -10.9681   19.6157 H   0  0  0  0  0  0
  -21.2018   -7.6154   23.9728 H   0  0  0  0  0  0
  -21.1458   -6.0515   25.9078 H   0  0  0  0  0  0
  -22.0614   -2.7615   23.2855 H   0  0  0  0  0  0
  -22.4111  -11.9949   22.4849 H   0  0  0  0  0  0
  -21.1055  -13.1265   22.2551 H   0  0  0  0  0  0
  -24.6562  -15.8482   20.5181 H   0  0  0  0  0  0
  -26.2723  -15.6311   20.0731 H   0  0  0  0  0  0
  -26.7134  -32.5464   23.1066 H   0  0  0  0  0  0
  -25.0160  -33.9724   25.0475 H   0  0  0  0  0  0
  -22.7001  -31.3128   21.4113 H   0  0  0  0  0  0
  -23.3753  -35.9626   23.3325 H   0  0  0  0  0  0
  -24.3593  -36.8907   22.2050 H   0  0  0  0  0  0
  -23.7236  -37.6502   23.6649 H   0  0  0  0  0  0
  -26.0774  -31.5816   20.6082 H   0  0  0  0  0  0
  -26.8221  -30.8465   22.0022 H   0  0  0  0  0  0
  -28.0986  -29.0467   21.1496 H   0  0  0  0  0  0
  -25.9384  -25.9239   19.0743 H   0  0  0  0  0  0
  -23.9407  -27.2928   19.0723 H   0  0  0  0  0  0
  -23.7270  -30.6092   19.4069 H   0  0  0  0  0  0
  -22.7317  -29.2617   19.8602 H   0  0  0  0  0  0
  -25.1295  -36.1937   25.0809 H   0  0  0  0  0  0
  -20.9946  -28.3233   24.1445 H   0  0  0  0  0  0
  -20.5719  -26.2252   23.3604 H   0  0  0  0  0  0
  -21.6634  -26.7477   22.1178 H   0  0  0  0  0  0
  -19.6930  -25.6312   21.1246 H   0  0  0  0  0  0
  -19.6713  -27.3197   20.6755 H   0  0  0  0  0  0
  -17.4196  -26.6685   21.4015 H   0  0  0  0  0  0
  -18.0312  -26.0081   22.9011 H   0  0  0  0  0  0
  -19.7926  -30.7252   24.2282 H   0  0  0  0  0  0
  -17.5020  -31.6284   24.5149 H   0  0  0  0  0  0
  -15.5349  -30.3003   23.7685 H   0  0  0  0  0  0
  -15.8656  -28.0850   22.7079 H   0  0  0  0  0  0
  -24.5919  -30.7083   25.7824 H   0  0  0  0  0  0
  -24.8974  -32.2897   26.4916 H   0  0  0  0  0  0
  -25.8118  -30.8902   27.0227 H   0  0  0  0  0  0
  -26.2902  -29.6758   24.1244 H   0  0  0  0  0  0
  -27.4124  -29.7299   25.4646 H   0  0  0  0  0  0
  -27.8740  -30.4326   23.9323 H   0  0  0  0  0  0
  -27.2670  -33.3637   26.2050 H   0  0  0  0  0  0
  -28.3894  -32.6888   25.0337 H   0  0  0  0  0  0
  -28.0703  -31.8466   26.5433 H   0  0  0  0  0  0
  -28.2604  -38.0094   24.7511 H   0  0  0  0  0  0
  -28.1055  -36.2624   24.6298 H   0  0  0  0  0  0
  -27.2290  -37.1465   25.8873 H   0  0  0  0  0  0
  -20.9288  -29.8774   21.6951 H   0  0  0  0  0  0
  -26.0189  -38.2851   24.1420 H   0  0  0  0  0  0
  -27.0110  -20.4773   19.3375 H   0  0  0  0  0  0
  -30.7717  -20.2491   22.3872 H   0  0  0  0  0  0
  -33.1649  -18.1758   19.4296 H   0  0  0  0  0  0
  -32.5080  -16.9894   20.5269 H   0  0  0  0  0  0
  -31.7304  -18.5471   20.3432 H   0  0  0  0  0  0
  -33.0154  -16.8619   17.2430 H   0  0  0  0  0  0
  -31.6254  -15.8303   16.9522 H   0  0  0  0  0  0
  -32.7293  -15.4983   18.2726 H   0  0  0  0  0  0
  -30.3220  -18.1060   16.9421 H   0  0  0  0  0  0
  -31.8104  -18.9397   17.3730 H   0  0  0  0  0  0
  -30.3791  -19.1381   18.3636 H   0  0  0  0  0  0
  -27.2069  -23.2771   20.6931 H   0  0  0  0  0  0
  -27.5458  -22.9056   19.0298 H   0  0  0  0  0  0
  -29.0875  -17.8544   22.9741 H   0  0  0  0  0  0
  -30.6504  -17.7428   22.2661 H   0  0  0  0  0  0
  -29.9001  -23.8023   19.3784 H   0  0  0  0  0  0
  -29.4303  -24.3908   20.9404 H   0  0  0  0  0  0
  -28.1348  -16.4103   21.0531 H   0  0  0  0  0  0
  -29.1507  -15.7061   22.2677 H   0  0  0  0  0  0
  -29.7368  -15.7791   18.3157 H   0  0  0  0  0  0
  -29.2438  -17.1987   19.1151 H   0  0  0  0  0  0
  -27.7871  -25.2902   18.5275 H   0  0  0  0  0  0
  -29.4045  -25.8016   18.5931 H   0  0  0  0  0  0
  1 25  1  0  0  0
  1 30  2  0  0  0
  1 87  1  0  0  0
  2  3  1  0  0  0
  2 25  1  0  0  0
  2 88  1  0  0  0
  2 89  1  0  0  0
  3  4  1  0  0  0
  3 90  1  0  0  0
  3 91  1  0  0  0
  4  5  1  0  0  0
  4 92  1  0  0  0
  4 93  1  0  0  0
  5  6  1  0  0  0
  5 26  1  0  0  0
  5 94  1  0  0  0
  6 25  1  0  0  0
  6 95  1  0  0  0
  6 96  1  0  0  0
  7  8  2  0  0  0
  7 26  1  0  0  0
  7 29  1  0  0  0
  8  9  1  0  0  0
  8 22  1  0  0  0
  9 10  1  0  0  0
  9 27  2  0  0  0
 10 11  2  0  0  0
 10 15  1  0  0  0
 11 12  1  0  0  0
 11 97  1  0  0  0
 12 13  2  0  0  0
 12 98  1  0  0  0
 13 14  1  0  0  0
 13 31  1  0  0  0
 14 15  2  0  0  0
 14 99  1  0  0  0
 15100  1  0  0  0
 16 17  2  0  0  0
 16 21  1  0  0  0
 16 31  1  0  0  0
 17 18  1  0  0  0
 17101  1  0  0  0
 18 19  2  0  0  0
 18102  1  0  0  0
 19 20  1  0  0  0
 19 24  1  0  0  0
 20 21  2  0  0  0
 20103  1  0  0  0
 21 23  1  0  0  0
 22 28  1  0  0  0
 22 32  2  0  0  0
 26 27  1  0  0  0
 28104  1  0  0  0
 28105  1  0  0  0
 29106  1  0  0  0
 29107  1  0  0  0
 33 34  1  0  0  0
 33 66  1  0  0  0
 33 70  2  0  0  0
 34 36  1  0  0  0
 34 59  1  0  0  0
 34108  1  0  0  0
 35 44  2  0  0  0
 35 45  1  0  0  0
 35 68  1  0  0  0
 36 56  1  0  0  0
 36109  1  0  0  0
 37 39  1  0  0  0
 37 47  1  0  0  0
 37 66  1  0  0  0
 37110  1  0  0  0
 38 43  2  0  0  0
 38 46  1  0  0  0
 38 47  1  0  0  0
 39 64  1  0  0  0
 39 67  2  0  0  0
 40 52  1  0  0  0
 40 53  2  0  0  0
 40 58  1  0  0  0
 41111  1  0  0  0
 41112  1  0  0  0
 41113  1  0  0  0
 41 48  1  0  0  0
 42 43  1  0  0  0
 42 66  1  0  0  0
 42114  1  0  0  0
 42115  1  0  0  0
 43 44  1  0  0  0
 44116  1  0  0  0
 45 46  2  0  0  0
 45117  1  0  0  0
 46118  1  0  0  0
 47119  1  0  0  0
 47120  1  0  0  0
 48 56  1  0  0  0
 48 65  1  0  0  0
 48121  1  0  0  0
 49 50  1  0  0  0
 49 53  1  0  0  0
 49 64  1  0  0  0
 49122  1  0  0  0
 50 51  1  0  0  0
 50123  1  0  0  0
 50124  1  0  0  0
 51 52  1  0  0  0
 51125  1  0  0  0
 51126  1  0  0  0
 52127  1  0  0  0
 52128  1  0  0  0
 53 54  1  0  0  0
 54 55  2  0  0  0
 54129  1  0  0  0
 55 57  1  0  0  0
 55130  1  0  0  0
 56 69  2  0  0  0
 57 58  2  0  0  0
 57131  1  0  0  0
 58132  1  0  0  0
 59 60  1  0  0  0
 59 61  1  0  0  0
 59 62  1  0  0  0
 60133  1  0  0  0
 60134  1  0  0  0
 60135  1  0  0  0
 61136  1  0  0  0
 61137  1  0  0  0
 61138  1  0  0  0
 62139  1  0  0  0
 62140  1  0  0  0
 62141  1  0  0  0
 63 65  1  0  0  0
 63142  1  0  0  0
 63143  1  0  0  0
 63144  1  0  0  0
 64145  1  0  0  0
 65146  1  0  0  0
 68 83  1  0  0  0
 71 73  2  0  0  0
 71 86  1  0  0  0
 71147  1  0  0  0
 72 74  1  0  0  0
 72 85  2  0  0  0
 72148  1  0  0  0
 73 78  1  0  0  0
 73 85  1  0  0  0
 74 79  1  0  0  0
 74 86  2  0  0  0
 75149  1  0  0  0
 75150  1  0  0  0
 75151  1  0  0  0
 75 84  1  0  0  0
 76 84  1  0  0  0
 76152  1  0  0  0
 76153  1  0  0  0
 76154  1  0  0  0
 77 84  1  0  0  0
 77155  1  0  0  0
 77156  1  0  0  0
 77157  1  0  0  0
 78 80  1  0  0  0
 78158  1  0  0  0
 78159  1  0  0  0
 79 81  1  0  0  0
 79160  1  0  0  0
 79161  1  0  0  0
 80 83  1  0  0  0
 80162  1  0  0  0
 80163  1  0  0  0
 81 87  1  0  0  0
 81164  1  0  0  0
 81165  1  0  0  0
 82 84  1  0  0  0
 82 87  1  0  0  0
 82166  1  0  0  0
 82167  1  0  0  0
 83168  1  0  0  0
 83169  1  0  0  0
M  ISO  4   1 100  68 101  83 101  87 100
M  END
> <chiral flag>
0

> <version>
0

> <s_m_source_file>
/data/baiqing/PycharmProjects/Reinvent-master-3.2/result/LINK_invent/BTK/process_docking_weight1_custom_sum_contain_oxygen_bond_distance_aromatic_linkinvent_7_9_3/rearranged_h_0058.sdf

> <i_m_source_file_index>
56

> <r_mmod_Potential_Energy-OPLS-2005>
298.25048828125

> <r_mmod_Stretch_Energy-OPLS-2005>
57.4775276184082

> <r_mmod_Bend_Energy-OPLS-2005>
157.214080810547

> <r_mmod_Torsional_Energy-OPLS-2005>
347.215942382812

> <r_mmod_Improper_Torsional_Energy-OPLS-2005>
18.3499126434326

> <r_mmod_Van_der_Waal_Energy-OPLS-2005>
147.760559082031

> <r_mmod_Electrostatic_Energy-OPLS-2005>
-268.869232177734

> <r_mmod_Solvation_Energy-OPLS-2005>
-197.079208374023

> <b_mmod_Minimization_Converged-OPLS-2005>
0

> <r_mmod_RMS_Derivative-OPLS-2005>
3.00057721138

$$$$
56
                    3D
 Structure written by MMmdl.
174182  0  0  1  0            999 V2000
  -30.7265  -14.4523   20.7059 C   0  0  0  0  0  0
  -30.4289  -12.3461   19.4255 C   0  0  0  0  0  0
  -29.5012  -12.5425   18.2097 C   0  0  0  0  0  0
  -28.0218  -12.3819   18.6062 C   0  0  0  0  0  0
  -27.6585  -13.2037   19.8684 C   0  0  2  0  0  0
  -28.6838  -12.9597   20.9900 C   0  0  0  0  0  0
  -25.2571  -13.8126   20.5639 C   0  0  0  0  0  0
  -24.1844  -13.0409   20.9179 C   0  0  0  0  0  0
  -24.6399  -11.6870   20.8705 C   0  0  0  0  0  0
  -23.9056  -10.4270   21.0398 C   0  0  0  0  0  0
  -24.3621   -9.4201   21.9185 C   0  0  0  0  0  0
  -23.6311   -8.2237   22.0746 C   0  0  0  0  0  0
  -22.4292   -8.0284   21.3530 C   0  0  0  0  0  0
  -21.9918   -9.0251   20.4638 C   0  0  0  0  0  0
  -22.7231  -10.2137   20.3050 C   0  0  0  0  0  0
  -21.6866   -6.0754   22.5284 C   0  0  0  0  0  0
  -21.4010   -6.5651   23.8222 C   0  0  0  0  0  0
  -21.3652   -5.6800   24.9181 C   0  0  0  0  0  0
  -21.6050   -4.3066   24.7221 C   0  0  0  0  0  0
  -21.8822   -3.8157   23.4347 C   0  0  0  0  0  0
  -21.9192   -4.6979   22.3403 C   0  0  0  0  0  0
  -22.7877  -13.5231   21.1853 C   0  0  0  0  0  0
  -22.1666   -4.2172   21.0978 F   0  0  0  0  0  0
  -21.5625   -3.4536   25.7730 F   0  0  0  0  0  0
  -30.0317  -13.2930   20.4834 N   0  0  0  0  0  0
  -26.2991  -12.9286   20.3264 N   0  0  0  0  0  0
  -25.9303  -11.6438   20.5664 N   0  0  0  0  0  0
  -22.0526  -12.8217   22.0410 N   0  0  0  0  0  0
  -25.4273  -15.1827   20.4094 N   0  0  0  0  0  0
  -31.7420  -14.7365   20.0570 O   0  0  0  0  0  0
  -21.6647   -6.8896   21.4253 O   0  0  0  0  0  0
  -22.3592  -14.5558   20.6748 O   0  0  0  0  0  0
  -24.6154  -31.8713   23.2092 C   0  0  0  0  0  0
  -25.9036  -32.4849   23.8399 C   0  0  1  0  0  0
  -27.2364  -27.4372   20.0762 C   0  0  0  0  0  0
  -25.5884  -33.8645   24.2347 N   0  0  0  0  0  0
  -23.4026  -30.5032   21.5473 C   0  0  2  0  0  0
  -24.8477  -28.9666   20.1140 C   0  0  0  0  0  0
  -22.7370  -29.4735   22.4910 C   0  0  0  0  0  0
  -18.0263  -28.1423   22.8452 C   0  0  0  0  0  0
  -24.1482  -36.7307   23.2645 C   0  0  0  0  0  0
  -25.9346  -30.8352   21.3661 C   0  0  0  0  0  0
  -26.0086  -29.4716   20.7094 C   0  0  0  0  0  0
  -27.2042  -28.7153   20.6887 C   0  0  0  0  0  0
  -26.0467  -26.9437   19.4939 C   0  0  0  0  0  0
  -24.8619  -27.7002   19.5073 C   0  0  0  0  0  0
  -23.6148  -29.8401   20.1603 C   0  0  0  0  0  0
  -25.4111  -36.3134   24.0352 C   0  0  1  0  0  0
  -20.5856  -28.3671   23.1198 C   0  0  2  0  0  0
  -20.6786  -26.9398   22.5291 C   0  0  0  0  0  0
  -19.5680  -26.6340   21.5177 C   0  0  0  0  0  0
  -18.1881  -26.7966   22.1592 C   0  0  0  0  0  0
  -19.1527  -28.8845   23.2863 C   0  0  0  0  0  0
  -18.9493  -30.1420   23.8955 C   0  0  0  0  0  0
  -17.6489  -30.6562   24.0653 C   0  0  0  0  0  0
  -25.9036  -34.9497   23.5157 C   0  0  0  0  0  0
  -16.5371  -29.9113   23.6385 C   0  0  0  0  0  0
  -16.7269  -28.6571   23.0314 C   0  0  0  0  0  0
  -26.4459  -31.6611   25.0717 C   0  0  0  0  0  0
  -25.3705  -31.3700   26.1446 C   0  0  0  0  0  0
  -27.0311  -30.3054   24.6128 C   0  0  0  0  0  0
  -27.6050  -32.4310   25.7469 C   0  0  0  0  0  0
  -27.5585  -37.1815   24.8472 C   0  0  0  0  0  0
  -21.4097  -29.3066   22.3605 N   0  0  0  0  0  0
  -26.4308  -37.3811   23.9407 N   0  0  0  0  0  0
  -24.6704  -31.0815   22.1015 N   0  0  0  0  0  0
  -23.4132  -28.8206   23.2901 O   0  0  0  0  0  0
  -28.4277  -26.7343   20.0557 O   0  0  0  0  0  0
  -26.5598  -34.8936   22.4715 O   0  0  0  0  0  0
  -23.5343  -32.1479   23.7478 O   0  0  0  0  0  0
  -29.5821  -19.6994   23.4263 C   0  0  0  0  0  0
  -29.3136  -19.1645   22.1911 C   0  0  0  0  0  0
  -29.9889  -17.8892   22.2232 C   0  0  0  0  0  0
  -23.6049  -21.1700   20.4760 C   0  0  0  0  0  0
  -30.9371  -18.9575   25.4331 C   0  0  0  0  0  0
  -30.0959  -14.9709   22.9989 C   0  0  0  0  0  0
  -28.4783  -19.8176   21.0935 C   0  0  0  0  0  0
  -30.0137  -16.7784   21.1681 C   0  0  0  0  0  0
  -25.0398  -20.9898   20.9893 C   0  0  0  0  0  0
  -28.0896  -24.4950   21.0566 C   0  0  0  0  0  0
  -28.0711  -21.2760   21.4761 C   0  0  0  0  0  0
  -26.1018  -21.3713   19.9251 C   0  0  0  0  0  0
  -26.9466  -23.4475   20.9452 C   0  0  0  0  0  0
  -28.4232  -25.3190   19.7888 C   0  0  0  0  0  0
  -30.7076  -17.7674   23.3352 N   0  0  0  0  0  0
  -30.4055  -18.8336   24.0933 N   0  0  0  0  0  0
  -30.1717  -15.3416   21.5717 N   0  0  0  0  0  0
  -27.3056  -22.0697   20.4659 N   0  3  1  0  0  0
  -31.4646  -12.4804   19.1167 H   0  0  0  0  0  0
  -30.3625  -11.3241   19.8001 H   0  0  0  0  0  0
  -29.7563  -11.8291   17.4242 H   0  0  0  0  0  0
  -29.6608  -13.5346   17.7787 H   0  0  0  0  0  0
  -27.8382  -11.3228   18.7886 H   0  0  0  0  0  0
  -27.3798  -12.6649   17.7706 H   0  0  0  0  0  0
  -27.7094  -14.2587   19.5975 H   0  0  0  0  0  0
  -28.6643  -11.9133   21.3005 H   0  0  0  0  0  0
  -28.3702  -13.5330   21.8597 H   0  0  0  0  0  0
  -25.2777   -9.5697   22.4745 H   0  0  0  0  0  0
  -24.0034   -7.4623   22.7450 H   0  0  0  0  0  0
  -21.0853   -8.8767   19.8939 H   0  0  0  0  0  0
  -22.3681  -10.9689   19.6156 H   0  0  0  0  0  0
  -21.2000   -7.6151   23.9737 H   0  0  0  0  0  0
  -21.1470   -6.0518   25.9090 H   0  0  0  0  0  0
  -22.0603   -2.7623   23.2828 H   0  0  0  0  0  0
  -22.4177  -11.9914   22.4815 H   0  0  0  0  0  0
  -21.1128  -13.1219   22.2583 H   0  0  0  0  0  0
  -24.6556  -15.8286   20.5289 H   0  0  0  0  0  0
  -26.2817  -15.6305   20.1040 H   0  0  0  0  0  0
  -26.7092  -32.5568   23.1154 H   0  0  0  0  0  0
  -24.9998  -33.9833   25.0474 H   0  0  0  0  0  0
  -22.7019  -31.3301   21.4093 H   0  0  0  0  0  0
  -23.3769  -35.9617   23.3329 H   0  0  0  0  0  0
  -24.3579  -36.8902   22.2057 H   0  0  0  0  0  0
  -23.7214  -37.6514   23.6624 H   0  0  0  0  0  0
  -26.0504  -31.6062   20.6013 H   0  0  0  0  0  0
  -26.8226  -30.8858   21.9837 H   0  0  0  0  0  0
  -28.1011  -29.1103   21.1457 H   0  0  0  0  0  0
  -25.9973  -25.9852   19.0030 H   0  0  0  0  0  0
  -23.9693  -27.3008   19.0460 H   0  0  0  0  0  0
  -23.7384  -30.6203   19.4089 H   0  0  0  0  0  0
  -22.7345  -29.2747   19.8518 H   0  0  0  0  0  0
  -25.1300  -36.2018   25.0852 H   0  0  0  0  0  0
  -20.9940  -28.3228   24.1314 H   0  0  0  0  0  0
  -20.5849  -26.2280   23.3493 H   0  0  0  0  0  0
  -21.6603  -26.7463   22.0938 H   0  0  0  0  0  0
  -19.6658  -27.3078   20.6669 H   0  0  0  0  0  0
  -19.6783  -25.6237   21.1239 H   0  0  0  0  0  0
  -17.4189  -26.6794   21.3929 H   0  0  0  0  0  0
  -18.0181  -26.0136   22.9003 H   0  0  0  0  0  0
  -19.7999  -30.7149   24.2388 H   0  0  0  0  0  0
  -17.5069  -31.6229   24.5281 H   0  0  0  0  0  0
  -15.5360  -30.3018   23.7731 H   0  0  0  0  0  0
  -15.8666  -28.0919   22.6956 H   0  0  0  0  0  0
  -24.5874  -30.7085   25.7719 H   0  0  0  0  0  0
  -24.8898  -32.2846   26.4908 H   0  0  0  0  0  0
  -25.8036  -30.8816   27.0185 H   0  0  0  0  0  0
  -26.2862  -29.6755   24.1251 H   0  0  0  0  0  0
  -27.4133  -29.7351   25.4602 H   0  0  0  0  0  0
  -27.8655  -30.4368   23.9243 H   0  0  0  0  0  0
  -27.2703  -33.3590   26.2106 H   0  0  0  0  0  0
  -28.3817  -32.6916   25.0265 H   0  0  0  0  0  0
  -28.0743  -31.8395   26.5339 H   0  0  0  0  0  0
  -28.2634  -38.0083   24.7515 H   0  0  0  0  0  0
  -28.1057  -36.2628   24.6313 H   0  0  0  0  0  0
  -27.2294  -37.1465   25.8872 H   0  0  0  0  0  0
  -20.9262  -29.8715   21.6760 H   0  0  0  0  0  0
  -26.0215  -38.2904   24.1399 H   0  0  0  0  0  0
  -29.2690  -20.6237   23.8926 H   0  0  0  0  0  0
  -22.8759  -20.9878   21.2663 H   0  0  0  0  0  0
  -23.3896  -20.4908   19.6506 H   0  0  0  0  0  0
  -23.4492  -22.1906   20.1216 H   0  0  0  0  0  0
  -30.1166  -19.1335   26.1296 H   0  0  0  0  0  0
  -31.6186  -19.8084   25.4798 H   0  0  0  0  0  0
  -31.4632  -18.0483   25.7262 H   0  0  0  0  0  0
  -29.2234  -15.4259   23.4705 H   0  0  0  0  0  0
  -30.9912  -15.2891   23.5294 H   0  0  0  0  0  0
  -30.0474  -13.8950   23.1714 H   0  0  0  0  0  0
  -27.5865  -19.2227   20.9001 H   0  0  0  0  0  0
  -29.0227  -19.8248   20.1494 H   0  0  0  0  0  0
  -30.7754  -17.0391   20.4312 H   0  0  0  0  0  0
  -29.0701  -16.8242   20.6270 H   0  0  0  0  0  0
  -25.1832  -19.9566   21.3094 H   0  0  0  0  0  0
  -25.1423  -21.5867   21.8928 H   0  0  0  0  0  0
  -27.7563  -25.2106   21.8108 H   0  0  0  0  0  0
  -29.0003  -24.0692   21.4728 H   0  0  0  0  0  0
  -28.9827  -21.8310   21.7014 H   0  0  0  0  0  0
  -27.4889  -21.2368   22.3980 H   0  0  0  0  0  0
  -25.6545  -22.0206   19.1708 H   0  0  0  0  0  0
  -26.3968  -20.4802   19.3734 H   0  0  0  0  0  0
  -26.1591  -23.8722   20.3229 H   0  0  0  0  0  0
  -26.4983  -23.3509   21.9351 H   0  0  0  0  0  0
  -27.8182  -25.0361   18.9301 H   0  0  0  0  0  0
  -29.4367  -25.0594   19.4804 H   0  0  0  0  0  0
  -27.9188  -22.1932   19.6707 H   0  0  0  0  0  0
  1 25  1  0  0  0
  1 30  2  0  0  0
  1 87  1  0  0  0
  2  3  1  0  0  0
  2 25  1  0  0  0
  2 89  1  0  0  0
  2 90  1  0  0  0
  3  4  1  0  0  0
  3 91  1  0  0  0
  3 92  1  0  0  0
  4  5  1  0  0  0
  4 93  1  0  0  0
  4 94  1  0  0  0
  5  6  1  0  0  0
  5 26  1  0  0  0
  5 95  1  0  0  0
  6 25  1  0  0  0
  6 96  1  0  0  0
  6 97  1  0  0  0
  7  8  2  0  0  0
  7 26  1  0  0  0
  7 29  1  0  0  0
  8  9  1  0  0  0
  8 22  1  0  0  0
  9 10  1  0  0  0
  9 27  2  0  0  0
 10 11  2  0  0  0
 10 15  1  0  0  0
 11 12  1  0  0  0
 11 98  1  0  0  0
 12 13  2  0  0  0
 12 99  1  0  0  0
 13 14  1  0  0  0
 13 31  1  0  0  0
 14 15  2  0  0  0
 14100  1  0  0  0
 15101  1  0  0  0
 16 17  2  0  0  0
 16 21  1  0  0  0
 16 31  1  0  0  0
 17 18  1  0  0  0
 17102  1  0  0  0
 18 19  2  0  0  0
 18103  1  0  0  0
 19 20  1  0  0  0
 19 24  1  0  0  0
 20 21  2  0  0  0
 20104  1  0  0  0
 21 23  1  0  0  0
 22 28  1  0  0  0
 22 32  2  0  0  0
 26 27  1  0  0  0
 28105  1  0  0  0
 28106  1  0  0  0
 29107  1  0  0  0
 29108  1  0  0  0
 33 34  1  0  0  0
 33 66  1  0  0  0
 33 70  2  0  0  0
 34 36  1  0  0  0
 34 59  1  0  0  0
 34109  1  0  0  0
 35 44  2  0  0  0
 35 45  1  0  0  0
 35 68  1  0  0  0
 36 56  1  0  0  0
 36110  1  0  0  0
 37 39  1  0  0  0
 37 47  1  0  0  0
 37 66  1  0  0  0
 37111  1  0  0  0
 38 43  2  0  0  0
 38 46  1  0  0  0
 38 47  1  0  0  0
 39 64  1  0  0  0
 39 67  2  0  0  0
 40 52  1  0  0  0
 40 53  2  0  0  0
 40 58  1  0  0  0
 41112  1  0  0  0
 41113  1  0  0  0
 41114  1  0  0  0
 41 48  1  0  0  0
 42 43  1  0  0  0
 42 66  1  0  0  0
 42115  1  0  0  0
 42116  1  0  0  0
 43 44  1  0  0  0
 44117  1  0  0  0
 45 46  2  0  0  0
 45118  1  0  0  0
 46119  1  0  0  0
 47120  1  0  0  0
 47121  1  0  0  0
 48 56  1  0  0  0
 48 65  1  0  0  0
 48122  1  0  0  0
 49 50  1  0  0  0
 49 53  1  0  0  0
 49 64  1  0  0  0
 49123  1  0  0  0
 50 51  1  0  0  0
 50124  1  0  0  0
 50125  1  0  0  0
 51 52  1  0  0  0
 51126  1  0  0  0
 51127  1  0  0  0
 52128  1  0  0  0
 52129  1  0  0  0
 53 54  1  0  0  0
 54 55  2  0  0  0
 54130  1  0  0  0
 55 57  1  0  0  0
 55131  1  0  0  0
 56 69  2  0  0  0
 57 58  2  0  0  0
 57132  1  0  0  0
 58133  1  0  0  0
 59 60  1  0  0  0
 59 61  1  0  0  0
 59 62  1  0  0  0
 60134  1  0  0  0
 60135  1  0  0  0
 60136  1  0  0  0
 61137  1  0  0  0
 61138  1  0  0  0
 61139  1  0  0  0
 62140  1  0  0  0
 62141  1  0  0  0
 62142  1  0  0  0
 63 65  1  0  0  0
 63143  1  0  0  0
 63144  1  0  0  0
 63145  1  0  0  0
 64146  1  0  0  0
 65147  1  0  0  0
 68 84  1  0  0  0
 71 72  2  0  0  0
 71 86  1  0  0  0
 71148  1  0  0  0
 72 73  1  0  0  0
 72 77  1  0  0  0
 73 78  1  0  0  0
 73 85  2  0  0  0
 74 79  1  0  0  0
 74149  1  0  0  0
 74150  1  0  0  0
 74151  1  0  0  0
 75 86  1  0  0  0
 75152  1  0  0  0
 75153  1  0  0  0
 75154  1  0  0  0
 76 87  1  0  0  0
 76155  1  0  0  0
 76156  1  0  0  0
 76157  1  0  0  0
 77 81  1  0  0  0
 77158  1  0  0  0
 77159  1  0  0  0
 78 87  1  0  0  0
 78160  1  0  0  0
 78161  1  0  0  0
 79 82  1  0  0  0
 79162  1  0  0  0
 79163  1  0  0  0
 80 83  1  0  0  0
 80 84  1  0  0  0
 80164  1  0  0  0
 80165  1  0  0  0
 81166  1  0  0  0
 81167  1  0  0  0
 81 88  1  0  0  0
 82 88  1  0  0  0
 82168  1  0  0  0
 82169  1  0  0  0
 83 88  1  0  0  0
 83170  1  0  0  0
 83171  1  0  0  0
 84172  1  0  0  0
 84173  1  0  0  0
 85 86  1  0  0  0
 88174  1  0  0  0
M  CHG  1  88   1
M  ISO  4   1 100  68 101  84 101  87 100
M  END
> <chiral flag>
0

> <version>
0

> <s_m_source_file>
/data/baiqing/PycharmProjects/Reinvent-master-3.2/result/LINK_invent/BTK/process_docking_weight1_custom_sum_contain_oxygen_bond_distance_aromatic_linkinvent_7_9_3/rearranged_h_0058.sdf

> <i_m_source_file_index>
57

> <r_mmod_Potential_Energy-OPLS-2005>
-43.7453422546387

> <r_mmod_Stretch_Energy-OPLS-2005>
48.7048683166504

> <r_mmod_Bend_Energy-OPLS-2005>
127.88655090332

> <r_mmod_Torsional_Energy-OPLS-2005>
298.507965087891

> <r_mmod_Improper_Torsional_Energy-OPLS-2005>
3.83350968360901

> <r_mmod_Van_der_Waal_Energy-OPLS-2005>
149.682266235352

> <r_mmod_Electrostatic_Energy-OPLS-2005>
-226.779067993164

> <r_mmod_Solvation_Energy-OPLS-2005>
-457.290313720703

> <b_mmod_Minimization_Converged-OPLS-2005>
0

> <r_mmod_RMS_Derivative-OPLS-2005>
5.15535497665405

$$$$
57
                    3D
 Structure written by MMmdl.
163172  0  0  1  0            999 V2000
  -30.6908  -14.5018   20.4623 C   0  0  0  0  0  0
  -30.4287  -12.3030   19.4192 C   0  0  0  0  0  0
  -29.4899  -12.4681   18.2052 C   0  0  0  0  0  0
  -28.0128  -12.3304   18.6282 C   0  0  0  0  0  0
  -27.6517  -13.2060   19.8585 C   0  0  2  0  0  0
  -28.7060  -13.0540   20.9796 C   0  0  0  0  0  0
  -25.2526  -13.8080   20.5595 C   0  0  0  0  0  0
  -24.1830  -13.0367   20.9189 C   0  0  0  0  0  0
  -24.6408  -11.6863   20.8788 C   0  0  0  0  0  0
  -23.9083  -10.4245   21.0449 C   0  0  0  0  0  0
  -24.3638   -9.4173   21.9224 C   0  0  0  0  0  0
  -23.6266   -8.2255   22.0818 C   0  0  0  0  0  0
  -22.4264   -8.0307   21.3556 C   0  0  0  0  0  0
  -21.9892   -9.0269   20.4658 C   0  0  0  0  0  0
  -22.7286  -10.2117   20.3054 C   0  0  0  0  0  0
  -21.6819   -6.0768   22.5280 C   0  0  0  0  0  0
  -21.4012   -6.5656   23.8215 C   0  0  0  0  0  0
  -21.3647   -5.6795   24.9168 C   0  0  0  0  0  0
  -21.6004   -4.3057   24.7214 C   0  0  0  0  0  0
  -21.8814   -3.8180   23.4347 C   0  0  0  0  0  0
  -21.9178   -4.7004   22.3400 C   0  0  0  0  0  0
  -22.7854  -13.5204   21.1799 C   0  0  0  0  0  0
  -22.1632   -4.2179   21.0992 F   0  0  0  0  0  0
  -21.5599   -3.4533   25.7728 F   0  0  0  0  0  0
  -30.0303  -13.3189   20.4016 N   0  0  0  0  0  0
  -26.2978  -12.9292   20.3313 N   0  0  0  0  0  0
  -25.9322  -11.6446   20.5809 N   0  0  0  0  0  0
  -22.0494  -12.8233   22.0359 N   0  0  0  0  0  0
  -25.4056  -15.1781   20.3761 N   0  0  0  0  0  0
  -31.8920  -14.6123   20.2012 O   0  0  0  0  0  0
  -21.6625   -6.8926   21.4249 O   0  0  0  0  0  0
  -22.3551  -14.5490   20.6620 O   0  0  0  0  0  0
  -24.6150  -31.8703   23.2055 C   0  0  0  0  0  0
  -25.9035  -32.4828   23.8388 C   0  0  1  0  0  0
  -27.2339  -27.4319   20.0931 C   0  0  0  0  0  0
  -25.5883  -33.8635   24.2303 N   0  0  0  0  0  0
  -23.4045  -30.4920   21.5480 C   0  0  2  0  0  0
  -24.8500  -28.9550   20.1112 C   0  0  0  0  0  0
  -22.7421  -29.4662   22.4966 C   0  0  0  0  0  0
  -18.0293  -28.1372   22.8520 C   0  0  0  0  0  0
  -24.1477  -36.7331   23.2653 C   0  0  0  0  0  0
  -25.9361  -30.8292   21.3676 C   0  0  0  0  0  0
  -26.0116  -29.4685   20.7033 C   0  0  0  0  0  0
  -27.2068  -28.7155   20.6839 C   0  0  0  0  0  0
  -26.0544  -26.9286   19.5018 C   0  0  0  0  0  0
  -24.8652  -27.6835   19.5091 C   0  0  0  0  0  0
  -23.6140  -29.8243   20.1621 C   0  0  0  0  0  0
  -25.4109  -36.3119   24.0316 C   0  0  1  0  0  0
  -20.5879  -28.3679   23.1306 C   0  0  2  0  0  0
  -20.6777  -26.9412   22.5429 C   0  0  0  0  0  0
  -19.5750  -26.6366   21.5245 C   0  0  0  0  0  0
  -18.1927  -26.7921   22.1646 C   0  0  0  0  0  0
  -19.1544  -28.8839   23.2912 C   0  0  0  0  0  0
  -18.9467  -30.1444   23.8916 C   0  0  0  0  0  0
  -17.6465  -30.6578   24.0578 C   0  0  0  0  0  0
  -25.9028  -34.9483   23.5108 C   0  0  0  0  0  0
  -16.5351  -29.9085   23.6335 C   0  0  0  0  0  0
  -16.7280  -28.6497   23.0368 C   0  0  0  0  0  0
  -26.4459  -31.6630   25.0731 C   0  0  0  0  0  0
  -25.3735  -31.3780   26.1487 C   0  0  0  0  0  0
  -27.0345  -30.3069   24.6192 C   0  0  0  0  0  0
  -27.5978  -32.4445   25.7505 C   0  0  0  0  0  0
  -27.5578  -37.1823   24.8453 C   0  0  0  0  0  0
  -21.4147  -29.3044   22.3702 N   0  0  0  0  0  0
  -26.4307  -37.3789   23.9364 N   0  0  0  0  0  0
  -24.6699  -31.0778   22.0975 N   0  0  0  0  0  0
  -23.4183  -28.8219   23.3029 O   0  0  0  0  0  0
  -28.4029  -26.7000   20.0890 O   0  0  0  0  0  0
  -26.5623  -34.8935   22.4687 O   0  0  0  0  0  0
  -23.5329  -32.1474   23.7433 O   0  0  0  0  0  0
  -27.4845  -20.1121   19.6401 C   0  0  0  0  0  0
  -28.7988  -24.7074   18.0270 C   0  0  0  0  0  0
  -28.8718  -19.6750   21.2768 C   0  0  0  0  0  0
  -29.0365  -22.5886   18.2336 C   0  0  0  0  0  0
  -28.3972  -20.7348   20.5388 C   0  0  0  0  0  0
  -28.6065  -24.4085   19.3571 C   0  0  0  0  0  0
  -27.5723  -17.1723   22.7894 C   0  0  0  0  0  0
  -29.8952  -16.2638   19.0096 C   0  0  0  0  0  0
  -28.7136  -22.2182   20.7086 C   0  0  0  0  0  0
  -28.3078  -25.3278   20.5128 C   0  0  0  0  0  0
  -29.6610  -16.5040   21.4443 C   0  0  0  0  0  0
  -28.2518  -17.1627   21.4130 C   0  0  2  0  0  0
  -29.0692  -23.5420   17.3100 N   0  0  0  0  0  0
  -27.3889  -18.8021   19.8269 N   0  0  0  0  0  0
  -28.2301  -18.5222   20.8494 N   0  0  0  0  0  0
  -28.7570  -23.0160   19.4776 N   0  0  0  0  0  0
  -29.8901  -15.5844   20.3150 N   0  0  0  0  0  0
  -31.4715  -12.4083   19.1105 H   0  0  0  0  0  0
  -30.3384  -11.3051   19.8507 H   0  0  0  0  0  0
  -29.7278  -11.7226   17.4477 H   0  0  0  0  0  0
  -29.6496  -13.4418   17.7415 H   0  0  0  0  0  0
  -27.8423  -11.2792   18.8626 H   0  0  0  0  0  0
  -27.3522  -12.5649   17.7917 H   0  0  0  0  0  0
  -27.6686  -14.2381   19.5129 H   0  0  0  0  0  0
  -28.6892  -12.0511   21.4030 H   0  0  0  0  0  0
  -28.4948  -13.7378   21.8056 H   0  0  0  0  0  0
  -25.2790   -9.5596   22.4779 H   0  0  0  0  0  0
  -23.9920   -7.4624   22.7538 H   0  0  0  0  0  0
  -21.0831   -8.8803   19.8958 H   0  0  0  0  0  0
  -22.3811  -10.9672   19.6114 H   0  0  0  0  0  0
  -21.2048   -7.6164   23.9718 H   0  0  0  0  0  0
  -21.1439   -6.0545   25.9041 H   0  0  0  0  0  0
  -22.0618   -2.7660   23.2830 H   0  0  0  0  0  0
  -22.4118  -11.9906   22.4712 H   0  0  0  0  0  0
  -21.1121  -13.1273   22.2561 H   0  0  0  0  0  0
  -24.6360  -15.8228   20.5129 H   0  0  0  0  0  0
  -26.2255  -15.6194   19.9811 H   0  0  0  0  0  0
  -26.7103  -32.5510   23.1154 H   0  0  0  0  0  0
  -25.0015  -33.9830   25.0433 H   0  0  0  0  0  0
  -22.6943  -31.3092   21.4081 H   0  0  0  0  0  0
  -23.3720  -35.9687   23.3347 H   0  0  0  0  0  0
  -24.3564  -36.8944   22.2064 H   0  0  0  0  0  0
  -23.7246  -37.6538   23.6684 H   0  0  0  0  0  0
  -26.0703  -31.6022   20.6085 H   0  0  0  0  0  0
  -26.8137  -30.8652   21.9992 H   0  0  0  0  0  0
  -28.1043  -29.1134   21.1359 H   0  0  0  0  0  0
  -26.0476  -25.9554   19.0290 H   0  0  0  0  0  0
  -23.9700  -27.2816   19.0545 H   0  0  0  0  0  0
  -23.7273  -30.6043   19.4077 H   0  0  0  0  0  0
  -22.7372  -29.2484   19.8603 H   0  0  0  0  0  0
  -25.1292  -36.2012   25.0811 H   0  0  0  0  0  0
  -21.0001  -28.3265   24.1408 H   0  0  0  0  0  0
  -20.5710  -26.2298   23.3638 H   0  0  0  0  0  0
  -21.6645  -26.7454   22.1205 H   0  0  0  0  0  0
  -19.6913  -25.6277   21.1280 H   0  0  0  0  0  0
  -19.6670  -27.3175   20.6777 H   0  0  0  0  0  0
  -17.4210  -26.6720   21.4025 H   0  0  0  0  0  0
  -18.0281  -26.0047   22.9020 H   0  0  0  0  0  0
  -19.7937  -30.7278   24.2260 H   0  0  0  0  0  0
  -17.5014  -31.6265   24.5181 H   0  0  0  0  0  0
  -15.5352  -30.2999   23.7604 H   0  0  0  0  0  0
  -15.8686  -28.0805   22.7059 H   0  0  0  0  0  0
  -24.5820  -30.7238   25.7809 H   0  0  0  0  0  0
  -24.9049  -32.2974   26.5011 H   0  0  0  0  0  0
  -25.8071  -30.8861   27.0202 H   0  0  0  0  0  0
  -26.2892  -29.6750   24.1339 H   0  0  0  0  0  0
  -27.4152  -29.7401   25.4694 H   0  0  0  0  0  0
  -27.8712  -30.4346   23.9327 H   0  0  0  0  0  0
  -27.2457  -33.3675   26.2149 H   0  0  0  0  0  0
  -28.3722  -32.7176   25.0318 H   0  0  0  0  0  0
  -28.0754  -31.8614   26.5396 H   0  0  0  0  0  0
  -28.2594  -38.0125   24.7474 H   0  0  0  0  0  0
  -28.1077  -36.2633   24.6310 H   0  0  0  0  0  0
  -27.2303  -37.1517   25.8872 H   0  0  0  0  0  0
  -20.9300  -29.8757   21.6918 H   0  0  0  0  0  0
  -26.0203  -38.2878   24.1338 H   0  0  0  0  0  0
  -26.8761  -20.5742   18.8722 H   0  0  0  0  0  0
  -28.7742  -25.6714   17.5385 H   0  0  0  0  0  0
  -29.5739  -19.6502   22.1004 H   0  0  0  0  0  0
  -29.2186  -21.5492   18.0011 H   0  0  0  0  0  0
  -28.1792  -17.6889   23.5335 H   0  0  0  0  0  0
  -27.3860  -16.1569   23.1409 H   0  0  0  0  0  0
  -26.6047  -17.6752   22.7407 H   0  0  0  0  0  0
  -30.0283  -17.3407   19.0988 H   0  0  0  0  0  0
  -28.9436  -16.0877   18.5074 H   0  0  0  0  0  0
  -30.6831  -15.9037   18.3453 H   0  0  0  0  0  0
  -29.6752  -22.3444   21.2053 H   0  0  0  0  0  0
  -27.9749  -22.6730   21.3703 H   0  0  0  0  0  0
  -29.0510  -25.1783   21.2974 H   0  0  0  0  0  0
  -27.3406  -25.0871   20.9553 H   0  0  0  0  0  0
  -29.7713  -15.9402   22.3728 H   0  0  0  0  0  0
  -30.4450  -17.2601   21.4748 H   0  0  0  0  0  0
  -27.6184  -16.5429   20.7776 H   0  0  0  0  0  0
  1 25  1  0  0  0
  1 30  2  0  0  0
  1 87  1  0  0  0
  2  3  1  0  0  0
  2 25  1  0  0  0
  2 88  1  0  0  0
  2 89  1  0  0  0
  3  4  1  0  0  0
  3 90  1  0  0  0
  3 91  1  0  0  0
  4  5  1  0  0  0
  4 92  1  0  0  0
  4 93  1  0  0  0
  5  6  1  0  0  0
  5 26  1  0  0  0
  5 94  1  0  0  0
  6 25  1  0  0  0
  6 95  1  0  0  0
  6 96  1  0  0  0
  7  8  2  0  0  0
  7 26  1  0  0  0
  7 29  1  0  0  0
  8  9  1  0  0  0
  8 22  1  0  0  0
  9 10  1  0  0  0
  9 27  2  0  0  0
 10 11  2  0  0  0
 10 15  1  0  0  0
 11 12  1  0  0  0
 11 97  1  0  0  0
 12 13  2  0  0  0
 12 98  1  0  0  0
 13 14  1  0  0  0
 13 31  1  0  0  0
 14 15  2  0  0  0
 14 99  1  0  0  0
 15100  1  0  0  0
 16 17  2  0  0  0
 16 21  1  0  0  0
 16 31  1  0  0  0
 17 18  1  0  0  0
 17101  1  0  0  0
 18 19  2  0  0  0
 18102  1  0  0  0
 19 20  1  0  0  0
 19 24  1  0  0  0
 20 21  2  0  0  0
 20103  1  0  0  0
 21 23  1  0  0  0
 22 28  1  0  0  0
 22 32  2  0  0  0
 26 27  1  0  0  0
 28104  1  0  0  0
 28105  1  0  0  0
 29106  1  0  0  0
 29107  1  0  0  0
 33 34  1  0  0  0
 33 66  1  0  0  0
 33 70  2  0  0  0
 34 36  1  0  0  0
 34 59  1  0  0  0
 34108  1  0  0  0
 35 44  2  0  0  0
 35 45  1  0  0  0
 35 68  1  0  0  0
 36 56  1  0  0  0
 36109  1  0  0  0
 37 39  1  0  0  0
 37 47  1  0  0  0
 37 66  1  0  0  0
 37110  1  0  0  0
 38 43  2  0  0  0
 38 46  1  0  0  0
 38 47  1  0  0  0
 39 64  1  0  0  0
 39 67  2  0  0  0
 40 52  1  0  0  0
 40 53  2  0  0  0
 40 58  1  0  0  0
 41111  1  0  0  0
 41112  1  0  0  0
 41113  1  0  0  0
 41 48  1  0  0  0
 42 43  1  0  0  0
 42 66  1  0  0  0
 42114  1  0  0  0
 42115  1  0  0  0
 43 44  1  0  0  0
 44116  1  0  0  0
 45 46  2  0  0  0
 45117  1  0  0  0
 46118  1  0  0  0
 47119  1  0  0  0
 47120  1  0  0  0
 48 56  1  0  0  0
 48 65  1  0  0  0
 48121  1  0  0  0
 49 50  1  0  0  0
 49 53  1  0  0  0
 49 64  1  0  0  0
 49122  1  0  0  0
 50 51  1  0  0  0
 50123  1  0  0  0
 50124  1  0  0  0
 51 52  1  0  0  0
 51125  1  0  0  0
 51126  1  0  0  0
 52127  1  0  0  0
 52128  1  0  0  0
 53 54  1  0  0  0
 54 55  2  0  0  0
 54129  1  0  0  0
 55 57  1  0  0  0
 55130  1  0  0  0
 56 69  2  0  0  0
 57 58  2  0  0  0
 57131  1  0  0  0
 58132  1  0  0  0
 59 60  1  0  0  0
 59 61  1  0  0  0
 59 62  1  0  0  0
 60133  1  0  0  0
 60134  1  0  0  0
 60135  1  0  0  0
 61136  1  0  0  0
 61137  1  0  0  0
 61138  1  0  0  0
 62139  1  0  0  0
 62140  1  0  0  0
 62141  1  0  0  0
 63 65  1  0  0  0
 63142  1  0  0  0
 63143  1  0  0  0
 63144  1  0  0  0
 64145  1  0  0  0
 65146  1  0  0  0
 68 80  1  0  0  0
 71 75  1  0  0  0
 71 84  2  0  0  0
 71147  1  0  0  0
 72 76  2  0  0  0
 72 83  1  0  0  0
 72148  1  0  0  0
 73 75  2  0  0  0
 73 85  1  0  0  0
 73149  1  0  0  0
 74 83  2  0  0  0
 74 86  1  0  0  0
 74150  1  0  0  0
 75 79  1  0  0  0
 76 80  1  0  0  0
 76 86  1  0  0  0
 77151  1  0  0  0
 77152  1  0  0  0
 77153  1  0  0  0
 77 82  1  0  0  0
 78 87  1  0  0  0
 78154  1  0  0  0
 78155  1  0  0  0
 78156  1  0  0  0
 79 86  1  0  0  0
 79157  1  0  0  0
 79158  1  0  0  0
 80159  1  0  0  0
 80160  1  0  0  0
 81 82  1  0  0  0
 81 87  1  0  0  0
 81161  1  0  0  0
 81162  1  0  0  0
 82 85  1  0  0  0
 82163  1  0  0  0
 84 85  1  0  0  0
M  ISO  4   1 100  68 101  80 101  87 100
M  END
> <chiral flag>
0

> <version>
0

> <s_m_source_file>
/data/baiqing/PycharmProjects/Reinvent-master-3.2/result/LINK_invent/BTK/process_docking_weight1_custom_sum_contain_oxygen_bond_distance_aromatic_linkinvent_7_9_3/rearranged_h_0058.sdf

> <i_m_source_file_index>
58

> <r_mmod_Potential_Energy-OPLS-2005>
134.928527832031

> <r_mmod_Stretch_Energy-OPLS-2005>
37.8575286865234

> <r_mmod_Bend_Energy-OPLS-2005>
103.412605285645

> <r_mmod_Torsional_Energy-OPLS-2005>
361.671691894531

> <r_mmod_Improper_Torsional_Energy-OPLS-2005>
19.2672119140625

> <r_mmod_Van_der_Waal_Energy-OPLS-2005>
114.432685852051

> <r_mmod_Electrostatic_Energy-OPLS-2005>
-300.582336425781

> <r_mmod_Solvation_Energy-OPLS-2005>
-223.787719726562

> <b_mmod_Minimization_Converged-OPLS-2005>
0

> <r_mmod_RMS_Derivative-OPLS-2005>
4.8930287361145

$$$$
58
                    3D
 Structure written by MMmdl.
151159  0  0  1  0            999 V2000
  -30.5218  -15.0293   20.4251 C   0  0  0  0  0  0
  -30.4544  -12.6418   19.5439 C   0  0  0  0  0  0
  -29.5490  -12.5688   18.2860 C   0  0  0  0  0  0
  -28.0719  -12.3503   18.6697 C   0  0  0  0  0  0
  -27.6356  -13.2570   19.8495 C   0  0  2  0  0  0
  -28.6763  -13.2298   20.9868 C   0  0  0  0  0  0
  -25.2385  -13.8185   20.5515 C   0  0  0  0  0  0
  -24.1768  -13.0410   20.9191 C   0  0  0  0  0  0
  -24.6423  -11.6907   20.8754 C   0  0  0  0  0  0
  -23.9104  -10.4278   21.0399 C   0  0  0  0  0  0
  -24.3644   -9.4191   21.9178 C   0  0  0  0  0  0
  -23.6304   -8.2233   22.0752 C   0  0  0  0  0  0
  -22.4283   -8.0276   21.3544 C   0  0  0  0  0  0
  -21.9932   -9.0253   20.4640 C   0  0  0  0  0  0
  -22.7273  -10.2123   20.3046 C   0  0  0  0  0  0
  -21.6856   -6.0729   22.5276 C   0  0  0  0  0  0
  -21.4015   -6.5630   23.8210 C   0  0  0  0  0  0
  -21.3663   -5.6782   24.9173 C   0  0  0  0  0  0
  -21.6048   -4.3045   24.7218 C   0  0  0  0  0  0
  -21.8818   -3.8140   23.4339 C   0  0  0  0  0  0
  -21.9193   -4.6959   22.3398 C   0  0  0  0  0  0
  -22.7785  -13.5181   21.1842 C   0  0  0  0  0  0
  -22.1654   -4.2148   21.0976 F   0  0  0  0  0  0
  -21.5639   -3.4528   25.7733 F   0  0  0  0  0  0
  -29.9475  -13.7368   20.4443 N   0  0  0  0  0  0
  -26.2892  -12.9469   20.3208 N   0  0  0  0  0  0
  -25.9372  -11.6593   20.5751 N   0  0  0  0  0  0
  -22.0439  -12.8199   22.0416 N   0  0  0  0  0  0
  -25.3866  -15.1891   20.3592 N   0  0  0  0  0  0
  -31.7035  -15.0569   20.0433 O   0  0  0  0  0  0
  -21.6642   -6.8876   21.4240 O   0  0  0  0  0  0
  -22.3468  -14.5482   20.6671 O   0  0  0  0  0  0
  -24.6484  -31.8409   23.1862 C   0  0  0  0  0  0
  -25.9235  -32.4682   23.8275 C   0  0  1  0  0  0
  -27.2221  -27.1007   20.1605 C   0  0  0  0  0  0
  -25.5969  -33.8489   24.2198 N   0  0  0  0  0  0
  -23.4539  -30.4599   21.5313 C   0  0  2  0  0  0
  -24.9042  -28.8778   20.1144 C   0  0  0  0  0  0
  -22.7588  -29.4545   22.4844 C   0  0  0  0  0  0
  -18.0306  -28.1395   22.8478 C   0  0  0  0  0  0
  -24.1486  -36.7240   23.2644 C   0  0  0  0  0  0
  -26.0128  -30.7045   21.3888 C   0  0  0  0  0  0
  -26.0841  -29.3118   20.7313 C   0  0  0  0  0  0
  -27.2439  -28.4415   20.7327 C   0  0  0  0  0  0
  -26.0128  -26.7759   19.5068 C   0  0  0  0  0  0
  -24.8834  -27.6243   19.4859 C   0  0  0  0  0  0
  -23.6823  -29.7847   20.1535 C   0  0  0  0  0  0
  -25.4116  -36.3026   24.0327 C   0  0  1  0  0  0
  -20.5922  -28.3734   23.1210 C   0  0  2  0  0  0
  -20.6789  -26.9429   22.5396 C   0  0  0  0  0  0
  -19.5760  -26.6380   21.5205 C   0  0  0  0  0  0
  -18.1942  -26.7938   22.1616 C   0  0  0  0  0  0
  -19.1565  -28.8879   23.2839 C   0  0  0  0  0  0
  -18.9480  -30.1470   23.8874 C   0  0  0  0  0  0
  -17.6478  -30.6596   24.0550 C   0  0  0  0  0  0
  -25.9076  -34.9401   23.5071 C   0  0  0  0  0  0
  -16.5369  -29.9084   23.6337 C   0  0  0  0  0  0
  -16.7291  -28.6494   23.0376 C   0  0  0  0  0  0
  -26.4546  -31.6561   25.0729 C   0  0  0  0  0  0
  -25.3724  -31.3740   26.1420 C   0  0  0  0  0  0
  -27.0426  -30.2960   24.6334 C   0  0  0  0  0  0
  -27.6073  -32.4332   25.7511 C   0  0  0  0  0  0
  -27.5579  -37.1768   24.8461 C   0  0  0  0  0  0
  -21.4276  -29.3065   22.3587 N   0  0  0  0  0  0
  -26.4274  -37.3750   23.9426 N   0  0  0  0  0  0
  -24.7250  -31.0236   22.0907 N   0  0  0  0  0  0
  -23.4207  -28.8098   23.3018 O   0  0  0  0  0  0
  -28.2735  -26.0993   20.2210 O   0  0  0  0  0  0
  -26.5657  -34.8905   22.4648 O   0  0  0  0  0  0
  -23.5591  -32.1290   23.7061 O   0  0  0  0  0  0
  -30.3712  -17.7146   20.0725 C   0  0  0  0  0  0
  -29.6197  -18.8726   20.4731 C   0  0  0  0  0  0
  -28.8658  -16.9047   21.4554 C   0  0  0  0  0  0
  -28.0922  -16.1613   22.4912 C   0  0  0  0  0  0
  -29.7739  -20.5178   20.2511 C   0  0  0  0  0  0
  -29.0742  -23.2272   20.2960 C   0  0  0  0  0  0
  -27.9918  -24.5488   20.1848 C   0  0  0  0  0  0
  -29.8807  -16.4940   20.6480 N   0  0  0  0  0  0
  -28.7007  -18.2586   21.3046 N   0  3  0  0  0  0
  -28.7208  -21.6840   20.3667 N   0  0  0  0  0  0
  -31.4892  -12.8011   19.2364 H   0  0  0  0  0  0
  -30.4693  -11.6816   20.0625 H   0  0  0  0  0  0
  -29.8886  -11.7706   17.6249 H   0  0  0  0  0  0
  -29.6460  -13.4954   17.7180 H   0  0  0  0  0  0
  -27.9556  -11.3022   18.9471 H   0  0  0  0  0  0
  -27.4277  -12.5107   17.8044 H   0  0  0  0  0  0
  -27.6095  -14.2738   19.4576 H   0  0  0  0  0  0
  -28.7910  -12.2099   21.3588 H   0  0  0  0  0  0
  -28.3559  -13.7700   21.8622 H   0  0  0  0  0  0
  -25.2791   -9.5668   22.4752 H   0  0  0  0  0  0
  -24.0007   -7.4628   22.7483 H   0  0  0  0  0  0
  -21.0857   -8.8776   19.8951 H   0  0  0  0  0  0
  -22.3736  -10.9655   19.6148 H   0  0  0  0  0  0
  -21.2005   -7.6135   23.9720 H   0  0  0  0  0  0
  -21.1489   -6.0506   25.9081 H   0  0  0  0  0  0
  -22.0600   -2.7602   23.2838 H   0  0  0  0  0  0
  -22.4055  -11.9884   22.4843 H   0  0  0  0  0  0
  -21.1049  -13.1232   22.2589 H   0  0  0  0  0  0
  -24.5761  -15.7979   20.3910 H   0  0  0  0  0  0
  -26.1546  -15.5904   19.8375 H   0  0  0  0  0  0
  -26.7307  -32.5278   23.1009 H   0  0  0  0  0  0
  -25.0123  -33.9596   25.0352 H   0  0  0  0  0  0
  -22.7597  -31.2876   21.3729 H   0  0  0  0  0  0
  -23.3774  -35.9541   23.3262 H   0  0  0  0  0  0
  -24.3586  -36.8912   22.2069 H   0  0  0  0  0  0
  -23.7199  -37.6409   23.6702 H   0  0  0  0  0  0
  -26.1734  -31.4564   20.6149 H   0  0  0  0  0  0
  -26.8813  -30.7565   22.0339 H   0  0  0  0  0  0
  -28.1427  -28.7734   21.2335 H   0  0  0  0  0  0
  -25.9034  -25.8204   19.0188 H   0  0  0  0  0  0
  -23.9830  -27.2850   18.9924 H   0  0  0  0  0  0
  -23.8210  -30.5559   19.3949 H   0  0  0  0  0  0
  -22.7964  -29.2271   19.8440 H   0  0  0  0  0  0
  -25.1297  -36.1855   25.0817 H   0  0  0  0  0  0
  -21.0018  -28.3329   24.1328 H   0  0  0  0  0  0
  -20.5661  -26.2355   23.3629 H   0  0  0  0  0  0
  -21.6656  -26.7419   22.1199 H   0  0  0  0  0  0
  -19.6919  -25.6279   21.1260 H   0  0  0  0  0  0
  -19.6694  -27.3166   20.6715 H   0  0  0  0  0  0
  -17.4212  -26.6686   21.4022 H   0  0  0  0  0  0
  -18.0337  -26.0078   22.9007 H   0  0  0  0  0  0
  -19.7955  -30.7286   24.2244 H   0  0  0  0  0  0
  -17.5032  -31.6281   24.5145 H   0  0  0  0  0  0
  -15.5367  -30.2981   23.7675 H   0  0  0  0  0  0
  -15.8687  -28.0793   22.7132 H   0  0  0  0  0  0
  -24.5927  -30.7066   25.7737 H   0  0  0  0  0  0
  -24.8891  -32.2908   26.4798 H   0  0  0  0  0  0
  -25.8012  -30.8951   27.0233 H   0  0  0  0  0  0
  -26.3065  -29.6667   24.1325 H   0  0  0  0  0  0
  -27.4016  -29.7277   25.4927 H   0  0  0  0  0  0
  -27.8977  -30.4201   23.9685 H   0  0  0  0  0  0
  -27.2682  -33.3666   26.2015 H   0  0  0  0  0  0
  -28.3922  -32.6836   25.0362 H   0  0  0  0  0  0
  -28.0703  -31.8506   26.5486 H   0  0  0  0  0  0
  -28.2550  -38.0114   24.7579 H   0  0  0  0  0  0
  -28.1125  -36.2650   24.6194 H   0  0  0  0  0  0
  -27.2313  -37.1298   25.8864 H   0  0  0  0  0  0
  -20.9494  -29.8770   21.6752 H   0  0  0  0  0  0
  -26.0139  -38.2807   24.1466 H   0  0  0  0  0  0
  -31.2366  -17.6696   19.4253 H   0  0  0  0  0  0
  -28.7735  -15.5361   23.0681 H   0  0  0  0  0  0
  -27.3058  -15.5893   22.0123 H   0  0  0  0  0  0
  -27.6283  -16.8808   23.1666 H   0  0  0  0  0  0
  -30.2358  -20.6410   19.2706 H   0  0  0  0  0  0
  -30.5619  -20.8060   20.9483 H   0  0  0  0  0  0
  -29.6928  -23.4207   21.1739 H   0  0  0  0  0  0
  -29.7561  -23.3354   19.4515 H   0  0  0  0  0  0
  -27.2470  -24.3918   20.9653 H   0  0  0  0  0  0
  -27.4611  -24.3722   19.2508 H   0  0  0  0  0  0
  -27.9996  -18.7828   21.8162 H   0  0  0  0  0  0
  -28.1204  -21.5101   21.1676 H   0  0  0  0  0  0
  1 25  1  0  0  0
  1 30  2  0  0  0
  1 78  1  0  0  0
  2  3  1  0  0  0
  2 25  1  0  0  0
  2 81  1  0  0  0
  2 82  1  0  0  0
  3  4  1  0  0  0
  3 83  1  0  0  0
  3 84  1  0  0  0
  4  5  1  0  0  0
  4 85  1  0  0  0
  4 86  1  0  0  0
  5  6  1  0  0  0
  5 26  1  0  0  0
  5 87  1  0  0  0
  6 25  1  0  0  0
  6 88  1  0  0  0
  6 89  1  0  0  0
  7  8  2  0  0  0
  7 26  1  0  0  0
  7 29  1  0  0  0
  8  9  1  0  0  0
  8 22  1  0  0  0
  9 10  1  0  0  0
  9 27  2  0  0  0
 10 11  2  0  0  0
 10 15  1  0  0  0
 11 12  1  0  0  0
 11 90  1  0  0  0
 12 13  2  0  0  0
 12 91  1  0  0  0
 13 14  1  0  0  0
 13 31  1  0  0  0
 14 15  2  0  0  0
 14 92  1  0  0  0
 15 93  1  0  0  0
 16 17  2  0  0  0
 16 21  1  0  0  0
 16 31  1  0  0  0
 17 18  1  0  0  0
 17 94  1  0  0  0
 18 19  2  0  0  0
 18 95  1  0  0  0
 19 20  1  0  0  0
 19 24  1  0  0  0
 20 21  2  0  0  0
 20 96  1  0  0  0
 21 23  1  0  0  0
 22 28  1  0  0  0
 22 32  2  0  0  0
 26 27  1  0  0  0
 28 97  1  0  0  0
 28 98  1  0  0  0
 29 99  1  0  0  0
 29100  1  0  0  0
 33 34  1  0  0  0
 33 66  1  0  0  0
 33 70  2  0  0  0
 34 36  1  0  0  0
 34 59  1  0  0  0
 34101  1  0  0  0
 35 44  2  0  0  0
 35 45  1  0  0  0
 35 68  1  0  0  0
 36 56  1  0  0  0
 36102  1  0  0  0
 37 39  1  0  0  0
 37 47  1  0  0  0
 37 66  1  0  0  0
 37103  1  0  0  0
 38 43  2  0  0  0
 38 46  1  0  0  0
 38 47  1  0  0  0
 39 64  1  0  0  0
 39 67  2  0  0  0
 40 52  1  0  0  0
 40 53  2  0  0  0
 40 58  1  0  0  0
 41104  1  0  0  0
 41105  1  0  0  0
 41106  1  0  0  0
 41 48  1  0  0  0
 42 43  1  0  0  0
 42 66  1  0  0  0
 42107  1  0  0  0
 42108  1  0  0  0
 43 44  1  0  0  0
 44109  1  0  0  0
 45 46  2  0  0  0
 45110  1  0  0  0
 46111  1  0  0  0
 47112  1  0  0  0
 47113  1  0  0  0
 48 56  1  0  0  0
 48 65  1  0  0  0
 48114  1  0  0  0
 49 50  1  0  0  0
 49 53  1  0  0  0
 49 64  1  0  0  0
 49115  1  0  0  0
 50 51  1  0  0  0
 50116  1  0  0  0
 50117  1  0  0  0
 51 52  1  0  0  0
 51118  1  0  0  0
 51119  1  0  0  0
 52120  1  0  0  0
 52121  1  0  0  0
 53 54  1  0  0  0
 54 55  2  0  0  0
 54122  1  0  0  0
 55 57  1  0  0  0
 55123  1  0  0  0
 56 69  2  0  0  0
 57 58  2  0  0  0
 57124  1  0  0  0
 58125  1  0  0  0
 59 60  1  0  0  0
 59 61  1  0  0  0
 59 62  1  0  0  0
 60126  1  0  0  0
 60127  1  0  0  0
 60128  1  0  0  0
 61129  1  0  0  0
 61130  1  0  0  0
 61131  1  0  0  0
 62132  1  0  0  0
 62133  1  0  0  0
 62134  1  0  0  0
 63 65  1  0  0  0
 63135  1  0  0  0
 63136  1  0  0  0
 63137  1  0  0  0
 64138  1  0  0  0
 65139  1  0  0  0
 68 77  1  0  0  0
 71 72  2  0  0  0
 71 78  1  0  0  0
 71140  1  0  0  0
 72 75  1  0  0  0
 72 79  1  0  0  0
 73 74  1  0  0  0
 73 78  1  0  0  0
 73 79  2  0  0  0
 74141  1  0  0  0
 74142  1  0  0  0
 74143  1  0  0  0
 75 80  1  0  0  0
 75144  1  0  0  0
 75145  1  0  0  0
 76 77  1  0  0  0
 76 80  1  0  0  0
 76146  1  0  0  0
 76147  1  0  0  0
 77148  1  0  0  0
 77149  1  0  0  0
 79150  1  0  0  0
 80151  1  0  0  0
M  CHG  1  79   1
M  ISO  4   1 100  68 101  77 101  78 100
M  END
> <chiral flag>
0

> <version>
0

> <s_m_source_file>
/data/baiqing/PycharmProjects/Reinvent-master-3.2/result/LINK_invent/BTK/process_docking_weight1_custom_sum_contain_oxygen_bond_distance_aromatic_linkinvent_7_9_3/rearranged_h_0058.sdf

> <i_m_source_file_index>
59

> <r_mmod_Potential_Energy-OPLS-2005>
625.097900390625

> <r_mmod_Stretch_Energy-OPLS-2005>
319.578002929688

> <r_mmod_Bend_Energy-OPLS-2005>
339.220306396484

> <r_mmod_Torsional_Energy-OPLS-2005>
193.1494140625

> <r_mmod_Improper_Torsional_Energy-OPLS-2005>
6.13101387023926

> <r_mmod_Van_der_Waal_Energy-OPLS-2005>
118.26050567627

> <r_mmod_Electrostatic_Energy-OPLS-2005>
-151.296478271484

> <r_mmod_Solvation_Energy-OPLS-2005>
-428.222991943359

> <b_mmod_Minimization_Converged-OPLS-2005>
0

> <r_mmod_RMS_Derivative-OPLS-2005>
1.30276846885681

$$$$
59
                    3D
 Structure written by MMmdl.
161169  0  0  1  0            999 V2000
  -30.5917  -14.8010   20.5074 C   0  0  0  0  0  0
  -30.4459  -12.5088   19.4648 C   0  0  0  0  0  0
  -29.5148  -12.5451   18.2309 C   0  0  0  0  0  0
  -28.0369  -12.3631   18.6374 C   0  0  0  0  0  0
  -27.6474  -13.2271   19.8686 C   0  0  2  0  0  0
  -28.7024  -13.0866   20.9873 C   0  0  0  0  0  0
  -25.2493  -13.8170   20.5657 C   0  0  0  0  0  0
  -24.1786  -13.0447   20.9197 C   0  0  0  0  0  0
  -24.6367  -11.6920   20.8743 C   0  0  0  0  0  0
  -23.9028  -10.4306   21.0401 C   0  0  0  0  0  0
  -24.3583   -9.4226   21.9178 C   0  0  0  0  0  0
  -23.6265   -8.2259   22.0750 C   0  0  0  0  0  0
  -22.4249   -8.0281   21.3551 C   0  0  0  0  0  0
  -21.9883   -9.0250   20.4647 C   0  0  0  0  0  0
  -22.7197  -10.2138   20.3056 C   0  0  0  0  0  0
  -21.6855   -6.0715   22.5267 C   0  0  0  0  0  0
  -21.4014   -6.5623   23.8196 C   0  0  0  0  0  0
  -21.3671   -5.6780   24.9163 C   0  0  0  0  0  0
  -21.6050   -4.3041   24.7216 C   0  0  0  0  0  0
  -21.8823   -3.8127   23.4336 C   0  0  0  0  0  0
  -21.9188   -4.6942   22.3390 C   0  0  0  0  0  0
  -22.7803  -13.5245   21.1858 C   0  0  0  0  0  0
  -22.1663   -4.2131   21.0969 F   0  0  0  0  0  0
  -21.5640   -3.4531   25.7730 F   0  0  0  0  0  0
  -29.9786  -13.5530   20.4202 N   0  0  0  0  0  0
  -26.2959  -12.9384   20.3369 N   0  0  0  0  0  0
  -25.9311  -11.6530   20.5778 N   0  0  0  0  0  0
  -22.0424  -12.8255   22.0406 N   0  0  0  0  0  0
  -25.4107  -15.1895   20.4004 N   0  0  0  0  0  0
  -31.7591  -14.8801   20.1043 O   0  0  0  0  0  0
  -21.6641   -6.8860   21.4232 O   0  0  0  0  0  0
  -22.3495  -14.5551   20.6683 O   0  0  0  0  0  0
  -24.6358  -31.8541   23.1931 C   0  0  0  0  0  0
  -25.9168  -32.4746   23.8295 C   0  0  1  0  0  0
  -27.2190  -27.2368   20.1572 C   0  0  0  0  0  0
  -25.5957  -33.8535   24.2239 N   0  0  0  0  0  0
  -23.4325  -30.4762   21.5343 C   0  0  2  0  0  0
  -24.8818  -28.9127   20.1156 C   0  0  0  0  0  0
  -22.7524  -29.4621   22.4873 C   0  0  0  0  0  0
  -18.0347  -28.1416   22.8490 C   0  0  0  0  0  0
  -24.1505  -36.7267   23.2648 C   0  0  0  0  0  0
  -25.9814  -30.7615   21.3762 C   0  0  0  0  0  0
  -26.0534  -29.3784   20.7275 C   0  0  0  0  0  0
  -27.2296  -28.5538   20.7338 C   0  0  0  0  0  0
  -26.0302  -26.8464   19.5109 C   0  0  0  0  0  0
  -24.8747  -27.6538   19.4953 C   0  0  0  0  0  0
  -23.6546  -29.8064   20.1514 C   0  0  0  0  0  0
  -25.4126  -36.3048   24.0334 C   0  0  1  0  0  0
  -20.5937  -28.3786   23.1284 C   0  0  2  0  0  0
  -20.6840  -26.9468   22.5510 C   0  0  0  0  0  0
  -19.5850  -26.6384   21.5284 C   0  0  0  0  0  0
  -18.2021  -26.7922   22.1716 C   0  0  0  0  0  0
  -19.1582  -28.8934   23.2856 C   0  0  0  0  0  0
  -18.9477  -30.1556   23.8829 C   0  0  0  0  0  0
  -17.6448  -30.6631   24.0492 C   0  0  0  0  0  0
  -25.9069  -34.9427   23.5084 C   0  0  0  0  0  0
  -16.5358  -29.9085   23.6307 C   0  0  0  0  0  0
  -16.7309  -28.6503   23.0336 C   0  0  0  0  0  0
  -26.4518  -31.6577   25.0688 C   0  0  0  0  0  0
  -25.3733  -31.3741   26.1398 C   0  0  0  0  0  0
  -27.0392  -30.2990   24.6223 C   0  0  0  0  0  0
  -27.6090  -32.4286   25.7474 C   0  0  0  0  0  0
  -27.5577  -37.1799   24.8470 C   0  0  0  0  0  0
  -21.4226  -29.3079   22.3582 N   0  0  0  0  0  0
  -26.4290  -37.3748   23.9412 N   0  0  0  0  0  0
  -24.7024  -31.0491   22.0911 N   0  0  0  0  0  0
  -23.4200  -28.8155   23.2989 O   0  0  0  0  0  0
  -28.3026  -26.3263   20.1314 O   0  0  0  0  0  0
  -26.5639  -34.8927   22.4655 O   0  0  0  0  0  0
  -23.5497  -32.1369   23.7206 O   0  0  0  0  0  0
  -29.8287  -18.8259   20.6418 C   0  0  0  0  0  0
  -30.1639  -19.3944   21.9188 C   0  0  0  0  0  0
  -26.9966  -23.4064   19.5149 C   0  0  0  0  0  0
  -27.3209  -22.9176   21.9056 C   0  0  0  0  0  0
  -28.8424  -16.0852   21.7877 C   0  0  0  0  0  0
  -30.1434  -17.3591   20.0525 C   0  0  0  0  0  0
  -29.2652  -22.4803   20.3001 C   0  0  0  0  0  0
  -28.2952  -25.0960   21.0045 C   0  0  0  0  0  0
  -30.8786  -18.7467   23.0841 C   0  0  0  0  0  0
  -28.0240  -23.4963   20.6540 C   0  0  0  0  0  0
  -29.3500  -19.8583   19.9174 N   0  0  0  0  0  0
  -29.8361  -20.6799   21.9718 N   0  0  0  0  0  0
  -29.3545  -20.9959   20.7416 N   0  0  0  0  0  0
  -29.8525  -15.9910   20.7252 N   0  0  0  0  0  0
  -31.3204  -17.5231   22.8004 F   0  0  0  0  0  0
  -31.9429  -19.4620   23.4537 F   0  0  0  0  0  0
  -30.0781  -18.6511   24.1455 F   0  0  0  0  0  0
  -31.4814  -12.6593   19.1503 H   0  0  0  0  0  0
  -30.4295  -11.5197   19.9264 H   0  0  0  0  0  0
  -29.8048  -11.7776   17.5118 H   0  0  0  0  0  0
  -29.6335  -13.5011   17.7168 H   0  0  0  0  0  0
  -27.8765  -11.3068   18.8601 H   0  0  0  0  0  0
  -27.3866  -12.5961   17.7955 H   0  0  0  0  0  0
  -27.6552  -14.2644   19.5330 H   0  0  0  0  0  0
  -28.7797  -12.0385   21.2850 H   0  0  0  0  0  0
  -28.4247  -13.5915   21.9072 H   0  0  0  0  0  0
  -25.2736   -9.5719   22.4736 H   0  0  0  0  0  0
  -23.9978   -7.4660   22.7472 H   0  0  0  0  0  0
  -21.0821   -8.8773   19.8940 H   0  0  0  0  0  0
  -22.3648  -10.9678   19.6163 H   0  0  0  0  0  0
  -21.1991   -7.6131   23.9698 H   0  0  0  0  0  0
  -21.1501   -6.0507   25.9071 H   0  0  0  0  0  0
  -22.0574   -2.7587   23.2840 H   0  0  0  0  0  0
  -22.4049  -11.9954   22.4864 H   0  0  0  0  0  0
  -21.1023  -13.1289   22.2560 H   0  0  0  0  0  0
  -24.6331  -15.8332   20.4978 H   0  0  0  0  0  0
  -26.2547  -15.6345   20.0656 H   0  0  0  0  0  0
  -26.7222  -32.5390   23.1021 H   0  0  0  0  0  0
  -25.0092  -33.9676   25.0371 H   0  0  0  0  0  0
  -22.7302  -31.3015   21.3851 H   0  0  0  0  0  0
  -23.3762  -35.9598   23.3293 H   0  0  0  0  0  0
  -24.3604  -36.8890   22.2064 H   0  0  0  0  0  0
  -23.7259  -37.6469   23.6666 H   0  0  0  0  0  0
  -26.1265  -31.5163   20.6018 H   0  0  0  0  0  0
  -26.8567  -30.8089   22.0128 H   0  0  0  0  0  0
  -28.1306  -28.9163   21.2108 H   0  0  0  0  0  0
  -25.9888  -25.8927   19.0115 H   0  0  0  0  0  0
  -23.9838  -27.2912   19.0008 H   0  0  0  0  0  0
  -23.7913  -30.5809   19.3959 H   0  0  0  0  0  0
  -22.7706  -29.2474   19.8390 H   0  0  0  0  0  0
  -25.1304  -36.1885   25.0818 H   0  0  0  0  0  0
  -20.9973  -28.3527   24.1426 H   0  0  0  0  0  0
  -20.5682  -26.2437   23.3777 H   0  0  0  0  0  0
  -21.6757  -26.7448   22.1407 H   0  0  0  0  0  0
  -19.7033  -25.6292   21.1347 H   0  0  0  0  0  0
  -19.6827  -27.3148   20.6775 H   0  0  0  0  0  0
  -17.4248  -26.6605   21.4177 H   0  0  0  0  0  0
  -18.0465  -26.0120   22.9192 H   0  0  0  0  0  0
  -19.7881  -30.7464   24.2234 H   0  0  0  0  0  0
  -17.4935  -31.6311   24.5069 H   0  0  0  0  0  0
  -15.5339  -30.2934   23.7672 H   0  0  0  0  0  0
  -15.8745  -28.0783   22.7015 H   0  0  0  0  0  0
  -24.5914  -30.7091   25.7699 H   0  0  0  0  0  0
  -24.8929  -32.2918   26.4795 H   0  0  0  0  0  0
  -25.8035  -30.8917   27.0185 H   0  0  0  0  0  0
  -26.3000  -29.6698   24.1253 H   0  0  0  0  0  0
  -27.4052  -29.7295   25.4779 H   0  0  0  0  0  0
  -27.8868  -30.4243   23.9487 H   0  0  0  0  0  0
  -27.2735  -33.3586   26.2072 H   0  0  0  0  0  0
  -28.3922  -32.6831   25.0323 H   0  0  0  0  0  0
  -28.0736  -31.8379   26.5389 H   0  0  0  0  0  0
  -28.2601  -38.0098   24.7495 H   0  0  0  0  0  0
  -28.1076  -36.2620   24.6300 H   0  0  0  0  0  0
  -27.2300  -37.1430   25.8882 H   0  0  0  0  0  0
  -20.9475  -29.8650   21.6605 H   0  0  0  0  0  0
  -26.0168  -38.2823   24.1374 H   0  0  0  0  0  0
  -26.7675  -22.3694   19.2704 H   0  0  0  0  0  0
  -27.3610  -23.8894   18.6100 H   0  0  0  0  0  0
  -26.0549  -23.8767   19.7964 H   0  0  0  0  0  0
  -27.0050  -21.8850   21.7574 H   0  0  0  0  0  0
  -26.4208  -23.4798   22.1607 H   0  0  0  0  0  0
  -27.9742  -22.9404   22.7799 H   0  0  0  0  0  0
  -28.6018  -17.1068   22.0787 H   0  0  0  0  0  0
  -29.1804  -15.5827   22.6954 H   0  0  0  0  0  0
  -27.8985  -15.6503   21.4748 H   0  0  0  0  0  0
  -31.2030  -17.3497   19.7967 H   0  0  0  0  0  0
  -29.6484  -17.2883   19.0810 H   0  0  0  0  0  0
  -30.1534  -22.9510   20.7228 H   0  0  0  0  0  0
  -29.4447  -22.5057   19.2257 H   0  0  0  0  0  0
  -29.2466  -25.1268   21.5364 H   0  0  0  0  0  0
  -27.5822  -25.3672   21.7833 H   0  0  0  0  0  0
  1 25  1  0  0  0
  1 30  2  0  0  0
  1 84  1  0  0  0
  2  3  1  0  0  0
  2 25  1  0  0  0
  2 88  1  0  0  0
  2 89  1  0  0  0
  3  4  1  0  0  0
  3 90  1  0  0  0
  3 91  1  0  0  0
  4  5  1  0  0  0
  4 92  1  0  0  0
  4 93  1  0  0  0
  5  6  1  0  0  0
  5 26  1  0  0  0
  5 94  1  0  0  0
  6 25  1  0  0  0
  6 95  1  0  0  0
  6 96  1  0  0  0
  7  8  2  0  0  0
  7 26  1  0  0  0
  7 29  1  0  0  0
  8  9  1  0  0  0
  8 22  1  0  0  0
  9 10  1  0  0  0
  9 27  2  0  0  0
 10 11  2  0  0  0
 10 15  1  0  0  0
 11 12  1  0  0  0
 11 97  1  0  0  0
 12 13  2  0  0  0
 12 98  1  0  0  0
 13 14  1  0  0  0
 13 31  1  0  0  0
 14 15  2  0  0  0
 14 99  1  0  0  0
 15100  1  0  0  0
 16 17  2  0  0  0
 16 21  1  0  0  0
 16 31  1  0  0  0
 17 18  1  0  0  0
 17101  1  0  0  0
 18 19  2  0  0  0
 18102  1  0  0  0
 19 20  1  0  0  0
 19 24  1  0  0  0
 20 21  2  0  0  0
 20103  1  0  0  0
 21 23  1  0  0  0
 22 28  1  0  0  0
 22 32  2  0  0  0
 26 27  1  0  0  0
 28104  1  0  0  0
 28105  1  0  0  0
 29106  1  0  0  0
 29107  1  0  0  0
 33 34  1  0  0  0
 33 66  1  0  0  0
 33 70  2  0  0  0
 34 36  1  0  0  0
 34 59  1  0  0  0
 34108  1  0  0  0
 35 44  2  0  0  0
 35 45  1  0  0  0
 35 68  1  0  0  0
 36 56  1  0  0  0
 36109  1  0  0  0
 37 39  1  0  0  0
 37 47  1  0  0  0
 37 66  1  0  0  0
 37110  1  0  0  0
 38 43  2  0  0  0
 38 46  1  0  0  0
 38 47  1  0  0  0
 39 64  1  0  0  0
 39 67  2  0  0  0
 40 52  1  0  0  0
 40 53  2  0  0  0
 40 58  1  0  0  0
 41111  1  0  0  0
 41112  1  0  0  0
 41113  1  0  0  0
 41 48  1  0  0  0
 42 43  1  0  0  0
 42 66  1  0  0  0
 42114  1  0  0  0
 42115  1  0  0  0
 43 44  1  0  0  0
 44116  1  0  0  0
 45 46  2  0  0  0
 45117  1  0  0  0
 46118  1  0  0  0
 47119  1  0  0  0
 47120  1  0  0  0
 48 56  1  0  0  0
 48 65  1  0  0  0
 48121  1  0  0  0
 49 50  1  0  0  0
 49 53  1  0  0  0
 49 64  1  0  0  0
 49122  1  0  0  0
 50 51  1  0  0  0
 50123  1  0  0  0
 50124  1  0  0  0
 51 52  1  0  0  0
 51125  1  0  0  0
 51126  1  0  0  0
 52127  1  0  0  0
 52128  1  0  0  0
 53 54  1  0  0  0
 54 55  2  0  0  0
 54129  1  0  0  0
 55 57  1  0  0  0
 55130  1  0  0  0
 56 69  2  0  0  0
 57 58  2  0  0  0
 57131  1  0  0  0
 58132  1  0  0  0
 59 60  1  0  0  0
 59 61  1  0  0  0
 59 62  1  0  0  0
 60133  1  0  0  0
 60134  1  0  0  0
 60135  1  0  0  0
 61136  1  0  0  0
 61137  1  0  0  0
 61138  1  0  0  0
 62139  1  0  0  0
 62140  1  0  0  0
 62141  1  0  0  0
 63 65  1  0  0  0
 63142  1  0  0  0
 63143  1  0  0  0
 63144  1  0  0  0
 64145  1  0  0  0
 65146  1  0  0  0
 68 78  1  0  0  0
 71 72  1  0  0  0
 71 76  1  0  0  0
 71 81  2  0  0  0
 72 79  1  0  0  0
 72 82  2  0  0  0
 73147  1  0  0  0
 73148  1  0  0  0
 73149  1  0  0  0
 73 80  1  0  0  0
 74 80  1  0  0  0
 74150  1  0  0  0
 74151  1  0  0  0
 74152  1  0  0  0
 75 84  1  0  0  0
 75153  1  0  0  0
 75154  1  0  0  0
 75155  1  0  0  0
 76 84  1  0  0  0
 76156  1  0  0  0
 76157  1  0  0  0
 77 80  1  0  0  0
 77 83  1  0  0  0
 77158  1  0  0  0
 77159  1  0  0  0
 78 80  1  0  0  0
 78160  1  0  0  0
 78161  1  0  0  0
 79 85  1  0  0  0
 79 86  1  0  0  0
 79 87  1  0  0  0
 81 83  1  0  0  0
 82 83  1  0  0  0
M  ISO  4   1 100  68 101  78 101  84 100
M  END
> <chiral flag>
0

> <version>
0

> <s_m_source_file>
/data/baiqing/PycharmProjects/Reinvent-master-3.2/result/LINK_invent/BTK/process_docking_weight1_custom_sum_contain_oxygen_bond_distance_aromatic_linkinvent_7_9_3/rearranged_h_0058.sdf

> <i_m_source_file_index>
60

> <r_mmod_Potential_Energy-OPLS-2005>
503.115844726562

> <r_mmod_Stretch_Energy-OPLS-2005>
168.817199707031

> <r_mmod_Bend_Energy-OPLS-2005>
249.978729248047

> <r_mmod_Torsional_Energy-OPLS-2005>
299.9248046875

> <r_mmod_Improper_Torsional_Energy-OPLS-2005>
11.8150835037231

> <r_mmod_Van_der_Waal_Energy-OPLS-2005>
121.185089111328

> <r_mmod_Electrostatic_Energy-OPLS-2005>
-257.965148925781

> <r_mmod_Solvation_Energy-OPLS-2005>
-187.804534912109

> <b_mmod_Minimization_Converged-OPLS-2005>
0

> <r_mmod_RMS_Derivative-OPLS-2005>
3.76659774780273

$$$$
60
                    3D
 Structure written by MMmdl.
148156  0  0  1  0            999 V2000
  -30.4714  -15.2178   20.3767 C   0  0  0  0  0  0
  -30.4364  -12.7754   19.5235 C   0  0  0  0  0  0
  -29.5346  -12.5670   18.2818 C   0  0  0  0  0  0
  -28.0804  -12.3000   18.7071 C   0  0  0  0  0  0
  -27.6143  -13.2724   19.8197 C   0  0  2  0  0  0
  -28.6478  -13.4347   20.9556 C   0  0  0  0  0  0
  -25.2408  -13.8240   20.5714 C   0  0  0  0  0  0
  -24.1756  -13.0440   20.9248 C   0  0  0  0  0  0
  -24.6408  -11.6936   20.8767 C   0  0  0  0  0  0
  -23.9105  -10.4297   21.0414 C   0  0  0  0  0  0
  -24.3653   -9.4206   21.9190 C   0  0  0  0  0  0
  -23.6319   -8.2241   22.0756 C   0  0  0  0  0  0
  -22.4297   -8.0289   21.3551 C   0  0  0  0  0  0
  -21.9937   -9.0259   20.4649 C   0  0  0  0  0  0
  -22.7274  -10.2132   20.3064 C   0  0  0  0  0  0
  -21.6852   -6.0752   22.5288 C   0  0  0  0  0  0
  -21.4008   -6.5655   23.8225 C   0  0  0  0  0  0
  -21.3658   -5.6799   24.9179 C   0  0  0  0  0  0
  -21.6041   -4.3064   24.7222 C   0  0  0  0  0  0
  -21.8820   -3.8160   23.4344 C   0  0  0  0  0  0
  -21.9186   -4.6977   22.3402 C   0  0  0  0  0  0
  -22.7776  -13.5200   21.1895 C   0  0  0  0  0  0
  -22.1662   -4.2167   21.0978 F   0  0  0  0  0  0
  -21.5622   -3.4543   25.7737 F   0  0  0  0  0  0
  -29.8875  -13.9234   20.3336 N   0  0  0  0  0  0
  -26.2834  -12.9507   20.3182 N   0  0  0  0  0  0
  -25.9346  -11.6622   20.5711 N   0  0  0  0  0  0
  -22.0433  -12.8190   22.0443 N   0  0  0  0  0  0
  -25.4062  -15.1960   20.4137 N   0  0  0  0  0  0
  -31.6916  -15.1998   20.1655 O   0  0  0  0  0  0
  -21.6645   -6.8897   21.4255 O   0  0  0  0  0  0
  -22.3463  -14.5496   20.6718 O   0  0  0  0  0  0
  -24.6620  -31.8263   23.1721 C   0  0  0  0  0  0
  -25.9314  -32.4611   23.8180 C   0  0  1  0  0  0
  -27.2094  -26.9472   20.1816 C   0  0  0  0  0  0
  -25.5989  -33.8423   24.2090 N   0  0  0  0  0  0
  -23.4755  -30.4426   21.5198 C   0  0  2  0  0  0
  -24.9267  -28.8382   20.1101 C   0  0  0  0  0  0
  -22.7665  -29.4476   22.4763 C   0  0  0  0  0  0
  -18.0324  -28.1418   22.8475 C   0  0  0  0  0  0
  -24.1488  -36.7212   23.2645 C   0  0  0  0  0  0
  -26.0456  -30.6406   21.3992 C   0  0  0  0  0  0
  -26.1113  -29.2330   20.7447 C   0  0  0  0  0  0
  -27.2485  -28.3086   20.7584 C   0  0  0  0  0  0
  -25.9961  -26.7064   19.4953 C   0  0  0  0  0  0
  -24.8946  -27.5950   19.4650 C   0  0  0  0  0  0
  -23.7137  -29.7646   20.1438 C   0  0  0  0  0  0
  -25.4124  -36.2979   24.0314 C   0  0  1  0  0  0
  -20.5959  -28.3767   23.1180 C   0  0  2  0  0  0
  -20.6807  -26.9447   22.5393 C   0  0  0  0  0  0
  -19.5769  -26.6382   21.5219 C   0  0  0  0  0  0
  -18.1952  -26.7956   22.1625 C   0  0  0  0  0  0
  -19.1590  -28.8907   23.2820 C   0  0  0  0  0  0
  -18.9498  -30.1496   23.8862 C   0  0  0  0  0  0
  -17.6492  -30.6609   24.0554 C   0  0  0  0  0  0
  -25.9093  -34.9365   23.5013 C   0  0  0  0  0  0
  -16.5381  -29.9104   23.6340 C   0  0  0  0  0  0
  -16.7309  -28.6519   23.0372 C   0  0  0  0  0  0
  -26.4558  -31.6548   25.0703 C   0  0  0  0  0  0
  -25.3683  -31.3841   26.1358 C   0  0  0  0  0  0
  -27.0423  -30.2908   24.6440 C   0  0  0  0  0  0
  -27.6067  -32.4348   25.7485 C   0  0  0  0  0  0
  -27.5578  -37.1736   24.8448 C   0  0  0  0  0  0
  -21.4333  -29.3065   22.3525 N   0  0  0  0  0  0
  -26.4253  -37.3727   23.9448 N   0  0  0  0  0  0
  -24.7493  -30.9969   22.0835 N   0  0  0  0  0  0
  -23.4228  -28.8032   23.2985 O   0  0  0  0  0  0
  -28.1916  -25.8284   20.2647 O   0  0  0  0  0  0
  -26.5688  -34.8901   22.4606 O   0  0  0  0  0  0
  -23.5693  -32.1211   23.6816 O   0  0  0  0  0  0
  -27.9447  -21.4998   19.5071 C   0  0  0  0  0  0
  -29.9399  -20.8282   21.0765 C   0  0  0  0  0  0
  -28.5069  -22.6657   20.1942 C   0  0  0  0  0  0
  -29.3768  -19.6619   20.3742 C   0  0  0  0  0  0
  -30.7831  -18.1536   18.8081 C   0  0  0  0  0  0
  -27.7792  -24.2548   20.0833 C   0  0  0  0  0  0
  -30.1369  -18.0967   20.2034 C   0  0  2  0  0  0
  -29.5367  -22.2038   21.0186 N   0  0  0  0  0  0
  -28.3409  -20.1305   19.5696 N   0  0  0  0  0  0
  -29.7378  -16.5018   20.4422 N   0  0  0  0  0  0
  -31.4607  -12.9606   19.1985 H   0  0  0  0  0  0
  -30.4837  -11.8659   20.1237 H   0  0  0  0  0  0
  -29.9084  -11.7406   17.6758 H   0  0  0  0  0  0
  -29.5746  -13.4545   17.6488 H   0  0  0  0  0  0
  -28.0302  -11.2744   19.0748 H   0  0  0  0  0  0
  -27.4121  -12.3503   17.8460 H   0  0  0  0  0  0
  -27.5333  -14.2418   19.3266 H   0  0  0  0  0  0
  -28.8026  -12.4968   21.4908 H   0  0  0  0  0  0
  -28.2926  -14.1596   21.6901 H   0  0  0  0  0  0
  -25.2801   -9.5669   22.4762 H   0  0  0  0  0  0
  -24.0024   -7.4630   22.7479 H   0  0  0  0  0  0
  -21.0863   -8.8781   19.8960 H   0  0  0  0  0  0
  -22.3740  -10.9670   19.6171 H   0  0  0  0  0  0
  -21.2005   -7.6168   23.9729 H   0  0  0  0  0  0
  -21.1476   -6.0532   25.9081 H   0  0  0  0  0  0
  -22.0596   -2.7625   23.2830 H   0  0  0  0  0  0
  -22.4065  -11.9868   22.4848 H   0  0  0  0  0  0
  -21.1043  -13.1193   22.2639 H   0  0  0  0  0  0
  -24.6340  -15.8467   20.5122 H   0  0  0  0  0  0
  -26.2462  -15.6318   20.0554 H   0  0  0  0  0  0
  -26.7387  -32.5139   23.0900 H   0  0  0  0  0  0
  -25.0128  -33.9512   25.0239 H   0  0  0  0  0  0
  -22.7896  -31.2751   21.3518 H   0  0  0  0  0  0
  -23.3778  -35.9503   23.3214 H   0  0  0  0  0  0
  -24.3601  -36.8940   22.2077 H   0  0  0  0  0  0
  -23.7176  -37.6359   23.6740 H   0  0  0  0  0  0
  -26.2262  -31.3807   20.6186 H   0  0  0  0  0  0
  -26.9065  -30.6948   22.0540 H   0  0  0  0  0  0
  -28.1431  -28.6064   21.2867 H   0  0  0  0  0  0
  -25.8489  -25.7627   18.9939 H   0  0  0  0  0  0
  -23.9969  -27.2896   18.9452 H   0  0  0  0  0  0
  -23.8682  -30.5339   19.3857 H   0  0  0  0  0  0
  -22.8229  -29.2209   19.8251 H   0  0  0  0  0  0
  -25.1302  -36.1766   25.0797 H   0  0  0  0  0  0
  -21.0047  -28.3361   24.1306 H   0  0  0  0  0  0
  -20.5683  -26.2395   23.3644 H   0  0  0  0  0  0
  -21.6665  -26.7424   22.1189 H   0  0  0  0  0  0
  -19.6922  -25.6277   21.1288 H   0  0  0  0  0  0
  -19.6697  -27.3163   20.6729 H   0  0  0  0  0  0
  -17.4217  -26.6705   21.4031 H   0  0  0  0  0  0
  -18.0332  -26.0121   22.9035 H   0  0  0  0  0  0
  -19.7974  -30.7314   24.2223 H   0  0  0  0  0  0
  -17.5051  -31.6288   24.5154 H   0  0  0  0  0  0
  -15.5379  -30.2992   23.7696 H   0  0  0  0  0  0
  -15.8708  -28.0816   22.7127 H   0  0  0  0  0  0
  -24.5840  -30.7223   25.7675 H   0  0  0  0  0  0
  -24.8899  -32.3062   26.4670 H   0  0  0  0  0  0
  -25.7887  -30.9060   27.0215 H   0  0  0  0  0  0
  -26.3071  -29.6610   24.1424 H   0  0  0  0  0  0
  -27.3916  -29.7275   25.5108 H   0  0  0  0  0  0
  -27.9042  -30.4090   23.9874 H   0  0  0  0  0  0
  -27.2670  -33.3717   26.1926 H   0  0  0  0  0  0
  -28.3942  -32.6801   25.0343 H   0  0  0  0  0  0
  -28.0669  -31.8554   26.5509 H   0  0  0  0  0  0
  -28.2493  -38.0130   24.7612 H   0  0  0  0  0  0
  -28.1157  -36.2666   24.6084 H   0  0  0  0  0  0
  -27.2333  -37.1146   25.8850 H   0  0  0  0  0  0
  -20.9575  -29.8800   21.6695 H   0  0  0  0  0  0
  -26.0090  -38.2760   24.1541 H   0  0  0  0  0  0
  -27.0987  -21.6715   18.8567 H   0  0  0  0  0  0
  -30.8130  -20.6614   21.6919 H   0  0  0  0  0  0
  -31.3166  -19.0928   18.6599 H   0  0  0  0  0  0
  -30.0220  -18.0873   18.0305 H   0  0  0  0  0  0
  -31.5029  -17.3532   18.6403 H   0  0  0  0  0  0
  -26.8901  -24.1537   20.7052 H   0  0  0  0  0  0
  -27.3997  -24.2271   19.0631 H   0  0  0  0  0  0
  -30.9628  -18.1974   20.9088 H   0  0  0  0  0  0
  -28.7517  -16.3716   20.6112 H   0  0  0  0  0  0
  1 25  1  0  0  0
  1 30  2  0  0  0
  1 80  1  0  0  0
  2  3  1  0  0  0
  2 25  1  0  0  0
  2 81  1  0  0  0
  2 82  1  0  0  0
  3  4  1  0  0  0
  3 83  1  0  0  0
  3 84  1  0  0  0
  4  5  1  0  0  0
  4 85  1  0  0  0
  4 86  1  0  0  0
  5  6  1  0  0  0
  5 26  1  0  0  0
  5 87  1  0  0  0
  6 25  1  0  0  0
  6 88  1  0  0  0
  6 89  1  0  0  0
  7  8  2  0  0  0
  7 26  1  0  0  0
  7 29  1  0  0  0
  8  9  1  0  0  0
  8 22  1  0  0  0
  9 10  1  0  0  0
  9 27  2  0  0  0
 10 11  2  0  0  0
 10 15  1  0  0  0
 11 12  1  0  0  0
 11 90  1  0  0  0
 12 13  2  0  0  0
 12 91  1  0  0  0
 13 14  1  0  0  0
 13 31  1  0  0  0
 14 15  2  0  0  0
 14 92  1  0  0  0
 15 93  1  0  0  0
 16 17  2  0  0  0
 16 21  1  0  0  0
 16 31  1  0  0  0
 17 18  1  0  0  0
 17 94  1  0  0  0
 18 19  2  0  0  0
 18 95  1  0  0  0
 19 20  1  0  0  0
 19 24  1  0  0  0
 20 21  2  0  0  0
 20 96  1  0  0  0
 21 23  1  0  0  0
 22 28  1  0  0  0
 22 32  2  0  0  0
 26 27  1  0  0  0
 28 97  1  0  0  0
 28 98  1  0  0  0
 29 99  1  0  0  0
 29100  1  0  0  0
 33 34  1  0  0  0
 33 66  1  0  0  0
 33 70  2  0  0  0
 34 36  1  0  0  0
 34 59  1  0  0  0
 34101  1  0  0  0
 35 44  2  0  0  0
 35 45  1  0  0  0
 35 68  1  0  0  0
 36 56  1  0  0  0
 36102  1  0  0  0
 37 39  1  0  0  0
 37 47  1  0  0  0
 37 66  1  0  0  0
 37103  1  0  0  0
 38 43  2  0  0  0
 38 46  1  0  0  0
 38 47  1  0  0  0
 39 64  1  0  0  0
 39 67  2  0  0  0
 40 52  1  0  0  0
 40 53  2  0  0  0
 40 58  1  0  0  0
 41104  1  0  0  0
 41105  1  0  0  0
 41106  1  0  0  0
 41 48  1  0  0  0
 42 43  1  0  0  0
 42 66  1  0  0  0
 42107  1  0  0  0
 42108  1  0  0  0
 43 44  1  0  0  0
 44109  1  0  0  0
 45 46  2  0  0  0
 45110  1  0  0  0
 46111  1  0  0  0
 47112  1  0  0  0
 47113  1  0  0  0
 48 56  1  0  0  0
 48 65  1  0  0  0
 48114  1  0  0  0
 49 50  1  0  0  0
 49 53  1  0  0  0
 49 64  1  0  0  0
 49115  1  0  0  0
 50 51  1  0  0  0
 50116  1  0  0  0
 50117  1  0  0  0
 51 52  1  0  0  0
 51118  1  0  0  0
 51119  1  0  0  0
 52120  1  0  0  0
 52121  1  0  0  0
 53 54  1  0  0  0
 54 55  2  0  0  0
 54122  1  0  0  0
 55 57  1  0  0  0
 55123  1  0  0  0
 56 69  2  0  0  0
 57 58  2  0  0  0
 57124  1  0  0  0
 58125  1  0  0  0
 59 60  1  0  0  0
 59 61  1  0  0  0
 59 62  1  0  0  0
 60126  1  0  0  0
 60127  1  0  0  0
 60128  1  0  0  0
 61129  1  0  0  0
 61130  1  0  0  0
 61131  1  0  0  0
 62132  1  0  0  0
 62133  1  0  0  0
 62134  1  0  0  0
 63 65  1  0  0  0
 63135  1  0  0  0
 63136  1  0  0  0
 63137  1  0  0  0
 64138  1  0  0  0
 65139  1  0  0  0
 68 76  1  0  0  0
 71 73  2  0  0  0
 71 79  1  0  0  0
 71140  1  0  0  0
 72 74  1  0  0  0
 72 78  2  0  0  0
 72141  1  0  0  0
 73 76  1  0  0  0
 73 78  1  0  0  0
 74 77  1  0  0  0
 74 79  2  0  0  0
 75142  1  0  0  0
 75143  1  0  0  0
 75144  1  0  0  0
 75 77  1  0  0  0
 76145  1  0  0  0
 76146  1  0  0  0
 77 80  1  0  0  0
 77147  1  0  0  0
 80148  1  0  0  0
M  ISO  4   1 100  68 101  76 101  80 100
M  END
> <chiral flag>
0

> <version>
0

> <s_m_source_file>
/data/baiqing/PycharmProjects/Reinvent-master-3.2/result/LINK_invent/BTK/process_docking_weight1_custom_sum_contain_oxygen_bond_distance_aromatic_linkinvent_7_9_3/rearranged_h_0058.sdf

> <i_m_source_file_index>
61

> <r_mmod_Potential_Energy-OPLS-2005>
1181.44128417969

> <r_mmod_Stretch_Energy-OPLS-2005>
500.701019287109

> <r_mmod_Bend_Energy-OPLS-2005>
444.829254150391

> <r_mmod_Torsional_Energy-OPLS-2005>
206.243377685547

> <r_mmod_Improper_Torsional_Energy-OPLS-2005>
7.70886373519897

> <r_mmod_Van_der_Waal_Energy-OPLS-2005>
135.286590576172

> <r_mmod_Electrostatic_Energy-OPLS-2005>
-301.779327392578

> <r_mmod_Solvation_Energy-OPLS-2005>
-232.690002441406

> <b_mmod_Minimization_Converged-OPLS-2005>
0

> <r_mmod_RMS_Derivative-OPLS-2005>
1.96933960914612

$$$$
61
                    3D
 Structure written by MMmdl.
159167  0  0  1  0            999 V2000
  -30.5494  -15.0000   20.3678 C   0  0  0  0  0  0
  -30.4118  -12.6016   19.5347 C   0  0  0  0  0  0
  -29.5294  -12.6045   18.2688 C   0  0  0  0  0  0
  -28.0427  -12.4317   18.6216 C   0  0  0  0  0  0
  -27.6254  -13.2871   19.8432 C   0  0  2  0  0  0
  -28.6660  -13.3396   20.9863 C   0  0  0  0  0  0
  -25.2403  -13.8273   20.5606 C   0  0  0  0  0  0
  -24.1788  -13.0413   20.9188 C   0  0  0  0  0  0
  -24.6521  -11.6930   20.8743 C   0  0  0  0  0  0
  -23.9227  -10.4291   21.0395 C   0  0  0  0  0  0
  -24.3738   -9.4207   21.9182 C   0  0  0  0  0  0
  -23.6370   -8.2263   22.0746 C   0  0  0  0  0  0
  -22.4321   -8.0331   21.3551 C   0  0  0  0  0  0
  -22.0025   -9.0306   20.4622 C   0  0  0  0  0  0
  -22.7417  -10.2150   20.3025 C   0  0  0  0  0  0
  -21.6898   -6.0794   22.5251 C   0  0  0  0  0  0
  -21.4069   -6.5676   23.8194 C   0  0  0  0  0  0
  -21.3662   -5.6808   24.9140 C   0  0  0  0  0  0
  -21.6076   -4.3076   24.7184 C   0  0  0  0  0  0
  -21.8828   -3.8183   23.4300 C   0  0  0  0  0  0
  -21.9214   -4.7020   22.3372 C   0  0  0  0  0  0
  -22.7809  -13.5155   21.1884 C   0  0  0  0  0  0
  -22.1669   -4.2211   21.0946 F   0  0  0  0  0  0
  -21.5620   -3.4549   25.7700 F   0  0  0  0  0  0
  -29.9574  -13.7301   20.4058 N   0  0  0  0  0  0
  -26.2893  -12.9568   20.3201 N   0  0  0  0  0  0
  -25.9465  -11.6647   20.5722 N   0  0  0  0  0  0
  -22.0494  -12.8054   22.0401 N   0  0  0  0  0  0
  -25.4026  -15.1992   20.4026 N   0  0  0  0  0  0
  -31.7154  -15.0501   19.9650 O   0  0  0  0  0  0
  -21.6685   -6.8925   21.4212 O   0  0  0  0  0  0
  -22.3441  -14.5426   20.6746 O   0  0  0  0  0  0
  -24.6451  -31.8440   23.1882 C   0  0  0  0  0  0
  -25.9221  -32.4709   23.8346 C   0  0  1  0  0  0
  -27.2130  -27.0717   20.2163 C   0  0  0  0  0  0
  -25.5989  -33.8536   24.2259 N   0  0  0  0  0  0
  -23.4551  -30.4518   21.5403 C   0  0  2  0  0  0
  -24.9081  -28.8541   20.1364 C   0  0  0  0  0  0
  -22.7619  -29.4488   22.4954 C   0  0  0  0  0  0
  -18.0313  -28.1346   22.8506 C   0  0  0  0  0  0
  -24.1503  -36.7261   23.2656 C   0  0  0  0  0  0
  -26.0106  -30.7004   21.3839 C   0  0  0  0  0  0
  -26.0887  -29.2994   20.7466 C   0  0  0  0  0  0
  -27.2440  -28.4230   20.7662 C   0  0  0  0  0  0
  -26.0099  -26.7367   19.5665 C   0  0  0  0  0  0
  -24.8842  -27.5914   19.5292 C   0  0  0  0  0  0
  -23.6900  -29.7649   20.1682 C   0  0  0  0  0  0
  -25.4148  -36.3067   24.0333 C   0  0  1  0  0  0
  -20.5934  -28.3685   23.1288 C   0  0  2  0  0  0
  -20.6836  -26.9403   22.5427 C   0  0  0  0  0  0
  -19.5804  -26.6364   21.5247 C   0  0  0  0  0  0
  -18.1957  -26.7892   22.1622 C   0  0  0  0  0  0
  -19.1552  -28.8844   23.2846 C   0  0  0  0  0  0
  -18.9484  -30.1459   23.8855 C   0  0  0  0  0  0
  -17.6468  -30.6565   24.0579 C   0  0  0  0  0  0
  -25.9091  -34.9433   23.5117 C   0  0  0  0  0  0
  -16.5364  -29.9035   23.6375 C   0  0  0  0  0  0
  -16.7281  -28.6436   23.0406 C   0  0  0  0  0  0
  -26.4557  -31.6540   25.0771 C   0  0  0  0  0  0
  -25.3719  -31.3607   26.1418 C   0  0  0  0  0  0
  -27.0512  -30.3011   24.6282 C   0  0  0  0  0  0
  -27.6158  -32.4265   25.7511 C   0  0  0  0  0  0
  -27.5580  -37.1787   24.8480 C   0  0  0  0  0  0
  -21.4307  -29.2992   22.3681 N   0  0  0  0  0  0
  -26.4305  -37.3779   23.9408 N   0  0  0  0  0  0
  -24.7254  -31.0218   22.0933 N   0  0  0  0  0  0
  -23.4249  -28.8021   23.3101 O   0  0  0  0  0  0
  -28.2681  -26.0724   20.2447 O   0  0  0  0  0  0
  -26.5659  -34.8871   22.4656 O   0  0  0  0  0  0
  -23.5550  -32.1330   23.7072 O   0  0  0  0  0  0
  -28.5774  -20.2153   20.2702 C   0  0  0  0  0  0
  -29.1608  -21.5916   20.2004 C   0  0  0  0  0  0
  -29.5452  -19.1583   20.1555 C   0  0  0  0  0  0
  -28.1017  -17.2279   19.2139 C   0  0  0  0  0  0
  -33.1609  -19.9744   20.4678 C   0  0  0  0  0  0
  -32.2400  -20.0720   18.1201 C   0  0  0  0  0  0
  -28.6892  -23.1702   19.7850 C   0  0  0  0  0  0
  -28.1061  -24.5381   20.6282 C   0  0  0  0  0  0
  -29.5084  -17.5200   19.7629 C   0  0  2  0  0  0
  -32.0071  -19.5426   19.5537 C   0  0  0  0  0  0
  -30.4724  -21.3268   20.1616 N   0  0  0  0  0  0
  -30.6911  -19.9597   20.0384 N   0  0  0  0  0  0
  -29.8109  -16.2029   20.6104 N   0  0  0  0  0  0
  -31.4649  -12.6896   19.2656 H   0  0  0  0  0  0
  -30.3258  -11.6505   20.0657 H   0  0  0  0  0  0
  -29.8521  -11.8377   17.5673 H   0  0  0  0  0  0
  -29.6658  -13.5595   17.7628 H   0  0  0  0  0  0
  -27.8332  -11.3779   18.7817 H   0  0  0  0  0  0
  -27.4416  -12.7427   17.7638 H   0  0  0  0  0  0
  -27.5658  -14.2986   19.4423 H   0  0  0  0  0  0
  -28.7293  -12.3929   21.5233 H   0  0  0  0  0  0
  -28.3603  -14.0916   21.7149 H   0  0  0  0  0  0
  -25.2875   -9.5676   22.4784 H   0  0  0  0  0  0
  -24.0100   -7.4659   22.7457 H   0  0  0  0  0  0
  -21.0981   -8.8871   19.8874 H   0  0  0  0  0  0
  -22.3942  -10.9708   19.6128 H   0  0  0  0  0  0
  -21.2051   -7.6192   23.9712 H   0  0  0  0  0  0
  -21.1485   -6.0536   25.9051 H   0  0  0  0  0  0
  -22.0594   -2.7651   23.2772 H   0  0  0  0  0  0
  -22.4138  -11.9694   22.4723 H   0  0  0  0  0  0
  -21.1073  -13.0980   22.2559 H   0  0  0  0  0  0
  -24.6376  -15.8625   20.4604 H   0  0  0  0  0  0
  -26.2612  -15.6167   20.0690 H   0  0  0  0  0  0
  -26.7290  -32.5333   23.1084 H   0  0  0  0  0  0
  -25.0290  -33.9784   25.0508 H   0  0  0  0  0  0
  -22.7566  -31.2758   21.3751 H   0  0  0  0  0  0
  -23.3853  -35.9506   23.3278 H   0  0  0  0  0  0
  -24.3581  -36.8933   22.2071 H   0  0  0  0  0  0
  -23.7132  -37.6403   23.6707 H   0  0  0  0  0  0
  -26.1640  -31.4336   20.5904 H   0  0  0  0  0  0
  -26.8852  -30.7756   22.0221 H   0  0  0  0  0  0
  -28.1437  -28.7567   21.2635 H   0  0  0  0  0  0
  -25.9309  -25.7619   19.1086 H   0  0  0  0  0  0
  -23.9715  -27.2405   19.0659 H   0  0  0  0  0  0
  -23.8358  -30.5330   19.4061 H   0  0  0  0  0  0
  -22.8083  -29.1977   19.8680 H   0  0  0  0  0  0
  -25.1288  -36.2002   25.0829 H   0  0  0  0  0  0
  -20.9942  -28.3242   24.1455 H   0  0  0  0  0  0
  -20.5823  -26.2271   23.3614 H   0  0  0  0  0  0
  -21.6682  -26.7495   22.1143 H   0  0  0  0  0  0
  -19.7012  -25.6294   21.1242 H   0  0  0  0  0  0
  -19.6752  -27.3224   20.6812 H   0  0  0  0  0  0
  -17.4262  -26.6726   21.3966 H   0  0  0  0  0  0
  -18.0278  -25.9959   22.8927 H   0  0  0  0  0  0
  -19.7939  -30.7305   24.2166 H   0  0  0  0  0  0
  -17.5014  -31.6244   24.5214 H   0  0  0  0  0  0
  -15.5362  -30.2931   23.7726 H   0  0  0  0  0  0
  -15.8659  -28.0737   22.7188 H   0  0  0  0  0  0
  -24.6016  -30.6870   25.7614 H   0  0  0  0  0  0
  -24.8790  -32.2713   26.4836 H   0  0  0  0  0  0
  -25.7939  -30.8754   27.0219 H   0  0  0  0  0  0
  -26.3127  -29.6639   24.1405 H   0  0  0  0  0  0
  -27.4370  -29.7380   25.4789 H   0  0  0  0  0  0
  -27.8869  -30.4418   23.9431 H   0  0  0  0  0  0
  -27.2936  -33.3702   26.1914 H   0  0  0  0  0  0
  -28.4000  -32.6564   25.0284 H   0  0  0  0  0  0
  -28.0743  -31.8473   26.5551 H   0  0  0  0  0  0
  -28.2569  -38.0128   24.7617 H   0  0  0  0  0  0
  -28.1096  -36.2662   24.6205 H   0  0  0  0  0  0
  -27.2296  -37.1252   25.8881 H   0  0  0  0  0  0
  -20.9554  -29.8679   21.6812 H   0  0  0  0  0  0
  -26.0218  -38.2845   24.1464 H   0  0  0  0  0  0
  -27.5156  -20.0205   20.2523 H   0  0  0  0  0  0
  -27.7440  -18.0163   18.5548 H   0  0  0  0  0  0
  -27.3978  -17.1332   20.0412 H   0  0  0  0  0  0
  -28.0638  -16.3126   18.6237 H   0  0  0  0  0  0
  -34.1020  -19.6492   20.0301 H   0  0  0  0  0  0
  -33.0953  -19.5155   21.4522 H   0  0  0  0  0  0
  -33.2162  -21.0556   20.6059 H   0  0  0  0  0  0
  -32.9254  -19.4353   17.5605 H   0  0  0  0  0  0
  -32.6611  -21.0792   18.1404 H   0  0  0  0  0  0
  -31.3142  -20.1233   17.5460 H   0  0  0  0  0  0
  -27.9903  -23.0626   18.9555 H   0  0  0  0  0  0
  -29.5698  -23.5886   19.2961 H   0  0  0  0  0  0
  -28.5560  -24.4774   21.6158 H   0  0  0  0  0  0
  -27.0508  -24.3588   20.8469 H   0  0  0  0  0  0
  -30.1546  -17.4123   18.8887 H   0  0  0  0  0  0
  -32.0136  -18.4547   19.5283 H   0  0  0  0  0  0
  -29.0383  -16.0064   21.2229 H   0  0  0  0  0  0
  1 25  1  0  0  0
  1 30  2  0  0  0
  1 83  1  0  0  0
  2  3  1  0  0  0
  2 25  1  0  0  0
  2 84  1  0  0  0
  2 85  1  0  0  0
  3  4  1  0  0  0
  3 86  1  0  0  0
  3 87  1  0  0  0
  4  5  1  0  0  0
  4 88  1  0  0  0
  4 89  1  0  0  0
  5  6  1  0  0  0
  5 26  1  0  0  0
  5 90  1  0  0  0
  6 25  1  0  0  0
  6 91  1  0  0  0
  6 92  1  0  0  0
  7  8  2  0  0  0
  7 26  1  0  0  0
  7 29  1  0  0  0
  8  9  1  0  0  0
  8 22  1  0  0  0
  9 10  1  0  0  0
  9 27  2  0  0  0
 10 11  2  0  0  0
 10 15  1  0  0  0
 11 12  1  0  0  0
 11 93  1  0  0  0
 12 13  2  0  0  0
 12 94  1  0  0  0
 13 14  1  0  0  0
 13 31  1  0  0  0
 14 15  2  0  0  0
 14 95  1  0  0  0
 15 96  1  0  0  0
 16 17  2  0  0  0
 16 21  1  0  0  0
 16 31  1  0  0  0
 17 18  1  0  0  0
 17 97  1  0  0  0
 18 19  2  0  0  0
 18 98  1  0  0  0
 19 20  1  0  0  0
 19 24  1  0  0  0
 20 21  2  0  0  0
 20 99  1  0  0  0
 21 23  1  0  0  0
 22 28  1  0  0  0
 22 32  2  0  0  0
 26 27  1  0  0  0
 28100  1  0  0  0
 28101  1  0  0  0
 29102  1  0  0  0
 29103  1  0  0  0
 33 34  1  0  0  0
 33 66  1  0  0  0
 33 70  2  0  0  0
 34 36  1  0  0  0
 34 59  1  0  0  0
 34104  1  0  0  0
 35 44  2  0  0  0
 35 45  1  0  0  0
 35 68  1  0  0  0
 36 56  1  0  0  0
 36105  1  0  0  0
 37 39  1  0  0  0
 37 47  1  0  0  0
 37 66  1  0  0  0
 37106  1  0  0  0
 38 43  2  0  0  0
 38 46  1  0  0  0
 38 47  1  0  0  0
 39 64  1  0  0  0
 39 67  2  0  0  0
 40 52  1  0  0  0
 40 53  2  0  0  0
 40 58  1  0  0  0
 41107  1  0  0  0
 41108  1  0  0  0
 41109  1  0  0  0
 41 48  1  0  0  0
 42 43  1  0  0  0
 42 66  1  0  0  0
 42110  1  0  0  0
 42111  1  0  0  0
 43 44  1  0  0  0
 44112  1  0  0  0
 45 46  2  0  0  0
 45113  1  0  0  0
 46114  1  0  0  0
 47115  1  0  0  0
 47116  1  0  0  0
 48 56  1  0  0  0
 48 65  1  0  0  0
 48117  1  0  0  0
 49 50  1  0  0  0
 49 53  1  0  0  0
 49 64  1  0  0  0
 49118  1  0  0  0
 50 51  1  0  0  0
 50119  1  0  0  0
 50120  1  0  0  0
 51 52  1  0  0  0
 51121  1  0  0  0
 51122  1  0  0  0
 52123  1  0  0  0
 52124  1  0  0  0
 53 54  1  0  0  0
 54 55  2  0  0  0
 54125  1  0  0  0
 55 57  1  0  0  0
 55126  1  0  0  0
 56 69  2  0  0  0
 57 58  2  0  0  0
 57127  1  0  0  0
 58128  1  0  0  0
 59 60  1  0  0  0
 59 61  1  0  0  0
 59 62  1  0  0  0
 60129  1  0  0  0
 60130  1  0  0  0
 60131  1  0  0  0
 61132  1  0  0  0
 61133  1  0  0  0
 61134  1  0  0  0
 62135  1  0  0  0
 62136  1  0  0  0
 62137  1  0  0  0
 63 65  1  0  0  0
 63138  1  0  0  0
 63139  1  0  0  0
 63140  1  0  0  0
 64141  1  0  0  0
 65142  1  0  0  0
 68 78  1  0  0  0
 71 72  1  0  0  0
 71 73  2  0  0  0
 71143  1  0  0  0
 72 77  1  0  0  0
 72 81  2  0  0  0
 73 79  1  0  0  0
 73 82  1  0  0  0
 74144  1  0  0  0
 74145  1  0  0  0
 74146  1  0  0  0
 74 79  1  0  0  0
 75147  1  0  0  0
 75148  1  0  0  0
 75149  1  0  0  0
 75 80  1  0  0  0
 76 80  1  0  0  0
 76150  1  0  0  0
 76151  1  0  0  0
 76152  1  0  0  0
 77 78  1  0  0  0
 77153  1  0  0  0
 77154  1  0  0  0
 78155  1  0  0  0
 78156  1  0  0  0
 79 83  1  0  0  0
 79157  1  0  0  0
 80 82  1  0  0  0
 80158  1  0  0  0
 81 82  1  0  0  0
 83159  1  0  0  0
M  ISO  4   1 100  68 101  78 101  83 100
M  END
> <chiral flag>
0

> <version>
0

> <s_m_source_file>
/data/baiqing/PycharmProjects/Reinvent-master-3.2/result/LINK_invent/BTK/process_docking_weight1_custom_sum_contain_oxygen_bond_distance_aromatic_linkinvent_7_9_3/rearranged_h_0058.sdf

> <i_m_source_file_index>
62

> <r_mmod_Potential_Energy-OPLS-2005>
695.006652832031

> <r_mmod_Stretch_Energy-OPLS-2005>
326.084442138672

> <r_mmod_Bend_Energy-OPLS-2005>
354.941223144531

> <r_mmod_Torsional_Energy-OPLS-2005>
301.693634033203

> <r_mmod_Improper_Torsional_Energy-OPLS-2005>
12.2160682678223

> <r_mmod_Van_der_Waal_Energy-OPLS-2005>
104.246200561523

> <r_mmod_Electrostatic_Energy-OPLS-2005>
-421.041900634766

> <r_mmod_Solvation_Energy-OPLS-2005>
-225.087875366211

> <b_mmod_Minimization_Converged-OPLS-2005>
0

> <r_mmod_RMS_Derivative-OPLS-2005>
8.51112937927246

$$$$
62
                    3D
 Structure written by MMmdl.
143151  0  0  1  0            999 V2000
  -30.2894  -15.5303   20.3410 C   0  0  0  0  0  0
  -30.4475  -12.9874   19.5547 C   0  0  0  0  0  0
  -29.5604  -12.6379   18.3238 C   0  0  0  0  0  0
  -28.1203  -12.3033   18.7490 C   0  0  0  0  0  0
  -27.6064  -13.2960   19.8163 C   0  0  2  0  0  0
  -28.6248  -13.5577   20.9474 C   0  0  0  0  0  0
  -25.2376  -13.8272   20.5759 C   0  0  0  0  0  0
  -24.1743  -13.0438   20.9251 C   0  0  0  0  0  0
  -24.6424  -11.6942   20.8739 C   0  0  0  0  0  0
  -23.9119  -10.4296   21.0390 C   0  0  0  0  0  0
  -24.3653   -9.4210   21.9175 C   0  0  0  0  0  0
  -23.6314   -8.2251   22.0753 C   0  0  0  0  0  0
  -22.4293   -8.0291   21.3545 C   0  0  0  0  0  0
  -21.9938   -9.0266   20.4644 C   0  0  0  0  0  0
  -22.7282  -10.2137   20.3046 C   0  0  0  0  0  0
  -21.6860   -6.0743   22.5279 C   0  0  0  0  0  0
  -21.4019   -6.5645   23.8213 C   0  0  0  0  0  0
  -21.3660   -5.6796   24.9174 C   0  0  0  0  0  0
  -21.6044   -4.3058   24.7224 C   0  0  0  0  0  0
  -21.8818   -3.8152   23.4344 C   0  0  0  0  0  0
  -21.9194   -4.6970   22.3401 C   0  0  0  0  0  0
  -22.7757  -13.5177   21.1906 C   0  0  0  0  0  0
  -22.1661   -4.2155   21.0978 F   0  0  0  0  0  0
  -21.5627   -3.4541   25.7735 F   0  0  0  0  0  0
  -29.8346  -14.1470   20.3336 N   0  0  0  0  0  0
  -26.2813  -12.9579   20.3189 N   0  0  0  0  0  0
  -25.9368  -11.6664   20.5672 N   0  0  0  0  0  0
  -22.0424  -12.8152   22.0462 N   0  0  0  0  0  0
  -25.4007  -15.2013   20.4244 N   0  0  0  0  0  0
  -31.5140  -15.5312   20.1016 O   0  0  0  0  0  0
  -21.6650   -6.8891   21.4243 O   0  0  0  0  0  0
  -22.3424  -14.5476   20.6750 O   0  0  0  0  0  0
  -24.6790  -31.8058   23.1560 C   0  0  0  0  0  0
  -25.9394  -32.4497   23.8087 C   0  0  1  0  0  0
  -27.2274  -26.7591   20.2081 C   0  0  0  0  0  0
  -25.5993  -33.8319   24.1980 N   0  0  0  0  0  0
  -23.5027  -30.4101   21.5087 C   0  0  2  0  0  0
  -24.9604  -28.7633   20.1171 C   0  0  0  0  0  0
  -22.7745  -29.4347   22.4725 C   0  0  0  0  0  0
  -18.0336  -28.1419   22.8461 C   0  0  0  0  0  0
  -24.1493  -36.7164   23.2651 C   0  0  0  0  0  0
  -26.0812  -30.5577   21.4123 C   0  0  0  0  0  0
  -26.1487  -29.1288   20.7612 C   0  0  0  0  0  0
  -27.2702  -28.1536   20.7754 C   0  0  0  0  0  0
  -26.0067  -26.5907   19.5080 C   0  0  0  0  0  0
  -24.9253  -27.5186   19.4670 C   0  0  0  0  0  0
  -23.7538  -29.7113   20.1422 C   0  0  0  0  0  0
  -25.4142  -36.2912   24.0287 C   0  0  1  0  0  0
  -20.5971  -28.3775   23.1151 C   0  0  2  0  0  0
  -20.6804  -26.9439   22.5402 C   0  0  0  0  0  0
  -19.5777  -26.6375   21.5216 C   0  0  0  0  0  0
  -18.1961  -26.7949   22.1622 C   0  0  0  0  0  0
  -19.1603  -28.8922   23.2789 C   0  0  0  0  0  0
  -18.9508  -30.1507   23.8832 C   0  0  0  0  0  0
  -17.6499  -30.6605   24.0552 C   0  0  0  0  0  0
  -25.9120  -34.9301   23.4966 C   0  0  0  0  0  0
  -16.5388  -29.9087   23.6350 C   0  0  0  0  0  0
  -16.7317  -28.6508   23.0369 C   0  0  0  0  0  0
  -26.4590  -31.6510   25.0685 C   0  0  0  0  0  0
  -25.3670  -31.3812   26.1310 C   0  0  0  0  0  0
  -27.0514  -30.2854   24.6545 C   0  0  0  0  0  0
  -27.6047  -32.4359   25.7502 C   0  0  0  0  0  0
  -27.5564  -37.1739   24.8467 C   0  0  0  0  0  0
  -21.4397  -29.3033   22.3476 N   0  0  0  0  0  0
  -26.4271  -37.3668   23.9411 N   0  0  0  0  0  0
  -24.7771  -30.9559   22.0784 N   0  0  0  0  0  0
  -23.4214  -28.7941   23.3045 O   0  0  0  0  0  0
  -28.1917  -25.5600   20.2816 O   0  0  0  0  0  0
  -26.5751  -34.8869   22.4578 O   0  0  0  0  0  0
  -23.5821  -32.1103   23.6550 O   0  0  0  0  0  0
  -28.9240  -21.2997   21.4158 C   0  0  0  0  0  0
  -29.0801  -19.8372   19.2307 C   0  0  0  0  0  0
  -28.6624  -22.1990   20.2618 C   0  0  0  0  0  0
  -29.3688  -18.9417   20.3822 C   0  0  0  0  0  0
  -27.8683  -23.8656   20.1573 C   0  0  0  0  0  0
  -29.3256  -17.0979   20.5428 C   0  0  0  0  0  0
  -28.7705  -21.2698   19.1819 N   0  0  0  0  0  0
  -29.2346  -19.8689   21.4636 N   0  0  0  0  0  0
  -28.9019  -17.0090   21.8043 F   0  0  0  0  0  0
  -28.2435  -16.8617   19.7997 F   0  0  0  0  0  0
  -31.4504  -13.2377   19.2072 H   0  0  0  0  0  0
  -30.5780  -12.1143   20.1962 H   0  0  0  0  0  0
  -29.9919  -11.8053   17.7671 H   0  0  0  0  0  0
  -29.5472  -13.4888   17.6412 H   0  0  0  0  0  0
  -28.1207  -11.2936   19.1613 H   0  0  0  0  0  0
  -27.4563  -12.2831   17.8839 H   0  0  0  0  0  0
  -27.4921  -14.2377   19.2783 H   0  0  0  0  0  0
  -28.8449  -12.6478   21.5079 H   0  0  0  0  0  0
  -28.2098  -14.2660   21.6659 H   0  0  0  0  0  0
  -25.2796   -9.5684   22.4755 H   0  0  0  0  0  0
  -24.0016   -7.4645   22.7479 H   0  0  0  0  0  0
  -21.0867   -8.8793   19.8953 H   0  0  0  0  0  0
  -22.3741  -10.9676   19.6156 H   0  0  0  0  0  0
  -21.2015   -7.6153   23.9718 H   0  0  0  0  0  0
  -21.1481   -6.0525   25.9077 H   0  0  0  0  0  0
  -22.0596   -2.7613   23.2842 H   0  0  0  0  0  0
  -22.4066  -11.9824   22.4849 H   0  0  0  0  0  0
  -21.1035  -13.1151   22.2673 H   0  0  0  0  0  0
  -24.6321  -15.8505   20.5509 H   0  0  0  0  0  0
  -26.2519  -15.6517   20.1143 H   0  0  0  0  0  0
  -26.7474  -32.4987   23.0801 H   0  0  0  0  0  0
  -25.0064  -33.9366   25.0081 H   0  0  0  0  0  0
  -22.8251  -31.2462   21.3230 H   0  0  0  0  0  0
  -23.3771  -35.9476   23.3269 H   0  0  0  0  0  0
  -24.3563  -36.8865   22.2074 H   0  0  0  0  0  0
  -23.7235  -37.6328   23.6750 H   0  0  0  0  0  0
  -26.2789  -31.2869   20.6254 H   0  0  0  0  0  0
  -26.9342  -30.6231   22.0755 H   0  0  0  0  0  0
  -28.1652  -28.4383   21.3106 H   0  0  0  0  0  0
  -25.8466  -25.6473   19.0067 H   0  0  0  0  0  0
  -24.0276  -27.2312   18.9365 H   0  0  0  0  0  0
  -23.9234  -30.4731   19.3803 H   0  0  0  0  0  0
  -22.8600  -29.1741   19.8200 H   0  0  0  0  0  0
  -25.1348  -36.1680   25.0776 H   0  0  0  0  0  0
  -21.0057  -28.3395   24.1276 H   0  0  0  0  0  0
  -20.5668  -26.2399   23.3660 H   0  0  0  0  0  0
  -21.6665  -26.7386   22.1219 H   0  0  0  0  0  0
  -19.6931  -25.6269   21.1288 H   0  0  0  0  0  0
  -19.6718  -27.3150   20.6718 H   0  0  0  0  0  0
  -17.4229  -26.6694   21.4028 H   0  0  0  0  0  0
  -18.0350  -26.0108   22.9034 H   0  0  0  0  0  0
  -19.7983  -30.7343   24.2170 H   0  0  0  0  0  0
  -17.5049  -31.6277   24.5168 H   0  0  0  0  0  0
  -15.5385  -30.2968   23.7712 H   0  0  0  0  0  0
  -15.8718  -28.0803   22.7123 H   0  0  0  0  0  0
  -24.5879  -30.7136   25.7615 H   0  0  0  0  0  0
  -24.8833  -32.3028   26.4553 H   0  0  0  0  0  0
  -25.7861  -30.9098   27.0209 H   0  0  0  0  0  0
  -26.3221  -29.6484   24.1531 H   0  0  0  0  0  0
  -27.3957  -29.7280   25.5267 H   0  0  0  0  0  0
  -27.9195  -30.3993   24.0051 H   0  0  0  0  0  0
  -27.2593  -33.3725   26.1891 H   0  0  0  0  0  0
  -28.3955  -32.6817   25.0403 H   0  0  0  0  0  0
  -28.0606  -31.8613   26.5575 H   0  0  0  0  0  0
  -28.2552  -38.0062   24.7519 H   0  0  0  0  0  0
  -28.1089  -36.2586   24.6289 H   0  0  0  0  0  0
  -27.2279  -37.1369   25.8868 H   0  0  0  0  0  0
  -20.9689  -29.8692   21.6555 H   0  0  0  0  0  0
  -26.0101  -38.2716   24.1427 H   0  0  0  0  0  0
  -28.8059  -21.7336   22.3982 H   0  0  0  0  0  0
  -29.0116  -19.3635   18.2622 H   0  0  0  0  0  0
  -27.0449  -23.7516   20.8622 H   0  0  0  0  0  0
  -27.3809  -23.8060   19.1847 H   0  0  0  0  0  0
  1 25  1  0  0  0
  1 30  2  0  0  0
  1 76  1  0  0  0
  2  3  1  0  0  0
  2 25  1  0  0  0
  2 81  1  0  0  0
  2 82  1  0  0  0
  3  4  1  0  0  0
  3 83  1  0  0  0
  3 84  1  0  0  0
  4  5  1  0  0  0
  4 85  1  0  0  0
  4 86  1  0  0  0
  5  6  1  0  0  0
  5 26  1  0  0  0
  5 87  1  0  0  0
  6 25  1  0  0  0
  6 88  1  0  0  0
  6 89  1  0  0  0
  7  8  2  0  0  0
  7 26  1  0  0  0
  7 29  1  0  0  0
  8  9  1  0  0  0
  8 22  1  0  0  0
  9 10  1  0  0  0
  9 27  2  0  0  0
 10 11  2  0  0  0
 10 15  1  0  0  0
 11 12  1  0  0  0
 11 90  1  0  0  0
 12 13  2  0  0  0
 12 91  1  0  0  0
 13 14  1  0  0  0
 13 31  1  0  0  0
 14 15  2  0  0  0
 14 92  1  0  0  0
 15 93  1  0  0  0
 16 17  2  0  0  0
 16 21  1  0  0  0
 16 31  1  0  0  0
 17 18  1  0  0  0
 17 94  1  0  0  0
 18 19  2  0  0  0
 18 95  1  0  0  0
 19 20  1  0  0  0
 19 24  1  0  0  0
 20 21  2  0  0  0
 20 96  1  0  0  0
 21 23  1  0  0  0
 22 28  1  0  0  0
 22 32  2  0  0  0
 26 27  1  0  0  0
 28 97  1  0  0  0
 28 98  1  0  0  0
 29 99  1  0  0  0
 29100  1  0  0  0
 33 34  1  0  0  0
 33 66  1  0  0  0
 33 70  2  0  0  0
 34 36  1  0  0  0
 34 59  1  0  0  0
 34101  1  0  0  0
 35 44  2  0  0  0
 35 45  1  0  0  0
 35 68  1  0  0  0
 36 56  1  0  0  0
 36102  1  0  0  0
 37 39  1  0  0  0
 37 47  1  0  0  0
 37 66  1  0  0  0
 37103  1  0  0  0
 38 43  2  0  0  0
 38 46  1  0  0  0
 38 47  1  0  0  0
 39 64  1  0  0  0
 39 67  2  0  0  0
 40 52  1  0  0  0
 40 53  2  0  0  0
 40 58  1  0  0  0
 41104  1  0  0  0
 41105  1  0  0  0
 41106  1  0  0  0
 41 48  1  0  0  0
 42 43  1  0  0  0
 42 66  1  0  0  0
 42107  1  0  0  0
 42108  1  0  0  0
 43 44  1  0  0  0
 44109  1  0  0  0
 45 46  2  0  0  0
 45110  1  0  0  0
 46111  1  0  0  0
 47112  1  0  0  0
 47113  1  0  0  0
 48 56  1  0  0  0
 48 65  1  0  0  0
 48114  1  0  0  0
 49 50  1  0  0  0
 49 53  1  0  0  0
 49 64  1  0  0  0
 49115  1  0  0  0
 50 51  1  0  0  0
 50116  1  0  0  0
 50117  1  0  0  0
 51 52  1  0  0  0
 51118  1  0  0  0
 51119  1  0  0  0
 52120  1  0  0  0
 52121  1  0  0  0
 53 54  1  0  0  0
 54 55  2  0  0  0
 54122  1  0  0  0
 55 57  1  0  0  0
 55123  1  0  0  0
 56 69  2  0  0  0
 57 58  2  0  0  0
 57124  1  0  0  0
 58125  1  0  0  0
 59 60  1  0  0  0
 59 61  1  0  0  0
 59 62  1  0  0  0
 60126  1  0  0  0
 60127  1  0  0  0
 60128  1  0  0  0
 61129  1  0  0  0
 61130  1  0  0  0
 61131  1  0  0  0
 62132  1  0  0  0
 62133  1  0  0  0
 62134  1  0  0  0
 63 65  1  0  0  0
 63135  1  0  0  0
 63136  1  0  0  0
 63137  1  0  0  0
 64138  1  0  0  0
 65139  1  0  0  0
 68 75  1  0  0  0
 71 73  2  0  0  0
 71 78  1  0  0  0
 71140  1  0  0  0
 72 74  1  0  0  0
 72 77  2  0  0  0
 72141  1  0  0  0
 73 75  1  0  0  0
 73 77  1  0  0  0
 74 76  1  0  0  0
 74 78  2  0  0  0
 75142  1  0  0  0
 75143  1  0  0  0
 76 79  1  0  0  0
 76 80  1  0  0  0
M  ISO  4   1 100  68 101  75 101  76 100
M  END
> <chiral flag>
0

> <version>
0

> <s_m_source_file>
/data/baiqing/PycharmProjects/Reinvent-master-3.2/result/LINK_invent/BTK/process_docking_weight1_custom_sum_contain_oxygen_bond_distance_aromatic_linkinvent_7_9_3/rearranged_h_0058.sdf

> <i_m_source_file_index>
63

> <r_mmod_Potential_Energy-OPLS-2005>
2309.0244140625

> <r_mmod_Stretch_Energy-OPLS-2005>
892.621887207031

> <r_mmod_Bend_Energy-OPLS-2005>
645.411926269531

> <r_mmod_Torsional_Energy-OPLS-2005>
207.605529785156

> <r_mmod_Improper_Torsional_Energy-OPLS-2005>
8.04601669311523

> <r_mmod_Van_der_Waal_Energy-OPLS-2005>
130.911880493164

> <r_mmod_Electrostatic_Energy-OPLS-2005>
-134.979705810547

> <r_mmod_Solvation_Energy-OPLS-2005>
-209.231170654297

> <b_mmod_Minimization_Converged-OPLS-2005>
0

> <r_mmod_RMS_Derivative-OPLS-2005>
0.289856463670731

$$$$
63
                    3D
 Structure written by MMmdl.
155163  0  0  1  0            999 V2000
  -30.6387  -14.7160   20.5546 C   0  0  0  0  0  0
  -30.4377  -12.4625   19.4704 C   0  0  0  0  0  0
  -29.5121  -12.5327   18.2342 C   0  0  0  0  0  0
  -28.0352  -12.3572   18.6368 C   0  0  0  0  0  0
  -27.6490  -13.2276   19.8606 C   0  0  2  0  0  0
  -28.6881  -13.0848   20.9885 C   0  0  0  0  0  0
  -25.2545  -13.8197   20.5689 C   0  0  0  0  0  0
  -24.1815  -13.0438   20.9157 C   0  0  0  0  0  0
  -24.6404  -11.6915   20.8711 C   0  0  0  0  0  0
  -23.9077  -10.4289   21.0389 C   0  0  0  0  0  0
  -24.3630   -9.4209   21.9171 C   0  0  0  0  0  0
  -23.6307   -8.2244   22.0753 C   0  0  0  0  0  0
  -22.4284   -8.0279   21.3551 C   0  0  0  0  0  0
  -21.9925   -9.0247   20.4649 C   0  0  0  0  0  0
  -22.7247  -10.2127   20.3053 C   0  0  0  0  0  0
  -21.6860   -6.0733   22.5279 C   0  0  0  0  0  0
  -21.4010   -6.5637   23.8206 C   0  0  0  0  0  0
  -21.3662   -5.6789   24.9170 C   0  0  0  0  0  0
  -21.6057   -4.3055   24.7221 C   0  0  0  0  0  0
  -21.8820   -3.8146   23.4340 C   0  0  0  0  0  0
  -21.9195   -4.6961   22.3399 C   0  0  0  0  0  0
  -22.7842  -13.5219   21.1837 C   0  0  0  0  0  0
  -22.1662   -4.2150   21.0974 F   0  0  0  0  0  0
  -21.5638   -3.4538   25.7729 F   0  0  0  0  0  0
  -29.9942  -13.4947   20.4428 N   0  0  0  0  0  0
  -26.2969  -12.9390   20.3293 N   0  0  0  0  0  0
  -25.9333  -11.6532   20.5721 N   0  0  0  0  0  0
  -22.0514  -12.8201   22.0411 N   0  0  0  0  0  0
  -25.4285  -15.1922   20.4186 N   0  0  0  0  0  0
  -31.7653  -14.8406   20.0606 O   0  0  0  0  0  0
  -21.6652   -6.8876   21.4243 O   0  0  0  0  0  0
  -22.3516  -14.5529   20.6703 O   0  0  0  0  0  0
  -24.6308  -31.8568   23.1980 C   0  0  0  0  0  0
  -25.9126  -32.4769   23.8331 C   0  0  1  0  0  0
  -27.2222  -27.2700   20.1232 C   0  0  0  0  0  0
  -25.5921  -33.8573   24.2251 N   0  0  0  0  0  0
  -23.4273  -30.4796   21.5431 C   0  0  2  0  0  0
  -24.8758  -28.9321   20.1098 C   0  0  0  0  0  0
  -22.7500  -29.4610   22.4921 C   0  0  0  0  0  0
  -18.0283  -28.1391   22.8483 C   0  0  0  0  0  0
  -24.1488  -36.7285   23.2641 C   0  0  0  0  0  0
  -25.9751  -30.7723   21.3778 C   0  0  0  0  0  0
  -26.0487  -29.3975   20.7171 C   0  0  0  0  0  0
  -27.2254  -28.5804   20.7115 C   0  0  0  0  0  0
  -26.0231  -26.8763   19.4836 C   0  0  0  0  0  0
  -24.8685  -27.6796   19.4825 C   0  0  0  0  0  0
  -23.6447  -29.8151   20.1593 C   0  0  0  0  0  0
  -25.4119  -36.3086   24.0328 C   0  0  1  0  0  0
  -20.5890  -28.3700   23.1281 C   0  0  2  0  0  0
  -20.6776  -26.9418   22.5419 C   0  0  0  0  0  0
  -19.5754  -26.6385   21.5222 C   0  0  0  0  0  0
  -18.1929  -26.7930   22.1626 C   0  0  0  0  0  0
  -19.1542  -28.8861   23.2871 C   0  0  0  0  0  0
  -18.9460  -30.1458   23.8900 C   0  0  0  0  0  0
  -17.6468  -30.6594   24.0562 C   0  0  0  0  0  0
  -25.9067  -34.9455   23.5098 C   0  0  0  0  0  0
  -16.5354  -29.9093   23.6340 C   0  0  0  0  0  0
  -16.7273  -28.6508   23.0360 C   0  0  0  0  0  0
  -26.4491  -31.6600   25.0722 C   0  0  0  0  0  0
  -25.3686  -31.3761   26.1419 C   0  0  0  0  0  0
  -27.0333  -30.3017   24.6205 C   0  0  0  0  0  0
  -27.6046  -32.4347   25.7484 C   0  0  0  0  0  0
  -27.5584  -37.1788   24.8462 C   0  0  0  0  0  0
  -21.4209  -29.3041   22.3662 N   0  0  0  0  0  0
  -26.4294  -37.3785   23.9414 N   0  0  0  0  0  0
  -24.6970  -31.0528   22.0963 N   0  0  0  0  0  0
  -23.4203  -28.8146   23.3011 O   0  0  0  0  0  0
  -28.3153  -26.3709   20.1917 O   0  0  0  0  0  0
  -26.5646  -34.8927   22.4672 O   0  0  0  0  0  0
  -23.5455  -32.1402   23.7267 O   0  0  0  0  0  0
  -26.9438  -18.4160   19.6487 C   0  0  0  0  0  0
  -28.9363  -18.1253   20.2322 C   0  0  0  0  0  0
  -29.4070  -15.8461   22.3721 C   0  0  0  0  0  0
  -30.2142  -17.2919   20.5499 C   0  0  0  0  0  0
  -28.5559  -22.1954   20.1512 C   0  0  0  0  0  0
  -29.0759  -23.7135   20.3816 C   0  0  0  0  0  0
  -29.3971  -20.8303   20.4761 C   0  0  0  0  0  0
  -28.0424  -24.9034   20.0158 C   0  0  0  0  0  0
  -27.8528  -17.4316   19.8709 N   0  0  0  0  0  0
  -27.3840  -19.6517   19.8340 N   0  0  0  0  0  0
  -28.6850  -19.5067   20.2078 N   0  0  0  0  0  0
  -29.9557  -15.8461   21.0075 N   0  0  0  0  0  0
  -31.4767  -12.5924   19.1646 H   0  0  0  0  0  0
  -30.3953  -11.4714   19.9233 H   0  0  0  0  0  0
  -29.7943  -11.7692   17.5081 H   0  0  0  0  0  0
  -29.6409  -13.4933   17.7330 H   0  0  0  0  0  0
  -27.8799  -11.3034   18.8690 H   0  0  0  0  0  0
  -27.3839  -12.5821   17.7915 H   0  0  0  0  0  0
  -27.6639  -14.2660   19.5262 H   0  0  0  0  0  0
  -28.7309  -12.0510   21.3345 H   0  0  0  0  0  0
  -28.3708  -13.6482   21.8576 H   0  0  0  0  0  0
  -25.2773   -9.5690   22.4742 H   0  0  0  0  0  0
  -24.0022   -7.4638   22.7473 H   0  0  0  0  0  0
  -21.0864   -8.8758   19.8950 H   0  0  0  0  0  0
  -22.3699  -10.9665   19.6166 H   0  0  0  0  0  0
  -21.1992   -7.6143   23.9709 H   0  0  0  0  0  0
  -21.1491   -6.0520   25.9073 H   0  0  0  0  0  0
  -22.0603   -2.7611   23.2836 H   0  0  0  0  0  0
  -22.4140  -11.9856   22.4779 H   0  0  0  0  0  0
  -21.1142  -13.1229   22.2639 H   0  0  0  0  0  0
  -24.6698  -15.8506   20.5513 H   0  0  0  0  0  0
  -26.3093  -15.6402   20.1826 H   0  0  0  0  0  0
  -26.7182  -32.5416   23.1064 H   0  0  0  0  0  0
  -25.0030  -33.9721   25.0367 H   0  0  0  0  0  0
  -22.7235  -31.3018   21.3957 H   0  0  0  0  0  0
  -23.3772  -35.9594   23.3309 H   0  0  0  0  0  0
  -24.3575  -36.8916   22.2054 H   0  0  0  0  0  0
  -23.7217  -37.6475   23.6667 H   0  0  0  0  0  0
  -26.1136  -31.5342   20.6090 H   0  0  0  0  0  0
  -26.8529  -30.8208   22.0106 H   0  0  0  0  0  0
  -28.1225  -28.9315   21.2017 H   0  0  0  0  0  0
  -25.9376  -25.9203   18.9893 H   0  0  0  0  0  0
  -23.9711  -27.3173   19.0010 H   0  0  0  0  0  0
  -23.7642  -30.5923   19.4040 H   0  0  0  0  0  0
  -22.7648  -29.2441   19.8562 H   0  0  0  0  0  0
  -25.1293  -36.1947   25.0819 H   0  0  0  0  0  0
  -20.9965  -28.3272   24.1407 H   0  0  0  0  0  0
  -20.5696  -26.2292   23.3612 H   0  0  0  0  0  0
  -21.6636  -26.7451   22.1193 H   0  0  0  0  0  0
  -19.6925  -25.6297   21.1248 H   0  0  0  0  0  0
  -19.6709  -27.3193   20.6755 H   0  0  0  0  0  0
  -17.4197  -26.6681   21.4027 H   0  0  0  0  0  0
  -18.0325  -26.0075   22.9027 H   0  0  0  0  0  0
  -19.7939  -30.7258   24.2279 H   0  0  0  0  0  0
  -17.5025  -31.6278   24.5147 H   0  0  0  0  0  0
  -15.5357  -30.2993   23.7673 H   0  0  0  0  0  0
  -15.8665  -28.0830   22.7090 H   0  0  0  0  0  0
  -24.5848  -30.7142   25.7718 H   0  0  0  0  0  0
  -24.8878  -32.2932   26.4828 H   0  0  0  0  0  0
  -25.7950  -30.8921   27.0210 H   0  0  0  0  0  0
  -26.2920  -29.6765   24.1206 H   0  0  0  0  0  0
  -27.4003  -29.7282   25.4729 H   0  0  0  0  0  0
  -27.8803  -30.4306   23.9462 H   0  0  0  0  0  0
  -27.2665  -33.3661   26.2036 H   0  0  0  0  0  0
  -28.3845  -32.6894   25.0297 H   0  0  0  0  0  0
  -28.0712  -31.8487   26.5410 H   0  0  0  0  0  0
  -28.2586  -38.0102   24.7536 H   0  0  0  0  0  0
  -28.1102  -36.2632   24.6258 H   0  0  0  0  0  0
  -27.2301  -37.1396   25.8865 H   0  0  0  0  0  0
  -20.9392  -29.8760   21.6865 H   0  0  0  0  0  0
  -26.0190  -38.2864   24.1431 H   0  0  0  0  0  0
  -25.9274  -18.2180   19.3380 H   0  0  0  0  0  0
  -29.6993  -16.7347   22.9322 H   0  0  0  0  0  0
  -29.7527  -14.9948   22.9620 H   0  0  0  0  0  0
  -28.3168  -15.8297   22.3405 H   0  0  0  0  0  0
  -30.8093  -17.8245   21.2921 H   0  0  0  0  0  0
  -30.8221  -17.2767   19.6450 H   0  0  0  0  0  0
  -28.2642  -22.1355   19.1020 H   0  0  0  0  0  0
  -27.6204  -22.1250   20.7069 H   0  0  0  0  0  0
  -29.9861  -23.8602   19.7996 H   0  0  0  0  0  0
  -29.3721  -23.8269   21.4245 H   0  0  0  0  0  0
  -29.6888  -20.8322   21.5269 H   0  0  0  0  0  0
  -30.3267  -20.8279   19.9073 H   0  0  0  0  0  0
  -27.1340  -24.6805   20.5777 H   0  0  0  0  0  0
  -27.7869  -24.7611   18.9651 H   0  0  0  0  0  0
  1 25  1  0  0  0
  1 30  2  0  0  0
  1 82  1  0  0  0
  2  3  1  0  0  0
  2 25  1  0  0  0
  2 83  1  0  0  0
  2 84  1  0  0  0
  3  4  1  0  0  0
  3 85  1  0  0  0
  3 86  1  0  0  0
  4  5  1  0  0  0
  4 87  1  0  0  0
  4 88  1  0  0  0
  5  6  1  0  0  0
  5 26  1  0  0  0
  5 89  1  0  0  0
  6 25  1  0  0  0
  6 90  1  0  0  0
  6 91  1  0  0  0
  7  8  2  0  0  0
  7 26  1  0  0  0
  7 29  1  0  0  0
  8  9  1  0  0  0
  8 22  1  0  0  0
  9 10  1  0  0  0
  9 27  2  0  0  0
 10 11  2  0  0  0
 10 15  1  0  0  0
 11 12  1  0  0  0
 11 92  1  0  0  0
 12 13  2  0  0  0
 12 93  1  0  0  0
 13 14  1  0  0  0
 13 31  1  0  0  0
 14 15  2  0  0  0
 14 94  1  0  0  0
 15 95  1  0  0  0
 16 17  2  0  0  0
 16 21  1  0  0  0
 16 31  1  0  0  0
 17 18  1  0  0  0
 17 96  1  0  0  0
 18 19  2  0  0  0
 18 97  1  0  0  0
 19 20  1  0  0  0
 19 24  1  0  0  0
 20 21  2  0  0  0
 20 98  1  0  0  0
 21 23  1  0  0  0
 22 28  1  0  0  0
 22 32  2  0  0  0
 26 27  1  0  0  0
 28 99  1  0  0  0
 28100  1  0  0  0
 29101  1  0  0  0
 29102  1  0  0  0
 33 34  1  0  0  0
 33 66  1  0  0  0
 33 70  2  0  0  0
 34 36  1  0  0  0
 34 59  1  0  0  0
 34103  1  0  0  0
 35 44  2  0  0  0
 35 45  1  0  0  0
 35 68  1  0  0  0
 36 56  1  0  0  0
 36104  1  0  0  0
 37 39  1  0  0  0
 37 47  1  0  0  0
 37 66  1  0  0  0
 37105  1  0  0  0
 38 43  2  0  0  0
 38 46  1  0  0  0
 38 47  1  0  0  0
 39 64  1  0  0  0
 39 67  2  0  0  0
 40 52  1  0  0  0
 40 53  2  0  0  0
 40 58  1  0  0  0
 41106  1  0  0  0
 41107  1  0  0  0
 41108  1  0  0  0
 41 48  1  0  0  0
 42 43  1  0  0  0
 42 66  1  0  0  0
 42109  1  0  0  0
 42110  1  0  0  0
 43 44  1  0  0  0
 44111  1  0  0  0
 45 46  2  0  0  0
 45112  1  0  0  0
 46113  1  0  0  0
 47114  1  0  0  0
 47115  1  0  0  0
 48 56  1  0  0  0
 48 65  1  0  0  0
 48116  1  0  0  0
 49 50  1  0  0  0
 49 53  1  0  0  0
 49 64  1  0  0  0
 49117  1  0  0  0
 50 51  1  0  0  0
 50118  1  0  0  0
 50119  1  0  0  0
 51 52  1  0  0  0
 51120  1  0  0  0
 51121  1  0  0  0
 52122  1  0  0  0
 52123  1  0  0  0
 53 54  1  0  0  0
 54 55  2  0  0  0
 54124  1  0  0  0
 55 57  1  0  0  0
 55125  1  0  0  0
 56 69  2  0  0  0
 57 58  2  0  0  0
 57126  1  0  0  0
 58127  1  0  0  0
 59 60  1  0  0  0
 59 61  1  0  0  0
 59 62  1  0  0  0
 60128  1  0  0  0
 60129  1  0  0  0
 60130  1  0  0  0
 61131  1  0  0  0
 61132  1  0  0  0
 61133  1  0  0  0
 62134  1  0  0  0
 62135  1  0  0  0
 62136  1  0  0  0
 63 65  1  0  0  0
 63137  1  0  0  0
 63138  1  0  0  0
 63139  1  0  0  0
 64140  1  0  0  0
 65141  1  0  0  0
 68 78  1  0  0  0
 71 79  1  0  0  0
 71 80  2  0  0  0
 71142  1  0  0  0
 72 74  1  0  0  0
 72 79  2  0  0  0
 72 81  1  0  0  0
 73 82  1  0  0  0
 73143  1  0  0  0
 73144  1  0  0  0
 73145  1  0  0  0
 74 82  1  0  0  0
 74146  1  0  0  0
 74147  1  0  0  0
 75 76  1  0  0  0
 75 77  1  0  0  0
 75148  1  0  0  0
 75149  1  0  0  0
 76 78  1  0  0  0
 76150  1  0  0  0
 76151  1  0  0  0
 77 81  1  0  0  0
 77152  1  0  0  0
 77153  1  0  0  0
 78154  1  0  0  0
 78155  1  0  0  0
 80 81  1  0  0  0
M  ISO  4   1 100  68 101  78 101  82 100
M  END
> <chiral flag>
0

> <version>
0

> <s_m_source_file>
/data/baiqing/PycharmProjects/Reinvent-master-3.2/result/LINK_invent/BTK/process_docking_weight1_custom_sum_contain_oxygen_bond_distance_aromatic_linkinvent_7_9_3/rearranged_h_0058.sdf

> <i_m_source_file_index>
64

> <r_mmod_Potential_Energy-OPLS-2005>
228.787094116211

> <r_mmod_Stretch_Energy-OPLS-2005>
131.096252441406

> <r_mmod_Bend_Energy-OPLS-2005>
196.559524536133

> <r_mmod_Torsional_Energy-OPLS-2005>
252.018493652344

> <r_mmod_Improper_Torsional_Energy-OPLS-2005>
6.77660131454468

> <r_mmod_Van_der_Waal_Energy-OPLS-2005>
131.031951904297

> <r_mmod_Electrostatic_Energy-OPLS-2005>
-357.165191650391

> <r_mmod_Solvation_Energy-OPLS-2005>
-204.291046142578

> <b_mmod_Minimization_Converged-OPLS-2005>
0

> <r_mmod_RMS_Derivative-OPLS-2005>
1.61831629276276

$$$$
64
                    3D
 Structure written by MMmdl.
167175  0  0  1  0            999 V2000
  -30.3674  -15.3135   20.3172 C   0  0  0  0  0  0
  -30.4525  -12.8241   19.5328 C   0  0  0  0  0  0
  -29.5463  -12.5787   18.2942 C   0  0  0  0  0  0
  -28.0902  -12.2937   18.7120 C   0  0  0  0  0  0
  -27.6090  -13.2582   19.8214 C   0  0  2  0  0  0
  -28.6445  -13.4483   20.9494 C   0  0  0  0  0  0
  -25.2422  -13.8174   20.5756 C   0  0  0  0  0  0
  -24.1749  -13.0400   20.9253 C   0  0  0  0  0  0
  -24.6387  -11.6894   20.8756 C   0  0  0  0  0  0
  -23.9064  -10.4277   21.0396 C   0  0  0  0  0  0
  -24.3624   -9.4199   21.9175 C   0  0  0  0  0  0
  -23.6303   -8.2233   22.0745 C   0  0  0  0  0  0
  -22.4280   -8.0282   21.3539 C   0  0  0  0  0  0
  -21.9911   -9.0247   20.4628 C   0  0  0  0  0  0
  -22.7235  -10.2127   20.3037 C   0  0  0  0  0  0
  -21.6863   -6.0737   22.5282 C   0  0  0  0  0  0
  -21.4026   -6.5641   23.8216 C   0  0  0  0  0  0
  -21.3653   -5.6791   24.9176 C   0  0  0  0  0  0
  -21.6035   -4.3055   24.7222 C   0  0  0  0  0  0
  -21.8826   -3.8146   23.4348 C   0  0  0  0  0  0
  -21.9205   -4.6964   22.3403 C   0  0  0  0  0  0
  -22.7782  -13.5189   21.1896 C   0  0  0  0  0  0
  -22.1679   -4.2156   21.0981 F   0  0  0  0  0  0
  -21.5608   -3.4532   25.7730 F   0  0  0  0  0  0
  -29.8850  -13.9654   20.3421 N   0  0  0  0  0  0
  -26.2814  -12.9398   20.3222 N   0  0  0  0  0  0
  -25.9317  -11.6528   20.5716 N   0  0  0  0  0  0
  -22.0446  -12.8154   22.0436 N   0  0  0  0  0  0
  -25.4085  -15.1889   20.4187 N   0  0  0  0  0  0
  -31.5952  -15.3520   20.1385 O   0  0  0  0  0  0
  -21.6643   -6.8880   21.4246 O   0  0  0  0  0  0
  -22.3476  -14.5502   20.6757 O   0  0  0  0  0  0
  -24.6630  -31.8216   23.1689 C   0  0  0  0  0  0
  -25.9314  -32.4574   23.8155 C   0  0  1  0  0  0
  -27.2288  -26.9263   20.1910 C   0  0  0  0  0  0
  -25.5976  -33.8390   24.2064 N   0  0  0  0  0  0
  -23.4784  -30.4311   21.5182 C   0  0  2  0  0  0
  -24.9344  -28.8138   20.1129 C   0  0  0  0  0  0
  -22.7667  -29.4426   22.4787 C   0  0  0  0  0  0
  -18.0320  -28.1406   22.8469 C   0  0  0  0  0  0
  -24.1494  -36.7200   23.2649 C   0  0  0  0  0  0
  -26.0468  -30.6289   21.3982 C   0  0  0  0  0  0
  -26.1162  -29.2177   20.7454 C   0  0  0  0  0  0
  -27.2563  -28.2954   20.7575 C   0  0  0  0  0  0
  -26.0165  -26.6710   19.5112 C   0  0  0  0  0  0
  -24.9095  -27.5614   19.4753 C   0  0  0  0  0  0
  -23.7185  -29.7402   20.1463 C   0  0  0  0  0  0
  -25.4133  -36.2959   24.0302 C   0  0  1  0  0  0
  -20.5945  -28.3747   23.1193 C   0  0  2  0  0  0
  -20.6797  -26.9428   22.5408 C   0  0  0  0  0  0
  -19.5771  -26.6376   21.5218 C   0  0  0  0  0  0
  -18.1950  -26.7944   22.1621 C   0  0  0  0  0  0
  -19.1583  -28.8900   23.2814 C   0  0  0  0  0  0
  -18.9492  -30.1493   23.8845 C   0  0  0  0  0  0
  -17.6485  -30.6599   24.0555 C   0  0  0  0  0  0
  -25.9100  -34.9344   23.5007 C   0  0  0  0  0  0
  -16.5375  -29.9082   23.6346 C   0  0  0  0  0  0
  -16.7303  -28.6503   23.0364 C   0  0  0  0  0  0
  -26.4569  -31.6517   25.0679 C   0  0  0  0  0  0
  -25.3699  -31.3766   26.1333 C   0  0  0  0  0  0
  -27.0473  -30.2886   24.6409 C   0  0  0  0  0  0
  -27.6046  -32.4329   25.7489 C   0  0  0  0  0  0
  -27.5572  -37.1752   24.8464 C   0  0  0  0  0  0
  -21.4339  -29.3034   22.3538 N   0  0  0  0  0  0
  -26.4276  -37.3698   23.9415 N   0  0  0  0  0  0
  -24.7510  -30.9876   22.0822 N   0  0  0  0  0  0
  -23.4206  -28.7999   23.3038 O   0  0  0  0  0  0
  -28.2495  -25.8396   20.2814 O   0  0  0  0  0  0
  -26.5709  -34.8881   22.4601 O   0  0  0  0  0  0
  -23.5700  -32.1184   23.6790 O   0  0  0  0  0  0
  -30.5087  -20.5705   19.5706 C   0  0  0  0  0  0
  -29.3884  -21.0981   20.2118 C   0  0  0  0  0  0
  -29.5780  -18.5641   20.2512 C   0  0  0  0  0  0
  -28.6520  -16.6029   18.8653 C   0  0  0  0  0  0
  -30.4910  -23.4619   19.9440 C   0  0  0  0  0  0
  -29.3833  -22.9775   22.0712 C   0  0  0  0  0  0
  -26.5908  -20.9412   20.9994 C   0  0  0  0  0  0
  -27.6543  -19.4711   22.7511 C   0  0  0  0  0  0
  -26.5573  -18.5341   20.6913 C   0  0  0  0  0  0
  -28.0882  -24.1990   20.1019 C   0  0  0  0  0  0
  -29.3842  -16.7965   20.2188 C   0  0  1  0  0  0
  -29.2030  -22.8471   20.5424 C   0  0  0  0  0  0
  -27.4442  -19.6701   21.2400 C   0  0  0  0  0  0
  -28.7832  -19.7650   20.5570 N   0  0  0  0  0  0
  -30.5980  -19.1749   19.6318 N   0  3  0  0  0  0
  -31.4686  -13.0439   19.2021 H   0  0  0  0  0  0
  -30.5311  -11.9198   20.1383 H   0  0  0  0  0  0
  -29.9314  -11.7497   17.6990 H   0  0  0  0  0  0
  -29.5756  -13.4569   17.6471 H   0  0  0  0  0  0
  -28.0422  -11.2662   19.0742 H   0  0  0  0  0  0
  -27.4273  -12.3434   17.8468 H   0  0  0  0  0  0
  -27.4948  -14.2109   19.3179 H   0  0  0  0  0  0
  -28.8162  -12.5161   21.4893 H   0  0  0  0  0  0
  -28.2725  -14.1639   21.6849 H   0  0  0  0  0  0
  -25.2772   -9.5687   22.4744 H   0  0  0  0  0  0
  -24.0020   -7.4619   22.7462 H   0  0  0  0  0  0
  -21.0848   -8.8757   19.8921 H   0  0  0  0  0  0
  -22.3696  -10.9667   19.6146 H   0  0  0  0  0  0
  -21.2037   -7.6156   23.9723 H   0  0  0  0  0  0
  -21.1456   -6.0518   25.9078 H   0  0  0  0  0  0
  -22.0611   -2.7611   23.2839 H   0  0  0  0  0  0
  -22.4113  -11.9830   22.4799 H   0  0  0  0  0  0
  -21.1057  -13.1138   22.2655 H   0  0  0  0  0  0
  -24.6356  -15.8361   20.5211 H   0  0  0  0  0  0
  -26.2467  -15.6209   20.0593 H   0  0  0  0  0  0
  -26.7381  -32.5119   23.0866 H   0  0  0  0  0  0
  -25.0083  -33.9465   25.0188 H   0  0  0  0  0  0
  -22.7911  -31.2617   21.3449 H   0  0  0  0  0  0
  -23.3776  -35.9512   23.3265 H   0  0  0  0  0  0
  -24.3572  -36.8893   22.2074 H   0  0  0  0  0  0
  -23.7233  -37.6366   23.6734 H   0  0  0  0  0  0
  -26.2238  -31.3689   20.6167 H   0  0  0  0  0  0
  -26.9075  -30.6881   22.0525 H   0  0  0  0  0  0
  -28.1514  -28.6025   21.2809 H   0  0  0  0  0  0
  -25.8932  -25.7118   19.0305 H   0  0  0  0  0  0
  -24.0107  -27.2447   18.9636 H   0  0  0  0  0  0
  -23.8706  -30.5053   19.3845 H   0  0  0  0  0  0
  -22.8288  -29.1919   19.8320 H   0  0  0  0  0  0
  -25.1334  -36.1751   25.0795 H   0  0  0  0  0  0
  -21.0026  -28.3360   24.1319 H   0  0  0  0  0  0
  -20.5680  -26.2365   23.3644 H   0  0  0  0  0  0
  -21.6658  -26.7407   22.1213 H   0  0  0  0  0  0
  -19.6929  -25.6272   21.1277 H   0  0  0  0  0  0
  -19.6719  -27.3159   20.6724 H   0  0  0  0  0  0
  -17.4224  -26.6691   21.4021 H   0  0  0  0  0  0
  -18.0343  -26.0094   22.9024 H   0  0  0  0  0  0
  -19.7964  -30.7328   24.2187 H   0  0  0  0  0  0
  -17.5032  -31.6273   24.5163 H   0  0  0  0  0  0
  -15.5368  -30.2965   23.7705 H   0  0  0  0  0  0
  -15.8702  -28.0806   22.7103 H   0  0  0  0  0  0
  -24.5882  -30.7112   25.7642 H   0  0  0  0  0  0
  -24.8886  -32.2972   26.4647 H   0  0  0  0  0  0
  -25.7929  -30.8998   27.0186 H   0  0  0  0  0  0
  -26.3148  -29.6549   24.1394 H   0  0  0  0  0  0
  -27.3995  -29.7251   25.5062 H   0  0  0  0  0  0
  -27.9090  -30.4074   23.9833 H   0  0  0  0  0  0
  -27.2601  -33.3668   26.1942 H   0  0  0  0  0  0
  -28.3928  -32.6828   25.0373 H   0  0  0  0  0  0
  -28.0639  -31.8539   26.5514 H   0  0  0  0  0  0
  -28.2554  -38.0080   24.7526 H   0  0  0  0  0  0
  -28.1100  -36.2606   24.6271 H   0  0  0  0  0  0
  -27.2287  -37.1368   25.8863 H   0  0  0  0  0  0
  -20.9593  -29.8711   21.6656 H   0  0  0  0  0  0
  -26.0123  -38.2754   24.1424 H   0  0  0  0  0  0
  -31.3205  -21.1036   19.0981 H   0  0  0  0  0  0
  -29.0288  -17.2993   18.1168 H   0  0  0  0  0  0
  -27.5799  -16.7586   18.9402 H   0  0  0  0  0  0
  -28.7937  -15.6238   18.4158 H   0  0  0  0  0  0
  -31.3979  -23.0072   20.3446 H   0  0  0  0  0  0
  -30.5741  -24.5263   20.1667 H   0  0  0  0  0  0
  -30.5113  -23.3665   18.8582 H   0  0  0  0  0  0
  -30.2878  -22.4683   22.4059 H   0  0  0  0  0  0
  -29.4746  -24.0235   22.3696 H   0  0  0  0  0  0
  -28.5600  -22.5605   22.6443 H   0  0  0  0  0  0
  -26.9522  -21.8079   21.5357 H   0  0  0  0  0  0
  -26.5395  -21.1982   19.9404 H   0  0  0  0  0  0
  -25.5656  -20.8123   21.3468 H   0  0  0  0  0  0
  -26.7011  -19.4233   23.2793 H   0  0  0  0  0  0
  -28.2280  -20.2885   23.1877 H   0  0  0  0  0  0
  -28.1903  -18.5468   22.9656 H   0  0  0  0  0  0
  -25.5339  -18.6099   21.0629 H   0  0  0  0  0  0
  -26.8752  -17.5494   21.0089 H   0  0  0  0  0  0
  -26.4945  -18.5652   19.6040 H   0  0  0  0  0  0
  -27.1338  -23.9641   20.5723 H   0  0  0  0  0  0
  -27.8945  -24.0789   19.0355 H   0  0  0  0  0  0
  -28.7055  -16.6101   21.0453 H   0  0  0  0  0  0
  -31.3662  -18.6638   19.2136 H   0  0  0  0  0  0
  1 25  1  0  0  0
  1 30  2  0  0  0
  1 81  1  0  0  0
  2  3  1  0  0  0
  2 25  1  0  0  0
  2 86  1  0  0  0
  2 87  1  0  0  0
  3  4  1  0  0  0
  3 88  1  0  0  0
  3 89  1  0  0  0
  4  5  1  0  0  0
  4 90  1  0  0  0
  4 91  1  0  0  0
  5  6  1  0  0  0
  5 26  1  0  0  0
  5 92  1  0  0  0
  6 25  1  0  0  0
  6 93  1  0  0  0
  6 94  1  0  0  0
  7  8  2  0  0  0
  7 26  1  0  0  0
  7 29  1  0  0  0
  8  9  1  0  0  0
  8 22  1  0  0  0
  9 10  1  0  0  0
  9 27  2  0  0  0
 10 11  2  0  0  0
 10 15  1  0  0  0
 11 12  1  0  0  0
 11 95  1  0  0  0
 12 13  2  0  0  0
 12 96  1  0  0  0
 13 14  1  0  0  0
 13 31  1  0  0  0
 14 15  2  0  0  0
 14 97  1  0  0  0
 15 98  1  0  0  0
 16 17  2  0  0  0
 16 21  1  0  0  0
 16 31  1  0  0  0
 17 18  1  0  0  0
 17 99  1  0  0  0
 18 19  2  0  0  0
 18100  1  0  0  0
 19 20  1  0  0  0
 19 24  1  0  0  0
 20 21  2  0  0  0
 20101  1  0  0  0
 21 23  1  0  0  0
 22 28  1  0  0  0
 22 32  2  0  0  0
 26 27  1  0  0  0
 28102  1  0  0  0
 28103  1  0  0  0
 29104  1  0  0  0
 29105  1  0  0  0
 33 34  1  0  0  0
 33 66  1  0  0  0
 33 70  2  0  0  0
 34 36  1  0  0  0
 34 59  1  0  0  0
 34106  1  0  0  0
 35 44  2  0  0  0
 35 45  1  0  0  0
 35 68  1  0  0  0
 36 56  1  0  0  0
 36107  1  0  0  0
 37 39  1  0  0  0
 37 47  1  0  0  0
 37 66  1  0  0  0
 37108  1  0  0  0
 38 43  2  0  0  0
 38 46  1  0  0  0
 38 47  1  0  0  0
 39 64  1  0  0  0
 39 67  2  0  0  0
 40 52  1  0  0  0
 40 53  2  0  0  0
 40 58  1  0  0  0
 41109  1  0  0  0
 41110  1  0  0  0
 41111  1  0  0  0
 41 48  1  0  0  0
 42 43  1  0  0  0
 42 66  1  0  0  0
 42112  1  0  0  0
 42113  1  0  0  0
 43 44  1  0  0  0
 44114  1  0  0  0
 45 46  2  0  0  0
 45115  1  0  0  0
 46116  1  0  0  0
 47117  1  0  0  0
 47118  1  0  0  0
 48 56  1  0  0  0
 48 65  1  0  0  0
 48119  1  0  0  0
 49 50  1  0  0  0
 49 53  1  0  0  0
 49 64  1  0  0  0
 49120  1  0  0  0
 50 51  1  0  0  0
 50121  1  0  0  0
 50122  1  0  0  0
 51 52  1  0  0  0
 51123  1  0  0  0
 51124  1  0  0  0
 52125  1  0  0  0
 52126  1  0  0  0
 53 54  1  0  0  0
 54 55  2  0  0  0
 54127  1  0  0  0
 55 57  1  0  0  0
 55128  1  0  0  0
 56 69  2  0  0  0
 57 58  2  0  0  0
 57129  1  0  0  0
 58130  1  0  0  0
 59 60  1  0  0  0
 59 61  1  0  0  0
 59 62  1  0  0  0
 60131  1  0  0  0
 60132  1  0  0  0
 60133  1  0  0  0
 61134  1  0  0  0
 61135  1  0  0  0
 61136  1  0  0  0
 62137  1  0  0  0
 62138  1  0  0  0
 62139  1  0  0  0
 63 65  1  0  0  0
 63140  1  0  0  0
 63141  1  0  0  0
 63142  1  0  0  0
 64143  1  0  0  0
 65144  1  0  0  0
 68 80  1  0  0  0
 71 72  2  0  0  0
 71 85  1  0  0  0
 71145  1  0  0  0
 72 82  1  0  0  0
 72 84  1  0  0  0
 73 81  1  0  0  0
 73 84  1  0  0  0
 73 85  2  0  0  0
 74146  1  0  0  0
 74147  1  0  0  0
 74148  1  0  0  0
 74 81  1  0  0  0
 75149  1  0  0  0
 75150  1  0  0  0
 75151  1  0  0  0
 75 82  1  0  0  0
 76 82  1  0  0  0
 76152  1  0  0  0
 76153  1  0  0  0
 76154  1  0  0  0
 77155  1  0  0  0
 77156  1  0  0  0
 77157  1  0  0  0
 77 83  1  0  0  0
 78 83  1  0  0  0
 78158  1  0  0  0
 78159  1  0  0  0
 78160  1  0  0  0
 79 83  1  0  0  0
 79161  1  0  0  0
 79162  1  0  0  0
 79163  1  0  0  0
 80 82  1  0  0  0
 80164  1  0  0  0
 80165  1  0  0  0
 81166  1  0  0  0
 83 84  1  0  0  0
 85167  1  0  0  0
M  CHG  1  85   1
M  ISO  4   1 100  68 101  80 101  81 100
M  END
> <chiral flag>
0

> <version>
0

> <s_m_source_file>
/data/baiqing/PycharmProjects/Reinvent-master-3.2/result/LINK_invent/BTK/process_docking_weight1_custom_sum_contain_oxygen_bond_distance_aromatic_linkinvent_7_9_3/rearranged_h_0058.sdf

> <i_m_source_file_index>
65

> <r_mmod_Potential_Energy-OPLS-2005>
1508.63012695312

> <r_mmod_Stretch_Energy-OPLS-2005>
670.914428710938

> <r_mmod_Bend_Energy-OPLS-2005>
517.988708496094

> <r_mmod_Torsional_Energy-OPLS-2005>
271.303741455078

> <r_mmod_Improper_Torsional_Energy-OPLS-2005>
8.38167572021484

> <r_mmod_Van_der_Waal_Energy-OPLS-2005>
117.939987182617

> <r_mmod_Electrostatic_Energy-OPLS-2005>
-179.379989624023

> <r_mmod_Solvation_Energy-OPLS-2005>
-388.412750244141

> <b_mmod_Minimization_Converged-OPLS-2005>
0

> <r_mmod_RMS_Derivative-OPLS-2005>
1.64907610416412

$$$$
65
                    3D
 Structure written by MMmdl.
148156  0  0  1  0            999 V2000
  -30.2986  -15.5715   20.3660 C   0  0  0  0  0  0
  -30.4510  -13.0272   19.5425 C   0  0  0  0  0  0
  -29.5557  -12.6569   18.3217 C   0  0  0  0  0  0
  -28.1196  -12.3114   18.7531 C   0  0  0  0  0  0
  -27.6089  -13.2954   19.8293 C   0  0  2  0  0  0
  -28.6456  -13.5325   20.9559 C   0  0  0  0  0  0
  -25.2216  -13.8171   20.5654 C   0  0  0  0  0  0
  -24.1668  -13.0331   20.9267 C   0  0  0  0  0  0
  -24.6424  -11.6880   20.8793 C   0  0  0  0  0  0
  -23.9132  -10.4241   21.0413 C   0  0  0  0  0  0
  -24.3658   -9.4159   21.9197 C   0  0  0  0  0  0
  -23.6310   -8.2212   22.0763 C   0  0  0  0  0  0
  -22.4291   -8.0267   21.3549 C   0  0  0  0  0  0
  -21.9946   -9.0242   20.4643 C   0  0  0  0  0  0
  -22.7302  -10.2102   20.3052 C   0  0  0  0  0  0
  -21.6845   -6.0736   22.5282 C   0  0  0  0  0  0
  -21.4007   -6.5639   23.8217 C   0  0  0  0  0  0
  -21.3659   -5.6791   24.9179 C   0  0  0  0  0  0
  -21.6047   -4.3054   24.7229 C   0  0  0  0  0  0
  -21.8818   -3.8147   23.4350 C   0  0  0  0  0  0
  -21.9190   -4.6965   22.3406 C   0  0  0  0  0  0
  -22.7680  -13.5076   21.1909 C   0  0  0  0  0  0
  -22.1660   -4.2151   21.0984 F   0  0  0  0  0  0
  -21.5632   -3.4537   25.7741 F   0  0  0  0  0  0
  -29.8329  -14.1804   20.3373 N   0  0  0  0  0  0
  -26.2797  -12.9568   20.3275 N   0  0  0  0  0  0
  -25.9391  -11.6647   20.5787 N   0  0  0  0  0  0
  -22.0362  -12.8076   22.0490 N   0  0  0  0  0  0
  -25.3419  -15.1877   20.3850 N   0  0  0  0  0  0
  -31.5125  -15.5500   20.0825 O   0  0  0  0  0  0
  -21.6634   -6.8878   21.4247 O   0  0  0  0  0  0
  -22.3350  -14.5380   20.6747 O   0  0  0  0  0  0
  -24.6797  -31.8052   23.1552 C   0  0  0  0  0  0
  -25.9398  -32.4494   23.8086 C   0  0  1  0  0  0
  -27.2366  -26.7577   20.2063 C   0  0  0  0  0  0
  -25.5996  -33.8315   24.1979 N   0  0  0  0  0  0
  -23.5040  -30.4081   21.5077 C   0  0  2  0  0  0
  -24.9639  -28.7592   20.1171 C   0  0  0  0  0  0
  -22.7748  -29.4342   22.4724 C   0  0  0  0  0  0
  -18.0349  -28.1407   22.8452 C   0  0  0  0  0  0
  -24.1497  -36.7166   23.2651 C   0  0  0  0  0  0
  -26.0824  -30.5564   21.4116 C   0  0  0  0  0  0
  -26.1515  -29.1269   20.7606 C   0  0  0  0  0  0
  -27.2743  -28.1523   20.7752 C   0  0  0  0  0  0
  -26.0152  -26.5869   19.5072 C   0  0  0  0  0  0
  -24.9313  -27.5133   19.4678 C   0  0  0  0  0  0
  -23.7561  -29.7070   20.1422 C   0  0  0  0  0  0
  -25.4144  -36.2909   24.0285 C   0  0  1  0  0  0
  -20.5978  -28.3769   23.1148 C   0  0  2  0  0  0
  -20.6813  -26.9436   22.5400 C   0  0  0  0  0  0
  -19.5795  -26.6371   21.5208 C   0  0  0  0  0  0
  -18.1978  -26.7941   22.1608 C   0  0  0  0  0  0
  -19.1611  -28.8912   23.2784 C   0  0  0  0  0  0
  -18.9517  -30.1494   23.8828 C   0  0  0  0  0  0
  -17.6507  -30.6590   24.0546 C   0  0  0  0  0  0
  -25.9121  -34.9298   23.4963 C   0  0  0  0  0  0
  -16.5399  -29.9068   23.6343 C   0  0  0  0  0  0
  -16.7328  -28.6492   23.0361 C   0  0  0  0  0  0
  -26.4594  -31.6507   25.0685 C   0  0  0  0  0  0
  -25.3675  -31.3805   26.1307 C   0  0  0  0  0  0
  -27.0524  -30.2855   24.6542 C   0  0  0  0  0  0
  -27.6052  -32.4356   25.7505 C   0  0  0  0  0  0
  -27.5566  -37.1738   24.8466 C   0  0  0  0  0  0
  -21.4401  -29.3030   22.3474 N   0  0  0  0  0  0
  -26.4274  -37.3665   23.9407 N   0  0  0  0  0  0
  -24.7781  -30.9546   22.0777 N   0  0  0  0  0  0
  -23.4212  -28.7940   23.3051 O   0  0  0  0  0  0
  -28.2045  -25.5603   20.2911 O   0  0  0  0  0  0
  -26.5752  -34.8867   22.4575 O   0  0  0  0  0  0
  -23.5827  -32.1097   23.6536 O   0  0  0  0  0  0
  -28.8714  -21.3438   21.4628 C   0  0  0  0  0  0
  -28.7140  -22.2025   20.2781 C   0  0  0  0  0  0
  -29.4614  -19.0338   20.4914 C   0  0  0  0  0  0
  -27.9681  -16.9131   20.4182 C   0  0  0  0  0  0
  -29.5785  -17.1194   22.2944 C   0  0  0  0  0  0
  -27.9218  -23.8641   20.0828 C   0  0  0  0  0  0
  -29.4333  -17.1896   20.7517 C   0  0  0  0  0  0
  -29.2003  -19.9315   21.5390 N   0  0  0  0  0  0
  -28.9440  -21.2296   19.2446 N   0  0  0  0  0  0
  -29.2714  -19.8135   19.3253 N   0  0  0  0  0  0
  -31.4419  -13.2945   19.1749 H   0  0  0  0  0  0
  -30.6185  -12.1557   20.1779 H   0  0  0  0  0  0
  -29.9931  -11.8255   17.7672 H   0  0  0  0  0  0
  -29.5296  -13.5023   17.6328 H   0  0  0  0  0  0
  -28.1268  -11.2995   19.1609 H   0  0  0  0  0  0
  -27.4513  -12.2940   17.8915 H   0  0  0  0  0  0
  -27.4946  -14.2385   19.2956 H   0  0  0  0  0  0
  -28.2409  -14.1599   21.7483 H   0  0  0  0  0  0
  -28.8964  -12.5936   21.4521 H   0  0  0  0  0  0
  -25.2795   -9.5630   22.4785 H   0  0  0  0  0  0
  -24.0002   -7.4599   22.7486 H   0  0  0  0  0  0
  -21.0879   -8.8775   19.8947 H   0  0  0  0  0  0
  -22.3773  -10.9648   19.6162 H   0  0  0  0  0  0
  -21.1993   -7.6144   23.9722 H   0  0  0  0  0  0
  -21.1485   -6.0519   25.9083 H   0  0  0  0  0  0
  -22.0599   -2.7609   23.2848 H   0  0  0  0  0  0
  -22.4009  -11.9759   22.4890 H   0  0  0  0  0  0
  -21.0975  -13.1076   22.2713 H   0  0  0  0  0  0
  -24.5461  -15.8087   20.4821 H   0  0  0  0  0  0
  -26.1665  -15.6533   20.0330 H   0  0  0  0  0  0
  -26.7477  -32.4988   23.0801 H   0  0  0  0  0  0
  -25.0067  -33.9363   25.0080 H   0  0  0  0  0  0
  -22.8265  -31.2439   21.3204 H   0  0  0  0  0  0
  -23.3776  -35.9477   23.3260 H   0  0  0  0  0  0
  -24.3571  -36.8878   22.2077 H   0  0  0  0  0  0
  -23.7239  -37.6325   23.6759 H   0  0  0  0  0  0
  -26.2787  -31.2846   20.6235 H   0  0  0  0  0  0
  -26.9353  -30.6241   22.0743 H   0  0  0  0  0  0
  -28.1675  -28.4374   21.3128 H   0  0  0  0  0  0
  -25.8569  -25.6415   19.0085 H   0  0  0  0  0  0
  -24.0331  -27.2225   18.9400 H   0  0  0  0  0  0
  -23.9248  -30.4679   19.3792 H   0  0  0  0  0  0
  -22.8626  -29.1685   19.8207 H   0  0  0  0  0  0
  -25.1352  -36.1678   25.0775 H   0  0  0  0  0  0
  -21.0061  -28.3394   24.1275 H   0  0  0  0  0  0
  -20.5677  -26.2392   23.3655 H   0  0  0  0  0  0
  -21.6674  -26.7385   22.1214 H   0  0  0  0  0  0
  -19.6955  -25.6266   21.1277 H   0  0  0  0  0  0
  -19.6743  -27.3147   20.6713 H   0  0  0  0  0  0
  -17.4251  -26.6687   21.4009 H   0  0  0  0  0  0
  -18.0364  -26.0094   22.9011 H   0  0  0  0  0  0
  -19.7993  -30.7326   24.2167 H   0  0  0  0  0  0
  -17.5056  -31.6263   24.5159 H   0  0  0  0  0  0
  -15.5396  -30.2946   23.7705 H   0  0  0  0  0  0
  -15.8730  -28.0784   22.7116 H   0  0  0  0  0  0
  -24.5887  -30.7123   25.7609 H   0  0  0  0  0  0
  -24.8831  -32.3018   26.4551 H   0  0  0  0  0  0
  -25.7865  -30.9093   27.0205 H   0  0  0  0  0  0
  -26.3232  -29.6481   24.1526 H   0  0  0  0  0  0
  -27.3970  -29.7283   25.5264 H   0  0  0  0  0  0
  -27.9204  -30.4000   24.0047 H   0  0  0  0  0  0
  -27.2600  -33.3726   26.1889 H   0  0  0  0  0  0
  -28.3966  -32.6803   25.0409 H   0  0  0  0  0  0
  -28.0602  -31.8610   26.5583 H   0  0  0  0  0  0
  -28.2550  -38.0065   24.7517 H   0  0  0  0  0  0
  -28.1094  -36.2586   24.6288 H   0  0  0  0  0  0
  -27.2280  -37.1368   25.8868 H   0  0  0  0  0  0
  -20.9693  -29.8693   21.6554 H   0  0  0  0  0  0
  -26.0104  -38.2714   24.1421 H   0  0  0  0  0  0
  -28.6457  -21.7882   22.4213 H   0  0  0  0  0  0
  -27.3082  -17.6597   20.8618 H   0  0  0  0  0  0
  -27.6591  -15.9638   20.8206 H   0  0  0  0  0  0
  -27.8018  -16.9242   19.3409 H   0  0  0  0  0  0
  -29.5530  -16.1049   22.6924 H   0  0  0  0  0  0
  -28.7772  -17.6564   22.8024 H   0  0  0  0  0  0
  -30.5204  -17.5686   22.6106 H   0  0  0  0  0  0
  -27.0013  -23.7258   20.6501 H   0  0  0  0  0  0
  -27.5885  -23.8228   19.0460 H   0  0  0  0  0  0
  1 25  1  0  0  0
  1 30  2  0  0  0
  1 77  1  0  0  0
  2  3  1  0  0  0
  2 25  1  0  0  0
  2 81  1  0  0  0
  2 82  1  0  0  0
  3  4  1  0  0  0
  3 83  1  0  0  0
  3 84  1  0  0  0
  4  5  1  0  0  0
  4 85  1  0  0  0
  4 86  1  0  0  0
  5  6  1  0  0  0
  5 26  1  0  0  0
  5 87  1  0  0  0
  6 25  1  0  0  0
  6 88  1  0  0  0
  6 89  1  0  0  0
  7  8  2  0  0  0
  7 26  1  0  0  0
  7 29  1  0  0  0
  8  9  1  0  0  0
  8 22  1  0  0  0
  9 10  1  0  0  0
  9 27  2  0  0  0
 10 11  2  0  0  0
 10 15  1  0  0  0
 11 12  1  0  0  0
 11 90  1  0  0  0
 12 13  2  0  0  0
 12 91  1  0  0  0
 13 14  1  0  0  0
 13 31  1  0  0  0
 14 15  2  0  0  0
 14 92  1  0  0  0
 15 93  1  0  0  0
 16 17  2  0  0  0
 16 21  1  0  0  0
 16 31  1  0  0  0
 17 18  1  0  0  0
 17 94  1  0  0  0
 18 19  2  0  0  0
 18 95  1  0  0  0
 19 20  1  0  0  0
 19 24  1  0  0  0
 20 21  2  0  0  0
 20 96  1  0  0  0
 21 23  1  0  0  0
 22 28  1  0  0  0
 22 32  2  0  0  0
 26 27  1  0  0  0
 28 97  1  0  0  0
 28 98  1  0  0  0
 29 99  1  0  0  0
 29100  1  0  0  0
 33 34  1  0  0  0
 33 66  1  0  0  0
 33 70  2  0  0  0
 34 36  1  0  0  0
 34 59  1  0  0  0
 34101  1  0  0  0
 35 44  2  0  0  0
 35 45  1  0  0  0
 35 68  1  0  0  0
 36 56  1  0  0  0
 36102  1  0  0  0
 37 39  1  0  0  0
 37 47  1  0  0  0
 37 66  1  0  0  0
 37103  1  0  0  0
 38 43  2  0  0  0
 38 46  1  0  0  0
 38 47  1  0  0  0
 39 64  1  0  0  0
 39 67  2  0  0  0
 40 52  1  0  0  0
 40 53  2  0  0  0
 40 58  1  0  0  0
 41104  1  0  0  0
 41105  1  0  0  0
 41106  1  0  0  0
 41 48  1  0  0  0
 42 43  1  0  0  0
 42 66  1  0  0  0
 42107  1  0  0  0
 42108  1  0  0  0
 43 44  1  0  0  0
 44109  1  0  0  0
 45 46  2  0  0  0
 45110  1  0  0  0
 46111  1  0  0  0
 47112  1  0  0  0
 47113  1  0  0  0
 48 56  1  0  0  0
 48 65  1  0  0  0
 48114  1  0  0  0
 49 50  1  0  0  0
 49 53  1  0  0  0
 49 64  1  0  0  0
 49115  1  0  0  0
 50 51  1  0  0  0
 50116  1  0  0  0
 50117  1  0  0  0
 51 52  1  0  0  0
 51118  1  0  0  0
 51119  1  0  0  0
 52120  1  0  0  0
 52121  1  0  0  0
 53 54  1  0  0  0
 54 55  2  0  0  0
 54122  1  0  0  0
 55 57  1  0  0  0
 55123  1  0  0  0
 56 69  2  0  0  0
 57 58  2  0  0  0
 57124  1  0  0  0
 58125  1  0  0  0
 59 60  1  0  0  0
 59 61  1  0  0  0
 59 62  1  0  0  0
 60126  1  0  0  0
 60127  1  0  0  0
 60128  1  0  0  0
 61129  1  0  0  0
 61130  1  0  0  0
 61131  1  0  0  0
 62132  1  0  0  0
 62133  1  0  0  0
 62134  1  0  0  0
 63 65  1  0  0  0
 63135  1  0  0  0
 63136  1  0  0  0
 63137  1  0  0  0
 64138  1  0  0  0
 65139  1  0  0  0
 68 76  1  0  0  0
 71 72  2  0  0  0
 71 78  1  0  0  0
 71140  1  0  0  0
 72 76  1  0  0  0
 72 79  1  0  0  0
 73 77  1  0  0  0
 73 78  2  0  0  0
 73 80  1  0  0  0
 74141  1  0  0  0
 74142  1  0  0  0
 74143  1  0  0  0
 74 77  1  0  0  0
 75 77  1  0  0  0
 75144  1  0  0  0
 75145  1  0  0  0
 75146  1  0  0  0
 76147  1  0  0  0
 76148  1  0  0  0
 79 80  2  0  0  0
M  ISO  4   1 100  68 101  76 101  77 100
M  END
> <chiral flag>
0

> <version>
0

> <s_m_source_file>
/data/baiqing/PycharmProjects/Reinvent-master-3.2/result/LINK_invent/BTK/process_docking_weight1_custom_sum_contain_oxygen_bond_distance_aromatic_linkinvent_7_9_3/rearranged_h_0058.sdf

> <i_m_source_file_index>
66

> <r_mmod_Potential_Energy-OPLS-2005>
2312.46240234375

> <r_mmod_Stretch_Energy-OPLS-2005>
937.035583496094

> <r_mmod_Bend_Energy-OPLS-2005>
710.140991210938

> <r_mmod_Torsional_Energy-OPLS-2005>
205.813766479492

> <r_mmod_Improper_Torsional_Energy-OPLS-2005>
8.90809059143066

> <r_mmod_Van_der_Waal_Energy-OPLS-2005>
148.240997314453

> <r_mmod_Electrostatic_Energy-OPLS-2005>
-259.026550292969

> <r_mmod_Solvation_Energy-OPLS-2005>
-229.173187255859

> <b_mmod_Minimization_Converged-OPLS-2005>
0

> <r_mmod_RMS_Derivative-OPLS-2005>
0.847132563591003

$$$$
66
                    3D
 Structure written by MMmdl.
154162  0  0  1  0            999 V2000
  -30.5160  -14.9263   20.4581 C   0  0  0  0  0  0
  -30.4531  -12.5713   19.4945 C   0  0  0  0  0  0
  -29.5256  -12.5365   18.2553 C   0  0  0  0  0  0
  -28.0573  -12.3146   18.6692 C   0  0  0  0  0  0
  -27.6388  -13.2300   19.8475 C   0  0  2  0  0  0
  -28.6843  -13.2113   20.9853 C   0  0  0  0  0  0
  -25.2516  -13.8169   20.5709 C   0  0  0  0  0  0
  -24.1796  -13.0420   20.9191 C   0  0  0  0  0  0
  -24.6390  -11.6899   20.8735 C   0  0  0  0  0  0
  -23.9065  -10.4282   21.0403 C   0  0  0  0  0  0
  -24.3617   -9.4201   21.9182 C   0  0  0  0  0  0
  -23.6290   -8.2238   22.0754 C   0  0  0  0  0  0
  -22.4273   -8.0277   21.3544 C   0  0  0  0  0  0
  -21.9907   -9.0249   20.4646 C   0  0  0  0  0  0
  -22.7237  -10.2127   20.3053 C   0  0  0  0  0  0
  -21.6852   -6.0733   22.5279 C   0  0  0  0  0  0
  -21.4014   -6.5638   23.8212 C   0  0  0  0  0  0
  -21.3659   -5.6791   24.9175 C   0  0  0  0  0  0
  -21.6044   -4.3054   24.7226 C   0  0  0  0  0  0
  -21.8820   -3.8145   23.4347 C   0  0  0  0  0  0
  -21.9193   -4.6961   22.3403 C   0  0  0  0  0  0
  -22.7822  -13.5212   21.1860 C   0  0  0  0  0  0
  -22.1662   -4.2147   21.0981 F   0  0  0  0  0  0
  -21.5629   -3.4538   25.7739 F   0  0  0  0  0  0
  -29.9661  -13.6429   20.4095 N   0  0  0  0  0  0
  -26.2932  -12.9364   20.3279 N   0  0  0  0  0  0
  -25.9322  -11.6510   20.5741 N   0  0  0  0  0  0
  -22.0474  -12.8205   22.0423 N   0  0  0  0  0  0
  -25.4236  -15.1890   20.4187 N   0  0  0  0  0  0
  -31.6867  -15.0316   20.0703 O   0  0  0  0  0  0
  -21.6637   -6.8875   21.4241 O   0  0  0  0  0  0
  -22.3501  -14.5517   20.6711 O   0  0  0  0  0  0
  -24.6414  -31.8450   23.1889 C   0  0  0  0  0  0
  -25.9193  -32.4700   23.8275 C   0  0  1  0  0  0
  -27.2245  -27.1557   20.1474 C   0  0  0  0  0  0
  -25.5947  -33.8506   24.2193 N   0  0  0  0  0  0
  -23.4446  -30.4636   21.5339 C   0  0  2  0  0  0
  -24.8956  -28.8924   20.1088 C   0  0  0  0  0  0
  -22.7558  -29.4548   22.4865 C   0  0  0  0  0  0
  -18.0302  -28.1394   22.8478 C   0  0  0  0  0  0
  -24.1491  -36.7258   23.2642 C   0  0  0  0  0  0
  -25.9986  -30.7244   21.3854 C   0  0  0  0  0  0
  -26.0709  -29.3371   20.7271 C   0  0  0  0  0  0
  -27.2349  -28.4839   20.7306 C   0  0  0  0  0  0
  -26.0247  -26.8086   19.4870 C   0  0  0  0  0  0
  -24.8843  -27.6410   19.4739 C   0  0  0  0  0  0
  -23.6702  -29.7914   20.1532 C   0  0  0  0  0  0
  -25.4123  -36.3036   24.0316 C   0  0  1  0  0  0
  -20.5913  -28.3718   23.1241 C   0  0  2  0  0  0
  -20.6787  -26.9422   22.5406 C   0  0  0  0  0  0
  -19.5761  -26.6381   21.5213 C   0  0  0  0  0  0
  -18.1942  -26.7933   22.1624 C   0  0  0  0  0  0
  -19.1559  -28.8874   23.2851 C   0  0  0  0  0  0
  -18.9476  -30.1471   23.8876 C   0  0  0  0  0  0
  -17.6473  -30.6591   24.0559 C   0  0  0  0  0  0
  -25.9072  -34.9410   23.5064 C   0  0  0  0  0  0
  -16.5363  -29.9084   23.6336 C   0  0  0  0  0  0
  -16.7287  -28.6503   23.0357 C   0  0  0  0  0  0
  -26.4522  -31.6566   25.0712 C   0  0  0  0  0  0
  -25.3710  -31.3749   26.1409 C   0  0  0  0  0  0
  -27.0390  -30.2965   24.6285 C   0  0  0  0  0  0
  -27.6052  -32.4333   25.7498 C   0  0  0  0  0  0
  -27.5576  -37.1785   24.8465 C   0  0  0  0  0  0
  -21.4252  -29.3044   22.3613 N   0  0  0  0  0  0
  -26.4288  -37.3748   23.9408 N   0  0  0  0  0  0
  -24.7145  -31.0320   22.0914 N   0  0  0  0  0  0
  -23.4207  -28.8101   23.3015 O   0  0  0  0  0  0
  -28.2888  -26.1897   20.2312 O   0  0  0  0  0  0
  -26.5659  -34.8906   22.4644 O   0  0  0  0  0  0
  -23.5537  -32.1320   23.7119 O   0  0  0  0  0  0
  -28.2090  -18.6760   22.1232 C   0  0  0  0  0  0
  -27.6899  -20.7353   21.9464 C   0  0  0  0  0  0
  -28.6695  -20.5308   20.9847 C   0  0  0  0  0  0
  -26.8782  -21.9556   22.2659 C   0  0  0  0  0  0
  -29.0723  -21.7868   20.0477 C   0  0  0  0  0  0
  -29.0568  -23.4198   20.5119 C   0  0  0  0  0  0
  -29.8718  -17.9041   20.4496 C   0  0  0  0  0  0
  -28.0667  -24.6720   19.9921 C   0  0  0  0  0  0
  -29.7074  -16.2912   20.9666 C   0  0  0  0  0  0
  -27.4318  -19.5895   22.6660 N   0  0  0  0  0  0
  -28.9903  -19.0519   21.0927 N   0  0  0  0  0  0
  -28.4089  -16.0575   20.7871 F   0  0  0  0  0  0
  -29.9403  -16.3203   22.2799 F   0  0  0  0  0  0
  -31.4847  -12.7382   19.1815 H   0  0  0  0  0  0
  -30.4535  -11.6058   20.0029 H   0  0  0  0  0  0
  -29.8432  -11.7526   17.5666 H   0  0  0  0  0  0
  -29.6128  -13.4774   17.7098 H   0  0  0  0  0  0
  -27.9496  -11.2691   18.9603 H   0  0  0  0  0  0
  -27.3942  -12.4636   17.8162 H   0  0  0  0  0  0
  -27.6113  -14.2345   19.4284 H   0  0  0  0  0  0
  -28.7682  -12.2130   21.4172 H   0  0  0  0  0  0
  -28.3855  -13.8643   21.8057 H   0  0  0  0  0  0
  -25.2762   -9.5678   22.4756 H   0  0  0  0  0  0
  -23.9999   -7.4630   22.7474 H   0  0  0  0  0  0
  -21.0838   -8.8768   19.8953 H   0  0  0  0  0  0
  -22.3696  -10.9665   19.6162 H   0  0  0  0  0  0
  -21.2006   -7.6146   23.9715 H   0  0  0  0  0  0
  -21.1481   -6.0522   25.9078 H   0  0  0  0  0  0
  -22.0599   -2.7607   23.2848 H   0  0  0  0  0  0
  -22.4096  -11.9868   22.4810 H   0  0  0  0  0  0
  -21.1094  -13.1230   22.2638 H   0  0  0  0  0  0
  -24.6697  -15.8520   20.5582 H   0  0  0  0  0  0
  -26.3041  -15.6295   20.1826 H   0  0  0  0  0  0
  -26.7259  -32.5313   23.1005 H   0  0  0  0  0  0
  -25.0071  -33.9622   25.0325 H   0  0  0  0  0  0
  -22.7464  -31.2889   21.3795 H   0  0  0  0  0  0
  -23.3758  -35.9585   23.3293 H   0  0  0  0  0  0
  -24.3576  -36.8902   22.2059 H   0  0  0  0  0  0
  -23.7242  -37.6449   23.6687 H   0  0  0  0  0  0
  -26.1521  -31.4798   20.6135 H   0  0  0  0  0  0
  -26.8697  -30.7745   22.0271 H   0  0  0  0  0  0
  -28.1294  -28.8185   21.2370 H   0  0  0  0  0  0
  -25.9371  -25.8531   18.9919 H   0  0  0  0  0  0
  -23.9876  -27.2963   18.9774 H   0  0  0  0  0  0
  -23.8035  -30.5653   19.3963 H   0  0  0  0  0  0
  -22.7860  -29.2307   19.8447 H   0  0  0  0  0  0
  -25.1311  -36.1865   25.0809 H   0  0  0  0  0  0
  -21.0005  -28.3307   24.1362 H   0  0  0  0  0  0
  -20.5680  -26.2331   23.3624 H   0  0  0  0  0  0
  -21.6653  -26.7430   22.1205 H   0  0  0  0  0  0
  -19.6922  -25.6286   21.1256 H   0  0  0  0  0  0
  -19.6699  -27.3179   20.6733 H   0  0  0  0  0  0
  -17.4211  -26.6677   21.4027 H   0  0  0  0  0  0
  -18.0342  -26.0080   22.9025 H   0  0  0  0  0  0
  -19.7951  -30.7293   24.2236 H   0  0  0  0  0  0
  -17.5026  -31.6269   24.5165 H   0  0  0  0  0  0
  -15.5363  -30.2980   23.7672 H   0  0  0  0  0  0
  -15.8687  -28.0814   22.7084 H   0  0  0  0  0  0
  -24.5897  -30.7089   25.7729 H   0  0  0  0  0  0
  -24.8889  -32.2929   26.4782 H   0  0  0  0  0  0
  -25.7996  -30.8958   27.0221 H   0  0  0  0  0  0
  -26.3007  -29.6685   24.1287 H   0  0  0  0  0  0
  -27.4003  -29.7266   25.4855 H   0  0  0  0  0  0
  -27.8912  -30.4207   23.9601 H   0  0  0  0  0  0
  -27.2643  -33.3651   26.2022 H   0  0  0  0  0  0
  -28.3890  -32.6865   25.0347 H   0  0  0  0  0  0
  -28.0689  -31.8494   26.5459 H   0  0  0  0  0  0
  -28.2586  -38.0089   24.7513 H   0  0  0  0  0  0
  -28.1080  -36.2618   24.6292 H   0  0  0  0  0  0
  -27.2293  -37.1432   25.8868 H   0  0  0  0  0  0
  -20.9461  -29.8753   21.6790 H   0  0  0  0  0  0
  -26.0155  -38.2816   24.1411 H   0  0  0  0  0  0
  -28.1570  -17.6739   22.5130 H   0  0  0  0  0  0
  -26.5222  -22.4437   21.3604 H   0  0  0  0  0  0
  -27.4460  -22.6777   22.8512 H   0  0  0  0  0  0
  -25.9919  -21.7061   22.8502 H   0  0  0  0  0  0
  -28.4751  -21.7184   19.1381 H   0  0  0  0  0  0
  -30.0859  -21.5852   19.6999 H   0  0  0  0  0  0
  -30.0420  -23.7674   20.2000 H   0  0  0  0  0  0
  -29.1330  -23.4691   21.5965 H   0  0  0  0  0  0
  -29.6940  -17.9341   19.3750 H   0  0  0  0  0  0
  -30.9139  -18.1953   20.5778 H   0  0  0  0  0  0
  -27.0761  -24.4447   20.3837 H   0  0  0  0  0  0
  -27.9752  -24.5622   18.9112 H   0  0  0  0  0  0
  1 25  1  0  0  0
  1 30  2  0  0  0
  1 79  1  0  0  0
  2  3  1  0  0  0
  2 25  1  0  0  0
  2 84  1  0  0  0
  2 85  1  0  0  0
  3  4  1  0  0  0
  3 86  1  0  0  0
  3 87  1  0  0  0
  4  5  1  0  0  0
  4 88  1  0  0  0
  4 89  1  0  0  0
  5  6  1  0  0  0
  5 26  1  0  0  0
  5 90  1  0  0  0
  6 25  1  0  0  0
  6 91  1  0  0  0
  6 92  1  0  0  0
  7  8  2  0  0  0
  7 26  1  0  0  0
  7 29  1  0  0  0
  8  9  1  0  0  0
  8 22  1  0  0  0
  9 10  1  0  0  0
  9 27  2  0  0  0
 10 11  2  0  0  0
 10 15  1  0  0  0
 11 12  1  0  0  0
 11 93  1  0  0  0
 12 13  2  0  0  0
 12 94  1  0  0  0
 13 14  1  0  0  0
 13 31  1  0  0  0
 14 15  2  0  0  0
 14 95  1  0  0  0
 15 96  1  0  0  0
 16 17  2  0  0  0
 16 21  1  0  0  0
 16 31  1  0  0  0
 17 18  1  0  0  0
 17 97  1  0  0  0
 18 19  2  0  0  0
 18 98  1  0  0  0
 19 20  1  0  0  0
 19 24  1  0  0  0
 20 21  2  0  0  0
 20 99  1  0  0  0
 21 23  1  0  0  0
 22 28  1  0  0  0
 22 32  2  0  0  0
 26 27  1  0  0  0
 28100  1  0  0  0
 28101  1  0  0  0
 29102  1  0  0  0
 29103  1  0  0  0
 33 34  1  0  0  0
 33 66  1  0  0  0
 33 70  2  0  0  0
 34 36  1  0  0  0
 34 59  1  0  0  0
 34104  1  0  0  0
 35 44  2  0  0  0
 35 45  1  0  0  0
 35 68  1  0  0  0
 36 56  1  0  0  0
 36105  1  0  0  0
 37 39  1  0  0  0
 37 47  1  0  0  0
 37 66  1  0  0  0
 37106  1  0  0  0
 38 43  2  0  0  0
 38 46  1  0  0  0
 38 47  1  0  0  0
 39 64  1  0  0  0
 39 67  2  0  0  0
 40 52  1  0  0  0
 40 53  2  0  0  0
 40 58  1  0  0  0
 41107  1  0  0  0
 41108  1  0  0  0
 41109  1  0  0  0
 41 48  1  0  0  0
 42 43  1  0  0  0
 42 66  1  0  0  0
 42110  1  0  0  0
 42111  1  0  0  0
 43 44  1  0  0  0
 44112  1  0  0  0
 45 46  2  0  0  0
 45113  1  0  0  0
 46114  1  0  0  0
 47115  1  0  0  0
 47116  1  0  0  0
 48 56  1  0  0  0
 48 65  1  0  0  0
 48117  1  0  0  0
 49 50  1  0  0  0
 49 53  1  0  0  0
 49 64  1  0  0  0
 49118  1  0  0  0
 50 51  1  0  0  0
 50119  1  0  0  0
 50120  1  0  0  0
 51 52  1  0  0  0
 51121  1  0  0  0
 51122  1  0  0  0
 52123  1  0  0  0
 52124  1  0  0  0
 53 54  1  0  0  0
 54 55  2  0  0  0
 54125  1  0  0  0
 55 57  1  0  0  0
 55126  1  0  0  0
 56 69  2  0  0  0
 57 58  2  0  0  0
 57127  1  0  0  0
 58128  1  0  0  0
 59 60  1  0  0  0
 59 61  1  0  0  0
 59 62  1  0  0  0
 60129  1  0  0  0
 60130  1  0  0  0
 60131  1  0  0  0
 61132  1  0  0  0
 61133  1  0  0  0
 61134  1  0  0  0
 62135  1  0  0  0
 62136  1  0  0  0
 62137  1  0  0  0
 63 65  1  0  0  0
 63138  1  0  0  0
 63139  1  0  0  0
 63140  1  0  0  0
 64141  1  0  0  0
 65142  1  0  0  0
 68 78  1  0  0  0
 71 80  2  0  0  0
 71 81  1  0  0  0
 71143  1  0  0  0
 72 73  2  0  0  0
 72 74  1  0  0  0
 72 80  1  0  0  0
 73 75  1  0  0  0
 73 81  1  0  0  0
 74144  1  0  0  0
 74145  1  0  0  0
 74146  1  0  0  0
 75 76  1  0  0  0
 75147  1  0  0  0
 75148  1  0  0  0
 76 78  1  0  0  0
 76149  1  0  0  0
 76150  1  0  0  0
 77 79  1  0  0  0
 77 81  1  0  0  0
 77151  1  0  0  0
 77152  1  0  0  0
 78153  1  0  0  0
 78154  1  0  0  0
 79 82  1  0  0  0
 79 83  1  0  0  0
M  ISO  4   1 100  68 101  78 101  79 100
M  END
> <chiral flag>
0

> <version>
0

> <s_m_source_file>
/data/baiqing/PycharmProjects/Reinvent-master-3.2/result/LINK_invent/BTK/process_docking_weight1_custom_sum_contain_oxygen_bond_distance_aromatic_linkinvent_7_9_3/rearranged_h_0058.sdf

> <i_m_source_file_index>
67

> <r_mmod_Potential_Energy-OPLS-2005>
564.5048828125

> <r_mmod_Stretch_Energy-OPLS-2005>
287.424407958984

> <r_mmod_Bend_Energy-OPLS-2005>
301.601837158203

> <r_mmod_Torsional_Energy-OPLS-2005>
204.671630859375

> <r_mmod_Improper_Torsional_Energy-OPLS-2005>
2.01456022262573

> <r_mmod_Van_der_Waal_Energy-OPLS-2005>
123.095817565918

> <r_mmod_Electrostatic_Energy-OPLS-2005>
-320.780181884766

> <r_mmod_Solvation_Energy-OPLS-2005>
-206.168121337891

> <b_mmod_Minimization_Converged-OPLS-2005>
1

> <r_mmod_RMS_Derivative-OPLS-2005>
0.0444844290614128

$$$$
67
                    3D
 Structure written by MMmdl.
162171  0  0  1  0            999 V2000
  -30.6375  -14.7517   20.4526 C   0  0  0  0  0  0
  -30.4465  -12.4785   19.4325 C   0  0  0  0  0  0
  -29.4989  -12.4849   18.2128 C   0  0  0  0  0  0
  -28.0342  -12.2681   18.6481 C   0  0  0  0  0  0
  -27.6401  -13.1658   19.8455 C   0  0  2  0  0  0
  -28.7124  -13.0929   20.9633 C   0  0  0  0  0  0
  -25.2500  -13.8013   20.5613 C   0  0  0  0  0  0
  -24.1760  -13.0332   20.9198 C   0  0  0  0  0  0
  -24.6307  -11.6822   20.8781 C   0  0  0  0  0  0
  -23.8977  -10.4226   21.0434 C   0  0  0  0  0  0
  -24.3564   -9.4132   21.9189 C   0  0  0  0  0  0
  -23.6243   -8.2169   22.0744 C   0  0  0  0  0  0
  -22.4215   -8.0226   21.3537 C   0  0  0  0  0  0
  -21.9865   -9.0190   20.4622 C   0  0  0  0  0  0
  -22.7182  -10.2069   20.3034 C   0  0  0  0  0  0
  -21.6803   -6.0705   22.5281 C   0  0  0  0  0  0
  -21.3971   -6.5615   23.8211 C   0  0  0  0  0  0
  -21.3660   -5.6785   24.9180 C   0  0  0  0  0  0
  -21.6035   -4.3046   24.7247 C   0  0  0  0  0  0
  -21.8802   -3.8127   23.4368 C   0  0  0  0  0  0
  -21.9176   -4.6945   22.3408 C   0  0  0  0  0  0
  -22.7797  -13.5167   21.1864 C   0  0  0  0  0  0
  -22.1678   -4.2127   21.0996 F   0  0  0  0  0  0
  -21.5636   -3.4539   25.7764 F   0  0  0  0  0  0
  -29.9804  -13.5351   20.3613 N   0  0  0  0  0  0
  -26.2916  -12.9096   20.3310 N   0  0  0  0  0  0
  -25.9210  -11.6321   20.5817 N   0  0  0  0  0  0
  -22.0439  -12.8169   22.0436 N   0  0  0  0  0  0
  -25.4076  -15.1726   20.3889 N   0  0  0  0  0  0
  -31.8495  -14.7678   20.2101 O   0  0  0  0  0  0
  -21.6577   -6.8834   21.4232 O   0  0  0  0  0  0
  -22.3495  -14.5486   20.6737 O   0  0  0  0  0  0
  -24.6221  -31.8597   23.2038 C   0  0  0  0  0  0
  -25.9084  -32.4772   23.8361 C   0  0  1  0  0  0
  -27.2361  -27.3426   20.1268 C   0  0  0  0  0  0
  -25.5922  -33.8575   24.2292 N   0  0  0  0  0  0
  -23.4187  -30.4820   21.5426 C   0  0  2  0  0  0
  -24.8729  -28.9423   20.1081 C   0  0  0  0  0  0
  -22.7469  -29.4620   22.4929 C   0  0  0  0  0  0
  -18.0279  -28.1389   22.8484 C   0  0  0  0  0  0
  -24.1487  -36.7292   23.2637 C   0  0  0  0  0  0
  -25.9559  -30.7987   21.3738 C   0  0  0  0  0  0
  -26.0374  -29.4261   20.7206 C   0  0  0  0  0  0
  -27.2231  -28.6370   20.7248 C   0  0  0  0  0  0
  -26.0556  -26.9116   19.4812 C   0  0  0  0  0  0
  -24.8837  -27.6893   19.4775 C   0  0  0  0  0  0
  -23.6369  -29.8158   20.1575 C   0  0  0  0  0  0
  -25.4115  -36.3082   24.0329 C   0  0  1  0  0  0
  -20.5878  -28.3692   23.1278 C   0  0  2  0  0  0
  -20.6768  -26.9415   22.5409 C   0  0  0  0  0  0
  -19.5763  -26.6391   21.5205 C   0  0  0  0  0  0
  -18.1928  -26.7942   22.1599 C   0  0  0  0  0  0
  -19.1533  -28.8858   23.2878 C   0  0  0  0  0  0
  -18.9451  -30.1447   23.8923 C   0  0  0  0  0  0
  -17.6450  -30.6588   24.0570 C   0  0  0  0  0  0
  -25.9062  -34.9447   23.5118 C   0  0  0  0  0  0
  -16.5344  -29.9092   23.6318 C   0  0  0  0  0  0
  -16.7264  -28.6504   23.0360 C   0  0  0  0  0  0
  -26.4497  -31.6577   25.0713 C   0  0  0  0  0  0
  -25.3744  -31.3721   26.1445 C   0  0  0  0  0  0
  -27.0335  -30.3002   24.6162 C   0  0  0  0  0  0
  -27.6076  -32.4307   25.7459 C   0  0  0  0  0  0
  -27.5584  -37.1789   24.8464 C   0  0  0  0  0  0
  -21.4180  -29.3041   22.3670 N   0  0  0  0  0  0
  -26.4296  -37.3770   23.9408 N   0  0  0  0  0  0
  -24.6836  -31.0631   22.0978 N   0  0  0  0  0  0
  -23.4196  -28.8142   23.2998 O   0  0  0  0  0  0
  -28.3376  -26.4803   20.1639 O   0  0  0  0  0  0
  -26.5647  -34.8903   22.4693 O   0  0  0  0  0  0
  -23.5386  -32.1396   23.7369 O   0  0  0  0  0  0
  -29.7013  -21.9581   20.1868 C   0  0  0  0  0  0
  -28.9752  -23.9882   20.3928 C   0  0  0  0  0  0
  -30.6945  -19.8252   21.4188 C   0  0  0  0  0  0
  -30.2475  -19.6674   19.0024 C   0  0  0  0  0  0
  -30.5205  -18.2795   21.6261 C   0  0  0  0  0  0
  -30.0246  -18.1214   19.0748 C   0  0  0  0  0  0
  -29.8026  -20.4056   20.2914 C   0  0  2  0  0  0
  -30.5887  -17.3622   20.3413 C   0  0  2  0  0  0
  -27.6326  -22.1915   21.6147 C   0  0  0  0  0  0
  -28.4981  -16.1748   20.6722 C   0  0  0  0  0  0
  -28.0595  -25.1749   20.7962 C   0  0  0  0  0  0
  -30.5793  -22.7511   19.5503 N   0  0  0  0  0  0
  -30.0985  -24.0585   19.6623 N   0  0  0  0  0  0
  -28.7105  -22.6949   20.7721 N   0  0  0  0  0  0
  -29.9558  -15.9826   20.5432 N   0  0  0  0  0  0
  -31.4728  -12.6413   19.0983 H   0  0  0  0  0  0
  -30.4498  -11.5006   19.9173 H   0  0  0  0  0  0
  -29.7981  -11.7115   17.5049 H   0  0  0  0  0  0
  -29.5918  -13.4338   17.6835 H   0  0  0  0  0  0
  -27.9189  -11.2188   18.9239 H   0  0  0  0  0  0
  -27.3593  -12.4340   17.8075 H   0  0  0  0  0  0
  -27.6094  -14.1470   19.4030 H   0  0  0  0  0  0
  -28.8006  -12.0619   21.3110 H   0  0  0  0  0  0
  -28.4694  -13.6481   21.8644 H   0  0  0  0  0  0
  -25.2700   -9.5617   22.4770 H   0  0  0  0  0  0
  -23.9932   -7.4554   22.7483 H   0  0  0  0  0  0
  -21.0785   -8.8738   19.8926 H   0  0  0  0  0  0
  -22.3672  -10.9625   19.6155 H   0  0  0  0  0  0
  -21.1933   -7.6121   23.9706 H   0  0  0  0  0  0
  -21.1523   -6.0530   25.9094 H   0  0  0  0  0  0
  -22.0572   -2.7591   23.2891 H   0  0  0  0  0  0
  -22.4078  -11.9849   22.4856 H   0  0  0  0  0  0
  -21.1033  -13.1155   22.2628 H   0  0  0  0  0  0
  -24.6346  -15.8212   20.4836 H   0  0  0  0  0  0
  -26.2584  -15.6167   20.0690 H   0  0  0  0  0  0
  -26.7138  -32.5475   23.1106 H   0  0  0  0  0  0
  -25.0113  -33.9716   25.0466 H   0  0  0  0  0  0
  -22.7110  -31.3010   21.3969 H   0  0  0  0  0  0
  -23.3762  -35.9607   23.3255 H   0  0  0  0  0  0
  -24.3571  -36.8969   22.2058 H   0  0  0  0  0  0
  -23.7210  -37.6464   23.6701 H   0  0  0  0  0  0
  -26.0799  -31.5596   20.6023 H   0  0  0  0  0  0
  -26.8365  -30.8516   22.0011 H   0  0  0  0  0  0
  -28.1104  -29.0015   21.2241 H   0  0  0  0  0  0
  -26.0323  -25.9535   18.9822 H   0  0  0  0  0  0
  -23.9962  -27.3164   18.9851 H   0  0  0  0  0  0
  -23.7479  -30.5924   19.3990 H   0  0  0  0  0  0
  -22.7598  -29.2382   19.8599 H   0  0  0  0  0  0
  -25.1285  -36.1943   25.0821 H   0  0  0  0  0  0
  -20.9959  -28.3260   24.1411 H   0  0  0  0  0  0
  -20.5661  -26.2308   23.3604 H   0  0  0  0  0  0
  -21.6628  -26.7422   22.1225 H   0  0  0  0  0  0
  -19.6928  -25.6308   21.1229 H   0  0  0  0  0  0
  -19.6710  -27.3191   20.6738 H   0  0  0  0  0  0
  -17.4199  -26.6688   21.3994 H   0  0  0  0  0  0
  -18.0308  -26.0062   22.8977 H   0  0  0  0  0  0
  -19.7920  -30.7241   24.2337 H   0  0  0  0  0  0
  -17.5011  -31.6277   24.5164 H   0  0  0  0  0  0
  -15.5362  -30.3020   23.7643 H   0  0  0  0  0  0
  -15.8658  -28.0846   22.7094 H   0  0  0  0  0  0
  -24.5927  -30.7059   25.7776 H   0  0  0  0  0  0
  -24.8935  -32.2889   26.4868 H   0  0  0  0  0  0
  -25.8080  -30.8907   27.0212 H   0  0  0  0  0  0
  -26.2890  -29.6725   24.1248 H   0  0  0  0  0  0
  -27.4089  -29.7303   25.4669 H   0  0  0  0  0  0
  -27.8741  -30.4288   23.9339 H   0  0  0  0  0  0
  -27.2736  -33.3654   26.1974 H   0  0  0  0  0  0
  -28.3912  -32.6765   25.0281 H   0  0  0  0  0  0
  -28.0695  -31.8448   26.5411 H   0  0  0  0  0  0
  -28.2594  -38.0093   24.7521 H   0  0  0  0  0  0
  -28.1087  -36.2621   24.6287 H   0  0  0  0  0  0
  -27.2298  -37.1443   25.8866 H   0  0  0  0  0  0
  -20.9362  -29.8799   21.6905 H   0  0  0  0  0  0
  -26.0183  -38.2843   24.1421 H   0  0  0  0  0  0
  -31.7417  -20.0580   21.2151 H   0  0  0  0  0  0
  -30.4589  -20.3249   22.3607 H   0  0  0  0  0  0
  -29.6897  -20.0569   18.1488 H   0  0  0  0  0  0
  -31.2957  -19.8886   18.7922 H   0  0  0  0  0  0
  -29.5755  -18.1579   22.1503 H   0  0  0  0  0  0
  -31.2590  -17.9315   22.3497 H   0  0  0  0  0  0
  -30.4307  -17.6588   18.1727 H   0  0  0  0  0  0
  -28.9481  -17.9963   18.9809 H   0  0  0  0  0  0
  -28.7906  -20.0563   20.4938 H   0  0  0  0  0  0
  -31.6545  -17.2372   20.1415 H   0  0  0  0  0  0
  -28.0490  -21.7929   22.5421 H   0  0  0  0  0  0
  -27.0932  -21.3966   21.0991 H   0  0  0  0  0  0
  -26.9206  -22.9757   21.8685 H   0  0  0  0  0  0
  -28.2063  -17.1794   20.9646 H   0  0  0  0  0  0
  -28.0060  -15.5552   21.4087 H   0  0  0  0  0  0
  -28.0330  -16.0781   19.6937 H   0  0  0  0  0  0
  -28.1362  -25.3068   21.8758 H   0  0  0  0  0  0
  -27.0359  -24.8525   20.6149 H   0  0  0  0  0  0
  1 25  1  0  0  0
  1 30  2  0  0  0
  1 85  1  0  0  0
  2  3  1  0  0  0
  2 25  1  0  0  0
  2 86  1  0  0  0
  2 87  1  0  0  0
  3  4  1  0  0  0
  3 88  1  0  0  0
  3 89  1  0  0  0
  4  5  1  0  0  0
  4 90  1  0  0  0
  4 91  1  0  0  0
  5  6  1  0  0  0
  5 26  1  0  0  0
  5 92  1  0  0  0
  6 25  1  0  0  0
  6 93  1  0  0  0
  6 94  1  0  0  0
  7  8  2  0  0  0
  7 26  1  0  0  0
  7 29  1  0  0  0
  8  9  1  0  0  0
  8 22  1  0  0  0
  9 10  1  0  0  0
  9 27  2  0  0  0
 10 11  2  0  0  0
 10 15  1  0  0  0
 11 12  1  0  0  0
 11 95  1  0  0  0
 12 13  2  0  0  0
 12 96  1  0  0  0
 13 14  1  0  0  0
 13 31  1  0  0  0
 14 15  2  0  0  0
 14 97  1  0  0  0
 15 98  1  0  0  0
 16 17  2  0  0  0
 16 21  1  0  0  0
 16 31  1  0  0  0
 17 18  1  0  0  0
 17 99  1  0  0  0
 18 19  2  0  0  0
 18100  1  0  0  0
 19 20  1  0  0  0
 19 24  1  0  0  0
 20 21  2  0  0  0
 20101  1  0  0  0
 21 23  1  0  0  0
 22 28  1  0  0  0
 22 32  2  0  0  0
 26 27  1  0  0  0
 28102  1  0  0  0
 28103  1  0  0  0
 29104  1  0  0  0
 29105  1  0  0  0
 33 34  1  0  0  0
 33 66  1  0  0  0
 33 70  2  0  0  0
 34 36  1  0  0  0
 34 59  1  0  0  0
 34106  1  0  0  0
 35 44  2  0  0  0
 35 45  1  0  0  0
 35 68  1  0  0  0
 36 56  1  0  0  0
 36107  1  0  0  0
 37 39  1  0  0  0
 37 47  1  0  0  0
 37 66  1  0  0  0
 37108  1  0  0  0
 38 43  2  0  0  0
 38 46  1  0  0  0
 38 47  1  0  0  0
 39 64  1  0  0  0
 39 67  2  0  0  0
 40 52  1  0  0  0
 40 53  2  0  0  0
 40 58  1  0  0  0
 41109  1  0  0  0
 41110  1  0  0  0
 41111  1  0  0  0
 41 48  1  0  0  0
 42 43  1  0  0  0
 42 66  1  0  0  0
 42112  1  0  0  0
 42113  1  0  0  0
 43 44  1  0  0  0
 44114  1  0  0  0
 45 46  2  0  0  0
 45115  1  0  0  0
 46116  1  0  0  0
 47117  1  0  0  0
 47118  1  0  0  0
 48 56  1  0  0  0
 48 65  1  0  0  0
 48119  1  0  0  0
 49 50  1  0  0  0
 49 53  1  0  0  0
 49 64  1  0  0  0
 49120  1  0  0  0
 50 51  1  0  0  0
 50121  1  0  0  0
 50122  1  0  0  0
 51 52  1  0  0  0
 51123  1  0  0  0
 51124  1  0  0  0
 52125  1  0  0  0
 52126  1  0  0  0
 53 54  1  0  0  0
 54 55  2  0  0  0
 54127  1  0  0  0
 55 57  1  0  0  0
 55128  1  0  0  0
 56 69  2  0  0  0
 57 58  2  0  0  0
 57129  1  0  0  0
 58130  1  0  0  0
 59 60  1  0  0  0
 59 61  1  0  0  0
 59 62  1  0  0  0
 60131  1  0  0  0
 60132  1  0  0  0
 60133  1  0  0  0
 61134  1  0  0  0
 61135  1  0  0  0
 61136  1  0  0  0
 62137  1  0  0  0
 62138  1  0  0  0
 62139  1  0  0  0
 63 65  1  0  0  0
 63140  1  0  0  0
 63141  1  0  0  0
 63142  1  0  0  0
 64143  1  0  0  0
 65144  1  0  0  0
 68 81  1  0  0  0
 71 82  2  0  0  0
 71 84  1  0  0  0
 71 77  1  0  0  0
 72 81  1  0  0  0
 72 83  2  0  0  0
 72 84  1  0  0  0
 73 75  1  0  0  0
 73 77  1  0  0  0
 73145  1  0  0  0
 73146  1  0  0  0
 74 76  1  0  0  0
 74 77  1  0  0  0
 74147  1  0  0  0
 74148  1  0  0  0
 75 78  1  0  0  0
 75149  1  0  0  0
 75150  1  0  0  0
 76 78  1  0  0  0
 76151  1  0  0  0
 76152  1  0  0  0
 77153  1  0  0  0
 78 85  1  0  0  0
 78154  1  0  0  0
 79 84  1  0  0  0
 79155  1  0  0  0
 79156  1  0  0  0
 79157  1  0  0  0
 80 85  1  0  0  0
 80158  1  0  0  0
 80159  1  0  0  0
 80160  1  0  0  0
 81161  1  0  0  0
 81162  1  0  0  0
 82 83  1  0  0  0
M  ISO  4   1 100  68 101  81 101  85 100
M  END
> <chiral flag>
0

> <version>
0

> <s_m_source_file>
/data/baiqing/PycharmProjects/Reinvent-master-3.2/result/LINK_invent/BTK/process_docking_weight1_custom_sum_contain_oxygen_bond_distance_aromatic_linkinvent_7_9_3/rearranged_h_0058.sdf

> <i_m_source_file_index>
68

> <r_mmod_Potential_Energy-OPLS-2005>
336.801696777344

> <r_mmod_Stretch_Energy-OPLS-2005>
92.5455169677734

> <r_mmod_Bend_Energy-OPLS-2005>
176.436538696289

> <r_mmod_Torsional_Energy-OPLS-2005>
313.256439208984

> <r_mmod_Improper_Torsional_Energy-OPLS-2005>
6.10949420928955

> <r_mmod_Van_der_Waal_Energy-OPLS-2005>
152.750183105469

> <r_mmod_Electrostatic_Energy-OPLS-2005>
-238.237197875977

> <r_mmod_Solvation_Energy-OPLS-2005>
-236.474578857422

> <b_mmod_Minimization_Converged-OPLS-2005>
0

> <r_mmod_RMS_Derivative-OPLS-2005>
3.256507396698

$$$$
68
                    3D
 Structure written by MMmdl.
162170  0  0  1  0            999 V2000
  -30.6128  -14.7796   20.3787 C   0  0  0  0  0  0
  -30.4286  -12.4677   19.4662 C   0  0  0  0  0  0
  -29.5090  -12.4831   18.2283 C   0  0  0  0  0  0
  -28.0356  -12.3151   18.6492 C   0  0  0  0  0  0
  -27.6335  -13.2257   19.8430 C   0  0  2  0  0  0
  -28.6857  -13.2194   20.9681 C   0  0  0  0  0  0
  -25.2490  -13.8117   20.5692 C   0  0  0  0  0  0
  -24.1783  -13.0392   20.9229 C   0  0  0  0  0  0
  -24.6383  -11.6877   20.8770 C   0  0  0  0  0  0
  -23.9064  -10.4262   21.0421 C   0  0  0  0  0  0
  -24.3616   -9.4180   21.9198 C   0  0  0  0  0  0
  -23.6289   -8.2221   22.0756 C   0  0  0  0  0  0
  -22.4271   -8.0268   21.3543 C   0  0  0  0  0  0
  -21.9905   -9.0244   20.4648 C   0  0  0  0  0  0
  -22.7238  -10.2119   20.3062 C   0  0  0  0  0  0
  -21.6851   -6.0727   22.5282 C   0  0  0  0  0  0
  -21.4015   -6.5633   23.8215 C   0  0  0  0  0  0
  -21.3666   -5.6782   24.9177 C   0  0  0  0  0  0
  -21.6062   -4.3047   24.7231 C   0  0  0  0  0  0
  -21.8816   -3.8139   23.4349 C   0  0  0  0  0  0
  -21.9188   -4.6954   22.3404 C   0  0  0  0  0  0
  -22.7812  -13.5203   21.1880 C   0  0  0  0  0  0
  -22.1655   -4.2145   21.0982 F   0  0  0  0  0  0
  -21.5635   -3.4528   25.7738 F   0  0  0  0  0  0
  -29.9704  -13.5611   20.3486 N   0  0  0  0  0  0
  -26.2914  -12.9330   20.3289 N   0  0  0  0  0  0
  -25.9316  -11.6487   20.5782 N   0  0  0  0  0  0
  -22.0433  -12.8215   22.0432 N   0  0  0  0  0  0
  -25.4157  -15.1802   20.4031 N   0  0  0  0  0  0
  -31.8413  -14.8122   20.2532 O   0  0  0  0  0  0
  -21.6635   -6.8867   21.4242 O   0  0  0  0  0  0
  -22.3527  -14.5526   20.6734 O   0  0  0  0  0  0
  -24.6294  -31.8561   23.1983 C   0  0  0  0  0  0
  -25.9116  -32.4759   23.8338 C   0  0  1  0  0  0
  -27.2240  -27.2741   20.1077 C   0  0  0  0  0  0
  -25.5917  -33.8564   24.2264 N   0  0  0  0  0  0
  -23.4254  -30.4786   21.5417 C   0  0  2  0  0  0
  -24.8703  -28.9235   20.1077 C   0  0  0  0  0  0
  -22.7490  -29.4601   22.4905 C   0  0  0  0  0  0
  -18.0286  -28.1389   22.8480 C   0  0  0  0  0  0
  -24.1488  -36.7290   23.2646 C   0  0  0  0  0  0
  -25.9694  -30.7698   21.3762 C   0  0  0  0  0  0
  -26.0399  -29.3927   20.7170 C   0  0  0  0  0  0
  -27.2138  -28.5778   20.7098 C   0  0  0  0  0  0
  -26.0240  -26.8600   19.4873 C   0  0  0  0  0  0
  -24.8659  -27.6646   19.4871 C   0  0  0  0  0  0
  -23.6427  -29.8132   20.1569 C   0  0  0  0  0  0
  -25.4110  -36.3077   24.0336 C   0  0  1  0  0  0
  -20.5894  -28.3697   23.1266 C   0  0  2  0  0  0
  -20.6768  -26.9414   22.5413 C   0  0  0  0  0  0
  -19.5746  -26.6379   21.5207 C   0  0  0  0  0  0
  -18.1927  -26.7931   22.1622 C   0  0  0  0  0  0
  -19.1542  -28.8855   23.2870 C   0  0  0  0  0  0
  -18.9471  -30.1455   23.8894 C   0  0  0  0  0  0
  -17.6472  -30.6591   24.0565 C   0  0  0  0  0  0
  -25.9052  -34.9444   23.5100 C   0  0  0  0  0  0
  -16.5357  -29.9093   23.6331 C   0  0  0  0  0  0
  -16.7278  -28.6508   23.0351 C   0  0  0  0  0  0
  -26.4488  -31.6579   25.0725 C   0  0  0  0  0  0
  -25.3720  -31.3722   26.1456 C   0  0  0  0  0  0
  -27.0345  -30.3005   24.6193 C   0  0  0  0  0  0
  -27.6050  -32.4317   25.7494 C   0  0  0  0  0  0
  -27.5576  -37.1801   24.8467 C   0  0  0  0  0  0
  -21.4200  -29.3041   22.3656 N   0  0  0  0  0  0
  -26.4284  -37.3772   23.9416 N   0  0  0  0  0  0
  -24.6939  -31.0533   22.0958 N   0  0  0  0  0  0
  -23.4195  -28.8144   23.3007 O   0  0  0  0  0  0
  -28.3546  -26.4311   20.1764 O   0  0  0  0  0  0
  -26.5631  -34.8916   22.4683 O   0  0  0  0  0  0
  -23.5443  -32.1381   23.7279 O   0  0  0  0  0  0
  -30.0293  -19.8389   20.1186 C   0  0  0  0  0  0
  -29.0343  -20.9026   20.1055 C   0  0  0  0  0  0
  -29.4412  -18.6513   20.5597 C   0  0  0  0  0  0
  -25.6863  -18.4862   20.5819 C   0  0  0  0  0  0
  -28.4544  -16.5065   18.0979 C   0  0  0  0  0  0
  -29.0889  -22.3879   19.5466 C   0  0  0  0  0  0
  -30.0340  -17.2226   20.9498 C   0  0  0  0  0  0
  -28.5166  -23.6835   20.3317 C   0  0  0  0  0  0
  -27.0203  -18.2566   21.3165 C   0  0  0  0  0  0
  -29.8659  -16.3298   18.6813 C   0  0  0  0  0  0
  -28.4689  -25.0870   19.5236 C   0  0  0  0  0  0
  -27.8864  -20.3669   20.4918 N   0  0  0  0  0  0
  -28.1174  -19.0420   20.7681 N   0  0  0  0  0  0
  -29.8781  -15.9463   20.1123 N   0  0  0  0  0  0
  -31.4715  -12.5872   19.1671 H   0  0  0  0  0  0
  -30.3682  -11.5086   19.9825 H   0  0  0  0  0  0
  -29.7963  -11.6901   17.5364 H   0  0  0  0  0  0
  -29.6329  -13.4186   17.6818 H   0  0  0  0  0  0
  -27.8946  -11.2688   18.9236 H   0  0  0  0  0  0
  -27.3789  -12.4924   17.7971 H   0  0  0  0  0  0
  -27.6056  -14.2389   19.4565 H   0  0  0  0  0  0
  -28.7343  -12.2488   21.4625 H   0  0  0  0  0  0
  -28.4244  -13.9508   21.7352 H   0  0  0  0  0  0
  -25.2759   -9.5670   22.4768 H   0  0  0  0  0  0
  -24.0006   -7.4615   22.7480 H   0  0  0  0  0  0
  -21.0834   -8.8782   19.8948 H   0  0  0  0  0  0
  -22.3714  -10.9673   19.6177 H   0  0  0  0  0  0
  -21.2001   -7.6135   23.9724 H   0  0  0  0  0  0
  -21.1501   -6.0505   25.9087 H   0  0  0  0  0  0
  -22.0585   -2.7601   23.2844 H   0  0  0  0  0  0
  -22.4034  -11.9894   22.4869 H   0  0  0  0  0  0
  -21.1059  -13.1284   22.2622 H   0  0  0  0  0  0
  -24.6436  -15.8272   20.5078 H   0  0  0  0  0  0
  -26.2579  -15.6141   20.0524 H   0  0  0  0  0  0
  -26.7181  -32.5411   23.1079 H   0  0  0  0  0  0
  -25.0032  -33.9698   25.0386 H   0  0  0  0  0  0
  -22.7209  -31.3005   21.3968 H   0  0  0  0  0  0
  -23.3745  -35.9626   23.3303 H   0  0  0  0  0  0
  -24.3584  -36.8917   22.2061 H   0  0  0  0  0  0
  -23.7231  -37.6490   23.6672 H   0  0  0  0  0  0
  -26.1051  -31.5296   20.6048 H   0  0  0  0  0  0
  -26.8486  -30.8213   22.0078 H   0  0  0  0  0  0
  -28.1103  -28.9313   21.1987 H   0  0  0  0  0  0
  -25.9374  -25.8913   19.0218 H   0  0  0  0  0  0
  -23.9657  -27.2955   19.0140 H   0  0  0  0  0  0
  -23.7718  -30.5914   19.4042 H   0  0  0  0  0  0
  -22.7590  -29.2517   19.8496 H   0  0  0  0  0  0
  -25.1281  -36.1936   25.0825 H   0  0  0  0  0  0
  -20.9978  -28.3278   24.1391 H   0  0  0  0  0  0
  -20.5646  -26.2316   23.3623 H   0  0  0  0  0  0
  -21.6640  -26.7423   22.1226 H   0  0  0  0  0  0
  -19.6913  -25.6282   21.1254 H   0  0  0  0  0  0
  -19.6690  -27.3172   20.6724 H   0  0  0  0  0  0
  -17.4199  -26.6671   21.4027 H   0  0  0  0  0  0
  -18.0332  -26.0075   22.9022 H   0  0  0  0  0  0
  -19.7947  -30.7262   24.2267 H   0  0  0  0  0  0
  -17.5034  -31.6271   24.5167 H   0  0  0  0  0  0
  -15.5360  -30.3004   23.7651 H   0  0  0  0  0  0
  -15.8673  -28.0829   22.7070 H   0  0  0  0  0  0
  -24.5888  -30.7073   25.7788 H   0  0  0  0  0  0
  -24.8914  -32.2891   26.4887 H   0  0  0  0  0  0
  -25.8045  -30.8901   27.0232 H   0  0  0  0  0  0
  -26.2930  -29.6750   24.1207 H   0  0  0  0  0  0
  -27.4033  -29.7263   25.4701 H   0  0  0  0  0  0
  -27.8799  -30.4296   23.9432 H   0  0  0  0  0  0
  -27.2661  -33.3617   26.2070 H   0  0  0  0  0  0
  -28.3857  -32.6874   25.0319 H   0  0  0  0  0  0
  -28.0723  -31.8447   26.5409 H   0  0  0  0  0  0
  -28.2589  -38.0100   24.7507 H   0  0  0  0  0  0
  -28.1070  -36.2630   24.6290 H   0  0  0  0  0  0
  -27.2307  -37.1451   25.8874 H   0  0  0  0  0  0
  -20.9382  -29.8793   21.6886 H   0  0  0  0  0  0
  -26.0166  -38.2852   24.1409 H   0  0  0  0  0  0
  -31.0675  -19.9451   19.8371 H   0  0  0  0  0  0
  -24.8909  -17.8928   21.0311 H   0  0  0  0  0  0
  -25.7624  -18.1982   19.5333 H   0  0  0  0  0  0
  -25.3695  -19.5283   20.6196 H   0  0  0  0  0  0
  -28.4920  -17.1261   17.2006 H   0  0  0  0  0  0
  -27.7767  -16.9927   18.7965 H   0  0  0  0  0  0
  -28.0182  -15.5565   17.7962 H   0  0  0  0  0  0
  -28.6059  -22.3776   18.5690 H   0  0  0  0  0  0
  -30.1318  -22.6088   19.3184 H   0  0  0  0  0  0
  -29.6679  -16.9746   21.9458 H   0  0  0  0  0  0
  -31.1064  -17.3601   21.0920 H   0  0  0  0  0  0
  -29.1062  -23.8193   21.2377 H   0  0  0  0  0  0
  -27.5040  -23.4602   20.6674 H   0  0  0  0  0  0
  -26.9153  -18.5099   22.3720 H   0  0  0  0  0  0
  -27.2845  -17.2003   21.2772 H   0  0  0  0  0  0
  -30.4332  -17.2517   18.5381 H   0  0  0  0  0  0
  -30.3978  -15.6086   18.0564 H   0  0  0  0  0  0
  -27.7754  -24.9876   18.6909 H   0  0  0  0  0  0
  -29.4318  -25.1529   19.0171 H   0  0  0  0  0  0
  1 25  1  0  0  0
  1 30  2  0  0  0
  1 84  1  0  0  0
  2  3  1  0  0  0
  2 25  1  0  0  0
  2 85  1  0  0  0
  2 86  1  0  0  0
  3  4  1  0  0  0
  3 87  1  0  0  0
  3 88  1  0  0  0
  4  5  1  0  0  0
  4 89  1  0  0  0
  4 90  1  0  0  0
  5  6  1  0  0  0
  5 26  1  0  0  0
  5 91  1  0  0  0
  6 25  1  0  0  0
  6 92  1  0  0  0
  6 93  1  0  0  0
  7  8  2  0  0  0
  7 26  1  0  0  0
  7 29  1  0  0  0
  8  9  1  0  0  0
  8 22  1  0  0  0
  9 10  1  0  0  0
  9 27  2  0  0  0
 10 11  2  0  0  0
 10 15  1  0  0  0
 11 12  1  0  0  0
 11 94  1  0  0  0
 12 13  2  0  0  0
 12 95  1  0  0  0
 13 14  1  0  0  0
 13 31  1  0  0  0
 14 15  2  0  0  0
 14 96  1  0  0  0
 15 97  1  0  0  0
 16 17  2  0  0  0
 16 21  1  0  0  0
 16 31  1  0  0  0
 17 18  1  0  0  0
 17 98  1  0  0  0
 18 19  2  0  0  0
 18 99  1  0  0  0
 19 20  1  0  0  0
 19 24  1  0  0  0
 20 21  2  0  0  0
 20100  1  0  0  0
 21 23  1  0  0  0
 22 28  1  0  0  0
 22 32  2  0  0  0
 26 27  1  0  0  0
 28101  1  0  0  0
 28102  1  0  0  0
 29103  1  0  0  0
 29104  1  0  0  0
 33 34  1  0  0  0
 33 66  1  0  0  0
 33 70  2  0  0  0
 34 36  1  0  0  0
 34 59  1  0  0  0
 34105  1  0  0  0
 35 44  2  0  0  0
 35 45  1  0  0  0
 35 68  1  0  0  0
 36 56  1  0  0  0
 36106  1  0  0  0
 37 39  1  0  0  0
 37 47  1  0  0  0
 37 66  1  0  0  0
 37107  1  0  0  0
 38 43  2  0  0  0
 38 46  1  0  0  0
 38 47  1  0  0  0
 39 64  1  0  0  0
 39 67  2  0  0  0
 40 52  1  0  0  0
 40 53  2  0  0  0
 40 58  1  0  0  0
 41108  1  0  0  0
 41109  1  0  0  0
 41110  1  0  0  0
 41 48  1  0  0  0
 42 43  1  0  0  0
 42 66  1  0  0  0
 42111  1  0  0  0
 42112  1  0  0  0
 43 44  1  0  0  0
 44113  1  0  0  0
 45 46  2  0  0  0
 45114  1  0  0  0
 46115  1  0  0  0
 47116  1  0  0  0
 47117  1  0  0  0
 48 56  1  0  0  0
 48 65  1  0  0  0
 48118  1  0  0  0
 49 50  1  0  0  0
 49 53  1  0  0  0
 49 64  1  0  0  0
 49119  1  0  0  0
 50 51  1  0  0  0
 50120  1  0  0  0
 50121  1  0  0  0
 51 52  1  0  0  0
 51122  1  0  0  0
 51123  1  0  0  0
 52124  1  0  0  0
 52125  1  0  0  0
 53 54  1  0  0  0
 54 55  2  0  0  0
 54126  1  0  0  0
 55 57  1  0  0  0
 55127  1  0  0  0
 56 69  2  0  0  0
 57 58  2  0  0  0
 57128  1  0  0  0
 58129  1  0  0  0
 59 60  1  0  0  0
 59 61  1  0  0  0
 59 62  1  0  0  0
 60130  1  0  0  0
 60131  1  0  0  0
 60132  1  0  0  0
 61133  1  0  0  0
 61134  1  0  0  0
 61135  1  0  0  0
 62136  1  0  0  0
 62137  1  0  0  0
 62138  1  0  0  0
 63 65  1  0  0  0
 63139  1  0  0  0
 63140  1  0  0  0
 63141  1  0  0  0
 64142  1  0  0  0
 65143  1  0  0  0
 68 81  1  0  0  0
 71 72  1  0  0  0
 71 73  2  0  0  0
 71144  1  0  0  0
 72 76  1  0  0  0
 72 82  2  0  0  0
 73 77  1  0  0  0
 73 83  1  0  0  0
 74 79  1  0  0  0
 74145  1  0  0  0
 74146  1  0  0  0
 74147  1  0  0  0
 75 80  1  0  0  0
 75148  1  0  0  0
 75149  1  0  0  0
 75150  1  0  0  0
 76 78  1  0  0  0
 76151  1  0  0  0
 76152  1  0  0  0
 77 84  1  0  0  0
 77153  1  0  0  0
 77154  1  0  0  0
 78 81  1  0  0  0
 78155  1  0  0  0
 78156  1  0  0  0
 79 83  1  0  0  0
 79157  1  0  0  0
 79158  1  0  0  0
 80 84  1  0  0  0
 80159  1  0  0  0
 80160  1  0  0  0
 81161  1  0  0  0
 81162  1  0  0  0
 82 83  1  0  0  0
M  ISO  4   1 100  68 101  81 101  84 100
M  END
> <chiral flag>
0

> <version>
0

> <s_m_source_file>
/data/baiqing/PycharmProjects/Reinvent-master-3.2/result/LINK_invent/BTK/process_docking_weight1_custom_sum_contain_oxygen_bond_distance_aromatic_linkinvent_7_9_3/rearranged_h_0058.sdf

> <i_m_source_file_index>
69

> <r_mmod_Potential_Energy-OPLS-2005>
281.207427978516

> <r_mmod_Stretch_Energy-OPLS-2005>
122.043930053711

> <r_mmod_Bend_Energy-OPLS-2005>
195.383117675781

> <r_mmod_Torsional_Energy-OPLS-2005>
298.249389648438

> <r_mmod_Improper_Torsional_Energy-OPLS-2005>
18.3261489868164

> <r_mmod_Van_der_Waal_Energy-OPLS-2005>
106.732711791992

> <r_mmod_Electrostatic_Energy-OPLS-2005>
-355.848358154297

> <r_mmod_Solvation_Energy-OPLS-2005>
-199.765228271484

> <b_mmod_Minimization_Converged-OPLS-2005>
0

> <r_mmod_RMS_Derivative-OPLS-2005>
1.92616307735443

$$$$
69
                    3D
 Structure written by MMmdl.
147155  0  0  1  0            999 V2000
  -30.2222  -15.7280   20.2875 C   0  0  0  0  0  0
  -30.4352  -13.1347   19.5536 C   0  0  0  0  0  0
  -29.5659  -12.6775   18.3408 C   0  0  0  0  0  0
  -28.1409  -12.3010   18.7773 C   0  0  0  0  0  0
  -27.5955  -13.3104   19.8098 C   0  0  2  0  0  0
  -28.6052  -13.6689   20.9242 C   0  0  0  0  0  0
  -25.2348  -13.8266   20.5829 C   0  0  0  0  0  0
  -24.1703  -13.0416   20.9205 C   0  0  0  0  0  0
  -24.6412  -11.6928   20.8702 C   0  0  0  0  0  0
  -23.9116  -10.4281   21.0363 C   0  0  0  0  0  0
  -24.3651   -9.4206   21.9158 C   0  0  0  0  0  0
  -23.6312   -8.2249   22.0746 C   0  0  0  0  0  0
  -22.4296   -8.0281   21.3540 C   0  0  0  0  0  0
  -21.9934   -9.0249   20.4635 C   0  0  0  0  0  0
  -22.7274  -10.2117   20.3027 C   0  0  0  0  0  0
  -21.6859   -6.0738   22.5282 C   0  0  0  0  0  0
  -21.4017   -6.5638   23.8217 C   0  0  0  0  0  0
  -21.3668   -5.6791   24.9177 C   0  0  0  0  0  0
  -21.6047   -4.3053   24.7226 C   0  0  0  0  0  0
  -21.8817   -3.8146   23.4348 C   0  0  0  0  0  0
  -21.9194   -4.6966   22.3403 C   0  0  0  0  0  0
  -22.7727  -13.5154   21.1885 C   0  0  0  0  0  0
  -22.1659   -4.2151   21.0980 F   0  0  0  0  0  0
  -21.5634   -3.4537   25.7739 F   0  0  0  0  0  0
  -29.7813  -14.3167   20.2885 N   0  0  0  0  0  0
  -26.2791  -12.9595   20.3247 N   0  0  0  0  0  0
  -25.9369  -11.6666   20.5659 N   0  0  0  0  0  0
  -22.0401  -12.8132   22.0442 N   0  0  0  0  0  0
  -25.4077  -15.2022   20.4518 N   0  0  0  0  0  0
  -31.4651  -15.6833   20.1610 O   0  0  0  0  0  0
  -21.6649   -6.8886   21.4247 O   0  0  0  0  0  0
  -22.3415  -14.5480   20.6766 O   0  0  0  0  0  0
  -24.6905  -31.7924   23.1463 C   0  0  0  0  0  0
  -25.9456  -32.4429   23.8033 C   0  0  1  0  0  0
  -27.2323  -26.6366   20.2226 C   0  0  0  0  0  0
  -25.6011  -33.8257   24.1916 N   0  0  0  0  0  0
  -23.5202  -30.3914   21.5017 C   0  0  2  0  0  0
  -24.9798  -28.7186   20.1217 C   0  0  0  0  0  0
  -22.7797  -29.4277   22.4695 C   0  0  0  0  0  0
  -18.0347  -28.1428   22.8455 C   0  0  0  0  0  0
  -24.1490  -36.7119   23.2655 C   0  0  0  0  0  0
  -26.1045  -30.5035   21.4219 C   0  0  0  0  0  0
  -26.1707  -29.0609   20.7730 C   0  0  0  0  0  0
  -27.2796  -28.0508   20.7876 C   0  0  0  0  0  0
  -26.0065  -26.5213   19.5131 C   0  0  0  0  0  0
  -24.9408  -27.4752   19.4671 C   0  0  0  0  0  0
  -23.7793  -29.6821   20.1403 C   0  0  0  0  0  0
  -25.4144  -36.2868   24.0280 C   0  0  1  0  0  0
  -20.5986  -28.3790   23.1128 C   0  0  2  0  0  0
  -20.6807  -26.9443   22.5403 C   0  0  0  0  0  0
  -19.5782  -26.6374   21.5217 C   0  0  0  0  0  0
  -18.1967  -26.7956   22.1621 C   0  0  0  0  0  0
  -19.1616  -28.8937   23.2771 C   0  0  0  0  0  0
  -18.9518  -30.1520   23.8817 C   0  0  0  0  0  0
  -17.6506  -30.6609   24.0553 C   0  0  0  0  0  0
  -25.9133  -34.9264   23.4938 C   0  0  0  0  0  0
  -16.5397  -29.9088   23.6358 C   0  0  0  0  0  0
  -16.7326  -28.6512   23.0372 C   0  0  0  0  0  0
  -26.4616  -31.6488   25.0680 C   0  0  0  0  0  0
  -25.3666  -31.3824   26.1283 C   0  0  0  0  0  0
  -27.0563  -30.2821   24.6629 C   0  0  0  0  0  0
  -27.6058  -32.4363   25.7495 C   0  0  0  0  0  0
  -27.5559  -37.1714   24.8470 C   0  0  0  0  0  0
  -21.4439  -29.3024   22.3441 N   0  0  0  0  0  0
  -26.4260  -37.3640   23.9421 N   0  0  0  0  0  0
  -24.7958  -30.9300   22.0759 N   0  0  0  0  0  0
  -23.4207  -28.7886   23.3072 O   0  0  0  0  0  0
  -28.1830  -25.3830   20.2865 O   0  0  0  0  0  0
  -26.5774  -34.8856   22.4558 O   0  0  0  0  0  0
  -23.5910  -32.1036   23.6369 O   0  0  0  0  0  0
  -28.3405  -20.4292   20.4846 C   0  0  0  0  0  0
  -28.7243  -21.8793   20.2643 C   0  0  0  0  0  0
  -27.8978  -23.6181   20.2037 C   0  0  0  0  0  0
  -28.6629  -17.2157   18.7340 C   0  0  0  0  0  0
  -29.2575  -17.3834   20.1593 C   0  0  2  0  0  0
  -30.0487  -21.4427   19.8891 N   0  0  0  0  0  0
  -30.3428  -20.0803   19.8864 N   0  0  0  0  0  0
  -29.3175  -19.2188   20.2926 N   0  0  0  0  0  0
  -27.3955  -17.9444   18.5083 N   0  3  0  0  0  0
  -31.4213  -13.4166   19.1833 H   0  0  0  0  0  0
  -30.6187  -12.3008   20.2333 H   0  0  0  0  0  0
  -30.0366  -11.8373   17.8286 H   0  0  0  0  0  0
  -29.5173  -13.4897   17.6142 H   0  0  0  0  0  0
  -28.1794  -11.3081   19.2268 H   0  0  0  0  0  0
  -27.4781  -12.2235   17.9147 H   0  0  0  0  0  0
  -27.4429  -14.2199   19.2293 H   0  0  0  0  0  0
  -28.8761  -12.7922   21.5150 H   0  0  0  0  0  0
  -28.1558  -14.3741   21.6241 H   0  0  0  0  0  0
  -25.2791   -9.5685   22.4742 H   0  0  0  0  0  0
  -24.0016   -7.4648   22.7476 H   0  0  0  0  0  0
  -21.0864   -8.8765   19.8942 H   0  0  0  0  0  0
  -22.3728  -10.9650   19.6133 H   0  0  0  0  0  0
  -21.2003   -7.6145   23.9722 H   0  0  0  0  0  0
  -21.1494   -6.0517   25.9082 H   0  0  0  0  0  0
  -22.0588   -2.7608   23.2846 H   0  0  0  0  0  0
  -22.4026  -11.9788   22.4816 H   0  0  0  0  0  0
  -21.1013  -13.1137   22.2656 H   0  0  0  0  0  0
  -24.6617  -15.8136   20.7666 H   0  0  0  0  0  0
  -26.3246  -15.5881   20.6179 H   0  0  0  0  0  0
  -26.7541  -32.4889   23.0744 H   0  0  0  0  0  0
  -25.0085  -33.9287   25.0023 H   0  0  0  0  0  0
  -22.8492  -31.2306   21.3048 H   0  0  0  0  0  0
  -23.3785  -35.9415   23.3254 H   0  0  0  0  0  0
  -24.3555  -36.8844   22.2082 H   0  0  0  0  0  0
  -23.7211  -37.6263   23.6775 H   0  0  0  0  0  0
  -26.3152  -31.2243   20.6307 H   0  0  0  0  0  0
  -26.9521  -30.5735   22.0912 H   0  0  0  0  0  0
  -28.1739  -28.3228   21.3303 H   0  0  0  0  0  0
  -25.8263  -25.5854   19.0043 H   0  0  0  0  0  0
  -24.0444  -27.2034   18.9265 H   0  0  0  0  0  0
  -23.9621  -30.4393   19.3773 H   0  0  0  0  0  0
  -22.8833  -29.1527   19.8126 H   0  0  0  0  0  0
  -25.1353  -36.1616   25.0767 H   0  0  0  0  0  0
  -21.0069  -28.3422   24.1255 H   0  0  0  0  0  0
  -20.5669  -26.2417   23.3673 H   0  0  0  0  0  0
  -21.6666  -26.7379   22.1221 H   0  0  0  0  0  0
  -19.6935  -25.6266   21.1297 H   0  0  0  0  0  0
  -19.6726  -27.3144   20.6716 H   0  0  0  0  0  0
  -17.4236  -26.6707   21.4025 H   0  0  0  0  0  0
  -18.0350  -26.0117   22.9034 H   0  0  0  0  0  0
  -19.7993  -30.7361   24.2146 H   0  0  0  0  0  0
  -17.5057  -31.6280   24.5171 H   0  0  0  0  0  0
  -15.5394  -30.2962   23.7732 H   0  0  0  0  0  0
  -15.8727  -28.0805   22.7131 H   0  0  0  0  0  0
  -24.5863  -30.7171   25.7564 H   0  0  0  0  0  0
  -24.8851  -32.3058   26.4514 H   0  0  0  0  0  0
  -25.7822  -30.9096   27.0190 H   0  0  0  0  0  0
  -26.3300  -29.6410   24.1626 H   0  0  0  0  0  0
  -27.3970  -29.7294   25.5394 H   0  0  0  0  0  0
  -27.9283  -30.3930   24.0183 H   0  0  0  0  0  0
  -27.2601  -33.3747   26.1841 H   0  0  0  0  0  0
  -28.3981  -32.6791   25.0401 H   0  0  0  0  0  0
  -28.0603  -31.8650   26.5598 H   0  0  0  0  0  0
  -28.2532  -38.0050   24.7536 H   0  0  0  0  0  0
  -28.1095  -36.2573   24.6270 H   0  0  0  0  0  0
  -27.2278  -37.1313   25.8871 H   0  0  0  0  0  0
  -20.9764  -29.8662   21.6478 H   0  0  0  0  0  0
  -26.0076  -38.2677   24.1463 H   0  0  0  0  0  0
  -27.3325  -20.1509   20.7688 H   0  0  0  0  0  0
  -27.1143  -23.5374   20.9573 H   0  0  0  0  0  0
  -27.3323  -23.5795   19.2728 H   0  0  0  0  0  0
  -28.4841  -16.1692   18.4880 H   0  0  0  0  0  0
  -29.3936  -17.5700   18.0061 H   0  0  0  0  0  0
  -28.4663  -17.1441   20.8689 H   0  0  0  0  0  0
  -26.6544  -17.6132   19.0998 H   0  0  0  0  0  0
  -27.1025  -17.8212   17.5544 H   0  0  0  0  0  0
  -27.5261  -18.9297   18.6621 H   0  0  0  0  0  0
  1 25  1  0  0  0
  1 30  2  0  0  0
  1 75  1  0  0  0
  2  3  1  0  0  0
  2 25  1  0  0  0
  2 80  1  0  0  0
  2 81  1  0  0  0
  3  4  1  0  0  0
  3 82  1  0  0  0
  3 83  1  0  0  0
  4  5  1  0  0  0
  4 84  1  0  0  0
  4 85  1  0  0  0
  5  6  1  0  0  0
  5 26  1  0  0  0
  5 86  1  0  0  0
  6 25  1  0  0  0
  6 87  1  0  0  0
  6 88  1  0  0  0
  7  8  2  0  0  0
  7 26  1  0  0  0
  7 29  1  0  0  0
  8  9  1  0  0  0
  8 22  1  0  0  0
  9 10  1  0  0  0
  9 27  2  0  0  0
 10 11  2  0  0  0
 10 15  1  0  0  0
 11 12  1  0  0  0
 11 89  1  0  0  0
 12 13  2  0  0  0
 12 90  1  0  0  0
 13 14  1  0  0  0
 13 31  1  0  0  0
 14 15  2  0  0  0
 14 91  1  0  0  0
 15 92  1  0  0  0
 16 17  2  0  0  0
 16 21  1  0  0  0
 16 31  1  0  0  0
 17 18  1  0  0  0
 17 93  1  0  0  0
 18 19  2  0  0  0
 18 94  1  0  0  0
 19 20  1  0  0  0
 19 24  1  0  0  0
 20 21  2  0  0  0
 20 95  1  0  0  0
 21 23  1  0  0  0
 22 28  1  0  0  0
 22 32  2  0  0  0
 26 27  1  0  0  0
 28 96  1  0  0  0
 28 97  1  0  0  0
 29 98  1  0  0  0
 29 99  1  0  0  0
 33 34  1  0  0  0
 33 66  1  0  0  0
 33 70  2  0  0  0
 34 36  1  0  0  0
 34 59  1  0  0  0
 34100  1  0  0  0
 35 44  2  0  0  0
 35 45  1  0  0  0
 35 68  1  0  0  0
 36 56  1  0  0  0
 36101  1  0  0  0
 37 39  1  0  0  0
 37 47  1  0  0  0
 37 66  1  0  0  0
 37102  1  0  0  0
 38 43  2  0  0  0
 38 46  1  0  0  0
 38 47  1  0  0  0
 39 64  1  0  0  0
 39 67  2  0  0  0
 40 52  1  0  0  0
 40 53  2  0  0  0
 40 58  1  0  0  0
 41103  1  0  0  0
 41104  1  0  0  0
 41105  1  0  0  0
 41 48  1  0  0  0
 42 43  1  0  0  0
 42 66  1  0  0  0
 42106  1  0  0  0
 42107  1  0  0  0
 43 44  1  0  0  0
 44108  1  0  0  0
 45 46  2  0  0  0
 45109  1  0  0  0
 46110  1  0  0  0
 47111  1  0  0  0
 47112  1  0  0  0
 48 56  1  0  0  0
 48 65  1  0  0  0
 48113  1  0  0  0
 49 50  1  0  0  0
 49 53  1  0  0  0
 49 64  1  0  0  0
 49114  1  0  0  0
 50 51  1  0  0  0
 50115  1  0  0  0
 50116  1  0  0  0
 51 52  1  0  0  0
 51117  1  0  0  0
 51118  1  0  0  0
 52119  1  0  0  0
 52120  1  0  0  0
 53 54  1  0  0  0
 54 55  2  0  0  0
 54121  1  0  0  0
 55 57  1  0  0  0
 55122  1  0  0  0
 56 69  2  0  0  0
 57 58  2  0  0  0
 57123  1  0  0  0
 58124  1  0  0  0
 59 60  1  0  0  0
 59 61  1  0  0  0
 59 62  1  0  0  0
 60125  1  0  0  0
 60126  1  0  0  0
 60127  1  0  0  0
 61128  1  0  0  0
 61129  1  0  0  0
 61130  1  0  0  0
 62131  1  0  0  0
 62132  1  0  0  0
 62133  1  0  0  0
 63 65  1  0  0  0
 63134  1  0  0  0
 63135  1  0  0  0
 63136  1  0  0  0
 64137  1  0  0  0
 65138  1  0  0  0
 68 73  1  0  0  0
 71 72  2  0  0  0
 71 78  1  0  0  0
 71139  1  0  0  0
 72 73  1  0  0  0
 72 76  1  0  0  0
 73140  1  0  0  0
 73141  1  0  0  0
 74 79  1  0  0  0
 74142  1  0  0  0
 74143  1  0  0  0
 74 75  1  0  0  0
 75 78  1  0  0  0
 75144  1  0  0  0
 76 77  2  0  0  0
 77 78  1  0  0  0
 79145  1  0  0  0
 79146  1  0  0  0
 79147  1  0  0  0
M  CHG  1  79   1
M  ISO  4   1 100  68 101  73 101  75 100
M  END
> <chiral flag>
0

> <version>
0

> <s_m_source_file>
/data/baiqing/PycharmProjects/Reinvent-master-3.2/result/LINK_invent/BTK/process_docking_weight1_custom_sum_contain_oxygen_bond_distance_aromatic_linkinvent_7_9_3/rearranged_h_0058.sdf

> <i_m_source_file_index>
70

> <r_mmod_Potential_Energy-OPLS-2005>
2571.671875

> <r_mmod_Stretch_Energy-OPLS-2005>
1219.95166015625

> <r_mmod_Bend_Energy-OPLS-2005>
739.502258300781

> <r_mmod_Torsional_Energy-OPLS-2005>
233.626022338867

> <r_mmod_Improper_Torsional_Energy-OPLS-2005>
10.6159210205078

> <r_mmod_Van_der_Waal_Energy-OPLS-2005>
103.457504272461

> <r_mmod_Electrostatic_Energy-OPLS-2005>
-211.918670654297

> <r_mmod_Solvation_Energy-OPLS-2005>
-572.788452148438

> <b_mmod_Minimization_Converged-OPLS-2005>
0

> <r_mmod_RMS_Derivative-OPLS-2005>
0.671237826347351

$$$$
70
                    3D
 Structure written by MMmdl.
160168  0  0  1  0            999 V2000
  -30.5901  -14.8999   20.4606 C   0  0  0  0  0  0
  -30.4350  -12.5664   19.4919 C   0  0  0  0  0  0
  -29.5146  -12.5308   18.2507 C   0  0  0  0  0  0
  -28.0455  -12.3268   18.6651 C   0  0  0  0  0  0
  -27.6339  -13.2409   19.8475 C   0  0  2  0  0  0
  -28.6783  -13.2131   20.9812 C   0  0  0  0  0  0
  -25.2474  -13.8197   20.5688 C   0  0  0  0  0  0
  -24.1776  -13.0431   20.9176 C   0  0  0  0  0  0
  -24.6382  -11.6917   20.8720 C   0  0  0  0  0  0
  -23.9067  -10.4297   21.0399 C   0  0  0  0  0  0
  -24.3620   -9.4224   21.9184 C   0  0  0  0  0  0
  -23.6301   -8.2261   22.0763 C   0  0  0  0  0  0
  -22.4290   -8.0283   21.3549 C   0  0  0  0  0  0
  -21.9915   -9.0249   20.4650 C   0  0  0  0  0  0
  -22.7234  -10.2134   20.3058 C   0  0  0  0  0  0
  -21.6859   -6.0742   22.5279 C   0  0  0  0  0  0
  -21.4012   -6.5648   23.8209 C   0  0  0  0  0  0
  -21.3661   -5.6804   24.9172 C   0  0  0  0  0  0
  -21.6045   -4.3066   24.7226 C   0  0  0  0  0  0
  -21.8824   -3.8154   23.4349 C   0  0  0  0  0  0
  -21.9198   -4.6970   22.3402 C   0  0  0  0  0  0
  -22.7797  -13.5196   21.1848 C   0  0  0  0  0  0
  -22.1664   -4.2158   21.0980 F   0  0  0  0  0  0
  -21.5635   -3.4547   25.7743 F   0  0  0  0  0  0
  -29.9562  -13.6556   20.3963 N   0  0  0  0  0  0
  -26.2901  -12.9415   20.3281 N   0  0  0  0  0  0
  -25.9310  -11.6544   20.5726 N   0  0  0  0  0  0
  -22.0471  -12.8172   22.0414 N   0  0  0  0  0  0
  -25.4166  -15.1922   20.4125 N   0  0  0  0  0  0
  -31.7652  -14.9352   20.0775 O   0  0  0  0  0  0
  -21.6655   -6.8880   21.4241 O   0  0  0  0  0  0
  -22.3474  -14.5511   20.6721 O   0  0  0  0  0  0
  -24.6413  -31.8477   23.1897 C   0  0  0  0  0  0
  -25.9186  -32.4714   23.8300 C   0  0  1  0  0  0
  -27.2188  -27.1743   20.1421 C   0  0  0  0  0  0
  -25.5941  -33.8520   24.2221 N   0  0  0  0  0  0
  -23.4433  -30.4665   21.5344 C   0  0  2  0  0  0
  -24.8922  -28.8982   20.1067 C   0  0  0  0  0  0
  -22.7561  -29.4568   22.4875 C   0  0  0  0  0  0
  -18.0305  -28.1376   22.8482 C   0  0  0  0  0  0
  -24.1484  -36.7278   23.2644 C   0  0  0  0  0  0
  -25.9955  -30.7352   21.3778 C   0  0  0  0  0  0
  -26.0671  -29.3486   20.7221 C   0  0  0  0  0  0
  -27.2310  -28.4999   20.7246 C   0  0  0  0  0  0
  -26.0237  -26.8184   19.4807 C   0  0  0  0  0  0
  -24.8810  -27.6478   19.4710 C   0  0  0  0  0  0
  -23.6651  -29.7933   20.1541 C   0  0  0  0  0  0
  -25.4110  -36.3051   24.0329 C   0  0  1  0  0  0
  -20.5917  -28.3710   23.1239 C   0  0  2  0  0  0
  -20.6770  -26.9417   22.5397 C   0  0  0  0  0  0
  -19.5736  -26.6384   21.5202 C   0  0  0  0  0  0
  -18.1923  -26.7921   22.1627 C   0  0  0  0  0  0
  -19.1564  -28.8862   23.2850 C   0  0  0  0  0  0
  -18.9480  -30.1455   23.8875 C   0  0  0  0  0  0
  -17.6478  -30.6575   24.0558 C   0  0  0  0  0  0
  -25.9074  -34.9425   23.5098 C   0  0  0  0  0  0
  -16.5365  -29.9070   23.6329 C   0  0  0  0  0  0
  -16.7291  -28.6486   23.0353 C   0  0  0  0  0  0
  -26.4508  -31.6558   25.0723 C   0  0  0  0  0  0
  -25.3713  -31.3694   26.1431 C   0  0  0  0  0  0
  -27.0373  -30.2975   24.6243 C   0  0  0  0  0  0
  -27.6071  -32.4311   25.7485 C   0  0  0  0  0  0
  -27.5578  -37.1773   24.8463 C   0  0  0  0  0  0
  -21.4262  -29.3048   22.3627 N   0  0  0  0  0  0
  -26.4272  -37.3765   23.9433 N   0  0  0  0  0  0
  -24.7138  -31.0362   22.0911 N   0  0  0  0  0  0
  -23.4216  -28.8109   23.3010 O   0  0  0  0  0  0
  -28.2884  -26.2236   20.2297 O   0  0  0  0  0  0
  -26.5672  -34.8911   22.4678 O   0  0  0  0  0  0
  -23.5543  -32.1346   23.7143 O   0  0  0  0  0  0
  -28.6402  -20.8901   21.2521 C   0  0  0  0  0  0
  -29.1081  -21.9253   20.3580 C   0  0  0  0  0  0
  -29.7603  -19.0603   20.1307 C   0  0  0  0  0  0
  -30.1959  -20.0997   19.2136 C   0  0  0  0  0  0
  -28.5672  -21.4015   23.7415 C   0  0  0  0  0  0
  -29.0663  -16.2870   21.8551 C   0  0  0  0  0  0
  -27.7702  -21.2522   22.4415 C   0  0  0  0  0  0
  -29.0775  -23.5458   20.6342 C   0  0  0  0  0  0
  -30.3183  -17.5023   20.0097 C   0  0  0  0  0  0
  -28.0936  -24.7111   19.9844 C   0  0  0  0  0  0
  -31.0933  -19.7754   18.0094 C   0  0  0  0  0  0
  -28.9512  -19.5294   21.1443 N   0  0  0  0  0  0
  -29.8812  -21.4525   19.3372 N   0  0  0  0  0  0
  -29.8904  -16.1326   20.6549 N   0  0  0  0  0  0
  -32.2416  -19.2248   18.4072 F   0  0  0  0  0  0
  -30.4709  -18.9331   17.1841 F   0  0  0  0  0  0
  -31.3933  -20.8763   17.3106 F   0  0  0  0  0  0
  -31.4700  -12.7084   19.1777 H   0  0  0  0  0  0
  -30.4202  -11.6040   20.0062 H   0  0  0  0  0  0
  -29.8233  -11.7352   17.5712 H   0  0  0  0  0  0
  -29.6142  -13.4638   17.6937 H   0  0  0  0  0  0
  -27.9228  -11.2802   18.9460 H   0  0  0  0  0  0
  -27.3844  -12.4878   17.8132 H   0  0  0  0  0  0
  -27.6119  -14.2559   19.4497 H   0  0  0  0  0  0
  -28.7621  -12.2076   21.3942 H   0  0  0  0  0  0
  -28.3570  -13.8290   21.8159 H   0  0  0  0  0  0
  -25.2772   -9.5719   22.4745 H   0  0  0  0  0  0
  -24.0032   -7.4658   22.7478 H   0  0  0  0  0  0
  -21.0856   -8.8736   19.8939 H   0  0  0  0  0  0
  -22.3673  -10.9665   19.6167 H   0  0  0  0  0  0
  -21.1994   -7.6155   23.9704 H   0  0  0  0  0  0
  -21.1476   -6.0539   25.9070 H   0  0  0  0  0  0
  -22.0597   -2.7618   23.2844 H   0  0  0  0  0  0
  -22.4108  -11.9832   22.4799 H   0  0  0  0  0  0
  -21.1085  -13.1152   22.2626 H   0  0  0  0  0  0
  -24.6517  -15.8475   20.5313 H   0  0  0  0  0  0
  -26.2744  -15.6352   20.1080 H   0  0  0  0  0  0
  -26.7249  -32.5324   23.1041 H   0  0  0  0  0  0
  -25.0036  -33.9621   25.0332 H   0  0  0  0  0  0
  -22.7464  -31.2920   21.3764 H   0  0  0  0  0  0
  -23.3767  -35.9587   23.3271 H   0  0  0  0  0  0
  -24.3600  -36.8960   22.2071 H   0  0  0  0  0  0
  -23.7205  -37.6451   23.6706 H   0  0  0  0  0  0
  -26.1366  -31.4884   20.6010 H   0  0  0  0  0  0
  -26.8743  -30.7967   22.0085 H   0  0  0  0  0  0
  -28.1267  -28.8386   21.2260 H   0  0  0  0  0  0
  -25.9394  -25.8643   18.9809 H   0  0  0  0  0  0
  -23.9845  -27.2989   18.9780 H   0  0  0  0  0  0
  -23.7949  -30.5653   19.3956 H   0  0  0  0  0  0
  -22.7836  -29.2259   19.8501 H   0  0  0  0  0  0
  -25.1261  -36.1900   25.0814 H   0  0  0  0  0  0
  -20.9991  -28.3290   24.1370 H   0  0  0  0  0  0
  -20.5638  -26.2328   23.3615 H   0  0  0  0  0  0
  -21.6627  -26.7403   22.1192 H   0  0  0  0  0  0
  -19.6902  -25.6296   21.1227 H   0  0  0  0  0  0
  -19.6656  -27.3194   20.6730 H   0  0  0  0  0  0
  -17.4182  -26.6693   21.4034 H   0  0  0  0  0  0
  -18.0319  -26.0050   22.9012 H   0  0  0  0  0  0
  -19.7959  -30.7270   24.2238 H   0  0  0  0  0  0
  -17.5027  -31.6245   24.5174 H   0  0  0  0  0  0
  -15.5361  -30.2949   23.7651 H   0  0  0  0  0  0
  -15.8703  -28.0782   22.7077 H   0  0  0  0  0  0
  -24.5913  -30.7012   25.7751 H   0  0  0  0  0  0
  -24.8848  -32.2826   26.4862 H   0  0  0  0  0  0
  -25.8016  -30.8874   27.0217 H   0  0  0  0  0  0
  -26.2963  -29.6695   24.1279 H   0  0  0  0  0  0
  -27.4060  -29.7260   25.4774 H   0  0  0  0  0  0
  -27.8833  -30.4261   23.9493 H   0  0  0  0  0  0
  -27.2717  -33.3661   26.1986 H   0  0  0  0  0  0
  -28.3896  -32.6798   25.0301 H   0  0  0  0  0  0
  -28.0711  -31.8473   26.5443 H   0  0  0  0  0  0
  -28.2537  -38.0123   24.7563 H   0  0  0  0  0  0
  -28.1115  -36.2653   24.6191 H   0  0  0  0  0  0
  -27.2311  -37.1304   25.8866 H   0  0  0  0  0  0
  -20.9490  -29.8805   21.6835 H   0  0  0  0  0  0
  -26.0154  -38.2832   24.1468 H   0  0  0  0  0  0
  -27.9116  -21.7169   24.5530 H   0  0  0  0  0  0
  -29.3526  -22.1492   23.6386 H   0  0  0  0  0  0
  -29.0345  -20.4589   24.0310 H   0  0  0  0  0  0
  -29.1486  -17.2830   22.2814 H   0  0  0  0  0  0
  -29.3876  -15.6129   22.6506 H   0  0  0  0  0  0
  -28.0149  -16.0970   21.6390 H   0  0  0  0  0  0
  -27.0041  -20.4864   22.5695 H   0  0  0  0  0  0
  -27.2315  -22.1749   22.2259 H   0  0  0  0  0  0
  -30.0895  -23.8738   20.4001 H   0  0  0  0  0  0
  -29.0148  -23.6630   21.7162 H   0  0  0  0  0  0
  -31.3815  -17.5906   20.2385 H   0  0  0  0  0  0
  -30.2858  -17.2794   18.9436 H   0  0  0  0  0  0
  -27.0813  -24.4493   20.2902 H   0  0  0  0  0  0
  -28.1161  -24.5804   18.9026 H   0  0  0  0  0  0
  1 25  1  0  0  0
  1 30  2  0  0  0
  1 84  1  0  0  0
  2  3  1  0  0  0
  2 25  1  0  0  0
  2 88  1  0  0  0
  2 89  1  0  0  0
  3  4  1  0  0  0
  3 90  1  0  0  0
  3 91  1  0  0  0
  4  5  1  0  0  0
  4 92  1  0  0  0
  4 93  1  0  0  0
  5  6  1  0  0  0
  5 26  1  0  0  0
  5 94  1  0  0  0
  6 25  1  0  0  0
  6 95  1  0  0  0
  6 96  1  0  0  0
  7  8  2  0  0  0
  7 26  1  0  0  0
  7 29  1  0  0  0
  8  9  1  0  0  0
  8 22  1  0  0  0
  9 10  1  0  0  0
  9 27  2  0  0  0
 10 11  2  0  0  0
 10 15  1  0  0  0
 11 12  1  0  0  0
 11 97  1  0  0  0
 12 13  2  0  0  0
 12 98  1  0  0  0
 13 14  1  0  0  0
 13 31  1  0  0  0
 14 15  2  0  0  0
 14 99  1  0  0  0
 15100  1  0  0  0
 16 17  2  0  0  0
 16 21  1  0  0  0
 16 31  1  0  0  0
 17 18  1  0  0  0
 17101  1  0  0  0
 18 19  2  0  0  0
 18102  1  0  0  0
 19 20  1  0  0  0
 19 24  1  0  0  0
 20 21  2  0  0  0
 20103  1  0  0  0
 21 23  1  0  0  0
 22 28  1  0  0  0
 22 32  2  0  0  0
 26 27  1  0  0  0
 28104  1  0  0  0
 28105  1  0  0  0
 29106  1  0  0  0
 29107  1  0  0  0
 33 34  1  0  0  0
 33 66  1  0  0  0
 33 70  2  0  0  0
 34 36  1  0  0  0
 34 59  1  0  0  0
 34108  1  0  0  0
 35 44  2  0  0  0
 35 45  1  0  0  0
 35 68  1  0  0  0
 36 56  1  0  0  0
 36109  1  0  0  0
 37 39  1  0  0  0
 37 47  1  0  0  0
 37 66  1  0  0  0
 37110  1  0  0  0
 38 43  2  0  0  0
 38 46  1  0  0  0
 38 47  1  0  0  0
 39 64  1  0  0  0
 39 67  2  0  0  0
 40 52  1  0  0  0
 40 53  2  0  0  0
 40 58  1  0  0  0
 41111  1  0  0  0
 41112  1  0  0  0
 41113  1  0  0  0
 41 48  1  0  0  0
 42 43  1  0  0  0
 42 66  1  0  0  0
 42114  1  0  0  0
 42115  1  0  0  0
 43 44  1  0  0  0
 44116  1  0  0  0
 45 46  2  0  0  0
 45117  1  0  0  0
 46118  1  0  0  0
 47119  1  0  0  0
 47120  1  0  0  0
 48 56  1  0  0  0
 48 65  1  0  0  0
 48121  1  0  0  0
 49 50  1  0  0  0
 49 53  1  0  0  0
 49 64  1  0  0  0
 49122  1  0  0  0
 50 51  1  0  0  0
 50123  1  0  0  0
 50124  1  0  0  0
 51 52  1  0  0  0
 51125  1  0  0  0
 51126  1  0  0  0
 52127  1  0  0  0
 52128  1  0  0  0
 53 54  1  0  0  0
 54 55  2  0  0  0
 54129  1  0  0  0
 55 57  1  0  0  0
 55130  1  0  0  0
 56 69  2  0  0  0
 57 58  2  0  0  0
 57131  1  0  0  0
 58132  1  0  0  0
 59 60  1  0  0  0
 59 61  1  0  0  0
 59 62  1  0  0  0
 60133  1  0  0  0
 60134  1  0  0  0
 60135  1  0  0  0
 61136  1  0  0  0
 61137  1  0  0  0
 61138  1  0  0  0
 62139  1  0  0  0
 62140  1  0  0  0
 62141  1  0  0  0
 63 65  1  0  0  0
 63142  1  0  0  0
 63143  1  0  0  0
 63144  1  0  0  0
 64145  1  0  0  0
 65146  1  0  0  0
 68 80  1  0  0  0
 71 72  2  0  0  0
 71 77  1  0  0  0
 71 82  1  0  0  0
 72 78  1  0  0  0
 72 83  1  0  0  0
 73 74  1  0  0  0
 73 79  1  0  0  0
 73 82  2  0  0  0
 74 81  1  0  0  0
 74 83  2  0  0  0
 75 77  1  0  0  0
 75147  1  0  0  0
 75148  1  0  0  0
 75149  1  0  0  0
 76 84  1  0  0  0
 76150  1  0  0  0
 76151  1  0  0  0
 76152  1  0  0  0
 77153  1  0  0  0
 77154  1  0  0  0
 78 80  1  0  0  0
 78155  1  0  0  0
 78156  1  0  0  0
 79 84  1  0  0  0
 79157  1  0  0  0
 79158  1  0  0  0
 80159  1  0  0  0
 80160  1  0  0  0
 81 85  1  0  0  0
 81 86  1  0  0  0
 81 87  1  0  0  0
M  ISO  4   1 100  68 101  80 101  84 100
M  END
> <chiral flag>
0

> <version>
0

> <s_m_source_file>
/data/baiqing/PycharmProjects/Reinvent-master-3.2/result/LINK_invent/BTK/process_docking_weight1_custom_sum_contain_oxygen_bond_distance_aromatic_linkinvent_7_9_3/rearranged_h_0058.sdf

> <i_m_source_file_index>
71

> <r_mmod_Potential_Energy-OPLS-2005>
632.593566894531

> <r_mmod_Stretch_Energy-OPLS-2005>
224.226821899414

> <r_mmod_Bend_Energy-OPLS-2005>
268.760925292969

> <r_mmod_Torsional_Energy-OPLS-2005>
244.682998657227

> <r_mmod_Improper_Torsional_Energy-OPLS-2005>
10.2181129455566

> <r_mmod_Van_der_Waal_Energy-OPLS-2005>
144.027465820312

> <r_mmod_Electrostatic_Energy-OPLS-2005>
-212.633880615234

> <r_mmod_Solvation_Energy-OPLS-2005>
-199.556121826172

> <b_mmod_Minimization_Converged-OPLS-2005>
0

> <r_mmod_RMS_Derivative-OPLS-2005>
2.46956562995911

$$$$
71
                    3D
 Structure written by MMmdl.
152160  0  0  1  0            999 V2000
  -30.6472  -14.7699   20.5180 C   0  0  0  0  0  0
  -30.4362  -12.4874   19.4782 C   0  0  0  0  0  0
  -29.5204  -12.5591   18.2345 C   0  0  0  0  0  0
  -28.0441  -12.3712   18.6377 C   0  0  0  0  0  0
  -27.6475  -13.2481   19.8585 C   0  0  2  0  0  0
  -28.6938  -13.1675   20.9923 C   0  0  0  0  0  0
  -25.2502  -13.8238   20.5757 C   0  0  0  0  0  0
  -24.1773  -13.0444   20.9233 C   0  0  0  0  0  0
  -24.6410  -11.6948   20.8743 C   0  0  0  0  0  0
  -23.9099  -10.4317   21.0390 C   0  0  0  0  0  0
  -24.3635   -9.4238   21.9170 C   0  0  0  0  0  0
  -23.6322   -8.2258   22.0722 C   0  0  0  0  0  0
  -22.4308   -8.0282   21.3529 C   0  0  0  0  0  0
  -21.9942   -9.0251   20.4633 C   0  0  0  0  0  0
  -22.7260  -10.2153   20.3055 C   0  0  0  0  0  0
  -21.6845   -6.0756   22.5301 C   0  0  0  0  0  0
  -21.3995   -6.5647   23.8238 C   0  0  0  0  0  0
  -21.3676   -5.6794   24.9197 C   0  0  0  0  0  0
  -21.6062   -4.3060   24.7224 C   0  0  0  0  0  0
  -21.8813   -3.8151   23.4338 C   0  0  0  0  0  0
  -21.9186   -4.6985   22.3409 C   0  0  0  0  0  0
  -22.7789  -13.5213   21.1878 C   0  0  0  0  0  0
  -22.1646   -4.2169   21.0978 F   0  0  0  0  0  0
  -21.5660   -3.4545   25.7730 F   0  0  0  0  0  0
  -29.9987  -13.5438   20.4285 N   0  0  0  0  0  0
  -26.2957  -12.9478   20.3316 N   0  0  0  0  0  0
  -25.9358  -11.6605   20.5764 N   0  0  0  0  0  0
  -22.0423  -12.8229   22.0463 N   0  0  0  0  0  0
  -25.4212  -15.1958   20.4243 N   0  0  0  0  0  0
  -31.7699  -14.8796   20.0137 O   0  0  0  0  0  0
  -21.6641   -6.8901   21.4266 O   0  0  0  0  0  0
  -22.3483  -14.5518   20.6748 O   0  0  0  0  0  0
  -24.6345  -31.8513   23.2010 C   0  0  0  0  0  0
  -25.9161  -32.4721   23.8345 C   0  0  1  0  0  0
  -27.2093  -27.2518   20.1339 C   0  0  0  0  0  0
  -25.5973  -33.8533   24.2250 N   0  0  0  0  0  0
  -23.4287  -30.4810   21.5370 C   0  0  2  0  0  0
  -24.8733  -28.9312   20.1013 C   0  0  0  0  0  0
  -22.7520  -29.4563   22.4827 C   0  0  0  0  0  0
  -18.0266  -28.1395   22.8450 C   0  0  0  0  0  0
  -24.1479  -36.7286   23.2643 C   0  0  0  0  0  0
  -25.9788  -30.7613   21.3845 C   0  0  0  0  0  0
  -26.0450  -29.3882   20.7196 C   0  0  0  0  0  0
  -27.2155  -28.5624   20.7195 C   0  0  0  0  0  0
  -26.0168  -26.8666   19.4799 C   0  0  0  0  0  0
  -24.8665  -27.6813   19.4658 C   0  0  0  0  0  0
  -23.6503  -29.8291   20.1478 C   0  0  0  0  0  0
  -25.4095  -36.3052   24.0318 C   0  0  1  0  0  0
  -20.5879  -28.3699   23.1243 C   0  0  2  0  0  0
  -20.6736  -26.9417   22.5370 C   0  0  0  0  0  0
  -19.5722  -26.6395   21.5166 C   0  0  0  0  0  0
  -18.1912  -26.7930   22.1600 C   0  0  0  0  0  0
  -19.1536  -28.8860   23.2841 C   0  0  0  0  0  0
  -18.9483  -30.1448   23.8874 C   0  0  0  0  0  0
  -17.6492  -30.6586   24.0581 C   0  0  0  0  0  0
  -25.9042  -34.9420   23.5069 C   0  0  0  0  0  0
  -16.5358  -29.9102   23.6365 C   0  0  0  0  0  0
  -16.7261  -28.6533   23.0354 C   0  0  0  0  0  0
  -26.4519  -31.6593   25.0767 C   0  0  0  0  0  0
  -25.3777  -31.3844   26.1550 C   0  0  0  0  0  0
  -27.0353  -30.2985   24.6326 C   0  0  0  0  0  0
  -27.6041  -32.4394   25.7529 C   0  0  0  0  0  0
  -27.5564  -37.1774   24.8459 C   0  0  0  0  0  0
  -21.4211  -29.3062   22.3658 N   0  0  0  0  0  0
  -26.4256  -37.3776   23.9438 N   0  0  0  0  0  0
  -24.6982  -31.0512   22.0975 N   0  0  0  0  0  0
  -23.4242  -28.8082   23.2905 O   0  0  0  0  0  0
  -28.2953  -26.3455   20.2162 O   0  0  0  0  0  0
  -26.5624  -34.8902   22.4634 O   0  0  0  0  0  0
  -23.5496  -32.1308   23.7333 O   0  0  0  0  0  0
  -27.8971  -21.5972   19.6840 C   0  0  0  0  0  0
  -29.0294  -20.0406   20.5727 C   0  0  0  0  0  0
  -29.7568  -15.9417   22.4387 C   0  0  0  0  0  0
  -29.3285  -18.6061   21.1862 C   0  0  0  0  0  0
  -29.0965  -23.7438   20.5761 C   0  0  0  0  0  0
  -30.0396  -17.3493   20.4054 C   0  0  0  0  0  0
  -28.0427  -24.8654   20.0590 C   0  0  0  0  0  0
  -27.9559  -20.2543   19.7421 N   0  0  0  0  0  0
  -29.5959  -21.2164   20.9748 N   0  0  0  0  0  0
  -28.8267  -22.2420   20.3979 N   0  0  0  0  0  0
  -29.9817  -15.9118   20.9919 N   0  0  0  0  0  0
  -31.4814  -12.6005   19.1797 H   0  0  0  0  0  0
  -30.3698  -11.5013   19.9371 H   0  0  0  0  0  0
  -29.8099  -11.8139   17.4899 H   0  0  0  0  0  0
  -29.6483  -13.5292   17.7552 H   0  0  0  0  0  0
  -27.9014  -11.3180   18.8737 H   0  0  0  0  0  0
  -27.3946  -12.5886   17.7897 H   0  0  0  0  0  0
  -27.6446  -14.2791   19.4997 H   0  0  0  0  0  0
  -28.7375  -12.1590   21.4083 H   0  0  0  0  0  0
  -28.4011  -13.8113   21.8176 H   0  0  0  0  0  0
  -25.2778   -9.5743   22.4752 H   0  0  0  0  0  0
  -24.0061   -7.4654   22.7427 H   0  0  0  0  0  0
  -21.0849   -8.8758   19.8939 H   0  0  0  0  0  0
  -22.3673  -10.9684   19.6170 H   0  0  0  0  0  0
  -21.1962   -7.6146   23.9767 H   0  0  0  0  0  0
  -21.1518   -6.0500   25.9119 H   0  0  0  0  0  0
  -22.0574   -2.7609   23.2822 H   0  0  0  0  0  0
  -22.3997  -11.9936   22.4964 H   0  0  0  0  0  0
  -21.1034  -13.1269   22.2620 H   0  0  0  0  0  0
  -24.6596  -15.8537   20.5573 H   0  0  0  0  0  0
  -26.2867  -15.6445   20.1510 H   0  0  0  0  0  0
  -26.7236  -32.5350   23.1078 H   0  0  0  0  0  0
  -25.0212  -33.9671   25.0465 H   0  0  0  0  0  0
  -22.7245  -31.3054   21.4000 H   0  0  0  0  0  0
  -23.3724  -35.9634   23.3273 H   0  0  0  0  0  0
  -24.3591  -36.8941   22.2063 H   0  0  0  0  0  0
  -23.7223  -37.6473   23.6680 H   0  0  0  0  0  0
  -26.1357  -31.5277   20.6225 H   0  0  0  0  0  0
  -26.8480  -30.7903   22.0298 H   0  0  0  0  0  0
  -28.1052  -28.9077   21.2252 H   0  0  0  0  0  0
  -25.9417  -25.9074   18.9874 H   0  0  0  0  0  0
  -23.9752  -27.3335   18.9610 H   0  0  0  0  0  0
  -23.7914  -30.6170   19.4060 H   0  0  0  0  0  0
  -22.7629  -29.2831   19.8253 H   0  0  0  0  0  0
  -25.1258  -36.1873   25.0812 H   0  0  0  0  0  0
  -20.9960  -28.3236   24.1366 H   0  0  0  0  0  0
  -20.5599  -26.2304   23.3567 H   0  0  0  0  0  0
  -21.6610  -26.7400   22.1189 H   0  0  0  0  0  0
  -19.6889  -25.6323   21.1177 H   0  0  0  0  0  0
  -19.6652  -27.3222   20.6721 H   0  0  0  0  0  0
  -17.4159  -26.6659   21.4016 H   0  0  0  0  0  0
  -18.0325  -26.0061   22.9005 H   0  0  0  0  0  0
  -19.7974  -30.7257   24.2218 H   0  0  0  0  0  0
  -17.5073  -31.6264   24.5215 H   0  0  0  0  0  0
  -15.5382  -30.3039   23.7710 H   0  0  0  0  0  0
  -15.8631  -28.0891   22.7071 H   0  0  0  0  0  0
  -24.5878  -30.7219   25.8004 H   0  0  0  0  0  0
  -24.9069  -32.3071   26.4972 H   0  0  0  0  0  0
  -25.8141  -30.9084   27.0345 H   0  0  0  0  0  0
  -26.2963  -29.6749   24.1286 H   0  0  0  0  0  0
  -27.3913  -29.7249   25.4899 H   0  0  0  0  0  0
  -27.8891  -30.4206   23.9652 H   0  0  0  0  0  0
  -27.2562  -33.3668   26.2096 H   0  0  0  0  0  0
  -28.3832  -32.7032   25.0363 H   0  0  0  0  0  0
  -28.0721  -31.8569   26.5477 H   0  0  0  0  0  0
  -28.2560  -38.0102   24.7558 H   0  0  0  0  0  0
  -28.1077  -36.2636   24.6184 H   0  0  0  0  0  0
  -27.2322  -37.1300   25.8880 H   0  0  0  0  0  0
  -20.9376  -29.8936   21.7010 H   0  0  0  0  0  0
  -26.0114  -38.2823   24.1529 H   0  0  0  0  0  0
  -27.1555  -22.1286   19.1017 H   0  0  0  0  0  0
  -30.2998  -16.7593   22.9100 H   0  0  0  0  0  0
  -30.1100  -15.0435   22.9466 H   0  0  0  0  0  0
  -28.6961  -16.0541   22.6572 H   0  0  0  0  0  0
  -28.3591  -18.2436   21.5280 H   0  0  0  0  0  0
  -29.8781  -18.7881   22.1106 H   0  0  0  0  0  0
  -29.2420  -23.9044   21.6439 H   0  0  0  0  0  0
  -30.0597  -23.9524   20.1111 H   0  0  0  0  0  0
  -31.0877  -17.6109   20.2541 H   0  0  0  0  0  0
  -29.5990  -17.2928   19.4105 H   0  0  0  0  0  0
  -27.8777  -24.6879   18.9947 H   0  0  0  0  0  0
  -27.0958  -24.6421   20.5527 H   0  0  0  0  0  0
  1 25  1  0  0  0
  1 30  2  0  0  0
  1 81  1  0  0  0
  2  3  1  0  0  0
  2 25  1  0  0  0
  2 82  1  0  0  0
  2 83  1  0  0  0
  3  4  1  0  0  0
  3 84  1  0  0  0
  3 85  1  0  0  0
  4  5  1  0  0  0
  4 86  1  0  0  0
  4 87  1  0  0  0
  5  6  1  0  0  0
  5 26  1  0  0  0
  5 88  1  0  0  0
  6 25  1  0  0  0
  6 89  1  0  0  0
  6 90  1  0  0  0
  7  8  2  0  0  0
  7 26  1  0  0  0
  7 29  1  0  0  0
  8  9  1  0  0  0
  8 22  1  0  0  0
  9 10  1  0  0  0
  9 27  2  0  0  0
 10 11  2  0  0  0
 10 15  1  0  0  0
 11 12  1  0  0  0
 11 91  1  0  0  0
 12 13  2  0  0  0
 12 92  1  0  0  0
 13 14  1  0  0  0
 13 31  1  0  0  0
 14 15  2  0  0  0
 14 93  1  0  0  0
 15 94  1  0  0  0
 16 17  2  0  0  0
 16 21  1  0  0  0
 16 31  1  0  0  0
 17 18  1  0  0  0
 17 95  1  0  0  0
 18 19  2  0  0  0
 18 96  1  0  0  0
 19 20  1  0  0  0
 19 24  1  0  0  0
 20 21  2  0  0  0
 20 97  1  0  0  0
 21 23  1  0  0  0
 22 28  1  0  0  0
 22 32  2  0  0  0
 26 27  1  0  0  0
 28 98  1  0  0  0
 28 99  1  0  0  0
 29100  1  0  0  0
 29101  1  0  0  0
 33 34  1  0  0  0
 33 66  1  0  0  0
 33 70  2  0  0  0
 34 36  1  0  0  0
 34 59  1  0  0  0
 34102  1  0  0  0
 35 44  2  0  0  0
 35 45  1  0  0  0
 35 68  1  0  0  0
 36 56  1  0  0  0
 36103  1  0  0  0
 37 39  1  0  0  0
 37 47  1  0  0  0
 37 66  1  0  0  0
 37104  1  0  0  0
 38 43  2  0  0  0
 38 46  1  0  0  0
 38 47  1  0  0  0
 39 64  1  0  0  0
 39 67  2  0  0  0
 40 52  1  0  0  0
 40 53  2  0  0  0
 40 58  1  0  0  0
 41105  1  0  0  0
 41106  1  0  0  0
 41107  1  0  0  0
 41 48  1  0  0  0
 42 43  1  0  0  0
 42 66  1  0  0  0
 42108  1  0  0  0
 42109  1  0  0  0
 43 44  1  0  0  0
 44110  1  0  0  0
 45 46  2  0  0  0
 45111  1  0  0  0
 46112  1  0  0  0
 47113  1  0  0  0
 47114  1  0  0  0
 48 56  1  0  0  0
 48 65  1  0  0  0
 48115  1  0  0  0
 49 50  1  0  0  0
 49 53  1  0  0  0
 49 64  1  0  0  0
 49116  1  0  0  0
 50 51  1  0  0  0
 50117  1  0  0  0
 50118  1  0  0  0
 51 52  1  0  0  0
 51119  1  0  0  0
 51120  1  0  0  0
 52121  1  0  0  0
 52122  1  0  0  0
 53 54  1  0  0  0
 54 55  2  0  0  0
 54123  1  0  0  0
 55 57  1  0  0  0
 55124  1  0  0  0
 56 69  2  0  0  0
 57 58  2  0  0  0
 57125  1  0  0  0
 58126  1  0  0  0
 59 60  1  0  0  0
 59 61  1  0  0  0
 59 62  1  0  0  0
 60127  1  0  0  0
 60128  1  0  0  0
 60129  1  0  0  0
 61130  1  0  0  0
 61131  1  0  0  0
 61132  1  0  0  0
 62133  1  0  0  0
 62134  1  0  0  0
 62135  1  0  0  0
 63 65  1  0  0  0
 63136  1  0  0  0
 63137  1  0  0  0
 63138  1  0  0  0
 64139  1  0  0  0
 65140  1  0  0  0
 68 77  1  0  0  0
 71 78  2  0  0  0
 71 80  1  0  0  0
 71141  1  0  0  0
 72 74  1  0  0  0
 72 78  1  0  0  0
 72 79  2  0  0  0
 73 81  1  0  0  0
 73142  1  0  0  0
 73143  1  0  0  0
 73144  1  0  0  0
 74 76  1  0  0  0
 74145  1  0  0  0
 74146  1  0  0  0
 75 77  1  0  0  0
 75 80  1  0  0  0
 75147  1  0  0  0
 75148  1  0  0  0
 76 81  1  0  0  0
 76149  1  0  0  0
 76150  1  0  0  0
 77151  1  0  0  0
 77152  1  0  0  0
 79 80  1  0  0  0
M  ISO  4   1 100  68 101  77 101  81 100
M  END
> <chiral flag>
0

> <version>
0

> <s_m_source_file>
/data/baiqing/PycharmProjects/Reinvent-master-3.2/result/LINK_invent/BTK/process_docking_weight1_custom_sum_contain_oxygen_bond_distance_aromatic_linkinvent_7_9_3/rearranged_h_0058.sdf

> <i_m_source_file_index>
72

> <r_mmod_Potential_Energy-OPLS-2005>
311.627685546875

> <r_mmod_Stretch_Energy-OPLS-2005>
145.211547851562

> <r_mmod_Bend_Energy-OPLS-2005>
187.503494262695

> <r_mmod_Torsional_Energy-OPLS-2005>
277.641662597656

> <r_mmod_Improper_Torsional_Energy-OPLS-2005>
7.60210132598877

> <r_mmod_Van_der_Waal_Energy-OPLS-2005>
122.434188842773

> <r_mmod_Electrostatic_Energy-OPLS-2005>
-295.3125

> <r_mmod_Solvation_Energy-OPLS-2005>
-226.816619873047

> <b_mmod_Minimization_Converged-OPLS-2005>
0

> <r_mmod_RMS_Derivative-OPLS-2005>
5.41242504119873

$$$$
72
                    3D
 Structure written by MMmdl.
163171  0  0  1  0            999 V2000
  -30.6298  -14.6980   20.5349 C   0  0  0  0  0  0
  -30.4340  -12.4424   19.4656 C   0  0  0  0  0  0
  -29.5087  -12.5319   18.2302 C   0  0  0  0  0  0
  -28.0300  -12.3600   18.6314 C   0  0  0  0  0  0
  -27.6484  -13.2246   19.8611 C   0  0  2  0  0  0
  -28.6873  -13.0783   20.9891 C   0  0  0  0  0  0
  -25.2543  -13.8175   20.5680 C   0  0  0  0  0  0
  -24.1811  -13.0436   20.9171 C   0  0  0  0  0  0
  -24.6393  -11.6910   20.8727 C   0  0  0  0  0  0
  -23.9071  -10.4293   21.0400 C   0  0  0  0  0  0
  -24.3619   -9.4212   21.9183 C   0  0  0  0  0  0
  -23.6292   -8.2252   22.0760 C   0  0  0  0  0  0
  -22.4275   -8.0286   21.3545 C   0  0  0  0  0  0
  -21.9908   -9.0257   20.4647 C   0  0  0  0  0  0
  -22.7242  -10.2133   20.3047 C   0  0  0  0  0  0
  -21.6855   -6.0735   22.5283 C   0  0  0  0  0  0
  -21.4015   -6.5638   23.8216 C   0  0  0  0  0  0
  -21.3656   -5.6791   24.9181 C   0  0  0  0  0  0
  -21.6043   -4.3057   24.7225 C   0  0  0  0  0  0
  -21.8819   -3.8144   23.4348 C   0  0  0  0  0  0
  -21.9195   -4.6961   22.3405 C   0  0  0  0  0  0
  -22.7839  -13.5227   21.1843 C   0  0  0  0  0  0
  -22.1663   -4.2148   21.0981 F   0  0  0  0  0  0
  -21.5627   -3.4539   25.7737 F   0  0  0  0  0  0
  -29.9952  -13.4731   20.4392 N   0  0  0  0  0  0
  -26.2962  -12.9368   20.3290 N   0  0  0  0  0  0
  -25.9320  -11.6517   20.5729 N   0  0  0  0  0  0
  -22.0492  -12.8214   22.0401 N   0  0  0  0  0  0
  -25.4290  -15.1891   20.4110 N   0  0  0  0  0  0
  -31.7604  -14.8303   20.0523 O   0  0  0  0  0  0
  -21.6639   -6.8879   21.4246 O   0  0  0  0  0  0
  -22.3534  -14.5552   20.6717 O   0  0  0  0  0  0
  -24.6317  -31.8567   23.1992 C   0  0  0  0  0  0
  -25.9161  -32.4754   23.8331 C   0  0  1  0  0  0
  -27.2180  -27.2678   20.1228 C   0  0  0  0  0  0
  -25.5995  -33.8561   24.2261 N   0  0  0  0  0  0
  -23.4252  -30.4794   21.5439 C   0  0  2  0  0  0
  -24.8717  -28.9309   20.1080 C   0  0  0  0  0  0
  -22.7485  -29.4615   22.4944 C   0  0  0  0  0  0
  -18.0285  -28.1374   22.8492 C   0  0  0  0  0  0
  -24.1493  -36.7264   23.2640 C   0  0  0  0  0  0
  -25.9712  -30.7691   21.3795 C   0  0  0  0  0  0
  -26.0421  -29.3930   20.7228 C   0  0  0  0  0  0
  -27.2145  -28.5711   20.7240 C   0  0  0  0  0  0
  -26.0289  -26.8877   19.4556 C   0  0  0  0  0  0
  -24.8718  -27.6864   19.4643 C   0  0  0  0  0  0
  -23.6403  -29.8135   20.1596 C   0  0  0  0  0  0
  -25.4121  -36.3054   24.0319 C   0  0  1  0  0  0
  -20.5880  -28.3688   23.1274 C   0  0  2  0  0  0
  -20.6775  -26.9413   22.5397 C   0  0  0  0  0  0
  -19.5754  -26.6375   21.5204 C   0  0  0  0  0  0
  -18.1934  -26.7927   22.1611 C   0  0  0  0  0  0
  -19.1533  -28.8855   23.2874 C   0  0  0  0  0  0
  -18.9469  -30.1469   23.8876 C   0  0  0  0  0  0
  -17.6468  -30.6590   24.0564 C   0  0  0  0  0  0
  -25.9073  -34.9436   23.5071 C   0  0  0  0  0  0
  -16.5355  -29.9076   23.6352 C   0  0  0  0  0  0
  -16.7267  -28.6489   23.0377 C   0  0  0  0  0  0
  -26.4527  -31.6581   25.0722 C   0  0  0  0  0  0
  -25.3750  -31.3700   26.1443 C   0  0  0  0  0  0
  -27.0407  -30.3012   24.6204 C   0  0  0  0  0  0
  -27.6076  -32.4338   25.7501 C   0  0  0  0  0  0
  -27.5572  -37.1795   24.8479 C   0  0  0  0  0  0
  -21.4188  -29.3046   22.3683 N   0  0  0  0  0  0
  -26.4283  -37.3766   23.9419 N   0  0  0  0  0  0
  -24.6947  -31.0539   22.0963 N   0  0  0  0  0  0
  -23.4187  -28.8159   23.3035 O   0  0  0  0  0  0
  -28.3167  -26.3787   20.2124 O   0  0  0  0  0  0
  -26.5627  -34.8910   22.4630 O   0  0  0  0  0  0
  -23.5467  -32.1396   23.7291 O   0  0  0  0  0  0
  -28.2939  -22.0675   18.6658 C   0  0  0  0  0  0
  -28.2210  -20.7673   18.1468 C   0  0  0  0  0  0
  -28.8082  -22.2486   19.9585 C   0  0  0  0  0  0
  -29.1143  -19.8677   20.0691 C   0  0  0  0  0  0
  -27.6881  -20.5109   16.7520 C   0  0  0  0  0  0
  -30.4697  -24.0624   20.5770 C   0  0  0  0  0  0
  -28.4406  -23.6991   22.0193 C   0  0  0  0  0  0
  -29.4535  -15.9095   22.3187 C   0  0  0  0  0  0
  -29.3295  -18.5287   20.9003 C   0  0  0  0  0  0
  -29.9769  -17.1971   20.2261 C   0  0  0  0  0  0
  -28.1809  -24.9291   19.8235 C   0  0  0  0  0  0
  -28.9699  -23.7215   20.5733 C   0  0  0  0  0  0
  -28.6119  -19.6894   18.8520 N   0  0  0  0  0  0
  -29.2277  -21.1078   20.6370 N   0  0  0  0  0  0
  -29.9089  -15.8277   20.9257 N   0  0  0  0  0  0
  -31.4744  -12.5707   19.1607 H   0  0  0  0  0  0
  -30.3847  -11.4489   19.9138 H   0  0  0  0  0  0
  -29.7866  -11.7773   17.4933 H   0  0  0  0  0  0
  -29.6440  -13.4992   17.7439 H   0  0  0  0  0  0
  -27.8647  -11.3050   18.8531 H   0  0  0  0  0  0
  -27.3807  -12.5993   17.7880 H   0  0  0  0  0  0
  -27.6663  -14.2634   19.5314 H   0  0  0  0  0  0
  -28.7228  -12.0464   21.3408 H   0  0  0  0  0  0
  -28.3823  -13.6591   21.8537 H   0  0  0  0  0  0
  -25.2767   -9.5684   22.4755 H   0  0  0  0  0  0
  -23.9994   -7.4642   22.7478 H   0  0  0  0  0  0
  -21.0841   -8.8777   19.8944 H   0  0  0  0  0  0
  -22.3712  -10.9669   19.6145 H   0  0  0  0  0  0
  -21.2011   -7.6148   23.9722 H   0  0  0  0  0  0
  -21.1473   -6.0521   25.9084 H   0  0  0  0  0  0
  -22.0598   -2.7605   23.2851 H   0  0  0  0  0  0
  -22.4092  -11.9832   22.4718 H   0  0  0  0  0  0
  -21.1133  -13.1259   22.2656 H   0  0  0  0  0  0
  -24.6702  -15.8521   20.5242 H   0  0  0  0  0  0
  -26.2909  -15.6222   20.1030 H   0  0  0  0  0  0
  -26.7232  -32.5400   23.1074 H   0  0  0  0  0  0
  -25.0250  -33.9710   25.0480 H   0  0  0  0  0  0
  -22.7210  -31.3007   21.3985 H   0  0  0  0  0  0
  -23.3755  -35.9600   23.3305 H   0  0  0  0  0  0
  -24.3568  -36.8879   22.2053 H   0  0  0  0  0  0
  -23.7243  -37.6458   23.6664 H   0  0  0  0  0  0
  -26.1082  -31.5284   20.6077 H   0  0  0  0  0  0
  -26.8494  -30.8173   22.0111 H   0  0  0  0  0  0
  -28.1049  -28.9170   21.2300 H   0  0  0  0  0  0
  -25.9480  -25.9561   18.9184 H   0  0  0  0  0  0
  -23.9803  -27.3316   18.9642 H   0  0  0  0  0  0
  -23.7528  -30.5892   19.4011 H   0  0  0  0  0  0
  -22.7614  -29.2391   19.8617 H   0  0  0  0  0  0
  -25.1287  -36.1880   25.0803 H   0  0  0  0  0  0
  -20.9960  -28.3246   24.1397 H   0  0  0  0  0  0
  -20.5674  -26.2295   23.3587 H   0  0  0  0  0  0
  -21.6646  -26.7454   22.1195 H   0  0  0  0  0  0
  -19.6921  -25.6272   21.1264 H   0  0  0  0  0  0
  -19.6697  -27.3169   20.6718 H   0  0  0  0  0  0
  -17.4205  -26.6700   21.4005 H   0  0  0  0  0  0
  -18.0330  -26.0033   22.8967 H   0  0  0  0  0  0
  -19.7943  -30.7307   24.2207 H   0  0  0  0  0  0
  -17.5018  -31.6273   24.5167 H   0  0  0  0  0  0
  -15.5360  -30.2986   23.7682 H   0  0  0  0  0  0
  -15.8654  -28.0803   22.7118 H   0  0  0  0  0  0
  -24.5984  -30.6976   25.7771 H   0  0  0  0  0  0
  -24.8872  -32.2842   26.4835 H   0  0  0  0  0  0
  -25.8082  -30.8925   27.0246 H   0  0  0  0  0  0
  -26.2993  -29.6733   24.1253 H   0  0  0  0  0  0
  -27.4135  -29.7289   25.4711 H   0  0  0  0  0  0
  -27.8840  -30.4293   23.9414 H   0  0  0  0  0  0
  -27.2699  -33.3682   26.1995 H   0  0  0  0  0  0
  -28.3934  -32.6834   25.0356 H   0  0  0  0  0  0
  -28.0698  -31.8517   26.5484 H   0  0  0  0  0  0
  -28.2594  -38.0094   24.7534 H   0  0  0  0  0  0
  -28.1060  -36.2622   24.6286 H   0  0  0  0  0  0
  -27.2295  -37.1421   25.8886 H   0  0  0  0  0  0
  -20.9374  -29.8772   21.6897 H   0  0  0  0  0  0
  -26.0144  -38.2833   24.1406 H   0  0  0  0  0  0
  -27.9665  -22.9010   18.0619 H   0  0  0  0  0  0
  -27.2892  -21.4255   16.3112 H   0  0  0  0  0  0
  -26.8876  -19.7716   16.7709 H   0  0  0  0  0  0
  -28.4821  -20.1415   16.1026 H   0  0  0  0  0  0
  -31.0391  -23.3289   21.1484 H   0  0  0  0  0  0
  -30.6595  -25.0428   21.0135 H   0  0  0  0  0  0
  -30.8678  -24.0650   19.5627 H   0  0  0  0  0  0
  -28.9850  -22.9826   22.6337 H   0  0  0  0  0  0
  -27.3882  -23.4168   22.0420 H   0  0  0  0  0  0
  -28.5346  -24.6758   22.4942 H   0  0  0  0  0  0
  -28.3693  -16.0208   22.3578 H   0  0  0  0  0  0
  -29.9067  -16.7526   22.8378 H   0  0  0  0  0  0
  -29.7242  -15.0307   22.9075 H   0  0  0  0  0  0
  -28.3432  -18.2669   21.2832 H   0  0  0  0  0  0
  -29.9171  -18.7948   21.7780 H   0  0  0  0  0  0
  -31.0169  -17.4160   19.9821 H   0  0  0  0  0  0
  -29.4828  -17.0548   19.2643 H   0  0  0  0  0  0
  -27.1403  -24.6201   19.8866 H   0  0  0  0  0  0
  -28.4390  -24.9078   18.7652 H   0  0  0  0  0  0
  1 25  1  0  0  0
  1 30  2  0  0  0
  1 85  1  0  0  0
  2  3  1  0  0  0
  2 25  1  0  0  0
  2 86  1  0  0  0
  2 87  1  0  0  0
  3  4  1  0  0  0
  3 88  1  0  0  0
  3 89  1  0  0  0
  4  5  1  0  0  0
  4 90  1  0  0  0
  4 91  1  0  0  0
  5  6  1  0  0  0
  5 26  1  0  0  0
  5 92  1  0  0  0
  6 25  1  0  0  0
  6 93  1  0  0  0
  6 94  1  0  0  0
  7  8  2  0  0  0
  7 26  1  0  0  0
  7 29  1  0  0  0
  8  9  1  0  0  0
  8 22  1  0  0  0
  9 10  1  0  0  0
  9 27  2  0  0  0
 10 11  2  0  0  0
 10 15  1  0  0  0
 11 12  1  0  0  0
 11 95  1  0  0  0
 12 13  2  0  0  0
 12 96  1  0  0  0
 13 14  1  0  0  0
 13 31  1  0  0  0
 14 15  2  0  0  0
 14 97  1  0  0  0
 15 98  1  0  0  0
 16 17  2  0  0  0
 16 21  1  0  0  0
 16 31  1  0  0  0
 17 18  1  0  0  0
 17 99  1  0  0  0
 18 19  2  0  0  0
 18100  1  0  0  0
 19 20  1  0  0  0
 19 24  1  0  0  0
 20 21  2  0  0  0
 20101  1  0  0  0
 21 23  1  0  0  0
 22 28  1  0  0  0
 22 32  2  0  0  0
 26 27  1  0  0  0
 28102  1  0  0  0
 28103  1  0  0  0
 29104  1  0  0  0
 29105  1  0  0  0
 33 34  1  0  0  0
 33 66  1  0  0  0
 33 70  2  0  0  0
 34 36  1  0  0  0
 34 59  1  0  0  0
 34106  1  0  0  0
 35 44  2  0  0  0
 35 45  1  0  0  0
 35 68  1  0  0  0
 36 56  1  0  0  0
 36107  1  0  0  0
 37 39  1  0  0  0
 37 47  1  0  0  0
 37 66  1  0  0  0
 37108  1  0  0  0
 38 43  2  0  0  0
 38 46  1  0  0  0
 38 47  1  0  0  0
 39 64  1  0  0  0
 39 67  2  0  0  0
 40 52  1  0  0  0
 40 53  2  0  0  0
 40 58  1  0  0  0
 41109  1  0  0  0
 41110  1  0  0  0
 41111  1  0  0  0
 41 48  1  0  0  0
 42 43  1  0  0  0
 42 66  1  0  0  0
 42112  1  0  0  0
 42113  1  0  0  0
 43 44  1  0  0  0
 44114  1  0  0  0
 45 46  2  0  0  0
 45115  1  0  0  0
 46116  1  0  0  0
 47117  1  0  0  0
 47118  1  0  0  0
 48 56  1  0  0  0
 48 65  1  0  0  0
 48119  1  0  0  0
 49 50  1  0  0  0
 49 53  1  0  0  0
 49 64  1  0  0  0
 49120  1  0  0  0
 50 51  1  0  0  0
 50121  1  0  0  0
 50122  1  0  0  0
 51 52  1  0  0  0
 51123  1  0  0  0
 51124  1  0  0  0
 52125  1  0  0  0
 52126  1  0  0  0
 53 54  1  0  0  0
 54 55  2  0  0  0
 54127  1  0  0  0
 55 57  1  0  0  0
 55128  1  0  0  0
 56 69  2  0  0  0
 57 58  2  0  0  0
 57129  1  0  0  0
 58130  1  0  0  0
 59 60  1  0  0  0
 59 61  1  0  0  0
 59 62  1  0  0  0
 60131  1  0  0  0
 60132  1  0  0  0
 60133  1  0  0  0
 61134  1  0  0  0
 61135  1  0  0  0
 61136  1  0  0  0
 62137  1  0  0  0
 62138  1  0  0  0
 62139  1  0  0  0
 63 65  1  0  0  0
 63140  1  0  0  0
 63141  1  0  0  0
 63142  1  0  0  0
 64143  1  0  0  0
 65144  1  0  0  0
 68 81  1  0  0  0
 71 72  2  0  0  0
 71 73  1  0  0  0
 71145  1  0  0  0
 72 75  1  0  0  0
 72 83  1  0  0  0
 73 82  1  0  0  0
 73 84  2  0  0  0
 74 79  1  0  0  0
 74 83  2  0  0  0
 74 84  1  0  0  0
 75146  1  0  0  0
 75147  1  0  0  0
 75148  1  0  0  0
 76149  1  0  0  0
 76150  1  0  0  0
 76151  1  0  0  0
 76 82  1  0  0  0
 77 82  1  0  0  0
 77152  1  0  0  0
 77153  1  0  0  0
 77154  1  0  0  0
 78 85  1  0  0  0
 78155  1  0  0  0
 78156  1  0  0  0
 78157  1  0  0  0
 79 80  1  0  0  0
 79158  1  0  0  0
 79159  1  0  0  0
 80 85  1  0  0  0
 80160  1  0  0  0
 80161  1  0  0  0
 81 82  1  0  0  0
 81162  1  0  0  0
 81163  1  0  0  0
M  ISO  4   1 100  68 101  81 101  85 100
M  END
> <chiral flag>
0

> <version>
0

> <s_m_source_file>
/data/baiqing/PycharmProjects/Reinvent-master-3.2/result/LINK_invent/BTK/process_docking_weight1_custom_sum_contain_oxygen_bond_distance_aromatic_linkinvent_7_9_3/rearranged_h_0058.sdf

> <i_m_source_file_index>
73

> <r_mmod_Potential_Energy-OPLS-2005>
-128.448684692383

> <r_mmod_Stretch_Energy-OPLS-2005>
128.455017089844

> <r_mmod_Bend_Energy-OPLS-2005>
176.1328125

> <r_mmod_Torsional_Energy-OPLS-2005>
264.853912353516

> <r_mmod_Improper_Torsional_Energy-OPLS-2005>
8.66410064697266

> <r_mmod_Van_der_Waal_Energy-OPLS-2005>
155.948364257812

> <r_mmod_Electrostatic_Energy-OPLS-2005>
-716.581176757812

> <r_mmod_Solvation_Energy-OPLS-2005>
-215.971771240234

> <b_mmod_Minimization_Converged-OPLS-2005>
0

> <r_mmod_RMS_Derivative-OPLS-2005>
1.95551657676697

$$$$
73
                    3D
 Structure written by MMmdl.
151159  0  0  1  0            999 V2000
  -29.3529  -17.7794   19.9790 C   0  0  0  0  0  0
  -30.1171  -14.6668   19.3677 C   0  0  0  0  0  0
  -29.5680  -13.4352   18.4261 C   0  0  0  0  0  0
  -28.4016  -12.6293   19.0022 C   0  0  0  0  0  0
  -27.5710  -13.6607   19.7637 C   0  0  2  0  0  0
  -28.3851  -14.7929   20.6423 C   0  0  0  0  0  0
  -25.2103  -13.8926   20.5849 C   0  0  0  0  0  0
  -24.1778  -13.0698   20.9280 C   0  0  0  0  0  0
  -24.6910  -11.7344   20.8592 C   0  0  0  0  0  0
  -23.9578  -10.4502   21.0175 C   0  0  0  0  0  0
  -24.3935   -9.4368   21.9043 C   0  0  0  0  0  0
  -23.6481   -8.2456   22.0719 C   0  0  0  0  0  0
  -22.4443   -8.0450   21.3573 C   0  0  0  0  0  0
  -22.0212   -9.0430   20.4631 C   0  0  0  0  0  0
  -22.7660  -10.2283   20.2918 C   0  0  0  0  0  0
  -21.6877   -6.0827   22.5324 C   0  0  0  0  0  0
  -21.3941   -6.5648   23.8255 C   0  0  0  0  0  0
  -21.3661   -5.6829   24.9236 C   0  0  0  0  0  0
  -21.6057   -4.3080   24.7307 C   0  0  0  0  0  0
  -21.8800   -3.8158   23.4400 C   0  0  0  0  0  0
  -21.9196   -4.7023   22.3437 C   0  0  0  0  0  0
  -22.7664  -13.5222   21.1817 C   0  0  0  0  0  0
  -22.1666   -4.2202   21.1031 F   0  0  0  0  0  0
  -21.5709   -3.4519   25.7789 F   0  0  0  0  0  0
  -29.1859  -15.9921   19.8715 N   0  0  0  0  0  0
  -26.3108  -13.1096   20.3399 N   0  0  0  0  0  0
  -26.0046  -11.7782   20.5359 N   0  0  0  0  0  0
  -22.0258  -12.8206   22.0326 N   0  0  0  0  0  0
  -25.3204  -15.2684   20.4093 N   0  0  0  0  0  0
  -30.5645  -17.3393   20.3126 O   0  0  0  0  0  0
  -21.6717   -6.9058   21.4325 O   0  0  0  0  0  0
  -22.3225  -14.5453   20.6614 O   0  0  0  0  0  0
  -24.8284  -31.5961   23.0242 C   0  0  0  0  0  0
  -26.0045  -32.3599   23.7378 C   0  0  1  0  0  0
  -27.3492  -25.2197   20.2063 C   0  0  0  0  0  0
  -25.5923  -33.7517   24.1091 N   0  0  0  0  0  0
  -23.7262  -30.1098   21.4206 C   0  0  2  0  0  0
  -25.1832  -28.1152   20.1642 C   0  0  0  0  0  0
  -22.8434  -29.3180   22.4381 C   0  0  0  0  0  0
  -18.0447  -28.1470   22.8401 C   0  0  0  0  0  0
  -24.1459  -36.6770   23.2696 C   0  0  0  0  0  0
  -26.3351  -29.8315   21.5018 C   0  0  0  0  0  0
  -26.3925  -28.2233   20.8609 C   0  0  0  0  0  0
  -27.3771  -26.8652   20.8181 C   0  0  0  0  0  0
  -26.1131  -25.6934   19.4657 C   0  0  0  0  0  0
  -25.1630  -26.8714   19.4554 C   0  0  0  0  0  0
  -24.0461  -29.2339   20.1383 C   0  0  0  0  0  0
  -25.4168  -36.2435   24.0188 C   0  0  1  0  0  0
  -20.6113  -28.3837   23.0903 C   0  0  2  0  0  0
  -20.6762  -26.9379   22.5394 C   0  0  0  0  0  0
  -19.5715  -26.6291   21.5215 C   0  0  0  0  0  0
  -18.1942  -26.7981   22.1633 C   0  0  0  0  0  0
  -19.1747  -28.9032   23.2549 C   0  0  0  0  0  0
  -18.9628  -30.1588   23.8635 C   0  0  0  0  0  0
  -17.6590  -30.6614   24.0489 C   0  0  0  0  0  0
  -25.9213  -34.8850   23.4653 C   0  0  0  0  0  0
  -16.5474  -29.9060   23.6355 C   0  0  0  0  0  0
  -16.7417  -28.6471   23.0428 C   0  0  0  0  0  0
  -26.4779  -31.6357   25.0616 C   0  0  0  0  0  0
  -25.3501  -31.4032   26.0982 C   0  0  0  0  0  0
  -27.0959  -30.2666   24.7436 C   0  0  0  0  0  0
  -27.5937  -32.4569   25.7467 C   0  0  0  0  0  0
  -27.5534  -37.1441   24.8414 C   0  0  0  0  0  0
  -21.4962  -29.2803   22.3106 N   0  0  0  0  0  0
  -26.4133  -37.3365   23.9527 N   0  0  0  0  0  0
  -25.0114  -30.5788   22.0446 N   0  0  0  0  0  0
  -23.4184  -28.7149   23.3420 O   0  0  0  0  0  0
  -28.2317  -23.4071   20.1259 O   0  0  0  0  0  0
  -26.6089  -34.8777   22.4459 O   0  0  0  0  0  0
  -23.6974  -31.9736   23.4174 O   0  0  0  0  0  0
  -27.3780  -19.6226   19.9489 C   0  0  0  0  0  0
  -30.6251  -18.9148   18.3500 C   0  0  0  0  0  0
  -27.4384  -18.0064   18.6621 C   0  0  0  0  0  0
  -28.5438  -21.2391   19.9880 C   0  0  0  0  0  0
  -29.3525  -20.7711   17.1343 C   0  0  0  0  0  0
  -26.2457  -17.7065   17.8013 C   0  0  0  0  0  0
  -26.4333  -18.7766   16.7254 C   0  0  0  0  0  0
  -27.2783  -20.0081   17.2439 C   0  0  0  0  0  0
  -29.2124  -17.7162   17.7046 N   0  0  0  0  0  0
  -30.1883  -20.3476   19.5801 N   0  0  0  0  0  0
  -28.6243  -19.7412   18.1243 N   0  0  0  0  0  0
  -30.9159  -15.1511   18.7907 H   0  0  0  0  0  0
  -30.6949  -14.2513   20.1873 H   0  0  0  0  0  0
  -30.3802  -12.7689   18.1469 H   0  0  0  0  0  0
  -29.2413  -13.8721   17.4829 H   0  0  0  0  0  0
  -28.7886  -11.8721   19.6927 H   0  0  0  0  0  0
  -27.8512  -12.1104   18.2086 H   0  0  0  0  0  0
  -27.1974  -14.2436   18.9128 H   0  0  0  0  0  0
  -28.9718  -14.3014   21.4224 H   0  0  0  0  0  0
  -27.6708  -15.3702   21.2265 H   0  0  0  0  0  0
  -25.3031   -9.5804   22.4783 H   0  0  0  0  0  0
  -24.0066   -7.4882   22.7563 H   0  0  0  0  0  0
  -21.1085   -8.9031   19.8976 H   0  0  0  0  0  0
  -22.4044  -10.9827   19.6026 H   0  0  0  0  0  0
  -21.1771   -7.6132   23.9783 H   0  0  0  0  0  0
  -21.1543   -6.0526   25.9179 H   0  0  0  0  0  0
  -22.0543   -2.7624   23.2891 H   0  0  0  0  0  0
  -22.3828  -11.9902   22.4862 H   0  0  0  0  0  0
  -21.0815  -13.1253   22.2335 H   0  0  0  0  0  0
  -24.5841  -15.9467   20.5661 H   0  0  0  0  0  0
  -26.2259  -15.6806   20.2281 H   0  0  0  0  0  0
  -26.8451  -32.3982   23.0355 H   0  0  0  0  0  0
  -24.9663  -33.8232   24.9007 H   0  0  0  0  0  0
  -23.1479  -30.9707   21.0809 H   0  0  0  0  0  0
  -23.3849  -35.8909   23.2851 H   0  0  0  0  0  0
  -24.3516  -36.9058   22.2217 H   0  0  0  0  0  0
  -23.6950  -37.5642   23.7187 H   0  0  0  0  0  0
  -26.6994  -30.4692   20.6901 H   0  0  0  0  0  0
  -27.1349  -29.9065   22.2205 H   0  0  0  0  0  0
  -28.2663  -27.0387   21.4059 H   0  0  0  0  0  0
  -25.7575  -24.9098   18.8069 H   0  0  0  0  0  0
  -24.3023  -26.7333   18.8175 H   0  0  0  0  0  0
  -24.2983  -29.9022   19.3156 H   0  0  0  0  0  0
  -23.1398  -28.7257   19.8114 H   0  0  0  0  0  0
  -25.1361  -36.0927   25.0590 H   0  0  0  0  0  0
  -21.0151  -28.3502   24.1044 H   0  0  0  0  0  0
  -20.5429  -26.2531   23.3779 H   0  0  0  0  0  0
  -21.6592  -26.6984   22.1321 H   0  0  0  0  0  0
  -19.6792  -25.6145   21.1373 H   0  0  0  0  0  0
  -19.6654  -27.2987   20.6654 H   0  0  0  0  0  0
  -17.4202  -26.6747   21.4062 H   0  0  0  0  0  0
  -18.0251  -26.0170   22.9057 H   0  0  0  0  0  0
  -19.8102  -30.7449   24.1936 H   0  0  0  0  0  0
  -17.5139  -31.6296   24.5103 H   0  0  0  0  0  0
  -15.5462  -30.2908   23.7795 H   0  0  0  0  0  0
  -15.8818  -28.0688   22.7348 H   0  0  0  0  0  0
  -24.5580  -30.7643   25.7063 H   0  0  0  0  0  0
  -24.8879  -32.3433   26.4047 H   0  0  0  0  0  0
  -25.7280  -30.9223   27.0039 H   0  0  0  0  0  0
  -26.3815  -29.5724   24.3077 H   0  0  0  0  0  0
  -27.4659  -29.7783   25.6457 H   0  0  0  0  0  0
  -27.9612  -30.3604   24.0898 H   0  0  0  0  0  0
  -27.2282  -33.4016   26.1471 H   0  0  0  0  0  0
  -28.3992  -32.6987   25.0532 H   0  0  0  0  0  0
  -28.0419  -31.9234   26.5858 H   0  0  0  0  0  0
  -28.2194  -38.0073   24.7867 H   0  0  0  0  0  0
  -28.1363  -36.2621   24.5674 H   0  0  0  0  0  0
  -27.2323  -37.0375   25.8800 H   0  0  0  0  0  0
  -21.0738  -29.8179   21.5669 H   0  0  0  0  0  0
  -25.9782  -38.2247   24.1872 H   0  0  0  0  0  0
  -26.3454  -19.8818   20.1628 H   0  0  0  0  0  0
  -31.6423  -18.7493   18.0210 H   0  0  0  0  0  0
  -30.3851  -21.0957   17.3303 H   0  0  0  0  0  0
  -28.8757  -21.7600   17.0719 H   0  0  0  0  0  0
  -29.4497  -20.3454   16.1346 H   0  0  0  0  0  0
  -25.2909  -17.8303   18.3241 H   0  0  0  0  0  0
  -26.2756  -16.7012   17.3744 H   0  0  0  0  0  0
  -25.4704  -19.0608   16.2768 H   0  0  0  0  0  0
  -26.9791  -18.3079   15.8979 H   0  0  0  0  0  0
  -27.3659  -20.5277   16.2769 H   0  0  0  0  0  0
  -26.5958  -20.6829   17.7632 H   0  0  0  0  0  0
  1 25  1  0  0  0
  1 30  2  0  0  0
  1 81  1  0  0  0
  2  3  1  0  0  0
  2 25  1  0  0  0
  2 82  1  0  0  0
  2 83  1  0  0  0
  3  4  1  0  0  0
  3 84  1  0  0  0
  3 85  1  0  0  0
  4  5  1  0  0  0
  4 86  1  0  0  0
  4 87  1  0  0  0
  5  6  1  0  0  0
  5 26  1  0  0  0
  5 88  1  0  0  0
  6 25  1  0  0  0
  6 89  1  0  0  0
  6 90  1  0  0  0
  7  8  2  0  0  0
  7 26  1  0  0  0
  7 29  1  0  0  0
  8  9  1  0  0  0
  8 22  1  0  0  0
  9 10  1  0  0  0
  9 27  2  0  0  0
 10 11  2  0  0  0
 10 15  1  0  0  0
 11 12  1  0  0  0
 11 91  1  0  0  0
 12 13  2  0  0  0
 12 92  1  0  0  0
 13 14  1  0  0  0
 13 31  1  0  0  0
 14 15  2  0  0  0
 14 93  1  0  0  0
 15 94  1  0  0  0
 16 17  2  0  0  0
 16 21  1  0  0  0
 16 31  1  0  0  0
 17 18  1  0  0  0
 17 95  1  0  0  0
 18 19  2  0  0  0
 18 96  1  0  0  0
 19 20  1  0  0  0
 19 24  1  0  0  0
 20 21  2  0  0  0
 20 97  1  0  0  0
 21 23  1  0  0  0
 22 28  1  0  0  0
 22 32  2  0  0  0
 26 27  1  0  0  0
 28 98  1  0  0  0
 28 99  1  0  0  0
 29100  1  0  0  0
 29101  1  0  0  0
 33 34  1  0  0  0
 33 66  1  0  0  0
 33 70  2  0  0  0
 34 36  1  0  0  0
 34 59  1  0  0  0
 34102  1  0  0  0
 35 44  2  0  0  0
 35 45  1  0  0  0
 35 68  1  0  0  0
 36 56  1  0  0  0
 36103  1  0  0  0
 37 39  1  0  0  0
 37 47  1  0  0  0
 37 66  1  0  0  0
 37104  1  0  0  0
 38 43  2  0  0  0
 38 46  1  0  0  0
 38 47  1  0  0  0
 39 64  1  0  0  0
 39 67  2  0  0  0
 40 52  1  0  0  0
 40 53  2  0  0  0
 40 58  1  0  0  0
 41105  1  0  0  0
 41106  1  0  0  0
 41107  1  0  0  0
 41 48  1  0  0  0
 42 43  1  0  0  0
 42 66  1  0  0  0
 42108  1  0  0  0
 42109  1  0  0  0
 43 44  1  0  0  0
 44110  1  0  0  0
 45 46  2  0  0  0
 45111  1  0  0  0
 46112  1  0  0  0
 47113  1  0  0  0
 47114  1  0  0  0
 48 56  1  0  0  0
 48 65  1  0  0  0
 48115  1  0  0  0
 49 50  1  0  0  0
 49 53  1  0  0  0
 49 64  1  0  0  0
 49116  1  0  0  0
 50 51  1  0  0  0
 50117  1  0  0  0
 50118  1  0  0  0
 51 52  1  0  0  0
 51119  1  0  0  0
 51120  1  0  0  0
 52121  1  0  0  0
 52122  1  0  0  0
 53 54  1  0  0  0
 54 55  2  0  0  0
 54123  1  0  0  0
 55 57  1  0  0  0
 55124  1  0  0  0
 56 69  2  0  0  0
 57 58  2  0  0  0
 57125  1  0  0  0
 58126  1  0  0  0
 59 60  1  0  0  0
 59 61  1  0  0  0
 59 62  1  0  0  0
 60127  1  0  0  0
 60128  1  0  0  0
 60129  1  0  0  0
 61130  1  0  0  0
 61131  1  0  0  0
 61132  1  0  0  0
 62133  1  0  0  0
 62134  1  0  0  0
 62135  1  0  0  0
 63 65  1  0  0  0
 63136  1  0  0  0
 63137  1  0  0  0
 63138  1  0  0  0
 64139  1  0  0  0
 65140  1  0  0  0
 68 74  1  0  0  0
 71 73  2  0  0  0
 71 74  1  0  0  0
 71141  1  0  0  0
 72 79  2  0  0  0
 72 80  1  0  0  0
 72142  1  0  0  0
 73 76  1  0  0  0
 73 79  1  0  0  0
 74 80  2  0  0  0
 75 81  1  0  0  0
 75143  1  0  0  0
 75144  1  0  0  0
 75145  1  0  0  0
 76 77  1  0  0  0
 76146  1  0  0  0
 76147  1  0  0  0
 77 78  1  0  0  0
 77148  1  0  0  0
 77149  1  0  0  0
 78 81  1  0  0  0
 78150  1  0  0  0
 78151  1  0  0  0
M  ISO  4   1 100  68 101  74 101  81 100
M  END
> <chiral flag>
0

> <version>
0

> <s_m_source_file>
/data/baiqing/PycharmProjects/Reinvent-master-3.2/result/LINK_invent/BTK/process_docking_weight1_custom_sum_contain_oxygen_bond_distance_aromatic_linkinvent_7_9_3/rearranged_h_0058.sdf

> <i_m_source_file_index>
74

> <r_mmod_Potential_Energy-OPLS-2005>
23945.46875

> <r_mmod_Stretch_Energy-OPLS-2005>
12687.7587890625

> <r_mmod_Bend_Energy-OPLS-2005>
1461.70764160156

> <r_mmod_Torsional_Energy-OPLS-2005>
406.082702636719

> <r_mmod_Improper_Torsional_Energy-OPLS-2005>
101.745475769043

> <r_mmod_Van_der_Waal_Energy-OPLS-2005>
3033.03540039062

> <r_mmod_Electrostatic_Energy-OPLS-2005>
-599.174194335938

> <r_mmod_Solvation_Energy-OPLS-2005>
-238.823501586914

> <b_mmod_Minimization_Converged-OPLS-2005>
0

> <r_mmod_RMS_Derivative-OPLS-2005>
26.462833404541

$$$$
74
                    3D
 Structure written by MMmdl.
161169  0  0  1  0            999 V2000
  -30.5892  -14.7217   20.3925 C   0  0  0  0  0  0
  -30.4506  -12.3997   19.5097 C   0  0  0  0  0  0
  -29.5355  -12.4091   18.2583 C   0  0  0  0  0  0
  -28.0409  -12.3076   18.6427 C   0  0  0  0  0  0
  -27.6398  -13.2127   19.8387 C   0  0  2  0  0  0
  -28.6812  -13.1472   20.9735 C   0  0  0  0  0  0
  -25.2534  -13.8143   20.5671 C   0  0  0  0  0  0
  -24.1809  -13.0421   20.9215 C   0  0  0  0  0  0
  -24.6366  -11.6893   20.8762 C   0  0  0  0  0  0
  -23.9030  -10.4286   21.0429 C   0  0  0  0  0  0
  -24.3590   -9.4201   21.9197 C   0  0  0  0  0  0
  -23.6271   -8.2234   22.0758 C   0  0  0  0  0  0
  -22.4256   -8.0272   21.3546 C   0  0  0  0  0  0
  -21.9894   -9.0246   20.4655 C   0  0  0  0  0  0
  -22.7212  -10.2126   20.3070 C   0  0  0  0  0  0
  -21.6852   -6.0721   22.5281 C   0  0  0  0  0  0
  -21.4017   -6.5634   23.8208 C   0  0  0  0  0  0
  -21.3654   -5.6788   24.9172 C   0  0  0  0  0  0
  -21.6037   -4.3048   24.7230 C   0  0  0  0  0  0
  -21.8816   -3.8137   23.4352 C   0  0  0  0  0  0
  -21.9193   -4.6951   22.3407 C   0  0  0  0  0  0
  -22.7836  -13.5231   21.1871 C   0  0  0  0  0  0
  -22.1663   -4.2132   21.0990 F   0  0  0  0  0  0
  -21.5627   -3.4538   25.7749 F   0  0  0  0  0  0
  -30.0008  -13.4766   20.4197 N   0  0  0  0  0  0
  -26.2920  -12.9302   20.3210 N   0  0  0  0  0  0
  -25.9285  -11.6474   20.5745 N   0  0  0  0  0  0
  -22.0469  -12.8229   22.0425 N   0  0  0  0  0  0
  -25.4239  -15.1867   20.4081 N   0  0  0  0  0  0
  -31.7994  -14.8068   20.1617 O   0  0  0  0  0  0
  -21.6631   -6.8859   21.4239 O   0  0  0  0  0  0
  -22.3534  -14.5539   20.6718 O   0  0  0  0  0  0
  -24.6267  -31.8596   23.2025 C   0  0  0  0  0  0
  -25.9115  -32.4777   23.8355 C   0  0  1  0  0  0
  -27.2224  -27.3126   20.1278 C   0  0  0  0  0  0
  -25.5928  -33.8574   24.2280 N   0  0  0  0  0  0
  -23.4205  -30.4826   21.5458 C   0  0  2  0  0  0
  -24.8671  -28.9368   20.1138 C   0  0  0  0  0  0
  -22.7483  -29.4615   22.4945 C   0  0  0  0  0  0
  -18.0290  -28.1378   22.8490 C   0  0  0  0  0  0
  -24.1491  -36.7297   23.2635 C   0  0  0  0  0  0
  -25.9619  -30.7889   21.3747 C   0  0  0  0  0  0
  -26.0362  -29.4152   20.7189 C   0  0  0  0  0  0
  -27.2183  -28.6160   20.7133 C   0  0  0  0  0  0
  -26.0341  -26.8934   19.4878 C   0  0  0  0  0  0
  -24.8688  -27.6822   19.4866 C   0  0  0  0  0  0
  -23.6356  -29.8172   20.1613 C   0  0  0  0  0  0
  -25.4113  -36.3080   24.0329 C   0  0  1  0  0  0
  -20.5889  -28.3685   23.1288 C   0  0  2  0  0  0
  -20.6776  -26.9409   22.5411 C   0  0  0  0  0  0
  -19.5748  -26.6380   21.5218 C   0  0  0  0  0  0
  -18.1928  -26.7922   22.1628 C   0  0  0  0  0  0
  -19.1541  -28.8853   23.2882 C   0  0  0  0  0  0
  -18.9459  -30.1459   23.8891 C   0  0  0  0  0  0
  -17.6456  -30.6580   24.0566 C   0  0  0  0  0  0
  -25.9052  -34.9453   23.5106 C   0  0  0  0  0  0
  -16.5350  -29.9075   23.6328 C   0  0  0  0  0  0
  -16.7277  -28.6494   23.0348 C   0  0  0  0  0  0
  -26.4496  -31.6580   25.0724 C   0  0  0  0  0  0
  -25.3731  -31.3719   26.1453 C   0  0  0  0  0  0
  -27.0337  -30.3001   24.6177 C   0  0  0  0  0  0
  -27.6047  -32.4322   25.7500 C   0  0  0  0  0  0
  -27.5587  -37.1794   24.8455 C   0  0  0  0  0  0
  -21.4197  -29.3038   22.3686 N   0  0  0  0  0  0
  -26.4287  -37.3780   23.9418 N   0  0  0  0  0  0
  -24.6885  -31.0605   22.0978 N   0  0  0  0  0  0
  -23.4207  -28.8162   23.3028 O   0  0  0  0  0  0
  -28.3380  -26.4602   20.1646 O   0  0  0  0  0  0
  -26.5622  -34.8918   22.4672 O   0  0  0  0  0  0
  -23.5430  -32.1394   23.7351 O   0  0  0  0  0  0
  -29.3775  -21.3163   20.1729 C   0  0  0  0  0  0
  -29.1806  -22.5255   20.9117 C   0  0  0  0  0  0
  -29.3750  -20.0547   20.8567 C   0  0  0  0  0  0
  -29.0329  -21.2111   22.8111 C   0  0  0  0  0  0
  -28.8242  -21.1654   24.3083 C   0  0  0  0  0  0
  -29.3978  -16.1848   18.7166 C   0  0  0  0  0  0
  -31.5561  -17.6529   20.9790 C   0  0  0  0  0  0
  -29.3153  -23.9920   20.3408 C   0  0  0  0  0  0
  -29.4377  -18.6567   20.1434 C   0  0  0  0  0  0
  -28.1067  -25.0206   20.4737 C   0  0  0  0  0  0
  -29.6932  -16.0586   20.2377 C   0  0  2  0  0  0
  -29.0194  -22.4199   22.2459 N   0  0  0  0  0  0
  -29.2028  -20.0405   22.1928 N   0  0  0  0  0  0
  -30.0987  -17.4426   20.8065 N   0  3  1  0  0  0
  -31.4940  -12.5183   19.2128 H   0  0  0  0  0  0
  -30.3950  -11.4351   20.0174 H   0  0  0  0  0  0
  -29.7959  -11.5675   17.6152 H   0  0  0  0  0  0
  -29.7264  -13.2906   17.6516 H   0  0  0  0  0  0
  -27.8483  -11.2656   18.8984 H   0  0  0  0  0  0
  -27.4110  -12.5228   17.7786 H   0  0  0  0  0  0
  -27.6159  -14.2258   19.4516 H   0  0  0  0  0  0
  -28.7003  -12.1500   21.4163 H   0  0  0  0  0  0
  -28.4197  -13.8266   21.7862 H   0  0  0  0  0  0
  -25.2737   -9.5675   22.4764 H   0  0  0  0  0  0
  -23.9982   -7.4617   22.7474 H   0  0  0  0  0  0
  -21.0826   -8.8756   19.8960 H   0  0  0  0  0  0
  -22.3668  -10.9661   19.6179 H   0  0  0  0  0  0
  -21.2015   -7.6139   23.9706 H   0  0  0  0  0  0
  -21.1482   -6.0524   25.9068 H   0  0  0  0  0  0
  -22.0604   -2.7599   23.2866 H   0  0  0  0  0  0
  -22.4075  -11.9880   22.4805 H   0  0  0  0  0  0
  -21.1096  -13.1272   22.2636 H   0  0  0  0  0  0
  -24.6467  -15.8324   20.5023 H   0  0  0  0  0  0
  -26.2482  -15.6220   20.0174 H   0  0  0  0  0  0
  -26.7185  -32.5448   23.1103 H   0  0  0  0  0  0
  -25.0077  -33.9720   25.0428 H   0  0  0  0  0  0
  -22.7139  -31.3025   21.4024 H   0  0  0  0  0  0
  -23.3758  -35.9622   23.3266 H   0  0  0  0  0  0
  -24.3588  -36.8954   22.2055 H   0  0  0  0  0  0
  -23.7234  -37.6486   23.6679 H   0  0  0  0  0  0
  -26.0924  -31.5512   20.6057 H   0  0  0  0  0  0
  -26.8427  -30.8380   22.0035 H   0  0  0  0  0  0
  -28.1166  -28.9785   21.1931 H   0  0  0  0  0  0
  -25.9825  -25.9468   18.9726 H   0  0  0  0  0  0
  -23.9768  -27.3142   18.9981 H   0  0  0  0  0  0
  -23.7557  -30.5927   19.4041 H   0  0  0  0  0  0
  -22.7555  -29.2460   19.8594 H   0  0  0  0  0  0
  -25.1287  -36.1925   25.0819 H   0  0  0  0  0  0
  -20.9976  -28.3254   24.1413 H   0  0  0  0  0  0
  -20.5682  -26.2294   23.3611 H   0  0  0  0  0  0
  -21.6644  -26.7437   22.1205 H   0  0  0  0  0  0
  -19.6907  -25.6292   21.1245 H   0  0  0  0  0  0
  -19.6680  -27.3194   20.6751 H   0  0  0  0  0  0
  -17.4202  -26.6686   21.4026 H   0  0  0  0  0  0
  -18.0318  -26.0059   22.9018 H   0  0  0  0  0  0
  -19.7932  -30.7286   24.2244 H   0  0  0  0  0  0
  -17.5004  -31.6255   24.5176 H   0  0  0  0  0  0
  -15.5347  -30.2974   23.7647 H   0  0  0  0  0  0
  -15.8681  -28.0814   22.7052 H   0  0  0  0  0  0
  -24.5899  -30.7073   25.7785 H   0  0  0  0  0  0
  -24.8932  -32.2888   26.4883 H   0  0  0  0  0  0
  -25.8059  -30.8891   27.0225 H   0  0  0  0  0  0
  -26.2908  -29.6753   24.1202 H   0  0  0  0  0  0
  -27.4033  -29.7250   25.4677 H   0  0  0  0  0  0
  -27.8781  -30.4280   23.9399 H   0  0  0  0  0  0
  -27.2641  -33.3618   26.2073 H   0  0  0  0  0  0
  -28.3861  -32.6893   25.0335 H   0  0  0  0  0  0
  -28.0713  -31.8456   26.5423 H   0  0  0  0  0  0
  -28.2567  -38.0129   24.7554 H   0  0  0  0  0  0
  -28.1123  -36.2662   24.6212 H   0  0  0  0  0  0
  -27.2317  -37.1363   25.8859 H   0  0  0  0  0  0
  -20.9375  -29.8768   21.6902 H   0  0  0  0  0  0
  -26.0165  -38.2849   24.1440 H   0  0  0  0  0  0
  -29.5251  -21.3559   19.1013 H   0  0  0  0  0  0
  -29.2686  -22.0364   24.7901 H   0  0  0  0  0  0
  -29.2796  -20.2756   24.7428 H   0  0  0  0  0  0
  -27.7588  -21.1530   24.5394 H   0  0  0  0  0  0
  -28.5200  -16.7900   18.4995 H   0  0  0  0  0  0
  -29.1892  -15.2317   18.2467 H   0  0  0  0  0  0
  -30.2478  -16.6083   18.1813 H   0  0  0  0  0  0
  -31.7636  -18.6300   21.4158 H   0  0  0  0  0  0
  -32.0786  -17.5947   20.0232 H   0  0  0  0  0  0
  -31.9847  -16.9174   21.6585 H   0  0  0  0  0  0
  -29.5897  -23.9192   19.2891 H   0  0  0  0  0  0
  -30.1820  -24.4343   20.8318 H   0  0  0  0  0  0
  -29.8886  -18.8139   19.1634 H   0  0  0  0  0  0
  -28.3901  -18.4149   19.9662 H   0  0  0  0  0  0
  -27.7459  -24.9842   21.5019 H   0  0  0  0  0  0
  -27.3036  -24.6094   19.8668 H   0  0  0  0  0  0
  -28.7442  -15.8479   20.7277 H   0  0  0  0  0  0
  -29.7331  -17.4703   21.7474 H   0  0  0  0  0  0
  1 25  1  0  0  0
  1 30  2  0  0  0
  1 81  1  0  0  0
  2  3  1  0  0  0
  2 25  1  0  0  0
  2 85  1  0  0  0
  2 86  1  0  0  0
  3  4  1  0  0  0
  3 87  1  0  0  0
  3 88  1  0  0  0
  4  5  1  0  0  0
  4 89  1  0  0  0
  4 90  1  0  0  0
  5  6  1  0  0  0
  5 26  1  0  0  0
  5 91  1  0  0  0
  6 25  1  0  0  0
  6 92  1  0  0  0
  6 93  1  0  0  0
  7  8  2  0  0  0
  7 26  1  0  0  0
  7 29  1  0  0  0
  8  9  1  0  0  0
  8 22  1  0  0  0
  9 10  1  0  0  0
  9 27  2  0  0  0
 10 11  2  0  0  0
 10 15  1  0  0  0
 11 12  1  0  0  0
 11 94  1  0  0  0
 12 13  2  0  0  0
 12 95  1  0  0  0
 13 14  1  0  0  0
 13 31  1  0  0  0
 14 15  2  0  0  0
 14 96  1  0  0  0
 15 97  1  0  0  0
 16 17  2  0  0  0
 16 21  1  0  0  0
 16 31  1  0  0  0
 17 18  1  0  0  0
 17 98  1  0  0  0
 18 19  2  0  0  0
 18 99  1  0  0  0
 19 20  1  0  0  0
 19 24  1  0  0  0
 20 21  2  0  0  0
 20100  1  0  0  0
 21 23  1  0  0  0
 22 28  1  0  0  0
 22 32  2  0  0  0
 26 27  1  0  0  0
 28101  1  0  0  0
 28102  1  0  0  0
 29103  1  0  0  0
 29104  1  0  0  0
 33 34  1  0  0  0
 33 66  1  0  0  0
 33 70  2  0  0  0
 34 36  1  0  0  0
 34 59  1  0  0  0
 34105  1  0  0  0
 35 44  2  0  0  0
 35 45  1  0  0  0
 35 68  1  0  0  0
 36 56  1  0  0  0
 36106  1  0  0  0
 37 39  1  0  0  0
 37 47  1  0  0  0
 37 66  1  0  0  0
 37107  1  0  0  0
 38 43  2  0  0  0
 38 46  1  0  0  0
 38 47  1  0  0  0
 39 64  1  0  0  0
 39 67  2  0  0  0
 40 52  1  0  0  0
 40 53  2  0  0  0
 40 58  1  0  0  0
 41108  1  0  0  0
 41109  1  0  0  0
 41110  1  0  0  0
 41 48  1  0  0  0
 42 43  1  0  0  0
 42 66  1  0  0  0
 42111  1  0  0  0
 42112  1  0  0  0
 43 44  1  0  0  0
 44113  1  0  0  0
 45 46  2  0  0  0
 45114  1  0  0  0
 46115  1  0  0  0
 47116  1  0  0  0
 47117  1  0  0  0
 48 56  1  0  0  0
 48 65  1  0  0  0
 48118  1  0  0  0
 49 50  1  0  0  0
 49 53  1  0  0  0
 49 64  1  0  0  0
 49119  1  0  0  0
 50 51  1  0  0  0
 50120  1  0  0  0
 50121  1  0  0  0
 51 52  1  0  0  0
 51122  1  0  0  0
 51123  1  0  0  0
 52124  1  0  0  0
 52125  1  0  0  0
 53 54  1  0  0  0
 54 55  2  0  0  0
 54126  1  0  0  0
 55 57  1  0  0  0
 55127  1  0  0  0
 56 69  2  0  0  0
 57 58  2  0  0  0
 57128  1  0  0  0
 58129  1  0  0  0
 59 60  1  0  0  0
 59 61  1  0  0  0
 59 62  1  0  0  0
 60130  1  0  0  0
 60131  1  0  0  0
 60132  1  0  0  0
 61133  1  0  0  0
 61134  1  0  0  0
 61135  1  0  0  0
 62136  1  0  0  0
 62137  1  0  0  0
 62138  1  0  0  0
 63 65  1  0  0  0
 63139  1  0  0  0
 63140  1  0  0  0
 63141  1  0  0  0
 64142  1  0  0  0
 65143  1  0  0  0
 68 80  1  0  0  0
 71 72  2  0  0  0
 71 73  1  0  0  0
 71144  1  0  0  0
 72 78  1  0  0  0
 72 82  1  0  0  0
 73 79  1  0  0  0
 73 83  2  0  0  0
 74 75  1  0  0  0
 74 82  2  0  0  0
 74 83  1  0  0  0
 75145  1  0  0  0
 75146  1  0  0  0
 75147  1  0  0  0
 76148  1  0  0  0
 76149  1  0  0  0
 76150  1  0  0  0
 76 81  1  0  0  0
 77151  1  0  0  0
 77152  1  0  0  0
 77153  1  0  0  0
 77 84  1  0  0  0
 78 80  1  0  0  0
 78154  1  0  0  0
 78155  1  0  0  0
 79 84  1  0  0  0
 79156  1  0  0  0
 79157  1  0  0  0
 80158  1  0  0  0
 80159  1  0  0  0
 81 84  1  0  0  0
 81160  1  0  0  0
 84161  1  0  0  0
M  CHG  1  84   1
M  ISO  4   1 100  68 101  80 101  81 100
M  END
> <chiral flag>
0

> <version>
0

> <s_m_source_file>
/data/baiqing/PycharmProjects/Reinvent-master-3.2/result/LINK_invent/BTK/process_docking_weight1_custom_sum_contain_oxygen_bond_distance_aromatic_linkinvent_7_9_3/rearranged_h_0058.sdf

> <i_m_source_file_index>
75

> <r_mmod_Potential_Energy-OPLS-2005>
-476.072082519531

> <r_mmod_Stretch_Energy-OPLS-2005>
96.7426834106445

> <r_mmod_Bend_Energy-OPLS-2005>
156.500915527344

> <r_mmod_Torsional_Energy-OPLS-2005>
222.521499633789

> <r_mmod_Improper_Torsional_Energy-OPLS-2005>
11.0423345565796

> <r_mmod_Van_der_Waal_Energy-OPLS-2005>
157.033126831055

> <r_mmod_Electrostatic_Energy-OPLS-2005>
-745.641052246094

> <r_mmod_Solvation_Energy-OPLS-2005>
-445.848937988281

> <b_mmod_Minimization_Converged-OPLS-2005>
0

> <r_mmod_RMS_Derivative-OPLS-2005>
1.27983427047729

$$$$
75
                    3D
 Structure written by MMmdl.
154162  0  0  1  0            999 V2000
  -30.5400  -15.0595   20.3557 C   0  0  0  0  0  0
  -30.4084  -12.6690   19.4808 C   0  0  0  0  0  0
  -29.4967  -12.5220   18.2456 C   0  0  0  0  0  0
  -28.0465  -12.2779   18.6929 C   0  0  0  0  0  0
  -27.6033  -13.2583   19.8063 C   0  0  2  0  0  0
  -28.6420  -13.4142   20.9313 C   0  0  0  0  0  0
  -25.2400  -13.8225   20.5785 C   0  0  0  0  0  0
  -24.1729  -13.0450   20.9290 C   0  0  0  0  0  0
  -24.6354  -11.6932   20.8791 C   0  0  0  0  0  0
  -23.9068  -10.4294   21.0448 C   0  0  0  0  0  0
  -24.3627   -9.4196   21.9203 C   0  0  0  0  0  0
  -23.6283   -8.2236   22.0758 C   0  0  0  0  0  0
  -22.4278   -8.0276   21.3535 C   0  0  0  0  0  0
  -21.9917   -9.0266   20.4640 C   0  0  0  0  0  0
  -22.7263  -10.2143   20.3066 C   0  0  0  0  0  0
  -21.6834   -6.0733   22.5285 C   0  0  0  0  0  0
  -21.4001   -6.5628   23.8229 C   0  0  0  0  0  0
  -21.3681   -5.6777   24.9191 C   0  0  0  0  0  0
  -21.6048   -4.3049   24.7246 C   0  0  0  0  0  0
  -21.8809   -3.8140   23.4377 C   0  0  0  0  0  0
  -21.9174   -4.6947   22.3419 C   0  0  0  0  0  0
  -22.7746  -13.5209   21.1910 C   0  0  0  0  0  0
  -22.1654   -4.2148   21.0996 F   0  0  0  0  0  0
  -21.5639   -3.4527   25.7761 F   0  0  0  0  0  0
  -29.8904  -13.8204   20.2844 N   0  0  0  0  0  0
  -26.2779  -12.9456   20.3208 N   0  0  0  0  0  0
  -25.9280  -11.6606   20.5734 N   0  0  0  0  0  0
  -22.0381  -12.8186   22.0435 N   0  0  0  0  0  0
  -25.4186  -15.1971   20.4294 N   0  0  0  0  0  0
  -31.7660  -14.9967   20.2160 O   0  0  0  0  0  0
  -21.6645   -6.8897   21.4255 O   0  0  0  0  0  0
  -22.3432  -14.5519   20.6761 O   0  0  0  0  0  0
  -24.6544  -31.8370   23.1815 C   0  0  0  0  0  0
  -25.9300  -32.4671   23.8221 C   0  0  1  0  0  0
  -27.2050  -27.0615   20.1672 C   0  0  0  0  0  0
  -25.6010  -33.8473   24.2125 N   0  0  0  0  0  0
  -23.4593  -30.4601   21.5254 C   0  0  2  0  0  0
  -24.9075  -28.8627   20.1194 C   0  0  0  0  0  0
  -22.7562  -29.4546   22.4735 C   0  0  0  0  0  0
  -18.0243  -28.1367   22.8382 C   0  0  0  0  0  0
  -24.1514  -36.7254   23.2638 C   0  0  0  0  0  0
  -26.0203  -30.6808   21.3986 C   0  0  0  0  0  0
  -26.0863  -29.2845   20.7462 C   0  0  0  0  0  0
  -27.2352  -28.3950   20.7607 C   0  0  0  0  0  0
  -26.0011  -26.7588   19.4951 C   0  0  0  0  0  0
  -24.8785  -27.6119   19.4852 C   0  0  0  0  0  0
  -23.6995  -29.7887   20.1462 C   0  0  0  0  0  0
  -25.4128  -36.2998   24.0305 C   0  0  1  0  0  0
  -20.5845  -28.3787   23.1082 C   0  0  2  0  0  0
  -20.6834  -26.9468   22.5267 C   0  0  0  0  0  0
  -19.5613  -26.5910   21.5386 C   0  0  0  0  0  0
  -18.1813  -26.7806   22.1738 C   0  0  0  0  0  0
  -19.1485  -28.8846   23.2716 C   0  0  0  0  0  0
  -18.9352  -30.1355   23.8930 C   0  0  0  0  0  0
  -17.6306  -30.6357   24.0817 C   0  0  0  0  0  0
  -25.9064  -34.9389   23.5006 C   0  0  0  0  0  0
  -16.5196  -29.8858   23.6520 C   0  0  0  0  0  0
  -16.7199  -28.6370   23.0401 C   0  0  0  0  0  0
  -26.4610  -31.6562   25.0677 C   0  0  0  0  0  0
  -25.3770  -31.3804   26.1357 C   0  0  0  0  0  0
  -27.0507  -30.2950   24.6298 C   0  0  0  0  0  0
  -27.6095  -32.4367   25.7469 C   0  0  0  0  0  0
  -27.5572  -37.1791   24.8451 C   0  0  0  0  0  0
  -21.4217  -29.3183   22.3488 N   0  0  0  0  0  0
  -26.4273  -37.3723   23.9404 N   0  0  0  0  0  0
  -24.7327  -31.0122   22.0915 N   0  0  0  0  0  0
  -23.4125  -28.7992   23.2896 O   0  0  0  0  0  0
  -28.2250  -26.0276   20.2491 O   0  0  0  0  0  0
  -26.5644  -34.8893   22.4579 O   0  0  0  0  0  0
  -23.5648  -32.1274   23.6987 O   0  0  0  0  0  0
  -27.9520  -20.9083   19.0743 C   0  0  0  0  0  0
  -28.6578  -21.5017   20.1037 C   0  0  0  0  0  0
  -28.8709  -19.0724   20.1242 C   0  0  0  0  0  0
  -29.0632  -17.4531   22.1914 C   0  0  0  0  0  0
  -27.3011  -18.6058   18.2526 C   0  0  0  0  0  0
  -28.8404  -23.1077   20.5242 C   0  0  0  0  0  0
  -27.9599  -24.4858   19.9889 C   0  0  0  0  0  0
  -29.0301  -17.4819   20.6556 C   0  0  2  0  0  0
  -28.0654  -19.5124   19.1234 N   0  0  0  0  0  0
  -29.2231  -20.3018   20.7045 N   0  3  0  0  0  0
  -29.9432  -16.3330   20.0274 N   0  0  0  0  0  0
  -31.4367  -12.8220   19.1577 H   0  0  0  0  0  0
  -30.4170  -11.7568   20.0741 H   0  0  0  0  0  0
  -29.8408  -11.7060   17.6083 H   0  0  0  0  0  0
  -29.5458  -13.4278   17.6349 H   0  0  0  0  0  0
  -27.9919  -11.2583   19.0664 H   0  0  0  0  0  0
  -27.3666  -12.3338   17.8417 H   0  0  0  0  0  0
  -27.5265  -14.2276   19.3117 H   0  0  0  0  0  0
  -28.7655  -12.5050   21.5185 H   0  0  0  0  0  0
  -28.3263  -14.1959   21.6247 H   0  0  0  0  0  0
  -25.2795   -9.5635   22.4781 H   0  0  0  0  0  0
  -24.0000   -7.4602   22.7437 H   0  0  0  0  0  0
  -21.0878   -8.8770   19.8928 H   0  0  0  0  0  0
  -22.3738  -10.9679   19.6166 H   0  0  0  0  0  0
  -21.1984   -7.6136   23.9743 H   0  0  0  0  0  0
  -21.1519   -6.0511   25.9102 H   0  0  0  0  0  0
  -22.0571   -2.7609   23.2868 H   0  0  0  0  0  0
  -22.3993  -11.9880   22.4903 H   0  0  0  0  0  0
  -21.0988  -13.1212   22.2638 H   0  0  0  0  0  0
  -24.6710  -15.8728   20.5549 H   0  0  0  0  0  0
  -26.2957  -15.6208   20.1608 H   0  0  0  0  0  0
  -26.7323  -32.5253   23.0919 H   0  0  0  0  0  0
  -25.0257  -33.9574   25.0335 H   0  0  0  0  0  0
  -22.7716  -31.2959   21.3567 H   0  0  0  0  0  0
  -23.3771  -35.9596   23.3263 H   0  0  0  0  0  0
  -24.3607  -36.8938   22.2055 H   0  0  0  0  0  0
  -23.7285  -37.6438   23.6705 H   0  0  0  0  0  0
  -26.1840  -31.4197   20.6186 H   0  0  0  0  0  0
  -26.8880  -30.7355   22.0423 H   0  0  0  0  0  0
  -28.1234  -28.6941   21.3026 H   0  0  0  0  0  0
  -25.8973  -25.8012   18.9994 H   0  0  0  0  0  0
  -23.9780  -27.2697   18.9956 H   0  0  0  0  0  0
  -23.8905  -30.5626   19.3998 H   0  0  0  0  0  0
  -22.8116  -29.2588   19.7995 H   0  0  0  0  0  0
  -25.1342  -36.1799   25.0797 H   0  0  0  0  0  0
  -20.9941  -28.3311   24.1206 H   0  0  0  0  0  0
  -20.6237  -26.2396   23.3604 H   0  0  0  0  0  0
  -21.6533  -26.7676   22.0644 H   0  0  0  0  0  0
  -19.6718  -25.5492   21.2234 H   0  0  0  0  0  0
  -19.6527  -27.1938   20.6367 H   0  0  0  0  0  0
  -17.4127  -26.6564   21.4105 H   0  0  0  0  0  0
  -17.9892  -26.0120   22.9305 H   0  0  0  0  0  0
  -19.7787  -30.7159   24.2314 H   0  0  0  0  0  0
  -17.4780  -31.5836   24.5780 H   0  0  0  0  0  0
  -15.5171  -30.2620   23.8051 H   0  0  0  0  0  0
  -15.8556  -28.0616   22.7231 H   0  0  0  0  0  0
  -24.5934  -30.7169   25.7689 H   0  0  0  0  0  0
  -24.9005  -32.3026   26.4677 H   0  0  0  0  0  0
  -25.8069  -30.9041   27.0174 H   0  0  0  0  0  0
  -26.3188  -29.6672   24.1199 H   0  0  0  0  0  0
  -27.4020  -29.7255   25.4914 H   0  0  0  0  0  0
  -27.9125  -30.4214   23.9738 H   0  0  0  0  0  0
  -27.2631  -33.3659   26.2002 H   0  0  0  0  0  0
  -28.3928  -32.6961   25.0330 H   0  0  0  0  0  0
  -28.0736  -31.8533   26.5428 H   0  0  0  0  0  0
  -28.2555  -38.0119   24.7497 H   0  0  0  0  0  0
  -28.1113  -36.2642   24.6286 H   0  0  0  0  0  0
  -27.2288  -37.1431   25.8855 H   0  0  0  0  0  0
  -20.9442  -29.9104   21.6809 H   0  0  0  0  0  0
  -26.0139  -38.2787   24.1429 H   0  0  0  0  0  0
  -27.3413  -21.3900   18.3235 H   0  0  0  0  0  0
  -28.1372  -17.8749   22.6015 H   0  0  0  0  0  0
  -29.8929  -18.0343   22.5881 H   0  0  0  0  0  0
  -29.1517  -16.4436   22.5892 H   0  0  0  0  0  0
  -26.9007  -19.1536   17.3964 H   0  0  0  0  0  0
  -26.4546  -18.2039   18.8103 H   0  0  0  0  0  0
  -27.9370  -17.8047   17.8818 H   0  0  0  0  0  0
  -29.8887  -23.3394   20.3493 H   0  0  0  0  0  0
  -28.7630  -23.1253   21.6142 H   0  0  0  0  0  0
  -26.9348  -24.3035   20.3136 H   0  0  0  0  0  0
  -27.9178  -24.4030   18.9005 H   0  0  0  0  0  0
  -28.0372  -17.0946   20.4204 H   0  0  0  0  0  0
  -29.8031  -20.3423   21.5302 H   0  0  0  0  0  0
  -30.6220  -16.7960   19.4351 H   0  0  0  0  0  0
  1 25  1  0  0  0
  1 30  2  0  0  0
  1 81  1  0  0  0
  2  3  1  0  0  0
  2 25  1  0  0  0
  2 82  1  0  0  0
  2 83  1  0  0  0
  3  4  1  0  0  0
  3 84  1  0  0  0
  3 85  1  0  0  0
  4  5  1  0  0  0
  4 86  1  0  0  0
  4 87  1  0  0  0
  5  6  1  0  0  0
  5 26  1  0  0  0
  5 88  1  0  0  0
  6 25  1  0  0  0
  6 89  1  0  0  0
  6 90  1  0  0  0
  7  8  2  0  0  0
  7 26  1  0  0  0
  7 29  1  0  0  0
  8  9  1  0  0  0
  8 22  1  0  0  0
  9 10  1  0  0  0
  9 27  2  0  0  0
 10 11  2  0  0  0
 10 15  1  0  0  0
 11 12  1  0  0  0
 11 91  1  0  0  0
 12 13  2  0  0  0
 12 92  1  0  0  0
 13 14  1  0  0  0
 13 31  1  0  0  0
 14 15  2  0  0  0
 14 93  1  0  0  0
 15 94  1  0  0  0
 16 17  2  0  0  0
 16 21  1  0  0  0
 16 31  1  0  0  0
 17 18  1  0  0  0
 17 95  1  0  0  0
 18 19  2  0  0  0
 18 96  1  0  0  0
 19 20  1  0  0  0
 19 24  1  0  0  0
 20 21  2  0  0  0
 20 97  1  0  0  0
 21 23  1  0  0  0
 22 28  1  0  0  0
 22 32  2  0  0  0
 26 27  1  0  0  0
 28 98  1  0  0  0
 28 99  1  0  0  0
 29100  1  0  0  0
 29101  1  0  0  0
 33 34  1  0  0  0
 33 66  1  0  0  0
 33 70  2  0  0  0
 34 36  1  0  0  0
 34 59  1  0  0  0
 34102  1  0  0  0
 35 44  2  0  0  0
 35 45  1  0  0  0
 35 68  1  0  0  0
 36 56  1  0  0  0
 36103  1  0  0  0
 37 39  1  0  0  0
 37 47  1  0  0  0
 37 66  1  0  0  0
 37104  1  0  0  0
 38 43  2  0  0  0
 38 46  1  0  0  0
 38 47  1  0  0  0
 39 64  1  0  0  0
 39 67  2  0  0  0
 40 52  1  0  0  0
 40 53  2  0  0  0
 40 58  1  0  0  0
 41105  1  0  0  0
 41106  1  0  0  0
 41107  1  0  0  0
 41 48  1  0  0  0
 42 43  1  0  0  0
 42 66  1  0  0  0
 42108  1  0  0  0
 42109  1  0  0  0
 43 44  1  0  0  0
 44110  1  0  0  0
 45 46  2  0  0  0
 45111  1  0  0  0
 46112  1  0  0  0
 47113  1  0  0  0
 47114  1  0  0  0
 48 56  1  0  0  0
 48 65  1  0  0  0
 48115  1  0  0  0
 49 50  1  0  0  0
 49 53  1  0  0  0
 49 64  1  0  0  0
 49116  1  0  0  0
 50 51  1  0  0  0
 50117  1  0  0  0
 50118  1  0  0  0
 51 52  1  0  0  0
 51119  1  0  0  0
 51120  1  0  0  0
 52121  1  0  0  0
 52122  1  0  0  0
 53 54  1  0  0  0
 54 55  2  0  0  0
 54123  1  0  0  0
 55 57  1  0  0  0
 55124  1  0  0  0
 56 69  2  0  0  0
 57 58  2  0  0  0
 57125  1  0  0  0
 58126  1  0  0  0
 59 60  1  0  0  0
 59 61  1  0  0  0
 59 62  1  0  0  0
 60127  1  0  0  0
 60128  1  0  0  0
 60129  1  0  0  0
 61130  1  0  0  0
 61131  1  0  0  0
 61132  1  0  0  0
 62133  1  0  0  0
 62134  1  0  0  0
 62135  1  0  0  0
 63 65  1  0  0  0
 63136  1  0  0  0
 63137  1  0  0  0
 63138  1  0  0  0
 64139  1  0  0  0
 65140  1  0  0  0
 68 77  1  0  0  0
 71 72  2  0  0  0
 71 79  1  0  0  0
 71141  1  0  0  0
 72 76  1  0  0  0
 72 80  1  0  0  0
 73 78  1  0  0  0
 73 79  1  0  0  0
 73 80  2  0  0  0
 74142  1  0  0  0
 74143  1  0  0  0
 74144  1  0  0  0
 74 78  1  0  0  0
 75 79  1  0  0  0
 75145  1  0  0  0
 75146  1  0  0  0
 75147  1  0  0  0
 76 77  1  0  0  0
 76148  1  0  0  0
 76149  1  0  0  0
 77150  1  0  0  0
 77151  1  0  0  0
 78 81  1  0  0  0
 78152  1  0  0  0
 80153  1  0  0  0
 81154  1  0  0  0
M  CHG  1  80   1
M  ISO  4   1 100  68 101  77 101  81 100
M  END
> <chiral flag>
0

> <version>
0

> <s_m_source_file>
/data/baiqing/PycharmProjects/Reinvent-master-3.2/result/LINK_invent/BTK/process_docking_weight1_custom_sum_contain_oxygen_bond_distance_aromatic_linkinvent_7_9_3/rearranged_h_0058.sdf

> <i_m_source_file_index>
76

> <r_mmod_Potential_Energy-OPLS-2005>
684.587768554688

> <r_mmod_Stretch_Energy-OPLS-2005>
324.256652832031

> <r_mmod_Bend_Energy-OPLS-2005>
337.710205078125

> <r_mmod_Torsional_Energy-OPLS-2005>
272.311889648438

> <r_mmod_Improper_Torsional_Energy-OPLS-2005>
24.6641330718994

> <r_mmod_Van_der_Waal_Energy-OPLS-2005>
103.974082946777

> <r_mmod_Electrostatic_Energy-OPLS-2005>
-225.412841796875

> <r_mmod_Solvation_Energy-OPLS-2005>
-440.077331542969

> <b_mmod_Minimization_Converged-OPLS-2005>
0

> <r_mmod_RMS_Derivative-OPLS-2005>
8.61754035949707

$$$$
76
                    3D
 Structure written by MMmdl.
163171  0  0  1  0            999 V2000
  -30.7717  -14.3635   20.6715 C   0  0  0  0  0  0
  -30.4137  -12.2873   19.3917 C   0  0  0  0  0  0
  -29.4812  -12.5298   18.1898 C   0  0  0  0  0  0
  -28.0053  -12.3902   18.6070 C   0  0  0  0  0  0
  -27.6663  -13.2057   19.8826 C   0  0  2  0  0  0
  -28.7069  -12.9450   20.9949 C   0  0  0  0  0  0
  -25.2607  -13.8159   20.5686 C   0  0  0  0  0  0
  -24.1851  -13.0437   20.9165 C   0  0  0  0  0  0
  -24.6402  -11.6904   20.8718 C   0  0  0  0  0  0
  -23.9066  -10.4288   21.0391 C   0  0  0  0  0  0
  -24.3608   -9.4213   21.9190 C   0  0  0  0  0  0
  -23.6279   -8.2248   22.0764 C   0  0  0  0  0  0
  -22.4272   -8.0277   21.3538 C   0  0  0  0  0  0
  -21.9915   -9.0245   20.4628 C   0  0  0  0  0  0
  -22.7244  -10.2126   20.3036 C   0  0  0  0  0  0
  -21.6852   -6.0732   22.5279 C   0  0  0  0  0  0
  -21.4012   -6.5639   23.8207 C   0  0  0  0  0  0
  -21.3657   -5.6793   24.9173 C   0  0  0  0  0  0
  -21.6040   -4.3050   24.7221 C   0  0  0  0  0  0
  -21.8825   -3.8142   23.4346 C   0  0  0  0  0  0
  -21.9193   -4.6954   22.3398 C   0  0  0  0  0  0
  -22.7872  -13.5235   21.1806 C   0  0  0  0  0  0
  -22.1662   -4.2143   21.0974 F   0  0  0  0  0  0
  -21.5630   -3.4540   25.7737 F   0  0  0  0  0  0
  -30.0491  -13.2344   20.4552 N   0  0  0  0  0  0
  -26.3053  -12.9329   20.3400 N   0  0  0  0  0  0
  -25.9332  -11.6485   20.5751 N   0  0  0  0  0  0
  -22.0497  -12.8194   22.0327 N   0  0  0  0  0  0
  -25.4338  -15.1876   20.4106 N   0  0  0  0  0  0
  -31.8034  -14.6365   20.0529 O   0  0  0  0  0  0
  -21.6635   -6.8876   21.4234 O   0  0  0  0  0  0
  -22.3572  -14.5553   20.6674 O   0  0  0  0  0  0
  -24.6130  -31.8707   23.2131 C   0  0  0  0  0  0
  -25.9039  -32.4840   23.8415 C   0  0  1  0  0  0
  -27.2397  -27.4786   20.0683 C   0  0  0  0  0  0
  -25.5895  -33.8631   24.2346 N   0  0  0  0  0  0
  -23.3987  -30.4941   21.5516 C   0  0  2  0  0  0
  -24.8460  -28.9636   20.1134 C   0  0  0  0  0  0
  -22.7396  -29.4673   22.4997 C   0  0  0  0  0  0
  -18.0272  -28.1374   22.8474 C   0  0  0  0  0  0
  -24.1488  -36.7301   23.2631 C   0  0  0  0  0  0
  -25.9250  -30.8435   21.3657 C   0  0  0  0  0  0
  -26.0034  -29.4821   20.7099 C   0  0  0  0  0  0
  -27.2022  -28.7400   20.6951 C   0  0  0  0  0  0
  -26.0668  -26.9525   19.4900 C   0  0  0  0  0  0
  -24.8688  -27.6940   19.5062 C   0  0  0  0  0  0
  -23.6060  -29.8269   20.1651 C   0  0  0  0  0  0
  -25.4114  -36.3125   24.0341 C   0  0  1  0  0  0
  -20.5855  -28.3667   23.1319 C   0  0  2  0  0  0
  -20.6757  -26.9399   22.5431 C   0  0  0  0  0  0
  -19.5754  -26.6378   21.5208 C   0  0  0  0  0  0
  -18.1916  -26.7942   22.1576 C   0  0  0  0  0  0
  -19.1516  -28.8833   23.2897 C   0  0  0  0  0  0
  -18.9445  -30.1430   23.8916 C   0  0  0  0  0  0
  -17.6451  -30.6576   24.0557 C   0  0  0  0  0  0
  -25.9035  -34.9483   23.5143 C   0  0  0  0  0  0
  -16.5337  -29.9082   23.6320 C   0  0  0  0  0  0
  -16.7260  -28.6493   23.0344 C   0  0  0  0  0  0
  -26.4465  -31.6610   25.0734 C   0  0  0  0  0  0
  -25.3697  -31.3629   26.1432 C   0  0  0  0  0  0
  -27.0367  -30.3090   24.6094 C   0  0  0  0  0  0
  -27.6003  -32.4345   25.7550 C   0  0  0  0  0  0
  -27.5589  -37.1839   24.8445 C   0  0  0  0  0  0
  -21.4130  -29.3024   22.3718 N   0  0  0  0  0  0
  -26.4289  -37.3814   23.9404 N   0  0  0  0  0  0
  -24.6628  -31.0826   22.1024 N   0  0  0  0  0  0
  -23.4171  -28.8220   23.3045 O   0  0  0  0  0  0
  -28.4066  -26.7599   20.0577 O   0  0  0  0  0  0
  -26.5604  -34.8924   22.4707 O   0  0  0  0  0  0
  -23.5331  -32.1461   23.7542 O   0  0  0  0  0  0
  -27.7008  -22.4342   19.6440 C   0  0  0  0  0  0
  -28.9106  -21.8280   20.0059 C   0  0  0  0  0  0
  -30.0769  -22.5189   19.6352 C   0  0  0  0  0  0
  -28.8233  -24.1696   18.6643 C   0  0  0  0  0  0
  -28.6158  -19.0672   18.8293 C   0  0  0  0  0  0
  -28.9288  -20.5342   20.8241 C   0  0  0  0  0  0
  -28.7625  -25.5016   17.9313 C   0  0  0  0  0  0
  -30.8458  -17.5878   21.1398 C   0  0  0  0  0  0
  -30.9686  -16.3899   22.1072 C   0  0  0  0  0  0
  -29.4072  -18.1083   20.9617 C   0  0  0  0  0  0
  -29.0976  -26.7235   18.8087 C   0  0  0  0  0  0
  -27.6630  -23.5992   18.9741 N   0  0  0  0  0  0
  -30.0240  -23.6780   18.9509 N   0  0  0  0  0  0
  -30.3031  -15.1763   21.6283 N   0  0  0  0  0  0
  -29.3659  -19.3130   20.0866 N   0  3  1  0  0  0
  -31.6304  -21.8750   20.0326 Cl  0  0  0  0  0  0
  -31.4562  -12.3853   19.0830 H   0  0  0  0  0  0
  -30.3082  -11.2638   19.7564 H   0  0  0  0  0  0
  -29.7100  -11.8287   17.3856 H   0  0  0  0  0  0
  -29.6559  -13.5280   17.7852 H   0  0  0  0  0  0
  -27.8045  -11.3312   18.7781 H   0  0  0  0  0  0
  -27.3544  -12.6949   17.7869 H   0  0  0  0  0  0
  -27.7250  -14.2606   19.6143 H   0  0  0  0  0  0
  -28.6670  -11.9018   21.3109 H   0  0  0  0  0  0
  -28.4596  -13.5230   21.8852 H   0  0  0  0  0  0
  -25.2750   -9.5693   22.4771 H   0  0  0  0  0  0
  -23.9978   -7.4651   22.7508 H   0  0  0  0  0  0
  -21.0858   -8.8760   19.8922 H   0  0  0  0  0  0
  -22.3715  -10.9658   19.6129 H   0  0  0  0  0  0
  -21.2007   -7.6148   23.9705 H   0  0  0  0  0  0
  -21.1469   -6.0524   25.9075 H   0  0  0  0  0  0
  -22.0606   -2.7608   23.2848 H   0  0  0  0  0  0
  -22.4079  -11.9804   22.4634 H   0  0  0  0  0  0
  -21.1103  -13.1202   22.2501 H   0  0  0  0  0  0
  -24.6684  -15.8448   20.5136 H   0  0  0  0  0  0
  -26.2908  -15.6219   20.0938 H   0  0  0  0  0  0
  -26.7115  -32.5561   23.1184 H   0  0  0  0  0  0
  -25.0086  -33.9798   25.0522 H   0  0  0  0  0  0
  -22.6859  -31.3105   21.4148 H   0  0  0  0  0  0
  -23.3803  -35.9580   23.3251 H   0  0  0  0  0  0
  -24.3569  -36.8968   22.2057 H   0  0  0  0  0  0
  -23.7184  -37.6453   23.6690 H   0  0  0  0  0  0
  -26.0389  -31.6161   20.6047 H   0  0  0  0  0  0
  -26.8111  -30.8892   21.9871 H   0  0  0  0  0  0
  -28.0982  -29.1353   21.1531 H   0  0  0  0  0  0
  -26.0750  -25.9713   19.0370 H   0  0  0  0  0  0
  -23.9755  -27.2862   19.0527 H   0  0  0  0  0  0
  -23.7109  -30.6026   19.4047 H   0  0  0  0  0  0
  -22.7327  -29.2427   19.8727 H   0  0  0  0  0  0
  -25.1302  -36.1988   25.0838 H   0  0  0  0  0  0
  -20.9933  -28.3255   24.1450 H   0  0  0  0  0  0
  -20.5668  -26.2264   23.3612 H   0  0  0  0  0  0
  -21.6635  -26.7455   22.1240 H   0  0  0  0  0  0
  -19.6909  -25.6298   21.1212 H   0  0  0  0  0  0
  -19.6721  -27.3197   20.6749 H   0  0  0  0  0  0
  -17.4224  -26.6769   21.3925 H   0  0  0  0  0  0
  -18.0239  -26.0051   22.8916 H   0  0  0  0  0  0
  -19.7921  -30.7235   24.2309 H   0  0  0  0  0  0
  -17.5006  -31.6256   24.5154 H   0  0  0  0  0  0
  -15.5335  -30.2992   23.7621 H   0  0  0  0  0  0
  -15.8659  -28.0805   22.7069 H   0  0  0  0  0  0
  -24.5993  -30.6852   25.7721 H   0  0  0  0  0  0
  -24.8731  -32.2731   26.4805 H   0  0  0  0  0  0
  -25.8051  -30.8869   27.0229 H   0  0  0  0  0  0
  -26.2969  -29.6838   24.1084 H   0  0  0  0  0  0
  -27.4119  -29.7316   25.4550 H   0  0  0  0  0  0
  -27.8785  -30.4471   23.9303 H   0  0  0  0  0  0
  -27.2594  -33.3640   26.2123 H   0  0  0  0  0  0
  -28.3852  -32.6906   25.0419 H   0  0  0  0  0  0
  -28.0638  -31.8468   26.5485 H   0  0  0  0  0  0
  -28.2572  -38.0180   24.7560 H   0  0  0  0  0  0
  -28.1138  -36.2708   24.6221 H   0  0  0  0  0  0
  -27.2284  -37.1405   25.8836 H   0  0  0  0  0  0
  -20.9288  -29.8720   21.6924 H   0  0  0  0  0  0
  -26.0185  -38.2884   24.1431 H   0  0  0  0  0  0
  -26.7503  -21.9859   19.8915 H   0  0  0  0  0  0
  -28.6949  -19.9087   18.1408 H   0  0  0  0  0  0
  -27.5582  -18.8915   19.0322 H   0  0  0  0  0  0
  -29.0089  -18.1942   18.3066 H   0  0  0  0  0  0
  -27.9307  -20.3625   21.2326 H   0  0  0  0  0  0
  -29.5731  -20.6863   21.6920 H   0  0  0  0  0  0
  -27.7730  -25.6252   17.4925 H   0  0  0  0  0  0
  -29.4508  -25.4699   17.0882 H   0  0  0  0  0  0
  -31.2693  -17.3226   20.1699 H   0  0  0  0  0  0
  -31.4712  -18.3941   21.5255 H   0  0  0  0  0  0
  -30.5548  -16.6554   23.0813 H   0  0  0  0  0  0
  -32.0249  -16.1727   22.2827 H   0  0  0  0  0  0
  -28.9830  -18.3337   21.9413 H   0  0  0  0  0  0
  -28.7784  -17.3135   20.5555 H   0  0  0  0  0  0
  -28.9395  -27.6431   18.2417 H   0  0  0  0  0  0
  -30.1631  -26.6995   19.0380 H   0  0  0  0  0  0
  -29.4744  -14.8716   22.1172 H   0  0  0  0  0  0
  -30.3258  -19.4658   19.8117 H   0  0  0  0  0  0
  1 25  1  0  0  0
  1 30  2  0  0  0
  1 84  1  0  0  0
  2  3  1  0  0  0
  2 25  1  0  0  0
  2 87  1  0  0  0
  2 88  1  0  0  0
  3  4  1  0  0  0
  3 89  1  0  0  0
  3 90  1  0  0  0
  4  5  1  0  0  0
  4 91  1  0  0  0
  4 92  1  0  0  0
  5  6  1  0  0  0
  5 26  1  0  0  0
  5 93  1  0  0  0
  6 25  1  0  0  0
  6 94  1  0  0  0
  6 95  1  0  0  0
  7  8  2  0  0  0
  7 26  1  0  0  0
  7 29  1  0  0  0
  8  9  1  0  0  0
  8 22  1  0  0  0
  9 10  1  0  0  0
  9 27  2  0  0  0
 10 11  2  0  0  0
 10 15  1  0  0  0
 11 12  1  0  0  0
 11 96  1  0  0  0
 12 13  2  0  0  0
 12 97  1  0  0  0
 13 14  1  0  0  0
 13 31  1  0  0  0
 14 15  2  0  0  0
 14 98  1  0  0  0
 15 99  1  0  0  0
 16 17  2  0  0  0
 16 21  1  0  0  0
 16 31  1  0  0  0
 17 18  1  0  0  0
 17100  1  0  0  0
 18 19  2  0  0  0
 18101  1  0  0  0
 19 20  1  0  0  0
 19 24  1  0  0  0
 20 21  2  0  0  0
 20102  1  0  0  0
 21 23  1  0  0  0
 22 28  1  0  0  0
 22 32  2  0  0  0
 26 27  1  0  0  0
 28103  1  0  0  0
 28104  1  0  0  0
 29105  1  0  0  0
 29106  1  0  0  0
 33 34  1  0  0  0
 33 66  1  0  0  0
 33 70  2  0  0  0
 34 36  1  0  0  0
 34 59  1  0  0  0
 34107  1  0  0  0
 35 44  2  0  0  0
 35 45  1  0  0  0
 35 68  1  0  0  0
 36 56  1  0  0  0
 36108  1  0  0  0
 37 39  1  0  0  0
 37 47  1  0  0  0
 37 66  1  0  0  0
 37109  1  0  0  0
 38 43  2  0  0  0
 38 46  1  0  0  0
 38 47  1  0  0  0
 39 64  1  0  0  0
 39 67  2  0  0  0
 40 52  1  0  0  0
 40 53  2  0  0  0
 40 58  1  0  0  0
 41110  1  0  0  0
 41111  1  0  0  0
 41112  1  0  0  0
 41 48  1  0  0  0
 42 43  1  0  0  0
 42 66  1  0  0  0
 42113  1  0  0  0
 42114  1  0  0  0
 43 44  1  0  0  0
 44115  1  0  0  0
 45 46  2  0  0  0
 45116  1  0  0  0
 46117  1  0  0  0
 47118  1  0  0  0
 47119  1  0  0  0
 48 56  1  0  0  0
 48 65  1  0  0  0
 48120  1  0  0  0
 49 50  1  0  0  0
 49 53  1  0  0  0
 49 64  1  0  0  0
 49121  1  0  0  0
 50 51  1  0  0  0
 50122  1  0  0  0
 50123  1  0  0  0
 51 52  1  0  0  0
 51124  1  0  0  0
 51125  1  0  0  0
 52126  1  0  0  0
 52127  1  0  0  0
 53 54  1  0  0  0
 54 55  2  0  0  0
 54128  1  0  0  0
 55 57  1  0  0  0
 55129  1  0  0  0
 56 69  2  0  0  0
 57 58  2  0  0  0
 57130  1  0  0  0
 58131  1  0  0  0
 59 60  1  0  0  0
 59 61  1  0  0  0
 59 62  1  0  0  0
 60132  1  0  0  0
 60133  1  0  0  0
 60134  1  0  0  0
 61135  1  0  0  0
 61136  1  0  0  0
 61137  1  0  0  0
 62138  1  0  0  0
 62139  1  0  0  0
 62140  1  0  0  0
 63 65  1  0  0  0
 63141  1  0  0  0
 63142  1  0  0  0
 63143  1  0  0  0
 64144  1  0  0  0
 65145  1  0  0  0
 68 81  1  0  0  0
 71 72  2  0  0  0
 71 82  1  0  0  0
 71146  1  0  0  0
 72 73  1  0  0  0
 72 76  1  0  0  0
 73 83  2  0  0  0
 73 86  1  0  0  0
 74 77  1  0  0  0
 74 82  2  0  0  0
 74 83  1  0  0  0
 75147  1  0  0  0
 75148  1  0  0  0
 75149  1  0  0  0
 75 85  1  0  0  0
 76 85  1  0  0  0
 76150  1  0  0  0
 76151  1  0  0  0
 77 81  1  0  0  0
 77152  1  0  0  0
 77153  1  0  0  0
 78 79  1  0  0  0
 78 80  1  0  0  0
 78154  1  0  0  0
 78155  1  0  0  0
 79 84  1  0  0  0
 79156  1  0  0  0
 79157  1  0  0  0
 80 85  1  0  0  0
 80158  1  0  0  0
 80159  1  0  0  0
 81160  1  0  0  0
 81161  1  0  0  0
 84162  1  0  0  0
 85163  1  0  0  0
M  CHG  1  85   1
M  ISO  4   1 100  68 101  81 101  84 100
M  END
> <chiral flag>
0

> <version>
0

> <s_m_source_file>
/data/baiqing/PycharmProjects/Reinvent-master-3.2/result/LINK_invent/BTK/process_docking_weight1_custom_sum_contain_oxygen_bond_distance_aromatic_linkinvent_7_9_3/rearranged_h_0058.sdf

> <i_m_source_file_index>
77

> <r_mmod_Potential_Energy-OPLS-2005>
-608.822692871094

> <r_mmod_Stretch_Energy-OPLS-2005>
32.2367744445801

> <r_mmod_Bend_Energy-OPLS-2005>
95.0995559692383

> <r_mmod_Torsional_Energy-OPLS-2005>
204.230529785156

> <r_mmod_Improper_Torsional_Energy-OPLS-2005>
1.98222136497498

> <r_mmod_Van_der_Waal_Energy-OPLS-2005>
153.107238769531

> <r_mmod_Electrostatic_Energy-OPLS-2005>
-637.335693359375

> <r_mmod_Solvation_Energy-OPLS-2005>
-464.725738525391

> <b_mmod_Minimization_Converged-OPLS-2005>
0

> <r_mmod_RMS_Derivative-OPLS-2005>
2.07938051223755

$$$$
77
                    3D
 Structure written by MMmdl.
158166  0  0  1  0            999 V2000
  -30.4657  -15.1050   20.4087 C   0  0  0  0  0  0
  -30.4487  -12.6994   19.4972 C   0  0  0  0  0  0
  -29.5295  -12.5479   18.2616 C   0  0  0  0  0  0
  -28.0659  -12.3097   18.6834 C   0  0  0  0  0  0
  -27.6192  -13.2566   19.8260 C   0  0  2  0  0  0
  -28.6623  -13.3428   20.9570 C   0  0  0  0  0  0
  -25.2434  -13.8215   20.5738 C   0  0  0  0  0  0
  -24.1768  -13.0429   20.9249 C   0  0  0  0  0  0
  -24.6391  -11.6917   20.8745 C   0  0  0  0  0  0
  -23.9068  -10.4289   21.0397 C   0  0  0  0  0  0
  -24.3612   -9.4208   21.9182 C   0  0  0  0  0  0
  -23.6288   -8.2242   22.0753 C   0  0  0  0  0  0
  -22.4270   -8.0274   21.3537 C   0  0  0  0  0  0
  -21.9905   -9.0252   20.4642 C   0  0  0  0  0  0
  -22.7233  -10.2134   20.3054 C   0  0  0  0  0  0
  -21.6858   -6.0727   22.5278 C   0  0  0  0  0  0
  -21.4019   -6.5632   23.8209 C   0  0  0  0  0  0
  -21.3661   -5.6787   24.9172 C   0  0  0  0  0  0
  -21.6042   -4.3049   24.7227 C   0  0  0  0  0  0
  -21.8818   -3.8134   23.4348 C   0  0  0  0  0  0
  -21.9198   -4.6951   22.3398 C   0  0  0  0  0  0
  -22.7784  -13.5192   21.1899 C   0  0  0  0  0  0
  -22.1667   -4.2135   21.0973 F   0  0  0  0  0  0
  -21.5630   -3.4532   25.7742 F   0  0  0  0  0  0
  -29.9099  -13.8148   20.3379 N   0  0  0  0  0  0
  -26.2844  -12.9452   20.3204 N   0  0  0  0  0  0
  -25.9315  -11.6571   20.5692 N   0  0  0  0  0  0
  -22.0434  -12.8190   22.0459 N   0  0  0  0  0  0
  -25.4081  -15.1962   20.4200 N   0  0  0  0  0  0
  -31.6910  -15.1649   20.2481 O   0  0  0  0  0  0
  -21.6639   -6.8871   21.4238 O   0  0  0  0  0  0
  -22.3453  -14.5493   20.6736 O   0  0  0  0  0  0
  -24.6524  -31.8346   23.1795 C   0  0  0  0  0  0
  -25.9253  -32.4642   23.8226 C   0  0  1  0  0  0
  -27.2122  -27.0246   20.1914 C   0  0  0  0  0  0
  -25.5973  -33.8456   24.2132 N   0  0  0  0  0  0
  -23.4625  -30.4494   21.5283 C   0  0  2  0  0  0
  -24.9125  -28.8483   20.1260 C   0  0  0  0  0  0
  -22.7616  -29.4499   22.4838 C   0  0  0  0  0  0
  -18.0313  -28.1399   22.8467 C   0  0  0  0  0  0
  -24.1494  -36.7229   23.2643 C   0  0  0  0  0  0
  -26.0256  -30.6704   21.3984 C   0  0  0  0  0  0
  -26.0939  -29.2660   20.7532 C   0  0  0  0  0  0
  -27.2466  -28.3748   20.7615 C   0  0  0  0  0  0
  -26.0044  -26.7306   19.5246 C   0  0  0  0  0  0
  -24.8849  -27.5951   19.4954 C   0  0  0  0  0  0
  -23.6971  -29.7676   20.1542 C   0  0  0  0  0  0
  -25.4132  -36.3001   24.0302 C   0  0  1  0  0  0
  -20.5931  -28.3733   23.1213 C   0  0  2  0  0  0
  -20.6801  -26.9426   22.5400 C   0  0  0  0  0  0
  -19.5776  -26.6375   21.5213 C   0  0  0  0  0  0
  -18.1952  -26.7932   22.1619 C   0  0  0  0  0  0
  -19.1571  -28.8886   23.2826 C   0  0  0  0  0  0
  -18.9486  -30.1478   23.8853 C   0  0  0  0  0  0
  -17.6486  -30.6592   24.0556 C   0  0  0  0  0  0
  -25.9089  -34.9380   23.5027 C   0  0  0  0  0  0
  -16.5374  -29.9084   23.6342 C   0  0  0  0  0  0
  -16.7298  -28.6504   23.0357 C   0  0  0  0  0  0
  -26.4542  -31.6547   25.0708 C   0  0  0  0  0  0
  -25.3693  -31.3787   26.1382 C   0  0  0  0  0  0
  -27.0415  -30.2917   24.6374 C   0  0  0  0  0  0
  -27.6046  -32.4344   25.7508 C   0  0  0  0  0  0
  -27.5576  -37.1770   24.8463 C   0  0  0  0  0  0
  -21.4299  -29.3043   22.3576 N   0  0  0  0  0  0
  -26.4287  -37.3726   23.9400 N   0  0  0  0  0  0
  -24.7340  -31.0106   22.0887 N   0  0  0  0  0  0
  -23.4204  -28.8052   23.3038 O   0  0  0  0  0  0
  -28.2545  -25.9975   20.0986 O   0  0  0  0  0  0
  -26.5686  -34.8897   22.4613 O   0  0  0  0  0  0
  -23.5620  -32.1281   23.6943 O   0  0  0  0  0  0
  -27.5072  -22.5116   19.5742 C   0  0  0  0  0  0
  -28.8320  -20.8501   20.0805 C   0  0  0  0  0  0
  -30.9947  -19.6112   19.4456 C   0  0  0  0  0  0
  -28.8869  -18.7433   18.5492 C   0  0  0  0  0  0
  -29.6765  -24.8715   21.6971 C   0  0  0  0  0  0
  -27.2073  -24.6675   21.9564 C   0  0  0  0  0  0
  -29.6482  -17.8846   20.8360 C   0  0  0  0  0  0
  -29.5386  -19.3030   19.8345 C   0  0  0  0  0  0
  -28.3589  -24.6727   20.9312 C   0  0  0  0  0  0
  -27.6530  -21.1676   19.4294 N   0  0  0  0  0  0
  -29.2969  -22.0377   20.6690 N   0  0  0  0  0  0
  -28.4295  -23.1624   20.2988 N   0  0  0  0  0  0
  -29.6298  -16.2917   20.4540 N   0  0  0  0  0  0
  -31.4695  -12.9051   19.1730 H   0  0  0  0  0  0
  -30.4981  -11.7696   20.0656 H   0  0  0  0  0  0
  -29.8751  -11.7293   17.6284 H   0  0  0  0  0  0
  -29.5903  -13.4539   17.6566 H   0  0  0  0  0  0
  -27.9820  -11.2729   19.0113 H   0  0  0  0  0  0
  -27.4025  -12.4122   17.8242 H   0  0  0  0  0  0
  -27.5588  -14.2457   19.3708 H   0  0  0  0  0  0
  -28.7938  -12.3769   21.4473 H   0  0  0  0  0  0
  -28.3331  -14.0416   21.7282 H   0  0  0  0  0  0
  -25.2754   -9.5692   22.4752 H   0  0  0  0  0  0
  -24.0001   -7.4625   22.7468 H   0  0  0  0  0  0
  -21.0845   -8.8759   19.8941 H   0  0  0  0  0  0
  -22.3684  -10.9667   19.6160 H   0  0  0  0  0  0
  -21.2011   -7.6140   23.9711 H   0  0  0  0  0  0
  -21.1489   -6.0516   25.9075 H   0  0  0  0  0  0
  -22.0599   -2.7600   23.2852 H   0  0  0  0  0  0
  -22.4048  -11.9856   22.4857 H   0  0  0  0  0  0
  -21.1040  -13.1206   22.2635 H   0  0  0  0  0  0
  -24.6401  -15.8464   20.5439 H   0  0  0  0  0  0
  -26.2435  -15.6407   20.0641 H   0  0  0  0  0  0
  -26.7312  -32.5217   23.0945 H   0  0  0  0  0  0
  -25.0075  -33.9560   25.0252 H   0  0  0  0  0  0
  -22.7698  -31.2767   21.3634 H   0  0  0  0  0  0
  -23.3769  -35.9550   23.3291 H   0  0  0  0  0  0
  -24.3567  -36.8884   22.2059 H   0  0  0  0  0  0
  -23.7239  -37.6410   23.6702 H   0  0  0  0  0  0
  -26.1940  -31.4117   20.6167 H   0  0  0  0  0  0
  -26.8909  -30.7274   22.0468 H   0  0  0  0  0  0
  -28.1546  -28.7020   21.2477 H   0  0  0  0  0  0
  -25.9135  -25.7749   19.0285 H   0  0  0  0  0  0
  -23.9868  -27.2695   18.9888 H   0  0  0  0  0  0
  -23.8486  -30.5355   19.3958 H   0  0  0  0  0  0
  -22.8093  -29.2175   19.8376 H   0  0  0  0  0  0
  -25.1329  -36.1818   25.0795 H   0  0  0  0  0  0
  -21.0010  -28.3330   24.1345 H   0  0  0  0  0  0
  -20.5702  -26.2342   23.3625 H   0  0  0  0  0  0
  -21.6663  -26.7426   22.1195 H   0  0  0  0  0  0
  -19.6934  -25.6278   21.1262 H   0  0  0  0  0  0
  -19.6717  -27.3170   20.6729 H   0  0  0  0  0  0
  -17.4218  -26.6672   21.4021 H   0  0  0  0  0  0
  -18.0350  -26.0091   22.9033 H   0  0  0  0  0  0
  -19.7962  -30.7303   24.2204 H   0  0  0  0  0  0
  -17.5037  -31.6271   24.5164 H   0  0  0  0  0  0
  -15.5371  -30.2972   23.7694 H   0  0  0  0  0  0
  -15.8696  -28.0813   22.7094 H   0  0  0  0  0  0
  -24.5864  -30.7149   25.7698 H   0  0  0  0  0  0
  -24.8899  -32.2991   26.4725 H   0  0  0  0  0  0
  -25.7940  -30.9001   27.0213 H   0  0  0  0  0  0
  -26.3050  -29.6623   24.1360 H   0  0  0  0  0  0
  -27.3948  -29.7250   25.4999 H   0  0  0  0  0  0
  -27.9002  -30.4111   23.9764 H   0  0  0  0  0  0
  -27.2608  -33.3673   26.1997 H   0  0  0  0  0  0
  -28.3910  -32.6862   25.0377 H   0  0  0  0  0  0
  -28.0658  -31.8527   26.5504 H   0  0  0  0  0  0
  -28.2579  -38.0081   24.7512 H   0  0  0  0  0  0
  -28.1089  -36.2602   24.6299 H   0  0  0  0  0  0
  -27.2285  -37.1424   25.8866 H   0  0  0  0  0  0
  -20.9531  -29.8738   21.6724 H   0  0  0  0  0  0
  -26.0147  -38.2787   24.1422 H   0  0  0  0  0  0
  -26.6407  -23.0348   19.1935 H   0  0  0  0  0  0
  -31.0454  -20.3274   18.6246 H   0  0  0  0  0  0
  -31.5349  -18.7147   19.1413 H   0  0  0  0  0  0
  -31.5312  -20.0484   20.2876 H   0  0  0  0  0  0
  -28.9213  -19.4626   17.7300 H   0  0  0  0  0  0
  -27.8399  -18.4927   18.7209 H   0  0  0  0  0  0
  -29.3845  -17.8401   18.1976 H   0  0  0  0  0  0
  -29.8119  -24.0862   22.4420 H   0  0  0  0  0  0
  -29.6766  -25.8358   22.2051 H   0  0  0  0  0  0
  -30.5134  -24.8434   20.9993 H   0  0  0  0  0  0
  -26.2479  -24.5749   21.4478 H   0  0  0  0  0  0
  -27.2112  -25.5846   22.5456 H   0  0  0  0  0  0
  -27.3183  -23.8228   22.6382 H   0  0  0  0  0  0
  -28.7818  -17.9704   21.4933 H   0  0  0  0  0  0
  -30.4884  -18.0279   21.5158 H   0  0  0  0  0  0
  -28.6705  -15.9878   20.3825 H   0  0  0  0  0  0
  1 25  1  0  0  0
  1 30  2  0  0  0
  1 83  1  0  0  0
  2  3  1  0  0  0
  2 25  1  0  0  0
  2 84  1  0  0  0
  2 85  1  0  0  0
  3  4  1  0  0  0
  3 86  1  0  0  0
  3 87  1  0  0  0
  4  5  1  0  0  0
  4 88  1  0  0  0
  4 89  1  0  0  0
  5  6  1  0  0  0
  5 26  1  0  0  0
  5 90  1  0  0  0
  6 25  1  0  0  0
  6 91  1  0  0  0
  6 92  1  0  0  0
  7  8  2  0  0  0
  7 26  1  0  0  0
  7 29  1  0  0  0
  8  9  1  0  0  0
  8 22  1  0  0  0
  9 10  1  0  0  0
  9 27  2  0  0  0
 10 11  2  0  0  0
 10 15  1  0  0  0
 11 12  1  0  0  0
 11 93  1  0  0  0
 12 13  2  0  0  0
 12 94  1  0  0  0
 13 14  1  0  0  0
 13 31  1  0  0  0
 14 15  2  0  0  0
 14 95  1  0  0  0
 15 96  1  0  0  0
 16 17  2  0  0  0
 16 21  1  0  0  0
 16 31  1  0  0  0
 17 18  1  0  0  0
 17 97  1  0  0  0
 18 19  2  0  0  0
 18 98  1  0  0  0
 19 20  1  0  0  0
 19 24  1  0  0  0
 20 21  2  0  0  0
 20 99  1  0  0  0
 21 23  1  0  0  0
 22 28  1  0  0  0
 22 32  2  0  0  0
 26 27  1  0  0  0
 28100  1  0  0  0
 28101  1  0  0  0
 29102  1  0  0  0
 29103  1  0  0  0
 33 34  1  0  0  0
 33 66  1  0  0  0
 33 70  2  0  0  0
 34 36  1  0  0  0
 34 59  1  0  0  0
 34104  1  0  0  0
 35 44  2  0  0  0
 35 45  1  0  0  0
 35 68  1  0  0  0
 36 56  1  0  0  0
 36105  1  0  0  0
 37 39  1  0  0  0
 37 47  1  0  0  0
 37 66  1  0  0  0
 37106  1  0  0  0
 38 43  2  0  0  0
 38 46  1  0  0  0
 38 47  1  0  0  0
 39 64  1  0  0  0
 39 67  2  0  0  0
 40 52  1  0  0  0
 40 53  2  0  0  0
 40 58  1  0  0  0
 41107  1  0  0  0
 41108  1  0  0  0
 41109  1  0  0  0
 41 48  1  0  0  0
 42 43  1  0  0  0
 42 66  1  0  0  0
 42110  1  0  0  0
 42111  1  0  0  0
 43 44  1  0  0  0
 44112  1  0  0  0
 45 46  2  0  0  0
 45113  1  0  0  0
 46114  1  0  0  0
 47115  1  0  0  0
 47116  1  0  0  0
 48 56  1  0  0  0
 48 65  1  0  0  0
 48117  1  0  0  0
 49 50  1  0  0  0
 49 53  1  0  0  0
 49 64  1  0  0  0
 49118  1  0  0  0
 50 51  1  0  0  0
 50119  1  0  0  0
 50120  1  0  0  0
 51 52  1  0  0  0
 51121  1  0  0  0
 51122  1  0  0  0
 52123  1  0  0  0
 52124  1  0  0  0
 53 54  1  0  0  0
 54 55  2  0  0  0
 54125  1  0  0  0
 55 57  1  0  0  0
 55126  1  0  0  0
 56 69  2  0  0  0
 57 58  2  0  0  0
 57127  1  0  0  0
 58128  1  0  0  0
 59 60  1  0  0  0
 59 61  1  0  0  0
 59 62  1  0  0  0
 60129  1  0  0  0
 60130  1  0  0  0
 60131  1  0  0  0
 61132  1  0  0  0
 61133  1  0  0  0
 61134  1  0  0  0
 62135  1  0  0  0
 62136  1  0  0  0
 62137  1  0  0  0
 63 65  1  0  0  0
 63138  1  0  0  0
 63139  1  0  0  0
 63140  1  0  0  0
 64141  1  0  0  0
 65142  1  0  0  0
 68 79  1  0  0  0
 71 80  2  0  0  0
 71 82  1  0  0  0
 71143  1  0  0  0
 72 78  1  0  0  0
 72 80  1  0  0  0
 72 81  2  0  0  0
 73144  1  0  0  0
 73145  1  0  0  0
 73146  1  0  0  0
 73 78  1  0  0  0
 74 78  1  0  0  0
 74147  1  0  0  0
 74148  1  0  0  0
 74149  1  0  0  0
 75150  1  0  0  0
 75151  1  0  0  0
 75152  1  0  0  0
 75 79  1  0  0  0
 76 79  1  0  0  0
 76153  1  0  0  0
 76154  1  0  0  0
 76155  1  0  0  0
 77 78  1  0  0  0
 77 83  1  0  0  0
 77156  1  0  0  0
 77157  1  0  0  0
 79 82  1  0  0  0
 81 82  1  0  0  0
 83158  1  0  0  0
M  ISO  4   1 100  68 101  79 101  83 100
M  END
> <chiral flag>
0

> <version>
0

> <s_m_source_file>
/data/baiqing/PycharmProjects/Reinvent-master-3.2/result/LINK_invent/BTK/process_docking_weight1_custom_sum_contain_oxygen_bond_distance_aromatic_linkinvent_7_9_3/rearranged_h_0058.sdf

> <i_m_source_file_index>
78

> <r_mmod_Potential_Energy-OPLS-2005>
898.244201660156

> <r_mmod_Stretch_Energy-OPLS-2005>
417.637481689453

> <r_mmod_Bend_Energy-OPLS-2005>
408.096160888672

> <r_mmod_Torsional_Energy-OPLS-2005>
281.679595947266

> <r_mmod_Improper_Torsional_Energy-OPLS-2005>
8.75351524353027

> <r_mmod_Van_der_Waal_Energy-OPLS-2005>
107.577613830566

> <r_mmod_Electrostatic_Energy-OPLS-2005>
-414.378723144531

> <r_mmod_Solvation_Energy-OPLS-2005>
-221.307266235352

> <b_mmod_Minimization_Converged-OPLS-2005>
0

> <r_mmod_RMS_Derivative-OPLS-2005>
1.77363514900208

$$$$
78
                    3D
 Structure written by MMmdl.
163171  0  0  1  0            999 V2000
  -30.6792  -14.5624   20.4029 C   0  0  0  0  0  0
  -30.4235  -12.3030   19.4465 C   0  0  0  0  0  0
  -29.5010  -12.3521   18.2096 C   0  0  0  0  0  0
  -28.0098  -12.3056   18.6172 C   0  0  0  0  0  0
  -27.6426  -13.1918   19.8442 C   0  0  2  0  0  0
  -28.6978  -13.0972   20.9669 C   0  0  0  0  0  0
  -25.2573  -13.8093   20.5647 C   0  0  0  0  0  0
  -24.1798  -13.0406   20.9129 C   0  0  0  0  0  0
  -24.6334  -11.6866   20.8720 C   0  0  0  0  0  0
  -23.8973  -10.4280   21.0402 C   0  0  0  0  0  0
  -24.3535   -9.4213   21.9179 C   0  0  0  0  0  0
  -23.6256   -8.2236   22.0752 C   0  0  0  0  0  0
  -22.4257   -8.0235   21.3530 C   0  0  0  0  0  0
  -21.9854   -9.0192   20.4643 C   0  0  0  0  0  0
  -22.7137  -10.2101   20.3070 C   0  0  0  0  0  0
  -21.6864   -6.0685   22.5259 C   0  0  0  0  0  0
  -21.4008   -6.5599   23.8176 C   0  0  0  0  0  0
  -21.3688   -5.6779   24.9163 C   0  0  0  0  0  0
  -21.6067   -4.3041   24.7233 C   0  0  0  0  0  0
  -21.8822   -3.8104   23.4363 C   0  0  0  0  0  0
  -21.9193   -4.6907   22.3408 C   0  0  0  0  0  0
  -22.7844  -13.5239   21.1805 C   0  0  0  0  0  0
  -22.1663   -4.2079   21.0987 F   0  0  0  0  0  0
  -21.5661   -3.4537   25.7768 F   0  0  0  0  0  0
  -30.0091  -13.3738   20.3656 N   0  0  0  0  0  0
  -26.2947  -12.9209   20.3280 N   0  0  0  0  0  0
  -25.9251  -11.6397   20.5765 N   0  0  0  0  0  0
  -22.0519  -12.8220   22.0386 N   0  0  0  0  0  0
  -25.4378  -15.1806   20.4090 N   0  0  0  0  0  0
  -31.8974  -14.6359   20.2337 O   0  0  0  0  0  0
  -21.6659   -6.8807   21.4215 O   0  0  0  0  0  0
  -22.3531  -14.5551   20.6688 O   0  0  0  0  0  0
  -24.6125  -31.8682   23.2081 C   0  0  0  0  0  0
  -25.9020  -32.4830   23.8384 C   0  0  1  0  0  0
  -27.2537  -27.4346   20.1063 C   0  0  0  0  0  0
  -25.5882  -33.8626   24.2316 N   0  0  0  0  0  0
  -23.4032  -30.4896   21.5451 C   0  0  2  0  0  0
  -24.8556  -28.9523   20.1156 C   0  0  0  0  0  0
  -22.7407  -29.4651   22.4940 C   0  0  0  0  0  0
  -18.0279  -28.1402   22.8485 C   0  0  0  0  0  0
  -24.1503  -36.7315   23.2638 C   0  0  0  0  0  0
  -25.9295  -30.8373   21.3595 C   0  0  0  0  0  0
  -26.0105  -29.4689   20.7111 C   0  0  0  0  0  0
  -27.2062  -28.7177   20.7021 C   0  0  0  0  0  0
  -26.0708  -26.9256   19.5176 C   0  0  0  0  0  0
  -24.8802  -27.6800   19.5182 C   0  0  0  0  0  0
  -23.6185  -29.8210   20.1594 C   0  0  0  0  0  0
  -25.4124  -36.3109   24.0333 C   0  0  1  0  0  0
  -20.5867  -28.3673   23.1310 C   0  0  2  0  0  0
  -20.6761  -26.9401   22.5411 C   0  0  0  0  0  0
  -19.5745  -26.6393   21.5203 C   0  0  0  0  0  0
  -18.1926  -26.7950   22.1617 C   0  0  0  0  0  0
  -19.1527  -28.8853   23.2903 C   0  0  0  0  0  0
  -18.9454  -30.1463   23.8913 C   0  0  0  0  0  0
  -17.6451  -30.6594   24.0577 C   0  0  0  0  0  0
  -25.9044  -34.9478   23.5120 C   0  0  0  0  0  0
  -16.5347  -29.9103   23.6319 C   0  0  0  0  0  0
  -16.7268  -28.6531   23.0322 C   0  0  0  0  0  0
  -26.4466  -31.6597   25.0689 C   0  0  0  0  0  0
  -25.3741  -31.3632   26.1422 C   0  0  0  0  0  0
  -27.0290  -30.3062   24.6013 C   0  0  0  0  0  0
  -27.6090  -32.4275   25.7424 C   0  0  0  0  0  0
  -27.5599  -37.1807   24.8464 C   0  0  0  0  0  0
  -21.4131  -29.3035   22.3708 N   0  0  0  0  0  0
  -26.4315  -37.3786   23.9403 N   0  0  0  0  0  0
  -24.6666  -31.0794   22.0969 N   0  0  0  0  0  0
  -23.4176  -28.8202   23.2993 O   0  0  0  0  0  0
  -28.4656  -26.7681   20.1395 O   0  0  0  0  0  0
  -26.5603  -34.8923   22.4681 O   0  0  0  0  0  0
  -23.5322  -32.1426   23.7472 O   0  0  0  0  0  0
  -28.4749  -24.3897   21.8596 C   0  0  0  0  0  0
  -28.5998  -23.2224   22.6277 C   0  0  0  0  0  0
  -28.7284  -24.2889   20.4834 C   0  0  0  0  0  0
  -29.1829  -22.0395   20.7568 C   0  0  0  0  0  0
  -28.3682  -23.2263   24.1246 C   0  0  0  0  0  0
  -29.4354  -15.9487   18.9027 C   0  0  0  0  0  0
  -31.2695  -19.7122   21.5842 C   0  0  0  0  0  0
  -28.6570  -25.4853   19.5215 C   0  0  0  0  0  0
  -29.5573  -20.7074   20.1037 C   0  0  0  0  0  0
  -30.3289  -16.9774   20.9371 C   0  0  0  0  0  0
  -29.5297  -18.2643   20.4848 C   0  0  0  0  0  0
  -28.9469  -22.0441   22.0683 N   0  0  0  0  0  0
  -29.0878  -23.0999   19.9522 N   0  0  0  0  0  0
  -29.9219  -15.6956   20.2725 N   0  0  0  0  0  0
  -29.8869  -19.6055   21.0586 N   0  3  1  0  0  0
  -31.4667  -12.3967   19.1416 H   0  0  0  0  0  0
  -30.3402  -11.3328   19.9387 H   0  0  0  0  0  0
  -29.7148  -11.4983   17.5657 H   0  0  0  0  0  0
  -29.7252  -13.2098   17.5812 H   0  0  0  0  0  0
  -27.7788  -11.2616   18.8337 H   0  0  0  0  0  0
  -27.3826  -12.5714   17.7652 H   0  0  0  0  0  0
  -27.6248  -14.2153   19.4876 H   0  0  0  0  0  0
  -28.6941  -12.1069   21.4249 H   0  0  0  0  0  0
  -28.4729  -13.8069   21.7651 H   0  0  0  0  0  0
  -25.2675   -9.5723   22.4740 H   0  0  0  0  0  0
  -23.9993   -7.4637   22.7453 H   0  0  0  0  0  0
  -21.0805   -8.8650   19.8923 H   0  0  0  0  0  0
  -22.3542  -10.9622   19.6178 H   0  0  0  0  0  0
  -21.1973   -7.6107   23.9639 H   0  0  0  0  0  0
  -21.1532   -6.0538   25.9057 H   0  0  0  0  0  0
  -22.0587   -2.7560   23.2896 H   0  0  0  0  0  0
  -22.4189  -11.9860   22.4687 H   0  0  0  0  0  0
  -21.1137  -13.1188   22.2640 H   0  0  0  0  0  0
  -24.6776  -15.8432   20.5141 H   0  0  0  0  0  0
  -26.3054  -15.6129   20.1211 H   0  0  0  0  0  0
  -26.7077  -32.5561   23.1148 H   0  0  0  0  0  0
  -25.0022  -33.9807   25.0450 H   0  0  0  0  0  0
  -22.6910  -31.3041   21.4005 H   0  0  0  0  0  0
  -23.3771  -35.9643   23.3298 H   0  0  0  0  0  0
  -24.3589  -36.8937   22.2050 H   0  0  0  0  0  0
  -23.7260  -37.6518   23.6662 H   0  0  0  0  0  0
  -26.0370  -31.6049   20.5919 H   0  0  0  0  0  0
  -26.8178  -30.8951   21.9766 H   0  0  0  0  0  0
  -28.1014  -29.1229   21.1532 H   0  0  0  0  0  0
  -26.0335  -25.9491   19.0605 H   0  0  0  0  0  0
  -23.9885  -27.2746   19.0595 H   0  0  0  0  0  0
  -23.7396  -30.5971   19.4033 H   0  0  0  0  0  0
  -22.7435  -29.2462   19.8524 H   0  0  0  0  0  0
  -25.1313  -36.1967   25.0828 H   0  0  0  0  0  0
  -20.9973  -28.3235   24.1427 H   0  0  0  0  0  0
  -20.5637  -26.2276   23.3598 H   0  0  0  0  0  0
  -21.6637  -26.7425   22.1219 H   0  0  0  0  0  0
  -19.6898  -25.6296   21.1250 H   0  0  0  0  0  0
  -19.6714  -27.3193   20.6726 H   0  0  0  0  0  0
  -17.4188  -26.6689   21.4028 H   0  0  0  0  0  0
  -18.0345  -26.0101   22.9022 H   0  0  0  0  0  0
  -19.7920  -30.7289   24.2283 H   0  0  0  0  0  0
  -17.4996  -31.6270   24.5182 H   0  0  0  0  0  0
  -15.5348  -30.3008   23.7630 H   0  0  0  0  0  0
  -15.8673  -28.0873   22.6990 H   0  0  0  0  0  0
  -24.5967  -30.6942   25.7701 H   0  0  0  0  0  0
  -24.8864  -32.2740   26.4898 H   0  0  0  0  0  0
  -25.8100  -30.8764   27.0152 H   0  0  0  0  0  0
  -26.2786  -29.6798   24.1172 H   0  0  0  0  0  0
  -27.4203  -29.7319   25.4415 H   0  0  0  0  0  0
  -27.8560  -30.4406   23.9042 H   0  0  0  0  0  0
  -27.2799  -33.3600   26.2011 H   0  0  0  0  0  0
  -28.3889  -32.6768   25.0218 H   0  0  0  0  0  0
  -28.0764  -31.8364   26.5307 H   0  0  0  0  0  0
  -28.2602  -38.0117   24.7528 H   0  0  0  0  0  0
  -28.1115  -36.2650   24.6285 H   0  0  0  0  0  0
  -27.2307  -37.1437   25.8861 H   0  0  0  0  0  0
  -20.9278  -29.8775   21.6958 H   0  0  0  0  0  0
  -26.0209  -38.2866   24.1406 H   0  0  0  0  0  0
  -28.2018  -25.3364   22.3066 H   0  0  0  0  0  0
  -28.0234  -24.2013   24.4653 H   0  0  0  0  0  0
  -29.2929  -22.9939   24.6529 H   0  0  0  0  0  0
  -27.6188  -22.4876   24.4080 H   0  0  0  0  0  0
  -28.4741  -16.4599   18.9096 H   0  0  0  0  0  0
  -29.2758  -15.0586   18.3101 H   0  0  0  0  0  0
  -30.1561  -16.5405   18.3351 H   0  0  0  0  0  0
  -31.4217  -19.0374   22.4255 H   0  0  0  0  0  0
  -31.4803  -20.7194   21.9455 H   0  0  0  0  0  0
  -32.0070  -19.4789   20.8149 H   0  0  0  0  0  0
  -27.9678  -25.2751   18.7068 H   0  0  0  0  0  0
  -29.6335  -25.5453   19.0392 H   0  0  0  0  0  0
  -30.3883  -20.8562   19.4126 H   0  0  0  0  0  0
  -28.6971  -20.4343   19.4905 H   0  0  0  0  0  0
  -30.2472  -16.8444   22.0159 H   0  0  0  0  0  0
  -31.3889  -17.1333   20.7255 H   0  0  0  0  0  0
  -28.4600  -18.1096   20.6392 H   0  0  0  0  0  0
  -29.6706  -18.3845   19.4119 H   0  0  0  0  0  0
  -29.2713  -19.8200   21.8338 H   0  0  0  0  0  0
  1 25  1  0  0  0
  1 30  2  0  0  0
  1 84  1  0  0  0
  2  3  1  0  0  0
  2 25  1  0  0  0
  2 86  1  0  0  0
  2 87  1  0  0  0
  3  4  1  0  0  0
  3 88  1  0  0  0
  3 89  1  0  0  0
  4  5  1  0  0  0
  4 90  1  0  0  0
  4 91  1  0  0  0
  5  6  1  0  0  0
  5 26  1  0  0  0
  5 92  1  0  0  0
  6 25  1  0  0  0
  6 93  1  0  0  0
  6 94  1  0  0  0
  7  8  2  0  0  0
  7 26  1  0  0  0
  7 29  1  0  0  0
  8  9  1  0  0  0
  8 22  1  0  0  0
  9 10  1  0  0  0
  9 27  2  0  0  0
 10 11  2  0  0  0
 10 15  1  0  0  0
 11 12  1  0  0  0
 11 95  1  0  0  0
 12 13  2  0  0  0
 12 96  1  0  0  0
 13 14  1  0  0  0
 13 31  1  0  0  0
 14 15  2  0  0  0
 14 97  1  0  0  0
 15 98  1  0  0  0
 16 17  2  0  0  0
 16 21  1  0  0  0
 16 31  1  0  0  0
 17 18  1  0  0  0
 17 99  1  0  0  0
 18 19  2  0  0  0
 18100  1  0  0  0
 19 20  1  0  0  0
 19 24  1  0  0  0
 20 21  2  0  0  0
 20101  1  0  0  0
 21 23  1  0  0  0
 22 28  1  0  0  0
 22 32  2  0  0  0
 26 27  1  0  0  0
 28102  1  0  0  0
 28103  1  0  0  0
 29104  1  0  0  0
 29105  1  0  0  0
 33 34  1  0  0  0
 33 66  1  0  0  0
 33 70  2  0  0  0
 34 36  1  0  0  0
 34 59  1  0  0  0
 34106  1  0  0  0
 35 44  2  0  0  0
 35 45  1  0  0  0
 35 68  1  0  0  0
 36 56  1  0  0  0
 36107  1  0  0  0
 37 39  1  0  0  0
 37 47  1  0  0  0
 37 66  1  0  0  0
 37108  1  0  0  0
 38 43  2  0  0  0
 38 46  1  0  0  0
 38 47  1  0  0  0
 39 64  1  0  0  0
 39 67  2  0  0  0
 40 52  1  0  0  0
 40 53  2  0  0  0
 40 58  1  0  0  0
 41109  1  0  0  0
 41110  1  0  0  0
 41111  1  0  0  0
 41 48  1  0  0  0
 42 43  1  0  0  0
 42 66  1  0  0  0
 42112  1  0  0  0
 42113  1  0  0  0
 43 44  1  0  0  0
 44114  1  0  0  0
 45 46  2  0  0  0
 45115  1  0  0  0
 46116  1  0  0  0
 47117  1  0  0  0
 47118  1  0  0  0
 48 56  1  0  0  0
 48 65  1  0  0  0
 48119  1  0  0  0
 49 50  1  0  0  0
 49 53  1  0  0  0
 49 64  1  0  0  0
 49120  1  0  0  0
 50 51  1  0  0  0
 50121  1  0  0  0
 50122  1  0  0  0
 51 52  1  0  0  0
 51123  1  0  0  0
 51124  1  0  0  0
 52125  1  0  0  0
 52126  1  0  0  0
 53 54  1  0  0  0
 54 55  2  0  0  0
 54127  1  0  0  0
 55 57  1  0  0  0
 55128  1  0  0  0
 56 69  2  0  0  0
 57 58  2  0  0  0
 57129  1  0  0  0
 58130  1  0  0  0
 59 60  1  0  0  0
 59 61  1  0  0  0
 59 62  1  0  0  0
 60131  1  0  0  0
 60132  1  0  0  0
 60133  1  0  0  0
 61134  1  0  0  0
 61135  1  0  0  0
 61136  1  0  0  0
 62137  1  0  0  0
 62138  1  0  0  0
 62139  1  0  0  0
 63 65  1  0  0  0
 63140  1  0  0  0
 63141  1  0  0  0
 63142  1  0  0  0
 64143  1  0  0  0
 65144  1  0  0  0
 68 78  1  0  0  0
 71 72  2  0  0  0
 71 73  1  0  0  0
 71145  1  0  0  0
 72 75  1  0  0  0
 72 82  1  0  0  0
 73 78  1  0  0  0
 73 83  2  0  0  0
 74 79  1  0  0  0
 74 82  2  0  0  0
 74 83  1  0  0  0
 75146  1  0  0  0
 75147  1  0  0  0
 75148  1  0  0  0
 76 84  1  0  0  0
 76149  1  0  0  0
 76150  1  0  0  0
 76151  1  0  0  0
 77152  1  0  0  0
 77153  1  0  0  0
 77154  1  0  0  0
 77 85  1  0  0  0
 78155  1  0  0  0
 78156  1  0  0  0
 79 85  1  0  0  0
 79157  1  0  0  0
 79158  1  0  0  0
 80 81  1  0  0  0
 80 84  1  0  0  0
 80159  1  0  0  0
 80160  1  0  0  0
 81 85  1  0  0  0
 81161  1  0  0  0
 81162  1  0  0  0
 85163  1  0  0  0
M  CHG  1  85   1
M  ISO  4   1 100  68 101  78 101  84 100
M  END
> <chiral flag>
0

> <version>
0

> <s_m_source_file>
/data/baiqing/PycharmProjects/Reinvent-master-3.2/result/LINK_invent/BTK/process_docking_weight1_custom_sum_contain_oxygen_bond_distance_aromatic_linkinvent_7_9_3/rearranged_h_0058.sdf

> <i_m_source_file_index>
79

> <r_mmod_Potential_Energy-OPLS-2005>
-425.595489501953

> <r_mmod_Stretch_Energy-OPLS-2005>
46.5271530151367

> <r_mmod_Bend_Energy-OPLS-2005>
135.043991088867

> <r_mmod_Torsional_Energy-OPLS-2005>
311.265808105469

> <r_mmod_Improper_Torsional_Energy-OPLS-2005>
12.8168306350708

> <r_mmod_Van_der_Waal_Energy-OPLS-2005>
180.996124267578

> <r_mmod_Electrostatic_Energy-OPLS-2005>
-717.888244628906

> <r_mmod_Solvation_Energy-OPLS-2005>
-430.827819824219

> <b_mmod_Minimization_Converged-OPLS-2005>
0

> <r_mmod_RMS_Derivative-OPLS-2005>
2.81613874435425

$$$$
79
                    3D
 Structure written by MMmdl.
157165  0  0  1  0            999 V2000
  -30.5671  -14.8993   20.4676 C   0  0  0  0  0  0
  -30.4388  -12.5635   19.4906 C   0  0  0  0  0  0
  -29.5170  -12.5412   18.2484 C   0  0  0  0  0  0
  -28.0455  -12.3393   18.6581 C   0  0  0  0  0  0
  -27.6372  -13.2411   19.8518 C   0  0  2  0  0  0
  -28.6818  -13.1914   20.9846 C   0  0  0  0  0  0
  -25.2490  -13.8203   20.5708 C   0  0  0  0  0  0
  -24.1791  -13.0436   20.9209 C   0  0  0  0  0  0
  -24.6395  -11.6916   20.8749 C   0  0  0  0  0  0
  -23.9073  -10.4291   21.0407 C   0  0  0  0  0  0
  -24.3624   -9.4202   21.9183 C   0  0  0  0  0  0
  -23.6297   -8.2236   22.0754 C   0  0  0  0  0  0
  -22.4277   -8.0275   21.3545 C   0  0  0  0  0  0
  -21.9910   -9.0253   20.4652 C   0  0  0  0  0  0
  -22.7244  -10.2128   20.3059 C   0  0  0  0  0  0
  -21.6851   -6.0731   22.5276 C   0  0  0  0  0  0
  -21.4013   -6.5637   23.8209 C   0  0  0  0  0  0
  -21.3664   -5.6791   24.9172 C   0  0  0  0  0  0
  -21.6044   -4.3053   24.7224 C   0  0  0  0  0  0
  -21.8820   -3.8145   23.4344 C   0  0  0  0  0  0
  -21.9193   -4.6960   22.3400 C   0  0  0  0  0  0
  -22.7814  -13.5217   21.1863 C   0  0  0  0  0  0
  -22.1668   -4.2148   21.0977 F   0  0  0  0  0  0
  -21.5629   -3.4536   25.7736 F   0  0  0  0  0  0
  -29.9581  -13.6417   20.4062 N   0  0  0  0  0  0
  -26.2919  -12.9424   20.3287 N   0  0  0  0  0  0
  -25.9325  -11.6556   20.5745 N   0  0  0  0  0  0
  -22.0465  -12.8217   22.0426 N   0  0  0  0  0  0
  -25.4167  -15.1927   20.4131 N   0  0  0  0  0  0
  -31.7372  -14.9628   20.0700 O   0  0  0  0  0  0
  -21.6639   -6.8873   21.4237 O   0  0  0  0  0  0
  -22.3502  -14.5520   20.6705 O   0  0  0  0  0  0
  -24.6408  -31.8451   23.1886 C   0  0  0  0  0  0
  -25.9195  -32.4698   23.8263 C   0  0  1  0  0  0
  -27.2175  -27.1625   20.1449 C   0  0  0  0  0  0
  -25.5953  -33.8500   24.2186 N   0  0  0  0  0  0
  -23.4426  -30.4656   21.5327 C   0  0  2  0  0  0
  -24.8909  -28.8939   20.1084 C   0  0  0  0  0  0
  -22.7548  -29.4557   22.4851 C   0  0  0  0  0  0
  -18.0307  -28.1397   22.8483 C   0  0  0  0  0  0
  -24.1493  -36.7259   23.2643 C   0  0  0  0  0  0
  -25.9960  -30.7274   21.3827 C   0  0  0  0  0  0
  -26.0672  -29.3413   20.7236 C   0  0  0  0  0  0
  -27.2314  -28.4906   20.7245 C   0  0  0  0  0  0
  -26.0164  -26.8064   19.4941 C   0  0  0  0  0  0
  -24.8766  -27.6391   19.4789 C   0  0  0  0  0  0
  -23.6679  -29.7947   20.1517 C   0  0  0  0  0  0
  -25.4122  -36.3031   24.0318 C   0  0  1  0  0  0
  -20.5915  -28.3720   23.1242 C   0  0  2  0  0  0
  -20.6790  -26.9423   22.5409 C   0  0  0  0  0  0
  -19.5763  -26.6386   21.5215 C   0  0  0  0  0  0
  -18.1944  -26.7939   22.1625 C   0  0  0  0  0  0
  -19.1560  -28.8875   23.2859 C   0  0  0  0  0  0
  -18.9479  -30.1472   23.8883 C   0  0  0  0  0  0
  -17.6474  -30.6595   24.0561 C   0  0  0  0  0  0
  -25.9071  -34.9409   23.5058 C   0  0  0  0  0  0
  -16.5367  -29.9089   23.6334 C   0  0  0  0  0  0
  -16.7290  -28.6506   23.0360 C   0  0  0  0  0  0
  -26.4523  -31.6565   25.0701 C   0  0  0  0  0  0
  -25.3720  -31.3765   26.1409 C   0  0  0  0  0  0
  -27.0381  -30.2960   24.6274 C   0  0  0  0  0  0
  -27.6043  -32.4340   25.7487 C   0  0  0  0  0  0
  -27.5578  -37.1782   24.8460 C   0  0  0  0  0  0
  -21.4244  -29.3051   22.3609 N   0  0  0  0  0  0
  -26.4284  -37.3748   23.9414 N   0  0  0  0  0  0
  -24.7127  -31.0335   22.0904 N   0  0  0  0  0  0
  -23.4202  -28.8110   23.2998 O   0  0  0  0  0  0
  -28.2855  -26.2057   20.2170 O   0  0  0  0  0  0
  -26.5652  -34.8906   22.4635 O   0  0  0  0  0  0
  -23.5538  -32.1316   23.7131 O   0  0  0  0  0  0
  -28.3028  -20.9679   19.9357 C   0  0  0  0  0  0
  -29.2588  -21.9088   20.4322 C   0  0  0  0  0  0
  -30.4099  -21.1814   20.8860 C   0  0  0  0  0  0
  -29.6306  -18.9986   20.3210 C   0  0  0  0  0  0
  -32.6611  -22.2129   20.3347 C   0  0  0  0  0  0
  -29.0403  -16.2635   21.8979 C   0  0  0  0  0  0
  -29.1932  -23.5618   20.5263 C   0  0  0  0  0  0
  -31.6323  -21.9060   21.4321 C   0  0  0  0  0  0
  -30.0506  -17.4589   19.9203 C   0  0  0  0  0  0
  -28.0631  -24.6827   20.0486 C   0  0  0  0  0  0
  -28.4974  -19.5881   19.8703 N   0  0  0  0  0  0
  -30.5739  -19.8124   20.8177 N   0  0  0  0  0  0
  -29.8304  -16.1023   20.6755 N   0  0  0  0  0  0
  -31.4715  -12.7147   19.1742 H   0  0  0  0  0  0
  -30.4318  -11.5954   19.9943 H   0  0  0  0  0  0
  -29.8265  -11.7539   17.5594 H   0  0  0  0  0  0
  -29.6187  -13.4809   17.7042 H   0  0  0  0  0  0
  -27.9199  -11.2910   18.9308 H   0  0  0  0  0  0
  -27.3867  -12.5139   17.8063 H   0  0  0  0  0  0
  -27.6225  -14.2623   19.4690 H   0  0  0  0  0  0
  -28.7710  -12.1783   21.3805 H   0  0  0  0  0  0
  -28.3646  -13.7946   21.8303 H   0  0  0  0  0  0
  -25.2768   -9.5679   22.4761 H   0  0  0  0  0  0
  -24.0007   -7.4629   22.7475 H   0  0  0  0  0  0
  -21.0839   -8.8775   19.8964 H   0  0  0  0  0  0
  -22.3703  -10.9668   19.6172 H   0  0  0  0  0  0
  -21.2005   -7.6145   23.9712 H   0  0  0  0  0  0
  -21.1491   -6.0520   25.9075 H   0  0  0  0  0  0
  -22.0596   -2.7607   23.2842 H   0  0  0  0  0  0
  -22.4098  -11.9891   22.4821 H   0  0  0  0  0  0
  -21.1083  -13.1249   22.2635 H   0  0  0  0  0  0
  -24.6461  -15.8439   20.5197 H   0  0  0  0  0  0
  -26.2656  -15.6340   20.0839 H   0  0  0  0  0  0
  -26.7257  -32.5310   23.0987 H   0  0  0  0  0  0
  -25.0082  -33.9608   25.0322 H   0  0  0  0  0  0
  -22.7452  -31.2913   21.3792 H   0  0  0  0  0  0
  -23.3757  -35.9588   23.3283 H   0  0  0  0  0  0
  -24.3581  -36.8913   22.2062 H   0  0  0  0  0  0
  -23.7246  -37.6450   23.6690 H   0  0  0  0  0  0
  -26.1501  -31.4844   20.6126 H   0  0  0  0  0  0
  -26.8673  -30.7748   22.0247 H   0  0  0  0  0  0
  -28.1284  -28.8268   21.2259 H   0  0  0  0  0  0
  -25.9308  -25.8457   19.0080 H   0  0  0  0  0  0
  -23.9780  -27.2918   18.9878 H   0  0  0  0  0  0
  -23.8035  -30.5687   19.3953 H   0  0  0  0  0  0
  -22.7830  -29.2369   19.8410 H   0  0  0  0  0  0
  -25.1311  -36.1852   25.0810 H   0  0  0  0  0  0
  -21.0016  -28.3313   24.1358 H   0  0  0  0  0  0
  -20.5682  -26.2330   23.3627 H   0  0  0  0  0  0
  -21.6658  -26.7433   22.1205 H   0  0  0  0  0  0
  -19.6919  -25.6291   21.1258 H   0  0  0  0  0  0
  -19.6703  -27.3184   20.6734 H   0  0  0  0  0  0
  -17.4215  -26.6689   21.4029 H   0  0  0  0  0  0
  -18.0339  -26.0084   22.9024 H   0  0  0  0  0  0
  -19.7957  -30.7292   24.2247 H   0  0  0  0  0  0
  -17.5032  -31.6272   24.5170 H   0  0  0  0  0  0
  -15.5367  -30.2990   23.7665 H   0  0  0  0  0  0
  -15.8692  -28.0820   22.7086 H   0  0  0  0  0  0
  -24.5881  -30.7128   25.7747 H   0  0  0  0  0  0
  -24.8934  -32.2957   26.4797 H   0  0  0  0  0  0
  -25.8018  -30.8965   27.0211 H   0  0  0  0  0  0
  -26.2987  -29.6687   24.1281 H   0  0  0  0  0  0
  -27.3995  -29.7259   25.4843 H   0  0  0  0  0  0
  -27.8897  -30.4194   23.9578 H   0  0  0  0  0  0
  -27.2609  -33.3644   26.2024 H   0  0  0  0  0  0
  -28.3872  -32.6907   25.0337 H   0  0  0  0  0  0
  -28.0688  -31.8502   26.5444 H   0  0  0  0  0  0
  -28.2580  -38.0094   24.7520 H   0  0  0  0  0  0
  -28.1092  -36.2626   24.6268 H   0  0  0  0  0  0
  -27.2299  -37.1407   25.8863 H   0  0  0  0  0  0
  -20.9440  -29.8761   21.6797 H   0  0  0  0  0  0
  -26.0149  -38.2813   24.1433 H   0  0  0  0  0  0
  -27.3582  -21.3219   19.5502 H   0  0  0  0  0  0
  -33.5208  -22.7425   20.7448 H   0  0  0  0  0  0
  -32.2294  -22.8351   19.5506 H   0  0  0  0  0  0
  -33.0228  -21.2949   19.8706 H   0  0  0  0  0  0
  -29.3711  -15.5861   22.6870 H   0  0  0  0  0  0
  -27.9839  -16.0822   21.6991 H   0  0  0  0  0  0
  -29.1324  -17.2676   22.3105 H   0  0  0  0  0  0
  -30.1138  -23.8913   20.0454 H   0  0  0  0  0  0
  -29.3435  -23.7760   21.5843 H   0  0  0  0  0  0
  -32.1000  -21.2855   22.1974 H   0  0  0  0  0  0
  -31.3466  -22.8214   21.9470 H   0  0  0  0  0  0
  -31.1203  -17.5092   19.7165 H   0  0  0  0  0  0
  -29.6082  -17.2980   18.9372 H   0  0  0  0  0  0
  -27.1334  -24.4353   20.5625 H   0  0  0  0  0  0
  -27.8678  -24.5126   18.9891 H   0  0  0  0  0  0
  1 25  1  0  0  0
  1 30  2  0  0  0
  1 83  1  0  0  0
  2  3  1  0  0  0
  2 25  1  0  0  0
  2 84  1  0  0  0
  2 85  1  0  0  0
  3  4  1  0  0  0
  3 86  1  0  0  0
  3 87  1  0  0  0
  4  5  1  0  0  0
  4 88  1  0  0  0
  4 89  1  0  0  0
  5  6  1  0  0  0
  5 26  1  0  0  0
  5 90  1  0  0  0
  6 25  1  0  0  0
  6 91  1  0  0  0
  6 92  1  0  0  0
  7  8  2  0  0  0
  7 26  1  0  0  0
  7 29  1  0  0  0
  8  9  1  0  0  0
  8 22  1  0  0  0
  9 10  1  0  0  0
  9 27  2  0  0  0
 10 11  2  0  0  0
 10 15  1  0  0  0
 11 12  1  0  0  0
 11 93  1  0  0  0
 12 13  2  0  0  0
 12 94  1  0  0  0
 13 14  1  0  0  0
 13 31  1  0  0  0
 14 15  2  0  0  0
 14 95  1  0  0  0
 15 96  1  0  0  0
 16 17  2  0  0  0
 16 21  1  0  0  0
 16 31  1  0  0  0
 17 18  1  0  0  0
 17 97  1  0  0  0
 18 19  2  0  0  0
 18 98  1  0  0  0
 19 20  1  0  0  0
 19 24  1  0  0  0
 20 21  2  0  0  0
 20 99  1  0  0  0
 21 23  1  0  0  0
 22 28  1  0  0  0
 22 32  2  0  0  0
 26 27  1  0  0  0
 28100  1  0  0  0
 28101  1  0  0  0
 29102  1  0  0  0
 29103  1  0  0  0
 33 34  1  0  0  0
 33 66  1  0  0  0
 33 70  2  0  0  0
 34 36  1  0  0  0
 34 59  1  0  0  0
 34104  1  0  0  0
 35 44  2  0  0  0
 35 45  1  0  0  0
 35 68  1  0  0  0
 36 56  1  0  0  0
 36105  1  0  0  0
 37 39  1  0  0  0
 37 47  1  0  0  0
 37 66  1  0  0  0
 37106  1  0  0  0
 38 43  2  0  0  0
 38 46  1  0  0  0
 38 47  1  0  0  0
 39 64  1  0  0  0
 39 67  2  0  0  0
 40 52  1  0  0  0
 40 53  2  0  0  0
 40 58  1  0  0  0
 41107  1  0  0  0
 41108  1  0  0  0
 41109  1  0  0  0
 41 48  1  0  0  0
 42 43  1  0  0  0
 42 66  1  0  0  0
 42110  1  0  0  0
 42111  1  0  0  0
 43 44  1  0  0  0
 44112  1  0  0  0
 45 46  2  0  0  0
 45113  1  0  0  0
 46114  1  0  0  0
 47115  1  0  0  0
 47116  1  0  0  0
 48 56  1  0  0  0
 48 65  1  0  0  0
 48117  1  0  0  0
 49 50  1  0  0  0
 49 53  1  0  0  0
 49 64  1  0  0  0
 49118  1  0  0  0
 50 51  1  0  0  0
 50119  1  0  0  0
 50120  1  0  0  0
 51 52  1  0  0  0
 51121  1  0  0  0
 51122  1  0  0  0
 52123  1  0  0  0
 52124  1  0  0  0
 53 54  1  0  0  0
 54 55  2  0  0  0
 54125  1  0  0  0
 55 57  1  0  0  0
 55126  1  0  0  0
 56 69  2  0  0  0
 57 58  2  0  0  0
 57127  1  0  0  0
 58128  1  0  0  0
 59 60  1  0  0  0
 59 61  1  0  0  0
 59 62  1  0  0  0
 60129  1  0  0  0
 60130  1  0  0  0
 60131  1  0  0  0
 61132  1  0  0  0
 61133  1  0  0  0
 61134  1  0  0  0
 62135  1  0  0  0
 62136  1  0  0  0
 62137  1  0  0  0
 63 65  1  0  0  0
 63138  1  0  0  0
 63139  1  0  0  0
 63140  1  0  0  0
 64141  1  0  0  0
 65142  1  0  0  0
 68 80  1  0  0  0
 71 72  2  0  0  0
 71 81  1  0  0  0
 71143  1  0  0  0
 72 73  1  0  0  0
 72 77  1  0  0  0
 73 78  1  0  0  0
 73 82  2  0  0  0
 74 79  1  0  0  0
 74 81  2  0  0  0
 74 82  1  0  0  0
 75 78  1  0  0  0
 75144  1  0  0  0
 75145  1  0  0  0
 75146  1  0  0  0
 76 83  1  0  0  0
 76147  1  0  0  0
 76148  1  0  0  0
 76149  1  0  0  0
 77 80  1  0  0  0
 77150  1  0  0  0
 77151  1  0  0  0
 78152  1  0  0  0
 78153  1  0  0  0
 79 83  1  0  0  0
 79154  1  0  0  0
 79155  1  0  0  0
 80156  1  0  0  0
 80157  1  0  0  0
M  ISO  4   1 100  68 101  80 101  83 100
M  END
> <chiral flag>
0

> <version>
0

> <s_m_source_file>
/data/baiqing/PycharmProjects/Reinvent-master-3.2/result/LINK_invent/BTK/process_docking_weight1_custom_sum_contain_oxygen_bond_distance_aromatic_linkinvent_7_9_3/rearranged_h_0058.sdf

> <i_m_source_file_index>
80

> <r_mmod_Potential_Energy-OPLS-2005>
15.7620458602905

> <r_mmod_Stretch_Energy-OPLS-2005>
211.717254638672

> <r_mmod_Bend_Energy-OPLS-2005>
269.640899658203

> <r_mmod_Torsional_Energy-OPLS-2005>
248.251953125

> <r_mmod_Improper_Torsional_Energy-OPLS-2005>
10.5851078033447

> <r_mmod_Van_der_Waal_Energy-OPLS-2005>
142.90446472168

> <r_mmod_Electrostatic_Energy-OPLS-2005>
-801.361022949219

> <r_mmod_Solvation_Energy-OPLS-2005>
-222.064819335938

> <b_mmod_Minimization_Converged-OPLS-2005>
0

> <r_mmod_RMS_Derivative-OPLS-2005>
1.05856120586395

$$$$
80
                    3D
 Structure written by MMmdl.
166174  0  0  1  0            999 V2000
  -30.6923  -14.7411   20.5327 C   0  0  0  0  0  0
  -30.4094  -12.4608   19.4993 C   0  0  0  0  0  0
  -29.5053  -12.5370   18.2498 C   0  0  0  0  0  0
  -28.0312  -12.3449   18.6504 C   0  0  0  0  0  0
  -27.6345  -13.2399   19.8557 C   0  0  2  0  0  0
  -28.6811  -13.1895   20.9985 C   0  0  0  0  0  0
  -25.2161  -13.7933   20.5313 C   0  0  0  0  0  0
  -24.1648  -13.0218   20.9245 C   0  0  0  0  0  0
  -24.6395  -11.6785   20.8888 C   0  0  0  0  0  0
  -23.9100  -10.4190   21.0486 C   0  0  0  0  0  0
  -24.3642   -9.4097   21.9231 C   0  0  0  0  0  0
  -23.6311   -8.2134   22.0747 C   0  0  0  0  0  0
  -22.4288   -8.0219   21.3539 C   0  0  0  0  0  0
  -21.9956   -9.0197   20.4638 C   0  0  0  0  0  0
  -22.7298  -10.2062   20.3082 C   0  0  0  0  0  0
  -21.6821   -6.0723   22.5288 C   0  0  0  0  0  0
  -21.3995   -6.5629   23.8232 C   0  0  0  0  0  0
  -21.3649   -5.6783   24.9196 C   0  0  0  0  0  0
  -21.6040   -4.3041   24.7232 C   0  0  0  0  0  0
  -21.8825   -3.8136   23.4358 C   0  0  0  0  0  0
  -21.9187   -4.6963   22.3416 C   0  0  0  0  0  0
  -22.7678  -13.4999   21.1906 C   0  0  0  0  0  0
  -22.1653   -4.2162   21.0986 F   0  0  0  0  0  0
  -21.5650   -3.4511   25.7736 F   0  0  0  0  0  0
  -29.9975  -13.5417   20.4413 N   0  0  0  0  0  0
  -26.2849  -12.9364   20.3309 N   0  0  0  0  0  0
  -25.9372  -11.6502   20.5970 N   0  0  0  0  0  0
  -22.0381  -12.8013   22.0512 N   0  0  0  0  0  0
  -25.3118  -15.1479   20.2820 N   0  0  0  0  0  0
  -31.7874  -14.7939   19.9647 O   0  0  0  0  0  0
  -21.6612   -6.8848   21.4242 O   0  0  0  0  0  0
  -22.3359  -14.5319   20.6785 O   0  0  0  0  0  0
  -24.6257  -31.8571   23.2020 C   0  0  0  0  0  0
  -25.9092  -32.4742   23.8340 C   0  0  1  0  0  0
  -27.2248  -27.3040   20.1371 C   0  0  0  0  0  0
  -25.5936  -33.8554   24.2266 N   0  0  0  0  0  0
  -23.4185  -30.4811   21.5425 C   0  0  2  0  0  0
  -24.8718  -28.9376   20.1048 C   0  0  0  0  0  0
  -22.7472  -29.4606   22.4914 C   0  0  0  0  0  0
  -18.0301  -28.1358   22.8480 C   0  0  0  0  0  0
  -24.1482  -36.7298   23.2637 C   0  0  0  0  0  0
  -25.9613  -30.7789   21.3838 C   0  0  0  0  0  0
  -26.0347  -29.4047   20.7302 C   0  0  0  0  0  0
  -27.2118  -28.5986   20.7455 C   0  0  0  0  0  0
  -26.0668  -26.9259   19.4243 C   0  0  0  0  0  0
  -24.8908  -27.7014   19.4381 C   0  0  0  0  0  0
  -23.6352  -29.8138   20.1574 C   0  0  0  0  0  0
  -25.4119  -36.3088   24.0322 C   0  0  1  0  0  0
  -20.5905  -28.3677   23.1276 C   0  0  2  0  0  0
  -20.6805  -26.9394   22.5410 C   0  0  0  0  0  0
  -19.5771  -26.6349   21.5212 C   0  0  0  0  0  0
  -18.1955  -26.7895   22.1622 C   0  0  0  0  0  0
  -19.1554  -28.8844   23.2867 C   0  0  0  0  0  0
  -18.9462  -30.1453   23.8852 C   0  0  0  0  0  0
  -17.6458  -30.6557   24.0553 C   0  0  0  0  0  0
  -25.9055  -34.9441   23.5096 C   0  0  0  0  0  0
  -16.5355  -29.9043   23.6334 C   0  0  0  0  0  0
  -16.7294  -28.6470   23.0347 C   0  0  0  0  0  0
  -26.4490  -31.6569   25.0713 C   0  0  0  0  0  0
  -25.3718  -31.3696   26.1424 C   0  0  0  0  0  0
  -27.0341  -30.2975   24.6216 C   0  0  0  0  0  0
  -27.6047  -32.4321   25.7467 C   0  0  0  0  0  0
  -27.5581  -37.1811   24.8462 C   0  0  0  0  0  0
  -21.4197  -29.3012   22.3666 N   0  0  0  0  0  0
  -26.4288  -37.3783   23.9413 N   0  0  0  0  0  0
  -24.6854  -31.0583   22.0962 N   0  0  0  0  0  0
  -23.4203  -28.8189   23.3011 O   0  0  0  0  0  0
  -28.3277  -26.4233   20.1555 O   0  0  0  0  0  0
  -26.5619  -34.8907   22.4644 O   0  0  0  0  0  0
  -23.5412  -32.1366   23.7342 O   0  0  0  0  0  0
  -30.3858  -18.6425   20.4623 C   0  0  0  0  0  0
  -29.5840  -19.7373   20.6617 C   0  0  0  0  0  0
  -28.3481  -19.1771   21.1963 C   0  0  0  0  0  0
  -24.9359  -25.4090   22.9700 C   0  0  0  0  0  0
  -29.9451  -15.8251   22.8241 C   0  0  0  0  0  0
  -27.3787  -16.9252   21.2510 C   0  0  0  0  0  0
  -29.8143  -21.2781   20.3063 C   0  0  0  0  0  0
  -26.4281  -25.6164   22.6675 C   0  0  0  0  0  0
  -28.8673  -22.4706   20.8608 C   0  0  0  0  0  0
  -26.9016  -24.7917   21.4471 C   0  0  0  0  0  0
  -28.9694  -23.9870   20.2808 C   0  0  0  0  0  0
  -30.3076  -16.0959   21.3487 C   0  0  2  0  0  0
  -29.7606  -17.4183   20.7719 N   0  0  0  0  0  0
  -28.5023  -17.8284   21.2383 N   0  0  0  0  0  0
  -28.2684  -25.1233   21.0012 N   0  0  0  0  0  0
  -27.3118  -19.7745   21.4926 O   0  0  0  0  0  0
  -31.4582  -12.5210   19.2090 H   0  0  0  0  0  0
  -30.3033  -11.4860   19.9799 H   0  0  0  0  0  0
  -29.8006  -11.7832   17.5196 H   0  0  0  0  0  0
  -29.6333  -13.5058   17.7615 H   0  0  0  0  0  0
  -27.8923  -11.2941   18.9077 H   0  0  0  0  0  0
  -27.3731  -12.5404   17.8017 H   0  0  0  0  0  0
  -27.6186  -14.2607   19.4712 H   0  0  0  0  0  0
  -28.7140  -12.1984   21.4536 H   0  0  0  0  0  0
  -28.3874  -13.8679   21.7919 H   0  0  0  0  0  0
  -25.2781   -9.5579   22.4823 H   0  0  0  0  0  0
  -24.0023   -7.4507   22.7448 H   0  0  0  0  0  0
  -21.0891   -8.8733   19.8944 H   0  0  0  0  0  0
  -22.3773  -10.9616   19.6200 H   0  0  0  0  0  0
  -21.1961   -7.6140   23.9742 H   0  0  0  0  0  0
  -21.1478   -6.0506   25.9103 H   0  0  0  0  0  0
  -22.0626   -2.7608   23.2850 H   0  0  0  0  0  0
  -22.4042  -11.9681   22.4884 H   0  0  0  0  0  0
  -21.1041  -13.1054   22.2829 H   0  0  0  0  0  0
  -24.4644  -15.7044   20.2736 H   0  0  0  0  0  0
  -26.0267  -15.5218   19.6747 H   0  0  0  0  0  0
  -26.7170  -32.5421   23.1095 H   0  0  0  0  0  0
  -25.0140  -33.9716   25.0466 H   0  0  0  0  0  0
  -22.7078  -31.2999   21.3996 H   0  0  0  0  0  0
  -23.3733  -35.9632   23.3290 H   0  0  0  0  0  0
  -24.3586  -36.8917   22.2048 H   0  0  0  0  0  0
  -23.7236  -37.6501   23.6664 H   0  0  0  0  0  0
  -26.1112  -31.5364   20.6143 H   0  0  0  0  0  0
  -26.8363  -30.8182   22.0185 H   0  0  0  0  0  0
  -28.1005  -28.9534   21.2503 H   0  0  0  0  0  0
  -26.0614  -25.9960   18.8769 H   0  0  0  0  0  0
  -24.0114  -27.3537   18.9128 H   0  0  0  0  0  0
  -23.7449  -30.5887   19.3967 H   0  0  0  0  0  0
  -22.7567  -29.2382   19.8613 H   0  0  0  0  0  0
  -25.1310  -36.1917   25.0810 H   0  0  0  0  0  0
  -21.0007  -28.3231   24.1395 H   0  0  0  0  0  0
  -20.5704  -26.2277   23.3615 H   0  0  0  0  0  0
  -21.6683  -26.7411   22.1205 H   0  0  0  0  0  0
  -19.6912  -25.6248   21.1259 H   0  0  0  0  0  0
  -19.6701  -27.3160   20.6733 H   0  0  0  0  0  0
  -17.4243  -26.6661   21.4007 H   0  0  0  0  0  0
  -18.0332  -26.0032   22.9001 H   0  0  0  0  0  0
  -19.7934  -30.7309   24.2152 H   0  0  0  0  0  0
  -17.5001  -31.6233   24.5163 H   0  0  0  0  0  0
  -15.5346  -30.2927   23.7671 H   0  0  0  0  0  0
  -15.8700  -28.0781   22.7053 H   0  0  0  0  0  0
  -24.5921  -30.7005   25.7754 H   0  0  0  0  0  0
  -24.8872  -32.2844   26.4819 H   0  0  0  0  0  0
  -25.8029  -30.8895   27.0208 H   0  0  0  0  0  0
  -26.2912  -29.6694   24.1254 H   0  0  0  0  0  0
  -27.4027  -29.7263   25.4755 H   0  0  0  0  0  0
  -27.8809  -30.4237   23.9457 H   0  0  0  0  0  0
  -27.2644  -33.3634   26.1991 H   0  0  0  0  0  0
  -28.3854  -32.6829   25.0281 H   0  0  0  0  0  0
  -28.0700  -31.8467   26.5401 H   0  0  0  0  0  0
  -28.2608  -38.0105   24.7533 H   0  0  0  0  0  0
  -28.1070  -36.2638   24.6263 H   0  0  0  0  0  0
  -27.2310  -37.1440   25.8868 H   0  0  0  0  0  0
  -20.9358  -29.8724   21.6893 H   0  0  0  0  0  0
  -26.0154  -38.2847   24.1395 H   0  0  0  0  0  0
  -31.3805  -18.6107   20.0362 H   0  0  0  0  0  0
  -24.6452  -25.9462   23.8745 H   0  0  0  0  0  0
  -24.6999  -24.3561   23.1236 H   0  0  0  0  0  0
  -24.3092  -25.7773   22.1551 H   0  0  0  0  0  0
  -30.2197  -16.6711   23.4521 H   0  0  0  0  0  0
  -30.4843  -14.9562   23.2051 H   0  0  0  0  0  0
  -28.8886  -15.6360   22.9857 H   0  0  0  0  0  0
  -26.6441  -17.2811   20.5290 H   0  0  0  0  0  0
  -26.9023  -16.8782   22.2309 H   0  0  0  0  0  0
  -27.6765  -15.9223   20.9686 H   0  0  0  0  0  0
  -29.7830  -21.3305   19.2178 H   0  0  0  0  0  0
  -30.8456  -21.5117   20.5741 H   0  0  0  0  0  0
  -27.0163  -25.3359   23.5421 H   0  0  0  0  0  0
  -26.6006  -26.6820   22.5385 H   0  0  0  0  0  0
  -28.9877  -22.5088   21.9449 H   0  0  0  0  0  0
  -27.8374  -22.1613   20.6902 H   0  0  0  0  0  0
  -26.1846  -24.7889   20.6306 H   0  0  0  0  0  0
  -26.8902  -23.7633   21.7996 H   0  0  0  0  0  0
  -28.6246  -23.9877   19.2459 H   0  0  0  0  0  0
  -30.0249  -24.2610   20.2291 H   0  0  0  0  0  0
  -31.3291  -16.4510   21.5052 H   0  0  0  0  0  0
  1 25  1  0  0  0
  1 30  2  0  0  0
  1 82  1  0  0  0
  2  3  1  0  0  0
  2 25  1  0  0  0
  2 87  1  0  0  0
  2 88  1  0  0  0
  3  4  1  0  0  0
  3 89  1  0  0  0
  3 90  1  0  0  0
  4  5  1  0  0  0
  4 91  1  0  0  0
  4 92  1  0  0  0
  5  6  1  0  0  0
  5 26  1  0  0  0
  5 93  1  0  0  0
  6 25  1  0  0  0
  6 94  1  0  0  0
  6 95  1  0  0  0
  7  8  2  0  0  0
  7 26  1  0  0  0
  7 29  1  0  0  0
  8  9  1  0  0  0
  8 22  1  0  0  0
  9 10  1  0  0  0
  9 27  2  0  0  0
 10 11  2  0  0  0
 10 15  1  0  0  0
 11 12  1  0  0  0
 11 96  1  0  0  0
 12 13  2  0  0  0
 12 97  1  0  0  0
 13 14  1  0  0  0
 13 31  1  0  0  0
 14 15  2  0  0  0
 14 98  1  0  0  0
 15 99  1  0  0  0
 16 17  2  0  0  0
 16 21  1  0  0  0
 16 31  1  0  0  0
 17 18  1  0  0  0
 17100  1  0  0  0
 18 19  2  0  0  0
 18101  1  0  0  0
 19 20  1  0  0  0
 19 24  1  0  0  0
 20 21  2  0  0  0
 20102  1  0  0  0
 21 23  1  0  0  0
 22 28  1  0  0  0
 22 32  2  0  0  0
 26 27  1  0  0  0
 28103  1  0  0  0
 28104  1  0  0  0
 29105  1  0  0  0
 29106  1  0  0  0
 33 34  1  0  0  0
 33 66  1  0  0  0
 33 70  2  0  0  0
 34 36  1  0  0  0
 34 59  1  0  0  0
 34107  1  0  0  0
 35 44  2  0  0  0
 35 45  1  0  0  0
 35 68  1  0  0  0
 36 56  1  0  0  0
 36108  1  0  0  0
 37 39  1  0  0  0
 37 47  1  0  0  0
 37 66  1  0  0  0
 37109  1  0  0  0
 38 43  2  0  0  0
 38 46  1  0  0  0
 38 47  1  0  0  0
 39 64  1  0  0  0
 39 67  2  0  0  0
 40 52  1  0  0  0
 40 53  2  0  0  0
 40 58  1  0  0  0
 41110  1  0  0  0
 41111  1  0  0  0
 41112  1  0  0  0
 41 48  1  0  0  0
 42 43  1  0  0  0
 42 66  1  0  0  0
 42113  1  0  0  0
 42114  1  0  0  0
 43 44  1  0  0  0
 44115  1  0  0  0
 45 46  2  0  0  0
 45116  1  0  0  0
 46117  1  0  0  0
 47118  1  0  0  0
 47119  1  0  0  0
 48 56  1  0  0  0
 48 65  1  0  0  0
 48120  1  0  0  0
 49 50  1  0  0  0
 49 53  1  0  0  0
 49 64  1  0  0  0
 49121  1  0  0  0
 50 51  1  0  0  0
 50122  1  0  0  0
 50123  1  0  0  0
 51 52  1  0  0  0
 51124  1  0  0  0
 51125  1  0  0  0
 52126  1  0  0  0
 52127  1  0  0  0
 53 54  1  0  0  0
 54 55  2  0  0  0
 54128  1  0  0  0
 55 57  1  0  0  0
 55129  1  0  0  0
 56 69  2  0  0  0
 57 58  2  0  0  0
 57130  1  0  0  0
 58131  1  0  0  0
 59 60  1  0  0  0
 59 61  1  0  0  0
 59 62  1  0  0  0
 60132  1  0  0  0
 60133  1  0  0  0
 60134  1  0  0  0
 61135  1  0  0  0
 61136  1  0  0  0
 61137  1  0  0  0
 62138  1  0  0  0
 62139  1  0  0  0
 62140  1  0  0  0
 63 65  1  0  0  0
 63141  1  0  0  0
 63142  1  0  0  0
 63143  1  0  0  0
 64144  1  0  0  0
 65145  1  0  0  0
 68 85  1  0  0  0
 71 72  2  0  0  0
 71 83  1  0  0  0
 71146  1  0  0  0
 72 73  1  0  0  0
 72 77  1  0  0  0
 73 84  1  0  0  0
 73 86  2  0  0  0
 74 78  1  0  0  0
 74147  1  0  0  0
 74148  1  0  0  0
 74149  1  0  0  0
 75150  1  0  0  0
 75151  1  0  0  0
 75152  1  0  0  0
 75 82  1  0  0  0
 76 84  1  0  0  0
 76153  1  0  0  0
 76154  1  0  0  0
 76155  1  0  0  0
 77 79  1  0  0  0
 77156  1  0  0  0
 77157  1  0  0  0
 78 80  1  0  0  0
 78158  1  0  0  0
 78159  1  0  0  0
 79 81  1  0  0  0
 79160  1  0  0  0
 79161  1  0  0  0
 80 85  1  0  0  0
 80162  1  0  0  0
 80163  1  0  0  0
 81 85  1  0  0  0
 81164  1  0  0  0
 81165  1  0  0  0
 82 83  1  0  0  0
 82166  1  0  0  0
 83 84  1  0  0  0
M  ISO  4   1 100  68 101  82 100  85 101
M  END
> <chiral flag>
0

> <version>
0

> <s_m_source_file>
/data/baiqing/PycharmProjects/Reinvent-master-3.2/result/LINK_invent/BTK/process_docking_weight1_custom_sum_contain_oxygen_bond_distance_aromatic_linkinvent_7_9_3/rearranged_h_0058.sdf

> <i_m_source_file_index>
81

> <r_mmod_Potential_Energy-OPLS-2005>
374.113677978516

> <r_mmod_Stretch_Energy-OPLS-2005>
136.098831176758

> <r_mmod_Bend_Energy-OPLS-2005>
315.640411376953

> <r_mmod_Torsional_Energy-OPLS-2005>
178.994262695312

> <r_mmod_Improper_Torsional_Energy-OPLS-2005>
9.17023086547852

> <r_mmod_Van_der_Waal_Energy-OPLS-2005>
134.744674682617

> <r_mmod_Electrostatic_Energy-OPLS-2005>
-279.797821044922

> <r_mmod_Solvation_Energy-OPLS-2005>
-197.678634643555

> <b_mmod_Minimization_Converged-OPLS-2005>
0

> <r_mmod_RMS_Derivative-OPLS-2005>
4.19924259185791

$$$$
81
                    3D
 Structure written by MMmdl.
157165  0  0  1  0            999 V2000
  -30.6649  -14.6704   20.5459 C   0  0  0  0  0  0
  -30.4281  -12.4253   19.4688 C   0  0  0  0  0  0
  -29.5073  -12.5206   18.2324 C   0  0  0  0  0  0
  -28.0315  -12.3487   18.6390 C   0  0  0  0  0  0
  -27.6484  -13.2258   19.8597 C   0  0  2  0  0  0
  -28.6873  -13.0988   20.9924 C   0  0  0  0  0  0
  -25.2532  -13.8188   20.5693 C   0  0  0  0  0  0
  -24.1808  -13.0438   20.9183 C   0  0  0  0  0  0
  -24.6392  -11.6914   20.8730 C   0  0  0  0  0  0
  -23.9067  -10.4291   21.0400 C   0  0  0  0  0  0
  -24.3618   -9.4208   21.9181 C   0  0  0  0  0  0
  -23.6292   -8.2244   22.0753 C   0  0  0  0  0  0
  -22.4275   -8.0281   21.3543 C   0  0  0  0  0  0
  -21.9909   -9.0254   20.4646 C   0  0  0  0  0  0
  -22.7237  -10.2133   20.3053 C   0  0  0  0  0  0
  -21.6852   -6.0734   22.5279 C   0  0  0  0  0  0
  -21.4014   -6.5639   23.8212 C   0  0  0  0  0  0
  -21.3661   -5.6792   24.9174 C   0  0  0  0  0  0
  -21.6044   -4.3055   24.7225 C   0  0  0  0  0  0
  -21.8819   -3.8146   23.4346 C   0  0  0  0  0  0
  -21.9192   -4.6962   22.3402 C   0  0  0  0  0  0
  -22.7831  -13.5224   21.1853 C   0  0  0  0  0  0
  -22.1660   -4.2147   21.0980 F   0  0  0  0  0  0
  -21.5629   -3.4538   25.7738 F   0  0  0  0  0  0
  -30.0024  -13.4634   20.4395 N   0  0  0  0  0  0
  -26.2961  -12.9386   20.3297 N   0  0  0  0  0  0
  -25.9321  -11.6531   20.5738 N   0  0  0  0  0  0
  -22.0481  -12.8214   22.0415 N   0  0  0  0  0  0
  -25.4245  -15.1911   20.4152 N   0  0  0  0  0  0
  -31.7840  -14.7942   20.0371 O   0  0  0  0  0  0
  -21.6639   -6.8878   21.4242 O   0  0  0  0  0  0
  -22.3511  -14.5529   20.6704 O   0  0  0  0  0  0
  -24.6291  -31.8586   23.2029 C   0  0  0  0  0  0
  -25.9129  -32.4774   23.8356 C   0  0  1  0  0  0
  -27.2163  -27.2870   20.1163 C   0  0  0  0  0  0
  -25.5940  -33.8575   24.2279 N   0  0  0  0  0  0
  -23.4241  -30.4843   21.5453 C   0  0  2  0  0  0
  -24.8699  -28.9412   20.1067 C   0  0  0  0  0  0
  -22.7493  -29.4620   22.4917 C   0  0  0  0  0  0
  -18.0291  -28.1386   22.8485 C   0  0  0  0  0  0
  -24.1488  -36.7290   23.2637 C   0  0  0  0  0  0
  -25.9691  -30.7770   21.3824 C   0  0  0  0  0  0
  -26.0402  -29.4034   20.7215 C   0  0  0  0  0  0
  -27.2139  -28.5863   20.7222 C   0  0  0  0  0  0
  -26.0274  -26.9035   19.4503 C   0  0  0  0  0  0
  -24.8677  -27.6978   19.4612 C   0  0  0  0  0  0
  -23.6404  -29.8250   20.1590 C   0  0  0  0  0  0
  -25.4114  -36.3081   24.0327 C   0  0  1  0  0  0
  -20.5895  -28.3695   23.1273 C   0  0  2  0  0  0
  -20.6780  -26.9416   22.5405 C   0  0  0  0  0  0
  -19.5753  -26.6385   21.5210 C   0  0  0  0  0  0
  -18.1934  -26.7930   22.1624 C   0  0  0  0  0  0
  -19.1545  -28.8857   23.2876 C   0  0  0  0  0  0
  -18.9466  -30.1457   23.8895 C   0  0  0  0  0  0
  -17.6466  -30.6587   24.0564 C   0  0  0  0  0  0
  -25.9055  -34.9449   23.5101 C   0  0  0  0  0  0
  -16.5357  -29.9087   23.6330 C   0  0  0  0  0  0
  -16.7278  -28.6503   23.0352 C   0  0  0  0  0  0
  -26.4498  -31.6592   25.0738 C   0  0  0  0  0  0
  -25.3719  -31.3740   26.1459 C   0  0  0  0  0  0
  -27.0347  -30.3011   24.6219 C   0  0  0  0  0  0
  -27.6056  -32.4332   25.7507 C   0  0  0  0  0  0
  -27.5580  -37.1804   24.8466 C   0  0  0  0  0  0
  -21.4203  -29.3049   22.3666 N   0  0  0  0  0  0
  -26.4292  -37.3777   23.9409 N   0  0  0  0  0  0
  -24.6930  -31.0571   22.0999 N   0  0  0  0  0  0
  -23.4204  -28.8151   23.3001 O   0  0  0  0  0  0
  -28.3106  -26.3962   20.1989 O   0  0  0  0  0  0
  -26.5619  -34.8917   22.4666 O   0  0  0  0  0  0
  -23.5449  -32.1401   23.7337 O   0  0  0  0  0  0
  -29.5926  -19.7642   20.1127 C   0  0  0  0  0  0
  -28.9820  -20.9545   20.6357 C   0  0  0  0  0  0
  -29.5453  -18.5342   20.8543 C   0  0  0  0  0  0
  -28.3793  -19.7051   22.4835 C   0  0  0  0  0  0
  -29.7507  -15.7908   22.4745 C   0  0  0  0  0  0
  -28.7332  -22.2959   19.8390 C   0  0  0  0  0  0
  -30.2161  -17.1679   20.3838 C   0  0  0  0  0  0
  -28.9672  -23.7522   20.4840 C   0  0  0  0  0  0
  -28.1008  -24.9530   19.8641 C   0  0  0  0  0  0
  -27.6511  -19.6433   23.8393 C   0  0  0  0  0  0
  -28.3694  -20.8737   21.8261 N   0  0  0  0  0  0
  -28.9173  -18.5618   22.0394 N   0  0  0  0  0  0
  -30.0016  -15.7891   21.0264 N   0  0  0  0  0  0
  -27.4251  -20.8639   24.3367 F   0  0  0  0  0  0
  -26.4751  -19.0250   23.6989 F   0  0  0  0  0  0
  -28.3780  -18.9643   24.7323 F   0  0  0  0  0  0
  -31.4711  -12.5333   19.1669 H   0  0  0  0  0  0
  -30.3594  -11.4347   19.9210 H   0  0  0  0  0  0
  -29.7821  -11.7640   17.4962 H   0  0  0  0  0  0
  -29.6440  -13.4871   17.7449 H   0  0  0  0  0  0
  -27.8760  -11.2960   18.8786 H   0  0  0  0  0  0
  -27.3767  -12.5677   17.7947 H   0  0  0  0  0  0
  -27.6629  -14.2605   19.5159 H   0  0  0  0  0  0
  -28.7112  -12.0785   21.3780 H   0  0  0  0  0  0
  -28.3899  -13.7198   21.8335 H   0  0  0  0  0  0
  -25.2764   -9.5683   22.4756 H   0  0  0  0  0  0
  -24.0000   -7.4635   22.7473 H   0  0  0  0  0  0
  -21.0840   -8.8773   19.8953 H   0  0  0  0  0  0
  -22.3697  -10.9670   19.6161 H   0  0  0  0  0  0
  -21.2009   -7.6147   23.9715 H   0  0  0  0  0  0
  -21.1483   -6.0523   25.9077 H   0  0  0  0  0  0
  -22.0598   -2.7608   23.2847 H   0  0  0  0  0  0
  -22.4099  -11.9878   22.4804 H   0  0  0  0  0  0
  -21.1100  -13.1238   22.2625 H   0  0  0  0  0  0
  -24.6636  -15.8495   20.5412 H   0  0  0  0  0  0
  -26.2910  -15.6349   20.1380 H   0  0  0  0  0  0
  -26.7194  -32.5432   23.1097 H   0  0  0  0  0  0
  -25.0095  -33.9710   25.0429 H   0  0  0  0  0  0
  -22.7190  -31.3061   21.4038 H   0  0  0  0  0  0
  -23.3750  -35.9624   23.3304 H   0  0  0  0  0  0
  -24.3578  -36.8908   22.2051 H   0  0  0  0  0  0
  -23.7240  -37.6492   23.6658 H   0  0  0  0  0  0
  -26.1076  -31.5403   20.6155 H   0  0  0  0  0  0
  -26.8470  -30.8234   22.0153 H   0  0  0  0  0  0
  -28.1053  -28.9309   21.2271 H   0  0  0  0  0  0
  -25.9534  -25.9684   18.9168 H   0  0  0  0  0  0
  -23.9756  -27.3445   18.9622 H   0  0  0  0  0  0
  -23.7646  -30.6047   19.4066 H   0  0  0  0  0  0
  -22.7590  -29.2593   19.8522 H   0  0  0  0  0  0
  -25.1294  -36.1933   25.0820 H   0  0  0  0  0  0
  -20.9983  -28.3269   24.1395 H   0  0  0  0  0  0
  -20.5684  -26.2303   23.3605 H   0  0  0  0  0  0
  -21.6647  -26.7445   22.1196 H   0  0  0  0  0  0
  -19.6915  -25.6294   21.1243 H   0  0  0  0  0  0
  -19.6690  -27.3192   20.6735 H   0  0  0  0  0  0
  -17.4203  -26.6676   21.4028 H   0  0  0  0  0  0
  -18.0338  -26.0071   22.9019 H   0  0  0  0  0  0
  -19.7942  -30.7274   24.2266 H   0  0  0  0  0  0
  -17.5021  -31.6268   24.5165 H   0  0  0  0  0  0
  -15.5358  -30.2990   23.7654 H   0  0  0  0  0  0
  -15.8678  -28.0823   22.7068 H   0  0  0  0  0  0
  -24.5899  -30.7080   25.7789 H   0  0  0  0  0  0
  -24.8899  -32.2909   26.4866 H   0  0  0  0  0  0
  -25.8036  -30.8934   27.0248 H   0  0  0  0  0  0
  -26.2936  -29.6760   24.1225 H   0  0  0  0  0  0
  -27.4011  -29.7272   25.4741 H   0  0  0  0  0  0
  -27.8821  -30.4286   23.9477 H   0  0  0  0  0  0
  -27.2667  -33.3636   26.2075 H   0  0  0  0  0  0
  -28.3871  -32.6888   25.0337 H   0  0  0  0  0  0
  -28.0722  -31.8464   26.5430 H   0  0  0  0  0  0
  -28.2603  -38.0097   24.7513 H   0  0  0  0  0  0
  -28.1072  -36.2629   24.6296 H   0  0  0  0  0  0
  -27.2299  -37.1460   25.8870 H   0  0  0  0  0  0
  -20.9384  -29.8783   21.6885 H   0  0  0  0  0  0
  -26.0173  -38.2854   24.1406 H   0  0  0  0  0  0
  -30.0592  -19.7839   19.1361 H   0  0  0  0  0  0
  -28.6938  -15.9683   22.6753 H   0  0  0  0  0  0
  -30.3346  -16.5673   22.9691 H   0  0  0  0  0  0
  -30.0236  -14.8542   22.9661 H   0  0  0  0  0  0
  -27.6906  -22.2457   19.5246 H   0  0  0  0  0  0
  -29.3023  -22.2402   18.9109 H   0  0  0  0  0  0
  -31.2901  -17.3592   20.3950 H   0  0  0  0  0  0
  -29.9629  -17.0580   19.3289 H   0  0  0  0  0  0
  -30.0294  -23.9904   20.4363 H   0  0  0  0  0  0
  -28.7265  -23.6973   21.5457 H   0  0  0  0  0  0
  -28.1551  -24.8800   18.7771 H   0  0  0  0  0  0
  -27.0828  -24.6769   20.1371 H   0  0  0  0  0  0
  1 25  1  0  0  0
  1 30  2  0  0  0
  1 83  1  0  0  0
  2  3  1  0  0  0
  2 25  1  0  0  0
  2 87  1  0  0  0
  2 88  1  0  0  0
  3  4  1  0  0  0
  3 89  1  0  0  0
  3 90  1  0  0  0
  4  5  1  0  0  0
  4 91  1  0  0  0
  4 92  1  0  0  0
  5  6  1  0  0  0
  5 26  1  0  0  0
  5 93  1  0  0  0
  6 25  1  0  0  0
  6 94  1  0  0  0
  6 95  1  0  0  0
  7  8  2  0  0  0
  7 26  1  0  0  0
  7 29  1  0  0  0
  8  9  1  0  0  0
  8 22  1  0  0  0
  9 10  1  0  0  0
  9 27  2  0  0  0
 10 11  2  0  0  0
 10 15  1  0  0  0
 11 12  1  0  0  0
 11 96  1  0  0  0
 12 13  2  0  0  0
 12 97  1  0  0  0
 13 14  1  0  0  0
 13 31  1  0  0  0
 14 15  2  0  0  0
 14 98  1  0  0  0
 15 99  1  0  0  0
 16 17  2  0  0  0
 16 21  1  0  0  0
 16 31  1  0  0  0
 17 18  1  0  0  0
 17100  1  0  0  0
 18 19  2  0  0  0
 18101  1  0  0  0
 19 20  1  0  0  0
 19 24  1  0  0  0
 20 21  2  0  0  0
 20102  1  0  0  0
 21 23  1  0  0  0
 22 28  1  0  0  0
 22 32  2  0  0  0
 26 27  1  0  0  0
 28103  1  0  0  0
 28104  1  0  0  0
 29105  1  0  0  0
 29106  1  0  0  0
 33 34  1  0  0  0
 33 66  1  0  0  0
 33 70  2  0  0  0
 34 36  1  0  0  0
 34 59  1  0  0  0
 34107  1  0  0  0
 35 44  2  0  0  0
 35 45  1  0  0  0
 35 68  1  0  0  0
 36 56  1  0  0  0
 36108  1  0  0  0
 37 39  1  0  0  0
 37 47  1  0  0  0
 37 66  1  0  0  0
 37109  1  0  0  0
 38 43  2  0  0  0
 38 46  1  0  0  0
 38 47  1  0  0  0
 39 64  1  0  0  0
 39 67  2  0  0  0
 40 52  1  0  0  0
 40 53  2  0  0  0
 40 58  1  0  0  0
 41110  1  0  0  0
 41111  1  0  0  0
 41112  1  0  0  0
 41 48  1  0  0  0
 42 43  1  0  0  0
 42 66  1  0  0  0
 42113  1  0  0  0
 42114  1  0  0  0
 43 44  1  0  0  0
 44115  1  0  0  0
 45 46  2  0  0  0
 45116  1  0  0  0
 46117  1  0  0  0
 47118  1  0  0  0
 47119  1  0  0  0
 48 56  1  0  0  0
 48 65  1  0  0  0
 48120  1  0  0  0
 49 50  1  0  0  0
 49 53  1  0  0  0
 49 64  1  0  0  0
 49121  1  0  0  0
 50 51  1  0  0  0
 50122  1  0  0  0
 50123  1  0  0  0
 51 52  1  0  0  0
 51124  1  0  0  0
 51125  1  0  0  0
 52126  1  0  0  0
 52127  1  0  0  0
 53 54  1  0  0  0
 54 55  2  0  0  0
 54128  1  0  0  0
 55 57  1  0  0  0
 55129  1  0  0  0
 56 69  2  0  0  0
 57 58  2  0  0  0
 57130  1  0  0  0
 58131  1  0  0  0
 59 60  1  0  0  0
 59 61  1  0  0  0
 59 62  1  0  0  0
 60132  1  0  0  0
 60133  1  0  0  0
 60134  1  0  0  0
 61135  1  0  0  0
 61136  1  0  0  0
 61137  1  0  0  0
 62138  1  0  0  0
 62139  1  0  0  0
 62140  1  0  0  0
 63 65  1  0  0  0
 63141  1  0  0  0
 63142  1  0  0  0
 63143  1  0  0  0
 64144  1  0  0  0
 65145  1  0  0  0
 68 79  1  0  0  0
 71 72  2  0  0  0
 71 73  1  0  0  0
 71146  1  0  0  0
 72 76  1  0  0  0
 72 81  1  0  0  0
 73 77  1  0  0  0
 73 82  2  0  0  0
 74 80  1  0  0  0
 74 81  2  0  0  0
 74 82  1  0  0  0
 75 83  1  0  0  0
 75147  1  0  0  0
 75148  1  0  0  0
 75149  1  0  0  0
 76 78  1  0  0  0
 76150  1  0  0  0
 76151  1  0  0  0
 77 83  1  0  0  0
 77152  1  0  0  0
 77153  1  0  0  0
 78 79  1  0  0  0
 78154  1  0  0  0
 78155  1  0  0  0
 79156  1  0  0  0
 79157  1  0  0  0
 80 84  1  0  0  0
 80 85  1  0  0  0
 80 86  1  0  0  0
M  ISO  4   1 100  68 101  79 101  83 100
M  END
> <chiral flag>
0

> <version>
0

> <s_m_source_file>
/data/baiqing/PycharmProjects/Reinvent-master-3.2/result/LINK_invent/BTK/process_docking_weight1_custom_sum_contain_oxygen_bond_distance_aromatic_linkinvent_7_9_3/rearranged_h_0058.sdf

> <i_m_source_file_index>
82

> <r_mmod_Potential_Energy-OPLS-2005>
-96.5269393920898

> <r_mmod_Stretch_Energy-OPLS-2005>
106.343727111816

> <r_mmod_Bend_Energy-OPLS-2005>
171.851135253906

> <r_mmod_Torsional_Energy-OPLS-2005>
257.69970703125

> <r_mmod_Improper_Torsional_Energy-OPLS-2005>
8.09928703308105

> <r_mmod_Van_der_Waal_Energy-OPLS-2005>
164.448348999023

> <r_mmod_Electrostatic_Energy-OPLS-2005>
-663.603149414062

> <r_mmod_Solvation_Energy-OPLS-2005>
-203.341674804688

> <b_mmod_Minimization_Converged-OPLS-2005>
0

> <r_mmod_RMS_Derivative-OPLS-2005>
0.504231214523315

$$$$
82
                    3D
 Structure written by MMmdl.
157165  0  0  1  0            999 V2000
  -30.5421  -14.9690   20.4636 C   0  0  0  0  0  0
  -30.4379  -12.6032   19.5182 C   0  0  0  0  0  0
  -29.5259  -12.5395   18.2697 C   0  0  0  0  0  0
  -28.0594  -12.3175   18.6817 C   0  0  0  0  0  0
  -27.6308  -13.2478   19.8448 C   0  0  2  0  0  0
  -28.6657  -13.2618   20.9889 C   0  0  0  0  0  0
  -25.2461  -13.8216   20.5729 C   0  0  0  0  0  0
  -24.1780  -13.0449   20.9252 C   0  0  0  0  0  0
  -24.6387  -11.6927   20.8778 C   0  0  0  0  0  0
  -23.9079  -10.4297   21.0440 C   0  0  0  0  0  0
  -24.3625   -9.4203   21.9209 C   0  0  0  0  0  0
  -23.6296   -8.2237   22.0752 C   0  0  0  0  0  0
  -22.4284   -8.0277   21.3532 C   0  0  0  0  0  0
  -21.9931   -9.0258   20.4635 C   0  0  0  0  0  0
  -22.7260  -10.2140   20.3073 C   0  0  0  0  0  0
  -21.6839   -6.0742   22.5284 C   0  0  0  0  0  0
  -21.4002   -6.5647   23.8223 C   0  0  0  0  0  0
  -21.3665   -5.6796   24.9185 C   0  0  0  0  0  0
  -21.6041   -4.3058   24.7231 C   0  0  0  0  0  0
  -21.8821   -3.8153   23.4354 C   0  0  0  0  0  0
  -21.9176   -4.6969   22.3408 C   0  0  0  0  0  0
  -22.7804  -13.5215   21.1889 C   0  0  0  0  0  0
  -22.1652   -4.2163   21.0985 F   0  0  0  0  0  0
  -21.5633   -3.4537   25.7745 F   0  0  0  0  0  0
  -29.9474  -13.6992   20.4128 N   0  0  0  0  0  0
  -26.2880  -12.9439   20.3250 N   0  0  0  0  0  0
  -25.9315  -11.6568   20.5746 N   0  0  0  0  0  0
  -22.0431  -12.8198   22.0425 N   0  0  0  0  0  0
  -25.4130  -15.1946   20.4138 N   0  0  0  0  0  0
  -31.6871  -15.0531   20.0027 O   0  0  0  0  0  0
  -21.6623   -6.8889   21.4247 O   0  0  0  0  0  0
  -22.3507  -14.5530   20.6734 O   0  0  0  0  0  0
  -24.6502  -31.8415   23.1859 C   0  0  0  0  0  0
  -25.9265  -32.4669   23.8266 C   0  0  1  0  0  0
  -27.2150  -27.1074   20.1482 C   0  0  0  0  0  0
  -25.6012  -33.8480   24.2202 N   0  0  0  0  0  0
  -23.4541  -30.4646   21.5283 C   0  0  2  0  0  0
  -24.9018  -28.8874   20.1002 C   0  0  0  0  0  0
  -22.7603  -29.4566   22.4793 C   0  0  0  0  0  0
  -18.0330  -28.1397   22.8480 C   0  0  0  0  0  0
  -24.1511  -36.7264   23.2640 C   0  0  0  0  0  0
  -26.0126  -30.7047   21.3886 C   0  0  0  0  0  0
  -26.0787  -29.3137   20.7284 C   0  0  0  0  0  0
  -27.2316  -28.4389   20.7389 C   0  0  0  0  0  0
  -26.0160  -26.7930   19.4690 C   0  0  0  0  0  0
  -24.8863  -27.6425   19.4536 C   0  0  0  0  0  0
  -23.6823  -29.7977   20.1441 C   0  0  0  0  0  0
  -25.4130  -36.3020   24.0317 C   0  0  1  0  0  0
  -20.5954  -28.3760   23.1198 C   0  0  2  0  0  0
  -20.6825  -26.9454   22.5392 C   0  0  0  0  0  0
  -19.5789  -26.6389   21.5218 C   0  0  0  0  0  0
  -18.1964  -26.7938   22.1615 C   0  0  0  0  0  0
  -19.1588  -28.8889   23.2837 C   0  0  0  0  0  0
  -18.9497  -30.1473   23.8877 C   0  0  0  0  0  0
  -17.6492  -30.6586   24.0567 C   0  0  0  0  0  0
  -25.9088  -34.9393   23.5061 C   0  0  0  0  0  0
  -16.5389  -29.9082   23.6325 C   0  0  0  0  0  0
  -16.7313  -28.6503   23.0351 C   0  0  0  0  0  0
  -26.4575  -31.6527   25.0710 C   0  0  0  0  0  0
  -25.3748  -31.3703   26.1397 C   0  0  0  0  0  0
  -27.0460  -30.2924   24.6288 C   0  0  0  0  0  0
  -27.6104  -32.4296   25.7504 C   0  0  0  0  0  0
  -27.5586  -37.1783   24.8456 C   0  0  0  0  0  0
  -21.4290  -29.3078   22.3550 N   0  0  0  0  0  0
  -26.4287  -37.3737   23.9407 N   0  0  0  0  0  0
  -24.7256  -31.0252   22.0900 N   0  0  0  0  0  0
  -23.4240  -28.8096   23.2940 O   0  0  0  0  0  0
  -28.2628  -26.1099   20.2447 O   0  0  0  0  0  0
  -26.5650  -34.8902   22.4628 O   0  0  0  0  0  0
  -23.5621  -32.1323   23.7060 O   0  0  0  0  0  0
  -27.5827  -18.3146   21.3143 C   0  0  0  0  0  0
  -28.7312  -18.8041   20.7379 C   0  0  0  0  0  0
  -27.1698  -20.4671   21.0273 C   0  0  0  0  0  0
  -26.3067  -21.6921   20.9658 C   0  0  0  0  0  0
  -29.6839  -16.1413   22.3666 C   0  0  0  0  0  0
  -29.8845  -17.6786   20.3901 C   0  0  0  0  0  0
  -28.9056  -23.2395   20.5676 C   0  0  0  0  0  0
  -29.0770  -21.6264   19.9859 C   0  0  0  0  0  0
  -28.0708  -24.5823   19.9281 C   0  0  0  0  0  0
  -28.4446  -20.2769   20.5990 N   0  0  0  0  0  0
  -26.7024  -19.3222   21.5057 N   0  3  0  0  0  0
  -29.8379  -16.1486   20.9000 N   0  0  0  0  0  0
  -31.4735  -12.7552   19.2104 H   0  0  0  0  0  0
  -30.4305  -11.6478   20.0458 H   0  0  0  0  0  0
  -29.8525  -11.7388   17.6045 H   0  0  0  0  0  0
  -29.6144  -13.4656   17.7003 H   0  0  0  0  0  0
  -27.9612  -11.2762   18.9918 H   0  0  0  0  0  0
  -27.3991  -12.4445   17.8235 H   0  0  0  0  0  0
  -27.5973  -14.2526   19.4242 H   0  0  0  0  0  0
  -28.7530  -12.2742   21.4446 H   0  0  0  0  0  0
  -28.3323  -13.9288   21.7816 H   0  0  0  0  0  0
  -25.2768   -9.5660   22.4796 H   0  0  0  0  0  0
  -23.9988   -7.4614   22.7463 H   0  0  0  0  0  0
  -21.0872   -8.8790   19.8921 H   0  0  0  0  0  0
  -22.3737  -10.9690   19.6186 H   0  0  0  0  0  0
  -21.2002   -7.6155   23.9740 H   0  0  0  0  0  0
  -21.1485   -6.0521   25.9088 H   0  0  0  0  0  0
  -22.0596   -2.7614   23.2854 H   0  0  0  0  0  0
  -22.4030  -11.9847   22.4813 H   0  0  0  0  0  0
  -21.1045  -13.1210   22.2618 H   0  0  0  0  0  0
  -24.6167  -15.8218   20.4634 H   0  0  0  0  0  0
  -26.2159  -15.6042   19.9561 H   0  0  0  0  0  0
  -26.7328  -32.5262   23.0998 H   0  0  0  0  0  0
  -25.0229  -33.9598   25.0400 H   0  0  0  0  0  0
  -22.7619  -31.2955   21.3738 H   0  0  0  0  0  0
  -23.3769  -35.9595   23.3253 H   0  0  0  0  0  0
  -24.3632  -36.8955   22.2069 H   0  0  0  0  0  0
  -23.7280  -37.6452   23.6713 H   0  0  0  0  0  0
  -26.1772  -31.4536   20.6125 H   0  0  0  0  0  0
  -26.8818  -30.7544   22.0316 H   0  0  0  0  0  0
  -28.1228  -28.7555   21.2611 H   0  0  0  0  0  0
  -25.9184  -25.8470   18.9581 H   0  0  0  0  0  0
  -23.9922  -27.3184   18.9390 H   0  0  0  0  0  0
  -23.8304  -30.5803   19.3987 H   0  0  0  0  0  0
  -22.7925  -29.2545   19.8202 H   0  0  0  0  0  0
  -25.1311  -36.1852   25.0803 H   0  0  0  0  0  0
  -21.0070  -28.3377   24.1310 H   0  0  0  0  0  0
  -20.5761  -26.2379   23.3632 H   0  0  0  0  0  0
  -21.6685  -26.7474   22.1168 H   0  0  0  0  0  0
  -19.6966  -25.6303   21.1258 H   0  0  0  0  0  0
  -19.6707  -27.3193   20.6748 H   0  0  0  0  0  0
  -17.4251  -26.6730   21.3989 H   0  0  0  0  0  0
  -18.0318  -26.0068   22.8993 H   0  0  0  0  0  0
  -19.7973  -30.7288   24.2251 H   0  0  0  0  0  0
  -17.5044  -31.6253   24.5193 H   0  0  0  0  0  0
  -15.5388  -30.2971   23.7650 H   0  0  0  0  0  0
  -15.8724  -28.0799   22.7073 H   0  0  0  0  0  0
  -24.5971  -30.7000   25.7728 H   0  0  0  0  0  0
  -24.8881  -32.2861   26.4747 H   0  0  0  0  0  0
  -25.8036  -30.8955   27.0229 H   0  0  0  0  0  0
  -26.3076  -29.6586   24.1365 H   0  0  0  0  0  0
  -27.4173  -29.7278   25.4853 H   0  0  0  0  0  0
  -27.8938  -30.4174   23.9549 H   0  0  0  0  0  0
  -27.2717  -33.3643   26.1984 H   0  0  0  0  0  0
  -28.3967  -32.6772   25.0360 H   0  0  0  0  0  0
  -28.0697  -31.8468   26.5501 H   0  0  0  0  0  0
  -28.2543  -38.0133   24.7548 H   0  0  0  0  0  0
  -28.1139  -36.2665   24.6213 H   0  0  0  0  0  0
  -27.2312  -37.1346   25.8857 H   0  0  0  0  0  0
  -20.9518  -29.8817   21.6734 H   0  0  0  0  0  0
  -26.0148  -38.2801   24.1404 H   0  0  0  0  0  0
  -27.3063  -17.3059   21.5794 H   0  0  0  0  0  0
  -26.4330  -22.1707   19.9961 H   0  0  0  0  0  0
  -26.5639  -22.3611   21.7862 H   0  0  0  0  0  0
  -25.2625  -21.3945   21.0605 H   0  0  0  0  0  0
  -30.0909  -17.0475   22.8155 H   0  0  0  0  0  0
  -30.2103  -15.3169   22.8560 H   0  0  0  0  0  0
  -28.6441  -16.0533   22.6714 H   0  0  0  0  0  0
  -30.8425  -18.0897   20.7113 H   0  0  0  0  0  0
  -29.9521  -17.6342   19.3027 H   0  0  0  0  0  0
  -29.9359  -23.5963   20.5734 H   0  0  0  0  0  0
  -28.6740  -23.1802   21.6300 H   0  0  0  0  0  0
  -30.1471  -21.4224   19.9549 H   0  0  0  0  0  0
  -28.7821  -21.6340   18.9367 H   0  0  0  0  0  0
  -27.0213  -24.3723   20.1226 H   0  0  0  0  0  0
  -28.1749  -24.5164   18.8446 H   0  0  0  0  0  0
  -25.7836  -19.2057   21.9177 H   0  0  0  0  0  0
  1 25  1  0  0  0
  1 30  2  0  0  0
  1 82  1  0  0  0
  2  3  1  0  0  0
  2 25  1  0  0  0
  2 83  1  0  0  0
  2 84  1  0  0  0
  3  4  1  0  0  0
  3 85  1  0  0  0
  3 86  1  0  0  0
  4  5  1  0  0  0
  4 87  1  0  0  0
  4 88  1  0  0  0
  5  6  1  0  0  0
  5 26  1  0  0  0
  5 89  1  0  0  0
  6 25  1  0  0  0
  6 90  1  0  0  0
  6 91  1  0  0  0
  7  8  2  0  0  0
  7 26  1  0  0  0
  7 29  1  0  0  0
  8  9  1  0  0  0
  8 22  1  0  0  0
  9 10  1  0  0  0
  9 27  2  0  0  0
 10 11  2  0  0  0
 10 15  1  0  0  0
 11 12  1  0  0  0
 11 92  1  0  0  0
 12 13  2  0  0  0
 12 93  1  0  0  0
 13 14  1  0  0  0
 13 31  1  0  0  0
 14 15  2  0  0  0
 14 94  1  0  0  0
 15 95  1  0  0  0
 16 17  2  0  0  0
 16 21  1  0  0  0
 16 31  1  0  0  0
 17 18  1  0  0  0
 17 96  1  0  0  0
 18 19  2  0  0  0
 18 97  1  0  0  0
 19 20  1  0  0  0
 19 24  1  0  0  0
 20 21  2  0  0  0
 20 98  1  0  0  0
 21 23  1  0  0  0
 22 28  1  0  0  0
 22 32  2  0  0  0
 26 27  1  0  0  0
 28 99  1  0  0  0
 28100  1  0  0  0
 29101  1  0  0  0
 29102  1  0  0  0
 33 34  1  0  0  0
 33 66  1  0  0  0
 33 70  2  0  0  0
 34 36  1  0  0  0
 34 59  1  0  0  0
 34103  1  0  0  0
 35 44  2  0  0  0
 35 45  1  0  0  0
 35 68  1  0  0  0
 36 56  1  0  0  0
 36104  1  0  0  0
 37 39  1  0  0  0
 37 47  1  0  0  0
 37 66  1  0  0  0
 37105  1  0  0  0
 38 43  2  0  0  0
 38 46  1  0  0  0
 38 47  1  0  0  0
 39 64  1  0  0  0
 39 67  2  0  0  0
 40 52  1  0  0  0
 40 53  2  0  0  0
 40 58  1  0  0  0
 41106  1  0  0  0
 41107  1  0  0  0
 41108  1  0  0  0
 41 48  1  0  0  0
 42 43  1  0  0  0
 42 66  1  0  0  0
 42109  1  0  0  0
 42110  1  0  0  0
 43 44  1  0  0  0
 44111  1  0  0  0
 45 46  2  0  0  0
 45112  1  0  0  0
 46113  1  0  0  0
 47114  1  0  0  0
 47115  1  0  0  0
 48 56  1  0  0  0
 48 65  1  0  0  0
 48116  1  0  0  0
 49 50  1  0  0  0
 49 53  1  0  0  0
 49 64  1  0  0  0
 49117  1  0  0  0
 50 51  1  0  0  0
 50118  1  0  0  0
 50119  1  0  0  0
 51 52  1  0  0  0
 51120  1  0  0  0
 51121  1  0  0  0
 52122  1  0  0  0
 52123  1  0  0  0
 53 54  1  0  0  0
 54 55  2  0  0  0
 54124  1  0  0  0
 55 57  1  0  0  0
 55125  1  0  0  0
 56 69  2  0  0  0
 57 58  2  0  0  0
 57126  1  0  0  0
 58127  1  0  0  0
 59 60  1  0  0  0
 59 61  1  0  0  0
 59 62  1  0  0  0
 60128  1  0  0  0
 60129  1  0  0  0
 60130  1  0  0  0
 61131  1  0  0  0
 61132  1  0  0  0
 61133  1  0  0  0
 62134  1  0  0  0
 62135  1  0  0  0
 62136  1  0  0  0
 63 65  1  0  0  0
 63137  1  0  0  0
 63138  1  0  0  0
 63139  1  0  0  0
 64140  1  0  0  0
 65141  1  0  0  0
 68 79  1  0  0  0
 71 72  2  0  0  0
 71 81  1  0  0  0
 71142  1  0  0  0
 72 76  1  0  0  0
 72 80  1  0  0  0
 73 74  1  0  0  0
 73 80  1  0  0  0
 73 81  2  0  0  0
 74143  1  0  0  0
 74144  1  0  0  0
 74145  1  0  0  0
 75 82  1  0  0  0
 75146  1  0  0  0
 75147  1  0  0  0
 75148  1  0  0  0
 76 82  1  0  0  0
 76149  1  0  0  0
 76150  1  0  0  0
 77 78  1  0  0  0
 77 79  1  0  0  0
 77151  1  0  0  0
 77152  1  0  0  0
 78 80  1  0  0  0
 78153  1  0  0  0
 78154  1  0  0  0
 79155  1  0  0  0
 79156  1  0  0  0
 81157  1  0  0  0
M  CHG  1  81   1
M  ISO  4   1 100  68 101  79 101  82 100
M  END
> <chiral flag>
0

> <version>
0

> <s_m_source_file>
/data/baiqing/PycharmProjects/Reinvent-master-3.2/result/LINK_invent/BTK/process_docking_weight1_custom_sum_contain_oxygen_bond_distance_aromatic_linkinvent_7_9_3/rearranged_h_0058.sdf

> <i_m_source_file_index>
83

> <r_mmod_Potential_Energy-OPLS-2005>
714.074035644531

> <r_mmod_Stretch_Energy-OPLS-2005>
344.074279785156

> <r_mmod_Bend_Energy-OPLS-2005>
341.299743652344

> <r_mmod_Torsional_Energy-OPLS-2005>
278.219360351562

> <r_mmod_Improper_Torsional_Energy-OPLS-2005>
7.7295184135437

> <r_mmod_Van_der_Waal_Energy-OPLS-2005>
122.564743041992

> <r_mmod_Electrostatic_Energy-OPLS-2005>
-168.521179199219

> <r_mmod_Solvation_Energy-OPLS-2005>
-422.076324462891

> <b_mmod_Minimization_Converged-OPLS-2005>
0

> <r_mmod_RMS_Derivative-OPLS-2005>
2.27803063392639

$$$$
83
                    3D
 Structure written by MMmdl.
154162  0  0  1  0            999 V2000
  -30.5121  -15.0894   20.4589 C   0  0  0  0  0  0
  -30.4502  -12.7058   19.4907 C   0  0  0  0  0  0
  -29.5243  -12.5580   18.2571 C   0  0  0  0  0  0
  -28.0673  -12.2891   18.6818 C   0  0  0  0  0  0
  -27.6226  -13.2292   19.8260 C   0  0  2  0  0  0
  -28.6740  -13.2754   20.9596 C   0  0  0  0  0  0
  -25.2345  -13.8099   20.5586 C   0  0  0  0  0  0
  -24.1719  -13.0343   20.9229 C   0  0  0  0  0  0
  -24.6365  -11.6850   20.8780 C   0  0  0  0  0  0
  -23.9058  -10.4241   21.0427 C   0  0  0  0  0  0
  -24.3612   -9.4163   21.9202 C   0  0  0  0  0  0
  -23.6281   -8.2205   22.0762 C   0  0  0  0  0  0
  -22.4265   -8.0255   21.3546 C   0  0  0  0  0  0
  -21.9902   -9.0228   20.4649 C   0  0  0  0  0  0
  -22.7237  -10.2099   20.3064 C   0  0  0  0  0  0
  -21.6842   -6.0723   22.5281 C   0  0  0  0  0  0
  -21.4006   -6.5630   23.8214 C   0  0  0  0  0  0
  -21.3657   -5.6785   24.9177 C   0  0  0  0  0  0
  -21.6045   -4.3048   24.7229 C   0  0  0  0  0  0
  -21.8819   -3.8139   23.4350 C   0  0  0  0  0  0
  -21.9189   -4.6954   22.3405 C   0  0  0  0  0  0
  -22.7748  -13.5137   21.1894 C   0  0  0  0  0  0
  -22.1660   -4.2141   21.0982 F   0  0  0  0  0  0
  -21.5631   -3.4534   25.7742 F   0  0  0  0  0  0
  -29.9157  -13.8069   20.3631 N   0  0  0  0  0  0
  -26.2823  -12.9339   20.3173 N   0  0  0  0  0  0
  -25.9293  -11.6492   20.5752 N   0  0  0  0  0  0
  -22.0408  -12.8149   22.0473 N   0  0  0  0  0  0
  -25.3715  -15.1814   20.3807 N   0  0  0  0  0  0
  -31.7188  -15.1050   20.1831 O   0  0  0  0  0  0
  -21.6623   -6.8861   21.4242 O   0  0  0  0  0  0
  -22.3434  -14.5444   20.6738 O   0  0  0  0  0  0
  -24.6482  -31.8383   23.1817 C   0  0  0  0  0  0
  -25.9228  -32.4666   23.8232 C   0  0  1  0  0  0
  -27.2311  -27.0803   20.1827 C   0  0  0  0  0  0
  -25.5956  -33.8474   24.2150 N   0  0  0  0  0  0
  -23.4556  -30.4517   21.5289 C   0  0  2  0  0  0
  -24.9074  -28.8533   20.1284 C   0  0  0  0  0  0
  -22.7591  -29.4516   22.4859 C   0  0  0  0  0  0
  -18.0308  -28.1402   22.8475 C   0  0  0  0  0  0
  -24.1491  -36.7244   23.2643 C   0  0  0  0  0  0
  -26.0134  -30.6953   21.3868 C   0  0  0  0  0  0
  -26.0864  -29.2940   20.7439 C   0  0  0  0  0  0
  -27.2504  -28.4283   20.7427 C   0  0  0  0  0  0
  -26.0209  -26.7408   19.5439 C   0  0  0  0  0  0
  -24.8887  -27.5904   19.5133 C   0  0  0  0  0  0
  -23.6879  -29.7660   20.1554 C   0  0  0  0  0  0
  -25.4126  -36.3014   24.0309 C   0  0  1  0  0  0
  -20.5922  -28.3730   23.1229 C   0  0  2  0  0  0
  -20.6791  -26.9430   22.5405 C   0  0  0  0  0  0
  -19.5765  -26.6383   21.5215 C   0  0  0  0  0  0
  -18.1946  -26.7939   22.1625 C   0  0  0  0  0  0
  -19.1565  -28.8886   23.2840 C   0  0  0  0  0  0
  -18.9479  -30.1482   23.8867 C   0  0  0  0  0  0
  -17.6474  -30.6595   24.0561 C   0  0  0  0  0  0
  -25.9080  -34.9393   23.5042 C   0  0  0  0  0  0
  -16.5366  -29.9087   23.6340 C   0  0  0  0  0  0
  -16.7291  -28.6507   23.0356 C   0  0  0  0  0  0
  -26.4536  -31.6553   25.0697 C   0  0  0  0  0  0
  -25.3708  -31.3757   26.1384 C   0  0  0  0  0  0
  -27.0409  -30.2944   24.6309 C   0  0  0  0  0  0
  -27.6051  -32.4335   25.7493 C   0  0  0  0  0  0
  -27.5573  -37.1778   24.8465 C   0  0  0  0  0  0
  -21.4280  -29.3045   22.3601 N   0  0  0  0  0  0
  -26.4283  -37.3734   23.9409 N   0  0  0  0  0  0
  -24.7259  -31.0187   22.0876 N   0  0  0  0  0  0
  -23.4207  -28.8082   23.3046 O   0  0  0  0  0  0
  -28.3268  -26.1350   20.0747 O   0  0  0  0  0  0
  -26.5673  -34.8902   22.4626 O   0  0  0  0  0  0
  -23.5588  -32.1280   23.7006 O   0  0  0  0  0  0
  -29.4567  -20.5851   17.9624 C   0  0  0  0  0  0
  -29.7021  -19.3408   18.5761 C   0  0  0  0  0  0
  -29.6507  -19.2653   19.9825 C   0  0  0  0  0  0
  -28.9742  -21.7096   19.9344 C   0  0  0  0  0  0
  -28.4561  -16.3663   21.2366 C   0  0  0  0  0  0
  -30.2623  -17.8820   20.7164 C   0  0  0  0  0  0
  -28.1326  -23.0613   20.4636 C   0  0  0  0  0  0
  -28.5221  -24.7162   20.7478 C   0  0  0  0  0  0
  -30.0645  -18.1395   17.7079 C   0  0  0  0  0  0
  -29.1242  -21.7218   18.6173 N   0  0  0  0  0  0
  -29.2512  -20.4975   20.6240 N   0  0  0  0  0  0
  -29.7891  -16.3489   20.6407 N   0  0  0  0  0  0
  -30.0069  -18.4333   16.4091 F   0  0  0  0  0  0
  -31.3012  -17.7260   17.9756 F   0  0  0  0  0  0
  -29.2104  -17.1424   17.9327 F   0  0  0  0  0  0
  -31.4665  -12.9110   19.1518 H   0  0  0  0  0  0
  -30.5167  -11.7653   20.0402 H   0  0  0  0  0  0
  -29.8798  -11.7560   17.6089 H   0  0  0  0  0  0
  -29.5670  -13.4726   17.6634 H   0  0  0  0  0  0
  -28.0019  -11.2522   19.0132 H   0  0  0  0  0  0
  -27.3970  -12.3802   17.8263 H   0  0  0  0  0  0
  -27.5671  -14.2027   19.3451 H   0  0  0  0  0  0
  -28.8278  -12.2775   21.3733 H   0  0  0  0  0  0
  -28.3323  -13.8637   21.8056 H   0  0  0  0  0  0
  -25.2753   -9.5637   22.4783 H   0  0  0  0  0  0
  -23.9983   -7.4590   22.7477 H   0  0  0  0  0  0
  -21.0834   -8.8749   19.8952 H   0  0  0  0  0  0
  -22.3703  -10.9642   19.6176 H   0  0  0  0  0  0
  -21.1993   -7.6137   23.9715 H   0  0  0  0  0  0
  -21.1483   -6.0516   25.9080 H   0  0  0  0  0  0
  -22.0602   -2.7601   23.2852 H   0  0  0  0  0  0
  -22.4025  -11.9816   22.4869 H   0  0  0  0  0  0
  -21.1031  -13.1185   22.2688 H   0  0  0  0  0  0
  -24.5834  -15.8115   20.4815 H   0  0  0  0  0  0
  -26.1916  -15.6324   19.9997 H   0  0  0  0  0  0
  -26.7299  -32.5263   23.0962 H   0  0  0  0  0  0
  -25.0077  -33.9576   25.0282 H   0  0  0  0  0  0
  -22.7609  -31.2780   21.3640 H   0  0  0  0  0  0
  -23.3758  -35.9569   23.3288 H   0  0  0  0  0  0
  -24.3573  -36.8899   22.2061 H   0  0  0  0  0  0
  -23.7243  -37.6431   23.6698 H   0  0  0  0  0  0
  -26.1685  -31.4394   20.6044 H   0  0  0  0  0  0
  -26.8839  -30.7571   22.0282 H   0  0  0  0  0  0
  -28.1621  -28.7797   21.2050 H   0  0  0  0  0  0
  -25.9482  -25.7783   19.0573 H   0  0  0  0  0  0
  -23.9906  -27.2478   19.0178 H   0  0  0  0  0  0
  -23.8345  -30.5320   19.3930 H   0  0  0  0  0  0
  -22.8018  -29.2100   19.8441 H   0  0  0  0  0  0
  -25.1319  -36.1828   25.0801 H   0  0  0  0  0  0
  -21.0007  -28.3322   24.1354 H   0  0  0  0  0  0
  -20.5685  -26.2347   23.3628 H   0  0  0  0  0  0
  -21.6656  -26.7432   22.1204 H   0  0  0  0  0  0
  -19.6924  -25.6286   21.1264 H   0  0  0  0  0  0
  -19.6700  -27.3179   20.6734 H   0  0  0  0  0  0
  -17.4216  -26.6682   21.4028 H   0  0  0  0  0  0
  -18.0342  -26.0089   22.9029 H   0  0  0  0  0  0
  -19.7953  -30.7308   24.2220 H   0  0  0  0  0  0
  -17.5025  -31.6271   24.5170 H   0  0  0  0  0  0
  -15.5364  -30.2978   23.7679 H   0  0  0  0  0  0
  -15.8693  -28.0817   22.7083 H   0  0  0  0  0  0
  -24.5896  -30.7097   25.7701 H   0  0  0  0  0  0
  -24.8889  -32.2944   26.4737 H   0  0  0  0  0  0
  -25.7981  -30.8976   27.0208 H   0  0  0  0  0  0
  -26.3034  -29.6655   24.1309 H   0  0  0  0  0  0
  -27.4001  -29.7259   25.4897 H   0  0  0  0  0  0
  -27.8950  -30.4169   23.9645 H   0  0  0  0  0  0
  -27.2632  -33.3661   26.1994 H   0  0  0  0  0  0
  -28.3905  -32.6856   25.0355 H   0  0  0  0  0  0
  -28.0674  -31.8512   26.5475 H   0  0  0  0  0  0
  -28.2579  -38.0085   24.7514 H   0  0  0  0  0  0
  -28.1079  -36.2613   24.6291 H   0  0  0  0  0  0
  -27.2290  -37.1424   25.8868 H   0  0  0  0  0  0
  -20.9510  -29.8736   21.6748 H   0  0  0  0  0  0
  -26.0142  -38.2797   24.1418 H   0  0  0  0  0  0
  -29.5223  -20.6957   16.8903 H   0  0  0  0  0  0
  -28.4707  -15.9544   22.2458 H   0  0  0  0  0  0
  -27.7657  -15.8215   20.6201 H   0  0  0  0  0  0
  -28.0278  -17.3660   21.3221 H   0  0  0  0  0  0
  -30.2846  -18.1226   21.7799 H   0  0  0  0  0  0
  -31.3202  -17.8667   20.4543 H   0  0  0  0  0  0
  -27.7843  -22.7150   21.4362 H   0  0  0  0  0  0
  -27.2177  -23.0767   19.8719 H   0  0  0  0  0  0
  -29.5806  -24.7006   21.0071 H   0  0  0  0  0  0
  -28.0436  -24.9018   21.7097 H   0  0  0  0  0  0
  1 25  1  0  0  0
  1 30  2  0  0  0
  1 82  1  0  0  0
  2  3  1  0  0  0
  2 25  1  0  0  0
  2 86  1  0  0  0
  2 87  1  0  0  0
  3  4  1  0  0  0
  3 88  1  0  0  0
  3 89  1  0  0  0
  4  5  1  0  0  0
  4 90  1  0  0  0
  4 91  1  0  0  0
  5  6  1  0  0  0
  5 26  1  0  0  0
  5 92  1  0  0  0
  6 25  1  0  0  0
  6 93  1  0  0  0
  6 94  1  0  0  0
  7  8  2  0  0  0
  7 26  1  0  0  0
  7 29  1  0  0  0
  8  9  1  0  0  0
  8 22  1  0  0  0
  9 10  1  0  0  0
  9 27  2  0  0  0
 10 11  2  0  0  0
 10 15  1  0  0  0
 11 12  1  0  0  0
 11 95  1  0  0  0
 12 13  2  0  0  0
 12 96  1  0  0  0
 13 14  1  0  0  0
 13 31  1  0  0  0
 14 15  2  0  0  0
 14 97  1  0  0  0
 15 98  1  0  0  0
 16 17  2  0  0  0
 16 21  1  0  0  0
 16 31  1  0  0  0
 17 18  1  0  0  0
 17 99  1  0  0  0
 18 19  2  0  0  0
 18100  1  0  0  0
 19 20  1  0  0  0
 19 24  1  0  0  0
 20 21  2  0  0  0
 20101  1  0  0  0
 21 23  1  0  0  0
 22 28  1  0  0  0
 22 32  2  0  0  0
 26 27  1  0  0  0
 28102  1  0  0  0
 28103  1  0  0  0
 29104  1  0  0  0
 29105  1  0  0  0
 33 34  1  0  0  0
 33 66  1  0  0  0
 33 70  2  0  0  0
 34 36  1  0  0  0
 34 59  1  0  0  0
 34106  1  0  0  0
 35 44  2  0  0  0
 35 45  1  0  0  0
 35 68  1  0  0  0
 36 56  1  0  0  0
 36107  1  0  0  0
 37 39  1  0  0  0
 37 47  1  0  0  0
 37 66  1  0  0  0
 37108  1  0  0  0
 38 43  2  0  0  0
 38 46  1  0  0  0
 38 47  1  0  0  0
 39 64  1  0  0  0
 39 67  2  0  0  0
 40 52  1  0  0  0
 40 53  2  0  0  0
 40 58  1  0  0  0
 41109  1  0  0  0
 41110  1  0  0  0
 41111  1  0  0  0
 41 48  1  0  0  0
 42 43  1  0  0  0
 42 66  1  0  0  0
 42112  1  0  0  0
 42113  1  0  0  0
 43 44  1  0  0  0
 44114  1  0  0  0
 45 46  2  0  0  0
 45115  1  0  0  0
 46116  1  0  0  0
 47117  1  0  0  0
 47118  1  0  0  0
 48 56  1  0  0  0
 48 65  1  0  0  0
 48119  1  0  0  0
 49 50  1  0  0  0
 49 53  1  0  0  0
 49 64  1  0  0  0
 49120  1  0  0  0
 50 51  1  0  0  0
 50121  1  0  0  0
 50122  1  0  0  0
 51 52  1  0  0  0
 51123  1  0  0  0
 51124  1  0  0  0
 52125  1  0  0  0
 52126  1  0  0  0
 53 54  1  0  0  0
 54 55  2  0  0  0
 54127  1  0  0  0
 55 57  1  0  0  0
 55128  1  0  0  0
 56 69  2  0  0  0
 57 58  2  0  0  0
 57129  1  0  0  0
 58130  1  0  0  0
 59 60  1  0  0  0
 59 61  1  0  0  0
 59 62  1  0  0  0
 60131  1  0  0  0
 60132  1  0  0  0
 60133  1  0  0  0
 61134  1  0  0  0
 61135  1  0  0  0
 61136  1  0  0  0
 62137  1  0  0  0
 62138  1  0  0  0
 62139  1  0  0  0
 63 65  1  0  0  0
 63140  1  0  0  0
 63141  1  0  0  0
 63142  1  0  0  0
 64143  1  0  0  0
 65144  1  0  0  0
 68 78  1  0  0  0
 71 72  2  0  0  0
 71 80  1  0  0  0
 71145  1  0  0  0
 72 73  1  0  0  0
 72 79  1  0  0  0
 73 76  1  0  0  0
 73 81  2  0  0  0
 74 77  1  0  0  0
 74 80  2  0  0  0
 74 81  1  0  0  0
 75 82  1  0  0  0
 75146  1  0  0  0
 75147  1  0  0  0
 75148  1  0  0  0
 76 82  1  0  0  0
 76149  1  0  0  0
 76150  1  0  0  0
 77 78  1  0  0  0
 77151  1  0  0  0
 77152  1  0  0  0
 78153  1  0  0  0
 78154  1  0  0  0
 79 83  1  0  0  0
 79 84  1  0  0  0
 79 85  1  0  0  0
M  ISO  4   1 100  68 101  78 101  82 100
M  END
> <chiral flag>
0

> <version>
0

> <s_m_source_file>
/data/baiqing/PycharmProjects/Reinvent-master-3.2/result/LINK_invent/BTK/process_docking_weight1_custom_sum_contain_oxygen_bond_distance_aromatic_linkinvent_7_9_3/rearranged_h_0058.sdf

> <i_m_source_file_index>
84

> <r_mmod_Potential_Energy-OPLS-2005>
479.727294921875

> <r_mmod_Stretch_Energy-OPLS-2005>
348.665405273438

> <r_mmod_Bend_Energy-OPLS-2005>
415.911315917969

> <r_mmod_Torsional_Energy-OPLS-2005>
267.268890380859

> <r_mmod_Improper_Torsional_Energy-OPLS-2005>
9.76594352722168

> <r_mmod_Van_der_Waal_Energy-OPLS-2005>
147.641189575195

> <r_mmod_Electrostatic_Energy-OPLS-2005>
-745.745483398438

> <r_mmod_Solvation_Energy-OPLS-2005>
-219.128463745117

> <b_mmod_Minimization_Converged-OPLS-2005>
0

> <r_mmod_RMS_Derivative-OPLS-2005>
0.403056234121323

$$$$
84
                    3D
 Structure written by MMmdl.
168176  0  0  1  0            999 V2000
  -30.6339  -14.7226   20.5515 C   0  0  0  0  0  0
  -30.4357  -12.4610   19.4747 C   0  0  0  0  0  0
  -29.5129  -12.5331   18.2366 C   0  0  0  0  0  0
  -28.0371  -12.3503   18.6400 C   0  0  0  0  0  0
  -27.6475  -13.2266   19.8582 C   0  0  2  0  0  0
  -28.6858  -13.1010   20.9897 C   0  0  0  0  0  0
  -25.2530  -13.8187   20.5681 C   0  0  0  0  0  0
  -24.1810  -13.0441   20.9178 C   0  0  0  0  0  0
  -24.6390  -11.6916   20.8720 C   0  0  0  0  0  0
  -23.9063  -10.4295   21.0396 C   0  0  0  0  0  0
  -24.3613   -9.4215   21.9178 C   0  0  0  0  0  0
  -23.6288   -8.2250   22.0754 C   0  0  0  0  0  0
  -22.4270   -8.0281   21.3545 C   0  0  0  0  0  0
  -21.9902   -9.0256   20.4648 C   0  0  0  0  0  0
  -22.7231  -10.2135   20.3053 C   0  0  0  0  0  0
  -21.6853   -6.0733   22.5277 C   0  0  0  0  0  0
  -21.4017   -6.5639   23.8210 C   0  0  0  0  0  0
  -21.3660   -5.6792   24.9172 C   0  0  0  0  0  0
  -21.6043   -4.3054   24.7224 C   0  0  0  0  0  0
  -21.8819   -3.8145   23.4346 C   0  0  0  0  0  0
  -21.9195   -4.6961   22.3401 C   0  0  0  0  0  0
  -22.7837  -13.5234   21.1851 C   0  0  0  0  0  0
  -22.1663   -4.2148   21.0979 F   0  0  0  0  0  0
  -21.5627   -3.4538   25.7737 F   0  0  0  0  0  0
  -29.9941  -13.4980   20.4434 N   0  0  0  0  0  0
  -26.2956  -12.9384   20.3278 N   0  0  0  0  0  0
  -25.9317  -11.6530   20.5716 N   0  0  0  0  0  0
  -22.0490  -12.8227   22.0415 N   0  0  0  0  0  0
  -25.4239  -15.1908   20.4121 N   0  0  0  0  0  0
  -31.7464  -14.8588   20.0292 O   0  0  0  0  0  0
  -21.6638   -6.8876   21.4239 O   0  0  0  0  0  0
  -22.3519  -14.5539   20.6704 O   0  0  0  0  0  0
  -24.6313  -31.8545   23.1976 C   0  0  0  0  0  0
  -25.9138  -32.4749   23.8324 C   0  0  1  0  0  0
  -27.2216  -27.2604   20.1277 C   0  0  0  0  0  0
  -25.5930  -33.8552   24.2247 N   0  0  0  0  0  0
  -23.4282  -30.4766   21.5408 C   0  0  2  0  0  0
  -24.8759  -28.9226   20.1086 C   0  0  0  0  0  0
  -22.7503  -29.4597   22.4908 C   0  0  0  0  0  0
  -18.0292  -28.1386   22.8484 C   0  0  0  0  0  0
  -24.1490  -36.7282   23.2641 C   0  0  0  0  0  0
  -25.9740  -30.7663   21.3784 C   0  0  0  0  0  0
  -26.0463  -29.3889   20.7200 C   0  0  0  0  0  0
  -27.2204  -28.5694   20.7189 C   0  0  0  0  0  0
  -26.0304  -26.8659   19.4781 C   0  0  0  0  0  0
  -24.8733  -27.6697   19.4768 C   0  0  0  0  0  0
  -23.6465  -29.8094   20.1570 C   0  0  0  0  0  0
  -25.4117  -36.3066   24.0324 C   0  0  1  0  0  0
  -20.5896  -28.3698   23.1268 C   0  0  2  0  0  0
  -20.6778  -26.9414   22.5409 C   0  0  0  0  0  0
  -19.5754  -26.6382   21.5212 C   0  0  0  0  0  0
  -18.1934  -26.7928   22.1624 C   0  0  0  0  0  0
  -19.1546  -28.8860   23.2871 C   0  0  0  0  0  0
  -18.9466  -30.1459   23.8892 C   0  0  0  0  0  0
  -17.6466  -30.6587   24.0562 C   0  0  0  0  0  0
  -25.9057  -34.9437   23.5090 C   0  0  0  0  0  0
  -16.5356  -29.9084   23.6331 C   0  0  0  0  0  0
  -16.7279  -28.6502   23.0354 C   0  0  0  0  0  0
  -26.4504  -31.6581   25.0719 C   0  0  0  0  0  0
  -25.3722  -31.3736   26.1437 C   0  0  0  0  0  0
  -27.0357  -30.2996   24.6217 C   0  0  0  0  0  0
  -27.6051  -32.4329   25.7495 C   0  0  0  0  0  0
  -27.5578  -37.1798   24.8466 C   0  0  0  0  0  0
  -21.4210  -29.3042   22.3654 N   0  0  0  0  0  0
  -26.4292  -37.3766   23.9406 N   0  0  0  0  0  0
  -24.6969  -31.0507   22.0951 N   0  0  0  0  0  0
  -23.4202  -28.8139   23.3010 O   0  0  0  0  0  0
  -28.3221  -26.3740   20.2019 O   0  0  0  0  0  0
  -26.5633  -34.8914   22.4661 O   0  0  0  0  0  0
  -23.5463  -32.1367   23.7270 O   0  0  0  0  0  0
  -29.2448  -21.1660   21.1937 C   0  0  0  0  0  0
  -29.1129  -22.2703   20.3450 C   0  0  0  0  0  0
  -29.0229  -21.5757   19.0902 C   0  0  0  0  0  0
  -28.8783  -22.1789   17.7224 C   0  0  0  0  0  0
  -30.9275  -16.5271   23.3385 C   0  0  0  0  0  0
  -28.3805  -16.1270   23.0563 C   0  0  0  0  0  0
  -30.5968  -24.3117   20.3048 C   0  0  0  0  0  0
  -28.9884  -24.0285   22.1883 C   0  0  0  0  0  0
  -29.1930  -18.5004   21.0357 C   0  0  0  0  0  0
  -30.1119  -17.2656   20.5002 C   0  0  0  0  0  0
  -28.1489  -24.8926   19.9704 C   0  0  0  0  0  0
  -29.8082  -15.7917   22.5725 C   0  0  0  0  0  0
  -29.1755  -23.8475   20.6691 C   0  0  0  0  0  0
  -29.0926  -20.2320   19.1893 N   0  0  0  0  0  0
  -29.2586  -19.9330   20.5001 N   0  0  0  0  0  0
  -29.9727  -15.8372   21.0930 N   0  0  0  0  0  0
  -31.4764  -12.5879   19.1718 H   0  0  0  0  0  0
  -30.3875  -11.4711   19.9315 H   0  0  0  0  0  0
  -29.7975  -11.7736   17.5074 H   0  0  0  0  0  0
  -29.6401  -13.4967   17.7409 H   0  0  0  0  0  0
  -27.8878  -11.2972   18.8811 H   0  0  0  0  0  0
  -27.3828  -12.5640   17.7940 H   0  0  0  0  0  0
  -27.6602  -14.2609   19.5133 H   0  0  0  0  0  0
  -28.7253  -12.0759   21.3608 H   0  0  0  0  0  0
  -28.3759  -13.6971   21.8402 H   0  0  0  0  0  0
  -25.2762   -9.5694   22.4745 H   0  0  0  0  0  0
  -24.0000   -7.4646   22.7479 H   0  0  0  0  0  0
  -21.0829   -8.8778   19.8956 H   0  0  0  0  0  0
  -22.3691  -10.9672   19.6161 H   0  0  0  0  0  0
  -21.2011   -7.6148   23.9713 H   0  0  0  0  0  0
  -21.1482   -6.0521   25.9075 H   0  0  0  0  0  0
  -22.0595   -2.7607   23.2845 H   0  0  0  0  0  0
  -22.4109  -11.9887   22.4797 H   0  0  0  0  0  0
  -21.1114  -13.1263   22.2631 H   0  0  0  0  0  0
  -24.6615  -15.8483   20.5324 H   0  0  0  0  0  0
  -26.2843  -15.6315   20.1129 H   0  0  0  0  0  0
  -26.7202  -32.5398   23.1063 H   0  0  0  0  0  0
  -25.0068  -33.9685   25.0387 H   0  0  0  0  0  0
  -22.7249  -31.2989   21.3941 H   0  0  0  0  0  0
  -23.3750  -35.9617   23.3306 H   0  0  0  0  0  0
  -24.3577  -36.8904   22.2055 H   0  0  0  0  0  0
  -23.7248  -37.6484   23.6666 H   0  0  0  0  0  0
  -26.1148  -31.5268   20.6092 H   0  0  0  0  0  0
  -26.8509  -30.8144   22.0125 H   0  0  0  0  0  0
  -28.1153  -28.9190   21.2144 H   0  0  0  0  0  0
  -25.9654  -25.9127   18.9750 H   0  0  0  0  0  0
  -23.9784  -27.3096   18.9881 H   0  0  0  0  0  0
  -23.7710  -30.5850   19.4005 H   0  0  0  0  0  0
  -22.7650  -29.2425   19.8524 H   0  0  0  0  0  0
  -25.1301  -36.1912   25.0817 H   0  0  0  0  0  0
  -20.9991  -28.3278   24.1388 H   0  0  0  0  0  0
  -20.5676  -26.2308   23.3615 H   0  0  0  0  0  0
  -21.6647  -26.7434   22.1205 H   0  0  0  0  0  0
  -19.6914  -25.6292   21.1245 H   0  0  0  0  0  0
  -19.6689  -27.3191   20.6741 H   0  0  0  0  0  0
  -17.4202  -26.6676   21.4027 H   0  0  0  0  0  0
  -18.0333  -26.0071   22.9023 H   0  0  0  0  0  0
  -19.7943  -30.7277   24.2259 H   0  0  0  0  0  0
  -17.5019  -31.6267   24.5165 H   0  0  0  0  0  0
  -15.5357  -30.2985   23.7657 H   0  0  0  0  0  0
  -15.8679  -28.0818   22.7073 H   0  0  0  0  0  0
  -24.5902  -30.7078   25.7767 H   0  0  0  0  0  0
  -24.8908  -32.2907   26.4841 H   0  0  0  0  0  0
  -25.8036  -30.8930   27.0228 H   0  0  0  0  0  0
  -26.2948  -29.6734   24.1234 H   0  0  0  0  0  0
  -27.4027  -29.7269   25.4745 H   0  0  0  0  0  0
  -27.8829  -30.4266   23.9473 H   0  0  0  0  0  0
  -27.2653  -33.3635   26.2052 H   0  0  0  0  0  0
  -28.3873  -32.6881   25.0332 H   0  0  0  0  0  0
  -28.0708  -31.8469   26.5430 H   0  0  0  0  0  0
  -28.2598  -38.0092   24.7504 H   0  0  0  0  0  0
  -28.1070  -36.2621   24.6303 H   0  0  0  0  0  0
  -27.2294  -37.1461   25.8869 H   0  0  0  0  0  0
  -20.9396  -29.8764   21.6858 H   0  0  0  0  0  0
  -26.0168  -38.2840   24.1400 H   0  0  0  0  0  0
  -29.3348  -21.1551   22.2712 H   0  0  0  0  0  0
  -29.5928  -22.9870   17.5690 H   0  0  0  0  0  0
  -27.8784  -22.5883   17.5798 H   0  0  0  0  0  0
  -29.0471  -21.4451   16.9338 H   0  0  0  0  0  0
  -30.8260  -16.3695   24.4129 H   0  0  0  0  0  0
  -30.9364  -17.6026   23.1755 H   0  0  0  0  0  0
  -31.9105  -16.1498   23.0528 H   0  0  0  0  0  0
  -28.2003  -15.6832   24.0363 H   0  0  0  0  0  0
  -27.6157  -15.7393   22.3836 H   0  0  0  0  0  0
  -28.1989  -17.1915   23.1764 H   0  0  0  0  0  0
  -31.3552  -23.7258   20.8252 H   0  0  0  0  0  0
  -30.7565  -25.3578   20.5687 H   0  0  0  0  0  0
  -30.7855  -24.2162   19.2359 H   0  0  0  0  0  0
  -29.7471  -23.4947   22.7611 H   0  0  0  0  0  0
  -28.0119  -23.6655   22.5111 H   0  0  0  0  0  0
  -29.0538  -25.0789   22.4750 H   0  0  0  0  0  0
  -29.3669  -18.6160   22.1008 H   0  0  0  0  0  0
  -28.1507  -18.1934   20.9458 H   0  0  0  0  0  0
  -31.1579  -17.5573   20.5995 H   0  0  0  0  0  0
  -29.9452  -17.1766   19.4261 H   0  0  0  0  0  0
  -27.1491  -24.5950   20.2881 H   0  0  0  0  0  0
  -28.1776  -24.7434   18.8911 H   0  0  0  0  0  0
  -29.9495  -14.7575   22.8959 H   0  0  0  0  0  0
  1 25  1  0  0  0
  1 30  2  0  0  0
  1 86  1  0  0  0
  2  3  1  0  0  0
  2 25  1  0  0  0
  2 87  1  0  0  0
  2 88  1  0  0  0
  3  4  1  0  0  0
  3 89  1  0  0  0
  3 90  1  0  0  0
  4  5  1  0  0  0
  4 91  1  0  0  0
  4 92  1  0  0  0
  5  6  1  0  0  0
  5 26  1  0  0  0
  5 93  1  0  0  0
  6 25  1  0  0  0
  6 94  1  0  0  0
  6 95  1  0  0  0
  7  8  2  0  0  0
  7 26  1  0  0  0
  7 29  1  0  0  0
  8  9  1  0  0  0
  8 22  1  0  0  0
  9 10  1  0  0  0
  9 27  2  0  0  0
 10 11  2  0  0  0
 10 15  1  0  0  0
 11 12  1  0  0  0
 11 96  1  0  0  0
 12 13  2  0  0  0
 12 97  1  0  0  0
 13 14  1  0  0  0
 13 31  1  0  0  0
 14 15  2  0  0  0
 14 98  1  0  0  0
 15 99  1  0  0  0
 16 17  2  0  0  0
 16 21  1  0  0  0
 16 31  1  0  0  0
 17 18  1  0  0  0
 17100  1  0  0  0
 18 19  2  0  0  0
 18101  1  0  0  0
 19 20  1  0  0  0
 19 24  1  0  0  0
 20 21  2  0  0  0
 20102  1  0  0  0
 21 23  1  0  0  0
 22 28  1  0  0  0
 22 32  2  0  0  0
 26 27  1  0  0  0
 28103  1  0  0  0
 28104  1  0  0  0
 29105  1  0  0  0
 29106  1  0  0  0
 33 34  1  0  0  0
 33 66  1  0  0  0
 33 70  2  0  0  0
 34 36  1  0  0  0
 34 59  1  0  0  0
 34107  1  0  0  0
 35 44  2  0  0  0
 35 45  1  0  0  0
 35 68  1  0  0  0
 36 56  1  0  0  0
 36108  1  0  0  0
 37 39  1  0  0  0
 37 47  1  0  0  0
 37 66  1  0  0  0
 37109  1  0  0  0
 38 43  2  0  0  0
 38 46  1  0  0  0
 38 47  1  0  0  0
 39 64  1  0  0  0
 39 67  2  0  0  0
 40 52  1  0  0  0
 40 53  2  0  0  0
 40 58  1  0  0  0
 41110  1  0  0  0
 41111  1  0  0  0
 41112  1  0  0  0
 41 48  1  0  0  0
 42 43  1  0  0  0
 42 66  1  0  0  0
 42113  1  0  0  0
 42114  1  0  0  0
 43 44  1  0  0  0
 44115  1  0  0  0
 45 46  2  0  0  0
 45116  1  0  0  0
 46117  1  0  0  0
 47118  1  0  0  0
 47119  1  0  0  0
 48 56  1  0  0  0
 48 65  1  0  0  0
 48120  1  0  0  0
 49 50  1  0  0  0
 49 53  1  0  0  0
 49 64  1  0  0  0
 49121  1  0  0  0
 50 51  1  0  0  0
 50122  1  0  0  0
 50123  1  0  0  0
 51 52  1  0  0  0
 51124  1  0  0  0
 51125  1  0  0  0
 52126  1  0  0  0
 52127  1  0  0  0
 53 54  1  0  0  0
 54 55  2  0  0  0
 54128  1  0  0  0
 55 57  1  0  0  0
 55129  1  0  0  0
 56 69  2  0  0  0
 57 58  2  0  0  0
 57130  1  0  0  0
 58131  1  0  0  0
 59 60  1  0  0  0
 59 61  1  0  0  0
 59 62  1  0  0  0
 60132  1  0  0  0
 60133  1  0  0  0
 60134  1  0  0  0
 61135  1  0  0  0
 61136  1  0  0  0
 61137  1  0  0  0
 62138  1  0  0  0
 62139  1  0  0  0
 62140  1  0  0  0
 63 65  1  0  0  0
 63141  1  0  0  0
 63142  1  0  0  0
 63143  1  0  0  0
 64144  1  0  0  0
 65145  1  0  0  0
 68 81  1  0  0  0
 71 72  2  0  0  0
 71 85  1  0  0  0
 71146  1  0  0  0
 72 73  1  0  0  0
 72 83  1  0  0  0
 73 74  1  0  0  0
 73 84  2  0  0  0
 74147  1  0  0  0
 74148  1  0  0  0
 74149  1  0  0  0
 75150  1  0  0  0
 75151  1  0  0  0
 75152  1  0  0  0
 75 82  1  0  0  0
 76 82  1  0  0  0
 76153  1  0  0  0
 76154  1  0  0  0
 76155  1  0  0  0
 77156  1  0  0  0
 77157  1  0  0  0
 77158  1  0  0  0
 77 83  1  0  0  0
 78 83  1  0  0  0
 78159  1  0  0  0
 78160  1  0  0  0
 78161  1  0  0  0
 79 80  1  0  0  0
 79 85  1  0  0  0
 79162  1  0  0  0
 79163  1  0  0  0
 80 86  1  0  0  0
 80164  1  0  0  0
 80165  1  0  0  0
 81 83  1  0  0  0
 81166  1  0  0  0
 81167  1  0  0  0
 82 86  1  0  0  0
 82168  1  0  0  0
 84 85  1  0  0  0
M  ISO  4   1 100  68 101  81 101  86 100
M  END
> <chiral flag>
0

> <version>
0

> <s_m_source_file>
/data/baiqing/PycharmProjects/Reinvent-master-3.2/result/LINK_invent/BTK/process_docking_weight1_custom_sum_contain_oxygen_bond_distance_aromatic_linkinvent_7_9_3/rearranged_h_0058.sdf

> <i_m_source_file_index>
85

> <r_mmod_Potential_Energy-OPLS-2005>
344.575347900391

> <r_mmod_Stretch_Energy-OPLS-2005>
139.282562255859

> <r_mmod_Bend_Energy-OPLS-2005>
191.069396972656

> <r_mmod_Torsional_Energy-OPLS-2005>
313.73291015625

> <r_mmod_Improper_Torsional_Energy-OPLS-2005>
7.31588411331177

> <r_mmod_Van_der_Waal_Energy-OPLS-2005>
120.966583251953

> <r_mmod_Electrostatic_Energy-OPLS-2005>
-307.383422851562

> <r_mmod_Solvation_Energy-OPLS-2005>
-196.963562011719

> <b_mmod_Minimization_Converged-OPLS-2005>
0

> <r_mmod_RMS_Derivative-OPLS-2005>
0.519017934799194

$$$$
85
                    3D
 Structure written by MMmdl.
163171  0  0  1  0            999 V2000
  -30.6616  -14.6350   20.5142 C   0  0  0  0  0  0
  -30.4251  -12.4006   19.4444 C   0  0  0  0  0  0
  -29.4951  -12.5102   18.2173 C   0  0  0  0  0  0
  -28.0214  -12.3471   18.6352 C   0  0  0  0  0  0
  -27.6463  -13.2219   19.8610 C   0  0  2  0  0  0
  -28.6948  -13.0983   20.9888 C   0  0  0  0  0  0
  -25.2510  -13.8171   20.5712 C   0  0  0  0  0  0
  -24.1792  -13.0425   20.9213 C   0  0  0  0  0  0
  -24.6376  -11.6894   20.8757 C   0  0  0  0  0  0
  -23.9055  -10.4283   21.0404 C   0  0  0  0  0  0
  -24.3606   -9.4199   21.9184 C   0  0  0  0  0  0
  -23.6280   -8.2232   22.0754 C   0  0  0  0  0  0
  -22.4264   -8.0271   21.3540 C   0  0  0  0  0  0
  -21.9902   -9.0239   20.4643 C   0  0  0  0  0  0
  -22.7228  -10.2118   20.3052 C   0  0  0  0  0  0
  -21.6851   -6.0726   22.5272 C   0  0  0  0  0  0
  -21.4010   -6.5627   23.8206 C   0  0  0  0  0  0
  -21.3658   -5.6786   24.9170 C   0  0  0  0  0  0
  -21.6045   -4.3051   24.7221 C   0  0  0  0  0  0
  -21.8818   -3.8142   23.4345 C   0  0  0  0  0  0
  -21.9193   -4.6956   22.3397 C   0  0  0  0  0  0
  -22.7810  -13.5216   21.1847 C   0  0  0  0  0  0
  -22.1663   -4.2140   21.0978 F   0  0  0  0  0  0
  -21.5633   -3.4537   25.7737 F   0  0  0  0  0  0
  -30.0044  -13.4342   20.4127 N   0  0  0  0  0  0
  -26.2952  -12.9365   20.3345 N   0  0  0  0  0  0
  -25.9309  -11.6514   20.5778 N   0  0  0  0  0  0
  -22.0448  -12.8213   22.0404 N   0  0  0  0  0  0
  -25.4171  -15.1889   20.4091 N   0  0  0  0  0  0
  -31.8157  -14.7621   20.0952 O   0  0  0  0  0  0
  -21.6636   -6.8860   21.4231 O   0  0  0  0  0  0
  -22.3506  -14.5529   20.6699 O   0  0  0  0  0  0
  -24.6282  -31.8563   23.1972 C   0  0  0  0  0  0
  -25.9125  -32.4757   23.8316 C   0  0  1  0  0  0
  -27.2268  -27.3035   20.0894 C   0  0  0  0  0  0
  -25.5949  -33.8557   24.2250 N   0  0  0  0  0  0
  -23.4216  -30.4805   21.5396 C   0  0  2  0  0  0
  -24.8664  -28.9304   20.1084 C   0  0  0  0  0  0
  -22.7474  -29.4626   22.4915 C   0  0  0  0  0  0
  -18.0274  -28.1366   22.8471 C   0  0  0  0  0  0
  -24.1494  -36.7271   23.2632 C   0  0  0  0  0  0
  -25.9652  -30.7800   21.3711 C   0  0  0  0  0  0
  -26.0362  -29.4066   20.7112 C   0  0  0  0  0  0
  -27.2162  -28.6020   20.6943 C   0  0  0  0  0  0
  -26.0210  -26.8733   19.4902 C   0  0  0  0  0  0
  -24.8605  -27.6706   19.4934 C   0  0  0  0  0  0
  -23.6346  -29.8105   20.1579 C   0  0  0  0  0  0
  -25.4114  -36.3063   24.0316 C   0  0  1  0  0  0
  -20.5876  -28.3690   23.1263 C   0  0  2  0  0  0
  -20.6767  -26.9408   22.5402 C   0  0  0  0  0  0
  -19.5763  -26.6368   21.5192 C   0  0  0  0  0  0
  -18.1930  -26.7909   22.1587 C   0  0  0  0  0  0
  -19.1528  -28.8841   23.2868 C   0  0  0  0  0  0
  -18.9471  -30.1438   23.8897 C   0  0  0  0  0  0
  -17.6475  -30.6583   24.0552 C   0  0  0  0  0  0
  -25.9062  -34.9437   23.5079 C   0  0  0  0  0  0
  -16.5364  -29.9074   23.6337 C   0  0  0  0  0  0
  -16.7259  -28.6484   23.0363 C   0  0  0  0  0  0
  -26.4497  -31.6575   25.0705 C   0  0  0  0  0  0
  -25.3710  -31.3716   26.1423 C   0  0  0  0  0  0
  -27.0357  -30.2998   24.6188 C   0  0  0  0  0  0
  -27.6074  -32.4306   25.7464 C   0  0  0  0  0  0
  -27.5588  -37.1770   24.8436 C   0  0  0  0  0  0
  -21.4181  -29.3060   22.3670 N   0  0  0  0  0  0
  -26.4267  -37.3781   23.9421 N   0  0  0  0  0  0
  -24.6901  -31.0578   22.0917 N   0  0  0  0  0  0
  -23.4190  -28.8156   23.2996 O   0  0  0  0  0  0
  -28.3700  -26.4818   20.1319 O   0  0  0  0  0  0
  -26.5640  -34.8918   22.4649 O   0  0  0  0  0  0
  -23.5444  -32.1381   23.7292 O   0  0  0  0  0  0
  -29.1385  -20.9822   19.6938 C   0  0  0  0  0  0
  -29.5406  -20.0365   18.7054 C   0  0  0  0  0  0
  -28.9416  -20.3639   20.9727 C   0  0  0  0  0  0
  -29.4126  -18.2092   20.1454 C   0  0  0  0  0  0
  -31.2865  -20.8165   17.0136 C   0  0  0  0  0  0
  -30.5158  -16.2572   22.3071 C   0  0  0  0  0  0
  -28.8999  -22.5060   19.2620 C   0  0  0  0  0  0
  -29.8233  -20.4181   17.2551 C   0  0  0  0  0  0
  -29.1570  -16.6569   20.2401 C   0  0  0  0  0  0
  -28.6600  -23.7930   20.1907 C   0  0  0  0  0  0
  -28.4854  -25.1861   19.4110 C   0  0  0  0  0  0
  -28.5453  -21.1481   22.2323 C   0  0  0  0  0  0
  -29.6851  -18.7074   18.9454 N   0  0  0  0  0  0
  -29.0581  -19.0039   21.1530 N   0  0  0  0  0  0
  -29.9996  -15.7094   21.0525 N   0  0  0  0  0  0
  -29.4349  -22.1089   22.4840 F   0  0  0  0  0  0
  -27.3340  -21.6853   22.0844 F   0  0  0  0  0  0
  -28.5035  -20.3551   23.3074 F   0  0  0  0  0  0
  -31.4664  -12.5142   19.1359 H   0  0  0  0  0  0
  -30.3562  -11.4092   19.8936 H   0  0  0  0  0  0
  -29.7579  -11.7541   17.4761 H   0  0  0  0  0  0
  -29.6352  -13.4777   17.7320 H   0  0  0  0  0  0
  -27.8598  -11.2946   18.8690 H   0  0  0  0  0  0
  -27.3632  -12.5748   17.7958 H   0  0  0  0  0  0
  -27.6555  -14.2538   19.5131 H   0  0  0  0  0  0
  -28.7085  -12.0836   21.3892 H   0  0  0  0  0  0
  -28.4409  -13.7497   21.8273 H   0  0  0  0  0  0
  -25.2736   -9.5683   22.4769 H   0  0  0  0  0  0
  -23.9986   -7.4627   22.7473 H   0  0  0  0  0  0
  -21.0836   -8.8747   19.8946 H   0  0  0  0  0  0
  -22.3675  -10.9655   19.6168 H   0  0  0  0  0  0
  -21.1999   -7.6133   23.9706 H   0  0  0  0  0  0
  -21.1487   -6.0519   25.9073 H   0  0  0  0  0  0
  -22.0604   -2.7605   23.2853 H   0  0  0  0  0  0
  -22.4049  -11.9875   22.4809 H   0  0  0  0  0  0
  -21.1060  -13.1227   22.2578 H   0  0  0  0  0  0
  -24.6432  -15.8361   20.5151 H   0  0  0  0  0  0
  -26.2511  -15.6274   20.0462 H   0  0  0  0  0  0
  -26.7188  -32.5418   23.1054 H   0  0  0  0  0  0
  -25.0123  -33.9700   25.0418 H   0  0  0  0  0  0
  -22.7171  -31.3020   21.3930 H   0  0  0  0  0  0
  -23.3787  -35.9573   23.3230 H   0  0  0  0  0  0
  -24.3610  -36.8958   22.2066 H   0  0  0  0  0  0
  -23.7219  -37.6432   23.6703 H   0  0  0  0  0  0
  -26.1031  -31.5415   20.6031 H   0  0  0  0  0  0
  -26.8430  -30.8258   22.0044 H   0  0  0  0  0  0
  -28.1196  -28.9649   21.1651 H   0  0  0  0  0  0
  -25.9230  -25.9027   19.0340 H   0  0  0  0  0  0
  -23.9569  -27.2955   19.0327 H   0  0  0  0  0  0
  -23.7469  -30.5807   19.3944 H   0  0  0  0  0  0
  -22.7565  -29.2319   19.8637 H   0  0  0  0  0  0
  -25.1290  -36.1884   25.0802 H   0  0  0  0  0  0
  -20.9975  -28.3258   24.1379 H   0  0  0  0  0  0
  -20.5647  -26.2293   23.3593 H   0  0  0  0  0  0
  -21.6645  -26.7404   22.1230 H   0  0  0  0  0  0
  -19.6934  -25.6275   21.1232 H   0  0  0  0  0  0
  -19.6719  -27.3172   20.6713 H   0  0  0  0  0  0
  -17.4209  -26.6668   21.3973 H   0  0  0  0  0  0
  -18.0330  -26.0028   22.8959 H   0  0  0  0  0  0
  -19.7959  -30.7240   24.2271 H   0  0  0  0  0  0
  -17.5042  -31.6275   24.5142 H   0  0  0  0  0  0
  -15.5377  -30.2991   23.7661 H   0  0  0  0  0  0
  -15.8645  -28.0803   22.7093 H   0  0  0  0  0  0
  -24.5932  -30.7002   25.7754 H   0  0  0  0  0  0
  -24.8846  -32.2873   26.4800 H   0  0  0  0  0  0
  -25.8030  -30.8948   27.0230 H   0  0  0  0  0  0
  -26.2944  -29.6735   24.1213 H   0  0  0  0  0  0
  -27.4047  -29.7277   25.4711 H   0  0  0  0  0  0
  -27.8800  -30.4283   23.9414 H   0  0  0  0  0  0
  -27.2726  -33.3641   26.1993 H   0  0  0  0  0  0
  -28.3908  -32.6790   25.0291 H   0  0  0  0  0  0
  -28.0706  -31.8443   26.5414 H   0  0  0  0  0  0
  -28.2516  -38.0157   24.7624 H   0  0  0  0  0  0
  -28.1175  -36.2699   24.6071 H   0  0  0  0  0  0
  -27.2334  -37.1192   25.8840 H   0  0  0  0  0  0
  -20.9350  -29.8791   21.6892 H   0  0  0  0  0  0
  -26.0128  -38.2819   24.1529 H   0  0  0  0  0  0
  -31.4759  -20.9714   15.9504 H   0  0  0  0  0  0
  -31.9692  -20.0408   17.3620 H   0  0  0  0  0  0
  -31.5361  -21.7424   17.5323 H   0  0  0  0  0  0
  -29.7658  -16.8692   22.8094 H   0  0  0  0  0  0
  -31.3985  -16.8725   22.1283 H   0  0  0  0  0  0
  -30.7921  -15.4573   22.9970 H   0  0  0  0  0  0
  -28.0553  -22.4740   18.5715 H   0  0  0  0  0  0
  -29.7548  -22.7687   18.6387 H   0  0  0  0  0  0
  -29.1520  -21.2079   16.9224 H   0  0  0  0  0  0
  -29.5880  -19.5635   16.6166 H   0  0  0  0  0  0
  -29.1043  -16.2736   19.2194 H   0  0  0  0  0  0
  -28.1414  -16.5469   20.6193 H   0  0  0  0  0  0
  -29.5039  -23.9051   20.8700 H   0  0  0  0  0  0
  -27.7738  -23.6478   20.8047 H   0  0  0  0  0  0
  -27.7189  -25.0609   18.6507 H   0  0  0  0  0  0
  -29.3868  -25.3084   18.8093 H   0  0  0  0  0  0
  1 25  1  0  0  0
  1 30  2  0  0  0
  1 85  1  0  0  0
  2  3  1  0  0  0
  2 25  1  0  0  0
  2 89  1  0  0  0
  2 90  1  0  0  0
  3  4  1  0  0  0
  3 91  1  0  0  0
  3 92  1  0  0  0
  4  5  1  0  0  0
  4 93  1  0  0  0
  4 94  1  0  0  0
  5  6  1  0  0  0
  5 26  1  0  0  0
  5 95  1  0  0  0
  6 25  1  0  0  0
  6 96  1  0  0  0
  6 97  1  0  0  0
  7  8  2  0  0  0
  7 26  1  0  0  0
  7 29  1  0  0  0
  8  9  1  0  0  0
  8 22  1  0  0  0
  9 10  1  0  0  0
  9 27  2  0  0  0
 10 11  2  0  0  0
 10 15  1  0  0  0
 11 12  1  0  0  0
 11 98  1  0  0  0
 12 13  2  0  0  0
 12 99  1  0  0  0
 13 14  1  0  0  0
 13 31  1  0  0  0
 14 15  2  0  0  0
 14100  1  0  0  0
 15101  1  0  0  0
 16 17  2  0  0  0
 16 21  1  0  0  0
 16 31  1  0  0  0
 17 18  1  0  0  0
 17102  1  0  0  0
 18 19  2  0  0  0
 18103  1  0  0  0
 19 20  1  0  0  0
 19 24  1  0  0  0
 20 21  2  0  0  0
 20104  1  0  0  0
 21 23  1  0  0  0
 22 28  1  0  0  0
 22 32  2  0  0  0
 26 27  1  0  0  0
 28105  1  0  0  0
 28106  1  0  0  0
 29107  1  0  0  0
 29108  1  0  0  0
 33 34  1  0  0  0
 33 66  1  0  0  0
 33 70  2  0  0  0
 34 36  1  0  0  0
 34 59  1  0  0  0
 34109  1  0  0  0
 35 44  2  0  0  0
 35 45  1  0  0  0
 35 68  1  0  0  0
 36 56  1  0  0  0
 36110  1  0  0  0
 37 39  1  0  0  0
 37 47  1  0  0  0
 37 66  1  0  0  0
 37111  1  0  0  0
 38 43  2  0  0  0
 38 46  1  0  0  0
 38 47  1  0  0  0
 39 64  1  0  0  0
 39 67  2  0  0  0
 40 52  1  0  0  0
 40 53  2  0  0  0
 40 58  1  0  0  0
 41112  1  0  0  0
 41113  1  0  0  0
 41114  1  0  0  0
 41 48  1  0  0  0
 42 43  1  0  0  0
 42 66  1  0  0  0
 42115  1  0  0  0
 42116  1  0  0  0
 43 44  1  0  0  0
 44117  1  0  0  0
 45 46  2  0  0  0
 45118  1  0  0  0
 46119  1  0  0  0
 47120  1  0  0  0
 47121  1  0  0  0
 48 56  1  0  0  0
 48 65  1  0  0  0
 48122  1  0  0  0
 49 50  1  0  0  0
 49 53  1  0  0  0
 49 64  1  0  0  0
 49123  1  0  0  0
 50 51  1  0  0  0
 50124  1  0  0  0
 50125  1  0  0  0
 51 52  1  0  0  0
 51126  1  0  0  0
 51127  1  0  0  0
 52128  1  0  0  0
 52129  1  0  0  0
 53 54  1  0  0  0
 54 55  2  0  0  0
 54130  1  0  0  0
 55 57  1  0  0  0
 55131  1  0  0  0
 56 69  2  0  0  0
 57 58  2  0  0  0
 57132  1  0  0  0
 58133  1  0  0  0
 59 60  1  0  0  0
 59 61  1  0  0  0
 59 62  1  0  0  0
 60134  1  0  0  0
 60135  1  0  0  0
 60136  1  0  0  0
 61137  1  0  0  0
 61138  1  0  0  0
 61139  1  0  0  0
 62140  1  0  0  0
 62141  1  0  0  0
 62142  1  0  0  0
 63 65  1  0  0  0
 63143  1  0  0  0
 63144  1  0  0  0
 63145  1  0  0  0
 64146  1  0  0  0
 65147  1  0  0  0
 68 81  1  0  0  0
 71 72  2  0  0  0
 71 73  1  0  0  0
 71 77  1  0  0  0
 72 78  1  0  0  0
 72 83  1  0  0  0
 73 82  1  0  0  0
 73 84  2  0  0  0
 74 79  1  0  0  0
 74 83  2  0  0  0
 74 84  1  0  0  0
 75 78  1  0  0  0
 75148  1  0  0  0
 75149  1  0  0  0
 75150  1  0  0  0
 76 85  1  0  0  0
 76151  1  0  0  0
 76152  1  0  0  0
 76153  1  0  0  0
 77 80  1  0  0  0
 77154  1  0  0  0
 77155  1  0  0  0
 78156  1  0  0  0
 78157  1  0  0  0
 79 85  1  0  0  0
 79158  1  0  0  0
 79159  1  0  0  0
 80 81  1  0  0  0
 80160  1  0  0  0
 80161  1  0  0  0
 81162  1  0  0  0
 81163  1  0  0  0
 82 86  1  0  0  0
 82 87  1  0  0  0
 82 88  1  0  0  0
M  ISO  4   1 100  68 101  81 101  85 100
M  END
> <chiral flag>
0

> <version>
0

> <s_m_source_file>
/data/baiqing/PycharmProjects/Reinvent-master-3.2/result/LINK_invent/BTK/process_docking_weight1_custom_sum_contain_oxygen_bond_distance_aromatic_linkinvent_7_9_3/rearranged_h_0058.sdf

> <i_m_source_file_index>
86

> <r_mmod_Potential_Energy-OPLS-2005>
-122.267150878906

> <r_mmod_Stretch_Energy-OPLS-2005>
93.7514877319336

> <r_mmod_Bend_Energy-OPLS-2005>
191.7236328125

> <r_mmod_Torsional_Energy-OPLS-2005>
274.897888183594

> <r_mmod_Improper_Torsional_Energy-OPLS-2005>
6.08094310760498

> <r_mmod_Van_der_Waal_Energy-OPLS-2005>
149.28434753418

> <r_mmod_Electrostatic_Energy-OPLS-2005>
-679.665710449219

> <r_mmod_Solvation_Energy-OPLS-2005>
-206.890823364258

> <b_mmod_Minimization_Converged-OPLS-2005>
0

> <r_mmod_RMS_Derivative-OPLS-2005>
2.38420128822327

$$$$
86
                    3D
 Structure written by MMmdl.
160168  0  0  1  0            999 V2000
  -30.5848  -14.7353   20.4858 C   0  0  0  0  0  0
  -30.4354  -12.4377   19.4834 C   0  0  0  0  0  0
  -29.5202  -12.4997   18.2383 C   0  0  0  0  0  0
  -28.0374  -12.3365   18.6366 C   0  0  0  0  0  0
  -27.6434  -13.2266   19.8468 C   0  0  2  0  0  0
  -28.6833  -13.1371   20.9835 C   0  0  0  0  0  0
  -25.2513  -13.8187   20.5661 C   0  0  0  0  0  0
  -24.1815  -13.0423   20.9195 C   0  0  0  0  0  0
  -24.6408  -11.6908   20.8741 C   0  0  0  0  0  0
  -23.9083  -10.4283   21.0428 C   0  0  0  0  0  0
  -24.3629   -9.4207   21.9207 C   0  0  0  0  0  0
  -23.6297   -8.2252   22.0772 C   0  0  0  0  0  0
  -22.4279   -8.0300   21.3563 C   0  0  0  0  0  0
  -21.9932   -9.0260   20.4644 C   0  0  0  0  0  0
  -22.7267  -10.2140   20.3059 C   0  0  0  0  0  0
  -21.6845   -6.0754   22.5289 C   0  0  0  0  0  0
  -21.4008   -6.5652   23.8215 C   0  0  0  0  0  0
  -21.3652   -5.6804   24.9173 C   0  0  0  0  0  0
  -21.6043   -4.3065   24.7218 C   0  0  0  0  0  0
  -21.8813   -3.8165   23.4330 C   0  0  0  0  0  0
  -21.9178   -4.6988   22.3400 C   0  0  0  0  0  0
  -22.7844  -13.5216   21.1863 C   0  0  0  0  0  0
  -22.1654   -4.2181   21.0979 F   0  0  0  0  0  0
  -21.5620   -3.4537   25.7734 F   0  0  0  0  0  0
  -29.9921  -13.4916   20.4248 N   0  0  0  0  0  0
  -26.2930  -12.9375   20.3222 N   0  0  0  0  0  0
  -25.9329  -11.6525   20.5712 N   0  0  0  0  0  0
  -22.0458  -12.8209   22.0411 N   0  0  0  0  0  0
  -25.4180  -15.1902   20.4071 N   0  0  0  0  0  0
  -31.7495  -14.8623   20.0946 O   0  0  0  0  0  0
  -21.6629   -6.8911   21.4266 O   0  0  0  0  0  0
  -22.3539  -14.5536   20.6726 O   0  0  0  0  0  0
  -24.6275  -31.8557   23.2004 C   0  0  0  0  0  0
  -25.9126  -32.4750   23.8333 C   0  0  1  0  0  0
  -27.2189  -27.2703   20.1410 C   0  0  0  0  0  0
  -25.5933  -33.8551   24.2239 N   0  0  0  0  0  0
  -23.4241  -30.4770   21.5453 C   0  0  2  0  0  0
  -24.8751  -28.9197   20.1187 C   0  0  0  0  0  0
  -22.7472  -29.4591   22.4938 C   0  0  0  0  0  0
  -18.0273  -28.1350   22.8480 C   0  0  0  0  0  0
  -24.1482  -36.7264   23.2645 C   0  0  0  0  0  0
  -25.9699  -30.7719   21.3813 C   0  0  0  0  0  0
  -26.0468  -29.3933   20.7254 C   0  0  0  0  0  0
  -27.2285  -28.5834   20.7212 C   0  0  0  0  0  0
  -26.0269  -26.8531   19.5189 C   0  0  0  0  0  0
  -24.8676  -27.6564   19.5048 C   0  0  0  0  0  0
  -23.6425  -29.8062   20.1631 C   0  0  0  0  0  0
  -25.4117  -36.3048   24.0304 C   0  0  1  0  0  0
  -20.5870  -28.3664   23.1274 C   0  0  2  0  0  0
  -20.6758  -26.9387   22.5397 C   0  0  0  0  0  0
  -19.5730  -26.6342   21.5208 C   0  0  0  0  0  0
  -18.1906  -26.7894   22.1594 C   0  0  0  0  0  0
  -19.1530  -28.8833   23.2854 C   0  0  0  0  0  0
  -18.9464  -30.1443   23.8859 C   0  0  0  0  0  0
  -17.6466  -30.6577   24.0549 C   0  0  0  0  0  0
  -25.9075  -34.9435   23.5077 C   0  0  0  0  0  0
  -16.5356  -29.9067   23.6348 C   0  0  0  0  0  0
  -16.7269  -28.6470   23.0389 C   0  0  0  0  0  0
  -26.4491  -31.6621   25.0755 C   0  0  0  0  0  0
  -25.3674  -31.3768   26.1425 C   0  0  0  0  0  0
  -27.0410  -30.3047   24.6303 C   0  0  0  0  0  0
  -27.6001  -32.4433   25.7528 C   0  0  0  0  0  0
  -27.5580  -37.1758   24.8449 C   0  0  0  0  0  0
  -21.4200  -29.3016   22.3682 N   0  0  0  0  0  0
  -26.4276  -37.3763   23.9424 N   0  0  0  0  0  0
  -24.6928  -31.0558   22.0959 N   0  0  0  0  0  0
  -23.4191  -28.8125   23.3015 O   0  0  0  0  0  0
  -28.2976  -26.3662   20.1095 O   0  0  0  0  0  0
  -26.5686  -34.8908   22.4658 O   0  0  0  0  0  0
  -23.5434  -32.1378   23.7296 O   0  0  0  0  0  0
  -29.5338  -22.8935   20.4810 C   0  0  0  0  0  0
  -29.0857  -21.5083   20.4105 C   0  0  0  0  0  0
  -28.4346  -23.7375   20.6613 C   0  0  0  0  0  0
  -25.0622  -21.8688   21.1181 C   0  0  0  0  0  0
  -29.1290  -18.8341   22.2319 C   0  0  0  0  0  0
  -29.9145  -20.1521   20.2493 C   0  0  0  0  0  0
  -28.3127  -25.2600   21.1104 C   0  0  0  0  0  0
  -29.7759  -16.0593   20.9169 C   0  0  0  0  0  0
  -25.9320  -23.1104   20.8192 C   0  0  0  0  0  0
  -30.2256  -17.5361   20.3904 C   0  0  0  0  0  0
  -27.7596  -21.5231   20.4619 N   0  0  0  0  0  0
  -27.3635  -22.8316   20.6435 N   0  0  0  0  0  0
  -29.4021  -18.7941   20.7758 N   0  3  1  0  0  0
  -31.4809  -12.5529   19.1957 H   0  0  0  0  0  0
  -30.3636  -11.4589   19.9618 H   0  0  0  0  0  0
  -29.7979  -11.7194   17.5288 H   0  0  0  0  0  0
  -29.6592  -13.4502   17.7212 H   0  0  0  0  0  0
  -27.8751  -11.2864   18.8835 H   0  0  0  0  0  0
  -27.3911  -12.5507   17.7836 H   0  0  0  0  0  0
  -27.6410  -14.2495   19.4716 H   0  0  0  0  0  0
  -28.7100  -12.1270   21.3950 H   0  0  0  0  0  0
  -28.4157  -13.7960   21.8086 H   0  0  0  0  0  0
  -25.2770   -9.5669   22.4802 H   0  0  0  0  0  0
  -23.9980   -7.4643   22.7520 H   0  0  0  0  0  0
  -21.0864   -8.8797   19.8949 H   0  0  0  0  0  0
  -22.3747  -10.9685   19.6167 H   0  0  0  0  0  0
  -21.2015   -7.6160   23.9740 H   0  0  0  0  0  0
  -21.1472   -6.0525   25.9091 H   0  0  0  0  0  0
  -22.0595   -2.7626   23.2823 H   0  0  0  0  0  0
  -22.4027  -11.9819   22.4745 H   0  0  0  0  0  0
  -21.1095  -13.1297   22.2637 H   0  0  0  0  0  0
  -24.6406  -15.8341   20.5082 H   0  0  0  0  0  0
  -26.2531  -15.6324   20.0481 H   0  0  0  0  0  0
  -26.7184  -32.5411   23.1066 H   0  0  0  0  0  0
  -25.0027  -33.9692   25.0354 H   0  0  0  0  0  0
  -22.7175  -31.2961   21.3987 H   0  0  0  0  0  0
  -23.3769  -35.9557   23.3231 H   0  0  0  0  0  0
  -24.3565  -36.9004   22.2074 H   0  0  0  0  0  0
  -23.7205  -37.6403   23.6769 H   0  0  0  0  0  0
  -26.1168  -31.5365   20.6166 H   0  0  0  0  0  0
  -26.8384  -30.8157   22.0245 H   0  0  0  0  0  0
  -28.1319  -28.9441   21.1934 H   0  0  0  0  0  0
  -25.9890  -25.8768   19.0579 H   0  0  0  0  0  0
  -23.9682  -27.2860   19.0350 H   0  0  0  0  0  0
  -23.7637  -30.5809   19.4041 H   0  0  0  0  0  0
  -22.7578  -29.2402   19.8618 H   0  0  0  0  0  0
  -25.1299  -36.1853   25.0798 H   0  0  0  0  0  0
  -20.9954  -28.3251   24.1398 H   0  0  0  0  0  0
  -20.5647  -26.2287   23.3595 H   0  0  0  0  0  0
  -21.6625  -26.7411   22.1204 H   0  0  0  0  0  0
  -19.6899  -25.6244   21.1259 H   0  0  0  0  0  0
  -19.6673  -27.3115   20.6703 H   0  0  0  0  0  0
  -17.4188  -26.6667   21.3990 H   0  0  0  0  0  0
  -18.0272  -26.0025   22.8965 H   0  0  0  0  0  0
  -19.7967  -30.7241   24.2215 H   0  0  0  0  0  0
  -17.5058  -31.6269   24.5135 H   0  0  0  0  0  0
  -15.5362  -30.2966   23.7730 H   0  0  0  0  0  0
  -15.8644  -28.0788   22.7168 H   0  0  0  0  0  0
  -24.5840  -30.7150   25.7709 H   0  0  0  0  0  0
  -24.8840  -32.2924   26.4838 H   0  0  0  0  0  0
  -25.7907  -30.8922   27.0226 H   0  0  0  0  0  0
  -26.3051  -29.6699   24.1332 H   0  0  0  0  0  0
  -27.4097  -29.7420   25.4885 H   0  0  0  0  0  0
  -27.8898  -30.4329   23.9574 H   0  0  0  0  0  0
  -27.2614  -33.3816   26.1913 H   0  0  0  0  0  0
  -28.3877  -32.6851   25.0401 H   0  0  0  0  0  0
  -28.0557  -31.8687   26.5589 H   0  0  0  0  0  0
  -28.2509  -38.0148   24.7669 H   0  0  0  0  0  0
  -28.1188  -36.2692   24.6102 H   0  0  0  0  0  0
  -27.2315  -37.1194   25.8851 H   0  0  0  0  0  0
  -20.9390  -29.8800   21.6924 H   0  0  0  0  0  0
  -26.0133  -38.2798   24.1525 H   0  0  0  0  0  0
  -30.5634  -23.2219   20.4680 H   0  0  0  0  0  0
  -24.0301  -22.1506   21.3285 H   0  0  0  0  0  0
  -25.4323  -21.3217   21.9858 H   0  0  0  0  0  0
  -25.0390  -21.1788   20.2729 H   0  0  0  0  0  0
  -28.7338  -19.7976   22.5515 H   0  0  0  0  0  0
  -30.0318  -18.6362   22.8106 H   0  0  0  0  0  0
  -28.3915  -18.0778   22.5003 H   0  0  0  0  0  0
  -30.8957  -20.3075   20.6965 H   0  0  0  0  0  0
  -30.1256  -20.0156   19.1885 H   0  0  0  0  0  0
  -29.1962  -25.4691   21.7138 H   0  0  0  0  0  0
  -27.4893  -25.3797   21.8150 H   0  0  0  0  0  0
  -28.7375  -15.9202   20.6249 H   0  0  0  0  0  0
  -29.7715  -16.0570   22.0065 H   0  0  0  0  0  0
  -25.8037  -23.8249   21.6322 H   0  0  0  0  0  0
  -25.5578  -23.5983   19.9182 H   0  0  0  0  0  0
  -30.2775  -17.5019   19.3009 H   0  0  0  0  0  0
  -31.2548  -17.7058   20.7148 H   0  0  0  0  0  0
  -28.4987  -18.7064   20.3358 H   0  0  0  0  0  0
  1 25  1  0  0  0
  1 30  2  0  0  0
  1 78  1  0  0  0
  2  3  1  0  0  0
  2 25  1  0  0  0
  2 84  1  0  0  0
  2 85  1  0  0  0
  3  4  1  0  0  0
  3 86  1  0  0  0
  3 87  1  0  0  0
  4  5  1  0  0  0
  4 88  1  0  0  0
  4 89  1  0  0  0
  5  6  1  0  0  0
  5 26  1  0  0  0
  5 90  1  0  0  0
  6 25  1  0  0  0
  6 91  1  0  0  0
  6 92  1  0  0  0
  7  8  2  0  0  0
  7 26  1  0  0  0
  7 29  1  0  0  0
  8  9  1  0  0  0
  8 22  1  0  0  0
  9 10  1  0  0  0
  9 27  2  0  0  0
 10 11  2  0  0  0
 10 15  1  0  0  0
 11 12  1  0  0  0
 11 93  1  0  0  0
 12 13  2  0  0  0
 12 94  1  0  0  0
 13 14  1  0  0  0
 13 31  1  0  0  0
 14 15  2  0  0  0
 14 95  1  0  0  0
 15 96  1  0  0  0
 16 17  2  0  0  0
 16 21  1  0  0  0
 16 31  1  0  0  0
 17 18  1  0  0  0
 17 97  1  0  0  0
 18 19  2  0  0  0
 18 98  1  0  0  0
 19 20  1  0  0  0
 19 24  1  0  0  0
 20 21  2  0  0  0
 20 99  1  0  0  0
 21 23  1  0  0  0
 22 28  1  0  0  0
 22 32  2  0  0  0
 26 27  1  0  0  0
 28100  1  0  0  0
 28101  1  0  0  0
 29102  1  0  0  0
 29103  1  0  0  0
 33 34  1  0  0  0
 33 66  1  0  0  0
 33 70  2  0  0  0
 34 36  1  0  0  0
 34 59  1  0  0  0
 34104  1  0  0  0
 35 44  2  0  0  0
 35 45  1  0  0  0
 35 68  1  0  0  0
 36 56  1  0  0  0
 36105  1  0  0  0
 37 39  1  0  0  0
 37 47  1  0  0  0
 37 66  1  0  0  0
 37106  1  0  0  0
 38 43  2  0  0  0
 38 46  1  0  0  0
 38 47  1  0  0  0
 39 64  1  0  0  0
 39 67  2  0  0  0
 40 52  1  0  0  0
 40 53  2  0  0  0
 40 58  1  0  0  0
 41107  1  0  0  0
 41108  1  0  0  0
 41109  1  0  0  0
 41 48  1  0  0  0
 42 43  1  0  0  0
 42 66  1  0  0  0
 42110  1  0  0  0
 42111  1  0  0  0
 43 44  1  0  0  0
 44112  1  0  0  0
 45 46  2  0  0  0
 45113  1  0  0  0
 46114  1  0  0  0
 47115  1  0  0  0
 47116  1  0  0  0
 48 56  1  0  0  0
 48 65  1  0  0  0
 48117  1  0  0  0
 49 50  1  0  0  0
 49 53  1  0  0  0
 49 64  1  0  0  0
 49118  1  0  0  0
 50 51  1  0  0  0
 50119  1  0  0  0
 50120  1  0  0  0
 51 52  1  0  0  0
 51121  1  0  0  0
 51122  1  0  0  0
 52123  1  0  0  0
 52124  1  0  0  0
 53 54  1  0  0  0
 54 55  2  0  0  0
 54125  1  0  0  0
 55 57  1  0  0  0
 55126  1  0  0  0
 56 69  2  0  0  0
 57 58  2  0  0  0
 57127  1  0  0  0
 58128  1  0  0  0
 59 60  1  0  0  0
 59 61  1  0  0  0
 59 62  1  0  0  0
 60129  1  0  0  0
 60130  1  0  0  0
 60131  1  0  0  0
 61132  1  0  0  0
 61133  1  0  0  0
 61134  1  0  0  0
 62135  1  0  0  0
 62136  1  0  0  0
 62137  1  0  0  0
 63 65  1  0  0  0
 63138  1  0  0  0
 63139  1  0  0  0
 63140  1  0  0  0
 64141  1  0  0  0
 65142  1  0  0  0
 68 77  1  0  0  0
 71 72  1  0  0  0
 71 73  2  0  0  0
 71143  1  0  0  0
 72 76  1  0  0  0
 72 81  2  0  0  0
 73 77  1  0  0  0
 73 82  1  0  0  0
 74 79  1  0  0  0
 74144  1  0  0  0
 74145  1  0  0  0
 74146  1  0  0  0
 75147  1  0  0  0
 75148  1  0  0  0
 75149  1  0  0  0
 75 83  1  0  0  0
 76 83  1  0  0  0
 76150  1  0  0  0
 76151  1  0  0  0
 77152  1  0  0  0
 77153  1  0  0  0
 78 80  1  0  0  0
 78154  1  0  0  0
 78155  1  0  0  0
 79 82  1  0  0  0
 79156  1  0  0  0
 79157  1  0  0  0
 80 83  1  0  0  0
 80158  1  0  0  0
 80159  1  0  0  0
 81 82  1  0  0  0
 83160  1  0  0  0
M  CHG  1  83   1
M  ISO  4   1 100  68 101  77 101  78 100
M  END
> <chiral flag>
0

> <version>
0

> <s_m_source_file>
/data/baiqing/PycharmProjects/Reinvent-master-3.2/result/LINK_invent/BTK/process_docking_weight1_custom_sum_contain_oxygen_bond_distance_aromatic_linkinvent_7_9_3/rearranged_h_0058.sdf

> <i_m_source_file_index>
87

> <r_mmod_Potential_Energy-OPLS-2005>
-18.6270809173584

> <r_mmod_Stretch_Energy-OPLS-2005>
124.588958740234

> <r_mmod_Bend_Energy-OPLS-2005>
174.581283569336

> <r_mmod_Torsional_Energy-OPLS-2005>
227.260925292969

> <r_mmod_Improper_Torsional_Energy-OPLS-2005>
4.50007677078247

> <r_mmod_Van_der_Waal_Energy-OPLS-2005>
108.556915283203

> <r_mmod_Electrostatic_Energy-OPLS-2005>
-307.045532226562

> <r_mmod_Solvation_Energy-OPLS-2005>
-429.933319091797

> <b_mmod_Minimization_Converged-OPLS-2005>
0

> <r_mmod_RMS_Derivative-OPLS-2005>
4.19215965270996

$$$$
87
                    3D
 Structure written by MMmdl.
157165  0  0  1  0            999 V2000
  -30.6459  -14.7534   20.3839 C   0  0  0  0  0  0
  -30.4134  -12.4395   19.4898 C   0  0  0  0  0  0
  -29.4996  -12.4542   18.2451 C   0  0  0  0  0  0
  -28.0249  -12.2868   18.6593 C   0  0  0  0  0  0
  -27.6199  -13.2071   19.8383 C   0  0  2  0  0  0
  -28.6730  -13.2339   20.9658 C   0  0  0  0  0  0
  -25.2448  -13.8091   20.5785 C   0  0  0  0  0  0
  -24.1730  -13.0378   20.9268 C   0  0  0  0  0  0
  -24.6296  -11.6851   20.8807 C   0  0  0  0  0  0
  -23.8988  -10.4253   21.0451 C   0  0  0  0  0  0
  -24.3566   -9.4170   21.9211 C   0  0  0  0  0  0
  -23.6261   -8.2197   22.0752 C   0  0  0  0  0  0
  -22.4243   -8.0249   21.3538 C   0  0  0  0  0  0
  -21.9873   -9.0220   20.4643 C   0  0  0  0  0  0
  -22.7182  -10.2104   20.3078 C   0  0  0  0  0  0
  -21.6834   -6.0718   22.5281 C   0  0  0  0  0  0
  -21.4002   -6.5629   23.8217 C   0  0  0  0  0  0
  -21.3663   -5.6785   24.9178 C   0  0  0  0  0  0
  -21.6054   -4.3047   24.7233 C   0  0  0  0  0  0
  -21.8812   -3.8137   23.4354 C   0  0  0  0  0  0
  -21.9183   -4.6948   22.3408 C   0  0  0  0  0  0
  -22.7765  -13.5187   21.1933 C   0  0  0  0  0  0
  -22.1657   -4.2138   21.0983 F   0  0  0  0  0  0
  -21.5636   -3.4533   25.7746 F   0  0  0  0  0  0
  -29.9768  -13.5468   20.3719 N   0  0  0  0  0  0
  -26.2824  -12.9235   20.3337 N   0  0  0  0  0  0
  -25.9212  -11.6413   20.5838 N   0  0  0  0  0  0
  -22.0394  -12.8189   22.0478 N   0  0  0  0  0  0
  -25.4175  -15.1820   20.4252 N   0  0  0  0  0  0
  -31.8713  -14.7260   20.2505 O   0  0  0  0  0  0
  -21.6611   -6.8849   21.4240 O   0  0  0  0  0  0
  -22.3477  -14.5503   20.6775 O   0  0  0  0  0  0
  -24.6297  -31.8605   23.2033 C   0  0  0  0  0  0
  -25.9135  -32.4786   23.8365 C   0  0  1  0  0  0
  -27.2111  -27.2750   20.1287 C   0  0  0  0  0  0
  -25.5945  -33.8580   24.2295 N   0  0  0  0  0  0
  -23.4244  -30.4862   21.5462 C   0  0  2  0  0  0
  -24.8700  -28.9433   20.1093 C   0  0  0  0  0  0
  -22.7497  -29.4628   22.4918 C   0  0  0  0  0  0
  -18.0299  -28.1396   22.8479 C   0  0  0  0  0  0
  -24.1492  -36.7286   23.2635 C   0  0  0  0  0  0
  -25.9707  -30.7798   21.3802 C   0  0  0  0  0  0
  -26.0442  -29.4041   20.7196 C   0  0  0  0  0  0
  -27.2179  -28.5832   20.7195 C   0  0  0  0  0  0
  -26.0127  -26.8893   19.4814 C   0  0  0  0  0  0
  -24.8603  -27.6928   19.4790 C   0  0  0  0  0  0
  -23.6416  -29.8294   20.1594 C   0  0  0  0  0  0
  -25.4117  -36.3083   24.0330 C   0  0  1  0  0  0
  -20.5902  -28.3702   23.1270 C   0  0  2  0  0  0
  -20.6787  -26.9418   22.5404 C   0  0  0  0  0  0
  -19.5763  -26.6396   21.5207 C   0  0  0  0  0  0
  -18.1946  -26.7939   22.1619 C   0  0  0  0  0  0
  -19.1551  -28.8867   23.2873 C   0  0  0  0  0  0
  -18.9464  -30.1465   23.8897 C   0  0  0  0  0  0
  -17.6461  -30.6592   24.0560 C   0  0  0  0  0  0
  -25.9051  -34.9452   23.5108 C   0  0  0  0  0  0
  -16.5357  -29.9083   23.6336 C   0  0  0  0  0  0
  -16.7283  -28.6506   23.0344 C   0  0  0  0  0  0
  -26.4509  -31.6582   25.0726 C   0  0  0  0  0  0
  -25.3731  -31.3703   26.1436 C   0  0  0  0  0  0
  -27.0345  -30.3009   24.6172 C   0  0  0  0  0  0
  -27.6087  -32.4280   25.7493 C   0  0  0  0  0  0
  -27.5585  -37.1803   24.8467 C   0  0  0  0  0  0
  -21.4209  -29.3054   22.3662 N   0  0  0  0  0  0
  -26.4302  -37.3770   23.9401 N   0  0  0  0  0  0
  -24.6938  -31.0585   22.1005 N   0  0  0  0  0  0
  -23.4211  -28.8159   23.2996 O   0  0  0  0  0  0
  -28.2915  -26.3624   20.1992 O   0  0  0  0  0  0
  -26.5601  -34.8926   22.4664 O   0  0  0  0  0  0
  -23.5454  -32.1409   23.7343 O   0  0  0  0  0  0
  -30.4641  -20.7758   20.8505 C   0  0  0  0  0  0
  -28.6255  -19.6430   20.8048 C   0  0  0  0  0  0
  -28.9052  -16.2869   19.0409 C   0  0  0  0  0  0
  -27.7568  -22.3505   22.3239 C   0  0  0  0  0  0
  -28.9738  -23.6835   20.4864 C   0  0  0  0  0  0
  -29.7534  -17.3172   21.2667 C   0  0  0  0  0  0
  -27.9494  -24.8994   20.1933 C   0  0  0  0  0  0
  -29.9877  -16.2159   20.1295 C   0  0  1  0  0  0
  -28.3255  -22.2506   20.8887 C   0  0  1  0  0  0
  -30.8541  -19.5337   20.9091 N   0  0  0  0  0  0
  -29.0915  -20.9235   20.7726 N   0  0  0  0  0  0
  -29.6998  -18.8017   20.8847 N   0  0  0  0  0  0
  -27.4401  -19.3009   20.8333 O   0  0  0  0  0  0
  -31.4586  -12.5288   19.1892 H   0  0  0  0  0  0
  -30.3349  -11.4859   20.0146 H   0  0  0  0  0  0
  -29.7820  -11.6517   17.5631 H   0  0  0  0  0  0
  -29.6333  -13.3825   17.6917 H   0  0  0  0  0  0
  -27.8807  -11.2436   18.9437 H   0  0  0  0  0  0
  -27.3676  -12.4592   17.8057 H   0  0  0  0  0  0
  -27.5555  -14.1930   19.4072 H   0  0  0  0  0  0
  -28.7107  -12.2712   21.4773 H   0  0  0  0  0  0
  -28.4113  -13.9772   21.7206 H   0  0  0  0  0  0
  -25.2699   -9.5654   22.4802 H   0  0  0  0  0  0
  -23.9977   -7.4573   22.7449 H   0  0  0  0  0  0
  -21.0811   -8.8729   19.8939 H   0  0  0  0  0  0
  -22.3635  -10.9655   19.6208 H   0  0  0  0  0  0
  -21.1985   -7.6136   23.9719 H   0  0  0  0  0  0
  -21.1505   -6.0514   25.9084 H   0  0  0  0  0  0
  -22.0588   -2.7602   23.2852 H   0  0  0  0  0  0
  -22.3985  -11.9833   22.4860 H   0  0  0  0  0  0
  -21.1032  -13.1248   22.2720 H   0  0  0  0  0  0
  -24.6580  -15.8412   20.5547 H   0  0  0  0  0  0
  -26.2807  -15.6228   20.1377 H   0  0  0  0  0  0
  -26.7189  -32.5451   23.1102 H   0  0  0  0  0  0
  -25.0130  -33.9719   25.0468 H   0  0  0  0  0  0
  -22.7195  -31.3083   21.4058 H   0  0  0  0  0  0
  -23.3765  -35.9608   23.3305 H   0  0  0  0  0  0
  -24.3589  -36.8892   22.2049 H   0  0  0  0  0  0
  -23.7240  -37.6489   23.6644 H   0  0  0  0  0  0
  -26.1050  -31.5437   20.6128 H   0  0  0  0  0  0
  -26.8507  -30.8299   22.0096 H   0  0  0  0  0  0
  -28.1125  -28.9287   21.2192 H   0  0  0  0  0  0
  -25.9219  -25.9410   18.9769 H   0  0  0  0  0  0
  -23.9627  -27.3361   18.9922 H   0  0  0  0  0  0
  -23.7641  -30.6107   19.4082 H   0  0  0  0  0  0
  -22.7594  -29.2650   19.8533 H   0  0  0  0  0  0
  -25.1299  -36.1940   25.0823 H   0  0  0  0  0  0
  -21.0004  -28.3283   24.1386 H   0  0  0  0  0  0
  -20.5692  -26.2311   23.3604 H   0  0  0  0  0  0
  -21.6653  -26.7445   22.1195 H   0  0  0  0  0  0
  -19.6923  -25.6308   21.1237 H   0  0  0  0  0  0
  -19.6710  -27.3208   20.6738 H   0  0  0  0  0  0
  -17.4212  -26.6687   21.4024 H   0  0  0  0  0  0
  -18.0342  -26.0087   22.9025 H   0  0  0  0  0  0
  -19.7934  -30.7280   24.2281 H   0  0  0  0  0  0
  -17.5010  -31.6272   24.5153 H   0  0  0  0  0  0
  -15.5356  -30.2974   23.7665 H   0  0  0  0  0  0
  -15.8686  -28.0825   22.7053 H   0  0  0  0  0  0
  -24.5934  -30.7024   25.7753 H   0  0  0  0  0  0
  -24.8889  -32.2854   26.4851 H   0  0  0  0  0  0
  -25.8057  -30.8891   27.0217 H   0  0  0  0  0  0
  -26.2924  -29.6768   24.1184 H   0  0  0  0  0  0
  -27.4033  -29.7253   25.4671 H   0  0  0  0  0  0
  -27.8797  -30.4301   23.9408 H   0  0  0  0  0  0
  -27.2742  -33.3586   26.2087 H   0  0  0  0  0  0
  -28.3904  -32.6819   25.0318 H   0  0  0  0  0  0
  -28.0743  -31.8376   26.5391 H   0  0  0  0  0  0
  -28.2604  -38.0101   24.7511 H   0  0  0  0  0  0
  -28.1088  -36.2633   24.6306 H   0  0  0  0  0  0
  -27.2300  -37.1458   25.8871 H   0  0  0  0  0  0
  -20.9392  -29.8781   21.6875 H   0  0  0  0  0  0
  -26.0194  -38.2847   24.1404 H   0  0  0  0  0  0
  -31.0892  -21.6699   20.8726 H   0  0  0  0  0  0
  -27.9071  -16.3301   19.4735 H   0  0  0  0  0  0
  -28.9659  -15.4550   18.3410 H   0  0  0  0  0  0
  -29.0156  -17.1911   18.4424 H   0  0  0  0  0  0
  -27.1208  -23.2238   22.4563 H   0  0  0  0  0  0
  -28.5532  -22.4221   23.0654 H   0  0  0  0  0  0
  -27.1443  -21.4851   22.5808 H   0  0  0  0  0  0
  -29.6601  -23.9911   21.2757 H   0  0  0  0  0  0
  -29.5987  -23.5547   19.6017 H   0  0  0  0  0  0
  -30.5350  -17.1954   22.0181 H   0  0  0  0  0  0
  -28.8297  -17.0711   21.7926 H   0  0  0  0  0  0
  -27.1155  -24.7881   20.8858 H   0  0  0  0  0  0
  -27.5468  -24.6643   19.2087 H   0  0  0  0  0  0
  -30.8279  -16.6716   19.6024 H   0  0  0  0  0  0
  -27.4735  -22.1221   20.2175 H   0  0  0  0  0  0
  1 25  1  0  0  0
  1 30  2  0  0  0
  1 78  1  0  0  0
  2  3  1  0  0  0
  2 25  1  0  0  0
  2 84  1  0  0  0
  2 85  1  0  0  0
  3  4  1  0  0  0
  3 86  1  0  0  0
  3 87  1  0  0  0
  4  5  1  0  0  0
  4 88  1  0  0  0
  4 89  1  0  0  0
  5  6  1  0  0  0
  5 26  1  0  0  0
  5 90  1  0  0  0
  6 25  1  0  0  0
  6 91  1  0  0  0
  6 92  1  0  0  0
  7  8  2  0  0  0
  7 26  1  0  0  0
  7 29  1  0  0  0
  8  9  1  0  0  0
  8 22  1  0  0  0
  9 10  1  0  0  0
  9 27  2  0  0  0
 10 11  2  0  0  0
 10 15  1  0  0  0
 11 12  1  0  0  0
 11 93  1  0  0  0
 12 13  2  0  0  0
 12 94  1  0  0  0
 13 14  1  0  0  0
 13 31  1  0  0  0
 14 15  2  0  0  0
 14 95  1  0  0  0
 15 96  1  0  0  0
 16 17  2  0  0  0
 16 21  1  0  0  0
 16 31  1  0  0  0
 17 18  1  0  0  0
 17 97  1  0  0  0
 18 19  2  0  0  0
 18 98  1  0  0  0
 19 20  1  0  0  0
 19 24  1  0  0  0
 20 21  2  0  0  0
 20 99  1  0  0  0
 21 23  1  0  0  0
 22 28  1  0  0  0
 22 32  2  0  0  0
 26 27  1  0  0  0
 28100  1  0  0  0
 28101  1  0  0  0
 29102  1  0  0  0
 29103  1  0  0  0
 33 34  1  0  0  0
 33 66  1  0  0  0
 33 70  2  0  0  0
 34 36  1  0  0  0
 34 59  1  0  0  0
 34104  1  0  0  0
 35 44  2  0  0  0
 35 45  1  0  0  0
 35 68  1  0  0  0
 36 56  1  0  0  0
 36105  1  0  0  0
 37 39  1  0  0  0
 37 47  1  0  0  0
 37 66  1  0  0  0
 37106  1  0  0  0
 38 43  2  0  0  0
 38 46  1  0  0  0
 38 47  1  0  0  0
 39 64  1  0  0  0
 39 67  2  0  0  0
 40 52  1  0  0  0
 40 53  2  0  0  0
 40 58  1  0  0  0
 41107  1  0  0  0
 41108  1  0  0  0
 41109  1  0  0  0
 41 48  1  0  0  0
 42 43  1  0  0  0
 42 66  1  0  0  0
 42110  1  0  0  0
 42111  1  0  0  0
 43 44  1  0  0  0
 44112  1  0  0  0
 45 46  2  0  0  0
 45113  1  0  0  0
 46114  1  0  0  0
 47115  1  0  0  0
 47116  1  0  0  0
 48 56  1  0  0  0
 48 65  1  0  0  0
 48117  1  0  0  0
 49 50  1  0  0  0
 49 53  1  0  0  0
 49 64  1  0  0  0
 49118  1  0  0  0
 50 51  1  0  0  0
 50119  1  0  0  0
 50120  1  0  0  0
 51 52  1  0  0  0
 51121  1  0  0  0
 51122  1  0  0  0
 52123  1  0  0  0
 52124  1  0  0  0
 53 54  1  0  0  0
 54 55  2  0  0  0
 54125  1  0  0  0
 55 57  1  0  0  0
 55126  1  0  0  0
 56 69  2  0  0  0
 57 58  2  0  0  0
 57127  1  0  0  0
 58128  1  0  0  0
 59 60  1  0  0  0
 59 61  1  0  0  0
 59 62  1  0  0  0
 60129  1  0  0  0
 60130  1  0  0  0
 60131  1  0  0  0
 61132  1  0  0  0
 61133  1  0  0  0
 61134  1  0  0  0
 62135  1  0  0  0
 62136  1  0  0  0
 62137  1  0  0  0
 63 65  1  0  0  0
 63138  1  0  0  0
 63139  1  0  0  0
 63140  1  0  0  0
 64141  1  0  0  0
 65142  1  0  0  0
 68 77  1  0  0  0
 71 80  2  0  0  0
 71 81  1  0  0  0
 71143  1  0  0  0
 72 81  1  0  0  0
 72 82  1  0  0  0
 72 83  2  0  0  0
 73144  1  0  0  0
 73145  1  0  0  0
 73146  1  0  0  0
 73 78  1  0  0  0
 74147  1  0  0  0
 74148  1  0  0  0
 74149  1  0  0  0
 74 79  1  0  0  0
 75 77  1  0  0  0
 75 79  1  0  0  0
 75150  1  0  0  0
 75151  1  0  0  0
 76 78  1  0  0  0
 76 82  1  0  0  0
 76152  1  0  0  0
 76153  1  0  0  0
 77154  1  0  0  0
 77155  1  0  0  0
 78156  1  0  0  0
 79 81  1  0  0  0
 79157  1  0  0  0
 80 82  1  0  0  0
M  ISO  4   1 100  68 101  77 101  78 100
M  END
> <chiral flag>
0

> <version>
0

> <s_m_source_file>
/data/baiqing/PycharmProjects/Reinvent-master-3.2/result/LINK_invent/BTK/process_docking_weight1_custom_sum_contain_oxygen_bond_distance_aromatic_linkinvent_7_9_3/rearranged_h_0058.sdf

> <i_m_source_file_index>
88

> <r_mmod_Potential_Energy-OPLS-2005>
385.420196533203

> <r_mmod_Stretch_Energy-OPLS-2005>
118.74690246582

> <r_mmod_Bend_Energy-OPLS-2005>
249.662460327148

> <r_mmod_Torsional_Energy-OPLS-2005>
263.633270263672

> <r_mmod_Improper_Torsional_Energy-OPLS-2005>
11.4364566802979

> <r_mmod_Van_der_Waal_Energy-OPLS-2005>
120.103828430176

> <r_mmod_Electrostatic_Energy-OPLS-2005>
-266.935668945312

> <r_mmod_Solvation_Energy-OPLS-2005>
-207.999542236328

> <b_mmod_Minimization_Converged-OPLS-2005>
0

> <r_mmod_RMS_Derivative-OPLS-2005>
1.93581295013428

$$$$
88
                    3D
 Structure written by MMmdl.
160168  0  0  1  0            999 V2000
  -30.6923  -14.5219   20.5993 C   0  0  0  0  0  0
  -30.4330  -12.3487   19.4281 C   0  0  0  0  0  0
  -29.4989  -12.5136   18.2112 C   0  0  0  0  0  0
  -28.0209  -12.3608   18.6260 C   0  0  0  0  0  0
  -27.6627  -13.2055   19.8767 C   0  0  2  0  0  0
  -28.7075  -12.9912   20.9938 C   0  0  0  0  0  0
  -25.2611  -13.8156   20.5704 C   0  0  0  0  0  0
  -24.1848  -13.0429   20.9184 C   0  0  0  0  0  0
  -24.6406  -11.6906   20.8733 C   0  0  0  0  0  0
  -23.9065  -10.4296   21.0415 C   0  0  0  0  0  0
  -24.3618   -9.4213   21.9193 C   0  0  0  0  0  0
  -23.6298   -8.2248   22.0759 C   0  0  0  0  0  0
  -22.4280   -8.0286   21.3550 C   0  0  0  0  0  0
  -21.9918   -9.0253   20.4645 C   0  0  0  0  0  0
  -22.7243  -10.2137   20.3064 C   0  0  0  0  0  0
  -21.6850   -6.0747   22.5283 C   0  0  0  0  0  0
  -21.4001   -6.5647   23.8214 C   0  0  0  0  0  0
  -21.3661   -5.6796   24.9172 C   0  0  0  0  0  0
  -21.6048   -4.3059   24.7222 C   0  0  0  0  0  0
  -21.8826   -3.8157   23.4340 C   0  0  0  0  0  0
  -21.9197   -4.6978   22.3401 C   0  0  0  0  0  0
  -22.7873  -13.5232   21.1832 C   0  0  0  0  0  0
  -22.1675   -4.2171   21.0976 F   0  0  0  0  0  0
  -21.5633   -3.4545   25.7739 F   0  0  0  0  0  0
  -30.0293  -13.3352   20.4465 N   0  0  0  0  0  0
  -26.3031  -12.9317   20.3384 N   0  0  0  0  0  0
  -25.9331  -11.6474   20.5767 N   0  0  0  0  0  0
  -22.0509  -12.8213   22.0376 N   0  0  0  0  0  0
  -25.4339  -15.1868   20.4140 N   0  0  0  0  0  0
  -31.7866  -14.7097   20.0559 O   0  0  0  0  0  0
  -21.6635   -6.8888   21.4244 O   0  0  0  0  0  0
  -22.3570  -14.5549   20.6696 O   0  0  0  0  0  0
  -24.6173  -31.8664   23.2029 C   0  0  0  0  0  0
  -25.9050  -32.4819   23.8337 C   0  0  1  0  0  0
  -27.2499  -27.4119   20.0735 C   0  0  0  0  0  0
  -25.5888  -33.8616   24.2279 N   0  0  0  0  0  0
  -23.4059  -30.4841   21.5486 C   0  0  2  0  0  0
  -24.8538  -28.9481   20.1146 C   0  0  0  0  0  0
  -22.7429  -29.4613   22.4999 C   0  0  0  0  0  0
  -18.0262  -28.1372   22.8496 C   0  0  0  0  0  0
  -24.1490  -36.7327   23.2627 C   0  0  0  0  0  0
  -25.9363  -30.8291   21.3518 C   0  0  0  0  0  0
  -26.0174  -29.4596   20.6979 C   0  0  0  0  0  0
  -27.2155  -28.7032   20.6655 C   0  0  0  0  0  0
  -26.0517  -26.9116   19.5101 C   0  0  0  0  0  0
  -24.8675  -27.6755   19.5189 C   0  0  0  0  0  0
  -23.6152  -29.8158   20.1641 C   0  0  0  0  0  0
  -25.4112  -36.3121   24.0322 C   0  0  1  0  0  0
  -20.5858  -28.3650   23.1342 C   0  0  2  0  0  0
  -20.6755  -26.9389   22.5432 C   0  0  0  0  0  0
  -19.5735  -26.6377   21.5225 C   0  0  0  0  0  0
  -18.1908  -26.7917   22.1629 C   0  0  0  0  0  0
  -19.1512  -28.8827   23.2911 C   0  0  0  0  0  0
  -18.9443  -30.1439   23.8918 C   0  0  0  0  0  0
  -17.6445  -30.6582   24.0559 C   0  0  0  0  0  0
  -25.9052  -34.9486   23.5112 C   0  0  0  0  0  0
  -16.5336  -29.9093   23.6315 C   0  0  0  0  0  0
  -16.7251  -28.6507   23.0339 C   0  0  0  0  0  0
  -26.4460  -31.6576   25.0653 C   0  0  0  0  0  0
  -25.3704  -31.3684   26.1378 C   0  0  0  0  0  0
  -27.0246  -30.3006   24.6004 C   0  0  0  0  0  0
  -27.6044  -32.4246   25.7457 C   0  0  0  0  0  0
  -27.5586  -37.1816   24.8461 C   0  0  0  0  0  0
  -21.4153  -29.3018   22.3764 N   0  0  0  0  0  0
  -26.4301  -37.3811   23.9404 N   0  0  0  0  0  0
  -24.6730  -31.0727   22.0945 N   0  0  0  0  0  0
  -23.4193  -28.8170   23.3053 O   0  0  0  0  0  0
  -28.4463  -26.7045   20.0822 O   0  0  0  0  0  0
  -26.5644  -34.8951   22.4693 O   0  0  0  0  0  0
  -23.5359  -32.1419   23.7415 O   0  0  0  0  0  0
  -30.4444  -18.2395   20.9448 C   0  0  0  0  0  0
  -29.0756  -17.1879   19.6378 C   0  0  0  0  0  0
  -29.9122  -19.1456   20.0403 C   0  0  0  0  0  0
  -31.7049  -24.7789   20.1726 C   0  0  0  0  0  0
  -30.2755  -20.6100   19.8014 C   0  0  0  0  0  0
  -30.1028  -15.7120   21.4197 C   0  0  0  0  0  0
  -31.0462  -23.4759   20.6495 C   0  0  0  0  0  0
  -29.2928  -21.7309   20.3063 C   0  0  0  0  0  0
  -28.6757  -24.1946   20.3402 C   0  0  0  0  0  0
  -28.6176  -25.4413   19.3878 C   0  0  0  0  0  0
  -29.0310  -18.4513   19.2091 N   0  0  0  0  0  0
  -29.8991  -16.9744   20.6767 N   0  0  0  0  0  0
  -29.7272  -23.1539   20.0146 N   0  3  1  0  0  0
  -31.4740  -12.4642   19.1233 H   0  0  0  0  0  0
  -30.3615  -11.3395   19.8373 H   0  0  0  0  0  0
  -29.7472  -11.7815   17.4414 H   0  0  0  0  0  0
  -29.6532  -13.4958   17.7632 H   0  0  0  0  0  0
  -27.8419  -11.3047   18.8308 H   0  0  0  0  0  0
  -27.3666  -12.6257   17.7949 H   0  0  0  0  0  0
  -27.7049  -14.2501   19.5728 H   0  0  0  0  0  0
  -28.7102  -11.9450   21.3055 H   0  0  0  0  0  0
  -28.4462  -13.5416   21.8938 H   0  0  0  0  0  0
  -25.2777   -9.5681   22.4746 H   0  0  0  0  0  0
  -24.0025   -7.4631   22.7460 H   0  0  0  0  0  0
  -21.0865   -8.8751   19.8929 H   0  0  0  0  0  0
  -22.3708  -10.9665   19.6157 H   0  0  0  0  0  0
  -21.1979   -7.6153   23.9725 H   0  0  0  0  0  0
  -21.1475   -6.0521   25.9077 H   0  0  0  0  0  0
  -22.0605   -2.7620   23.2833 H   0  0  0  0  0  0
  -22.4132  -11.9883   22.4765 H   0  0  0  0  0  0
  -21.1125  -13.1218   22.2584 H   0  0  0  0  0  0
  -24.6679  -15.8421   20.5262 H   0  0  0  0  0  0
  -26.2890  -15.6274   20.1012 H   0  0  0  0  0  0
  -26.7123  -32.5536   23.1106 H   0  0  0  0  0  0
  -24.9937  -33.9774   25.0352 H   0  0  0  0  0  0
  -22.6955  -31.2999   21.4075 H   0  0  0  0  0  0
  -23.3763  -35.9650   23.3298 H   0  0  0  0  0  0
  -24.3579  -36.8946   22.2041 H   0  0  0  0  0  0
  -23.7237  -37.6525   23.6648 H   0  0  0  0  0  0
  -26.0376  -31.5953   20.5813 H   0  0  0  0  0  0
  -26.8276  -30.8904   21.9642 H   0  0  0  0  0  0
  -28.1213  -29.1166   21.0885 H   0  0  0  0  0  0
  -25.9925  -25.9282   19.0695 H   0  0  0  0  0  0
  -23.9694  -27.2688   19.0746 H   0  0  0  0  0  0
  -23.7280  -30.5922   19.4071 H   0  0  0  0  0  0
  -22.7396  -29.2376   19.8635 H   0  0  0  0  0  0
  -25.1296  -36.1986   25.0814 H   0  0  0  0  0  0
  -20.9916  -28.3193   24.1475 H   0  0  0  0  0  0
  -20.5666  -26.2249   23.3610 H   0  0  0  0  0  0
  -21.6627  -26.7441   22.1224 H   0  0  0  0  0  0
  -19.6906  -25.6297   21.1245 H   0  0  0  0  0  0
  -19.6683  -27.3205   20.6769 H   0  0  0  0  0  0
  -17.4184  -26.6663   21.4025 H   0  0  0  0  0  0
  -18.0306  -26.0055   22.9021 H   0  0  0  0  0  0
  -19.7917  -30.7244   24.2307 H   0  0  0  0  0  0
  -17.5000  -31.6267   24.5152 H   0  0  0  0  0  0
  -15.5344  -30.3004   23.7621 H   0  0  0  0  0  0
  -15.8645  -28.0840   22.7039 H   0  0  0  0  0  0
  -24.5907  -30.7014   25.7685 H   0  0  0  0  0  0
  -24.8858  -32.2836   26.4784 H   0  0  0  0  0  0
  -25.8024  -30.8863   27.0155 H   0  0  0  0  0  0
  -26.2751  -29.6817   24.1053 H   0  0  0  0  0  0
  -27.4004  -29.7197   25.4441 H   0  0  0  0  0  0
  -27.8611  -30.4309   23.9127 H   0  0  0  0  0  0
  -27.2675  -33.3531   26.2088 H   0  0  0  0  0  0
  -28.3861  -32.6816   25.0292 H   0  0  0  0  0  0
  -28.0697  -31.8303   26.5338 H   0  0  0  0  0  0
  -28.2612  -38.0109   24.7524 H   0  0  0  0  0  0
  -28.1077  -36.2649   24.6276 H   0  0  0  0  0  0
  -27.2301  -37.1448   25.8862 H   0  0  0  0  0  0
  -20.9319  -29.8749   21.6999 H   0  0  0  0  0  0
  -26.0200  -38.2890   24.1416 H   0  0  0  0  0  0
  -31.1720  -18.3879   21.7350 H   0  0  0  0  0  0
  -28.4787  -16.4043   19.1940 H   0  0  0  0  0  0
  -32.7162  -24.8585   20.5733 H   0  0  0  0  0  0
  -31.1646  -25.6598   20.5153 H   0  0  0  0  0  0
  -31.7858  -24.8085   19.0864 H   0  0  0  0  0  0
  -30.4285  -20.7578   18.7322 H   0  0  0  0  0  0
  -31.2578  -20.7422   20.2460 H   0  0  0  0  0  0
  -29.1561  -15.4757   21.8935 H   0  0  0  0  0  0
  -30.7922  -15.9119   22.2403 H   0  0  0  0  0  0
  -30.9402  -23.4888   21.7353 H   0  0  0  0  0  0
  -31.7791  -22.7055   20.4352 H   0  0  0  0  0  0
  -29.1262  -21.6183   21.3777 H   0  0  0  0  0  0
  -28.3240  -21.5648   19.8321 H   0  0  0  0  0  0
  -27.6844  -23.7405   20.3358 H   0  0  0  0  0  0
  -28.8283  -24.5324   21.3655 H   0  0  0  0  0  0
  -27.9100  -25.2830   18.5769 H   0  0  0  0  0  0
  -29.5589  -25.5384   18.8510 H   0  0  0  0  0  0
  -29.8574  -23.1756   19.0131 H   0  0  0  0  0  0
  1 25  1  0  0  0
  1 30  2  0  0  0
  1 76  1  0  0  0
  2  3  1  0  0  0
  2 25  1  0  0  0
  2 84  1  0  0  0
  2 85  1  0  0  0
  3  4  1  0  0  0
  3 86  1  0  0  0
  3 87  1  0  0  0
  4  5  1  0  0  0
  4 88  1  0  0  0
  4 89  1  0  0  0
  5  6  1  0  0  0
  5 26  1  0  0  0
  5 90  1  0  0  0
  6 25  1  0  0  0
  6 91  1  0  0  0
  6 92  1  0  0  0
  7  8  2  0  0  0
  7 26  1  0  0  0
  7 29  1  0  0  0
  8  9  1  0  0  0
  8 22  1  0  0  0
  9 10  1  0  0  0
  9 27  2  0  0  0
 10 11  2  0  0  0
 10 15  1  0  0  0
 11 12  1  0  0  0
 11 93  1  0  0  0
 12 13  2  0  0  0
 12 94  1  0  0  0
 13 14  1  0  0  0
 13 31  1  0  0  0
 14 15  2  0  0  0
 14 95  1  0  0  0
 15 96  1  0  0  0
 16 17  2  0  0  0
 16 21  1  0  0  0
 16 31  1  0  0  0
 17 18  1  0  0  0
 17 97  1  0  0  0
 18 19  2  0  0  0
 18 98  1  0  0  0
 19 20  1  0  0  0
 19 24  1  0  0  0
 20 21  2  0  0  0
 20 99  1  0  0  0
 21 23  1  0  0  0
 22 28  1  0  0  0
 22 32  2  0  0  0
 26 27  1  0  0  0
 28100  1  0  0  0
 28101  1  0  0  0
 29102  1  0  0  0
 29103  1  0  0  0
 33 34  1  0  0  0
 33 66  1  0  0  0
 33 70  2  0  0  0
 34 36  1  0  0  0
 34 59  1  0  0  0
 34104  1  0  0  0
 35 44  2  0  0  0
 35 45  1  0  0  0
 35 68  1  0  0  0
 36 56  1  0  0  0
 36105  1  0  0  0
 37 39  1  0  0  0
 37 47  1  0  0  0
 37 66  1  0  0  0
 37106  1  0  0  0
 38 43  2  0  0  0
 38 46  1  0  0  0
 38 47  1  0  0  0
 39 64  1  0  0  0
 39 67  2  0  0  0
 40 52  1  0  0  0
 40 53  2  0  0  0
 40 58  1  0  0  0
 41107  1  0  0  0
 41108  1  0  0  0
 41109  1  0  0  0
 41 48  1  0  0  0
 42 43  1  0  0  0
 42 66  1  0  0  0
 42110  1  0  0  0
 42111  1  0  0  0
 43 44  1  0  0  0
 44112  1  0  0  0
 45 46  2  0  0  0
 45113  1  0  0  0
 46114  1  0  0  0
 47115  1  0  0  0
 47116  1  0  0  0
 48 56  1  0  0  0
 48 65  1  0  0  0
 48117  1  0  0  0
 49 50  1  0  0  0
 49 53  1  0  0  0
 49 64  1  0  0  0
 49118  1  0  0  0
 50 51  1  0  0  0
 50119  1  0  0  0
 50120  1  0  0  0
 51 52  1  0  0  0
 51121  1  0  0  0
 51122  1  0  0  0
 52123  1  0  0  0
 52124  1  0  0  0
 53 54  1  0  0  0
 54 55  2  0  0  0
 54125  1  0  0  0
 55 57  1  0  0  0
 55126  1  0  0  0
 56 69  2  0  0  0
 57 58  2  0  0  0
 57127  1  0  0  0
 58128  1  0  0  0
 59 60  1  0  0  0
 59 61  1  0  0  0
 59 62  1  0  0  0
 60129  1  0  0  0
 60130  1  0  0  0
 60131  1  0  0  0
 61132  1  0  0  0
 61133  1  0  0  0
 61134  1  0  0  0
 62135  1  0  0  0
 62136  1  0  0  0
 62137  1  0  0  0
 63 65  1  0  0  0
 63138  1  0  0  0
 63139  1  0  0  0
 63140  1  0  0  0
 64141  1  0  0  0
 65142  1  0  0  0
 68 80  1  0  0  0
 71 73  2  0  0  0
 71 82  1  0  0  0
 71143  1  0  0  0
 72 81  2  0  0  0
 72 82  1  0  0  0
 72144  1  0  0  0
 73 75  1  0  0  0
 73 81  1  0  0  0
 74 77  1  0  0  0
 74145  1  0  0  0
 74146  1  0  0  0
 74147  1  0  0  0
 75 78  1  0  0  0
 75148  1  0  0  0
 75149  1  0  0  0
 76 82  1  0  0  0
 76150  1  0  0  0
 76151  1  0  0  0
 77152  1  0  0  0
 77153  1  0  0  0
 77 83  1  0  0  0
 78 83  1  0  0  0
 78154  1  0  0  0
 78155  1  0  0  0
 79 80  1  0  0  0
 79 83  1  0  0  0
 79156  1  0  0  0
 79157  1  0  0  0
 80158  1  0  0  0
 80159  1  0  0  0
 83160  1  0  0  0
M  CHG  1  83   1
M  ISO  4   1 100  68 101  76 100  80 101
M  END
> <chiral flag>
0

> <version>
0

> <s_m_source_file>
/data/baiqing/PycharmProjects/Reinvent-master-3.2/result/LINK_invent/BTK/process_docking_weight1_custom_sum_contain_oxygen_bond_distance_aromatic_linkinvent_7_9_3/rearranged_h_0058.sdf

> <i_m_source_file_index>
89

> <r_mmod_Potential_Energy-OPLS-2005>
-113.082855224609

> <r_mmod_Stretch_Energy-OPLS-2005>
53.4410171508789

> <r_mmod_Bend_Energy-OPLS-2005>
134.765090942383

> <r_mmod_Torsional_Energy-OPLS-2005>
184.64241027832

> <r_mmod_Improper_Torsional_Energy-OPLS-2005>
2.46802639961243

> <r_mmod_Van_der_Waal_Energy-OPLS-2005>
128.648620605469

> <r_mmod_Electrostatic_Energy-OPLS-2005>
-201.678756713867

> <r_mmod_Solvation_Energy-OPLS-2005>
-431.724731445312

> <b_mmod_Minimization_Converged-OPLS-2005>
0

> <r_mmod_RMS_Derivative-OPLS-2005>
2.3223557472229

$$$$
89
                    3D
 Structure written by MMmdl.
151159  0  0  1  0            999 V2000
  -30.6229  -14.7637   20.4657 C   0  0  0  0  0  0
  -30.4317  -12.4718   19.4638 C   0  0  0  0  0  0
  -29.5055  -12.5028   18.2292 C   0  0  0  0  0  0
  -28.0314  -12.3329   18.6472 C   0  0  0  0  0  0
  -27.6386  -13.2359   19.8458 C   0  0  2  0  0  0
  -28.6883  -13.1847   20.9764 C   0  0  0  0  0  0
  -25.2512  -13.8207   20.5717 C   0  0  0  0  0  0
  -24.1812  -13.0444   20.9230 C   0  0  0  0  0  0
  -24.6404  -11.6926   20.8767 C   0  0  0  0  0  0
  -23.9082  -10.4297   21.0424 C   0  0  0  0  0  0
  -24.3627   -9.4206   21.9201 C   0  0  0  0  0  0
  -23.6305   -8.2237   22.0753 C   0  0  0  0  0  0
  -22.4285   -8.0285   21.3538 C   0  0  0  0  0  0
  -21.9928   -9.0262   20.4644 C   0  0  0  0  0  0
  -22.7256  -10.2139   20.3069 C   0  0  0  0  0  0
  -21.6859   -6.0744   22.5280 C   0  0  0  0  0  0
  -21.4012   -6.5646   23.8211 C   0  0  0  0  0  0
  -21.3651   -5.6794   24.9169 C   0  0  0  0  0  0
  -21.6041   -4.3057   24.7226 C   0  0  0  0  0  0
  -21.8816   -3.8150   23.4347 C   0  0  0  0  0  0
  -21.9188   -4.6969   22.3401 C   0  0  0  0  0  0
  -22.7821  -13.5224   21.1863 C   0  0  0  0  0  0
  -22.1664   -4.2147   21.0982 F   0  0  0  0  0  0
  -21.5621   -3.4544   25.7740 F   0  0  0  0  0  0
  -29.9815  -13.5454   20.3811 N   0  0  0  0  0  0
  -26.2931  -12.9420   20.3282 N   0  0  0  0  0  0
  -25.9334  -11.6557   20.5768 N   0  0  0  0  0  0
  -22.0458  -12.8226   22.0422 N   0  0  0  0  0  0
  -25.4224  -15.1933   20.4135 N   0  0  0  0  0  0
  -31.8188  -14.8286   20.1764 O   0  0  0  0  0  0
  -21.6641   -6.8889   21.4243 O   0  0  0  0  0  0
  -22.3516  -14.5518   20.6690 O   0  0  0  0  0  0
  -24.6355  -31.8538   23.1980 C   0  0  0  0  0  0
  -25.9169  -32.4750   23.8322 C   0  0  1  0  0  0
  -27.2197  -27.2361   20.1333 C   0  0  0  0  0  0
  -25.5963  -33.8548   24.2247 N   0  0  0  0  0  0
  -23.4326  -30.4785   21.5418 C   0  0  2  0  0  0
  -24.8800  -28.9241   20.1126 C   0  0  0  0  0  0
  -22.7523  -29.4599   22.4902 C   0  0  0  0  0  0
  -18.0290  -28.1418   22.8481 C   0  0  0  0  0  0
  -24.1483  -36.7267   23.2635 C   0  0  0  0  0  0
  -25.9815  -30.7611   21.3795 C   0  0  0  0  0  0
  -26.0549  -29.3809   20.7224 C   0  0  0  0  0  0
  -27.2283  -28.5517   20.7195 C   0  0  0  0  0  0
  -26.0148  -26.8583   19.4942 C   0  0  0  0  0  0
  -24.8668  -27.6709   19.4870 C   0  0  0  0  0  0
  -23.6536  -29.8162   20.1572 C   0  0  0  0  0  0
  -25.4111  -36.3056   24.0323 C   0  0  1  0  0  0
  -20.5901  -28.3721   23.1270 C   0  0  2  0  0  0
  -20.6783  -26.9438   22.5419 C   0  0  0  0  0  0
  -19.5747  -26.6408   21.5234 C   0  0  0  0  0  0
  -18.1923  -26.7955   22.1640 C   0  0  0  0  0  0
  -19.1548  -28.8886   23.2867 C   0  0  0  0  0  0
  -18.9476  -30.1490   23.8888 C   0  0  0  0  0  0
  -17.6477  -30.6614   24.0575 C   0  0  0  0  0  0
  -25.9060  -34.9437   23.5081 C   0  0  0  0  0  0
  -16.5364  -29.9120   23.6345 C   0  0  0  0  0  0
  -16.7280  -28.6544   23.0348 C   0  0  0  0  0  0
  -26.4521  -31.6583   25.0722 C   0  0  0  0  0  0
  -25.3737  -31.3786   26.1448 C   0  0  0  0  0  0
  -27.0357  -30.2981   24.6228 C   0  0  0  0  0  0
  -27.6056  -32.4325   25.7525 C   0  0  0  0  0  0
  -27.5563  -37.1794   24.8464 C   0  0  0  0  0  0
  -21.4225  -29.3059   22.3651 N   0  0  0  0  0  0
  -26.4268  -37.3772   23.9417 N   0  0  0  0  0  0
  -24.7024  -31.0487   22.0964 N   0  0  0  0  0  0
  -23.4210  -28.8139   23.3011 O   0  0  0  0  0  0
  -28.3017  -26.3111   20.1884 O   0  0  0  0  0  0
  -26.5622  -34.8923   22.4645 O   0  0  0  0  0  0
  -23.5499  -32.1364   23.7275 O   0  0  0  0  0  0
  -29.7151  -18.6802   20.4949 C   0  0  0  0  0  0
  -31.7463  -17.5105   21.4436 C   0  0  0  0  0  0
  -29.0326  -23.5834   20.3111 C   0  0  0  0  0  0
  -28.4071  -22.0854   20.4814 C   0  0  0  0  0  0
  -27.9900  -24.8268   20.1269 C   0  0  0  0  0  0
  -30.2433  -17.3399   21.1590 C   0  0  2  0  0  0
  -29.9140  -19.0512   19.1899 N   0  0  0  0  0  0
  -29.2499  -19.7349   21.2086 N   0  0  0  0  0  0
  -29.5574  -20.3136   19.0624 N   0  0  0  0  0  0
  -29.1783  -20.7711   20.2853 N   0  0  0  0  0  0
  -29.8717  -15.9110   20.7074 N   0  0  0  0  0  0
  -31.4703  -12.5988   19.1548 H   0  0  0  0  0  0
  -30.3857  -11.5005   19.9585 H   0  0  0  0  0  0
  -29.7832  -11.7150   17.5284 H   0  0  0  0  0  0
  -29.6331  -13.4465   17.6962 H   0  0  0  0  0  0
  -27.8846  -11.2856   18.9139 H   0  0  0  0  0  0
  -27.3737  -12.5261   17.7992 H   0  0  0  0  0  0
  -27.6274  -14.2537   19.4574 H   0  0  0  0  0  0
  -28.7345  -12.1887   21.4184 H   0  0  0  0  0  0
  -28.4229  -13.8667   21.7862 H   0  0  0  0  0  0
  -25.2768   -9.5664   22.4786 H   0  0  0  0  0  0
  -23.9996   -7.4628   22.7475 H   0  0  0  0  0  0
  -21.0853   -8.8794   19.8969 H   0  0  0  0  0  0
  -22.3725  -10.9683   19.6179 H   0  0  0  0  0  0
  -21.2018   -7.6154   23.9712 H   0  0  0  0  0  0
  -21.1469   -6.0528   25.9066 H   0  0  0  0  0  0
  -22.0606   -2.7619   23.2849 H   0  0  0  0  0  0
  -22.4080  -11.9907   22.4848 H   0  0  0  0  0  0
  -21.1063  -13.1237   22.2594 H   0  0  0  0  0  0
  -24.6591  -15.8520   20.5286 H   0  0  0  0  0  0
  -26.2600  -15.6268   20.0464 H   0  0  0  0  0  0
  -26.7238  -32.5394   23.1066 H   0  0  0  0  0  0
  -25.0129  -33.9674   25.0404 H   0  0  0  0  0  0
  -22.7294  -31.3013   21.3973 H   0  0  0  0  0  0
  -23.3747  -35.9597   23.3303 H   0  0  0  0  0  0
  -24.3562  -36.8882   22.2045 H   0  0  0  0  0  0
  -23.7235  -37.6475   23.6648 H   0  0  0  0  0  0
  -26.1155  -31.5180   20.6058 H   0  0  0  0  0  0
  -26.8608  -30.8164   22.0099 H   0  0  0  0  0  0
  -28.1251  -28.8975   21.2150 H   0  0  0  0  0  0
  -25.9130  -25.9051   19.0016 H   0  0  0  0  0  0
  -23.9670  -27.3113   19.0062 H   0  0  0  0  0  0
  -23.7883  -30.5957   19.4059 H   0  0  0  0  0  0
  -22.7686  -29.2589   19.8447 H   0  0  0  0  0  0
  -25.1296  -36.1892   25.0813 H   0  0  0  0  0  0
  -20.9983  -28.3317   24.1395 H   0  0  0  0  0  0
  -20.5703  -26.2337   23.3634 H   0  0  0  0  0  0
  -21.6648  -26.7474   22.1203 H   0  0  0  0  0  0
  -19.6895  -25.6324   21.1252 H   0  0  0  0  0  0
  -19.6676  -27.3235   20.6777 H   0  0  0  0  0  0
  -17.4198  -26.6704   21.4041 H   0  0  0  0  0  0
  -18.0309  -26.0115   22.9052 H   0  0  0  0  0  0
  -19.7956  -30.7306   24.2243 H   0  0  0  0  0  0
  -17.5042  -31.6289   24.5196 H   0  0  0  0  0  0
  -15.5365  -30.3026   23.7694 H   0  0  0  0  0  0
  -15.8672  -28.0884   22.7047 H   0  0  0  0  0  0
  -24.5929  -30.7083   25.7840 H   0  0  0  0  0  0
  -24.8910  -32.2981   26.4769 H   0  0  0  0  0  0
  -25.8070  -30.9084   27.0281 H   0  0  0  0  0  0
  -26.2954  -29.6747   24.1194 H   0  0  0  0  0  0
  -27.3954  -29.7233   25.4773 H   0  0  0  0  0  0
  -27.8871  -30.4237   23.9532 H   0  0  0  0  0  0
  -27.2639  -33.3632   26.2069 H   0  0  0  0  0  0
  -28.3921  -32.6864   25.0406 H   0  0  0  0  0  0
  -28.0652  -31.8452   26.5490 H   0  0  0  0  0  0
  -28.2600  -38.0076   24.7520 H   0  0  0  0  0  0
  -28.1040  -36.2613   24.6286 H   0  0  0  0  0  0
  -27.2276  -37.1453   25.8865 H   0  0  0  0  0  0
  -20.9418  -29.8792   21.6862 H   0  0  0  0  0  0
  -26.0135  -38.2830   24.1459 H   0  0  0  0  0  0
  -32.1235  -16.7396   22.1146 H   0  0  0  0  0  0
  -31.9351  -18.4715   21.9232 H   0  0  0  0  0  0
  -32.3299  -17.4868   20.5226 H   0  0  0  0  0  0
  -29.7160  -23.5809   19.4620 H   0  0  0  0  0  0
  -29.6561  -23.7794   21.1841 H   0  0  0  0  0  0
  -27.5643  -22.0223   19.7937 H   0  0  0  0  0  0
  -27.9502  -22.0338   21.4706 H   0  0  0  0  0  0
  -27.5501  -24.6378   19.1484 H   0  0  0  0  0  0
  -27.1940  -24.6639   20.8550 H   0  0  0  0  0  0
  -29.7846  -17.3583   22.1482 H   0  0  0  0  0  0
  -28.8813  -15.7344   20.7662 H   0  0  0  0  0  0
  1 25  1  0  0  0
  1 30  2  0  0  0
  1 81  1  0  0  0
  2  3  1  0  0  0
  2 25  1  0  0  0
  2 82  1  0  0  0
  2 83  1  0  0  0
  3  4  1  0  0  0
  3 84  1  0  0  0
  3 85  1  0  0  0
  4  5  1  0  0  0
  4 86  1  0  0  0
  4 87  1  0  0  0
  5  6  1  0  0  0
  5 26  1  0  0  0
  5 88  1  0  0  0
  6 25  1  0  0  0
  6 89  1  0  0  0
  6 90  1  0  0  0
  7  8  2  0  0  0
  7 26  1  0  0  0
  7 29  1  0  0  0
  8  9  1  0  0  0
  8 22  1  0  0  0
  9 10  1  0  0  0
  9 27  2  0  0  0
 10 11  2  0  0  0
 10 15  1  0  0  0
 11 12  1  0  0  0
 11 91  1  0  0  0
 12 13  2  0  0  0
 12 92  1  0  0  0
 13 14  1  0  0  0
 13 31  1  0  0  0
 14 15  2  0  0  0
 14 93  1  0  0  0
 15 94  1  0  0  0
 16 17  2  0  0  0
 16 21  1  0  0  0
 16 31  1  0  0  0
 17 18  1  0  0  0
 17 95  1  0  0  0
 18 19  2  0  0  0
 18 96  1  0  0  0
 19 20  1  0  0  0
 19 24  1  0  0  0
 20 21  2  0  0  0
 20 97  1  0  0  0
 21 23  1  0  0  0
 22 28  1  0  0  0
 22 32  2  0  0  0
 26 27  1  0  0  0
 28 98  1  0  0  0
 28 99  1  0  0  0
 29100  1  0  0  0
 29101  1  0  0  0
 33 34  1  0  0  0
 33 66  1  0  0  0
 33 70  2  0  0  0
 34 36  1  0  0  0
 34 59  1  0  0  0
 34102  1  0  0  0
 35 44  2  0  0  0
 35 45  1  0  0  0
 35 68  1  0  0  0
 36 56  1  0  0  0
 36103  1  0  0  0
 37 39  1  0  0  0
 37 47  1  0  0  0
 37 66  1  0  0  0
 37104  1  0  0  0
 38 43  2  0  0  0
 38 46  1  0  0  0
 38 47  1  0  0  0
 39 64  1  0  0  0
 39 67  2  0  0  0
 40 52  1  0  0  0
 40 53  2  0  0  0
 40 58  1  0  0  0
 41105  1  0  0  0
 41106  1  0  0  0
 41107  1  0  0  0
 41 48  1  0  0  0
 42 43  1  0  0  0
 42 66  1  0  0  0
 42108  1  0  0  0
 42109  1  0  0  0
 43 44  1  0  0  0
 44110  1  0  0  0
 45 46  2  0  0  0
 45111  1  0  0  0
 46112  1  0  0  0
 47113  1  0  0  0
 47114  1  0  0  0
 48 56  1  0  0  0
 48 65  1  0  0  0
 48115  1  0  0  0
 49 50  1  0  0  0
 49 53  1  0  0  0
 49 64  1  0  0  0
 49116  1  0  0  0
 50 51  1  0  0  0
 50117  1  0  0  0
 50118  1  0  0  0
 51 52  1  0  0  0
 51119  1  0  0  0
 51120  1  0  0  0
 52121  1  0  0  0
 52122  1  0  0  0
 53 54  1  0  0  0
 54 55  2  0  0  0
 54123  1  0  0  0
 55 57  1  0  0  0
 55124  1  0  0  0
 56 69  2  0  0  0
 57 58  2  0  0  0
 57125  1  0  0  0
 58126  1  0  0  0
 59 60  1  0  0  0
 59 61  1  0  0  0
 59 62  1  0  0  0
 60127  1  0  0  0
 60128  1  0  0  0
 60129  1  0  0  0
 61130  1  0  0  0
 61131  1  0  0  0
 61132  1  0  0  0
 62133  1  0  0  0
 62134  1  0  0  0
 62135  1  0  0  0
 63 65  1  0  0  0
 63136  1  0  0  0
 63137  1  0  0  0
 63138  1  0  0  0
 64139  1  0  0  0
 65140  1  0  0  0
 68 75  1  0  0  0
 71 76  1  0  0  0
 71 77  1  0  0  0
 71 78  2  0  0  0
 72141  1  0  0  0
 72142  1  0  0  0
 72143  1  0  0  0
 72 76  1  0  0  0
 73 74  1  0  0  0
 73 75  1  0  0  0
 73144  1  0  0  0
 73145  1  0  0  0
 74 80  1  0  0  0
 74146  1  0  0  0
 74147  1  0  0  0
 75148  1  0  0  0
 75149  1  0  0  0
 76 81  1  0  0  0
 76150  1  0  0  0
 77 79  2  0  0  0
 78 80  1  0  0  0
 79 80  1  0  0  0
 81151  1  0  0  0
M  ISO  4   1 100  68 101  75 101  81 100
M  END
> <chiral flag>
0

> <version>
0

> <s_m_source_file>
/data/baiqing/PycharmProjects/Reinvent-master-3.2/result/LINK_invent/BTK/process_docking_weight1_custom_sum_contain_oxygen_bond_distance_aromatic_linkinvent_7_9_3/rearranged_h_0058.sdf

> <i_m_source_file_index>
90

> <r_mmod_Potential_Energy-OPLS-2005>
72.0983581542969

> <r_mmod_Stretch_Energy-OPLS-2005>
137.074676513672

> <r_mmod_Bend_Energy-OPLS-2005>
201.641326904297

> <r_mmod_Torsional_Energy-OPLS-2005>
205.723052978516

> <r_mmod_Improper_Torsional_Energy-OPLS-2005>
8.2426176071167

> <r_mmod_Van_der_Waal_Energy-OPLS-2005>
121.099876403809

> <r_mmod_Electrostatic_Energy-OPLS-2005>
-465.285278320312

> <r_mmod_Solvation_Energy-OPLS-2005>
-234.936889648438

> <b_mmod_Minimization_Converged-OPLS-2005>
0

> <r_mmod_RMS_Derivative-OPLS-2005>
1.98589289188385

$$$$
90
                    3D
 Structure written by MMmdl.
166174  0  0  1  0            999 V2000
  -30.4569  -15.2760   20.3562 C   0  0  0  0  0  0
  -30.4320  -12.8005   19.5472 C   0  0  0  0  0  0
  -29.5383  -12.5773   18.2996 C   0  0  0  0  0  0
  -28.0853  -12.3038   18.7161 C   0  0  0  0  0  0
  -27.6094  -13.2849   19.8148 C   0  0  2  0  0  0
  -28.6345  -13.4776   20.9514 C   0  0  0  0  0  0
  -25.2386  -13.8291   20.5712 C   0  0  0  0  0  0
  -24.1760  -13.0485   20.9252 C   0  0  0  0  0  0
  -24.6406  -11.6961   20.8740 C   0  0  0  0  0  0
  -23.9100  -10.4315   21.0375 C   0  0  0  0  0  0
  -24.3653   -9.4228   21.9154 C   0  0  0  0  0  0
  -23.6298   -8.2281   22.0742 C   0  0  0  0  0  0
  -22.4272   -8.0324   21.3543 C   0  0  0  0  0  0
  -21.9903   -9.0315   20.4671 C   0  0  0  0  0  0
  -22.7263  -10.2171   20.3043 C   0  0  0  0  0  0
  -21.6872   -6.0750   22.5272 C   0  0  0  0  0  0
  -21.4055   -6.5646   23.8218 C   0  0  0  0  0  0
  -21.3637   -5.6793   24.9174 C   0  0  0  0  0  0
  -21.6027   -4.3051   24.7223 C   0  0  0  0  0  0
  -21.8806   -3.8152   23.4352 C   0  0  0  0  0  0
  -21.9198   -4.6972   22.3411 C   0  0  0  0  0  0
  -22.7774  -13.5201   21.1913 C   0  0  0  0  0  0
  -22.1665   -4.2145   21.0995 F   0  0  0  0  0  0
  -21.5586   -3.4541   25.7740 F   0  0  0  0  0  0
  -29.8880  -13.9636   20.3500 N   0  0  0  0  0  0
  -26.2804  -12.9586   20.3153 N   0  0  0  0  0  0
  -25.9334  -11.6677   20.5683 N   0  0  0  0  0  0
  -22.0430  -12.8179   22.0460 N   0  0  0  0  0  0
  -25.4019  -15.2047   20.4155 N   0  0  0  0  0  0
  -31.6634  -15.2411   20.0649 O   0  0  0  0  0  0
  -21.6648   -6.8916   21.4244 O   0  0  0  0  0  0
  -22.3421  -14.5497   20.6769 O   0  0  0  0  0  0
  -24.6608  -31.8229   23.1698 C   0  0  0  0  0  0
  -25.9299  -32.4563   23.8142 C   0  0  1  0  0  0
  -27.2212  -26.9305   20.1853 C   0  0  0  0  0  0
  -25.5971  -33.8388   24.2027 N   0  0  0  0  0  0
  -23.4744  -30.4326   21.5216 C   0  0  2  0  0  0
  -24.9287  -28.8255   20.1045 C   0  0  0  0  0  0
  -22.7637  -29.4410   22.4775 C   0  0  0  0  0  0
  -18.0330  -28.1418   22.8470 C   0  0  0  0  0  0
  -24.1502  -36.7219   23.2641 C   0  0  0  0  0  0
  -26.0399  -30.6294   21.4009 C   0  0  0  0  0  0
  -26.1086  -29.2215   20.7458 C   0  0  0  0  0  0
  -27.2457  -28.2949   20.7643 C   0  0  0  0  0  0
  -26.0136  -26.6878   19.4932 C   0  0  0  0  0  0
  -24.9089  -27.5810   19.4535 C   0  0  0  0  0  0
  -23.7120  -29.7517   20.1444 C   0  0  0  0  0  0
  -25.4143  -36.2941   24.0264 C   0  0  1  0  0  0
  -20.5944  -28.3752   23.1178 C   0  0  2  0  0  0
  -20.6804  -26.9437   22.5391 C   0  0  0  0  0  0
  -19.5777  -26.6383   21.5208 C   0  0  0  0  0  0
  -18.1967  -26.7948   22.1634 C   0  0  0  0  0  0
  -19.1591  -28.8902   23.2814 C   0  0  0  0  0  0
  -18.9500  -30.1496   23.8838 C   0  0  0  0  0  0
  -17.6494  -30.6600   24.0558 C   0  0  0  0  0  0
  -25.9106  -34.9325   23.4964 C   0  0  0  0  0  0
  -16.5381  -29.9080   23.6366 C   0  0  0  0  0  0
  -16.7310  -28.6514   23.0358 C   0  0  0  0  0  0
  -26.4578  -31.6527   25.0678 C   0  0  0  0  0  0
  -25.3716  -31.3804   26.1343 C   0  0  0  0  0  0
  -27.0471  -30.2890   24.6412 C   0  0  0  0  0  0
  -27.6038  -32.4374   25.7500 C   0  0  0  0  0  0
  -27.5569  -37.1758   24.8447 C   0  0  0  0  0  0
  -21.4306  -29.3028   22.3509 N   0  0  0  0  0  0
  -26.4279  -37.3684   23.9385 N   0  0  0  0  0  0
  -24.7461  -30.9873   22.0858 N   0  0  0  0  0  0
  -23.4173  -28.7999   23.3041 O   0  0  0  0  0  0
  -28.2284  -25.8315   20.3067 O   0  0  0  0  0  0
  -26.5732  -34.8877   22.4576 O   0  0  0  0  0  0
  -23.5676  -32.1196   23.6792 O   0  0  0  0  0  0
  -29.9622  -18.1303   19.8275 C   0  0  0  0  0  0
  -29.7471  -16.8048   20.5588 C   0  0  0  0  0  0
  -29.2277  -19.3074   20.3155 C   0  0  0  0  0  0
  -26.3734  -19.1067   17.0414 C   0  0  0  0  0  0
  -29.9963  -21.2045   18.7403 C   0  0  0  0  0  0
  -26.2386  -20.7888   19.7625 C   0  0  0  0  0  0
  -27.2378  -21.8543   17.7712 C   0  0  0  0  0  0
  -27.7914  -19.1619   22.4402 C   0  0  0  0  0  0
  -27.4595  -19.3617   18.1025 C   0  0  0  0  0  0
  -28.1077  -24.2291   19.9187 C   0  0  0  0  0  0
  -28.8232  -20.9446   19.7222 C   0  0  1  0  0  0
  -27.4789  -20.7501   18.8440 C   0  0  0  0  0  0
  -28.7228  -22.6104   20.4979 C   0  0  0  0  0  0
  -28.9420  -17.2489   21.5391 N   0  0  0  0  0  0
  -28.6596  -18.6211   21.4131 N   0  0  0  0  0  0
  -28.0217  -22.4470   21.6154 F   0  0  0  0  0  0
  -29.9693  -22.8644   20.8968 F   0  0  0  0  0  0
  -31.4583  -12.9728   19.2225 H   0  0  0  0  0  0
  -30.4747  -11.8950   20.1559 H   0  0  0  0  0  0
  -29.9191  -11.7506   17.6994 H   0  0  0  0  0  0
  -29.5758  -13.4607   17.6611 H   0  0  0  0  0  0
  -28.0435  -11.2834   19.0983 H   0  0  0  0  0  0
  -27.4209  -12.3344   17.8509 H   0  0  0  0  0  0
  -27.5202  -14.2456   19.3067 H   0  0  0  0  0  0
  -28.7808  -12.5538   21.5122 H   0  0  0  0  0  0
  -28.2686  -14.2184   21.6623 H   0  0  0  0  0  0
  -25.2820   -9.5696   22.4692 H   0  0  0  0  0  0
  -24.0012   -7.4677   22.7454 H   0  0  0  0  0  0
  -21.0823   -8.8871   19.8994 H   0  0  0  0  0  0
  -22.3743  -10.9709   19.6136 H   0  0  0  0  0  0
  -21.2089   -7.6161   23.9726 H   0  0  0  0  0  0
  -21.1438   -6.0532   25.9073 H   0  0  0  0  0  0
  -22.0589   -2.7608   23.2876 H   0  0  0  0  0  0
  -22.4062  -11.9851   22.4866 H   0  0  0  0  0  0
  -21.1040  -13.1181   22.2645 H   0  0  0  0  0  0
  -24.6435  -15.8648   20.5460 H   0  0  0  0  0  0
  -26.2618  -15.6471   20.1137 H   0  0  0  0  0  0
  -26.7344  -32.5097   23.0827 H   0  0  0  0  0  0
  -25.0013  -33.9488   25.0100 H   0  0  0  0  0  0
  -22.7886  -31.2651   21.3558 H   0  0  0  0  0  0
  -23.3748  -35.9567   23.3263 H   0  0  0  0  0  0
  -24.3559  -36.8937   22.2063 H   0  0  0  0  0  0
  -23.7301  -37.6400   23.6764 H   0  0  0  0  0  0
  -26.2121  -31.3730   20.6207 H   0  0  0  0  0  0
  -26.9020  -30.6815   22.0546 H   0  0  0  0  0  0
  -28.1346  -28.5986   21.3018 H   0  0  0  0  0  0
  -25.8869  -25.7368   18.9972 H   0  0  0  0  0  0
  -24.0201  -27.2757   18.9196 H   0  0  0  0  0  0
  -23.8485  -30.5233   19.3857 H   0  0  0  0  0  0
  -22.8239  -29.1975   19.8368 H   0  0  0  0  0  0
  -25.1355  -36.1695   25.0750 H   0  0  0  0  0  0
  -21.0043  -28.3375   24.1294 H   0  0  0  0  0  0
  -20.5699  -26.2371   23.3635 H   0  0  0  0  0  0
  -21.6668  -26.7429   22.1188 H   0  0  0  0  0  0
  -19.6941  -25.6278   21.1281 H   0  0  0  0  0  0
  -19.6723  -27.3161   20.6712 H   0  0  0  0  0  0
  -17.4227  -26.6671   21.4052 H   0  0  0  0  0  0
  -18.0383  -26.0114   22.9059 H   0  0  0  0  0  0
  -19.7965  -30.7345   24.2165 H   0  0  0  0  0  0
  -17.5037  -31.6279   24.5159 H   0  0  0  0  0  0
  -15.5372  -30.2953   23.7720 H   0  0  0  0  0  0
  -15.8724  -28.0811   22.7081 H   0  0  0  0  0  0
  -24.5800  -30.7298   25.7613 H   0  0  0  0  0  0
  -24.9057  -32.3056   26.4755 H   0  0  0  0  0  0
  -25.7924  -30.8904   27.0134 H   0  0  0  0  0  0
  -26.3141  -29.6579   24.1381 H   0  0  0  0  0  0
  -27.3954  -29.7222   25.5054 H   0  0  0  0  0  0
  -27.9097  -30.4046   23.9845 H   0  0  0  0  0  0
  -27.2511  -33.3620   26.2090 H   0  0  0  0  0  0
  -28.3852  -32.7066   25.0378 H   0  0  0  0  0  0
  -28.0743  -31.8554   26.5436 H   0  0  0  0  0  0
  -28.2534  -38.0101   24.7487 H   0  0  0  0  0  0
  -28.1116  -36.2616   24.6267 H   0  0  0  0  0  0
  -27.2287  -37.1385   25.8853 H   0  0  0  0  0  0
  -20.9533  -29.8693   21.6641 H   0  0  0  0  0  0
  -26.0097  -38.2719   24.1438 H   0  0  0  0  0  0
  -30.5888  -18.1856   18.9485 H   0  0  0  0  0  0
  -26.4079  -18.0660   16.7180 H   0  0  0  0  0  0
  -26.5243  -19.7085   16.1455 H   0  0  0  0  0  0
  -25.3706  -19.2937   17.4210 H   0  0  0  0  0  0
  -30.0521  -20.5004   17.9140 H   0  0  0  0  0  0
  -30.9476  -21.1291   19.2686 H   0  0  0  0  0  0
  -29.9577  -22.2014   18.3043 H   0  0  0  0  0  0
  -25.3127  -20.6751   19.2021 H   0  0  0  0  0  0
  -26.1454  -21.7283   20.3022 H   0  0  0  0  0  0
  -26.2557  -19.9842   20.4891 H   0  0  0  0  0  0
  -26.3594  -21.6455   17.1643 H   0  0  0  0  0  0
  -28.0664  -21.9872   17.0778 H   0  0  0  0  0  0
  -26.9835  -22.8164   18.1911 H   0  0  0  0  0  0
  -27.8202  -20.2467   22.4326 H   0  0  0  0  0  0
  -28.1136  -18.8218   23.4248 H   0  0  0  0  0  0
  -26.7675  -18.8261   22.2789 H   0  0  0  0  0  0
  -28.4100  -19.1818   17.6028 H   0  0  0  0  0  0
  -27.3476  -18.5533   18.8245 H   0  0  0  0  0  0
  -27.0297  -24.0819   19.8981 H   0  0  0  0  0  0
  -28.4303  -24.2711   18.8784 H   0  0  0  0  0  0
  1 25  1  0  0  0
  1 30  2  0  0  0
  1 72  1  0  0  0
  2  3  1  0  0  0
  2 25  1  0  0  0
  2 88  1  0  0  0
  2 89  1  0  0  0
  3  4  1  0  0  0
  3 90  1  0  0  0
  3 91  1  0  0  0
  4  5  1  0  0  0
  4 92  1  0  0  0
  4 93  1  0  0  0
  5  6  1  0  0  0
  5 26  1  0  0  0
  5 94  1  0  0  0
  6 25  1  0  0  0
  6 95  1  0  0  0
  6 96  1  0  0  0
  7  8  2  0  0  0
  7 26  1  0  0  0
  7 29  1  0  0  0
  8  9  1  0  0  0
  8 22  1  0  0  0
  9 10  1  0  0  0
  9 27  2  0  0  0
 10 11  2  0  0  0
 10 15  1  0  0  0
 11 12  1  0  0  0
 11 97  1  0  0  0
 12 13  2  0  0  0
 12 98  1  0  0  0
 13 14  1  0  0  0
 13 31  1  0  0  0
 14 15  2  0  0  0
 14 99  1  0  0  0
 15100  1  0  0  0
 16 17  2  0  0  0
 16 21  1  0  0  0
 16 31  1  0  0  0
 17 18  1  0  0  0
 17101  1  0  0  0
 18 19  2  0  0  0
 18102  1  0  0  0
 19 20  1  0  0  0
 19 24  1  0  0  0
 20 21  2  0  0  0
 20103  1  0  0  0
 21 23  1  0  0  0
 22 28  1  0  0  0
 22 32  2  0  0  0
 26 27  1  0  0  0
 28104  1  0  0  0
 28105  1  0  0  0
 29106  1  0  0  0
 29107  1  0  0  0
 33 34  1  0  0  0
 33 66  1  0  0  0
 33 70  2  0  0  0
 34 36  1  0  0  0
 34 59  1  0  0  0
 34108  1  0  0  0
 35 44  2  0  0  0
 35 45  1  0  0  0
 35 68  1  0  0  0
 36 56  1  0  0  0
 36109  1  0  0  0
 37 39  1  0  0  0
 37 47  1  0  0  0
 37 66  1  0  0  0
 37110  1  0  0  0
 38 43  2  0  0  0
 38 46  1  0  0  0
 38 47  1  0  0  0
 39 64  1  0  0  0
 39 67  2  0  0  0
 40 52  1  0  0  0
 40 53  2  0  0  0
 40 58  1  0  0  0
 41111  1  0  0  0
 41112  1  0  0  0
 41113  1  0  0  0
 41 48  1  0  0  0
 42 43  1  0  0  0
 42 66  1  0  0  0
 42114  1  0  0  0
 42115  1  0  0  0
 43 44  1  0  0  0
 44116  1  0  0  0
 45 46  2  0  0  0
 45117  1  0  0  0
 46118  1  0  0  0
 47119  1  0  0  0
 47120  1  0  0  0
 48 56  1  0  0  0
 48 65  1  0  0  0
 48121  1  0  0  0
 49 50  1  0  0  0
 49 53  1  0  0  0
 49 64  1  0  0  0
 49122  1  0  0  0
 50 51  1  0  0  0
 50123  1  0  0  0
 50124  1  0  0  0
 51 52  1  0  0  0
 51125  1  0  0  0
 51126  1  0  0  0
 52127  1  0  0  0
 52128  1  0  0  0
 53 54  1  0  0  0
 54 55  2  0  0  0
 54129  1  0  0  0
 55 57  1  0  0  0
 55130  1  0  0  0
 56 69  2  0  0  0
 57 58  2  0  0  0
 57131  1  0  0  0
 58132  1  0  0  0
 59 60  1  0  0  0
 59 61  1  0  0  0
 59 62  1  0  0  0
 60133  1  0  0  0
 60134  1  0  0  0
 60135  1  0  0  0
 61136  1  0  0  0
 61137  1  0  0  0
 61138  1  0  0  0
 62139  1  0  0  0
 62140  1  0  0  0
 62141  1  0  0  0
 63 65  1  0  0  0
 63142  1  0  0  0
 63143  1  0  0  0
 63144  1  0  0  0
 64145  1  0  0  0
 65146  1  0  0  0
 68 80  1  0  0  0
 71 72  1  0  0  0
 71 73  2  0  0  0
 71147  1  0  0  0
 72 84  2  0  0  0
 73 81  1  0  0  0
 73 85  1  0  0  0
 74 79  1  0  0  0
 74148  1  0  0  0
 74149  1  0  0  0
 74150  1  0  0  0
 75151  1  0  0  0
 75152  1  0  0  0
 75153  1  0  0  0
 75 81  1  0  0  0
 76154  1  0  0  0
 76155  1  0  0  0
 76156  1  0  0  0
 76 82  1  0  0  0
 77 82  1  0  0  0
 77157  1  0  0  0
 77158  1  0  0  0
 77159  1  0  0  0
 78 85  1  0  0  0
 78160  1  0  0  0
 78161  1  0  0  0
 78162  1  0  0  0
 79 82  1  0  0  0
 79163  1  0  0  0
 79164  1  0  0  0
 80 83  1  0  0  0
 80165  1  0  0  0
 80166  1  0  0  0
 81 82  1  0  0  0
 81 83  1  0  0  0
 83 86  1  0  0  0
 83 87  1  0  0  0
 84 85  1  0  0  0
M  ISO  4   1 100  68 101  72 100  80 101
M  END
> <chiral flag>
0

> <version>
0

> <s_m_source_file>
/data/baiqing/PycharmProjects/Reinvent-master-3.2/result/LINK_invent/BTK/process_docking_weight1_custom_sum_contain_oxygen_bond_distance_aromatic_linkinvent_7_9_3/rearranged_h_0058.sdf

> <i_m_source_file_index>
91

> <r_mmod_Potential_Energy-OPLS-2005>
1578.90393066406

> <r_mmod_Stretch_Energy-OPLS-2005>
653.34326171875

> <r_mmod_Bend_Energy-OPLS-2005>
485.161437988281

> <r_mmod_Torsional_Energy-OPLS-2005>
251.636428833008

> <r_mmod_Improper_Torsional_Energy-OPLS-2005>
4.00276327133179

> <r_mmod_Van_der_Waal_Energy-OPLS-2005>
130.814163208008

> <r_mmod_Electrostatic_Energy-OPLS-2005>
-215.003463745117

> <r_mmod_Solvation_Energy-OPLS-2005>
-189.552856445312

> <b_mmod_Minimization_Converged-OPLS-2005>
0

> <r_mmod_RMS_Derivative-OPLS-2005>
4.576735496521

$$$$
91
                    3D
 Structure written by MMmdl.
153161  0  0  1  0            999 V2000
  -30.5119  -15.0165   20.4708 C   0  0  0  0  0  0
  -30.4515  -12.6517   19.4893 C   0  0  0  0  0  0
  -29.5219  -12.5631   18.2529 C   0  0  0  0  0  0
  -28.0539  -12.3334   18.6658 C   0  0  0  0  0  0
  -27.6327  -13.2417   19.8495 C   0  0  2  0  0  0
  -28.6849  -13.1983   20.9759 C   0  0  0  0  0  0
  -25.2414  -13.8175   20.5633 C   0  0  0  0  0  0
  -24.1754  -13.0403   20.9204 C   0  0  0  0  0  0
  -24.6390  -11.6897   20.8759 C   0  0  0  0  0  0
  -23.9078  -10.4274   21.0416 C   0  0  0  0  0  0
  -24.3629   -9.4191   21.9193 C   0  0  0  0  0  0
  -23.6300   -8.2231   22.0759 C   0  0  0  0  0  0
  -22.4283   -8.0275   21.3544 C   0  0  0  0  0  0
  -21.9919   -9.0248   20.4647 C   0  0  0  0  0  0
  -22.7251  -10.2124   20.3062 C   0  0  0  0  0  0
  -21.6850   -6.0733   22.5279 C   0  0  0  0  0  0
  -21.4009   -6.5637   23.8212 C   0  0  0  0  0  0
  -21.3657   -5.6790   24.9172 C   0  0  0  0  0  0
  -21.6048   -4.3054   24.7223 C   0  0  0  0  0  0
  -21.8817   -3.8144   23.4342 C   0  0  0  0  0  0
  -21.9189   -4.6962   22.3401 C   0  0  0  0  0  0
  -22.7778  -13.5176   21.1865 C   0  0  0  0  0  0
  -22.1658   -4.2148   21.0978 F   0  0  0  0  0  0
  -21.5636   -3.4537   25.7735 F   0  0  0  0  0  0
  -29.9343  -13.7293   20.3960 N   0  0  0  0  0  0
  -26.2884  -12.9414   20.3276 N   0  0  0  0  0  0
  -25.9326  -11.6547   20.5768 N   0  0  0  0  0  0
  -22.0445  -12.8178   22.0444 N   0  0  0  0  0  0
  -25.3939  -15.1897   20.3925 N   0  0  0  0  0  0
  -31.6968  -15.0747   20.1131 O   0  0  0  0  0  0
  -21.6640   -6.8877   21.4243 O   0  0  0  0  0  0
  -22.3447  -14.5475   20.6706 O   0  0  0  0  0  0
  -24.6462  -31.8405   23.1839 C   0  0  0  0  0  0
  -25.9218  -32.4677   23.8245 C   0  0  1  0  0  0
  -27.2247  -27.1061   20.1651 C   0  0  0  0  0  0
  -25.5953  -33.8483   24.2166 N   0  0  0  0  0  0
  -23.4518  -30.4564   21.5306 C   0  0  2  0  0  0
  -24.9027  -28.8695   20.1173 C   0  0  0  0  0  0
  -22.7579  -29.4529   22.4856 C   0  0  0  0  0  0
  -18.0306  -28.1396   22.8476 C   0  0  0  0  0  0
  -24.1493  -36.7248   23.2644 C   0  0  0  0  0  0
  -26.0089  -30.7053   21.3852 C   0  0  0  0  0  0
  -26.0815  -29.3106   20.7325 C   0  0  0  0  0  0
  -27.2451  -28.4483   20.7310 C   0  0  0  0  0  0
  -26.0179  -26.7654   19.5198 C   0  0  0  0  0  0
  -24.8847  -27.6110   19.4945 C   0  0  0  0  0  0
  -23.6808  -29.7774   20.1535 C   0  0  0  0  0  0
  -25.4128  -36.3022   24.0313 C   0  0  1  0  0  0
  -20.5918  -28.3726   23.1230 C   0  0  2  0  0  0
  -20.6790  -26.9427   22.5403 C   0  0  0  0  0  0
  -19.5764  -26.6380   21.5211 C   0  0  0  0  0  0
  -18.1945  -26.7933   22.1625 C   0  0  0  0  0  0
  -19.1562  -28.8880   23.2843 C   0  0  0  0  0  0
  -18.9479  -30.1474   23.8871 C   0  0  0  0  0  0
  -17.6475  -30.6592   24.0557 C   0  0  0  0  0  0
  -25.9078  -34.9397   23.5053 C   0  0  0  0  0  0
  -16.5366  -29.9084   23.6335 C   0  0  0  0  0  0
  -16.7290  -28.6502   23.0358 C   0  0  0  0  0  0
  -26.4530  -31.6555   25.0699 C   0  0  0  0  0  0
  -25.3711  -31.3752   26.1392 C   0  0  0  0  0  0
  -27.0400  -30.2948   24.6299 C   0  0  0  0  0  0
  -27.6054  -32.4328   25.7489 C   0  0  0  0  0  0
  -27.5573  -37.1786   24.8470 C   0  0  0  0  0  0
  -21.4268  -29.3047   22.3601 N   0  0  0  0  0  0
  -26.4292  -37.3736   23.9402 N   0  0  0  0  0  0
  -24.7224  -31.0230   22.0886 N   0  0  0  0  0  0
  -23.4204  -28.8088   23.3029 O   0  0  0  0  0  0
  -28.2936  -26.1294   20.1616 O   0  0  0  0  0  0
  -26.5669  -34.8902   22.4636 O   0  0  0  0  0  0
  -23.5573  -32.1296   23.7038 O   0  0  0  0  0  0
  -27.2908  -19.1050   18.5612 C   0  0  0  0  0  0
  -27.5754  -20.3366   19.0734 C   0  0  0  0  0  0
  -29.0314  -18.8357   19.8796 C   0  0  0  0  0  0
  -28.6871  -16.2145   21.7044 C   0  0  0  0  0  0
  -30.1263  -17.7864   20.4943 C   0  0  0  0  0  0
  -28.7823  -23.2041   19.8711 C   0  0  0  0  0  0
  -29.0636  -21.6565   20.5768 C   0  0  0  0  0  0
  -28.1197  -24.6180   20.5627 C   0  0  0  0  0  0
  -28.1962  -18.1934   19.0606 N   0  0  0  0  0  0
  -28.6976  -20.2662   19.9033 N   0  0  0  0  0  0
  -29.7656  -16.2377   20.7114 N   0  0  0  0  0  0
  -31.4726  -12.8473   19.1597 H   0  0  0  0  0  0
  -30.5006  -11.6915   20.0052 H   0  0  0  0  0  0
  -29.8542  -11.7684   17.5833 H   0  0  0  0  0  0
  -29.5940  -13.4906   17.6834 H   0  0  0  0  0  0
  -27.9497  -11.2861   18.9531 H   0  0  0  0  0  0
  -27.3897  -12.4823   17.8133 H   0  0  0  0  0  0
  -27.6096  -14.2581   19.4554 H   0  0  0  0  0  0
  -28.8166  -12.1726   21.3239 H   0  0  0  0  0  0
  -28.3567  -13.7268   21.8642 H   0  0  0  0  0  0
  -25.2774   -9.5669   22.4766 H   0  0  0  0  0  0
  -24.0003   -7.4621   22.7481 H   0  0  0  0  0  0
  -21.0847   -8.8772   19.8955 H   0  0  0  0  0  0
  -22.3712  -10.9666   19.6174 H   0  0  0  0  0  0
  -21.2004   -7.6147   23.9714 H   0  0  0  0  0  0
  -21.1484   -6.0521   25.9076 H   0  0  0  0  0  0
  -22.0601   -2.7608   23.2842 H   0  0  0  0  0  0
  -22.4073  -11.9851   22.4846 H   0  0  0  0  0  0
  -21.1067  -13.1202   22.2655 H   0  0  0  0  0  0
  -24.6171  -15.8320   20.5031 H   0  0  0  0  0  0
  -26.2328  -15.6411   20.0490 H   0  0  0  0  0  0
  -26.7285  -32.5275   23.0972 H   0  0  0  0  0  0
  -25.0072  -33.9588   25.0295 H   0  0  0  0  0  0
  -22.7566  -31.2829   21.3704 H   0  0  0  0  0  0
  -23.3754  -35.9582   23.3309 H   0  0  0  0  0  0
  -24.3571  -36.8879   22.2057 H   0  0  0  0  0  0
  -23.7253  -37.6448   23.6682 H   0  0  0  0  0  0
  -26.1652  -31.4553   20.6083 H   0  0  0  0  0  0
  -26.8789  -30.7604   22.0282 H   0  0  0  0  0  0
  -28.1493  -28.7893   21.2156 H   0  0  0  0  0  0
  -25.9395  -25.8019   19.0367 H   0  0  0  0  0  0
  -23.9859  -27.2680   19.0006 H   0  0  0  0  0  0
  -23.8212  -30.5476   19.3943 H   0  0  0  0  0  0
  -22.7950  -29.2202   19.8433 H   0  0  0  0  0  0
  -25.1320  -36.1848   25.0806 H   0  0  0  0  0  0
  -21.0007  -28.3317   24.1352 H   0  0  0  0  0  0
  -20.5682  -26.2341   23.3624 H   0  0  0  0  0  0
  -21.6656  -26.7428   22.1203 H   0  0  0  0  0  0
  -19.6926  -25.6284   21.1260 H   0  0  0  0  0  0
  -19.6698  -27.3175   20.6728 H   0  0  0  0  0  0
  -17.4211  -26.6670   21.4031 H   0  0  0  0  0  0
  -18.0350  -26.0080   22.9029 H   0  0  0  0  0  0
  -19.7954  -30.7297   24.2229 H   0  0  0  0  0  0
  -17.5027  -31.6270   24.5164 H   0  0  0  0  0  0
  -15.5365  -30.2979   23.7672 H   0  0  0  0  0  0
  -15.8690  -28.0811   22.7091 H   0  0  0  0  0  0
  -24.5884  -30.7111   25.7705 H   0  0  0  0  0  0
  -24.8909  -32.2938   26.4773 H   0  0  0  0  0  0
  -25.7985  -30.8944   27.0201 H   0  0  0  0  0  0
  -26.3022  -29.6660   24.1303 H   0  0  0  0  0  0
  -27.4002  -29.7258   25.4879 H   0  0  0  0  0  0
  -27.8932  -30.4176   23.9625 H   0  0  0  0  0  0
  -27.2641  -33.3647   26.2009 H   0  0  0  0  0  0
  -28.3895  -32.6861   25.0341 H   0  0  0  0  0  0
  -28.0693  -31.8495   26.5454 H   0  0  0  0  0  0
  -28.2599  -38.0073   24.7491 H   0  0  0  0  0  0
  -28.1061  -36.2600   24.6334 H   0  0  0  0  0  0
  -27.2284  -37.1476   25.8872 H   0  0  0  0  0  0
  -20.9489  -29.8747   21.6760 H   0  0  0  0  0  0
  -26.0156  -38.2807   24.1387 H   0  0  0  0  0  0
  -26.4977  -18.8075   17.8893 H   0  0  0  0  0  0
  -27.0391  -21.2595   18.9049 H   0  0  0  0  0  0
  -28.9878  -15.6638   22.5967 H   0  0  0  0  0  0
  -27.7869  -15.7756   21.2870 H   0  0  0  0  0  0
  -28.4002  -17.2073   22.0530 H   0  0  0  0  0  0
  -30.4753  -18.1931   21.4434 H   0  0  0  0  0  0
  -30.9968  -17.8196   19.8386 H   0  0  0  0  0  0
  -28.2428  -23.0564   18.9378 H   0  0  0  0  0  0
  -29.7689  -23.5118   19.5250 H   0  0  0  0  0  0
  -28.5456  -21.6571   21.5363 H   0  0  0  0  0  0
  -30.1191  -21.6021   20.8451 H   0  0  0  0  0  0
  -28.4659  -24.6074   21.5964 H   0  0  0  0  0  0
  -27.0490  -24.4358   20.6540 H   0  0  0  0  0  0
  1 25  1  0  0  0
  1 30  2  0  0  0
  1 81  1  0  0  0
  2  3  1  0  0  0
  2 25  1  0  0  0
  2 82  1  0  0  0
  2 83  1  0  0  0
  3  4  1  0  0  0
  3 84  1  0  0  0
  3 85  1  0  0  0
  4  5  1  0  0  0
  4 86  1  0  0  0
  4 87  1  0  0  0
  5  6  1  0  0  0
  5 26  1  0  0  0
  5 88  1  0  0  0
  6 25  1  0  0  0
  6 89  1  0  0  0
  6 90  1  0  0  0
  7  8  2  0  0  0
  7 26  1  0  0  0
  7 29  1  0  0  0
  8  9  1  0  0  0
  8 22  1  0  0  0
  9 10  1  0  0  0
  9 27  2  0  0  0
 10 11  2  0  0  0
 10 15  1  0  0  0
 11 12  1  0  0  0
 11 91  1  0  0  0
 12 13  2  0  0  0
 12 92  1  0  0  0
 13 14  1  0  0  0
 13 31  1  0  0  0
 14 15  2  0  0  0
 14 93  1  0  0  0
 15 94  1  0  0  0
 16 17  2  0  0  0
 16 21  1  0  0  0
 16 31  1  0  0  0
 17 18  1  0  0  0
 17 95  1  0  0  0
 18 19  2  0  0  0
 18 96  1  0  0  0
 19 20  1  0  0  0
 19 24  1  0  0  0
 20 21  2  0  0  0
 20 97  1  0  0  0
 21 23  1  0  0  0
 22 28  1  0  0  0
 22 32  2  0  0  0
 26 27  1  0  0  0
 28 98  1  0  0  0
 28 99  1  0  0  0
 29100  1  0  0  0
 29101  1  0  0  0
 33 34  1  0  0  0
 33 66  1  0  0  0
 33 70  2  0  0  0
 34 36  1  0  0  0
 34 59  1  0  0  0
 34102  1  0  0  0
 35 44  2  0  0  0
 35 45  1  0  0  0
 35 68  1  0  0  0
 36 56  1  0  0  0
 36103  1  0  0  0
 37 39  1  0  0  0
 37 47  1  0  0  0
 37 66  1  0  0  0
 37104  1  0  0  0
 38 43  2  0  0  0
 38 46  1  0  0  0
 38 47  1  0  0  0
 39 64  1  0  0  0
 39 67  2  0  0  0
 40 52  1  0  0  0
 40 53  2  0  0  0
 40 58  1  0  0  0
 41105  1  0  0  0
 41106  1  0  0  0
 41107  1  0  0  0
 41 48  1  0  0  0
 42 43  1  0  0  0
 42 66  1  0  0  0
 42108  1  0  0  0
 42109  1  0  0  0
 43 44  1  0  0  0
 44110  1  0  0  0
 45 46  2  0  0  0
 45111  1  0  0  0
 46112  1  0  0  0
 47113  1  0  0  0
 47114  1  0  0  0
 48 56  1  0  0  0
 48 65  1  0  0  0
 48115  1  0  0  0
 49 50  1  0  0  0
 49 53  1  0  0  0
 49 64  1  0  0  0
 49116  1  0  0  0
 50 51  1  0  0  0
 50117  1  0  0  0
 50118  1  0  0  0
 51 52  1  0  0  0
 51119  1  0  0  0
 51120  1  0  0  0
 52121  1  0  0  0
 52122  1  0  0  0
 53 54  1  0  0  0
 54 55  2  0  0  0
 54123  1  0  0  0
 55 57  1  0  0  0
 55124  1  0  0  0
 56 69  2  0  0  0
 57 58  2  0  0  0
 57125  1  0  0  0
 58126  1  0  0  0
 59 60  1  0  0  0
 59 61  1  0  0  0
 59 62  1  0  0  0
 60127  1  0  0  0
 60128  1  0  0  0
 60129  1  0  0  0
 61130  1  0  0  0
 61131  1  0  0  0
 61132  1  0  0  0
 62133  1  0  0  0
 62134  1  0  0  0
 62135  1  0  0  0
 63 65  1  0  0  0
 63136  1  0  0  0
 63137  1  0  0  0
 63138  1  0  0  0
 64139  1  0  0  0
 65140  1  0  0  0
 68 78  1  0  0  0
 71 72  2  0  0  0
 71 79  1  0  0  0
 71141  1  0  0  0
 72 80  1  0  0  0
 72142  1  0  0  0
 73 75  1  0  0  0
 73 79  2  0  0  0
 73 80  1  0  0  0
 74 81  1  0  0  0
 74143  1  0  0  0
 74144  1  0  0  0
 74145  1  0  0  0
 75 81  1  0  0  0
 75146  1  0  0  0
 75147  1  0  0  0
 76 77  1  0  0  0
 76 78  1  0  0  0
 76148  1  0  0  0
 76149  1  0  0  0
 77 80  1  0  0  0
 77150  1  0  0  0
 77151  1  0  0  0
 78152  1  0  0  0
 78153  1  0  0  0
M  ISO  4   1 100  68 101  78 101  81 100
M  END
> <chiral flag>
0

> <version>
0

> <s_m_source_file>
/data/baiqing/PycharmProjects/Reinvent-master-3.2/result/LINK_invent/BTK/process_docking_weight1_custom_sum_contain_oxygen_bond_distance_aromatic_linkinvent_7_9_3/rearranged_h_0058.sdf

> <i_m_source_file_index>
92

> <r_mmod_Potential_Energy-OPLS-2005>
754.488525390625

> <r_mmod_Stretch_Energy-OPLS-2005>
336.752227783203

> <r_mmod_Bend_Energy-OPLS-2005>
365.974212646484

> <r_mmod_Torsional_Energy-OPLS-2005>
276.920623779297

> <r_mmod_Improper_Torsional_Energy-OPLS-2005>
6.68832302093506

> <r_mmod_Van_der_Waal_Energy-OPLS-2005>
120.181167602539

> <r_mmod_Electrostatic_Energy-OPLS-2005>
-354.500427246094

> <r_mmod_Solvation_Energy-OPLS-2005>
-213.895401000977

> <b_mmod_Minimization_Converged-OPLS-2005>
0

> <r_mmod_RMS_Derivative-OPLS-2005>
0.568707942962646

$$$$
92
                    3D
 Structure written by MMmdl.
154162  0  0  1  0            999 V2000
  -30.4598  -15.2981   20.4377 C   0  0  0  0  0  0
  -30.4359  -12.8310   19.5722 C   0  0  0  0  0  0
  -29.5538  -12.6361   18.3096 C   0  0  0  0  0  0
  -28.1022  -12.3358   18.7192 C   0  0  0  0  0  0
  -27.6247  -13.2796   19.8509 C   0  0  2  0  0  0
  -28.6534  -13.4409   20.9956 C   0  0  0  0  0  0
  -25.2487  -13.8291   20.5874 C   0  0  0  0  0  0
  -24.1810  -13.0475   20.9290 C   0  0  0  0  0  0
  -24.6426  -11.6987   20.8823 C   0  0  0  0  0  0
  -23.9111  -10.4330   21.0448 C   0  0  0  0  0  0
  -24.3631   -9.4265   21.9212 C   0  0  0  0  0  0
  -23.6345   -8.2292   22.0749 C   0  0  0  0  0  0
  -22.4336   -8.0334   21.3558 C   0  0  0  0  0  0
  -21.9969   -9.0300   20.4644 C   0  0  0  0  0  0
  -22.7283  -10.2188   20.3084 C   0  0  0  0  0  0
  -21.6884   -6.0775   22.5279 C   0  0  0  0  0  0
  -21.4014   -6.5630   23.8209 C   0  0  0  0  0  0
  -21.3662   -5.6773   24.9151 C   0  0  0  0  0  0
  -21.6067   -4.3051   24.7186 C   0  0  0  0  0  0
  -21.8813   -3.8158   23.4317 C   0  0  0  0  0  0
  -21.9200   -4.6996   22.3370 C   0  0  0  0  0  0
  -22.7802  -13.5359   21.1842 C   0  0  0  0  0  0
  -22.1695   -4.2189   21.0954 F   0  0  0  0  0  0
  -21.5623   -3.4522   25.7688 F   0  0  0  0  0  0
  -29.8864  -13.9813   20.3940 N   0  0  0  0  0  0
  -26.2909  -12.9533   20.3346 N   0  0  0  0  0  0
  -25.9386  -11.6638   20.5801 N   0  0  0  0  0  0
  -22.0336  -12.8403   22.0352 N   0  0  0  0  0  0
  -25.4142  -15.2010   20.4344 N   0  0  0  0  0  0
  -31.6377  -15.2936   20.0441 O   0  0  0  0  0  0
  -21.6696   -6.8949   21.4259 O   0  0  0  0  0  0
  -22.3572  -14.5638   20.6625 O   0  0  0  0  0  0
  -24.6724  -31.8187   23.1653 C   0  0  0  0  0  0
  -25.9382  -32.4609   23.8158 C   0  0  1  0  0  0
  -27.2415  -26.8930   20.2042 C   0  0  0  0  0  0
  -25.6050  -33.8409   24.2127 N   0  0  0  0  0  0
  -23.4918  -30.4218   21.5182 C   0  0  2  0  0  0
  -24.9427  -28.7925   20.1262 C   0  0  0  0  0  0
  -22.7739  -29.4364   22.4827 C   0  0  0  0  0  0
  -18.0314  -28.1349   22.8460 C   0  0  0  0  0  0
  -24.1462  -36.7169   23.2649 C   0  0  0  0  0  0
  -26.0610  -30.6190   21.3934 C   0  0  0  0  0  0
  -26.1305  -29.1986   20.7492 C   0  0  0  0  0  0
  -27.2721  -28.2725   20.7558 C   0  0  0  0  0  0
  -26.0223  -26.6466   19.5316 C   0  0  0  0  0  0
  -24.9164  -27.5400   19.4907 C   0  0  0  0  0  0
  -23.7327  -29.7273   20.1496 C   0  0  0  0  0  0
  -25.4109  -36.3014   24.0354 C   0  0  1  0  0  0
  -20.5971  -28.3682   23.1180 C   0  0  2  0  0  0
  -20.6799  -26.9365   22.5386 C   0  0  0  0  0  0
  -19.5771  -26.6318   21.5201 C   0  0  0  0  0  0
  -18.1933  -26.7890   22.1596 C   0  0  0  0  0  0
  -19.1594  -28.8847   23.2785 C   0  0  0  0  0  0
  -18.9491  -30.1448   23.8806 C   0  0  0  0  0  0
  -17.6477  -30.6552   24.0505 C   0  0  0  0  0  0
  -25.9086  -34.9394   23.5050 C   0  0  0  0  0  0
  -16.5365  -29.9025   23.6333 C   0  0  0  0  0  0
  -16.7302  -28.6446   23.0371 C   0  0  0  0  0  0
  -26.4616  -31.6563   25.0677 C   0  0  0  0  0  0
  -25.3792  -31.3762   26.1371 C   0  0  0  0  0  0
  -27.0522  -30.2965   24.6399 C   0  0  0  0  0  0
  -27.6162  -32.4324   25.7441 C   0  0  0  0  0  0
  -27.5574  -37.1742   24.8491 C   0  0  0  0  0  0
  -21.4395  -29.2973   22.3579 N   0  0  0  0  0  0
  -26.4274  -37.3758   23.9456 N   0  0  0  0  0  0
  -24.7637  -30.9828   22.0793 N   0  0  0  0  0  0
  -23.4264  -28.7956   23.3109 O   0  0  0  0  0  0
  -28.2733  -25.7994   20.2484 O   0  0  0  0  0  0
  -26.5607  -34.8953   22.4595 O   0  0  0  0  0  0
  -23.5787  -32.1097   23.6761 O   0  0  0  0  0  0
  -28.8271  -19.5439   20.5609 C   0  0  0  0  0  0
  -30.2899  -22.9008   21.2199 C   0  0  0  0  0  0
  -29.7271  -22.6804   18.7968 C   0  0  0  0  0  0
  -29.2821  -16.5766   22.1380 C   0  0  0  0  0  0
  -29.9453  -18.2257   20.3273 C   0  0  0  0  0  0
  -28.0707  -24.1472   20.3580 C   0  0  0  0  0  0
  -29.1200  -22.6467   20.2314 C   0  0  0  0  0  0
  -27.6522  -19.0175   20.9267 N   0  0  0  0  0  0
  -26.7719  -20.0347   21.1261 N   0  0  0  0  0  0
  -27.2941  -21.1914   20.8949 N   0  0  0  0  0  0
  -28.5955  -21.0602   20.5068 N   0  0  0  0  0  0
  -29.7623  -16.5926   20.7452 N   0  0  0  0  0  0
  -31.4685  -13.0062   19.2743 H   0  0  0  0  0  0
  -30.4680  -11.9127   20.1644 H   0  0  0  0  0  0
  -29.9548  -11.8353   17.6886 H   0  0  0  0  0  0
  -29.5891  -13.5423   17.7017 H   0  0  0  0  0  0
  -28.0819  -11.3068   19.0711 H   0  0  0  0  0  0
  -27.4352  -12.3968   17.8563 H   0  0  0  0  0  0
  -27.5508  -14.2583   19.3746 H   0  0  0  0  0  0
  -28.8342  -12.5134   21.5447 H   0  0  0  0  0  0
  -28.2628  -14.1336   21.7324 H   0  0  0  0  0  0
  -25.2741   -9.5789   22.4848 H   0  0  0  0  0  0
  -24.0038   -7.4718   22.7517 H   0  0  0  0  0  0
  -21.0878   -8.8853   19.9016 H   0  0  0  0  0  0
  -22.3740  -10.9728   19.6234 H   0  0  0  0  0  0
  -21.2006   -7.6136   23.9737 H   0  0  0  0  0  0
  -21.1503   -6.0481   25.9066 H   0  0  0  0  0  0
  -22.0601   -2.7631   23.2765 H   0  0  0  0  0  0
  -22.3807  -12.0066   22.4792 H   0  0  0  0  0  0
  -21.0932  -13.1571   22.2403 H   0  0  0  0  0  0
  -24.6452  -15.8556   20.5469 H   0  0  0  0  0  0
  -26.2684  -15.6522   20.1348 H   0  0  0  0  0  0
  -26.7461  -32.5164   23.0897 H   0  0  0  0  0  0
  -25.0516  -33.9451   25.0502 H   0  0  0  0  0  0
  -22.8071  -31.2506   21.3410 H   0  0  0  0  0  0
  -23.3833  -35.9389   23.3291 H   0  0  0  0  0  0
  -24.3572  -36.8785   22.2064 H   0  0  0  0  0  0
  -23.7065  -37.6318   23.6644 H   0  0  0  0  0  0
  -26.2334  -31.3487   20.6014 H   0  0  0  0  0  0
  -26.9254  -30.6926   22.0425 H   0  0  0  0  0  0
  -28.1821  -28.5820   21.2473 H   0  0  0  0  0  0
  -25.8933  -25.6899   19.0401 H   0  0  0  0  0  0
  -24.0188  -27.2266   18.9741 H   0  0  0  0  0  0
  -23.8971  -30.4810   19.3813 H   0  0  0  0  0  0
  -22.8446  -29.1780   19.8361 H   0  0  0  0  0  0
  -25.1285  -36.1863   25.0849 H   0  0  0  0  0  0
  -21.0012  -28.3264   24.1325 H   0  0  0  0  0  0
  -20.5626  -26.2295   23.3605 H   0  0  0  0  0  0
  -21.6655  -26.7269   22.1227 H   0  0  0  0  0  0
  -19.6895  -25.6213   21.1240 H   0  0  0  0  0  0
  -19.6738  -27.3109   20.6719 H   0  0  0  0  0  0
  -17.4215  -26.6648   21.3958 H   0  0  0  0  0  0
  -18.0304  -25.9984   22.8948 H   0  0  0  0  0  0
  -19.7978  -30.7273   24.2132 H   0  0  0  0  0  0
  -17.5037  -31.6238   24.5092 H   0  0  0  0  0  0
  -15.5369  -30.2894   23.7694 H   0  0  0  0  0  0
  -15.8701  -28.0721   22.7155 H   0  0  0  0  0  0
  -24.6063  -30.6977   25.7744 H   0  0  0  0  0  0
  -24.8864  -32.2906   26.4686 H   0  0  0  0  0  0
  -25.8121  -30.9078   27.0231 H   0  0  0  0  0  0
  -26.3207  -29.6655   24.1338 H   0  0  0  0  0  0
  -27.4032  -29.7321   25.5057 H   0  0  0  0  0  0
  -27.9155  -30.4228   23.9857 H   0  0  0  0  0  0
  -27.2865  -33.3747   26.1858 H   0  0  0  0  0  0
  -28.4062  -32.6671   25.0278 H   0  0  0  0  0  0
  -28.0747  -31.8516   26.5471 H   0  0  0  0  0  0
  -28.2614  -38.0023   24.7615 H   0  0  0  0  0  0
  -28.1038  -36.2578   24.6236 H   0  0  0  0  0  0
  -27.2304  -37.1310   25.8892 H   0  0  0  0  0  0
  -20.9698  -29.8727   21.6737 H   0  0  0  0  0  0
  -26.0162  -38.2837   24.1504 H   0  0  0  0  0  0
  -30.8748  -23.7921   20.9686 H   0  0  0  0  0  0
  -31.0013  -22.0746   21.2435 H   0  0  0  0  0  0
  -29.9341  -23.0415   22.2398 H   0  0  0  0  0  0
  -30.1901  -23.6481   18.5709 H   0  0  0  0  0  0
  -28.9759  -22.5118   18.0264 H   0  0  0  0  0  0
  -30.5114  -21.9355   18.6493 H   0  0  0  0  0  0
  -29.2451  -17.5695   22.5857 H   0  0  0  0  0  0
  -29.9454  -15.9936   22.7836 H   0  0  0  0  0  0
  -28.2758  -16.1710   22.2282 H   0  0  0  0  0  0
  -30.8814  -18.5222   20.8014 H   0  0  0  0  0  0
  -30.1805  -18.2264   19.2633 H   0  0  0  0  0  0
  -27.6439  -24.0523   21.3600 H   0  0  0  0  0  0
  -27.2147  -23.9383   19.7182 H   0  0  0  0  0  0
  1 25  1  0  0  0
  1 30  2  0  0  0
  1 82  1  0  0  0
  2  3  1  0  0  0
  2 25  1  0  0  0
  2 83  1  0  0  0
  2 84  1  0  0  0
  3  4  1  0  0  0
  3 85  1  0  0  0
  3 86  1  0  0  0
  4  5  1  0  0  0
  4 87  1  0  0  0
  4 88  1  0  0  0
  5  6  1  0  0  0
  5 26  1  0  0  0
  5 89  1  0  0  0
  6 25  1  0  0  0
  6 90  1  0  0  0
  6 91  1  0  0  0
  7  8  2  0  0  0
  7 26  1  0  0  0
  7 29  1  0  0  0
  8  9  1  0  0  0
  8 22  1  0  0  0
  9 10  1  0  0  0
  9 27  2  0  0  0
 10 11  2  0  0  0
 10 15  1  0  0  0
 11 12  1  0  0  0
 11 92  1  0  0  0
 12 13  2  0  0  0
 12 93  1  0  0  0
 13 14  1  0  0  0
 13 31  1  0  0  0
 14 15  2  0  0  0
 14 94  1  0  0  0
 15 95  1  0  0  0
 16 17  2  0  0  0
 16 21  1  0  0  0
 16 31  1  0  0  0
 17 18  1  0  0  0
 17 96  1  0  0  0
 18 19  2  0  0  0
 18 97  1  0  0  0
 19 20  1  0  0  0
 19 24  1  0  0  0
 20 21  2  0  0  0
 20 98  1  0  0  0
 21 23  1  0  0  0
 22 28  1  0  0  0
 22 32  2  0  0  0
 26 27  1  0  0  0
 28 99  1  0  0  0
 28100  1  0  0  0
 29101  1  0  0  0
 29102  1  0  0  0
 33 34  1  0  0  0
 33 66  1  0  0  0
 33 70  2  0  0  0
 34 36  1  0  0  0
 34 59  1  0  0  0
 34103  1  0  0  0
 35 44  2  0  0  0
 35 45  1  0  0  0
 35 68  1  0  0  0
 36 56  1  0  0  0
 36104  1  0  0  0
 37 39  1  0  0  0
 37 47  1  0  0  0
 37 66  1  0  0  0
 37105  1  0  0  0
 38 43  2  0  0  0
 38 46  1  0  0  0
 38 47  1  0  0  0
 39 64  1  0  0  0
 39 67  2  0  0  0
 40 52  1  0  0  0
 40 53  2  0  0  0
 40 58  1  0  0  0
 41106  1  0  0  0
 41107  1  0  0  0
 41108  1  0  0  0
 41 48  1  0  0  0
 42 43  1  0  0  0
 42 66  1  0  0  0
 42109  1  0  0  0
 42110  1  0  0  0
 43 44  1  0  0  0
 44111  1  0  0  0
 45 46  2  0  0  0
 45112  1  0  0  0
 46113  1  0  0  0
 47114  1  0  0  0
 47115  1  0  0  0
 48 56  1  0  0  0
 48 65  1  0  0  0
 48116  1  0  0  0
 49 50  1  0  0  0
 49 53  1  0  0  0
 49 64  1  0  0  0
 49117  1  0  0  0
 50 51  1  0  0  0
 50118  1  0  0  0
 50119  1  0  0  0
 51 52  1  0  0  0
 51120  1  0  0  0
 51121  1  0  0  0
 52122  1  0  0  0
 52123  1  0  0  0
 53 54  1  0  0  0
 54 55  2  0  0  0
 54124  1  0  0  0
 55 57  1  0  0  0
 55125  1  0  0  0
 56 69  2  0  0  0
 57 58  2  0  0  0
 57126  1  0  0  0
 58127  1  0  0  0
 59 60  1  0  0  0
 59 61  1  0  0  0
 59 62  1  0  0  0
 60128  1  0  0  0
 60129  1  0  0  0
 60130  1  0  0  0
 61131  1  0  0  0
 61132  1  0  0  0
 61133  1  0  0  0
 62134  1  0  0  0
 62135  1  0  0  0
 62136  1  0  0  0
 63 65  1  0  0  0
 63137  1  0  0  0
 63138  1  0  0  0
 63139  1  0  0  0
 64140  1  0  0  0
 65141  1  0  0  0
 68 76  1  0  0  0
 71 75  1  0  0  0
 71 78  2  0  0  0
 71 81  1  0  0  0
 72142  1  0  0  0
 72143  1  0  0  0
 72144  1  0  0  0
 72 77  1  0  0  0
 73 77  1  0  0  0
 73145  1  0  0  0
 73146  1  0  0  0
 73147  1  0  0  0
 74 82  1  0  0  0
 74148  1  0  0  0
 74149  1  0  0  0
 74150  1  0  0  0
 75 82  1  0  0  0
 75151  1  0  0  0
 75152  1  0  0  0
 76 77  1  0  0  0
 76153  1  0  0  0
 76154  1  0  0  0
 77 81  1  0  0  0
 78 79  1  0  0  0
 79 80  2  0  0  0
 80 81  1  0  0  0
M  ISO  4   1 100  68 101  76 101  82 100
M  END
> <chiral flag>
0

> <version>
0

> <s_m_source_file>
/data/baiqing/PycharmProjects/Reinvent-master-3.2/result/LINK_invent/BTK/process_docking_weight1_custom_sum_contain_oxygen_bond_distance_aromatic_linkinvent_7_9_3/rearranged_h_0058.sdf

> <i_m_source_file_index>
93

> <r_mmod_Potential_Energy-OPLS-2005>
1587.52746582031

> <r_mmod_Stretch_Energy-OPLS-2005>
707.804016113281

> <r_mmod_Bend_Energy-OPLS-2005>
542.563232421875

> <r_mmod_Torsional_Energy-OPLS-2005>
291.070404052734

> <r_mmod_Improper_Torsional_Energy-OPLS-2005>
5.62990522384644

> <r_mmod_Van_der_Waal_Energy-OPLS-2005>
105.831672668457

> <r_mmod_Electrostatic_Energy-OPLS-2005>
-331.247894287109

> <r_mmod_Solvation_Energy-OPLS-2005>
-219.877151489258

> <b_mmod_Minimization_Converged-OPLS-2005>
0

> <r_mmod_RMS_Derivative-OPLS-2005>
9.10148334503174

$$$$
93
                    3D
 Structure written by MMmdl.
155163  0  0  1  0            999 V2000
  -30.6293  -14.7639   20.5203 C   0  0  0  0  0  0
  -30.4371  -12.4934   19.4592 C   0  0  0  0  0  0
  -29.5059  -12.5350   18.2263 C   0  0  0  0  0  0
  -28.0304  -12.3517   18.6374 C   0  0  0  0  0  0
  -27.6445  -13.2252   19.8601 C   0  0  2  0  0  0
  -28.6964  -13.0916   20.9809 C   0  0  0  0  0  0
  -25.2482  -13.8175   20.5667 C   0  0  0  0  0  0
  -24.1778  -13.0422   20.9214 C   0  0  0  0  0  0
  -24.6390  -11.6911   20.8779 C   0  0  0  0  0  0
  -23.9080  -10.4287   21.0439 C   0  0  0  0  0  0
  -24.3634   -9.4193   21.9206 C   0  0  0  0  0  0
  -23.6302   -8.2229   22.0762 C   0  0  0  0  0  0
  -22.4280   -8.0286   21.3551 C   0  0  0  0  0  0
  -21.9928   -9.0267   20.4652 C   0  0  0  0  0  0
  -22.7263  -10.2143   20.3072 C   0  0  0  0  0  0
  -21.6853   -6.0746   22.5284 C   0  0  0  0  0  0
  -21.4013   -6.5647   23.8222 C   0  0  0  0  0  0
  -21.3663   -5.6797   24.9182 C   0  0  0  0  0  0
  -21.6042   -4.3058   24.7231 C   0  0  0  0  0  0
  -21.8822   -3.8157   23.4351 C   0  0  0  0  0  0
  -21.9189   -4.6972   22.3407 C   0  0  0  0  0  0
  -22.7798  -13.5192   21.1880 C   0  0  0  0  0  0
  -22.1649   -4.2163   21.0980 F   0  0  0  0  0  0
  -21.5640   -3.4541   25.7743 F   0  0  0  0  0  0
  -29.9781  -13.5399   20.4118 N   0  0  0  0  0  0
  -26.2937  -12.9380   20.3328 N   0  0  0  0  0  0
  -25.9312  -11.6533   20.5794 N   0  0  0  0  0  0
  -22.0445  -12.8188   22.0448 N   0  0  0  0  0  0
  -25.4101  -15.1896   20.4013 N   0  0  0  0  0  0
  -31.8049  -14.8161   20.1405 O   0  0  0  0  0  0
  -21.6633   -6.8891   21.4243 O   0  0  0  0  0  0
  -22.3477  -14.5503   20.6739 O   0  0  0  0  0  0
  -24.6337  -31.8550   23.2015 C   0  0  0  0  0  0
  -25.9154  -32.4744   23.8357 C   0  0  1  0  0  0
  -27.2102  -27.2467   20.1243 C   0  0  0  0  0  0
  -25.5944  -33.8553   24.2270 N   0  0  0  0  0  0
  -23.4297  -30.4829   21.5457 C   0  0  2  0  0  0
  -24.8731  -28.9329   20.1114 C   0  0  0  0  0  0
  -22.7510  -29.4611   22.4909 C   0  0  0  0  0  0
  -18.0300  -28.1361   22.8494 C   0  0  0  0  0  0
  -24.1488  -36.7290   23.2641 C   0  0  0  0  0  0
  -25.9793  -30.7630   21.3840 C   0  0  0  0  0  0
  -26.0488  -29.3863   20.7228 C   0  0  0  0  0  0
  -27.2207  -28.5574   20.7181 C   0  0  0  0  0  0
  -26.0089  -26.8760   19.4743 C   0  0  0  0  0  0
  -24.8592  -27.6848   19.4776 C   0  0  0  0  0  0
  -23.6469  -29.8239   20.1602 C   0  0  0  0  0  0
  -25.4109  -36.3067   24.0323 C   0  0  1  0  0  0
  -20.5905  -28.3686   23.1258 C   0  0  2  0  0  0
  -20.6781  -26.9404   22.5399 C   0  0  0  0  0  0
  -19.5746  -26.6368   21.5211 C   0  0  0  0  0  0
  -18.1930  -26.7902   22.1631 C   0  0  0  0  0  0
  -19.1554  -28.8842   23.2867 C   0  0  0  0  0  0
  -18.9473  -30.1441   23.8881 C   0  0  0  0  0  0
  -17.6470  -30.6568   24.0557 C   0  0  0  0  0  0
  -25.9054  -34.9433   23.5096 C   0  0  0  0  0  0
  -16.5363  -29.9064   23.6326 C   0  0  0  0  0  0
  -16.7287  -28.6474   23.0359 C   0  0  0  0  0  0
  -26.4514  -31.6566   25.0744 C   0  0  0  0  0  0
  -25.3759  -31.3721   26.1486 C   0  0  0  0  0  0
  -27.0349  -30.2963   24.6248 C   0  0  0  0  0  0
  -27.6047  -32.4334   25.7515 C   0  0  0  0  0  0
  -27.5577  -37.1799   24.8466 C   0  0  0  0  0  0
  -21.4215  -29.3048   22.3647 N   0  0  0  0  0  0
  -26.4285  -37.3765   23.9413 N   0  0  0  0  0  0
  -24.7003  -31.0527   22.0985 N   0  0  0  0  0  0
  -23.4202  -28.8149   23.3009 O   0  0  0  0  0  0
  -28.2911  -26.3255   20.1671 O   0  0  0  0  0  0
  -26.5625  -34.8907   22.4664 O   0  0  0  0  0  0
  -23.5485  -32.1387   23.7299 O   0  0  0  0  0  0
  -29.7880  -18.6753   20.2257 C   0  0  0  0  0  0
  -29.0849  -20.7476   20.2439 C   0  0  0  0  0  0
  -28.3115  -20.7997   17.8329 C   0  0  0  0  0  0
  -28.8664  -16.0768   21.7599 C   0  0  0  0  0  0
  -30.5838  -17.3472   20.5408 C   0  0  0  0  0  0
  -28.4630  -22.1494   20.6459 C   0  0  0  0  0  0
  -29.0296  -23.6206   20.2475 C   0  0  0  0  0  0
  -27.9686  -24.8514   20.2871 C   0  0  0  0  0  0
  -29.6679  -19.8067   21.0438 N   0  0  0  0  0  0
  -29.3387  -18.9121   18.9927 N   0  0  0  0  0  0
  -28.9084  -20.2164   19.0198 N   0  0  0  0  0  0
  -29.9496  -15.9695   20.7779 N   0  0  0  0  0  0
  -31.4714  -12.6341   19.1431 H   0  0  0  0  0  0
  -30.4145  -11.5073   19.9261 H   0  0  0  0  0  0
  -29.7946  -11.7641   17.5109 H   0  0  0  0  0  0
  -29.6230  -13.4903   17.7100 H   0  0  0  0  0  0
  -27.8765  -11.2980   18.8761 H   0  0  0  0  0  0
  -27.3741  -12.5715   17.7950 H   0  0  0  0  0  0
  -27.6536  -14.2576   19.5114 H   0  0  0  0  0  0
  -28.7643  -12.0503   21.3021 H   0  0  0  0  0  0
  -28.4084  -13.6172   21.8846 H   0  0  0  0  0  0
  -25.2784   -9.5665   22.4773 H   0  0  0  0  0  0
  -24.0030   -7.4612   22.7463 H   0  0  0  0  0  0
  -21.0874   -8.8786   19.8942 H   0  0  0  0  0  0
  -22.3737  -10.9689   19.6183 H   0  0  0  0  0  0
  -21.1995   -7.6154   23.9733 H   0  0  0  0  0  0
  -21.1483   -6.0518   25.9084 H   0  0  0  0  0  0
  -22.0598   -2.7620   23.2842 H   0  0  0  0  0  0
  -22.4059  -11.9857   22.4849 H   0  0  0  0  0  0
  -21.1064  -13.1207   22.2661 H   0  0  0  0  0  0
  -24.6404  -15.8399   20.5177 H   0  0  0  0  0  0
  -26.2567  -15.6353   20.0718 H   0  0  0  0  0  0
  -26.7223  -32.5383   23.1106 H   0  0  0  0  0  0
  -25.0109  -33.9701   25.0424 H   0  0  0  0  0  0
  -22.7269  -31.3070   21.4041 H   0  0  0  0  0  0
  -23.3741  -35.9633   23.3290 H   0  0  0  0  0  0
  -24.3598  -36.8928   22.2066 H   0  0  0  0  0  0
  -23.7250  -37.6486   23.6680 H   0  0  0  0  0  0
  -26.1258  -31.5235   20.6165 H   0  0  0  0  0  0
  -26.8536  -30.8063   22.0211 H   0  0  0  0  0  0
  -28.1178  -28.9011   21.2132 H   0  0  0  0  0  0
  -25.9117  -25.9433   18.9442 H   0  0  0  0  0  0
  -23.9624  -27.3334   18.9859 H   0  0  0  0  0  0
  -23.7744  -30.6043   19.4094 H   0  0  0  0  0  0
  -22.7624  -29.2655   19.8506 H   0  0  0  0  0  0
  -25.1289  -36.1914   25.0814 H   0  0  0  0  0  0
  -21.0006  -28.3259   24.1373 H   0  0  0  0  0  0
  -20.5674  -26.2306   23.3609 H   0  0  0  0  0  0
  -21.6647  -26.7411   22.1197 H   0  0  0  0  0  0
  -19.6905  -25.6280   21.1235 H   0  0  0  0  0  0
  -19.6660  -27.3179   20.6739 H   0  0  0  0  0  0
  -17.4202  -26.6659   21.4031 H   0  0  0  0  0  0
  -18.0323  -26.0032   22.9016 H   0  0  0  0  0  0
  -19.7952  -30.7262   24.2231 H   0  0  0  0  0  0
  -17.5027  -31.6250   24.5158 H   0  0  0  0  0  0
  -15.5357  -30.2962   23.7645 H   0  0  0  0  0  0
  -15.8689  -28.0784   22.7079 H   0  0  0  0  0  0
  -24.5911  -30.7082   25.7847 H   0  0  0  0  0  0
  -24.8995  -32.2897   26.4945 H   0  0  0  0  0  0
  -25.8108  -30.8892   27.0248 H   0  0  0  0  0  0
  -26.2927  -29.6713   24.1267 H   0  0  0  0  0  0
  -27.3991  -29.7221   25.4780 H   0  0  0  0  0  0
  -27.8836  -30.4198   23.9516 H   0  0  0  0  0  0
  -27.2614  -33.3645   26.2047 H   0  0  0  0  0  0
  -28.3874  -32.6886   25.0357 H   0  0  0  0  0  0
  -28.0697  -31.8506   26.5483 H   0  0  0  0  0  0
  -28.2577  -38.0111   24.7515 H   0  0  0  0  0  0
  -28.1083  -36.2637   24.6276 H   0  0  0  0  0  0
  -27.2309  -37.1440   25.8874 H   0  0  0  0  0  0
  -20.9384  -29.8810   21.6894 H   0  0  0  0  0  0
  -26.0152  -38.2833   24.1409 H   0  0  0  0  0  0
  -27.2259  -20.8044   17.9280 H   0  0  0  0  0  0
  -28.5873  -20.2336   16.9430 H   0  0  0  0  0  0
  -28.6599  -21.8253   17.7101 H   0  0  0  0  0  0
  -29.1005  -15.5123   22.6623 H   0  0  0  0  0  0
  -27.9233  -15.7290   21.3478 H   0  0  0  0  0  0
  -28.6950  -17.1011   22.0919 H   0  0  0  0  0  0
  -31.2091  -17.5471   21.4117 H   0  0  0  0  0  0
  -31.2945  -17.2374   19.7208 H   0  0  0  0  0  0
  -28.3483  -22.1357   21.7299 H   0  0  0  0  0  0
  -27.4370  -22.1121   20.2813 H   0  0  0  0  0  0
  -29.4347  -23.5721   19.2365 H   0  0  0  0  0  0
  -29.8795  -23.8486   20.8918 H   0  0  0  0  0  0
  -27.3962  -24.7517   21.2115 H   0  0  0  0  0  0
  -27.2826  -24.5759   19.4912 H   0  0  0  0  0  0
  1 25  1  0  0  0
  1 30  2  0  0  0
  1 82  1  0  0  0
  2  3  1  0  0  0
  2 25  1  0  0  0
  2 83  1  0  0  0
  2 84  1  0  0  0
  3  4  1  0  0  0
  3 85  1  0  0  0
  3 86  1  0  0  0
  4  5  1  0  0  0
  4 87  1  0  0  0
  4 88  1  0  0  0
  5  6  1  0  0  0
  5 26  1  0  0  0
  5 89  1  0  0  0
  6 25  1  0  0  0
  6 90  1  0  0  0
  6 91  1  0  0  0
  7  8  2  0  0  0
  7 26  1  0  0  0
  7 29  1  0  0  0
  8  9  1  0  0  0
  8 22  1  0  0  0
  9 10  1  0  0  0
  9 27  2  0  0  0
 10 11  2  0  0  0
 10 15  1  0  0  0
 11 12  1  0  0  0
 11 92  1  0  0  0
 12 13  2  0  0  0
 12 93  1  0  0  0
 13 14  1  0  0  0
 13 31  1  0  0  0
 14 15  2  0  0  0
 14 94  1  0  0  0
 15 95  1  0  0  0
 16 17  2  0  0  0
 16 21  1  0  0  0
 16 31  1  0  0  0
 17 18  1  0  0  0
 17 96  1  0  0  0
 18 19  2  0  0  0
 18 97  1  0  0  0
 19 20  1  0  0  0
 19 24  1  0  0  0
 20 21  2  0  0  0
 20 98  1  0  0  0
 21 23  1  0  0  0
 22 28  1  0  0  0
 22 32  2  0  0  0
 26 27  1  0  0  0
 28 99  1  0  0  0
 28100  1  0  0  0
 29101  1  0  0  0
 29102  1  0  0  0
 33 34  1  0  0  0
 33 66  1  0  0  0
 33 70  2  0  0  0
 34 36  1  0  0  0
 34 59  1  0  0  0
 34103  1  0  0  0
 35 44  2  0  0  0
 35 45  1  0  0  0
 35 68  1  0  0  0
 36 56  1  0  0  0
 36104  1  0  0  0
 37 39  1  0  0  0
 37 47  1  0  0  0
 37 66  1  0  0  0
 37105  1  0  0  0
 38 43  2  0  0  0
 38 46  1  0  0  0
 38 47  1  0  0  0
 39 64  1  0  0  0
 39 67  2  0  0  0
 40 52  1  0  0  0
 40 53  2  0  0  0
 40 58  1  0  0  0
 41106  1  0  0  0
 41107  1  0  0  0
 41108  1  0  0  0
 41 48  1  0  0  0
 42 43  1  0  0  0
 42 66  1  0  0  0
 42109  1  0  0  0
 42110  1  0  0  0
 43 44  1  0  0  0
 44111  1  0  0  0
 45 46  2  0  0  0
 45112  1  0  0  0
 46113  1  0  0  0
 47114  1  0  0  0
 47115  1  0  0  0
 48 56  1  0  0  0
 48 65  1  0  0  0
 48116  1  0  0  0
 49 50  1  0  0  0
 49 53  1  0  0  0
 49 64  1  0  0  0
 49117  1  0  0  0
 50 51  1  0  0  0
 50118  1  0  0  0
 50119  1  0  0  0
 51 52  1  0  0  0
 51120  1  0  0  0
 51121  1  0  0  0
 52122  1  0  0  0
 52123  1  0  0  0
 53 54  1  0  0  0
 54 55  2  0  0  0
 54124  1  0  0  0
 55 57  1  0  0  0
 55125  1  0  0  0
 56 69  2  0  0  0
 57 58  2  0  0  0
 57126  1  0  0  0
 58127  1  0  0  0
 59 60  1  0  0  0
 59 61  1  0  0  0
 59 62  1  0  0  0
 60128  1  0  0  0
 60129  1  0  0  0
 60130  1  0  0  0
 61131  1  0  0  0
 61132  1  0  0  0
 61133  1  0  0  0
 62134  1  0  0  0
 62135  1  0  0  0
 62136  1  0  0  0
 63 65  1  0  0  0
 63137  1  0  0  0
 63138  1  0  0  0
 63139  1  0  0  0
 64140  1  0  0  0
 65141  1  0  0  0
 68 78  1  0  0  0
 71 75  1  0  0  0
 71 79  1  0  0  0
 71 80  2  0  0  0
 72 76  1  0  0  0
 72 79  2  0  0  0
 72 81  1  0  0  0
 73 81  1  0  0  0
 73142  1  0  0  0
 73143  1  0  0  0
 73144  1  0  0  0
 74 82  1  0  0  0
 74145  1  0  0  0
 74146  1  0  0  0
 74147  1  0  0  0
 75 82  1  0  0  0
 75148  1  0  0  0
 75149  1  0  0  0
 76 77  1  0  0  0
 76150  1  0  0  0
 76151  1  0  0  0
 77 78  1  0  0  0
 77152  1  0  0  0
 77153  1  0  0  0
 78154  1  0  0  0
 78155  1  0  0  0
 80 81  1  0  0  0
M  ISO  4   1 100  68 101  78 101  82 100
M  END
> <chiral flag>
0

> <version>
0

> <s_m_source_file>
/data/baiqing/PycharmProjects/Reinvent-master-3.2/result/LINK_invent/BTK/process_docking_weight1_custom_sum_contain_oxygen_bond_distance_aromatic_linkinvent_7_9_3/rearranged_h_0058.sdf

> <i_m_source_file_index>
94

> <r_mmod_Potential_Energy-OPLS-2005>
195.304626464844

> <r_mmod_Stretch_Energy-OPLS-2005>
134.582962036133

> <r_mmod_Bend_Energy-OPLS-2005>
207.763137817383

> <r_mmod_Torsional_Energy-OPLS-2005>
250.760848999023

> <r_mmod_Improper_Torsional_Energy-OPLS-2005>
9.67356777191162

> <r_mmod_Van_der_Waal_Energy-OPLS-2005>
131.922027587891

> <r_mmod_Electrostatic_Energy-OPLS-2005>
-404.222442626953

> <r_mmod_Solvation_Energy-OPLS-2005>
-223.600692749023

> <b_mmod_Minimization_Converged-OPLS-2005>
0

> <r_mmod_RMS_Derivative-OPLS-2005>
1.57905161380768

$$$$
94
                    3D
 Structure written by MMmdl.
163171  0  0  1  0            999 V2000
  -30.6070  -14.8362   20.4091 C   0  0  0  0  0  0
  -30.4454  -12.5124   19.5140 C   0  0  0  0  0  0
  -29.5235  -12.4927   18.2741 C   0  0  0  0  0  0
  -28.0479  -12.3423   18.6915 C   0  0  0  0  0  0
  -27.6382  -13.2625   19.8645 C   0  0  2  0  0  0
  -28.6892  -13.2387   20.9999 C   0  0  0  0  0  0
  -25.2476  -13.8353   20.5879 C   0  0  0  0  0  0
  -24.1719  -13.0593   20.9100 C   0  0  0  0  0  0
  -24.6329  -11.7028   20.8704 C   0  0  0  0  0  0
  -23.9040  -10.4398   21.0319 C   0  0  0  0  0  0
  -24.3620   -9.4317   21.9123 C   0  0  0  0  0  0
  -23.6304   -8.2360   22.0764 C   0  0  0  0  0  0
  -22.4292   -8.0316   21.3550 C   0  0  0  0  0  0
  -21.9872   -9.0284   20.4663 C   0  0  0  0  0  0
  -22.7180  -10.2173   20.3006 C   0  0  0  0  0  0
  -21.6899   -6.0712   22.5249 C   0  0  0  0  0  0
  -21.4059   -6.5621   23.8183 C   0  0  0  0  0  0
  -21.3654   -5.6787   24.9162 C   0  0  0  0  0  0
  -21.6045   -4.3044   24.7218 C   0  0  0  0  0  0
  -21.8841   -3.8111   23.4340 C   0  0  0  0  0  0
  -21.9237   -4.6932   22.3387 C   0  0  0  0  0  0
  -22.7703  -13.5243   21.1760 C   0  0  0  0  0  0
  -22.1680   -4.2105   21.0970 F   0  0  0  0  0  0
  -21.5609   -3.4554   25.7730 F   0  0  0  0  0  0
  -29.9828  -13.6014   20.4037 N   0  0  0  0  0  0
  -26.2897  -12.9616   20.3405 N   0  0  0  0  0  0
  -25.9283  -11.6720   20.5806 N   0  0  0  0  0  0
  -22.0434  -12.8204   22.0308 N   0  0  0  0  0  0
  -25.4436  -15.2111   20.4585 N   0  0  0  0  0  0
  -31.7946  -14.9021   20.0898 O   0  0  0  0  0  0
  -21.6669   -6.8864   21.4228 O   0  0  0  0  0  0
  -22.3293  -14.5560   20.6635 O   0  0  0  0  0  0
  -24.6190  -31.8536   23.2064 C   0  0  0  0  0  0
  -25.9041  -32.4743   23.8354 C   0  0  1  0  0  0
  -27.2311  -27.3192   20.1225 C   0  0  0  0  0  0
  -25.5883  -33.8542   24.2241 N   0  0  0  0  0  0
  -23.4124  -30.4799   21.5448 C   0  0  2  0  0  0
  -24.8635  -28.9410   20.1130 C   0  0  0  0  0  0
  -22.7447  -29.4532   22.4901 C   0  0  0  0  0  0
  -18.0297  -28.1338   22.8472 C   0  0  0  0  0  0
  -24.1487  -36.7336   23.2627 C   0  0  0  0  0  0
  -25.9480  -30.7888   21.3789 C   0  0  0  0  0  0
  -26.0273  -29.4142   20.7291 C   0  0  0  0  0  0
  -27.2050  -28.6104   20.7383 C   0  0  0  0  0  0
  -26.0382  -26.9027   19.4762 C   0  0  0  0  0  0
  -24.8687  -27.6882   19.4799 C   0  0  0  0  0  0
  -23.6315  -29.8218   20.1570 C   0  0  0  0  0  0
  -25.4113  -36.3073   24.0275 C   0  0  1  0  0  0
  -20.5896  -28.3615   23.1324 C   0  0  2  0  0  0
  -20.6805  -26.9352   22.5425 C   0  0  0  0  0  0
  -19.5804  -26.6339   21.5204 C   0  0  0  0  0  0
  -18.1961  -26.7880   22.1589 C   0  0  0  0  0  0
  -19.1545  -28.8783   23.2888 C   0  0  0  0  0  0
  -18.9472  -30.1413   23.8857 C   0  0  0  0  0  0
  -17.6479  -30.6545   24.0549 C   0  0  0  0  0  0
  -25.9050  -34.9417   23.5054 C   0  0  0  0  0  0
  -16.5367  -29.9056   23.6313 C   0  0  0  0  0  0
  -16.7282  -28.6470   23.0318 C   0  0  0  0  0  0
  -26.4464  -31.6565   25.0702 C   0  0  0  0  0  0
  -25.3708  -31.3764   26.1455 C   0  0  0  0  0  0
  -27.0285  -30.2955   24.6148 C   0  0  0  0  0  0
  -27.5981  -32.4337   25.7501 C   0  0  0  0  0  0
  -27.5578  -37.1831   24.8440 C   0  0  0  0  0  0
  -21.4155  -29.3023   22.3735 N   0  0  0  0  0  0
  -26.4289  -37.3758   23.9404 N   0  0  0  0  0  0
  -24.6767  -31.0590   22.1001 N   0  0  0  0  0  0
  -23.4190  -28.8031   23.2914 O   0  0  0  0  0  0
  -28.3673  -26.4841   20.1764 O   0  0  0  0  0  0
  -26.5607  -34.8854   22.4633 O   0  0  0  0  0  0
  -23.5379  -32.1306   23.7450 O   0  0  0  0  0  0
  -30.3007  -20.7324   21.4561 C   0  0  0  0  0  0
  -29.4874  -21.0789   20.4037 C   0  0  0  0  0  0
  -29.9074  -18.7704   20.3615 C   0  0  0  0  0  0
  -29.1693  -17.1674   18.3819 C   0  0  0  0  0  0
  -31.0654  -19.1935   23.8652 C   0  0  0  0  0  0
  -32.8661  -18.8807   22.1550 C   0  0  0  0  0  0
  -28.7835  -22.4161   19.9666 C   0  0  0  0  0  0
  -29.2913  -23.9156   20.2542 C   0  0  0  0  0  0
  -28.1965  -25.0395   19.8942 C   0  0  0  0  0  0
  -30.0347  -17.3070   19.6940 C   0  0  2  0  0  0
  -31.3651  -18.6742   22.4404 C   0  0  0  0  0  0
  -30.5174  -19.3540   21.4360 N   0  0  0  0  0  0
  -29.2803  -19.8381   19.7764 N   0  3  0  0  0  0
  -29.8447  -16.0009   20.4932 N   0  0  0  0  0  0
  -31.4813  -12.6585   19.2062 H   0  0  0  0  0  0
  -30.4224  -11.5601   20.0480 H   0  0  0  0  0  0
  -29.7896  -11.6578   17.6307 H   0  0  0  0  0  0
  -29.6810  -13.3982   17.6814 H   0  0  0  0  0  0
  -27.9227  -11.3016   18.9934 H   0  0  0  0  0  0
  -27.3801  -12.5176   17.8486 H   0  0  0  0  0  0
  -27.6017  -14.2625   19.4263 H   0  0  0  0  0  0
  -28.7419  -12.2397   21.4341 H   0  0  0  0  0  0
  -28.4231  -13.9022   21.8289 H   0  0  0  0  0  0
  -25.2813   -9.5804   22.4603 H   0  0  0  0  0  0
  -24.0054   -7.4780   22.7489 H   0  0  0  0  0  0
  -21.0805   -8.8733   19.8980 H   0  0  0  0  0  0
  -22.3610  -10.9663   19.6046 H   0  0  0  0  0  0
  -21.2047   -7.6124   23.9653 H   0  0  0  0  0  0
  -21.1427   -6.0530   25.9070 H   0  0  0  0  0  0
  -22.0608   -2.7553   23.2867 H   0  0  0  0  0  0
  -22.4214  -11.9944   22.4735 H   0  0  0  0  0  0
  -21.1053  -13.1190   22.2618 H   0  0  0  0  0  0
  -24.7301  -15.8996   20.6757 H   0  0  0  0  0  0
  -26.3424  -15.6258   20.2596 H   0  0  0  0  0  0
  -26.7053  -32.5424   23.1067 H   0  0  0  0  0  0
  -25.0106  -33.9663   25.0424 H   0  0  0  0  0  0
  -22.7044  -31.2997   21.4057 H   0  0  0  0  0  0
  -23.3674  -35.9739   23.3287 H   0  0  0  0  0  0
  -24.3661  -36.8981   22.2073 H   0  0  0  0  0  0
  -23.7276  -37.6533   23.6687 H   0  0  0  0  0  0
  -26.0745  -31.5468   20.6076 H   0  0  0  0  0  0
  -26.8301  -30.8507   22.0023 H   0  0  0  0  0  0
  -28.0874  -28.9592   21.2553 H   0  0  0  0  0  0
  -25.9846  -25.9543   18.9610 H   0  0  0  0  0  0
  -23.9749  -27.3303   18.9854 H   0  0  0  0  0  0
  -23.7615  -30.6004   19.4032 H   0  0  0  0  0  0
  -22.7472  -29.2599   19.8498 H   0  0  0  0  0  0
  -25.1313  -36.1901   25.0758 H   0  0  0  0  0  0
  -20.9966  -28.3169   24.1459 H   0  0  0  0  0  0
  -20.5744  -26.2205   23.3593 H   0  0  0  0  0  0
  -21.6664  -26.7435   22.1203 H   0  0  0  0  0  0
  -19.6984  -25.6242   21.1255 H   0  0  0  0  0  0
  -19.6738  -27.3111   20.6705 H   0  0  0  0  0  0
  -17.4243  -26.6594   21.3980 H   0  0  0  0  0  0
  -18.0359  -25.9978   22.8957 H   0  0  0  0  0  0
  -19.7958  -30.7218   24.2167 H   0  0  0  0  0  0
  -17.5054  -31.6235   24.5152 H   0  0  0  0  0  0
  -15.5365  -30.2952   23.7651 H   0  0  0  0  0  0
  -15.8680  -28.0805   22.7008 H   0  0  0  0  0  0
  -24.5904  -30.7017   25.7927 H   0  0  0  0  0  0
  -24.8836  -32.2933   26.4763 H   0  0  0  0  0  0
  -25.8061  -30.9114   27.0294 H   0  0  0  0  0  0
  -26.2839  -29.6732   24.1125 H   0  0  0  0  0  0
  -27.3937  -29.7190   25.4669 H   0  0  0  0  0  0
  -27.8744  -30.4249   23.9381 H   0  0  0  0  0  0
  -27.2539  -33.3686   26.1955 H   0  0  0  0  0  0
  -28.3879  -32.6804   25.0394 H   0  0  0  0  0  0
  -28.0493  -31.8508   26.5544 H   0  0  0  0  0  0
  -28.2528  -38.0199   24.7555 H   0  0  0  0  0  0
  -28.1128  -36.2708   24.6169 H   0  0  0  0  0  0
  -27.2344  -37.1421   25.8855 H   0  0  0  0  0  0
  -20.9236  -29.8790   21.7033 H   0  0  0  0  0  0
  -26.0123  -38.2792   24.1456 H   0  0  0  0  0  0
  -30.7223  -21.3608   22.2303 H   0  0  0  0  0  0
  -28.0935  -17.0632   18.5645 H   0  0  0  0  0  0
  -29.4514  -16.2892   17.7926 H   0  0  0  0  0  0
  -29.2975  -18.0111   17.6988 H   0  0  0  0  0  0
  -31.4686  -18.5179   24.6183 H   0  0  0  0  0  0
  -30.0003  -19.3002   24.0664 H   0  0  0  0  0  0
  -31.5283  -20.1676   24.0414 H   0  0  0  0  0  0
  -33.4625  -18.6752   23.0448 H   0  0  0  0  0  0
  -33.1020  -19.9061   21.8527 H   0  0  0  0  0  0
  -33.2152  -18.2046   21.3755 H   0  0  0  0  0  0
  -27.7890  -22.3596   20.4059 H   0  0  0  0  0  0
  -28.6439  -22.3476   18.8909 H   0  0  0  0  0  0
  -30.2005  -24.0997   19.6760 H   0  0  0  0  0  0
  -29.5754  -24.0327   21.2986 H   0  0  0  0  0  0
  -27.2748  -24.7401   20.3973 H   0  0  0  0  0  0
  -28.0022  -24.9662   18.8222 H   0  0  0  0  0  0
  -31.0779  -17.3275   19.3734 H   0  0  0  0  0  0
  -31.1299  -17.6103   22.4158 H   0  0  0  0  0  0
  -28.7409  -19.7394   18.9250 H   0  0  0  0  0  0
  -28.8991  -15.8627   20.8113 H   0  0  0  0  0  0
  1 25  1  0  0  0
  1 30  2  0  0  0
  1 84  1  0  0  0
  2  3  1  0  0  0
  2 25  1  0  0  0
  2 85  1  0  0  0
  2 86  1  0  0  0
  3  4  1  0  0  0
  3 87  1  0  0  0
  3 88  1  0  0  0
  4  5  1  0  0  0
  4 89  1  0  0  0
  4 90  1  0  0  0
  5  6  1  0  0  0
  5 26  1  0  0  0
  5 91  1  0  0  0
  6 25  1  0  0  0
  6 92  1  0  0  0
  6 93  1  0  0  0
  7  8  2  0  0  0
  7 26  1  0  0  0
  7 29  1  0  0  0
  8  9  1  0  0  0
  8 22  1  0  0  0
  9 10  1  0  0  0
  9 27  2  0  0  0
 10 11  2  0  0  0
 10 15  1  0  0  0
 11 12  1  0  0  0
 11 94  1  0  0  0
 12 13  2  0  0  0
 12 95  1  0  0  0
 13 14  1  0  0  0
 13 31  1  0  0  0
 14 15  2  0  0  0
 14 96  1  0  0  0
 15 97  1  0  0  0
 16 17  2  0  0  0
 16 21  1  0  0  0
 16 31  1  0  0  0
 17 18  1  0  0  0
 17 98  1  0  0  0
 18 19  2  0  0  0
 18 99  1  0  0  0
 19 20  1  0  0  0
 19 24  1  0  0  0
 20 21  2  0  0  0
 20100  1  0  0  0
 21 23  1  0  0  0
 22 28  1  0  0  0
 22 32  2  0  0  0
 26 27  1  0  0  0
 28101  1  0  0  0
 28102  1  0  0  0
 29103  1  0  0  0
 29104  1  0  0  0
 33 34  1  0  0  0
 33 66  1  0  0  0
 33 70  2  0  0  0
 34 36  1  0  0  0
 34 59  1  0  0  0
 34105  1  0  0  0
 35 44  2  0  0  0
 35 45  1  0  0  0
 35 68  1  0  0  0
 36 56  1  0  0  0
 36106  1  0  0  0
 37 39  1  0  0  0
 37 47  1  0  0  0
 37 66  1  0  0  0
 37107  1  0  0  0
 38 43  2  0  0  0
 38 46  1  0  0  0
 38 47  1  0  0  0
 39 64  1  0  0  0
 39 67  2  0  0  0
 40 52  1  0  0  0
 40 53  2  0  0  0
 40 58  1  0  0  0
 41108  1  0  0  0
 41109  1  0  0  0
 41110  1  0  0  0
 41 48  1  0  0  0
 42 43  1  0  0  0
 42 66  1  0  0  0
 42111  1  0  0  0
 42112  1  0  0  0
 43 44  1  0  0  0
 44113  1  0  0  0
 45 46  2  0  0  0
 45114  1  0  0  0
 46115  1  0  0  0
 47116  1  0  0  0
 47117  1  0  0  0
 48 56  1  0  0  0
 48 65  1  0  0  0
 48118  1  0  0  0
 49 50  1  0  0  0
 49 53  1  0  0  0
 49 64  1  0  0  0
 49119  1  0  0  0
 50 51  1  0  0  0
 50120  1  0  0  0
 50121  1  0  0  0
 51 52  1  0  0  0
 51122  1  0  0  0
 51123  1  0  0  0
 52124  1  0  0  0
 52125  1  0  0  0
 53 54  1  0  0  0
 54 55  2  0  0  0
 54126  1  0  0  0
 55 57  1  0  0  0
 55127  1  0  0  0
 56 69  2  0  0  0
 57 58  2  0  0  0
 57128  1  0  0  0
 58129  1  0  0  0
 59 60  1  0  0  0
 59 61  1  0  0  0
 59 62  1  0  0  0
 60130  1  0  0  0
 60131  1  0  0  0
 60132  1  0  0  0
 61133  1  0  0  0
 61134  1  0  0  0
 61135  1  0  0  0
 62136  1  0  0  0
 62137  1  0  0  0
 62138  1  0  0  0
 63 65  1  0  0  0
 63139  1  0  0  0
 63140  1  0  0  0
 63141  1  0  0  0
 64142  1  0  0  0
 65143  1  0  0  0
 68 79  1  0  0  0
 71 72  2  0  0  0
 71 82  1  0  0  0
 71144  1  0  0  0
 72 77  1  0  0  0
 72 83  1  0  0  0
 73 80  1  0  0  0
 73 82  1  0  0  0
 73 83  2  0  0  0
 74145  1  0  0  0
 74146  1  0  0  0
 74147  1  0  0  0
 74 80  1  0  0  0
 75148  1  0  0  0
 75149  1  0  0  0
 75150  1  0  0  0
 75 81  1  0  0  0
 76 81  1  0  0  0
 76151  1  0  0  0
 76152  1  0  0  0
 76153  1  0  0  0
 77 78  1  0  0  0
 77154  1  0  0  0
 77155  1  0  0  0
 78 79  1  0  0  0
 78156  1  0  0  0
 78157  1  0  0  0
 79158  1  0  0  0
 79159  1  0  0  0
 80 84  1  0  0  0
 80160  1  0  0  0
 81 82  1  0  0  0
 81161  1  0  0  0
 83162  1  0  0  0
 84163  1  0  0  0
M  CHG  1  83   1
M  ISO  4   1 100  68 101  79 101  84 100
M  END
> <chiral flag>
0

> <version>
0

> <s_m_source_file>
/data/baiqing/PycharmProjects/Reinvent-master-3.2/result/LINK_invent/BTK/process_docking_weight1_custom_sum_contain_oxygen_bond_distance_aromatic_linkinvent_7_9_3/rearranged_h_0058.sdf

> <i_m_source_file_index>
95

> <r_mmod_Potential_Energy-OPLS-2005>
119.288192749023

> <r_mmod_Stretch_Energy-OPLS-2005>
122.490447998047

> <r_mmod_Bend_Energy-OPLS-2005>
195.514205932617

> <r_mmod_Torsional_Energy-OPLS-2005>
251.073532104492

> <r_mmod_Improper_Torsional_Energy-OPLS-2005>
9.3484468460083

> <r_mmod_Van_der_Waal_Energy-OPLS-2005>
115.754196166992

> <r_mmod_Electrostatic_Energy-OPLS-2005>
-252.334182739258

> <r_mmod_Solvation_Energy-OPLS-2005>
-420.503356933594

> <b_mmod_Minimization_Converged-OPLS-2005>
0

> <r_mmod_RMS_Derivative-OPLS-2005>
10.5921106338501

$$$$
95
                    3D
 Structure written by MMmdl.
160168  0  0  1  0            999 V2000
  -30.6553  -14.6543   20.5322 C   0  0  0  0  0  0
  -30.4188  -12.4096   19.4650 C   0  0  0  0  0  0
  -29.4912  -12.5119   18.2341 C   0  0  0  0  0  0
  -28.0214  -12.3217   18.6417 C   0  0  0  0  0  0
  -27.6382  -13.2171   19.8486 C   0  0  2  0  0  0
  -28.6817  -13.1020   20.9850 C   0  0  0  0  0  0
  -25.2484  -13.8171   20.5698 C   0  0  0  0  0  0
  -24.1763  -13.0451   20.9216 C   0  0  0  0  0  0
  -24.6319  -11.6914   20.8742 C   0  0  0  0  0  0
  -23.8979  -10.4318   21.0406 C   0  0  0  0  0  0
  -24.3554   -9.4230   21.9159 C   0  0  0  0  0  0
  -23.6259   -8.2265   22.0724 C   0  0  0  0  0  0
  -22.4241   -8.0282   21.3538 C   0  0  0  0  0  0
  -21.9863   -9.0239   20.4627 C   0  0  0  0  0  0
  -22.7162  -10.2131   20.3047 C   0  0  0  0  0  0
  -21.6834   -6.0744   22.5303 C   0  0  0  0  0  0
  -21.4014   -6.5664   23.8230 C   0  0  0  0  0  0
  -21.3656   -5.6810   24.9188 C   0  0  0  0  0  0
  -21.6025   -4.3071   24.7219 C   0  0  0  0  0  0
  -21.8818   -3.8160   23.4350 C   0  0  0  0  0  0
  -21.9191   -4.6986   22.3402 C   0  0  0  0  0  0
  -22.7779  -13.5218   21.1908 C   0  0  0  0  0  0
  -22.1650   -4.2177   21.0986 F   0  0  0  0  0  0
  -21.5607   -3.4545   25.7738 F   0  0  0  0  0  0
  -29.9984  -13.4475   20.4319 N   0  0  0  0  0  0
  -26.2877  -12.9344   20.3244 N   0  0  0  0  0  0
  -25.9235  -11.6516   20.5734 N   0  0  0  0  0  0
  -22.0390  -12.8243   22.0460 N   0  0  0  0  0  0
  -25.4264  -15.1903   20.4127 N   0  0  0  0  0  0
  -31.7768  -14.7902   20.0342 O   0  0  0  0  0  0
  -21.6623   -6.8889   21.4246 O   0  0  0  0  0  0
  -22.3486  -14.5533   20.6746 O   0  0  0  0  0  0
  -24.6358  -31.8555   23.2034 C   0  0  0  0  0  0
  -25.9159  -32.4759   23.8395 C   0  0  1  0  0  0
  -27.1995  -27.2558   20.1262 C   0  0  0  0  0  0
  -25.5948  -33.8576   24.2295 N   0  0  0  0  0  0
  -23.4332  -30.4846   21.5440 C   0  0  2  0  0  0
  -24.8732  -28.9398   20.1107 C   0  0  0  0  0  0
  -22.7536  -29.4587   22.4873 C   0  0  0  0  0  0
  -18.0289  -28.1392   22.8462 C   0  0  0  0  0  0
  -24.1498  -36.7317   23.2634 C   0  0  0  0  0  0
  -25.9845  -30.7690   21.3850 C   0  0  0  0  0  0
  -26.0464  -29.3960   20.7194 C   0  0  0  0  0  0
  -27.2142  -28.5674   20.7116 C   0  0  0  0  0  0
  -25.9955  -26.8753   19.4836 C   0  0  0  0  0  0
  -24.8504  -27.6890   19.4845 C   0  0  0  0  0  0
  -23.6556  -29.8365   20.1552 C   0  0  0  0  0  0
  -25.4115  -36.3098   24.0336 C   0  0  1  0  0  0
  -20.5893  -28.3702   23.1255 C   0  0  2  0  0  0
  -20.6784  -26.9421   22.5388 C   0  0  0  0  0  0
  -19.5752  -26.6382   21.5196 C   0  0  0  0  0  0
  -18.1936  -26.7933   22.1616 C   0  0  0  0  0  0
  -19.1543  -28.8866   23.2860 C   0  0  0  0  0  0
  -18.9459  -30.1455   23.8897 C   0  0  0  0  0  0
  -17.6461  -30.6582   24.0570 C   0  0  0  0  0  0
  -25.9046  -34.9455   23.5109 C   0  0  0  0  0  0
  -16.5353  -29.9090   23.6313 C   0  0  0  0  0  0
  -16.7283  -28.6516   23.0325 C   0  0  0  0  0  0
  -26.4523  -31.6593   25.0785 C   0  0  0  0  0  0
  -25.3764  -31.3756   26.1514 C   0  0  0  0  0  0
  -27.0333  -30.2990   24.6277 C   0  0  0  0  0  0
  -27.6048  -32.4352   25.7569 C   0  0  0  0  0  0
  -27.5583  -37.1814   24.8457 C   0  0  0  0  0  0
  -21.4233  -29.3055   22.3656 N   0  0  0  0  0  0
  -26.4302  -37.3782   23.9402 N   0  0  0  0  0  0
  -24.7044  -31.0542   22.0996 N   0  0  0  0  0  0
  -23.4242  -28.8083   23.2935 O   0  0  0  0  0  0
  -28.2976  -26.3665   20.2204 O   0  0  0  0  0  0
  -26.5613  -34.8925   22.4667 O   0  0  0  0  0  0
  -23.5484  -32.1368   23.7291 O   0  0  0  0  0  0
  -30.8613  -19.5794   18.0174 C   0  0  0  0  0  0
  -30.1654  -18.4226   20.3128 C   0  0  0  0  0  0
  -31.5010  -18.4087   19.8591 C   0  0  0  0  0  0
  -29.4526  -19.5911   19.8221 C   0  0  0  0  0  0
  -32.6395  -17.7728   20.6299 C   0  0  0  0  0  0
  -29.9266  -15.8907   22.5163 C   0  0  0  0  0  0
  -29.4719  -16.9904   20.3280 C   0  0  0  0  0  0
  -29.3243  -20.9336   20.6617 C   0  0  0  0  0  0
  -28.6064  -22.2274   20.0213 C   0  0  0  0  0  0
  -28.7301  -23.6976   20.6773 C   0  0  0  0  0  0
  -28.2103  -24.9298   19.7891 C   0  0  0  0  0  0
  -31.8338  -18.9688   18.6815 N   0  0  0  0  0  0
  -29.6953  -19.9319   18.5398 N   0  0  0  0  0  0
  -29.9828  -15.7493   21.0571 N   0  0  0  0  0  0
  -31.4598  -12.5258   19.1606 H   0  0  0  0  0  0
  -30.3539  -11.4222   19.9239 H   0  0  0  0  0  0
  -29.7724  -11.7710   17.4846 H   0  0  0  0  0  0
  -29.6151  -13.4913   17.7676 H   0  0  0  0  0  0
  -27.8804  -11.2678   18.8941 H   0  0  0  0  0  0
  -27.3569  -12.5170   17.7989 H   0  0  0  0  0  0
  -27.6465  -14.2421   19.4800 H   0  0  0  0  0  0
  -28.6898  -12.0858   21.3811 H   0  0  0  0  0  0
  -28.4088  -13.7450   21.8198 H   0  0  0  0  0  0
  -25.2691   -9.5729   22.4721 H   0  0  0  0  0  0
  -23.9970   -7.4661   22.7446 H   0  0  0  0  0  0
  -21.0790   -8.8739   19.8932 H   0  0  0  0  0  0
  -22.3592  -10.9661   19.6174 H   0  0  0  0  0  0
  -21.2031   -7.6171   23.9757 H   0  0  0  0  0  0
  -21.1453   -6.0523   25.9092 H   0  0  0  0  0  0
  -22.0592   -2.7631   23.2854 H   0  0  0  0  0  0
  -22.3973  -11.9896   22.4856 H   0  0  0  0  0  0
  -21.1012  -13.1310   22.2650 H   0  0  0  0  0  0
  -24.6661  -15.8496   20.5244 H   0  0  0  0  0  0
  -26.2905  -15.6223   20.1101 H   0  0  0  0  0  0
  -26.7228  -32.5403   23.1138 H   0  0  0  0  0  0
  -25.0133  -33.9715   25.0468 H   0  0  0  0  0  0
  -22.7300  -31.3080   21.4026 H   0  0  0  0  0  0
  -23.3752  -35.9651   23.3294 H   0  0  0  0  0  0
  -24.3599  -36.8936   22.2044 H   0  0  0  0  0  0
  -23.7262  -37.6529   23.6656 H   0  0  0  0  0  0
  -26.1271  -31.5292   20.6155 H   0  0  0  0  0  0
  -26.8652  -30.8130   22.0169 H   0  0  0  0  0  0
  -28.1207  -28.9144   21.1895 H   0  0  0  0  0  0
  -25.8668  -25.9350   18.9773 H   0  0  0  0  0  0
  -23.9453  -27.3379   19.0076 H   0  0  0  0  0  0
  -23.8110  -30.6267   19.4180 H   0  0  0  0  0  0
  -22.7751  -29.2857   19.8260 H   0  0  0  0  0  0
  -25.1287  -36.1953   25.0832 H   0  0  0  0  0  0
  -20.9976  -28.3269   24.1373 H   0  0  0  0  0  0
  -20.5651  -26.2321   23.3597 H   0  0  0  0  0  0
  -21.6661  -26.7429   22.1189 H   0  0  0  0  0  0
  -19.6918  -25.6284   21.1233 H   0  0  0  0  0  0
  -19.6691  -27.3192   20.6730 H   0  0  0  0  0  0
  -17.4199  -26.6658   21.4024 H   0  0  0  0  0  0
  -18.0353  -26.0075   22.9020 H   0  0  0  0  0  0
  -19.7935  -30.7252   24.2299 H   0  0  0  0  0  0
  -17.5014  -31.6248   24.5178 H   0  0  0  0  0  0
  -15.5357  -30.3003   23.7610 H   0  0  0  0  0  0
  -15.8689  -28.0847   22.7030 H   0  0  0  0  0  0
  -24.5932  -30.7090   25.7889 H   0  0  0  0  0  0
  -24.8972  -32.2927   26.4950 H   0  0  0  0  0  0
  -25.8101  -30.8957   27.0298 H   0  0  0  0  0  0
  -26.2900  -29.6748   24.1289 H   0  0  0  0  0  0
  -27.3974  -29.7236   25.4804 H   0  0  0  0  0  0
  -27.8820  -30.4244   23.9551 H   0  0  0  0  0  0
  -27.2620  -33.3635   26.2163 H   0  0  0  0  0  0
  -28.3862  -32.6941   25.0415 H   0  0  0  0  0  0
  -28.0733  -31.8493   26.5490 H   0  0  0  0  0  0
  -28.2593  -38.0117   24.7489 H   0  0  0  0  0  0
  -28.1093  -36.2637   24.6298 H   0  0  0  0  0  0
  -27.2307  -37.1488   25.8866 H   0  0  0  0  0  0
  -20.9408  -29.8897   21.6961 H   0  0  0  0  0  0
  -26.0180  -38.2863   24.1377 H   0  0  0  0  0  0
  -31.0838  -19.9161   17.0132 H   0  0  0  0  0  0
  -33.2779  -18.5608   21.0384 H   0  0  0  0  0  0
  -33.2474  -17.1331   19.9885 H   0  0  0  0  0  0
  -32.2819  -17.1799   21.4632 H   0  0  0  0  0  0
  -30.0956  -14.9447   23.0422 H   0  0  0  0  0  0
  -30.6831  -16.5867   22.8792 H   0  0  0  0  0  0
  -28.9493  -16.2625   22.8350 H   0  0  0  0  0  0
  -28.4613  -17.1553   20.7036 H   0  0  0  0  0  0
  -29.3322  -16.7087   19.2809 H   0  0  0  0  0  0
  -30.3398  -21.2256   20.9319 H   0  0  0  0  0  0
  -28.8362  -20.6886   21.6042 H   0  0  0  0  0  0
  -28.9904  -22.3323   19.0092 H   0  0  0  0  0  0
  -27.5477  -21.9945   19.9016 H   0  0  0  0  0  0
  -28.1754  -23.6987   21.6183 H   0  0  0  0  0  0
  -29.7723  -23.8679   20.9459 H   0  0  0  0  0  0
  -27.2042  -24.6225   19.5396 H   0  0  0  0  0  0
  -28.7552  -24.8837   18.8450 H   0  0  0  0  0  0
  1 25  1  0  0  0
  1 30  2  0  0  0
  1 84  1  0  0  0
  2  3  1  0  0  0
  2 25  1  0  0  0
  2 85  1  0  0  0
  2 86  1  0  0  0
  3  4  1  0  0  0
  3 87  1  0  0  0
  3 88  1  0  0  0
  4  5  1  0  0  0
  4 89  1  0  0  0
  4 90  1  0  0  0
  5  6  1  0  0  0
  5 26  1  0  0  0
  5 91  1  0  0  0
  6 25  1  0  0  0
  6 92  1  0  0  0
  6 93  1  0  0  0
  7  8  2  0  0  0
  7 26  1  0  0  0
  7 29  1  0  0  0
  8  9  1  0  0  0
  8 22  1  0  0  0
  9 10  1  0  0  0
  9 27  2  0  0  0
 10 11  2  0  0  0
 10 15  1  0  0  0
 11 12  1  0  0  0
 11 94  1  0  0  0
 12 13  2  0  0  0
 12 95  1  0  0  0
 13 14  1  0  0  0
 13 31  1  0  0  0
 14 15  2  0  0  0
 14 96  1  0  0  0
 15 97  1  0  0  0
 16 17  2  0  0  0
 16 21  1  0  0  0
 16 31  1  0  0  0
 17 18  1  0  0  0
 17 98  1  0  0  0
 18 19  2  0  0  0
 18 99  1  0  0  0
 19 20  1  0  0  0
 19 24  1  0  0  0
 20 21  2  0  0  0
 20100  1  0  0  0
 21 23  1  0  0  0
 22 28  1  0  0  0
 22 32  2  0  0  0
 26 27  1  0  0  0
 28101  1  0  0  0
 28102  1  0  0  0
 29103  1  0  0  0
 29104  1  0  0  0
 33 34  1  0  0  0
 33 66  1  0  0  0
 33 70  2  0  0  0
 34 36  1  0  0  0
 34 59  1  0  0  0
 34105  1  0  0  0
 35 44  2  0  0  0
 35 45  1  0  0  0
 35 68  1  0  0  0
 36 56  1  0  0  0
 36106  1  0  0  0
 37 39  1  0  0  0
 37 47  1  0  0  0
 37 66  1  0  0  0
 37107  1  0  0  0
 38 43  2  0  0  0
 38 46  1  0  0  0
 38 47  1  0  0  0
 39 64  1  0  0  0
 39 67  2  0  0  0
 40 52  1  0  0  0
 40 53  2  0  0  0
 40 58  1  0  0  0
 41108  1  0  0  0
 41109  1  0  0  0
 41110  1  0  0  0
 41 48  1  0  0  0
 42 43  1  0  0  0
 42 66  1  0  0  0
 42111  1  0  0  0
 42112  1  0  0  0
 43 44  1  0  0  0
 44113  1  0  0  0
 45 46  2  0  0  0
 45114  1  0  0  0
 46115  1  0  0  0
 47116  1  0  0  0
 47117  1  0  0  0
 48 56  1  0  0  0
 48 65  1  0  0  0
 48118  1  0  0  0
 49 50  1  0  0  0
 49 53  1  0  0  0
 49 64  1  0  0  0
 49119  1  0  0  0
 50 51  1  0  0  0
 50120  1  0  0  0
 50121  1  0  0  0
 51 52  1  0  0  0
 51122  1  0  0  0
 51123  1  0  0  0
 52124  1  0  0  0
 52125  1  0  0  0
 53 54  1  0  0  0
 54 55  2  0  0  0
 54126  1  0  0  0
 55 57  1  0  0  0
 55127  1  0  0  0
 56 69  2  0  0  0
 57 58  2  0  0  0
 57128  1  0  0  0
 58129  1  0  0  0
 59 60  1  0  0  0
 59 61  1  0  0  0
 59 62  1  0  0  0
 60130  1  0  0  0
 60131  1  0  0  0
 60132  1  0  0  0
 61133  1  0  0  0
 61134  1  0  0  0
 61135  1  0  0  0
 62136  1  0  0  0
 62137  1  0  0  0
 62138  1  0  0  0
 63 65  1  0  0  0
 63139  1  0  0  0
 63140  1  0  0  0
 63141  1  0  0  0
 64142  1  0  0  0
 65143  1  0  0  0
 68 81  1  0  0  0
 71 82  2  0  0  0
 71 83  1  0  0  0
 71144  1  0  0  0
 72 73  2  0  0  0
 72 74  1  0  0  0
 72 77  1  0  0  0
 73 75  1  0  0  0
 73 82  1  0  0  0
 74 78  1  0  0  0
 74 83  2  0  0  0
 75145  1  0  0  0
 75146  1  0  0  0
 75147  1  0  0  0
 76 84  1  0  0  0
 76148  1  0  0  0
 76149  1  0  0  0
 76150  1  0  0  0
 77 84  1  0  0  0
 77151  1  0  0  0
 77152  1  0  0  0
 78 79  1  0  0  0
 78153  1  0  0  0
 78154  1  0  0  0
 79 80  1  0  0  0
 79155  1  0  0  0
 79156  1  0  0  0
 80 81  1  0  0  0
 80157  1  0  0  0
 80158  1  0  0  0
 81159  1  0  0  0
 81160  1  0  0  0
M  ISO  4   1 100  68 101  81 101  84 100
M  END
> <chiral flag>
0

> <version>
0

> <s_m_source_file>
/data/baiqing/PycharmProjects/Reinvent-master-3.2/result/LINK_invent/BTK/process_docking_weight1_custom_sum_contain_oxygen_bond_distance_aromatic_linkinvent_7_9_3/rearranged_h_0058.sdf

> <i_m_source_file_index>
96

> <r_mmod_Potential_Energy-OPLS-2005>
181.085052490234

> <r_mmod_Stretch_Energy-OPLS-2005>
115.434219360352

> <r_mmod_Bend_Energy-OPLS-2005>
196.366012573242

> <r_mmod_Torsional_Energy-OPLS-2005>
465.2197265625

> <r_mmod_Improper_Torsional_Energy-OPLS-2005>
32.2264137268066

> <r_mmod_Van_der_Waal_Energy-OPLS-2005>
154.071487426758

> <r_mmod_Electrostatic_Energy-OPLS-2005>
-638.015747070312

> <r_mmod_Solvation_Energy-OPLS-2005>
-212.584747314453

> <b_mmod_Minimization_Converged-OPLS-2005>
0

> <r_mmod_RMS_Derivative-OPLS-2005>
5.33928298950195

$$$$
96
                    3D
 Structure written by MMmdl.
165173  0  0  1  0            999 V2000
  -30.6539  -14.9367   20.3853 C   0  0  0  0  0  0
  -30.4085  -12.5807   19.5149 C   0  0  0  0  0  0
  -29.5118  -12.5090   18.2610 C   0  0  0  0  0  0
  -28.0411  -12.3206   18.6691 C   0  0  0  0  0  0
  -27.6150  -13.2670   19.8242 C   0  0  2  0  0  0
  -28.6583  -13.3604   20.9553 C   0  0  0  0  0  0
  -25.2379  -13.8234   20.5689 C   0  0  0  0  0  0
  -24.1723  -13.0441   20.9238 C   0  0  0  0  0  0
  -24.6383  -11.6943   20.8783 C   0  0  0  0  0  0
  -23.9074  -10.4303   21.0429 C   0  0  0  0  0  0
  -24.3629   -9.4212   21.9194 C   0  0  0  0  0  0
  -23.6316   -8.2236   22.0736 C   0  0  0  0  0  0
  -22.4291   -8.0278   21.3532 C   0  0  0  0  0  0
  -21.9935   -9.0258   20.4634 C   0  0  0  0  0  0
  -22.7255  -10.2144   20.3070 C   0  0  0  0  0  0
  -21.6862   -6.0746   22.5295 C   0  0  0  0  0  0
  -21.4022   -6.5647   23.8227 C   0  0  0  0  0  0
  -21.3667   -5.6790   24.9188 C   0  0  0  0  0  0
  -21.6046   -4.3058   24.7230 C   0  0  0  0  0  0
  -21.8818   -3.8150   23.4351 C   0  0  0  0  0  0
  -21.9199   -4.6970   22.3409 C   0  0  0  0  0  0
  -22.7750  -13.5200   21.1917 C   0  0  0  0  0  0
  -22.1659   -4.2159   21.0988 F   0  0  0  0  0  0
  -21.5638   -3.4538   25.7738 F   0  0  0  0  0  0
  -29.9388  -13.7349   20.3443 N   0  0  0  0  0  0
  -26.2830  -12.9517   20.3265 N   0  0  0  0  0  0
  -25.9326  -11.6628   20.5792 N   0  0  0  0  0  0
  -22.0399  -12.8187   22.0480 N   0  0  0  0  0  0
  -25.4028  -15.1928   20.4019 N   0  0  0  0  0  0
  -31.8716  -14.7749   20.2620 O   0  0  0  0  0  0
  -21.6641   -6.8886   21.4249 O   0  0  0  0  0  0
  -22.3426  -14.5503   20.6766 O   0  0  0  0  0  0
  -24.6421  -31.8461   23.1900 C   0  0  0  0  0  0
  -25.9199  -32.4697   23.8288 C   0  0  1  0  0  0
  -27.2039  -27.1410   20.1470 C   0  0  0  0  0  0
  -25.5955  -33.8505   24.2207 N   0  0  0  0  0  0
  -23.4442  -30.4679   21.5364 C   0  0  2  0  0  0
  -24.8902  -28.8990   20.1096 C   0  0  0  0  0  0
  -22.7557  -29.4568   22.4869 C   0  0  0  0  0  0
  -18.0297  -28.1390   22.8472 C   0  0  0  0  0  0
  -24.1491  -36.7254   23.2646 C   0  0  0  0  0  0
  -26.0012  -30.7199   21.3904 C   0  0  0  0  0  0
  -26.0690  -29.3334   20.7290 C   0  0  0  0  0  0
  -27.2279  -28.4707   20.7309 C   0  0  0  0  0  0
  -26.0012  -26.8128   19.4833 C   0  0  0  0  0  0
  -24.8689  -27.6519   19.4720 C   0  0  0  0  0  0
  -23.6690  -29.8022   20.1544 C   0  0  0  0  0  0
  -25.4119  -36.3026   24.0324 C   0  0  1  0  0  0
  -20.5918  -28.3716   23.1239 C   0  0  2  0  0  0
  -20.6799  -26.9420   22.5401 C   0  0  0  0  0  0
  -19.5769  -26.6371   21.5216 C   0  0  0  0  0  0
  -18.1944  -26.7926   22.1623 C   0  0  0  0  0  0
  -19.1558  -28.8867   23.2846 C   0  0  0  0  0  0
  -18.9474  -30.1470   23.8866 C   0  0  0  0  0  0
  -17.6475  -30.6590   24.0561 C   0  0  0  0  0  0
  -25.9070  -34.9404   23.5073 C   0  0  0  0  0  0
  -16.5363  -29.9083   23.6345 C   0  0  0  0  0  0
  -16.7285  -28.6504   23.0351 C   0  0  0  0  0  0
  -26.4524  -31.6551   25.0725 C   0  0  0  0  0  0
  -25.3722  -31.3730   26.1431 C   0  0  0  0  0  0
  -27.0402  -30.2945   24.6315 C   0  0  0  0  0  0
  -27.6046  -32.4325   25.7503 C   0  0  0  0  0  0
  -27.5573  -37.1784   24.8468 C   0  0  0  0  0  0
  -21.4251  -29.3044   22.3609 N   0  0  0  0  0  0
  -26.4282  -37.3743   23.9407 N   0  0  0  0  0  0
  -24.7158  -31.0328   22.0934 N   0  0  0  0  0  0
  -23.4203  -28.8122   23.3018 O   0  0  0  0  0  0
  -28.2477  -26.1492   20.2134 O   0  0  0  0  0  0
  -26.5650  -34.8903   22.4647 O   0  0  0  0  0  0
  -23.5548  -32.1332   23.7134 O   0  0  0  0  0  0
  -27.3313  -17.6762   21.8885 C   0  0  0  0  0  0
  -28.7425  -18.8469   20.8492 C   0  0  0  0  0  0
  -26.1747  -17.3209   22.7569 C   0  0  0  0  0  0
  -28.5962  -17.4987   17.4744 C   0  0  0  0  0  0
  -30.5043  -16.3940   16.4095 C   0  0  0  0  0  0
  -29.3475  -20.2831   20.3885 C   0  0  0  0  0  0
  -28.4303  -21.7058   20.4619 C   0  0  0  0  0  0
  -28.9397  -23.3063   20.3159 C   0  0  0  0  0  0
  -30.6668  -17.0451   18.7805 C   0  0  0  0  0  0
  -27.9110  -24.6295   20.1849 C   0  0  0  0  0  0
  -30.2560  -16.5664   20.1997 C   0  0  1  0  0  0
  -27.6242  -18.9614   21.5663 N   0  0  0  0  0  0
  -28.1460  -16.7503   21.4018 N   0  0  0  0  0  0
  -29.1095  -17.4539   20.7553 N   0  0  0  0  0  0
  -29.7646  -16.6078   17.6767 N   0  3  0  0  0  0
  -31.4506  -12.6688   19.2028 H   0  0  0  0  0  0
  -30.3563  -11.6505   20.0844 H   0  0  0  0  0  0
  -29.8314  -11.6872   17.6194 H   0  0  0  0  0  0
  -29.6235  -13.4174   17.6685 H   0  0  0  0  0  0
  -27.9252  -11.2826   18.9815 H   0  0  0  0  0  0
  -27.3866  -12.4545   17.8068 H   0  0  0  0  0  0
  -27.5566  -14.2586   19.3759 H   0  0  0  0  0  0
  -28.7417  -12.4141   21.4917 H   0  0  0  0  0  0
  -28.3576  -14.1022   21.6947 H   0  0  0  0  0  0
  -25.2768   -9.5693   22.4780 H   0  0  0  0  0  0
  -24.0033   -7.4616   22.7435 H   0  0  0  0  0  0
  -21.0874   -8.8768   19.8934 H   0  0  0  0  0  0
  -22.3696  -10.9686   19.6186 H   0  0  0  0  0  0
  -21.1997   -7.6145   23.9737 H   0  0  0  0  0  0
  -21.1501   -6.0521   25.9098 H   0  0  0  0  0  0
  -22.0584   -2.7613   23.2848 H   0  0  0  0  0  0
  -22.4010  -11.9858   22.4897 H   0  0  0  0  0  0
  -21.1015  -13.1219   22.2662 H   0  0  0  0  0  0
  -24.6368  -15.8488   20.5022 H   0  0  0  0  0  0
  -26.3033  -15.6357   20.2630 H   0  0  0  0  0  0
  -26.7260  -32.5300   23.1013 H   0  0  0  0  0  0
  -25.0087  -33.9624   25.0343 H   0  0  0  0  0  0
  -22.7466  -31.2948   21.3856 H   0  0  0  0  0  0
  -23.3760  -35.9583   23.3293 H   0  0  0  0  0  0
  -24.3585  -36.8898   22.2067 H   0  0  0  0  0  0
  -23.7242  -37.6447   23.6688 H   0  0  0  0  0  0
  -26.1641  -31.4767   20.6220 H   0  0  0  0  0  0
  -26.8703  -30.7637   22.0352 H   0  0  0  0  0  0
  -28.1245  -28.7961   21.2396 H   0  0  0  0  0  0
  -25.8924  -25.8703   18.9724 H   0  0  0  0  0  0
  -23.9704  -27.3146   18.9737 H   0  0  0  0  0  0
  -23.8062  -30.5805   19.4031 H   0  0  0  0  0  0
  -22.7824  -29.2487   19.8403 H   0  0  0  0  0  0
  -25.1304  -36.1866   25.0820 H   0  0  0  0  0  0
  -20.9997  -28.3296   24.1367 H   0  0  0  0  0  0
  -20.5716  -26.2314   23.3613 H   0  0  0  0  0  0
  -21.6664  -26.7440   22.1186 H   0  0  0  0  0  0
  -19.6931  -25.6273   21.1262 H   0  0  0  0  0  0
  -19.6713  -27.3172   20.6736 H   0  0  0  0  0  0
  -17.4219  -26.6663   21.4026 H   0  0  0  0  0  0
  -18.0336  -26.0078   22.9024 H   0  0  0  0  0  0
  -19.7954  -30.7294   24.2213 H   0  0  0  0  0  0
  -17.5032  -31.6266   24.5171 H   0  0  0  0  0  0
  -15.5365  -30.2977   23.7694 H   0  0  0  0  0  0
  -15.8681  -28.0826   22.7074 H   0  0  0  0  0  0
  -24.5905  -30.7066   25.7762 H   0  0  0  0  0  0
  -24.8916  -32.2912   26.4817 H   0  0  0  0  0  0
  -25.8035  -30.8935   27.0229 H   0  0  0  0  0  0
  -26.3030  -29.6652   24.1318 H   0  0  0  0  0  0
  -27.4001  -29.7257   25.4899 H   0  0  0  0  0  0
  -27.8940  -30.4173   23.9648 H   0  0  0  0  0  0
  -27.2619  -33.3641   26.2018 H   0  0  0  0  0  0
  -28.3882  -32.6863   25.0348 H   0  0  0  0  0  0
  -28.0683  -31.8495   26.5472 H   0  0  0  0  0  0
  -28.2579  -38.0089   24.7508 H   0  0  0  0  0  0
  -28.1077  -36.2619   24.6294 H   0  0  0  0  0  0
  -27.2294  -37.1427   25.8871 H   0  0  0  0  0  0
  -20.9450  -29.8739   21.6784 H   0  0  0  0  0  0
  -26.0151  -38.2813   24.1406 H   0  0  0  0  0  0
  -26.1745  -16.2549   22.9886 H   0  0  0  0  0  0
  -25.2351  -17.5669   22.2612 H   0  0  0  0  0  0
  -26.2282  -17.8769   23.6928 H   0  0  0  0  0  0
  -27.9733  -17.1450   16.6526 H   0  0  0  0  0  0
  -28.9133  -18.5160   17.2370 H   0  0  0  0  0  0
  -27.9581  -17.5353   18.3559 H   0  0  0  0  0  0
  -29.8375  -16.0412   15.6212 H   0  0  0  0  0  0
  -31.2851  -15.6420   16.5343 H   0  0  0  0  0  0
  -30.9769  -17.3162   16.0648 H   0  0  0  0  0  0
  -29.7056  -20.1711   19.3657 H   0  0  0  0  0  0
  -30.2463  -20.4359   20.9859 H   0  0  0  0  0  0
  -27.9325  -21.6739   21.4317 H   0  0  0  0  0  0
  -27.6183  -21.5764   19.7467 H   0  0  0  0  0  0
  -29.5975  -23.3462   19.4481 H   0  0  0  0  0  0
  -29.5929  -23.5033   21.1669 H   0  0  0  0  0  0
  -31.6709  -16.6689   18.5771 H   0  0  0  0  0  0
  -30.7893  -18.1278   18.7619 H   0  0  0  0  0  0
  -27.1456  -24.4947   20.9497 H   0  0  0  0  0  0
  -27.4008  -24.4485   19.2411 H   0  0  0  0  0  0
  -31.0634  -16.9644   20.8165 H   0  0  0  0  0  0
  -29.3905  -15.7041   17.9185 H   0  0  0  0  0  0
  1 25  1  0  0  0
  1 30  2  0  0  0
  1 81  1  0  0  0
  2  3  1  0  0  0
  2 25  1  0  0  0
  2 86  1  0  0  0
  2 87  1  0  0  0
  3  4  1  0  0  0
  3 88  1  0  0  0
  3 89  1  0  0  0
  4  5  1  0  0  0
  4 90  1  0  0  0
  4 91  1  0  0  0
  5  6  1  0  0  0
  5 26  1  0  0  0
  5 92  1  0  0  0
  6 25  1  0  0  0
  6 93  1  0  0  0
  6 94  1  0  0  0
  7  8  2  0  0  0
  7 26  1  0  0  0
  7 29  1  0  0  0
  8  9  1  0  0  0
  8 22  1  0  0  0
  9 10  1  0  0  0
  9 27  2  0  0  0
 10 11  2  0  0  0
 10 15  1  0  0  0
 11 12  1  0  0  0
 11 95  1  0  0  0
 12 13  2  0  0  0
 12 96  1  0  0  0
 13 14  1  0  0  0
 13 31  1  0  0  0
 14 15  2  0  0  0
 14 97  1  0  0  0
 15 98  1  0  0  0
 16 17  2  0  0  0
 16 21  1  0  0  0
 16 31  1  0  0  0
 17 18  1  0  0  0
 17 99  1  0  0  0
 18 19  2  0  0  0
 18100  1  0  0  0
 19 20  1  0  0  0
 19 24  1  0  0  0
 20 21  2  0  0  0
 20101  1  0  0  0
 21 23  1  0  0  0
 22 28  1  0  0  0
 22 32  2  0  0  0
 26 27  1  0  0  0
 28102  1  0  0  0
 28103  1  0  0  0
 29104  1  0  0  0
 29105  1  0  0  0
 33 34  1  0  0  0
 33 66  1  0  0  0
 33 70  2  0  0  0
 34 36  1  0  0  0
 34 59  1  0  0  0
 34106  1  0  0  0
 35 44  2  0  0  0
 35 45  1  0  0  0
 35 68  1  0  0  0
 36 56  1  0  0  0
 36107  1  0  0  0
 37 39  1  0  0  0
 37 47  1  0  0  0
 37 66  1  0  0  0
 37108  1  0  0  0
 38 43  2  0  0  0
 38 46  1  0  0  0
 38 47  1  0  0  0
 39 64  1  0  0  0
 39 67  2  0  0  0
 40 52  1  0  0  0
 40 53  2  0  0  0
 40 58  1  0  0  0
 41109  1  0  0  0
 41110  1  0  0  0
 41111  1  0  0  0
 41 48  1  0  0  0
 42 43  1  0  0  0
 42 66  1  0  0  0
 42112  1  0  0  0
 42113  1  0  0  0
 43 44  1  0  0  0
 44114  1  0  0  0
 45 46  2  0  0  0
 45115  1  0  0  0
 46116  1  0  0  0
 47117  1  0  0  0
 47118  1  0  0  0
 48 56  1  0  0  0
 48 65  1  0  0  0
 48119  1  0  0  0
 49 50  1  0  0  0
 49 53  1  0  0  0
 49 64  1  0  0  0
 49120  1  0  0  0
 50 51  1  0  0  0
 50121  1  0  0  0
 50122  1  0  0  0
 51 52  1  0  0  0
 51123  1  0  0  0
 51124  1  0  0  0
 52125  1  0  0  0
 52126  1  0  0  0
 53 54  1  0  0  0
 54 55  2  0  0  0
 54127  1  0  0  0
 55 57  1  0  0  0
 55128  1  0  0  0
 56 69  2  0  0  0
 57 58  2  0  0  0
 57129  1  0  0  0
 58130  1  0  0  0
 59 60  1  0  0  0
 59 61  1  0  0  0
 59 62  1  0  0  0
 60131  1  0  0  0
 60132  1  0  0  0
 60133  1  0  0  0
 61134  1  0  0  0
 61135  1  0  0  0
 61136  1  0  0  0
 62137  1  0  0  0
 62138  1  0  0  0
 62139  1  0  0  0
 63 65  1  0  0  0
 63140  1  0  0  0
 63141  1  0  0  0
 63142  1  0  0  0
 64143  1  0  0  0
 65144  1  0  0  0
 68 80  1  0  0  0
 71 73  1  0  0  0
 71 82  1  0  0  0
 71 83  2  0  0  0
 72 76  1  0  0  0
 72 82  2  0  0  0
 72 84  1  0  0  0
 73145  1  0  0  0
 73146  1  0  0  0
 73147  1  0  0  0
 74148  1  0  0  0
 74149  1  0  0  0
 74150  1  0  0  0
 74 85  1  0  0  0
 75 85  1  0  0  0
 75151  1  0  0  0
 75152  1  0  0  0
 75153  1  0  0  0
 76 77  1  0  0  0
 76154  1  0  0  0
 76155  1  0  0  0
 77 78  1  0  0  0
 77156  1  0  0  0
 77157  1  0  0  0
 78 80  1  0  0  0
 78158  1  0  0  0
 78159  1  0  0  0
 79 85  1  0  0  0
 79160  1  0  0  0
 79161  1  0  0  0
 79 81  1  0  0  0
 80162  1  0  0  0
 80163  1  0  0  0
 81 84  1  0  0  0
 81164  1  0  0  0
 83 84  1  0  0  0
 85165  1  0  0  0
M  CHG  1  85   1
M  ISO  4   1 100  68 101  80 101  81 100
M  END
> <chiral flag>
0

> <version>
0

> <s_m_source_file>
/data/baiqing/PycharmProjects/Reinvent-master-3.2/result/LINK_invent/BTK/process_docking_weight1_custom_sum_contain_oxygen_bond_distance_aromatic_linkinvent_7_9_3/rearranged_h_0058.sdf

> <i_m_source_file_index>
97

> <r_mmod_Potential_Energy-OPLS-2005>
485.934631347656

> <r_mmod_Stretch_Energy-OPLS-2005>
272.948089599609

> <r_mmod_Bend_Energy-OPLS-2005>
371.083648681641

> <r_mmod_Torsional_Energy-OPLS-2005>
228.143539428711

> <r_mmod_Improper_Torsional_Energy-OPLS-2005>
9.25404357910156

> <r_mmod_Van_der_Waal_Energy-OPLS-2005>
99.1231536865234

> <r_mmod_Electrostatic_Energy-OPLS-2005>
-247.729904174805

> <r_mmod_Solvation_Energy-OPLS-2005>
-441.163177490234

> <b_mmod_Minimization_Converged-OPLS-2005>
0

> <r_mmod_RMS_Derivative-OPLS-2005>
2.06679677963257

$$$$
97
                    3D
 Structure written by MMmdl.
161169  0  0  1  0            999 V2000
  -30.5774  -14.8020   20.3560 C   0  0  0  0  0  0
  -30.4225  -12.4604   19.4882 C   0  0  0  0  0  0
  -29.5148  -12.4104   18.2425 C   0  0  0  0  0  0
  -28.0285  -12.2897   18.6522 C   0  0  0  0  0  0
  -27.6204  -13.2296   19.8234 C   0  0  2  0  0  0
  -28.6645  -13.2333   20.9537 C   0  0  0  0  0  0
  -25.2425  -13.8165   20.5788 C   0  0  0  0  0  0
  -24.1728  -13.0410   20.9245 C   0  0  0  0  0  0
  -24.6321  -11.6898   20.8734 C   0  0  0  0  0  0
  -23.9037  -10.4259   21.0387 C   0  0  0  0  0  0
  -24.3606   -9.4193   21.9173 C   0  0  0  0  0  0
  -23.6273   -8.2233   22.0752 C   0  0  0  0  0  0
  -22.4263   -8.0256   21.3531 C   0  0  0  0  0  0
  -21.9874   -9.0241   20.4660 C   0  0  0  0  0  0
  -22.7201  -10.2112   20.3056 C   0  0  0  0  0  0
  -21.6838   -6.0729   22.5281 C   0  0  0  0  0  0
  -21.4030   -6.5642   23.8222 C   0  0  0  0  0  0
  -21.3658   -5.6787   24.9179 C   0  0  0  0  0  0
  -21.6034   -4.3049   24.7218 C   0  0  0  0  0  0
  -21.8810   -3.8142   23.4337 C   0  0  0  0  0  0
  -21.9188   -4.6959   22.3394 C   0  0  0  0  0  0
  -22.7765  -13.5215   21.1891 C   0  0  0  0  0  0
  -22.1648   -4.2158   21.0959 F   0  0  0  0  0  0
  -21.5616   -3.4531   25.7722 F   0  0  0  0  0  0
  -29.9503  -13.5753   20.3378 N   0  0  0  0  0  0
  -26.2811  -12.9387   20.3203 N   0  0  0  0  0  0
  -25.9238  -11.6541   20.5729 N   0  0  0  0  0  0
  -22.0379  -12.8267   22.0457 N   0  0  0  0  0  0
  -25.4078  -15.1881   20.4430 N   0  0  0  0  0  0
  -31.8103  -14.8369   20.2555 O   0  0  0  0  0  0
  -21.6619   -6.8863   21.4236 O   0  0  0  0  0  0
  -22.3487  -14.5512   20.6692 O   0  0  0  0  0  0
  -24.6378  -31.8490   23.1974 C   0  0  0  0  0  0
  -25.9158  -32.4734   23.8362 C   0  0  1  0  0  0
  -27.2286  -27.2383   20.1295 C   0  0  0  0  0  0
  -25.5908  -33.8548   24.2270 N   0  0  0  0  0  0
  -23.4403  -30.4719   21.5390 C   0  0  2  0  0  0
  -24.8834  -28.9074   20.1173 C   0  0  0  0  0  0
  -22.7565  -29.4578   22.4882 C   0  0  0  0  0  0
  -18.0291  -28.1422   22.8466 C   0  0  0  0  0  0
  -24.1473  -36.7304   23.2637 C   0  0  0  0  0  0
  -25.9892  -30.7531   21.3811 C   0  0  0  0  0  0
  -26.0574  -29.3757   20.7185 C   0  0  0  0  0  0
  -27.2315  -28.5563   20.7048 C   0  0  0  0  0  0
  -26.0216  -26.8257   19.5224 C   0  0  0  0  0  0
  -24.8706  -27.6407   19.5120 C   0  0  0  0  0  0
  -23.6626  -29.8045   20.1567 C   0  0  0  0  0  0
  -25.4092  -36.3083   24.0335 C   0  0  1  0  0  0
  -20.5907  -28.3741   23.1220 C   0  0  2  0  0  0
  -20.6769  -26.9439   22.5379 C   0  0  0  0  0  0
  -19.5738  -26.6390   21.5186 C   0  0  0  0  0  0
  -18.1926  -26.7956   22.1610 C   0  0  0  0  0  0
  -19.1551  -28.8896   23.2838 C   0  0  0  0  0  0
  -18.9474  -30.1483   23.8882 C   0  0  0  0  0  0
  -17.6475  -30.6600   24.0578 C   0  0  0  0  0  0
  -25.9039  -34.9440   23.5116 C   0  0  0  0  0  0
  -16.5371  -29.9106   23.6329 C   0  0  0  0  0  0
  -16.7279  -28.6526   23.0350 C   0  0  0  0  0  0
  -26.4488  -31.6612   25.0807 C   0  0  0  0  0  0
  -25.3695  -31.3792   26.1532 C   0  0  0  0  0  0
  -27.0341  -30.3015   24.6359 C   0  0  0  0  0  0
  -27.6050  -32.4377   25.7566 C   0  0  0  0  0  0
  -27.5573  -37.1800   24.8449 C   0  0  0  0  0  0
  -21.4257  -29.3083   22.3624 N   0  0  0  0  0  0
  -26.4270  -37.3776   23.9419 N   0  0  0  0  0  0
  -24.7085  -31.0447   22.0953 N   0  0  0  0  0  0
  -23.4227  -28.8084   23.2988 O   0  0  0  0  0  0
  -28.3488  -26.3755   20.2160 O   0  0  0  0  0  0
  -26.5632  -34.8912   22.4699 O   0  0  0  0  0  0
  -23.5511  -32.1316   23.7243 O   0  0  0  0  0  0
  -28.9832  -20.7881   20.4079 C   0  0  0  0  0  0
  -29.4635  -18.6684   20.7115 C   0  0  0  0  0  0
  -28.0502  -16.9279   18.5431 C   0  0  0  0  0  0
  -30.5158  -16.9168   17.9076 C   0  0  0  0  0  0
  -27.2533  -18.0594   21.8149 C   0  0  0  0  0  0
  -28.9942  -22.2453   19.7950 C   0  0  0  0  0  0
  -30.2109  -17.2755   20.9015 C   0  0  0  0  0  0
  -28.4760  -23.6016   20.5323 C   0  0  0  0  0  0
  -28.4278  -24.9769   19.6552 C   0  0  0  0  0  0
  -29.4143  -16.2346   18.7464 C   0  0  0  0  0  0
  -29.9938  -19.8323   20.2404 N   0  0  0  0  0  0
  -27.8868  -20.2457   20.9387 N   0  0  0  0  0  0
  -28.2149  -18.9266   21.1608 N   0  0  0  0  0  0
  -29.8264  -15.9832   20.1643 N   0  0  0  0  0  0
  -31.4689  -12.5716   19.1961 H   0  0  0  0  0  0
  -30.3653  -11.5223   20.0420 H   0  0  0  0  0  0
  -29.7930  -11.5503   17.6284 H   0  0  0  0  0  0
  -29.6794  -13.2787   17.6093 H   0  0  0  0  0  0
  -27.8727  -11.2535   18.9590 H   0  0  0  0  0  0
  -27.3819  -12.4476   17.7888 H   0  0  0  0  0  0
  -27.5815  -14.2307   19.4016 H   0  0  0  0  0  0
  -28.7080  -12.2593   21.4418 H   0  0  0  0  0  0
  -28.3986  -13.9640   21.7236 H   0  0  0  0  0  0
  -25.2755   -9.5687   22.4752 H   0  0  0  0  0  0
  -23.9981   -7.4624   22.7470 H   0  0  0  0  0  0
  -21.0803   -8.8785   19.8968 H   0  0  0  0  0  0
  -22.3665  -10.9669   19.6179 H   0  0  0  0  0  0
  -21.2054   -7.6155   23.9749 H   0  0  0  0  0  0
  -21.1484   -6.0503   25.9093 H   0  0  0  0  0  0
  -22.0589   -2.7605   23.2833 H   0  0  0  0  0  0
  -22.4005  -12.0001   22.4952 H   0  0  0  0  0  0
  -21.1002  -13.1333   22.2618 H   0  0  0  0  0  0
  -24.6451  -15.8385   20.6022 H   0  0  0  0  0  0
  -26.2683  -15.6393   20.1678 H   0  0  0  0  0  0
  -26.7259  -32.5326   23.1128 H   0  0  0  0  0  0
  -25.0027  -33.9674   25.0400 H   0  0  0  0  0  0
  -22.7410  -31.2965   21.3872 H   0  0  0  0  0  0
  -23.3733  -35.9634   23.3271 H   0  0  0  0  0  0
  -24.3579  -36.8952   22.2057 H   0  0  0  0  0  0
  -23.7211  -37.6495   23.6678 H   0  0  0  0  0  0
  -26.1433  -31.5113   20.6134 H   0  0  0  0  0  0
  -26.8645  -30.7955   22.0194 H   0  0  0  0  0  0
  -28.1383  -28.9158   21.1708 H   0  0  0  0  0  0
  -25.9221  -25.8453   19.0826 H   0  0  0  0  0  0
  -23.9642  -27.2670   19.0562 H   0  0  0  0  0  0
  -23.8154  -30.5811   19.4059 H   0  0  0  0  0  0
  -22.7791  -29.2512   19.8348 H   0  0  0  0  0  0
  -25.1255  -36.1949   25.0825 H   0  0  0  0  0  0
  -20.9998  -28.3323   24.1344 H   0  0  0  0  0  0
  -20.5623  -26.2365   23.3610 H   0  0  0  0  0  0
  -21.6640  -26.7417   22.1207 H   0  0  0  0  0  0
  -19.6894  -25.6280   21.1252 H   0  0  0  0  0  0
  -19.6673  -27.3169   20.6692 H   0  0  0  0  0  0
  -17.4180  -26.6682   21.4036 H   0  0  0  0  0  0
  -18.0356  -26.0118   22.9031 H   0  0  0  0  0  0
  -19.7951  -30.7291   24.2275 H   0  0  0  0  0  0
  -17.5028  -31.6273   24.5194 H   0  0  0  0  0  0
  -15.5374  -30.3011   23.7663 H   0  0  0  0  0  0
  -15.8678  -28.0839   22.7096 H   0  0  0  0  0  0
  -24.5851  -30.7149   25.7877 H   0  0  0  0  0  0
  -24.8889  -32.2964   26.4965 H   0  0  0  0  0  0
  -25.7990  -30.8973   27.0323 H   0  0  0  0  0  0
  -26.2959  -29.6785   24.1292 H   0  0  0  0  0  0
  -27.3876  -29.7277   25.4936 H   0  0  0  0  0  0
  -27.8904  -30.4273   23.9731 H   0  0  0  0  0  0
  -27.2666  -33.3679   26.2150 H   0  0  0  0  0  0
  -28.3848  -32.6943   25.0385 H   0  0  0  0  0  0
  -28.0749  -31.8510   26.5468 H   0  0  0  0  0  0
  -28.2576  -38.0117   24.7529 H   0  0  0  0  0  0
  -28.1090  -36.2649   24.6225 H   0  0  0  0  0  0
  -27.2309  -37.1403   25.8857 H   0  0  0  0  0  0
  -20.9478  -29.8873   21.6856 H   0  0  0  0  0  0
  -26.0152  -38.2847   24.1442 H   0  0  0  0  0  0
  -27.6356  -16.6745   17.5650 H   0  0  0  0  0  0
  -28.1310  -18.0138   18.5506 H   0  0  0  0  0  0
  -27.3114  -16.6432   19.2861 H   0  0  0  0  0  0
  -30.2241  -16.9698   16.8575 H   0  0  0  0  0  0
  -31.4608  -16.3743   17.9508 H   0  0  0  0  0  0
  -30.7071  -17.9381   18.2333 H   0  0  0  0  0  0
  -27.6264  -17.0360   21.8707 H   0  0  0  0  0  0
  -26.3135  -18.0552   21.2611 H   0  0  0  0  0  0
  -27.0625  -18.4161   22.8276 H   0  0  0  0  0  0
  -28.4704  -22.1762   18.8425 H   0  0  0  0  0  0
  -30.0297  -22.4418   19.5190 H   0  0  0  0  0  0
  -30.1675  -17.0435   21.9655 H   0  0  0  0  0  0
  -31.2678  -17.4545   20.7003 H   0  0  0  0  0  0
  -29.1110  -23.7661   21.4018 H   0  0  0  0  0  0
  -27.4782  -23.4181   20.9327 H   0  0  0  0  0  0
  -27.7256  -24.8433   18.8329 H   0  0  0  0  0  0
  -29.3844  -24.9974   19.1352 H   0  0  0  0  0  0
  -29.2659  -15.2664   18.2738 H   0  0  0  0  0  0
  1 25  1  0  0  0
  1 30  2  0  0  0
  1 84  1  0  0  0
  2  3  1  0  0  0
  2 25  1  0  0  0
  2 85  1  0  0  0
  2 86  1  0  0  0
  3  4  1  0  0  0
  3 87  1  0  0  0
  3 88  1  0  0  0
  4  5  1  0  0  0
  4 89  1  0  0  0
  4 90  1  0  0  0
  5  6  1  0  0  0
  5 26  1  0  0  0
  5 91  1  0  0  0
  6 25  1  0  0  0
  6 92  1  0  0  0
  6 93  1  0  0  0
  7  8  2  0  0  0
  7 26  1  0  0  0
  7 29  1  0  0  0
  8  9  1  0  0  0
  8 22  1  0  0  0
  9 10  1  0  0  0
  9 27  2  0  0  0
 10 11  2  0  0  0
 10 15  1  0  0  0
 11 12  1  0  0  0
 11 94  1  0  0  0
 12 13  2  0  0  0
 12 95  1  0  0  0
 13 14  1  0  0  0
 13 31  1  0  0  0
 14 15  2  0  0  0
 14 96  1  0  0  0
 15 97  1  0  0  0
 16 17  2  0  0  0
 16 21  1  0  0  0
 16 31  1  0  0  0
 17 18  1  0  0  0
 17 98  1  0  0  0
 18 19  2  0  0  0
 18 99  1  0  0  0
 19 20  1  0  0  0
 19 24  1  0  0  0
 20 21  2  0  0  0
 20100  1  0  0  0
 21 23  1  0  0  0
 22 28  1  0  0  0
 22 32  2  0  0  0
 26 27  1  0  0  0
 28101  1  0  0  0
 28102  1  0  0  0
 29103  1  0  0  0
 29104  1  0  0  0
 33 34  1  0  0  0
 33 66  1  0  0  0
 33 70  2  0  0  0
 34 36  1  0  0  0
 34 59  1  0  0  0
 34105  1  0  0  0
 35 44  2  0  0  0
 35 45  1  0  0  0
 35 68  1  0  0  0
 36 56  1  0  0  0
 36106  1  0  0  0
 37 39  1  0  0  0
 37 47  1  0  0  0
 37 66  1  0  0  0
 37107  1  0  0  0
 38 43  2  0  0  0
 38 46  1  0  0  0
 38 47  1  0  0  0
 39 64  1  0  0  0
 39 67  2  0  0  0
 40 52  1  0  0  0
 40 53  2  0  0  0
 40 58  1  0  0  0
 41108  1  0  0  0
 41109  1  0  0  0
 41110  1  0  0  0
 41 48  1  0  0  0
 42 43  1  0  0  0
 42 66  1  0  0  0
 42111  1  0  0  0
 42112  1  0  0  0
 43 44  1  0  0  0
 44113  1  0  0  0
 45 46  2  0  0  0
 45114  1  0  0  0
 46115  1  0  0  0
 47116  1  0  0  0
 47117  1  0  0  0
 48 56  1  0  0  0
 48 65  1  0  0  0
 48118  1  0  0  0
 49 50  1  0  0  0
 49 53  1  0  0  0
 49 64  1  0  0  0
 49119  1  0  0  0
 50 51  1  0  0  0
 50120  1  0  0  0
 50121  1  0  0  0
 51 52  1  0  0  0
 51122  1  0  0  0
 51123  1  0  0  0
 52124  1  0  0  0
 52125  1  0  0  0
 53 54  1  0  0  0
 54 55  2  0  0  0
 54126  1  0  0  0
 55 57  1  0  0  0
 55127  1  0  0  0
 56 69  2  0  0  0
 57 58  2  0  0  0
 57128  1  0  0  0
 58129  1  0  0  0
 59 60  1  0  0  0
 59 61  1  0  0  0
 59 62  1  0  0  0
 60130  1  0  0  0
 60131  1  0  0  0
 60132  1  0  0  0
 61133  1  0  0  0
 61134  1  0  0  0
 61135  1  0  0  0
 62136  1  0  0  0
 62137  1  0  0  0
 62138  1  0  0  0
 63 65  1  0  0  0
 63139  1  0  0  0
 63140  1  0  0  0
 63141  1  0  0  0
 64142  1  0  0  0
 65143  1  0  0  0
 68 79  1  0  0  0
 71 76  1  0  0  0
 71 81  1  0  0  0
 71 82  2  0  0  0
 72 77  1  0  0  0
 72 81  2  0  0  0
 72 83  1  0  0  0
 73144  1  0  0  0
 73145  1  0  0  0
 73146  1  0  0  0
 73 80  1  0  0  0
 74 80  1  0  0  0
 74147  1  0  0  0
 74148  1  0  0  0
 74149  1  0  0  0
 75 83  1  0  0  0
 75150  1  0  0  0
 75151  1  0  0  0
 75152  1  0  0  0
 76 78  1  0  0  0
 76153  1  0  0  0
 76154  1  0  0  0
 77 84  1  0  0  0
 77155  1  0  0  0
 77156  1  0  0  0
 78 79  1  0  0  0
 78157  1  0  0  0
 78158  1  0  0  0
 79159  1  0  0  0
 79160  1  0  0  0
 80 84  1  0  0  0
 80161  1  0  0  0
 82 83  1  0  0  0
M  ISO  4   1 100  68 101  79 101  84 100
M  END
> <chiral flag>
0

> <version>
0

> <s_m_source_file>
/data/baiqing/PycharmProjects/Reinvent-master-3.2/result/LINK_invent/BTK/process_docking_weight1_custom_sum_contain_oxygen_bond_distance_aromatic_linkinvent_7_9_3/rearranged_h_0058.sdf

> <i_m_source_file_index>
98

> <r_mmod_Potential_Energy-OPLS-2005>
327.124328613281

> <r_mmod_Stretch_Energy-OPLS-2005>
138.180923461914

> <r_mmod_Bend_Energy-OPLS-2005>
223.150817871094

> <r_mmod_Torsional_Energy-OPLS-2005>
303.612640380859

> <r_mmod_Improper_Torsional_Energy-OPLS-2005>
13.0501985549927

> <r_mmod_Van_der_Waal_Energy-OPLS-2005>
106.330680847168

> <r_mmod_Electrostatic_Energy-OPLS-2005>
-361.536285400391

> <r_mmod_Solvation_Energy-OPLS-2005>
-213.418914794922

> <b_mmod_Minimization_Converged-OPLS-2005>
0

> <r_mmod_RMS_Derivative-OPLS-2005>
4.31814050674438

$$$$
