0
                    3D
 Structure written by MMmdl.
156165  0  0  1  0            999 V2000
  -30.4861  -15.1162   20.4246 C   0  0  0  0  0  0
  -30.4487  -12.7105   19.5357 C   0  0  0  0  0  0
  -29.5480  -12.5578   18.2861 C   0  0  0  0  0  0
  -28.0870  -12.3064   18.7028 C   0  0  0  0  0  0
  -27.6245  -13.2655   19.8320 C   0  0  2  0  0  0
  -28.6548  -13.3664   20.9763 C   0  0  0  0  0  0
  -25.2425  -13.8239   20.5689 C   0  0  0  0  0  0
  -24.1753  -13.0457   20.9223 C   0  0  0  0  0  0
  -24.6387  -11.6940   20.8763 C   0  0  0  0  0  0
  -23.9066  -10.4311   21.0414 C   0  0  0  0  0  0
  -24.3623   -9.4230   21.9194 C   0  0  0  0  0  0
  -23.6278   -8.2272   22.0777 C   0  0  0  0  0  0
  -22.4267   -8.0293   21.3553 C   0  0  0  0  0  0
  -21.9889   -9.0278   20.4678 C   0  0  0  0  0  0
  -22.7222  -10.2153   20.3064 C   0  0  0  0  0  0
  -21.6864   -6.0726   22.5276 C   0  0  0  0  0  0
  -21.4020   -6.5627   23.8203 C   0  0  0  0  0  0
  -21.3650   -5.6776   24.9162 C   0  0  0  0  0  0
  -21.6037   -4.3042   24.7204 C   0  0  0  0  0  0
  -21.8829   -3.8128   23.4327 C   0  0  0  0  0  0
  -21.9184   -4.6949   22.3387 C   0  0  0  0  0  0
  -22.7754  -13.5257   21.1796 C   0  0  0  0  0  0
  -22.1664   -4.2141   21.0952 F   0  0  0  0  0  0
  -21.5624   -3.4517   25.7714 F   0  0  0  0  0  0
  -29.9076  -13.8343   20.3693 N   0  0  0  0  0  0
  -26.2854  -12.9509   20.3165 N   0  0  0  0  0  0
  -25.9324  -11.6625   20.5704 N   0  0  0  0  0  0
  -22.0335  -12.8355   22.0381 N   0  0  0  0  0  0
  -25.4048  -15.1985   20.4172 N   0  0  0  0  0  0
  -31.6976  -15.1434   20.1776 O   0  0  0  0  0  0
  -21.6638   -6.8873   21.4242 O   0  0  0  0  0  0
  -22.3496  -14.5529   20.6544 O   0  0  0  0  0  0
  -24.6514  -31.8320   23.1832 C   0  0  0  0  0  0
  -25.9253  -32.4629   23.8227 C   0  0  1  0  0  0
  -27.2119  -27.0258   20.1856 C   0  0  0  0  0  0
  -25.5971  -33.8445   24.2132 N   0  0  0  0  0  0
  -23.4605  -30.4525   21.5279 C   0  0  2  0  0  0
  -24.9125  -28.8563   20.1185 C   0  0  0  0  0  0
  -22.7612  -29.4491   22.4814 C   0  0  0  0  0  0
  -18.0325  -28.1397   22.8486 C   0  0  0  0  0  0
  -24.1498  -36.7238   23.2652 C   0  0  0  0  0  0
  -26.0232  -30.6736   21.3968 C   0  0  0  0  0  0
  -26.0919  -29.2704   20.7514 C   0  0  0  0  0  0
  -27.2414  -28.3728   20.7663 C   0  0  0  0  0  0
  -26.0079  -26.7429   19.5035 C   0  0  0  0  0  0
  -24.8869  -27.6082   19.4806 C   0  0  0  0  0  0
  -23.6932  -29.7729   20.1517 C   0  0  0  0  0  0
  -25.4129  -36.2987   24.0306 C   0  0  1  0  0  0
  -20.5943  -28.3719   23.1223 C   0  0  2  0  0  0
  -20.6807  -26.9404   22.5415 C   0  0  0  0  0  0
  -19.5776  -26.6376   21.5231 C   0  0  0  0  0  0
  -18.1956  -26.7947   22.1628 C   0  0  0  0  0  0
  -19.1582  -28.8884   23.2855 C   0  0  0  0  0  0
  -18.9482  -30.1489   23.8869 C   0  0  0  0  0  0
  -17.6465  -30.6601   24.0554 C   0  0  0  0  0  0
  -25.9075  -34.9369   23.5038 C   0  0  0  0  0  0
  -16.5359  -29.9075   23.6342 C   0  0  0  0  0  0
  -16.7304  -28.6497   23.0364 C   0  0  0  0  0  0
  -26.4558  -31.6547   25.0719 C   0  0  0  0  0  0
  -25.3727  -31.3771   26.1411 C   0  0  0  0  0  0
  -27.0426  -30.2915   24.6374 C   0  0  0  0  0  0
  -27.6045  -32.4359   25.7530 C   0  0  0  0  0  0
  -27.5565  -37.1774   24.8462 C   0  0  0  0  0  0
  -21.4292  -29.3032   22.3569 N   0  0  0  0  0  0
  -26.4269  -37.3712   23.9413 N   0  0  0  0  0  0
  -24.7329  -31.0101   22.0905 N   0  0  0  0  0  0
  -23.4211  -28.8037   23.3002 O   0  0  0  0  0  0
  -28.2536  -25.9878   20.1428 O   0  0  0  0  0  0
  -26.5658  -34.8890   22.4620 O   0  0  0  0  0  0
  -23.5604  -32.1240   23.6999 O   0  0  0  0  0  0
  -27.4418  -23.2918   22.3170 C   0  0  0  0  0  0
  -28.6099  -22.2071   20.7209 C   0  0  0  0  0  0
  -28.1104  -24.6042   20.6159 C   0  0  0  0  0  0
  -29.9184  -19.6569   22.3787 C   0  0  0  0  0  0
  -31.3439  -18.0151   21.4787 C   0  0  0  0  0  0
  -29.2327  -19.4051   21.0196 C   0  0  1  0  0  0
  -30.1155  -17.9469   20.5415 C   0  0  1  0  0  0
  -26.8147  -23.2327   23.6941 C   0  0  0  0  0  0
  -27.9564  -22.1428   21.8671 N   0  0  0  0  0  0
  -27.4523  -24.5045   21.7601 N   0  0  0  0  0  0
  -28.7376  -23.4505   20.0606 N   0  0  0  0  0  0
  -29.1886  -20.8585   20.3145 N   0  0  0  0  0  0
  -29.7300  -16.3567   20.5669 N   0  0  0  0  0  0
  -31.3255  -19.3133   22.1539 N   0  3  0  0  0  0
  -31.4804  -12.8920   19.2293 H   0  0  0  0  0  0
  -30.4782  -11.7860   20.1108 H   0  0  0  0  0  0
  -29.9099  -11.7379   17.6645 H   0  0  0  0  0  0
  -29.6154  -13.4618   17.6753 H   0  0  0  0  0  0
  -28.0316  -11.2770   19.0619 H   0  0  0  0  0  0
  -27.4235  -12.3694   17.8407 H   0  0  0  0  0  0
  -27.5668  -14.2513   19.3693 H   0  0  0  0  0  0
  -28.7809  -12.4062   21.4807 H   0  0  0  0  0  0
  -28.3155  -14.0746   21.7331 H   0  0  0  0  0  0
  -25.2778   -9.5705   22.4765 H   0  0  0  0  0  0
  -23.9962   -7.4686   22.7548 H   0  0  0  0  0  0
  -21.0786   -8.8816   19.9030 H   0  0  0  0  0  0
  -22.3685  -10.9684   19.6171 H   0  0  0  0  0  0
  -21.2042   -7.6146   23.9701 H   0  0  0  0  0  0
  -21.1455   -6.0506   25.9060 H   0  0  0  0  0  0
  -22.0608   -2.7584   23.2827 H   0  0  0  0  0  0
  -22.3858  -12.0089   22.4975 H   0  0  0  0  0  0
  -21.0957  -13.1495   22.2419 H   0  0  0  0  0  0
  -24.6242  -15.8360   20.5318 H   0  0  0  0  0  0
  -26.2335  -15.6436   20.0448 H   0  0  0  0  0  0
  -26.7319  -32.5217   23.0940 H   0  0  0  0  0  0
  -25.0100  -33.9552   25.0261 H   0  0  0  0  0  0
  -22.7695  -31.2828   21.3674 H   0  0  0  0  0  0
  -23.3749  -35.9576   23.3276 H   0  0  0  0  0  0
  -24.3566  -36.8905   22.2071 H   0  0  0  0  0  0
  -23.7270  -37.6436   23.6707 H   0  0  0  0  0  0
  -26.1844  -31.4136   20.6120 H   0  0  0  0  0  0
  -26.8923  -30.7329   22.0394 H   0  0  0  0  0  0
  -28.1422  -28.6932   21.2702 H   0  0  0  0  0  0
  -25.9095  -25.7919   19.0014 H   0  0  0  0  0  0
  -23.9878  -27.2879   18.9700 H   0  0  0  0  0  0
  -23.8386  -30.5445   19.3950 H   0  0  0  0  0  0
  -22.8031  -29.2206   19.8406 H   0  0  0  0  0  0
  -25.1317  -36.1788   25.0785 H   0  0  0  0  0  0
  -21.0045  -28.3323   24.1339 H   0  0  0  0  0  0
  -20.5722  -26.2303   23.3636 H   0  0  0  0  0  0
  -21.6662  -26.7422   22.1180 H   0  0  0  0  0  0
  -19.6920  -25.6285   21.1273 H   0  0  0  0  0  0
  -19.6736  -27.3181   20.6770 H   0  0  0  0  0  0
  -17.4224  -26.6716   21.4029 H   0  0  0  0  0  0
  -18.0327  -26.0106   22.9038 H   0  0  0  0  0  0
  -19.7951  -30.7348   24.2186 H   0  0  0  0  0  0
  -17.5010  -31.6282   24.5152 H   0  0  0  0  0  0
  -15.5351  -30.2947   23.7727 H   0  0  0  0  0  0
  -15.8711  -28.0829   22.7057 H   0  0  0  0  0  0
  -24.5897  -30.7111   25.7757 H   0  0  0  0  0  0
  -24.8944  -32.2970   26.4789 H   0  0  0  0  0  0
  -25.8013  -30.8995   27.0226 H   0  0  0  0  0  0
  -26.3050  -29.6634   24.1354 H   0  0  0  0  0  0
  -27.3946  -29.7241   25.5005 H   0  0  0  0  0  0
  -27.9010  -30.4119   23.9752 H   0  0  0  0  0  0
  -27.2574  -33.3680   26.2010 H   0  0  0  0  0  0
  -28.3918  -32.6890   25.0412 H   0  0  0  0  0  0
  -28.0629  -31.8551   26.5552 H   0  0  0  0  0  0
  -28.2553  -38.0096   24.7483 H   0  0  0  0  0  0
  -28.1071  -36.2614   24.6284 H   0  0  0  0  0  0
  -27.2265  -37.1411   25.8857 H   0  0  0  0  0  0
  -20.9482  -29.8699   21.6718 H   0  0  0  0  0  0
  -26.0119  -38.2759   24.1432 H   0  0  0  0  0  0
  -29.5030  -19.0025   23.1443 H   0  0  0  0  0  0
  -29.8408  -20.6734   22.7605 H   0  0  0  0  0  0
  -32.2849  -17.8473   20.9581 H   0  0  0  0  0  0
  -31.2746  -17.2650   22.2691 H   0  0  0  0  0  0
  -28.1910  -19.1348   21.1927 H   0  0  0  0  0  0
  -30.4395  -18.1310   19.5172 H   0  0  0  0  0  0
  -27.0273  -24.1425   24.2581 H   0  0  0  0  0  0
  -27.2090  -22.3997   24.2706 H   0  0  0  0  0  0
  -25.7353  -23.1145   23.6233 H   0  0  0  0  0  0
  -29.6377  -20.8874   19.4060 H   0  0  0  0  0  0
  -28.7431  -16.1946   20.6983 H   0  0  0  0  0  0
  -31.8495  -19.2831   23.0130 H   0  0  0  0  0  0
  -31.7328  -20.0070   21.5514 H   0  0  0  0  0  0
  1 25  1  0  0  0
  1 30  2  0  0  0
  1 83  1  0  0  0
  2  3  1  0  0  0
  2 25  1  0  0  0
  2 85  1  0  0  0
  2 86  1  0  0  0
  3  4  1  0  0  0
  3 87  1  0  0  0
  3 88  1  0  0  0
  4  5  1  0  0  0
  4 89  1  0  0  0
  4 90  1  0  0  0
  5  6  1  0  0  0
  5 26  1  0  0  0
  5 91  1  0  0  0
  6 25  1  0  0  0
  6 92  1  0  0  0
  6 93  1  0  0  0
  7  8  2  0  0  0
  7 26  1  0  0  0
  7 29  1  0  0  0
  8  9  1  0  0  0
  8 22  1  0  0  0
  9 10  1  0  0  0
  9 27  2  0  0  0
 10 11  2  0  0  0
 10 15  1  0  0  0
 11 12  1  0  0  0
 11 94  1  0  0  0
 12 13  2  0  0  0
 12 95  1  0  0  0
 13 14  1  0  0  0
 13 31  1  0  0  0
 14 15  2  0  0  0
 14 96  1  0  0  0
 15 97  1  0  0  0
 16 17  2  0  0  0
 16 21  1  0  0  0
 16 31  1  0  0  0
 17 18  1  0  0  0
 17 98  1  0  0  0
 18 19  2  0  0  0
 18 99  1  0  0  0
 19 20  1  0  0  0
 19 24  1  0  0  0
 20 21  2  0  0  0
 20100  1  0  0  0
 21 23  1  0  0  0
 22 28  1  0  0  0
 22 32  2  0  0  0
 26 27  1  0  0  0
 28101  1  0  0  0
 28102  1  0  0  0
 29103  1  0  0  0
 29104  1  0  0  0
 33 34  1  0  0  0
 33 66  1  0  0  0
 33 70  2  0  0  0
 34 36  1  0  0  0
 34 59  1  0  0  0
 34105  1  0  0  0
 35 44  2  0  0  0
 35 45  1  0  0  0
 35 68  1  0  0  0
 36 56  1  0  0  0
 36106  1  0  0  0
 37 39  1  0  0  0
 37 47  1  0  0  0
 37 66  1  0  0  0
 37107  1  0  0  0
 38 43  2  0  0  0
 38 46  1  0  0  0
 38 47  1  0  0  0
 39 64  1  0  0  0
 39 67  2  0  0  0
 40 52  1  0  0  0
 40 53  2  0  0  0
 40 58  1  0  0  0
 41108  1  0  0  0
 41109  1  0  0  0
 41110  1  0  0  0
 41 48  1  0  0  0
 42 43  1  0  0  0
 42 66  1  0  0  0
 42111  1  0  0  0
 42112  1  0  0  0
 43 44  1  0  0  0
 44113  1  0  0  0
 45 46  2  0  0  0
 45114  1  0  0  0
 46115  1  0  0  0
 47116  1  0  0  0
 47117  1  0  0  0
 48 56  1  0  0  0
 48 65  1  0  0  0
 48118  1  0  0  0
 49 50  1  0  0  0
 49 53  1  0  0  0
 49 64  1  0  0  0
 49119  1  0  0  0
 50 51  1  0  0  0
 50120  1  0  0  0
 50121  1  0  0  0
 51 52  1  0  0  0
 51122  1  0  0  0
 51123  1  0  0  0
 52124  1  0  0  0
 52125  1  0  0  0
 53 54  1  0  0  0
 54 55  2  0  0  0
 54126  1  0  0  0
 55 57  1  0  0  0
 55127  1  0  0  0
 56 69  2  0  0  0
 57 58  2  0  0  0
 57128  1  0  0  0
 58129  1  0  0  0
 59 60  1  0  0  0
 59 61  1  0  0  0
 59 62  1  0  0  0
 60130  1  0  0  0
 60131  1  0  0  0
 60132  1  0  0  0
 61133  1  0  0  0
 61134  1  0  0  0
 61135  1  0  0  0
 62136  1  0  0  0
 62137  1  0  0  0
 62138  1  0  0  0
 63 65  1  0  0  0
 63139  1  0  0  0
 63140  1  0  0  0
 63141  1  0  0  0
 64142  1  0  0  0
 65143  1  0  0  0
 68 73  1  0  0  0
 71 78  1  0  0  0
 71 79  2  0  0  0
 71 80  1  0  0  0
 72 79  1  0  0  0
 72 81  2  0  0  0
 72 82  1  0  0  0
 73 80  2  0  0  0
 73 81  1  0  0  0
 74 76  1  0  0  0
 74 84  1  0  0  0
 74144  1  0  0  0
 74145  1  0  0  0
 75 77  1  0  0  0
 75 84  1  0  0  0
 75146  1  0  0  0
 75147  1  0  0  0
 76 77  1  0  0  0
 76 82  1  0  0  0
 76148  1  0  0  0
 77 83  1  0  0  0
 77149  1  0  0  0
 78150  1  0  0  0
 78151  1  0  0  0
 78152  1  0  0  0
 82153  1  0  0  0
 83154  1  0  0  0
 84155  1  0  0  0
 84156  1  0  0  0
M  CHG  1  84   1
M  ISO  4   1 100  68 101  73 101  83 100
M  END
> <chiral flag>
0

> <version>
0

> <s_m_source_file>
/data/baiqing/PycharmProjects/Reinvent-master-3.2/result/LINK_invent/BTK/process_docking_weight1_custom_sum_contain_oxygen_bond_distance_aromatic_linkinvent_7_9_3/rearranged_h_0186.sdf

> <i_m_source_file_index>
1

> <r_mmod_Potential_Energy-OPLS-2005>
-172.363494873047

> <r_mmod_Stretch_Energy-OPLS-2005>
389.050170898438

> <r_mmod_Bend_Energy-OPLS-2005>
371.169494628906

> <r_mmod_Torsional_Energy-OPLS-2005>
281.002349853516

> <r_mmod_Improper_Torsional_Energy-OPLS-2005>
4.8634147644043

> <r_mmod_Van_der_Waal_Energy-OPLS-2005>
145.050018310547

> <r_mmod_Electrostatic_Energy-OPLS-2005>
-1184.6513671875

> <r_mmod_Solvation_Energy-OPLS-2005>
-492.079345703125

> <b_mmod_Minimization_Converged-OPLS-2005>
0

> <r_mmod_RMS_Derivative-OPLS-2005>
4.19841766357422

$$$$
1
                    3D
 Structure written by MMmdl.
158167  0  0  1  0            999 V2000
  -30.6609  -14.6905   20.4716 C   0  0  0  0  0  0
  -30.4224  -12.4223   19.4683 C   0  0  0  0  0  0
  -29.5045  -12.5018   18.2301 C   0  0  0  0  0  0
  -28.0293  -12.3393   18.6434 C   0  0  0  0  0  0
  -27.6438  -13.2325   19.8535 C   0  0  2  0  0  0
  -28.6900  -13.1533   20.9864 C   0  0  0  0  0  0
  -25.2518  -13.8199   20.5697 C   0  0  0  0  0  0
  -24.1806  -13.0443   20.9202 C   0  0  0  0  0  0
  -24.6397  -11.6921   20.8743 C   0  0  0  0  0  0
  -23.9073  -10.4296   21.0402 C   0  0  0  0  0  0
  -24.3622   -9.4212   21.9182 C   0  0  0  0  0  0
  -23.6300   -8.2246   22.0751 C   0  0  0  0  0  0
  -22.4281   -8.0284   21.3544 C   0  0  0  0  0  0
  -21.9919   -9.0256   20.4645 C   0  0  0  0  0  0
  -22.7243  -10.2136   20.3054 C   0  0  0  0  0  0
  -21.6856   -6.0737   22.5278 C   0  0  0  0  0  0
  -21.4015   -6.5640   23.8214 C   0  0  0  0  0  0
  -21.3660   -5.6791   24.9175 C   0  0  0  0  0  0
  -21.6044   -4.3054   24.7223 C   0  0  0  0  0  0
  -21.8818   -3.8146   23.4345 C   0  0  0  0  0  0
  -21.9193   -4.6963   22.3400 C   0  0  0  0  0  0
  -22.7828  -13.5227   21.1858 C   0  0  0  0  0  0
  -22.1663   -4.2148   21.0979 F   0  0  0  0  0  0
  -21.5631   -3.4539   25.7737 F   0  0  0  0  0  0
  -29.9928  -13.4895   20.4002 N   0  0  0  0  0  0
  -26.2950  -12.9413   20.3306 N   0  0  0  0  0  0
  -25.9330  -11.6551   20.5760 N   0  0  0  0  0  0
  -22.0474  -12.8219   22.0416 N   0  0  0  0  0  0
  -25.4209  -15.1921   20.4106 N   0  0  0  0  0  0
  -31.8509  -14.7382   20.1440 O   0  0  0  0  0  0
  -21.6642   -6.8881   21.4243 O   0  0  0  0  0  0
  -22.3512  -14.5533   20.6708 O   0  0  0  0  0  0
  -24.6301  -31.8589   23.2040 C   0  0  0  0  0  0
  -25.9140  -32.4771   23.8365 C   0  0  1  0  0  0
  -27.2069  -27.2788   20.1143 C   0  0  0  0  0  0
  -25.5946  -33.8574   24.2282 N   0  0  0  0  0  0
  -23.4245  -30.4873   21.5477 C   0  0  2  0  0  0
  -24.8688  -28.9491   20.1072 C   0  0  0  0  0  0
  -22.7497  -29.4626   22.4918 C   0  0  0  0  0  0
  -18.0292  -28.1384   22.8485 C   0  0  0  0  0  0
  -24.1491  -36.7289   23.2637 C   0  0  0  0  0  0
  -25.9725  -30.7753   21.3855 C   0  0  0  0  0  0
  -26.0424  -29.4029   20.7225 C   0  0  0  0  0  0
  -27.2138  -28.5785   20.7229 C   0  0  0  0  0  0
  -26.0115  -26.9126   19.4451 C   0  0  0  0  0  0
  -24.8577  -27.7100   19.4592 C   0  0  0  0  0  0
  -23.6405  -29.8331   20.1603 C   0  0  0  0  0  0
  -25.4116  -36.3078   24.0327 C   0  0  1  0  0  0
  -20.5897  -28.3697   23.1267 C   0  0  2  0  0  0
  -20.6779  -26.9416   22.5401 C   0  0  0  0  0  0
  -19.5752  -26.6384   21.5208 C   0  0  0  0  0  0
  -18.1936  -26.7926   22.1625 C   0  0  0  0  0  0
  -19.1545  -28.8856   23.2871 C   0  0  0  0  0  0
  -18.9469  -30.1456   23.8890 C   0  0  0  0  0  0
  -17.6468  -30.6587   24.0561 C   0  0  0  0  0  0
  -25.9059  -34.9448   23.5102 C   0  0  0  0  0  0
  -16.5358  -29.9083   23.6330 C   0  0  0  0  0  0
  -16.7279  -28.6499   23.0354 C   0  0  0  0  0  0
  -26.4509  -31.6588   25.0746 C   0  0  0  0  0  0
  -25.3729  -31.3737   26.1464 C   0  0  0  0  0  0
  -27.0356  -30.3002   24.6231 C   0  0  0  0  0  0
  -27.6062  -32.4326   25.7517 C   0  0  0  0  0  0
  -27.5582  -37.1798   24.8461 C   0  0  0  0  0  0
  -21.4206  -29.3051   22.3660 N   0  0  0  0  0  0
  -26.4288  -37.3779   23.9412 N   0  0  0  0  0  0
  -24.6948  -31.0572   22.1017 N   0  0  0  0  0  0
  -23.4210  -28.8149   23.2994 O   0  0  0  0  0  0
  -28.2751  -26.3522   20.2007 O   0  0  0  0  0  0
  -26.5623  -34.8916   22.4665 O   0  0  0  0  0  0
  -23.5455  -32.1408   23.7341 O   0  0  0  0  0  0
  -28.8672  -23.7793   20.3682 C   0  0  0  0  0  0
  -29.6132  -21.8004   20.7658 C   0  0  0  0  0  0
  -29.4734  -18.0279   21.8063 C   0  0  0  0  0  0
  -30.3657  -18.2968   19.5522 C   0  0  0  0  0  0
  -29.1642  -16.4997   21.5250 C   0  0  0  0  0  0
  -30.0064  -16.7958   19.2502 C   0  0  0  0  0  0
  -29.4496  -19.0057   20.5848 C   0  0  0  0  0  0
  -31.6698  -22.5252   22.0659 C   0  0  0  0  0  0
  -27.9292  -24.9273   19.8836 C   0  0  0  0  0  0
  -28.5917  -22.4218   20.1492 N   0  0  0  0  0  0
  -29.9867  -23.9802   21.0638 N   0  0  0  0  0  0
  -30.4464  -22.7125   21.3077 N   0  0  0  0  0  0
  -29.9203  -15.8676   20.4139 N   0  0  0  0  0  0
  -29.9033  -20.4004   20.9238 N   0  0  0  0  0  0
  -31.4664  -12.5205   19.1662 H   0  0  0  0  0  0
  -30.3436  -11.4444   19.9461 H   0  0  0  0  0  0
  -29.7783  -11.7328   17.5064 H   0  0  0  0  0  0
  -29.6423  -13.4603   17.7269 H   0  0  0  0  0  0
  -27.8751  -11.2900   18.8974 H   0  0  0  0  0  0
  -27.3738  -12.5452   17.7964 H   0  0  0  0  0  0
  -27.6433  -14.2580   19.4839 H   0  0  0  0  0  0
  -28.7151  -12.1550   21.4252 H   0  0  0  0  0  0
  -28.4325  -13.8354   21.7963 H   0  0  0  0  0  0
  -25.2764   -9.5694   22.4759 H   0  0  0  0  0  0
  -24.0009   -7.4637   22.7470 H   0  0  0  0  0  0
  -21.0849   -8.8774   19.8952 H   0  0  0  0  0  0
  -22.3698  -10.9675   19.6167 H   0  0  0  0  0  0
  -21.2008   -7.6148   23.9718 H   0  0  0  0  0  0
  -21.1487   -6.0521   25.9080 H   0  0  0  0  0  0
  -22.0597   -2.7609   23.2840 H   0  0  0  0  0  0
  -22.4093  -11.9884   22.4809 H   0  0  0  0  0  0
  -21.1091  -13.1244   22.2611 H   0  0  0  0  0  0
  -24.6549  -15.8474   20.5202 H   0  0  0  0  0  0
  -26.2752  -15.6300   20.0907 H   0  0  0  0  0  0
  -26.7203  -32.5424   23.1105 H   0  0  0  0  0  0
  -25.0087  -33.9716   25.0421 H   0  0  0  0  0  0
  -22.7198  -31.3100   21.4089 H   0  0  0  0  0  0
  -23.3756  -35.9618   23.3290 H   0  0  0  0  0  0
  -24.3588  -36.8918   22.2054 H   0  0  0  0  0  0
  -23.7237  -37.6486   23.6665 H   0  0  0  0  0  0
  -26.1145  -31.5388   20.6195 H   0  0  0  0  0  0
  -26.8494  -30.8179   22.0198 H   0  0  0  0  0  0
  -28.1052  -28.9153   21.2333 H   0  0  0  0  0  0
  -25.9123  -25.9820   18.9079 H   0  0  0  0  0  0
  -23.9623  -27.3619   18.9623 H   0  0  0  0  0  0
  -23.7640  -30.6150   19.4102 H   0  0  0  0  0  0
  -22.7582  -29.2689   19.8521 H   0  0  0  0  0  0
  -25.1294  -36.1928   25.0819 H   0  0  0  0  0  0
  -20.9992  -28.3270   24.1386 H   0  0  0  0  0  0
  -20.5683  -26.2307   23.3604 H   0  0  0  0  0  0
  -21.6646  -26.7442   22.1193 H   0  0  0  0  0  0
  -19.6916  -25.6295   21.1238 H   0  0  0  0  0  0
  -19.6685  -27.3192   20.6737 H   0  0  0  0  0  0
  -17.4204  -26.6669   21.4031 H   0  0  0  0  0  0
  -18.0344  -26.0069   22.9025 H   0  0  0  0  0  0
  -19.7947  -30.7272   24.2258 H   0  0  0  0  0  0
  -17.5026  -31.6267   24.5161 H   0  0  0  0  0  0
  -15.5360  -30.2985   23.7658 H   0  0  0  0  0  0
  -15.8678  -28.0816   22.7073 H   0  0  0  0  0  0
  -24.5906  -30.7085   25.7792 H   0  0  0  0  0  0
  -24.8921  -32.2908   26.4877 H   0  0  0  0  0  0
  -25.8045  -30.8923   27.0248 H   0  0  0  0  0  0
  -26.2946  -29.6749   24.1240 H   0  0  0  0  0  0
  -27.4020  -29.7265   25.4755 H   0  0  0  0  0  0
  -27.8835  -30.4273   23.9495 H   0  0  0  0  0  0
  -27.2672  -33.3632   26.2082 H   0  0  0  0  0  0
  -28.3884  -32.6874   25.0354 H   0  0  0  0  0  0
  -28.0720  -31.8459   26.5446 H   0  0  0  0  0  0
  -28.2584  -38.0110   24.7531 H   0  0  0  0  0  0
  -28.1093  -36.2642   24.6258 H   0  0  0  0  0  0
  -27.2304  -37.1410   25.8864 H   0  0  0  0  0  0
  -20.9384  -29.8789   21.6883 H   0  0  0  0  0  0
  -26.0167  -38.2849   24.1425 H   0  0  0  0  0  0
  -30.4566  -18.0819   22.2759 H   0  0  0  0  0  0
  -28.7729  -18.3878   22.5618 H   0  0  0  0  0  0
  -30.3457  -18.8576   18.6165 H   0  0  0  0  0  0
  -31.4001  -18.3374   19.8972 H   0  0  0  0  0  0
  -28.1032  -16.3889   21.3002 H   0  0  0  0  0  0
  -29.3356  -15.9358   22.4431 H   0  0  0  0  0  0
  -30.7145  -16.4119   18.5135 H   0  0  0  0  0  0
  -29.0373  -16.7664   18.7511 H   0  0  0  0  0  0
  -28.4348  -19.0626   20.1877 H   0  0  0  0  0  0
  -32.3896  -21.9648   21.4695 H   0  0  0  0  0  0
  -31.4548  -21.9713   22.9797 H   0  0  0  0  0  0
  -32.1093  -23.4871   22.3329 H   0  0  0  0  0  0
  -26.9593  -24.6870   20.3212 H   0  0  0  0  0  0
  -27.8297  -24.8293   18.8017 H   0  0  0  0  0  0
  -30.7568  -20.3361   21.4670 H   0  0  0  0  0  0
  1 25  1  0  0  0
  1 30  2  0  0  0
  1 83  1  0  0  0
  2  3  1  0  0  0
  2 25  1  0  0  0
  2 85  1  0  0  0
  2 86  1  0  0  0
  3  4  1  0  0  0
  3 87  1  0  0  0
  3 88  1  0  0  0
  4  5  1  0  0  0
  4 89  1  0  0  0
  4 90  1  0  0  0
  5  6  1  0  0  0
  5 26  1  0  0  0
  5 91  1  0  0  0
  6 25  1  0  0  0
  6 92  1  0  0  0
  6 93  1  0  0  0
  7  8  2  0  0  0
  7 26  1  0  0  0
  7 29  1  0  0  0
  8  9  1  0  0  0
  8 22  1  0  0  0
  9 10  1  0  0  0
  9 27  2  0  0  0
 10 11  2  0  0  0
 10 15  1  0  0  0
 11 12  1  0  0  0
 11 94  1  0  0  0
 12 13  2  0  0  0
 12 95  1  0  0  0
 13 14  1  0  0  0
 13 31  1  0  0  0
 14 15  2  0  0  0
 14 96  1  0  0  0
 15 97  1  0  0  0
 16 17  2  0  0  0
 16 21  1  0  0  0
 16 31  1  0  0  0
 17 18  1  0  0  0
 17 98  1  0  0  0
 18 19  2  0  0  0
 18 99  1  0  0  0
 19 20  1  0  0  0
 19 24  1  0  0  0
 20 21  2  0  0  0
 20100  1  0  0  0
 21 23  1  0  0  0
 22 28  1  0  0  0
 22 32  2  0  0  0
 26 27  1  0  0  0
 28101  1  0  0  0
 28102  1  0  0  0
 29103  1  0  0  0
 29104  1  0  0  0
 33 34  1  0  0  0
 33 66  1  0  0  0
 33 70  2  0  0  0
 34 36  1  0  0  0
 34 59  1  0  0  0
 34105  1  0  0  0
 35 44  2  0  0  0
 35 45  1  0  0  0
 35 68  1  0  0  0
 36 56  1  0  0  0
 36106  1  0  0  0
 37 39  1  0  0  0
 37 47  1  0  0  0
 37 66  1  0  0  0
 37107  1  0  0  0
 38 43  2  0  0  0
 38 46  1  0  0  0
 38 47  1  0  0  0
 39 64  1  0  0  0
 39 67  2  0  0  0
 40 52  1  0  0  0
 40 53  2  0  0  0
 40 58  1  0  0  0
 41108  1  0  0  0
 41109  1  0  0  0
 41110  1  0  0  0
 41 48  1  0  0  0
 42 43  1  0  0  0
 42 66  1  0  0  0
 42111  1  0  0  0
 42112  1  0  0  0
 43 44  1  0  0  0
 44113  1  0  0  0
 45 46  2  0  0  0
 45114  1  0  0  0
 46115  1  0  0  0
 47116  1  0  0  0
 47117  1  0  0  0
 48 56  1  0  0  0
 48 65  1  0  0  0
 48118  1  0  0  0
 49 50  1  0  0  0
 49 53  1  0  0  0
 49 64  1  0  0  0
 49119  1  0  0  0
 50 51  1  0  0  0
 50120  1  0  0  0
 50121  1  0  0  0
 51 52  1  0  0  0
 51122  1  0  0  0
 51123  1  0  0  0
 52124  1  0  0  0
 52125  1  0  0  0
 53 54  1  0  0  0
 54 55  2  0  0  0
 54126  1  0  0  0
 55 57  1  0  0  0
 55127  1  0  0  0
 56 69  2  0  0  0
 57 58  2  0  0  0
 57128  1  0  0  0
 58129  1  0  0  0
 59 60  1  0  0  0
 59 61  1  0  0  0
 59 62  1  0  0  0
 60130  1  0  0  0
 60131  1  0  0  0
 60132  1  0  0  0
 61133  1  0  0  0
 61134  1  0  0  0
 61135  1  0  0  0
 62136  1  0  0  0
 62137  1  0  0  0
 62138  1  0  0  0
 63 65  1  0  0  0
 63139  1  0  0  0
 63140  1  0  0  0
 63141  1  0  0  0
 64142  1  0  0  0
 65143  1  0  0  0
 68 79  1  0  0  0
 71 79  1  0  0  0
 71 80  1  0  0  0
 71 81  2  0  0  0
 72 80  2  0  0  0
 72 82  1  0  0  0
 72 84  1  0  0  0
 73 75  1  0  0  0
 73 77  1  0  0  0
 73144  1  0  0  0
 73145  1  0  0  0
 74 76  1  0  0  0
 74 77  1  0  0  0
 74146  1  0  0  0
 74147  1  0  0  0
 75 83  1  0  0  0
 75148  1  0  0  0
 75149  1  0  0  0
 76 83  1  0  0  0
 76150  1  0  0  0
 76151  1  0  0  0
 77 84  1  0  0  0
 77152  1  0  0  0
 78 82  1  0  0  0
 78153  1  0  0  0
 78154  1  0  0  0
 78155  1  0  0  0
 79156  1  0  0  0
 79157  1  0  0  0
 81 82  1  0  0  0
 84158  1  0  0  0
M  ISO  4   1 100  68 101  79 101  83 100
M  END
> <chiral flag>
0

> <version>
0

> <s_m_source_file>
/data/baiqing/PycharmProjects/Reinvent-master-3.2/result/LINK_invent/BTK/process_docking_weight1_custom_sum_contain_oxygen_bond_distance_aromatic_linkinvent_7_9_3/rearranged_h_0186.sdf

> <i_m_source_file_index>
2

> <r_mmod_Potential_Energy-OPLS-2005>
241.696792602539

> <r_mmod_Stretch_Energy-OPLS-2005>
93.3062438964844

> <r_mmod_Bend_Energy-OPLS-2005>
175.321105957031

> <r_mmod_Torsional_Energy-OPLS-2005>
312.779663085938

> <r_mmod_Improper_Torsional_Energy-OPLS-2005>
16.0534973144531

> <r_mmod_Van_der_Waal_Energy-OPLS-2005>
126.915100097656

> <r_mmod_Electrostatic_Energy-OPLS-2005>
-329.713714599609

> <r_mmod_Solvation_Energy-OPLS-2005>
-227.74560546875

> <b_mmod_Minimization_Converged-OPLS-2005>
0

> <r_mmod_RMS_Derivative-OPLS-2005>
0.69638204574585

$$$$
2
                    3D
 Structure written by MMmdl.
159167  0  0  1  0            999 V2000
  -30.5480  -15.1486   20.4003 C   0  0  0  0  0  0
  -30.4193  -12.7449   19.4968 C   0  0  0  0  0  0
  -29.5114  -12.5436   18.2629 C   0  0  0  0  0  0
  -28.0628  -12.2876   18.7083 C   0  0  0  0  0  0
  -27.6058  -13.2705   19.8162 C   0  0  2  0  0  0
  -28.6460  -13.4510   20.9424 C   0  0  0  0  0  0
  -25.2368  -13.8254   20.5734 C   0  0  0  0  0  0
  -24.1705  -13.0449   20.9246 C   0  0  0  0  0  0
  -24.6360  -11.6947   20.8760 C   0  0  0  0  0  0
  -23.9053  -10.4308   21.0402 C   0  0  0  0  0  0
  -24.3610   -9.4216   21.9179 C   0  0  0  0  0  0
  -23.6282   -8.2244   22.0762 C   0  0  0  0  0  0
  -22.4278   -8.0269   21.3534 C   0  0  0  0  0  0
  -21.9899   -9.0233   20.4645 C   0  0  0  0  0  0
  -22.7225  -10.2125   20.3052 C   0  0  0  0  0  0
  -21.6847   -6.0723   22.5262 C   0  0  0  0  0  0
  -21.4002   -6.5627   23.8184 C   0  0  0  0  0  0
  -21.3676   -5.6785   24.9160 C   0  0  0  0  0  0
  -21.6047   -4.3047   24.7209 C   0  0  0  0  0  0
  -21.8819   -3.8139   23.4322 C   0  0  0  0  0  0
  -21.9182   -4.6947   22.3384 C   0  0  0  0  0  0
  -22.7725  -13.5195   21.1910 C   0  0  0  0  0  0
  -22.1654   -4.2131   21.0961 F   0  0  0  0  0  0
  -21.5649   -3.4548   25.7723 F   0  0  0  0  0  0
  -29.8867  -13.9040   20.2968 N   0  0  0  0  0  0
  -26.2795  -12.9517   20.3240 N   0  0  0  0  0  0
  -25.9311  -11.6630   20.5764 N   0  0  0  0  0  0
  -22.0389  -12.8155   22.0460 N   0  0  0  0  0  0
  -25.4057  -15.1981   20.4187 N   0  0  0  0  0  0
  -31.7768  -15.0512   20.2673 O   0  0  0  0  0  0
  -21.6653   -6.8872   21.4224 O   0  0  0  0  0  0
  -22.3402  -14.5506   20.6769 O   0  0  0  0  0  0
  -24.6572  -31.8292   23.1775 C   0  0  0  0  0  0
  -25.9283  -32.4619   23.8192 C   0  0  1  0  0  0
  -27.2118  -27.0086   20.1669 C   0  0  0  0  0  0
  -25.5996  -33.8419   24.2153 N   0  0  0  0  0  0
  -23.4639  -30.4491   21.5266 C   0  0  2  0  0  0
  -24.9129  -28.8442   20.1159 C   0  0  0  0  0  0
  -22.7615  -29.4481   22.4799 C   0  0  0  0  0  0
  -18.0307  -28.1385   22.8445 C   0  0  0  0  0  0
  -24.1476  -36.7160   23.2673 C   0  0  0  0  0  0
  -26.0329  -30.6590   21.3948 C   0  0  0  0  0  0
  -26.0967  -29.2576   20.7393 C   0  0  0  0  0  0
  -27.2500  -28.3655   20.7317 C   0  0  0  0  0  0
  -25.9986  -26.7160   19.5123 C   0  0  0  0  0  0
  -24.8839  -27.5887   19.4861 C   0  0  0  0  0  0
  -23.6995  -29.7704   20.1501 C   0  0  0  0  0  0
  -25.4112  -36.2945   24.0341 C   0  0  1  0  0  0
  -20.5921  -28.3695   23.1163 C   0  0  2  0  0  0
  -20.6773  -26.9367   22.5352 C   0  0  0  0  0  0
  -19.5752  -26.6319   21.5166 C   0  0  0  0  0  0
  -18.1935  -26.7925   22.1565 C   0  0  0  0  0  0
  -19.1573  -28.8853   23.2792 C   0  0  0  0  0  0
  -18.9505  -30.1457   23.8814 C   0  0  0  0  0  0
  -17.6518  -30.6568   24.0549 C   0  0  0  0  0  0
  -25.9091  -34.9343   23.5017 C   0  0  0  0  0  0
  -16.5389  -29.9071   23.6345 C   0  0  0  0  0  0
  -16.7287  -28.6492   23.0351 C   0  0  0  0  0  0
  -26.4588  -31.6529   25.0660 C   0  0  0  0  0  0
  -25.3773  -31.3723   26.1339 C   0  0  0  0  0  0
  -27.0528  -30.2929   24.6317 C   0  0  0  0  0  0
  -27.6076  -32.4340   25.7459 C   0  0  0  0  0  0
  -27.5547  -37.1719   24.8504 C   0  0  0  0  0  0
  -21.4297  -29.3045   22.3558 N   0  0  0  0  0  0
  -26.4251  -37.3677   23.9462 N   0  0  0  0  0  0
  -24.7397  -31.0016   22.0893 N   0  0  0  0  0  0
  -23.4216  -28.8000   23.2964 O   0  0  0  0  0  0
  -28.2640  -25.9846   20.1007 O   0  0  0  0  0  0
  -26.5644  -34.8886   22.4609 O   0  0  0  0  0  0
  -23.5657  -32.1258   23.6907 O   0  0  0  0  0  0
  -30.5221  -19.2262   20.9637 C   0  0  0  0  0  0
  -28.6984  -18.8352   19.5817 C   0  0  0  0  0  0
  -30.6380  -17.6264   21.3391 C   0  0  0  0  0  0
  -28.7343  -17.2044   19.9757 C   0  0  0  0  0  0
  -29.1547  -20.0025   20.6112 C   0  0  0  0  0  0
  -27.2919  -22.6428   18.9089 C   0  0  0  0  0  0
  -30.3271  -21.8641   19.2251 C   0  0  0  0  0  0
  -28.2654  -24.4855   20.6971 C   0  0  0  0  0  0
  -28.1446  -22.7911   20.1851 C   0  0  2  0  0  0
  -29.9609  -16.4920   20.5674 N   0  0  0  0  0  0
  -29.2849  -21.6163   20.2556 N   0  3  1  0  0  0
  -31.4425  -12.9157   19.1570 H   0  0  0  0  0  0
  -30.4584  -11.8377   20.1042 H   0  0  0  0  0  0
  -29.8697  -11.7088   17.6603 H   0  0  0  0  0  0
  -29.5524  -13.4259   17.6235 H   0  0  0  0  0  0
  -28.0149  -11.2656   19.0852 H   0  0  0  0  0  0
  -27.3844  -12.3301   17.8561 H   0  0  0  0  0  0
  -27.5216  -14.2356   19.3154 H   0  0  0  0  0  0
  -28.7947  -12.5348   21.5150 H   0  0  0  0  0  0
  -28.3034  -14.2120   21.6473 H   0  0  0  0  0  0
  -25.2753   -9.5685   22.4768 H   0  0  0  0  0  0
  -23.9980   -7.4639   22.7492 H   0  0  0  0  0  0
  -21.0836   -8.8736   19.8950 H   0  0  0  0  0  0
  -22.3661  -10.9651   19.6170 H   0  0  0  0  0  0
  -21.1981   -7.6144   23.9668 H   0  0  0  0  0  0
  -21.1515   -6.0535   25.9048 H   0  0  0  0  0  0
  -22.0584   -2.7602   23.2827 H   0  0  0  0  0  0
  -22.4040  -11.9796   22.4804 H   0  0  0  0  0  0
  -21.1010  -13.1168   22.2728 H   0  0  0  0  0  0
  -24.6406  -15.8570   20.5276 H   0  0  0  0  0  0
  -26.2686  -15.6358   20.1213 H   0  0  0  0  0  0
  -26.7331  -32.5180   23.0879 H   0  0  0  0  0  0
  -25.0216  -33.9548   25.0336 H   0  0  0  0  0  0
  -22.7760  -31.2801   21.3580 H   0  0  0  0  0  0
  -23.3763  -35.9454   23.3301 H   0  0  0  0  0  0
  -24.3584  -36.8808   22.2092 H   0  0  0  0  0  0
  -23.7184  -37.6325   23.6726 H   0  0  0  0  0  0
  -26.2152  -31.4042   20.6188 H   0  0  0  0  0  0
  -26.9007  -30.7030   22.0426 H   0  0  0  0  0  0
  -28.1632  -28.7000   21.2024 H   0  0  0  0  0  0
  -25.9054  -25.7620   19.0122 H   0  0  0  0  0  0
  -23.9826  -27.2644   18.9867 H   0  0  0  0  0  0
  -23.8717  -30.5484   19.4073 H   0  0  0  0  0  0
  -22.8079  -29.2364   19.8130 H   0  0  0  0  0  0
  -25.1296  -36.1736   25.0822 H   0  0  0  0  0  0
  -21.0004  -28.3258   24.1284 H   0  0  0  0  0  0
  -20.5635  -26.2297   23.3585 H   0  0  0  0  0  0
  -21.6646  -26.7319   22.1171 H   0  0  0  0  0  0
  -19.6944  -25.6225   21.1185 H   0  0  0  0  0  0
  -19.6734  -27.3166   20.6742 H   0  0  0  0  0  0
  -17.4206  -26.6621   21.3987 H   0  0  0  0  0  0
  -18.0318  -26.0115   22.8991 H   0  0  0  0  0  0
  -19.8036  -30.7242   24.2121 H   0  0  0  0  0  0
  -17.5131  -31.6272   24.5139 H   0  0  0  0  0  0
  -15.5416  -30.2983   23.7778 H   0  0  0  0  0  0
  -15.8644  -28.0829   22.7112 H   0  0  0  0  0  0
  -24.6001  -30.7020   25.7668 H   0  0  0  0  0  0
  -24.8932  -32.2911   26.4641 H   0  0  0  0  0  0
  -25.8054  -30.8980   27.0185 H   0  0  0  0  0  0
  -26.3215  -29.6554   24.1341 H   0  0  0  0  0  0
  -27.4216  -29.7266   25.4885 H   0  0  0  0  0  0
  -27.9055  -30.4195   23.9641 H   0  0  0  0  0  0
  -27.2661  -33.3731   26.1827 H   0  0  0  0  0  0
  -28.3987  -32.6755   25.0346 H   0  0  0  0  0  0
  -28.0638  -31.8611   26.5548 H   0  0  0  0  0  0
  -28.2496  -38.0060   24.7530 H   0  0  0  0  0  0
  -28.1048  -36.2562   24.6294 H   0  0  0  0  0  0
  -27.2271  -37.1349   25.8904 H   0  0  0  0  0  0
  -20.9495  -29.8797   21.6771 H   0  0  0  0  0  0
  -26.0062  -38.2702   24.1526 H   0  0  0  0  0  0
  -31.1956  -19.3611   20.1182 H   0  0  0  0  0  0
  -31.0092  -19.7786   21.7692 H   0  0  0  0  0  0
  -27.6797  -19.0597   19.2601 H   0  0  0  0  0  0
  -29.2885  -18.9526   18.6715 H   0  0  0  0  0  0
  -30.3038  -17.5096   22.3717 H   0  0  0  0  0  0
  -31.7059  -17.3993   21.3816 H   0  0  0  0  0  0
  -28.4403  -16.6371   19.0915 H   0  0  0  0  0  0
  -27.9316  -17.0310   20.6936 H   0  0  0  0  0  0
  -28.5023  -19.9549   21.4844 H   0  0  0  0  0  0
  -26.3642  -23.2105   18.9800 H   0  0  0  0  0  0
  -27.0113  -21.5992   18.7518 H   0  0  0  0  0  0
  -27.8271  -22.9688   18.0148 H   0  0  0  0  0  0
  -31.3016  -21.5009   19.5534 H   0  0  0  0  0  0
  -30.4510  -22.9302   19.0434 H   0  0  0  0  0  0
  -30.0839  -21.3917   18.2719 H   0  0  0  0  0  0
  -29.1623  -24.4981   21.3120 H   0  0  0  0  0  0
  -27.4727  -24.5770   21.4390 H   0  0  0  0  0  0
  -27.5000  -22.4095   20.9775 H   0  0  0  0  0  0
  -29.7536  -21.9199   21.0983 H   0  0  0  0  0  0
  1 25  1  0  0  0
  1 30  2  0  0  0
  1 80  1  0  0  0
  2  3  1  0  0  0
  2 25  1  0  0  0
  2 82  1  0  0  0
  2 83  1  0  0  0
  3  4  1  0  0  0
  3 84  1  0  0  0
  3 85  1  0  0  0
  4  5  1  0  0  0
  4 86  1  0  0  0
  4 87  1  0  0  0
  5  6  1  0  0  0
  5 26  1  0  0  0
  5 88  1  0  0  0
  6 25  1  0  0  0
  6 89  1  0  0  0
  6 90  1  0  0  0
  7  8  2  0  0  0
  7 26  1  0  0  0
  7 29  1  0  0  0
  8  9  1  0  0  0
  8 22  1  0  0  0
  9 10  1  0  0  0
  9 27  2  0  0  0
 10 11  2  0  0  0
 10 15  1  0  0  0
 11 12  1  0  0  0
 11 91  1  0  0  0
 12 13  2  0  0  0
 12 92  1  0  0  0
 13 14  1  0  0  0
 13 31  1  0  0  0
 14 15  2  0  0  0
 14 93  1  0  0  0
 15 94  1  0  0  0
 16 17  2  0  0  0
 16 21  1  0  0  0
 16 31  1  0  0  0
 17 18  1  0  0  0
 17 95  1  0  0  0
 18 19  2  0  0  0
 18 96  1  0  0  0
 19 20  1  0  0  0
 19 24  1  0  0  0
 20 21  2  0  0  0
 20 97  1  0  0  0
 21 23  1  0  0  0
 22 28  1  0  0  0
 22 32  2  0  0  0
 26 27  1  0  0  0
 28 98  1  0  0  0
 28 99  1  0  0  0
 29100  1  0  0  0
 29101  1  0  0  0
 33 34  1  0  0  0
 33 66  1  0  0  0
 33 70  2  0  0  0
 34 36  1  0  0  0
 34 59  1  0  0  0
 34102  1  0  0  0
 35 44  2  0  0  0
 35 45  1  0  0  0
 35 68  1  0  0  0
 36 56  1  0  0  0
 36103  1  0  0  0
 37 39  1  0  0  0
 37 47  1  0  0  0
 37 66  1  0  0  0
 37104  1  0  0  0
 38 43  2  0  0  0
 38 46  1  0  0  0
 38 47  1  0  0  0
 39 64  1  0  0  0
 39 67  2  0  0  0
 40 52  1  0  0  0
 40 53  2  0  0  0
 40 58  1  0  0  0
 41105  1  0  0  0
 41106  1  0  0  0
 41107  1  0  0  0
 41 48  1  0  0  0
 42 43  1  0  0  0
 42 66  1  0  0  0
 42108  1  0  0  0
 42109  1  0  0  0
 43 44  1  0  0  0
 44110  1  0  0  0
 45 46  2  0  0  0
 45111  1  0  0  0
 46112  1  0  0  0
 47113  1  0  0  0
 47114  1  0  0  0
 48 56  1  0  0  0
 48 65  1  0  0  0
 48115  1  0  0  0
 49 50  1  0  0  0
 49 53  1  0  0  0
 49 64  1  0  0  0
 49116  1  0  0  0
 50 51  1  0  0  0
 50117  1  0  0  0
 50118  1  0  0  0
 51 52  1  0  0  0
 51119  1  0  0  0
 51120  1  0  0  0
 52121  1  0  0  0
 52122  1  0  0  0
 53 54  1  0  0  0
 54 55  2  0  0  0
 54123  1  0  0  0
 55 57  1  0  0  0
 55124  1  0  0  0
 56 69  2  0  0  0
 57 58  2  0  0  0
 57125  1  0  0  0
 58126  1  0  0  0
 59 60  1  0  0  0
 59 61  1  0  0  0
 59 62  1  0  0  0
 60127  1  0  0  0
 60128  1  0  0  0
 60129  1  0  0  0
 61130  1  0  0  0
 61131  1  0  0  0
 61132  1  0  0  0
 62133  1  0  0  0
 62134  1  0  0  0
 62135  1  0  0  0
 63 65  1  0  0  0
 63136  1  0  0  0
 63137  1  0  0  0
 63138  1  0  0  0
 64139  1  0  0  0
 65140  1  0  0  0
 68 78  1  0  0  0
 71 73  1  0  0  0
 71141  1  0  0  0
 71142  1  0  0  0
 71 75  1  0  0  0
 72 74  1  0  0  0
 72 75  1  0  0  0
 72143  1  0  0  0
 72144  1  0  0  0
 73 80  1  0  0  0
 73145  1  0  0  0
 73146  1  0  0  0
 74 80  1  0  0  0
 74147  1  0  0  0
 74148  1  0  0  0
 75 81  1  0  0  0
 75149  1  0  0  0
 76150  1  0  0  0
 76151  1  0  0  0
 76152  1  0  0  0
 76 79  1  0  0  0
 77153  1  0  0  0
 77154  1  0  0  0
 77155  1  0  0  0
 77 81  1  0  0  0
 78 79  1  0  0  0
 78156  1  0  0  0
 78157  1  0  0  0
 79 81  1  0  0  0
 79158  1  0  0  0
 81159  1  0  0  0
M  CHG  1  81   1
M  ISO  4   1 100  68 101  78 101  80 100
M  END
> <chiral flag>
0

> <version>
0

> <s_m_source_file>
/data/baiqing/PycharmProjects/Reinvent-master-3.2/result/LINK_invent/BTK/process_docking_weight1_custom_sum_contain_oxygen_bond_distance_aromatic_linkinvent_7_9_3/rearranged_h_0186.sdf

> <i_m_source_file_index>
3

> <r_mmod_Potential_Energy-OPLS-2005>
1198.81005859375

> <r_mmod_Stretch_Energy-OPLS-2005>
426.724975585938

> <r_mmod_Bend_Energy-OPLS-2005>
503.223114013672

> <r_mmod_Torsional_Energy-OPLS-2005>
371.225616455078

> <r_mmod_Improper_Torsional_Energy-OPLS-2005>
2.00055956840515

> <r_mmod_Van_der_Waal_Energy-OPLS-2005>
107.021125793457

> <r_mmod_Electrostatic_Energy-OPLS-2005>
-124.447174072266

> <r_mmod_Solvation_Energy-OPLS-2005>
-425.347290039062

> <b_mmod_Minimization_Converged-OPLS-2005>
0

> <r_mmod_RMS_Derivative-OPLS-2005>
5.48992252349854

$$$$
3
                    3D
 Structure written by MMmdl.
157166  0  0  1  0            999 V2000
  -30.5957  -14.6384   20.5259 C   0  0  0  0  0  0
  -30.4489  -12.3974   19.4450 C   0  0  0  0  0  0
  -29.5104  -12.5194   18.2219 C   0  0  0  0  0  0
  -28.0319  -12.3545   18.6322 C   0  0  0  0  0  0
  -27.6584  -13.2095   19.8721 C   0  0  2  0  0  0
  -28.7033  -13.0270   20.9968 C   0  0  0  0  0  0
  -25.2572  -13.8147   20.5651 C   0  0  0  0  0  0
  -24.1837  -13.0428   20.9185 C   0  0  0  0  0  0
  -24.6397  -11.6898   20.8746 C   0  0  0  0  0  0
  -23.9058  -10.4288   21.0414 C   0  0  0  0  0  0
  -24.3608   -9.4203   21.9191 C   0  0  0  0  0  0
  -23.6285   -8.2238   22.0756 C   0  0  0  0  0  0
  -22.4270   -8.0277   21.3544 C   0  0  0  0  0  0
  -21.9905   -9.0252   20.4649 C   0  0  0  0  0  0
  -22.7231  -10.2133   20.3062 C   0  0  0  0  0  0
  -21.6851   -6.0732   22.5279 C   0  0  0  0  0  0
  -21.4014   -6.5640   23.8212 C   0  0  0  0  0  0
  -21.3658   -5.6794   24.9176 C   0  0  0  0  0  0
  -21.6043   -4.3055   24.7229 C   0  0  0  0  0  0
  -21.8821   -3.8144   23.4351 C   0  0  0  0  0  0
  -21.9191   -4.6959   22.3404 C   0  0  0  0  0  0
  -22.7861  -13.5233   21.1848 C   0  0  0  0  0  0
  -22.1659   -4.2143   21.0983 F   0  0  0  0  0  0
  -21.5626   -3.4541   25.7743 F   0  0  0  0  0  0
  -30.0207  -13.3951   20.4453 N   0  0  0  0  0  0
  -26.3010  -12.9319   20.3343 N   0  0  0  0  0  0
  -25.9327  -11.6483   20.5773 N   0  0  0  0  0  0
  -22.0501  -12.8229   22.0408 N   0  0  0  0  0  0
  -25.4264  -15.1859   20.3982 N   0  0  0  0  0  0
  -31.7307  -14.8569   20.0870 O   0  0  0  0  0  0
  -21.6638   -6.8873   21.4239 O   0  0  0  0  0  0
  -22.3552  -14.5545   20.6702 O   0  0  0  0  0  0
  -24.6248  -31.8597   23.2018 C   0  0  0  0  0  0
  -25.9099  -32.4782   23.8349 C   0  0  1  0  0  0
  -27.2310  -27.3320   20.1183 C   0  0  0  0  0  0
  -25.5918  -33.8581   24.2281 N   0  0  0  0  0  0
  -23.4186  -30.4818   21.5444 C   0  0  2  0  0  0
  -24.8667  -28.9346   20.1126 C   0  0  0  0  0  0
  -22.7470  -29.4619   22.4942 C   0  0  0  0  0  0
  -18.0286  -28.1383   22.8489 C   0  0  0  0  0  0
  -24.1490  -36.7293   23.2640 C   0  0  0  0  0  0
  -25.9576  -30.7957   21.3696 C   0  0  0  0  0  0
  -26.0346  -29.4235   20.7119 C   0  0  0  0  0  0
  -27.2218  -28.6354   20.7000 C   0  0  0  0  0  0
  -26.0414  -26.8862   19.5029 C   0  0  0  0  0  0
  -24.8714  -27.6713   19.4982 C   0  0  0  0  0  0
  -23.6329  -29.8131   20.1607 C   0  0  0  0  0  0
  -25.4115  -36.3086   24.0331 C   0  0  1  0  0  0
  -20.5884  -28.3683   23.1291 C   0  0  2  0  0  0
  -20.6773  -26.9408   22.5412 C   0  0  0  0  0  0
  -19.5750  -26.6384   21.5214 C   0  0  0  0  0  0
  -18.1930  -26.7928   22.1625 C   0  0  0  0  0  0
  -19.1537  -28.8851   23.2885 C   0  0  0  0  0  0
  -18.9458  -30.1455   23.8897 C   0  0  0  0  0  0
  -17.6458  -30.6585   24.0565 C   0  0  0  0  0  0
  -25.9050  -34.9454   23.5107 C   0  0  0  0  0  0
  -16.5350  -29.9081   23.6331 C   0  0  0  0  0  0
  -16.7272  -28.6501   23.0350 C   0  0  0  0  0  0
  -26.4490  -31.6587   25.0715 C   0  0  0  0  0  0
  -25.3731  -31.3712   26.1446 C   0  0  0  0  0  0
  -27.0336  -30.3017   24.6155 C   0  0  0  0  0  0
  -27.6050  -32.4322   25.7487 C   0  0  0  0  0  0
  -27.5581  -37.1804   24.8467 C   0  0  0  0  0  0
  -21.4184  -29.3035   22.3686 N   0  0  0  0  0  0
  -26.4296  -37.3778   23.9407 N   0  0  0  0  0  0
  -24.6859  -31.0618   22.0961 N   0  0  0  0  0  0
  -23.4197  -28.8165   23.3022 O   0  0  0  0  0  0
  -28.3543  -26.4970   20.1513 O   0  0  0  0  0  0
  -26.5616  -34.8919   22.4672 O   0  0  0  0  0  0
  -23.5413  -32.1386   23.7355 O   0  0  0  0  0  0
  -30.3766  -17.9595   20.2657 C   0  0  0  0  0  0
  -29.6999  -19.2168   20.5590 C   0  0  0  0  0  0
  -29.6606  -16.9852   20.9387 C   0  0  0  0  0  0
  -29.3458  -24.2602   21.0216 C   0  0  0  0  0  0
  -28.0442  -24.0110   19.3420 C   0  0  0  0  0  0
  -29.2278  -23.1658   19.9156 C   0  0  2  0  0  0
  -28.1330  -25.0713   20.4767 C   0  0  1  0  0  0
  -27.5776  -17.1176   22.4300 C   0  0  0  0  0  0
  -30.0179  -20.6862   20.1295 C   0  0  0  0  0  0
  -28.6543  -18.9879   21.3500 N   0  0  0  0  0  0
  -28.6271  -17.6486   21.5795 N   0  0  0  0  0  0
  -29.7768  -15.6057   21.0365 N   0  0  0  0  0  0
  -28.9385  -21.7258   20.3460 N   0  3  0  0  0  0
  -31.4872  -12.5428   19.1409 H   0  0  0  0  0  0
  -30.3999  -11.3930   19.8685 H   0  0  0  0  0  0
  -29.7741  -11.7755   17.4688 H   0  0  0  0  0  0
  -29.6502  -13.4931   17.7491 H   0  0  0  0  0  0
  -27.8637  -11.2986   18.8482 H   0  0  0  0  0  0
  -27.3783  -12.6000   17.7944 H   0  0  0  0  0  0
  -27.6860  -14.2514   19.5523 H   0  0  0  0  0  0
  -28.7187  -11.9899   21.3353 H   0  0  0  0  0  0
  -28.4403  -13.6114   21.8794 H   0  0  0  0  0  0
  -25.2753   -9.5680   22.4765 H   0  0  0  0  0  0
  -23.9997   -7.4627   22.7471 H   0  0  0  0  0  0
  -21.0840   -8.8770   19.8948 H   0  0  0  0  0  0
  -22.3692  -10.9673   19.6170 H   0  0  0  0  0  0
  -21.2011   -7.6149   23.9715 H   0  0  0  0  0  0
  -21.1478   -6.0525   25.9079 H   0  0  0  0  0  0
  -22.0601   -2.7605   23.2857 H   0  0  0  0  0  0
  -22.4119  -11.9885   22.4786 H   0  0  0  0  0  0
  -21.1117  -13.1251   22.2613 H   0  0  0  0  0  0
  -24.6459  -15.8285   20.4760 H   0  0  0  0  0  0
  -26.2542  -15.6164   20.0075 H   0  0  0  0  0  0
  -26.7169  -32.5457   23.1101 H   0  0  0  0  0  0
  -25.0077  -33.9727   25.0434 H   0  0  0  0  0  0
  -22.7122  -31.3020   21.4007 H   0  0  0  0  0  0
  -23.3755  -35.9624   23.3309 H   0  0  0  0  0  0
  -24.3580  -36.8904   22.2053 H   0  0  0  0  0  0
  -23.7242  -37.6496   23.6656 H   0  0  0  0  0  0
  -26.0867  -31.5608   20.6026 H   0  0  0  0  0  0
  -26.8384  -30.8449   21.9984 H   0  0  0  0  0  0
  -28.1205  -29.0079   21.1715 H   0  0  0  0  0  0
  -26.0064  -25.9170   19.0269 H   0  0  0  0  0  0
  -23.9758  -27.2915   19.0259 H   0  0  0  0  0  0
  -23.7495  -30.5883   19.4024 H   0  0  0  0  0  0
  -22.7537  -29.2401   19.8606 H   0  0  0  0  0  0
  -25.1299  -36.1941   25.0824 H   0  0  0  0  0  0
  -20.9978  -28.3254   24.1411 H   0  0  0  0  0  0
  -20.5678  -26.2290   23.3609 H   0  0  0  0  0  0
  -21.6641  -26.7439   22.1206 H   0  0  0  0  0  0
  -19.6910  -25.6296   21.1239 H   0  0  0  0  0  0
  -19.6688  -27.3200   20.6750 H   0  0  0  0  0  0
  -17.4201  -26.6682   21.4025 H   0  0  0  0  0  0
  -18.0326  -26.0066   22.9018 H   0  0  0  0  0  0
  -19.7932  -30.7276   24.2262 H   0  0  0  0  0  0
  -17.5008  -31.6264   24.5168 H   0  0  0  0  0  0
  -15.5349  -30.2981   23.7651 H   0  0  0  0  0  0
  -15.8676  -28.0821   22.7057 H   0  0  0  0  0  0
  -24.5908  -30.7061   25.7773 H   0  0  0  0  0  0
  -24.8921  -32.2872   26.4885 H   0  0  0  0  0  0
  -25.8061  -30.8879   27.0214 H   0  0  0  0  0  0
  -26.2904  -29.6765   24.1191 H   0  0  0  0  0  0
  -27.4059  -29.7272   25.4647 H   0  0  0  0  0  0
  -27.8761  -30.4317   23.9359 H   0  0  0  0  0  0
  -27.2661  -33.3620   26.2069 H   0  0  0  0  0  0
  -28.3856  -32.6884   25.0312 H   0  0  0  0  0  0
  -28.0725  -31.8446   26.5397 H   0  0  0  0  0  0
  -28.2604  -38.0097   24.7509 H   0  0  0  0  0  0
  -28.1072  -36.2626   24.6303 H   0  0  0  0  0  0
  -27.2295  -37.1467   25.8869 H   0  0  0  0  0  0
  -20.9360  -29.8758   21.6898 H   0  0  0  0  0  0
  -26.0180  -38.2855   24.1398 H   0  0  0  0  0  0
  -31.2544  -17.8096   19.6529 H   0  0  0  0  0  0
  -30.2824  -24.8157   20.9609 H   0  0  0  0  0  0
  -29.1868  -23.8914   22.0356 H   0  0  0  0  0  0
  -27.0869  -23.4889   19.3278 H   0  0  0  0  0  0
  -28.2652  -24.4303   18.3595 H   0  0  0  0  0  0
  -30.0765  -23.2023   19.2304 H   0  0  0  0  0  0
  -27.2928  -24.9625   21.1662 H   0  0  0  0  0  0
  -27.4715  -16.0422   22.2942 H   0  0  0  0  0  0
  -26.6249  -17.5885   22.1855 H   0  0  0  0  0  0
  -27.8158  -17.3174   23.4746 H   0  0  0  0  0  0
  -30.2814  -20.6953   19.0721 H   0  0  0  0  0  0
  -30.9101  -21.0225   20.6575 H   0  0  0  0  0  0
  -28.9729  -15.1854   21.4735 H   0  0  0  0  0  0
  -28.1488  -21.3789   19.8278 H   0  0  0  0  0  0
  -28.6783  -21.6790   21.3172 H   0  0  0  0  0  0
  1 25  1  0  0  0
  1 30  2  0  0  0
  1 82  1  0  0  0
  2  3  1  0  0  0
  2 25  1  0  0  0
  2 84  1  0  0  0
  2 85  1  0  0  0
  3  4  1  0  0  0
  3 86  1  0  0  0
  3 87  1  0  0  0
  4  5  1  0  0  0
  4 88  1  0  0  0
  4 89  1  0  0  0
  5  6  1  0  0  0
  5 26  1  0  0  0
  5 90  1  0  0  0
  6 25  1  0  0  0
  6 91  1  0  0  0
  6 92  1  0  0  0
  7  8  2  0  0  0
  7 26  1  0  0  0
  7 29  1  0  0  0
  8  9  1  0  0  0
  8 22  1  0  0  0
  9 10  1  0  0  0
  9 27  2  0  0  0
 10 11  2  0  0  0
 10 15  1  0  0  0
 11 12  1  0  0  0
 11 93  1  0  0  0
 12 13  2  0  0  0
 12 94  1  0  0  0
 13 14  1  0  0  0
 13 31  1  0  0  0
 14 15  2  0  0  0
 14 95  1  0  0  0
 15 96  1  0  0  0
 16 17  2  0  0  0
 16 21  1  0  0  0
 16 31  1  0  0  0
 17 18  1  0  0  0
 17 97  1  0  0  0
 18 19  2  0  0  0
 18 98  1  0  0  0
 19 20  1  0  0  0
 19 24  1  0  0  0
 20 21  2  0  0  0
 20 99  1  0  0  0
 21 23  1  0  0  0
 22 28  1  0  0  0
 22 32  2  0  0  0
 26 27  1  0  0  0
 28100  1  0  0  0
 28101  1  0  0  0
 29102  1  0  0  0
 29103  1  0  0  0
 33 34  1  0  0  0
 33 66  1  0  0  0
 33 70  2  0  0  0
 34 36  1  0  0  0
 34 59  1  0  0  0
 34104  1  0  0  0
 35 44  2  0  0  0
 35 45  1  0  0  0
 35 68  1  0  0  0
 36 56  1  0  0  0
 36105  1  0  0  0
 37 39  1  0  0  0
 37 47  1  0  0  0
 37 66  1  0  0  0
 37106  1  0  0  0
 38 43  2  0  0  0
 38 46  1  0  0  0
 38 47  1  0  0  0
 39 64  1  0  0  0
 39 67  2  0  0  0
 40 52  1  0  0  0
 40 53  2  0  0  0
 40 58  1  0  0  0
 41107  1  0  0  0
 41108  1  0  0  0
 41109  1  0  0  0
 41 48  1  0  0  0
 42 43  1  0  0  0
 42 66  1  0  0  0
 42110  1  0  0  0
 42111  1  0  0  0
 43 44  1  0  0  0
 44112  1  0  0  0
 45 46  2  0  0  0
 45113  1  0  0  0
 46114  1  0  0  0
 47115  1  0  0  0
 47116  1  0  0  0
 48 56  1  0  0  0
 48 65  1  0  0  0
 48117  1  0  0  0
 49 50  1  0  0  0
 49 53  1  0  0  0
 49 64  1  0  0  0
 49118  1  0  0  0
 50 51  1  0  0  0
 50119  1  0  0  0
 50120  1  0  0  0
 51 52  1  0  0  0
 51121  1  0  0  0
 51122  1  0  0  0
 52123  1  0  0  0
 52124  1  0  0  0
 53 54  1  0  0  0
 54 55  2  0  0  0
 54125  1  0  0  0
 55 57  1  0  0  0
 55126  1  0  0  0
 56 69  2  0  0  0
 57 58  2  0  0  0
 57127  1  0  0  0
 58128  1  0  0  0
 59 60  1  0  0  0
 59 61  1  0  0  0
 59 62  1  0  0  0
 60129  1  0  0  0
 60130  1  0  0  0
 60131  1  0  0  0
 61132  1  0  0  0
 61133  1  0  0  0
 61134  1  0  0  0
 62135  1  0  0  0
 62136  1  0  0  0
 62137  1  0  0  0
 63 65  1  0  0  0
 63138  1  0  0  0
 63139  1  0  0  0
 63140  1  0  0  0
 64141  1  0  0  0
 65142  1  0  0  0
 68 77  1  0  0  0
 71 72  1  0  0  0
 71 73  2  0  0  0
 71143  1  0  0  0
 72 79  1  0  0  0
 72 80  2  0  0  0
 73 81  1  0  0  0
 73 82  1  0  0  0
 74 76  1  0  0  0
 74 77  1  0  0  0
 74144  1  0  0  0
 74145  1  0  0  0
 75 76  1  0  0  0
 75 77  1  0  0  0
 75146  1  0  0  0
 75147  1  0  0  0
 76 83  1  0  0  0
 76148  1  0  0  0
 77149  1  0  0  0
 78 81  1  0  0  0
 78150  1  0  0  0
 78151  1  0  0  0
 78152  1  0  0  0
 79 83  1  0  0  0
 79153  1  0  0  0
 79154  1  0  0  0
 80 81  1  0  0  0
 82155  1  0  0  0
 83156  1  0  0  0
 83157  1  0  0  0
M  CHG  1  83   1
M  ISO  4   1 100  68 101  77 101  82 100
M  END
> <chiral flag>
0

> <version>
0

> <s_m_source_file>
/data/baiqing/PycharmProjects/Reinvent-master-3.2/result/LINK_invent/BTK/process_docking_weight1_custom_sum_contain_oxygen_bond_distance_aromatic_linkinvent_7_9_3/rearranged_h_0186.sdf

> <i_m_source_file_index>
4

> <r_mmod_Potential_Energy-OPLS-2005>
-239.923477172852

> <r_mmod_Stretch_Energy-OPLS-2005>
70.4589004516602

> <r_mmod_Bend_Energy-OPLS-2005>
167.807174682617

> <r_mmod_Torsional_Energy-OPLS-2005>
270.059783935547

> <r_mmod_Improper_Torsional_Energy-OPLS-2005>
3.46490454673767

> <r_mmod_Van_der_Waal_Energy-OPLS-2005>
114.410224914551

> <r_mmod_Electrostatic_Energy-OPLS-2005>
-433.272186279297

> <r_mmod_Solvation_Energy-OPLS-2005>
-478.248077392578

> <b_mmod_Minimization_Converged-OPLS-2005>
0

> <r_mmod_RMS_Derivative-OPLS-2005>
0.436834990978241

$$$$
4
                    3D
 Structure written by MMmdl.
165173  0  0  1  0            999 V2000
  -30.6534  -14.5284   20.5543 C   0  0  0  0  0  0
  -30.4313  -12.3368   19.4252 C   0  0  0  0  0  0
  -29.4969  -12.5070   18.2085 C   0  0  0  0  0  0
  -28.0189  -12.3568   18.6229 C   0  0  0  0  0  0
  -27.6581  -13.2042   19.8719 C   0  0  2  0  0  0
  -28.7003  -12.9973   20.9927 C   0  0  0  0  0  0
  -25.2581  -13.8151   20.5674 C   0  0  0  0  0  0
  -24.1833  -13.0436   20.9179 C   0  0  0  0  0  0
  -24.6384  -11.6903   20.8738 C   0  0  0  0  0  0
  -23.9055  -10.4292   21.0411 C   0  0  0  0  0  0
  -24.3609   -9.4209   21.9190 C   0  0  0  0  0  0
  -23.6287   -8.2243   22.0756 C   0  0  0  0  0  0
  -22.4269   -8.0278   21.3546 C   0  0  0  0  0  0
  -21.9906   -9.0253   20.4649 C   0  0  0  0  0  0
  -22.7230  -10.2135   20.3060 C   0  0  0  0  0  0
  -21.6850   -6.0733   22.5276 C   0  0  0  0  0  0
  -21.4012   -6.5639   23.8211 C   0  0  0  0  0  0
  -21.3661   -5.6791   24.9173 C   0  0  0  0  0  0
  -21.6044   -4.3055   24.7224 C   0  0  0  0  0  0
  -21.8819   -3.8146   23.4346 C   0  0  0  0  0  0
  -21.9192   -4.6961   22.3400 C   0  0  0  0  0  0
  -22.7862  -13.5243   21.1850 C   0  0  0  0  0  0
  -22.1661   -4.2149   21.0977 F   0  0  0  0  0  0
  -21.5633   -3.4542   25.7738 F   0  0  0  0  0  0
  -30.0233  -13.3258   20.4361 N   0  0  0  0  0  0
  -26.3005  -12.9312   20.3347 N   0  0  0  0  0  0
  -25.9308  -11.6479   20.5765 N   0  0  0  0  0  0
  -22.0503  -12.8227   22.0401 N   0  0  0  0  0  0
  -25.4317  -15.1868   20.4071 N   0  0  0  0  0  0
  -31.7952  -14.7283   20.1303 O   0  0  0  0  0  0
  -21.6634   -6.8875   21.4237 O   0  0  0  0  0  0
  -22.3553  -14.5556   20.6708 O   0  0  0  0  0  0
  -24.6178  -31.8648   23.2057 C   0  0  0  0  0  0
  -25.9057  -32.4801   23.8368 C   0  0  1  0  0  0
  -27.2379  -27.3965   20.0966 C   0  0  0  0  0  0
  -25.5906  -33.8602   24.2300 N   0  0  0  0  0  0
  -23.4077  -30.4862   21.5473 C   0  0  2  0  0  0
  -24.8525  -28.9437   20.1158 C   0  0  0  0  0  0
  -22.7426  -29.4640   22.4977 C   0  0  0  0  0  0
  -18.0274  -28.1372   22.8495 C   0  0  0  0  0  0
  -24.1490  -36.7303   23.2638 C   0  0  0  0  0  0
  -25.9393  -30.8183   21.3639 C   0  0  0  0  0  0
  -26.0138  -29.4490   20.7105 C   0  0  0  0  0  0
  -27.2047  -28.6831   20.6947 C   0  0  0  0  0  0
  -26.0493  -26.9067   19.5076 C   0  0  0  0  0  0
  -24.8670  -27.6733   19.5130 C   0  0  0  0  0  0
  -23.6167  -29.8151   20.1636 C   0  0  0  0  0  0
  -25.4115  -36.3097   24.0330 C   0  0  1  0  0  0
  -20.5869  -28.3665   23.1316 C   0  0  2  0  0  0
  -20.6762  -26.9398   22.5424 C   0  0  0  0  0  0
  -19.5739  -26.6383   21.5217 C   0  0  0  0  0  0
  -18.1914  -26.7918   22.1625 C   0  0  0  0  0  0
  -19.1526  -28.8834   23.2899 C   0  0  0  0  0  0
  -18.9453  -30.1437   23.8913 C   0  0  0  0  0  0
  -17.6456  -30.6578   24.0567 C   0  0  0  0  0  0
  -25.9048  -34.9464   23.5114 C   0  0  0  0  0  0
  -16.5345  -29.9080   23.6332 C   0  0  0  0  0  0
  -16.7265  -28.6497   23.0352 C   0  0  0  0  0  0
  -26.4475  -31.6594   25.0715 C   0  0  0  0  0  0
  -25.3732  -31.3703   26.1456 C   0  0  0  0  0  0
  -27.0315  -30.3037   24.6112 C   0  0  0  0  0  0
  -27.6046  -32.4325   25.7481 C   0  0  0  0  0  0
  -27.5579  -37.1802   24.8460 C   0  0  0  0  0  0
  -21.4150  -29.3027   22.3717 N   0  0  0  0  0  0
  -26.4294  -37.3787   23.9406 N   0  0  0  0  0  0
  -24.6733  -31.0726   22.0966 N   0  0  0  0  0  0
  -23.4182  -28.8186   23.3039 O   0  0  0  0  0  0
  -28.4327  -26.6922   20.1111 O   0  0  0  0  0  0
  -26.5614  -34.8916   22.4678 O   0  0  0  0  0  0
  -23.5362  -32.1417   23.7430 O   0  0  0  0  0  0
  -28.4813  -21.5859   20.7112 C   0  0  0  0  0  0
  -29.1021  -22.8609   20.5065 C   0  0  0  0  0  0
  -29.3153  -20.4376   20.5196 C   0  0  0  0  0  0
  -31.0804  -21.8009   20.0179 C   0  0  0  0  0  0
  -32.5412  -21.9203   19.6451 C   0  0  0  0  0  0
  -26.7381  -19.8367   22.9786 C   0  0  0  0  0  0
  -26.9840  -21.5657   21.0868 C   0  0  0  0  0  0
  -28.4478  -24.2474   20.7806 C   0  0  0  0  0  0
  -26.2988  -20.2738   21.5727 C   0  0  0  0  0  0
  -29.5510  -17.9084   20.1492 C   0  0  0  0  0  0
  -30.2076  -16.9639   21.2047 C   0  0  0  0  0  0
  -28.5531  -25.3202   19.6493 C   0  0  0  0  0  0
  -30.4072  -22.9301   20.1829 N   0  0  0  0  0  0
  -30.6001  -20.5754   20.1678 N   0  0  0  0  0  0
  -28.9003  -19.1054   20.7191 N   0  0  0  0  0  0
  -29.8807  -15.5332   21.0248 N   0  0  0  0  0  0
  -31.4733  -12.4575   19.1236 H   0  0  0  0  0  0
  -30.3532  -11.3275   19.8329 H   0  0  0  0  0  0
  -29.7442  -11.7769   17.4371 H   0  0  0  0  0  0
  -29.6524  -13.4895   17.7597 H   0  0  0  0  0  0
  -27.8395  -11.3010   18.8291 H   0  0  0  0  0  0
  -27.3648  -12.6172   17.7900 H   0  0  0  0  0  0
  -27.6964  -14.2494   19.5646 H   0  0  0  0  0  0
  -28.6907  -11.9611   21.3341 H   0  0  0  0  0  0
  -28.4564  -13.5937   21.8729 H   0  0  0  0  0  0
  -25.2757   -9.5683   22.4765 H   0  0  0  0  0  0
  -23.9996   -7.4632   22.7475 H   0  0  0  0  0  0
  -21.0840   -8.8771   19.8953 H   0  0  0  0  0  0
  -22.3691  -10.9675   19.6169 H   0  0  0  0  0  0
  -21.2001   -7.6148   23.9711 H   0  0  0  0  0  0
  -21.1486   -6.0524   25.9074 H   0  0  0  0  0  0
  -22.0598   -2.7610   23.2843 H   0  0  0  0  0  0
  -22.4115  -11.9871   22.4760 H   0  0  0  0  0  0
  -21.1133  -13.1262   22.2633 H   0  0  0  0  0  0
  -24.6649  -15.8423   20.5114 H   0  0  0  0  0  0
  -26.2813  -15.6225   20.0720 H   0  0  0  0  0  0
  -26.7120  -32.5503   23.1124 H   0  0  0  0  0  0
  -25.0047  -33.9756   25.0436 H   0  0  0  0  0  0
  -22.6988  -31.3043   21.4038 H   0  0  0  0  0  0
  -23.3746  -35.9642   23.3309 H   0  0  0  0  0  0
  -24.3579  -36.8927   22.2051 H   0  0  0  0  0  0
  -23.7252  -37.6510   23.6658 H   0  0  0  0  0  0
  -26.0580  -31.5841   20.5958 H   0  0  0  0  0  0
  -26.8245  -30.8697   21.9862 H   0  0  0  0  0  0
  -28.1046  -29.0743   21.1493 H   0  0  0  0  0  0
  -26.0051  -25.9356   19.0398 H   0  0  0  0  0  0
  -23.9712  -27.2763   19.0551 H   0  0  0  0  0  0
  -23.7244  -30.5874   19.4006 H   0  0  0  0  0  0
  -22.7404  -29.2339   19.8708 H   0  0  0  0  0  0
  -25.1290  -36.1957   25.0824 H   0  0  0  0  0  0
  -20.9957  -28.3226   24.1437 H   0  0  0  0  0  0
  -20.5677  -26.2263   23.3609 H   0  0  0  0  0  0
  -21.6627  -26.7439   22.1203 H   0  0  0  0  0  0
  -19.6907  -25.6301   21.1227 H   0  0  0  0  0  0
  -19.6678  -27.3209   20.6758 H   0  0  0  0  0  0
  -17.4188  -26.6683   21.4015 H   0  0  0  0  0  0
  -18.0296  -26.0054   22.9015 H   0  0  0  0  0  0
  -19.7931  -30.7246   24.2283 H   0  0  0  0  0  0
  -17.5011  -31.6260   24.5159 H   0  0  0  0  0  0
  -15.5343  -30.2983   23.7644 H   0  0  0  0  0  0
  -15.8665  -28.0819   22.7058 H   0  0  0  0  0  0
  -24.5901  -30.7068   25.7772 H   0  0  0  0  0  0
  -24.8923  -32.2855   26.4920 H   0  0  0  0  0  0
  -25.8065  -30.8846   27.0211 H   0  0  0  0  0  0
  -26.2867  -29.6793   24.1165 H   0  0  0  0  0  0
  -27.4080  -29.7286   25.4583 H   0  0  0  0  0  0
  -27.8703  -30.4350   23.9271 H   0  0  0  0  0  0
  -27.2664  -33.3621   26.2073 H   0  0  0  0  0  0
  -28.3840  -32.6905   25.0296 H   0  0  0  0  0  0
  -28.0732  -31.8448   26.5388 H   0  0  0  0  0  0
  -28.2586  -38.0105   24.7516 H   0  0  0  0  0  0
  -28.1085  -36.2637   24.6279 H   0  0  0  0  0  0
  -27.2295  -37.1449   25.8862 H   0  0  0  0  0  0
  -20.9309  -29.8759   21.6950 H   0  0  0  0  0  0
  -26.0180  -38.2866   24.1410 H   0  0  0  0  0  0
  -32.7952  -22.9394   19.3529 H   0  0  0  0  0  0
  -32.7794  -21.2632   18.8094 H   0  0  0  0  0  0
  -33.1712  -21.6440   20.4903 H   0  0  0  0  0  0
  -26.2415  -18.9103   23.2683 H   0  0  0  0  0  0
  -26.4719  -20.5926   23.7180 H   0  0  0  0  0  0
  -27.8128  -19.6763   23.0553 H   0  0  0  0  0  0
  -26.4388  -21.9342   20.2168 H   0  0  0  0  0  0
  -26.8221  -22.2983   21.8774 H   0  0  0  0  0  0
  -28.9359  -24.6414   21.6716 H   0  0  0  0  0  0
  -27.3983  -24.1628   21.0459 H   0  0  0  0  0  0
  -25.2269  -20.4723   21.6256 H   0  0  0  0  0  0
  -26.3781  -19.4693   20.8429 H   0  0  0  0  0  0
  -28.7731  -17.3634   19.6132 H   0  0  0  0  0  0
  -30.2833  -18.1823   19.3881 H   0  0  0  0  0  0
  -29.8638  -17.2316   22.2046 H   0  0  0  0  0  0
  -31.2887  -17.1140   21.2181 H   0  0  0  0  0  0
  -27.9081  -25.0771   18.8068 H   0  0  0  0  0  0
  -29.5603  -25.2740   19.2351 H   0  0  0  0  0  0
  -27.9407  -19.0006   21.0274 H   0  0  0  0  0  0
  -28.9521  -15.2585   21.3079 H   0  0  0  0  0  0
  1 25  1  0  0  0
  1 30  2  0  0  0
  1 86  1  0  0  0
  2  3  1  0  0  0
  2 25  1  0  0  0
  2 87  1  0  0  0
  2 88  1  0  0  0
  3  4  1  0  0  0
  3 89  1  0  0  0
  3 90  1  0  0  0
  4  5  1  0  0  0
  4 91  1  0  0  0
  4 92  1  0  0  0
  5  6  1  0  0  0
  5 26  1  0  0  0
  5 93  1  0  0  0
  6 25  1  0  0  0
  6 94  1  0  0  0
  6 95  1  0  0  0
  7  8  2  0  0  0
  7 26  1  0  0  0
  7 29  1  0  0  0
  8  9  1  0  0  0
  8 22  1  0  0  0
  9 10  1  0  0  0
  9 27  2  0  0  0
 10 11  2  0  0  0
 10 15  1  0  0  0
 11 12  1  0  0  0
 11 96  1  0  0  0
 12 13  2  0  0  0
 12 97  1  0  0  0
 13 14  1  0  0  0
 13 31  1  0  0  0
 14 15  2  0  0  0
 14 98  1  0  0  0
 15 99  1  0  0  0
 16 17  2  0  0  0
 16 21  1  0  0  0
 16 31  1  0  0  0
 17 18  1  0  0  0
 17100  1  0  0  0
 18 19  2  0  0  0
 18101  1  0  0  0
 19 20  1  0  0  0
 19 24  1  0  0  0
 20 21  2  0  0  0
 20102  1  0  0  0
 21 23  1  0  0  0
 22 28  1  0  0  0
 22 32  2  0  0  0
 26 27  1  0  0  0
 28103  1  0  0  0
 28104  1  0  0  0
 29105  1  0  0  0
 29106  1  0  0  0
 33 34  1  0  0  0
 33 66  1  0  0  0
 33 70  2  0  0  0
 34 36  1  0  0  0
 34 59  1  0  0  0
 34107  1  0  0  0
 35 44  2  0  0  0
 35 45  1  0  0  0
 35 68  1  0  0  0
 36 56  1  0  0  0
 36108  1  0  0  0
 37 39  1  0  0  0
 37 47  1  0  0  0
 37 66  1  0  0  0
 37109  1  0  0  0
 38 43  2  0  0  0
 38 46  1  0  0  0
 38 47  1  0  0  0
 39 64  1  0  0  0
 39 67  2  0  0  0
 40 52  1  0  0  0
 40 53  2  0  0  0
 40 58  1  0  0  0
 41110  1  0  0  0
 41111  1  0  0  0
 41112  1  0  0  0
 41 48  1  0  0  0
 42 43  1  0  0  0
 42 66  1  0  0  0
 42113  1  0  0  0
 42114  1  0  0  0
 43 44  1  0  0  0
 44115  1  0  0  0
 45 46  2  0  0  0
 45116  1  0  0  0
 46117  1  0  0  0
 47118  1  0  0  0
 47119  1  0  0  0
 48 56  1  0  0  0
 48 65  1  0  0  0
 48120  1  0  0  0
 49 50  1  0  0  0
 49 53  1  0  0  0
 49 64  1  0  0  0
 49121  1  0  0  0
 50 51  1  0  0  0
 50122  1  0  0  0
 50123  1  0  0  0
 51 52  1  0  0  0
 51124  1  0  0  0
 51125  1  0  0  0
 52126  1  0  0  0
 52127  1  0  0  0
 53 54  1  0  0  0
 54 55  2  0  0  0
 54128  1  0  0  0
 55 57  1  0  0  0
 55129  1  0  0  0
 56 69  2  0  0  0
 57 58  2  0  0  0
 57130  1  0  0  0
 58131  1  0  0  0
 59 60  1  0  0  0
 59 61  1  0  0  0
 59 62  1  0  0  0
 60132  1  0  0  0
 60133  1  0  0  0
 60134  1  0  0  0
 61135  1  0  0  0
 61136  1  0  0  0
 61137  1  0  0  0
 62138  1  0  0  0
 62139  1  0  0  0
 62140  1  0  0  0
 63 65  1  0  0  0
 63141  1  0  0  0
 63142  1  0  0  0
 63143  1  0  0  0
 64144  1  0  0  0
 65145  1  0  0  0
 68 82  1  0  0  0
 71 72  2  0  0  0
 71 73  1  0  0  0
 71 77  1  0  0  0
 72 78  1  0  0  0
 72 83  1  0  0  0
 73 84  2  0  0  0
 73 85  1  0  0  0
 74 75  1  0  0  0
 74 83  2  0  0  0
 74 84  1  0  0  0
 75146  1  0  0  0
 75147  1  0  0  0
 75148  1  0  0  0
 76 79  1  0  0  0
 76149  1  0  0  0
 76150  1  0  0  0
 76151  1  0  0  0
 77 79  1  0  0  0
 77152  1  0  0  0
 77153  1  0  0  0
 78 82  1  0  0  0
 78154  1  0  0  0
 78155  1  0  0  0
 79156  1  0  0  0
 79157  1  0  0  0
 80 81  1  0  0  0
 80 85  1  0  0  0
 80158  1  0  0  0
 80159  1  0  0  0
 81 86  1  0  0  0
 81160  1  0  0  0
 81161  1  0  0  0
 82162  1  0  0  0
 82163  1  0  0  0
 85164  1  0  0  0
 86165  1  0  0  0
M  ISO  4   1 100  68 101  82 101  86 100
M  END
> <chiral flag>
0

> <version>
0

> <s_m_source_file>
/data/baiqing/PycharmProjects/Reinvent-master-3.2/result/LINK_invent/BTK/process_docking_weight1_custom_sum_contain_oxygen_bond_distance_aromatic_linkinvent_7_9_3/rearranged_h_0186.sdf

> <i_m_source_file_index>
5

> <r_mmod_Potential_Energy-OPLS-2005>
-567.536376953125

> <r_mmod_Stretch_Energy-OPLS-2005>
48.9211730957031

> <r_mmod_Bend_Energy-OPLS-2005>
152.175994873047

> <r_mmod_Torsional_Energy-OPLS-2005>
188.226776123047

> <r_mmod_Improper_Torsional_Energy-OPLS-2005>
4.94921636581421

> <r_mmod_Van_der_Waal_Energy-OPLS-2005>
165.000747680664

> <r_mmod_Electrostatic_Energy-OPLS-2005>
-911.568237304688

> <r_mmod_Solvation_Energy-OPLS-2005>
-234.727020263672

> <b_mmod_Minimization_Converged-OPLS-2005>
0

> <r_mmod_RMS_Derivative-OPLS-2005>
0.964600324630737

$$$$
5
                    3D
 Structure written by MMmdl.
159168  0  0  1  0            999 V2000
  -30.6625  -14.5402   20.4996 C   0  0  0  0  0  0
  -30.4258  -12.3233   19.4460 C   0  0  0  0  0  0
  -29.4996  -12.4988   18.2238 C   0  0  0  0  0  0
  -28.0212  -12.3599   18.6332 C   0  0  0  0  0  0
  -27.6609  -13.2114   19.8803 C   0  0  2  0  0  0
  -28.7053  -13.0297   21.0082 C   0  0  0  0  0  0
  -25.2602  -13.8177   20.5747 C   0  0  0  0  0  0
  -24.1865  -13.0440   20.9227 C   0  0  0  0  0  0
  -24.6410  -11.6911   20.8752 C   0  0  0  0  0  0
  -23.9062  -10.4303   21.0414 C   0  0  0  0  0  0
  -24.3596   -9.4224   21.9195 C   0  0  0  0  0  0
  -23.6278   -8.2259   22.0754 C   0  0  0  0  0  0
  -22.4270   -8.0284   21.3544 C   0  0  0  0  0  0
  -21.9903   -9.0265   20.4648 C   0  0  0  0  0  0
  -22.7224  -10.2154   20.3075 C   0  0  0  0  0  0
  -21.6865   -6.0740   22.5283 C   0  0  0  0  0  0
  -21.4010   -6.5640   23.8216 C   0  0  0  0  0  0
  -21.3659   -5.6795   24.9178 C   0  0  0  0  0  0
  -21.6047   -4.3059   24.7239 C   0  0  0  0  0  0
  -21.8819   -3.8153   23.4361 C   0  0  0  0  0  0
  -21.9194   -4.6964   22.3412 C   0  0  0  0  0  0
  -22.7885  -13.5231   21.1884 C   0  0  0  0  0  0
  -22.1674   -4.2159   21.0989 F   0  0  0  0  0  0
  -21.5623   -3.4539   25.7748 F   0  0  0  0  0  0
  -30.0327  -13.3316   20.4501 N   0  0  0  0  0  0
  -26.3034  -12.9336   20.3435 N   0  0  0  0  0  0
  -25.9334  -11.6490   20.5794 N   0  0  0  0  0  0
  -22.0527  -12.8206   22.0420 N   0  0  0  0  0  0
  -25.4329  -15.1897   20.4172 N   0  0  0  0  0  0
  -31.8103  -14.6990   20.0764 O   0  0  0  0  0  0
  -21.6650   -6.8875   21.4238 O   0  0  0  0  0  0
  -22.3575  -14.5535   20.6725 O   0  0  0  0  0  0
  -24.6191  -31.8671   23.2092 C   0  0  0  0  0  0
  -25.9061  -32.4833   23.8403 C   0  0  1  0  0  0
  -27.2208  -27.3813   20.1175 C   0  0  0  0  0  0
  -25.5906  -33.8632   24.2338 N   0  0  0  0  0  0
  -23.4092  -30.4904   21.5527 C   0  0  2  0  0  0
  -24.8541  -28.9545   20.1140 C   0  0  0  0  0  0
  -22.7448  -29.4644   22.4997 C   0  0  0  0  0  0
  -18.0288  -28.1379   22.8496 C   0  0  0  0  0  0
  -24.1494  -36.7296   23.2629 C   0  0  0  0  0  0
  -25.9441  -30.8173   21.3718 C   0  0  0  0  0  0
  -26.0186  -29.4485   20.7156 C   0  0  0  0  0  0
  -27.2069  -28.6733   20.7073 C   0  0  0  0  0  0
  -26.0395  -26.9255   19.4897 C   0  0  0  0  0  0
  -24.8626  -27.6965   19.4928 C   0  0  0  0  0  0
  -23.6168  -29.8238   20.1674 C   0  0  0  0  0  0
  -25.4120  -36.3127   24.0344 C   0  0  1  0  0  0
  -20.5883  -28.3671   23.1307 C   0  0  2  0  0  0
  -20.6776  -26.9398   22.5414 C   0  0  0  0  0  0
  -19.5747  -26.6381   21.5219 C   0  0  0  0  0  0
  -18.1927  -26.7926   22.1627 C   0  0  0  0  0  0
  -19.1539  -28.8847   23.2897 C   0  0  0  0  0  0
  -18.9454  -30.1463   23.8895 C   0  0  0  0  0  0
  -17.6452  -30.6575   24.0570 C   0  0  0  0  0  0
  -25.9055  -34.9487   23.5143 C   0  0  0  0  0  0
  -16.5347  -29.9074   23.6329 C   0  0  0  0  0  0
  -16.7280  -28.6492   23.0351 C   0  0  0  0  0  0
  -26.4463  -31.6622   25.0744 C   0  0  0  0  0  0
  -25.3691  -31.3732   26.1463 C   0  0  0  0  0  0
  -27.0294  -30.3062   24.6144 C   0  0  0  0  0  0
  -27.6061  -32.4330   25.7480 C   0  0  0  0  0  0
  -27.5621  -37.1783   24.8453 C   0  0  0  0  0  0
  -21.4173  -29.3034   22.3722 N   0  0  0  0  0  0
  -26.4308  -37.3820   23.9433 N   0  0  0  0  0  0
  -24.6764  -31.0728   22.1023 N   0  0  0  0  0  0
  -23.4200  -28.8188   23.3053 O   0  0  0  0  0  0
  -28.3543  -26.5790   20.1489 O   0  0  0  0  0  0
  -26.5625  -34.8932   22.4714 O   0  0  0  0  0  0
  -23.5368  -32.1440   23.7461 O   0  0  0  0  0  0
  -28.9918  -19.2240   20.1282 C   0  0  0  0  0  0
  -29.2729  -20.5527   20.5313 C   0  0  0  0  0  0
  -30.4245  -20.8132   21.2433 C   0  0  0  0  0  0
  -29.9209  -18.2026   20.4743 C   0  0  0  0  0  0
  -31.3029  -19.7565   21.5635 C   0  0  0  0  0  0
  -28.5262  -21.8490   20.2479 C   0  0  0  0  0  0
  -30.5445  -22.3013   21.5218 C   0  0  0  0  0  0
  -32.6266  -19.9904   22.2629 C   0  0  0  0  0  0
  -29.8100  -16.7889   19.8684 C   0  0  0  0  0  0
  -29.3892  -24.2698   20.4307 C   0  0  0  0  0  0
  -28.1454  -25.1987   20.5819 C   0  0  0  0  0  0
  -31.0426  -18.4751   21.1884 N   0  0  0  0  0  0
  -29.8638  -15.5994   20.7507 N   0  0  0  0  0  0
  -29.2517  -22.8967   21.0462 N   0  3  1  0  0  0
  -31.4706  -12.4173   19.1401 H   0  0  0  0  0  0
  -30.3293  -11.3173   19.8586 H   0  0  0  0  0  0
  -29.7365  -11.7575   17.4599 H   0  0  0  0  0  0
  -29.6712  -13.4739   17.7653 H   0  0  0  0  0  0
  -27.8283  -11.3060   18.8326 H   0  0  0  0  0  0
  -27.3781  -12.6319   17.7954 H   0  0  0  0  0  0
  -27.6892  -14.2547   19.5629 H   0  0  0  0  0  0
  -28.6932  -12.0058   21.3879 H   0  0  0  0  0  0
  -28.4730  -13.6659   21.8630 H   0  0  0  0  0  0
  -25.2745   -9.5687   22.4766 H   0  0  0  0  0  0
  -24.0005   -7.4629   22.7436 H   0  0  0  0  0  0
  -21.0871   -8.8764   19.8921 H   0  0  0  0  0  0
  -22.3692  -10.9681   19.6181 H   0  0  0  0  0  0
  -21.1991   -7.6146   23.9716 H   0  0  0  0  0  0
  -21.1479   -6.0540   25.9079 H   0  0  0  0  0  0
  -22.0589   -2.7613   23.2876 H   0  0  0  0  0  0
  -22.4140  -11.9856   22.4787 H   0  0  0  0  0  0
  -21.1122  -13.1225   22.2572 H   0  0  0  0  0  0
  -24.6668  -15.8446   20.5273 H   0  0  0  0  0  0
  -26.2794  -15.6297   20.0781 H   0  0  0  0  0  0
  -26.7137  -32.5523   23.1168 H   0  0  0  0  0  0
  -25.0057  -33.9800   25.0485 H   0  0  0  0  0  0
  -22.6990  -31.3080   21.4159 H   0  0  0  0  0  0
  -23.3816  -35.9563   23.3233 H   0  0  0  0  0  0
  -24.3594  -36.8967   22.2052 H   0  0  0  0  0  0
  -23.7159  -37.6444   23.6678 H   0  0  0  0  0  0
  -26.0659  -31.5829   20.6054 H   0  0  0  0  0  0
  -26.8285  -30.8672   21.9953 H   0  0  0  0  0  0
  -28.1040  -29.0469   21.1823 H   0  0  0  0  0  0
  -26.0066  -25.9724   18.9834 H   0  0  0  0  0  0
  -23.9714  -27.3136   19.0143 H   0  0  0  0  0  0
  -23.7197  -30.5984   19.4066 H   0  0  0  0  0  0
  -22.7402  -29.2427   19.8779 H   0  0  0  0  0  0
  -25.1297  -36.1987   25.0839 H   0  0  0  0  0  0
  -20.9986  -28.3226   24.1424 H   0  0  0  0  0  0
  -20.5679  -26.2278   23.3609 H   0  0  0  0  0  0
  -21.6638  -26.7423   22.1196 H   0  0  0  0  0  0
  -19.6892  -25.6293   21.1247 H   0  0  0  0  0  0
  -19.6684  -27.3201   20.6757 H   0  0  0  0  0  0
  -17.4203  -26.6704   21.4024 H   0  0  0  0  0  0
  -18.0304  -26.0063   22.9013 H   0  0  0  0  0  0
  -19.7931  -30.7307   24.2225 H   0  0  0  0  0  0
  -17.4992  -31.6248   24.5192 H   0  0  0  0  0  0
  -15.5343  -30.2972   23.7642 H   0  0  0  0  0  0
  -15.8683  -28.0813   22.7051 H   0  0  0  0  0  0
  -24.5850  -30.7130   25.7740 H   0  0  0  0  0  0
  -24.8899  -32.2896   26.4926 H   0  0  0  0  0  0
  -25.7975  -30.8835   27.0215 H   0  0  0  0  0  0
  -26.2850  -29.6830   24.1179 H   0  0  0  0  0  0
  -27.4038  -29.7301   25.4614 H   0  0  0  0  0  0
  -27.8703  -30.4399   23.9334 H   0  0  0  0  0  0
  -27.2732  -33.3638   26.2086 H   0  0  0  0  0  0
  -28.3834  -32.6872   25.0262 H   0  0  0  0  0  0
  -28.0778  -31.8431   26.5350 H   0  0  0  0  0  0
  -28.2574  -38.0152   24.7657 H   0  0  0  0  0  0
  -28.1198  -36.2698   24.6113 H   0  0  0  0  0  0
  -27.2353  -37.1222   25.8853 H   0  0  0  0  0  0
  -20.9348  -29.8741   21.6922 H   0  0  0  0  0  0
  -26.0206  -38.2884   24.1514 H   0  0  0  0  0  0
  -28.1218  -19.0052   19.5222 H   0  0  0  0  0  0
  -27.4818  -21.7753   20.5512 H   0  0  0  0  0  0
  -28.5696  -22.0576   19.1794 H   0  0  0  0  0  0
  -31.3978  -22.6986   20.9705 H   0  0  0  0  0  0
  -30.6935  -22.5054   22.5823 H   0  0  0  0  0  0
  -32.5651  -20.7866   23.0025 H   0  0  0  0  0  0
  -33.3846  -20.2605   21.5288 H   0  0  0  0  0  0
  -32.9652  -19.0872   22.7714 H   0  0  0  0  0  0
  -30.5714  -16.7191   19.0880 H   0  0  0  0  0  0
  -28.8626  -16.7264   19.3313 H   0  0  0  0  0  0
  -30.2211  -24.7741   20.9220 H   0  0  0  0  0  0
  -29.6664  -24.1827   19.3793 H   0  0  0  0  0  0
  -27.8595  -25.2320   21.6331 H   0  0  0  0  0  0
  -27.3199  -24.7209   20.0588 H   0  0  0  0  0  0
  -28.9951  -15.3850   21.2129 H   0  0  0  0  0  0
  -28.7059  -22.9976   21.8893 H   0  0  0  0  0  0
  1 25  1  0  0  0
  1 30  2  0  0  0
  1 83  1  0  0  0
  2  3  1  0  0  0
  2 25  1  0  0  0
  2 85  1  0  0  0
  2 86  1  0  0  0
  3  4  1  0  0  0
  3 87  1  0  0  0
  3 88  1  0  0  0
  4  5  1  0  0  0
  4 89  1  0  0  0
  4 90  1  0  0  0
  5  6  1  0  0  0
  5 26  1  0  0  0
  5 91  1  0  0  0
  6 25  1  0  0  0
  6 92  1  0  0  0
  6 93  1  0  0  0
  7  8  2  0  0  0
  7 26  1  0  0  0
  7 29  1  0  0  0
  8  9  1  0  0  0
  8 22  1  0  0  0
  9 10  1  0  0  0
  9 27  2  0  0  0
 10 11  2  0  0  0
 10 15  1  0  0  0
 11 12  1  0  0  0
 11 94  1  0  0  0
 12 13  2  0  0  0
 12 95  1  0  0  0
 13 14  1  0  0  0
 13 31  1  0  0  0
 14 15  2  0  0  0
 14 96  1  0  0  0
 15 97  1  0  0  0
 16 17  2  0  0  0
 16 21  1  0  0  0
 16 31  1  0  0  0
 17 18  1  0  0  0
 17 98  1  0  0  0
 18 19  2  0  0  0
 18 99  1  0  0  0
 19 20  1  0  0  0
 19 24  1  0  0  0
 20 21  2  0  0  0
 20100  1  0  0  0
 21 23  1  0  0  0
 22 28  1  0  0  0
 22 32  2  0  0  0
 26 27  1  0  0  0
 28101  1  0  0  0
 28102  1  0  0  0
 29103  1  0  0  0
 29104  1  0  0  0
 33 34  1  0  0  0
 33 66  1  0  0  0
 33 70  2  0  0  0
 34 36  1  0  0  0
 34 59  1  0  0  0
 34105  1  0  0  0
 35 44  2  0  0  0
 35 45  1  0  0  0
 35 68  1  0  0  0
 36 56  1  0  0  0
 36106  1  0  0  0
 37 39  1  0  0  0
 37 47  1  0  0  0
 37 66  1  0  0  0
 37107  1  0  0  0
 38 43  2  0  0  0
 38 46  1  0  0  0
 38 47  1  0  0  0
 39 64  1  0  0  0
 39 67  2  0  0  0
 40 52  1  0  0  0
 40 53  2  0  0  0
 40 58  1  0  0  0
 41108  1  0  0  0
 41109  1  0  0  0
 41110  1  0  0  0
 41 48  1  0  0  0
 42 43  1  0  0  0
 42 66  1  0  0  0
 42111  1  0  0  0
 42112  1  0  0  0
 43 44  1  0  0  0
 44113  1  0  0  0
 45 46  2  0  0  0
 45114  1  0  0  0
 46115  1  0  0  0
 47116  1  0  0  0
 47117  1  0  0  0
 48 56  1  0  0  0
 48 65  1  0  0  0
 48118  1  0  0  0
 49 50  1  0  0  0
 49 53  1  0  0  0
 49 64  1  0  0  0
 49119  1  0  0  0
 50 51  1  0  0  0
 50120  1  0  0  0
 50121  1  0  0  0
 51 52  1  0  0  0
 51122  1  0  0  0
 51123  1  0  0  0
 52124  1  0  0  0
 52125  1  0  0  0
 53 54  1  0  0  0
 54 55  2  0  0  0
 54126  1  0  0  0
 55 57  1  0  0  0
 55127  1  0  0  0
 56 69  2  0  0  0
 57 58  2  0  0  0
 57128  1  0  0  0
 58129  1  0  0  0
 59 60  1  0  0  0
 59 61  1  0  0  0
 59 62  1  0  0  0
 60130  1  0  0  0
 60131  1  0  0  0
 60132  1  0  0  0
 61133  1  0  0  0
 61134  1  0  0  0
 61135  1  0  0  0
 62136  1  0  0  0
 62137  1  0  0  0
 62138  1  0  0  0
 63 65  1  0  0  0
 63139  1  0  0  0
 63140  1  0  0  0
 63141  1  0  0  0
 64142  1  0  0  0
 65143  1  0  0  0
 68 81  1  0  0  0
 71 72  2  0  0  0
 71 74  1  0  0  0
 71144  1  0  0  0
 72 73  1  0  0  0
 72 76  1  0  0  0
 73 75  2  0  0  0
 73 77  1  0  0  0
 74 79  1  0  0  0
 74 82  2  0  0  0
 75 78  1  0  0  0
 75 82  1  0  0  0
 76 84  1  0  0  0
 76145  1  0  0  0
 76146  1  0  0  0
 77 84  1  0  0  0
 77147  1  0  0  0
 77148  1  0  0  0
 78149  1  0  0  0
 78150  1  0  0  0
 78151  1  0  0  0
 79 83  1  0  0  0
 79152  1  0  0  0
 79153  1  0  0  0
 80 81  1  0  0  0
 80154  1  0  0  0
 80155  1  0  0  0
 80 84  1  0  0  0
 81156  1  0  0  0
 81157  1  0  0  0
 83158  1  0  0  0
 84159  1  0  0  0
M  CHG  1  84   1
M  ISO  4   1 100  68 101  81 101  83 100
M  END
> <chiral flag>
0

> <version>
0

> <s_m_source_file>
/data/baiqing/PycharmProjects/Reinvent-master-3.2/result/LINK_invent/BTK/process_docking_weight1_custom_sum_contain_oxygen_bond_distance_aromatic_linkinvent_7_9_3/rearranged_h_0186.sdf

> <i_m_source_file_index>
6

> <r_mmod_Potential_Energy-OPLS-2005>
-367.099700927734

> <r_mmod_Stretch_Energy-OPLS-2005>
50.2163848876953

> <r_mmod_Bend_Energy-OPLS-2005>
147.347061157227

> <r_mmod_Torsional_Energy-OPLS-2005>
255.374099731445

> <r_mmod_Improper_Torsional_Energy-OPLS-2005>
11.1798686981201

> <r_mmod_Van_der_Waal_Energy-OPLS-2005>
145.352966308594

> <r_mmod_Electrostatic_Energy-OPLS-2005>
-523.24169921875

> <r_mmod_Solvation_Energy-OPLS-2005>
-478.33447265625

> <b_mmod_Minimization_Converged-OPLS-2005>
0

> <r_mmod_RMS_Derivative-OPLS-2005>
2.90400147438049

$$$$
6
                    3D
 Structure written by MMmdl.
151160  0  0  1  0            999 V2000
  -30.4749  -15.3724   20.3769 C   0  0  0  0  0  0
  -30.4125  -12.9069   19.5045 C   0  0  0  0  0  0
  -29.5199  -12.5874   18.2824 C   0  0  0  0  0  0
  -28.0830  -12.2883   18.7328 C   0  0  0  0  0  0
  -27.5960  -13.2893   19.8088 C   0  0  2  0  0  0
  -28.6315  -13.5574   20.9235 C   0  0  0  0  0  0
  -25.2348  -13.8279   20.5803 C   0  0  0  0  0  0
  -24.1713  -13.0445   20.9287 C   0  0  0  0  0  0
  -24.6388  -11.6947   20.8781 C   0  0  0  0  0  0
  -23.9093  -10.4296   21.0411 C   0  0  0  0  0  0
  -24.3638   -9.4208   21.9187 C   0  0  0  0  0  0
  -23.6307   -8.2245   22.0754 C   0  0  0  0  0  0
  -22.4288   -8.0284   21.3545 C   0  0  0  0  0  0
  -21.9930   -9.0259   20.4645 C   0  0  0  0  0  0
  -22.7265  -10.2136   20.3057 C   0  0  0  0  0  0
  -21.6857   -6.0740   22.5280 C   0  0  0  0  0  0
  -21.4016   -6.5643   23.8213 C   0  0  0  0  0  0
  -21.3659   -5.6795   24.9175 C   0  0  0  0  0  0
  -21.6043   -4.3057   24.7225 C   0  0  0  0  0  0
  -21.8819   -3.8150   23.4345 C   0  0  0  0  0  0
  -21.9194   -4.6967   22.3402 C   0  0  0  0  0  0
  -22.7728  -13.5185   21.1920 C   0  0  0  0  0  0
  -22.1662   -4.2152   21.0980 F   0  0  0  0  0  0
  -21.5627   -3.4540   25.7737 F   0  0  0  0  0  0
  -29.8265  -14.0976   20.2481 N   0  0  0  0  0  0
  -26.2768  -12.9571   20.3249 N   0  0  0  0  0  0
  -25.9327  -11.6663   20.5741 N   0  0  0  0  0  0
  -22.0390  -12.8159   22.0468 N   0  0  0  0  0  0
  -25.4001  -15.2017   20.4267 N   0  0  0  0  0  0
  -31.7025  -15.2042   20.2676 O   0  0  0  0  0  0
  -21.6647   -6.8885   21.4242 O   0  0  0  0  0  0
  -22.3406  -14.5483   20.6755 O   0  0  0  0  0  0
  -24.6689  -31.8169   23.1647 C   0  0  0  0  0  0
  -25.9342  -32.4553   23.8134 C   0  0  1  0  0  0
  -27.2126  -26.8603   20.1987 C   0  0  0  0  0  0
  -25.5985  -33.8370   24.2036 N   0  0  0  0  0  0
  -23.4860  -30.4263   21.5159 C   0  0  2  0  0  0
  -24.9377  -28.7967   20.1177 C   0  0  0  0  0  0
  -22.7692  -29.4411   22.4768 C   0  0  0  0  0  0
  -18.0326  -28.1414   22.8466 C   0  0  0  0  0  0
  -24.1492  -36.7186   23.2650 C   0  0  0  0  0  0
  -26.0588  -30.6028   21.4028 C   0  0  0  0  0  0
  -26.1248  -29.1843   20.7513 C   0  0  0  0  0  0
  -27.2573  -28.2408   20.7590 C   0  0  0  0  0  0
  -25.9940  -26.6381   19.5189 C   0  0  0  0  0  0
  -24.9015  -27.5460   19.4795 C   0  0  0  0  0  0
  -23.7290  -29.7350   20.1456 C   0  0  0  0  0  0
  -25.4136  -36.2944   24.0295 C   0  0  1  0  0  0
  -20.5954  -28.3761   23.1177 C   0  0  2  0  0  0
  -20.6800  -26.9437   22.5403 C   0  0  0  0  0  0
  -19.5773  -26.6377   21.5216 C   0  0  0  0  0  0
  -18.1955  -26.7946   22.1622 C   0  0  0  0  0  0
  -19.1590  -28.8909   23.2806 C   0  0  0  0  0  0
  -18.9500  -30.1497   23.8843 C   0  0  0  0  0  0
  -17.6492  -30.6601   24.0555 C   0  0  0  0  0  0
  -25.9107  -34.9331   23.4991 C   0  0  0  0  0  0
  -16.5381  -29.9088   23.6347 C   0  0  0  0  0  0
  -16.7308  -28.6509   23.0365 C   0  0  0  0  0  0
  -26.4571  -31.6525   25.0691 C   0  0  0  0  0  0
  -25.3680  -31.3794   26.1335 C   0  0  0  0  0  0
  -27.0479  -30.2885   24.6472 C   0  0  0  0  0  0
  -27.6048  -32.4352   25.7501 C   0  0  0  0  0  0
  -27.5564  -37.1752   24.8468 C   0  0  0  0  0  0
  -21.4356  -29.3040   22.3518 N   0  0  0  0  0  0
  -26.4274  -37.3689   23.9410 N   0  0  0  0  0  0
  -24.7601  -30.9774   22.0812 N   0  0  0  0  0  0
  -23.4212  -28.7991   23.3038 O   0  0  0  0  0  0
  -28.2158  -25.7344   20.2348 O   0  0  0  0  0  0
  -26.5726  -34.8880   22.4593 O   0  0  0  0  0  0
  -23.5746  -32.1168   23.6703 O   0  0  0  0  0  0
  -29.0944  -22.8505   20.6869 C   0  0  0  0  0  0
  -28.7062  -21.3455   20.1906 C   0  0  0  0  0  0
  -30.4146  -19.2028   19.2601 C   0  0  0  0  0  0
  -30.2737  -23.0733   21.2882 C   0  0  0  0  0  0
  -30.8632  -17.6897   19.3418 C   0  0  0  0  0  0
  -27.2857  -23.1114   19.3294 C   0  0  0  0  0  0
  -29.0347  -18.0241   20.6848 C   0  0  0  0  0  0
  -27.9976  -24.0668   20.3689 C   0  0  2  0  0  0
  -29.5025  -19.6969   20.3914 C   0  0  2  0  0  0
  -27.6319  -21.6182   19.5203 N   0  0  0  0  0  0
  -29.9587  -16.7850   20.1279 N   0  0  0  0  0  0
  -30.8074  -19.9387   18.3508 O   0  0  0  0  0  0
  -31.4229  -13.1046   19.1447 H   0  0  0  0  0  0
  -30.5063  -12.0378   20.1579 H   0  0  0  0  0  0
  -29.9235  -11.7425   17.7226 H   0  0  0  0  0  0
  -29.5202  -13.4387   17.6000 H   0  0  0  0  0  0
  -28.0721  -11.2782   19.1443 H   0  0  0  0  0  0
  -27.4055  -12.2788   17.8780 H   0  0  0  0  0  0
  -27.4787  -14.2297   19.2682 H   0  0  0  0  0  0
  -28.8457  -12.6596   21.5055 H   0  0  0  0  0  0
  -28.2472  -14.3010   21.6237 H   0  0  0  0  0  0
  -25.2777   -9.5684   22.4771 H   0  0  0  0  0  0
  -24.0012   -7.4636   22.7476 H   0  0  0  0  0  0
  -21.0861   -8.8783   19.8950 H   0  0  0  0  0  0
  -22.3721  -10.9679   19.6172 H   0  0  0  0  0  0
  -21.2010   -7.6151   23.9716 H   0  0  0  0  0  0
  -21.1480   -6.0525   25.9077 H   0  0  0  0  0  0
  -22.0596   -2.7612   23.2845 H   0  0  0  0  0  0
  -22.4028  -11.9831   22.4859 H   0  0  0  0  0  0
  -21.0998  -13.1157   22.2670 H   0  0  0  0  0  0
  -24.6355  -15.8563   20.5502 H   0  0  0  0  0  0
  -26.2563  -15.6451   20.1191 H   0  0  0  0  0  0
  -26.7414  -32.5069   23.0846 H   0  0  0  0  0  0
  -25.0076  -33.9437   25.0150 H   0  0  0  0  0  0
  -22.8028  -31.2597   21.3395 H   0  0  0  0  0  0
  -23.3768  -35.9502   23.3280 H   0  0  0  0  0  0
  -24.3565  -36.8869   22.2071 H   0  0  0  0  0  0
  -23.7236  -37.6358   23.6733 H   0  0  0  0  0  0
  -26.2446  -31.3385   20.6192 H   0  0  0  0  0  0
  -26.9168  -30.6638   22.0606 H   0  0  0  0  0  0
  -28.1597  -28.5417   21.2722 H   0  0  0  0  0  0
  -25.8569  -25.6869   19.0261 H   0  0  0  0  0  0
  -24.0008  -27.2434   18.9630 H   0  0  0  0  0  0
  -23.8928  -30.4999   19.3857 H   0  0  0  0  0  0
  -22.8362  -29.1948   19.8256 H   0  0  0  0  0  0
  -25.1340  -36.1728   25.0785 H   0  0  0  0  0  0
  -21.0041  -28.3371   24.1301 H   0  0  0  0  0  0
  -20.5676  -26.2381   23.3649 H   0  0  0  0  0  0
  -21.6663  -26.7405   22.1212 H   0  0  0  0  0  0
  -19.6932  -25.6274   21.1280 H   0  0  0  0  0  0
  -19.6713  -27.3159   20.6722 H   0  0  0  0  0  0
  -17.4225  -26.6690   21.4026 H   0  0  0  0  0  0
  -18.0348  -26.0102   22.9032 H   0  0  0  0  0  0
  -19.7975  -30.7329   24.2188 H   0  0  0  0  0  0
  -17.5043  -31.6277   24.5166 H   0  0  0  0  0  0
  -15.5379  -30.2972   23.7704 H   0  0  0  0  0  0
  -15.8708  -28.0809   22.7112 H   0  0  0  0  0  0
  -24.5882  -30.7124   25.7641 H   0  0  0  0  0  0
  -24.8848  -32.3001   26.4615 H   0  0  0  0  0  0
  -25.7896  -30.9056   27.0209 H   0  0  0  0  0  0
  -26.3161  -29.6542   24.1459 H   0  0  0  0  0  0
  -27.3968  -29.7276   25.5153 H   0  0  0  0  0  0
  -27.9118  -30.4053   23.9925 H   0  0  0  0  0  0
  -27.2606  -33.3706   26.1926 H   0  0  0  0  0  0
  -28.3938  -32.6828   25.0387 H   0  0  0  0  0  0
  -28.0629  -31.8581   26.5544 H   0  0  0  0  0  0
  -28.2564  -38.0063   24.7510 H   0  0  0  0  0  0
  -28.1076  -36.2588   24.6302 H   0  0  0  0  0  0
  -27.2279  -37.1400   25.8870 H   0  0  0  0  0  0
  -20.9624  -29.8714   21.6625 H   0  0  0  0  0  0
  -26.0113  -38.2743   24.1422 H   0  0  0  0  0  0
  -30.9785  -22.2746   21.4696 H   0  0  0  0  0  0
  -30.5518  -24.0674   21.6070 H   0  0  0  0  0  0
  -31.8638  -17.6829   19.7756 H   0  0  0  0  0  0
  -30.9562  -17.2987   18.3281 H   0  0  0  0  0  0
  -27.5744  -23.4141   18.3219 H   0  0  0  0  0  0
  -26.2061  -23.2549   19.3854 H   0  0  0  0  0  0
  -28.0370  -17.8772   20.2692 H   0  0  0  0  0  0
  -28.9188  -17.8840   21.7597 H   0  0  0  0  0  0
  -27.3682  -24.0292   21.2589 H   0  0  0  0  0  0
  -30.2079  -19.8935   21.1981 H   0  0  0  0  0  0
  1 25  1  0  0  0
  1 30  2  0  0  0
  1 81  1  0  0  0
  2  3  1  0  0  0
  2 25  1  0  0  0
  2 83  1  0  0  0
  2 84  1  0  0  0
  3  4  1  0  0  0
  3 85  1  0  0  0
  3 86  1  0  0  0
  4  5  1  0  0  0
  4 87  1  0  0  0
  4 88  1  0  0  0
  5  6  1  0  0  0
  5 26  1  0  0  0
  5 89  1  0  0  0
  6 25  1  0  0  0
  6 90  1  0  0  0
  6 91  1  0  0  0
  7  8  2  0  0  0
  7 26  1  0  0  0
  7 29  1  0  0  0
  8  9  1  0  0  0
  8 22  1  0  0  0
  9 10  1  0  0  0
  9 27  2  0  0  0
 10 11  2  0  0  0
 10 15  1  0  0  0
 11 12  1  0  0  0
 11 92  1  0  0  0
 12 13  2  0  0  0
 12 93  1  0  0  0
 13 14  1  0  0  0
 13 31  1  0  0  0
 14 15  2  0  0  0
 14 94  1  0  0  0
 15 95  1  0  0  0
 16 17  2  0  0  0
 16 21  1  0  0  0
 16 31  1  0  0  0
 17 18  1  0  0  0
 17 96  1  0  0  0
 18 19  2  0  0  0
 18 97  1  0  0  0
 19 20  1  0  0  0
 19 24  1  0  0  0
 20 21  2  0  0  0
 20 98  1  0  0  0
 21 23  1  0  0  0
 22 28  1  0  0  0
 22 32  2  0  0  0
 26 27  1  0  0  0
 28 99  1  0  0  0
 28100  1  0  0  0
 29101  1  0  0  0
 29102  1  0  0  0
 33 34  1  0  0  0
 33 66  1  0  0  0
 33 70  2  0  0  0
 34 36  1  0  0  0
 34 59  1  0  0  0
 34103  1  0  0  0
 35 44  2  0  0  0
 35 45  1  0  0  0
 35 68  1  0  0  0
 36 56  1  0  0  0
 36104  1  0  0  0
 37 39  1  0  0  0
 37 47  1  0  0  0
 37 66  1  0  0  0
 37105  1  0  0  0
 38 43  2  0  0  0
 38 46  1  0  0  0
 38 47  1  0  0  0
 39 64  1  0  0  0
 39 67  2  0  0  0
 40 52  1  0  0  0
 40 53  2  0  0  0
 40 58  1  0  0  0
 41106  1  0  0  0
 41107  1  0  0  0
 41108  1  0  0  0
 41 48  1  0  0  0
 42 43  1  0  0  0
 42 66  1  0  0  0
 42109  1  0  0  0
 42110  1  0  0  0
 43 44  1  0  0  0
 44111  1  0  0  0
 45 46  2  0  0  0
 45112  1  0  0  0
 46113  1  0  0  0
 47114  1  0  0  0
 47115  1  0  0  0
 48 56  1  0  0  0
 48 65  1  0  0  0
 48116  1  0  0  0
 49 50  1  0  0  0
 49 53  1  0  0  0
 49 64  1  0  0  0
 49117  1  0  0  0
 50 51  1  0  0  0
 50118  1  0  0  0
 50119  1  0  0  0
 51 52  1  0  0  0
 51120  1  0  0  0
 51121  1  0  0  0
 52122  1  0  0  0
 52123  1  0  0  0
 53 54  1  0  0  0
 54 55  2  0  0  0
 54124  1  0  0  0
 55 57  1  0  0  0
 55125  1  0  0  0
 56 69  2  0  0  0
 57 58  2  0  0  0
 57126  1  0  0  0
 58127  1  0  0  0
 59 60  1  0  0  0
 59 61  1  0  0  0
 59 62  1  0  0  0
 60128  1  0  0  0
 60129  1  0  0  0
 60130  1  0  0  0
 61131  1  0  0  0
 61132  1  0  0  0
 61133  1  0  0  0
 62134  1  0  0  0
 62135  1  0  0  0
 62136  1  0  0  0
 63 65  1  0  0  0
 63137  1  0  0  0
 63138  1  0  0  0
 63139  1  0  0  0
 64140  1  0  0  0
 65141  1  0  0  0
 68 78  1  0  0  0
 71 72  1  0  0  0
 71 74  2  0  0  0
 71 78  1  0  0  0
 72 80  2  0  0  0
 72 79  1  0  0  0
 73 75  1  0  0  0
 73 79  1  0  0  0
 73 82  2  0  0  0
 74142  1  0  0  0
 74143  1  0  0  0
 75 81  1  0  0  0
 75144  1  0  0  0
 75145  1  0  0  0
 76 78  1  0  0  0
 76 80  1  0  0  0
 76146  1  0  0  0
 76147  1  0  0  0
 77 79  1  0  0  0
 77 81  1  0  0  0
 77148  1  0  0  0
 77149  1  0  0  0
 78150  1  0  0  0
 79151  1  0  0  0
M  ISO  4   1 100  68 101  78 101  81 100
M  END
> <chiral flag>
0

> <version>
0

> <s_m_source_file>
/data/baiqing/PycharmProjects/Reinvent-master-3.2/result/LINK_invent/BTK/process_docking_weight1_custom_sum_contain_oxygen_bond_distance_aromatic_linkinvent_7_9_3/rearranged_h_0186.sdf

> <i_m_source_file_index>
7

> <r_mmod_Potential_Energy-OPLS-2005>
1698.66320800781

> <r_mmod_Stretch_Energy-OPLS-2005>
649.838562011719

> <r_mmod_Bend_Energy-OPLS-2005>
635.500610351562

> <r_mmod_Torsional_Energy-OPLS-2005>
268.459014892578

> <r_mmod_Improper_Torsional_Energy-OPLS-2005>
20.6051692962646

> <r_mmod_Van_der_Waal_Energy-OPLS-2005>
105.137847900391

> <r_mmod_Electrostatic_Energy-OPLS-2005>
-310.600952148438

> <r_mmod_Solvation_Energy-OPLS-2005>
-235.260406494141

> <b_mmod_Minimization_Converged-OPLS-2005>
0

> <r_mmod_RMS_Derivative-OPLS-2005>
0.234506830573082

$$$$
7
                    3D
 Structure written by MMmdl.
159167  0  0  1  0            999 V2000
  -30.5946  -14.7277   20.4610 C   0  0  0  0  0  0
  -30.4418  -12.4378   19.4838 C   0  0  0  0  0  0
  -29.5201  -12.5090   18.2449 C   0  0  0  0  0  0
  -28.0433  -12.3379   18.6533 C   0  0  0  0  0  0
  -27.6513  -13.2261   19.8647 C   0  0  2  0  0  0
  -28.6936  -13.1281   21.0023 C   0  0  0  0  0  0
  -25.2549  -13.8183   20.5708 C   0  0  0  0  0  0
  -24.1813  -13.0447   20.9199 C   0  0  0  0  0  0
  -24.6390  -11.6917   20.8752 C   0  0  0  0  0  0
  -23.9066  -10.4294   21.0420 C   0  0  0  0  0  0
  -24.3604   -9.4201   21.9196 C   0  0  0  0  0  0
  -23.6263   -8.2242   22.0761 C   0  0  0  0  0  0
  -22.4259   -8.0285   21.3542 C   0  0  0  0  0  0
  -21.9903   -9.0271   20.4663 C   0  0  0  0  0  0
  -22.7236  -10.2148   20.3073 C   0  0  0  0  0  0
  -21.6842   -6.0738   22.5263 C   0  0  0  0  0  0
  -21.4015   -6.5636   23.8203 C   0  0  0  0  0  0
  -21.3657   -5.6786   24.9161 C   0  0  0  0  0  0
  -21.6049   -4.3047   24.7218 C   0  0  0  0  0  0
  -21.8809   -3.8147   23.4328 C   0  0  0  0  0  0
  -21.9180   -4.6964   22.3389 C   0  0  0  0  0  0
  -22.7831  -13.5267   21.1803 C   0  0  0  0  0  0
  -22.1648   -4.2147   21.0966 F   0  0  0  0  0  0
  -21.5628   -3.4530   25.7730 F   0  0  0  0  0  0
  -30.0009  -13.4855   20.4339 N   0  0  0  0  0  0
  -26.2983  -12.9377   20.3324 N   0  0  0  0  0  0
  -25.9322  -11.6530   20.5767 N   0  0  0  0  0  0
  -22.0412  -12.8327   22.0372 N   0  0  0  0  0  0
  -25.4292  -15.1897   20.4118 N   0  0  0  0  0  0
  -31.7565  -14.8667   20.0662 O   0  0  0  0  0  0
  -21.6619   -6.8881   21.4235 O   0  0  0  0  0  0
  -22.3539  -14.5546   20.6579 O   0  0  0  0  0  0
  -24.6357  -31.8561   23.1971 C   0  0  0  0  0  0
  -25.9163  -32.4772   23.8336 C   0  0  1  0  0  0
  -27.2175  -27.2489   20.1268 C   0  0  0  0  0  0
  -25.5958  -33.8579   24.2261 N   0  0  0  0  0  0
  -23.4343  -30.4788   21.5411 C   0  0  2  0  0  0
  -24.8829  -28.9306   20.1054 C   0  0  0  0  0  0
  -22.7542  -29.4614   22.4906 C   0  0  0  0  0  0
  -18.0309  -28.1394   22.8484 C   0  0  0  0  0  0
  -24.1489  -36.7269   23.2638 C   0  0  0  0  0  0
  -25.9845  -30.7615   21.3857 C   0  0  0  0  0  0
  -26.0551  -29.3848   20.7249 C   0  0  0  0  0  0
  -27.2279  -28.5576   20.7222 C   0  0  0  0  0  0
  -26.0281  -26.8849   19.4543 C   0  0  0  0  0  0
  -24.8779  -27.6915   19.4533 C   0  0  0  0  0  0
  -23.6532  -29.8152   20.1566 C   0  0  0  0  0  0
  -25.4121  -36.3084   24.0324 C   0  0  1  0  0  0
  -20.5920  -28.3716   23.1254 C   0  0  2  0  0  0
  -20.6805  -26.9438   22.5398 C   0  0  0  0  0  0
  -19.5772  -26.6390   21.5216 C   0  0  0  0  0  0
  -18.1950  -26.7933   22.1627 C   0  0  0  0  0  0
  -19.1565  -28.8875   23.2859 C   0  0  0  0  0  0
  -18.9471  -30.1468   23.8886 C   0  0  0  0  0  0
  -17.6467  -30.6596   24.0558 C   0  0  0  0  0  0
  -25.9065  -34.9457   23.5088 C   0  0  0  0  0  0
  -16.5360  -29.9084   23.6344 C   0  0  0  0  0  0
  -16.7288  -28.6505   23.0360 C   0  0  0  0  0  0
  -26.4515  -31.6609   25.0737 C   0  0  0  0  0  0
  -25.3712  -31.3761   26.1436 C   0  0  0  0  0  0
  -27.0362  -30.3018   24.6251 C   0  0  0  0  0  0
  -27.6071  -32.4355   25.7496 C   0  0  0  0  0  0
  -27.5578  -37.1800   24.8476 C   0  0  0  0  0  0
  -21.4250  -29.3049   22.3633 N   0  0  0  0  0  0
  -26.4299  -37.3780   23.9401 N   0  0  0  0  0  0
  -24.7036  -31.0515   22.0955 N   0  0  0  0  0  0
  -23.4218  -28.8173   23.3038 O   0  0  0  0  0  0
  -28.2829  -26.3127   20.1676 O   0  0  0  0  0  0
  -26.5633  -34.8936   22.4652 O   0  0  0  0  0  0
  -23.5499  -32.1394   23.7230 O   0  0  0  0  0  0
  -28.4477  -22.2436   20.6921 C   0  0  0  0  0  0
  -28.8285  -23.5961   20.3137 C   0  0  0  0  0  0
  -29.3110  -21.1337   20.3719 C   0  0  0  0  0  0
  -30.7515  -22.6658   19.4426 C   0  0  0  0  0  0
  -32.0461  -22.8841   18.6893 C   0  0  0  0  0  0
  -27.2996  -22.1906   22.9527 C   0  0  0  0  0  0
  -27.1399  -22.0014   21.4369 C   0  0  0  0  0  0
  -27.9158  -24.8935   20.5510 C   0  0  0  0  0  0
  -29.8659  -18.5733   20.9418 C   0  0  0  0  0  0
  -29.8018  -17.2151   20.0659 C   0  0  0  0  0  0
  -30.0061  -23.7521   19.6745 N   0  0  0  0  0  0
  -30.4730  -21.3973   19.7628 N   0  0  0  0  0  0
  -28.9749  -19.7393   20.5597 N   0  0  0  0  0  0
  -29.7885  -15.8249   20.7064 N   0  0  0  0  0  0
  -31.4841  -12.5590   19.1861 H   0  0  0  0  0  0
  -30.3845  -11.4546   19.9540 H   0  0  0  0  0  0
  -29.8018  -11.7422   17.5224 H   0  0  0  0  0  0
  -29.6524  -13.4673   17.7403 H   0  0  0  0  0  0
  -27.8911  -11.2889   18.9068 H   0  0  0  0  0  0
  -27.3916  -12.5424   17.8018 H   0  0  0  0  0  0
  -27.6600  -14.2541   19.5007 H   0  0  0  0  0  0
  -28.7229  -12.1165   21.4128 H   0  0  0  0  0  0
  -28.4301  -13.7812   21.8355 H   0  0  0  0  0  0
  -25.2743   -9.5651   22.4781 H   0  0  0  0  0  0
  -23.9955   -7.4633   22.7481 H   0  0  0  0  0  0
  -21.0830   -8.8807   19.8967 H   0  0  0  0  0  0
  -22.3699  -10.9696   19.6186 H   0  0  0  0  0  0
  -21.2009   -7.6143   23.9703 H   0  0  0  0  0  0
  -21.1495   -6.0516   25.9062 H   0  0  0  0  0  0
  -22.0589   -2.7610   23.2818 H   0  0  0  0  0  0
  -22.3984  -12.0060   22.4932 H   0  0  0  0  0  0
  -21.1004  -13.1393   22.2432 H   0  0  0  0  0  0
  -24.6694  -15.8515   20.5249 H   0  0  0  0  0  0
  -26.2777  -15.6193   20.0662 H   0  0  0  0  0  0
  -26.7239  -32.5417   23.1090 H   0  0  0  0  0  0
  -25.0173  -33.9733   25.0454 H   0  0  0  0  0  0
  -22.7305  -31.3000   21.3951 H   0  0  0  0  0  0
  -23.3760  -35.9592   23.3326 H   0  0  0  0  0  0
  -24.3572  -36.8857   22.2047 H   0  0  0  0  0  0
  -23.7235  -37.6474   23.6636 H   0  0  0  0  0  0
  -26.1387  -31.5206   20.6174 H   0  0  0  0  0  0
  -26.8562  -30.8019   22.0273 H   0  0  0  0  0  0
  -28.1240  -28.8986   21.2209 H   0  0  0  0  0  0
  -25.9581  -25.9561   18.9083 H   0  0  0  0  0  0
  -23.9923  -27.3468   18.9362 H   0  0  0  0  0  0
  -23.7726  -30.5897   19.3983 H   0  0  0  0  0  0
  -22.7738  -29.2424   19.8564 H   0  0  0  0  0  0
  -25.1312  -36.1933   25.0818 H   0  0  0  0  0  0
  -21.0014  -28.3290   24.1368 H   0  0  0  0  0  0
  -20.5746  -26.2326   23.3596 H   0  0  0  0  0  0
  -21.6664  -26.7488   22.1160 H   0  0  0  0  0  0
  -19.6933  -25.6296   21.1252 H   0  0  0  0  0  0
  -19.6690  -27.3197   20.6734 H   0  0  0  0  0  0
  -17.4223  -26.6682   21.4021 H   0  0  0  0  0  0
  -18.0338  -26.0083   22.9031 H   0  0  0  0  0  0
  -19.7944  -30.7292   24.2250 H   0  0  0  0  0  0
  -17.5019  -31.6282   24.5144 H   0  0  0  0  0  0
  -15.5358  -30.2973   23.7681 H   0  0  0  0  0  0
  -15.8685  -28.0814   22.7080 H   0  0  0  0  0  0
  -24.5895  -30.7123   25.7742 H   0  0  0  0  0  0
  -24.8900  -32.2929   26.4851 H   0  0  0  0  0  0
  -25.8008  -30.8937   27.0223 H   0  0  0  0  0  0
  -26.2959  -29.6758   24.1262 H   0  0  0  0  0  0
  -27.4016  -29.7313   25.4801 H   0  0  0  0  0  0
  -27.8857  -30.4292   23.9531 H   0  0  0  0  0  0
  -27.2692  -33.3665   26.2058 H   0  0  0  0  0  0
  -28.3868  -32.6899   25.0304 H   0  0  0  0  0  0
  -28.0749  -31.8490   26.5417 H   0  0  0  0  0  0
  -28.2637  -38.0066   24.7514 H   0  0  0  0  0  0
  -28.1040  -36.2601   24.6320 H   0  0  0  0  0  0
  -27.2295  -37.1476   25.8883 H   0  0  0  0  0  0
  -20.9453  -29.8713   21.6773 H   0  0  0  0  0  0
  -26.0179  -38.2860   24.1369 H   0  0  0  0  0  0
  -32.1662  -22.1333   17.9070 H   0  0  0  0  0  0
  -32.8986  -22.8086   19.3641 H   0  0  0  0  0  0
  -32.0704  -23.8678   18.2176 H   0  0  0  0  0  0
  -26.3455  -22.0530   23.4623 H   0  0  0  0  0  0
  -27.6648  -23.1864   23.2093 H   0  0  0  0  0  0
  -27.9996  -21.4656   23.3692 H   0  0  0  0  0  0
  -26.7750  -20.9933   21.2423 H   0  0  0  0  0  0
  -26.3602  -22.6584   21.0525 H   0  0  0  0  0  0
  -27.6916  -24.9291   21.6159 H   0  0  0  0  0  0
  -26.9778  -24.6091   20.0856 H   0  0  0  0  0  0
  -30.8984  -18.9162   21.0126 H   0  0  0  0  0  0
  -29.5876  -18.3141   21.9646 H   0  0  0  0  0  0
  -28.8779  -17.2558   19.4864 H   0  0  0  0  0  0
  -30.5890  -17.2484   19.3096 H   0  0  0  0  0  0
  -28.0269  -19.6270   20.8978 H   0  0  0  0  0  0
  -28.8957  -15.5766   21.1063 H   0  0  0  0  0  0
  1 25  1  0  0  0
  1 30  2  0  0  0
  1 84  1  0  0  0
  2  3  1  0  0  0
  2 25  1  0  0  0
  2 85  1  0  0  0
  2 86  1  0  0  0
  3  4  1  0  0  0
  3 87  1  0  0  0
  3 88  1  0  0  0
  4  5  1  0  0  0
  4 89  1  0  0  0
  4 90  1  0  0  0
  5  6  1  0  0  0
  5 26  1  0  0  0
  5 91  1  0  0  0
  6 25  1  0  0  0
  6 92  1  0  0  0
  6 93  1  0  0  0
  7  8  2  0  0  0
  7 26  1  0  0  0
  7 29  1  0  0  0
  8  9  1  0  0  0
  8 22  1  0  0  0
  9 10  1  0  0  0
  9 27  2  0  0  0
 10 11  2  0  0  0
 10 15  1  0  0  0
 11 12  1  0  0  0
 11 94  1  0  0  0
 12 13  2  0  0  0
 12 95  1  0  0  0
 13 14  1  0  0  0
 13 31  1  0  0  0
 14 15  2  0  0  0
 14 96  1  0  0  0
 15 97  1  0  0  0
 16 17  2  0  0  0
 16 21  1  0  0  0
 16 31  1  0  0  0
 17 18  1  0  0  0
 17 98  1  0  0  0
 18 19  2  0  0  0
 18 99  1  0  0  0
 19 20  1  0  0  0
 19 24  1  0  0  0
 20 21  2  0  0  0
 20100  1  0  0  0
 21 23  1  0  0  0
 22 28  1  0  0  0
 22 32  2  0  0  0
 26 27  1  0  0  0
 28101  1  0  0  0
 28102  1  0  0  0
 29103  1  0  0  0
 29104  1  0  0  0
 33 34  1  0  0  0
 33 66  1  0  0  0
 33 70  2  0  0  0
 34 36  1  0  0  0
 34 59  1  0  0  0
 34105  1  0  0  0
 35 44  2  0  0  0
 35 45  1  0  0  0
 35 68  1  0  0  0
 36 56  1  0  0  0
 36106  1  0  0  0
 37 39  1  0  0  0
 37 47  1  0  0  0
 37 66  1  0  0  0
 37107  1  0  0  0
 38 43  2  0  0  0
 38 46  1  0  0  0
 38 47  1  0  0  0
 39 64  1  0  0  0
 39 67  2  0  0  0
 40 52  1  0  0  0
 40 53  2  0  0  0
 40 58  1  0  0  0
 41108  1  0  0  0
 41109  1  0  0  0
 41110  1  0  0  0
 41 48  1  0  0  0
 42 43  1  0  0  0
 42 66  1  0  0  0
 42111  1  0  0  0
 42112  1  0  0  0
 43 44  1  0  0  0
 44113  1  0  0  0
 45 46  2  0  0  0
 45114  1  0  0  0
 46115  1  0  0  0
 47116  1  0  0  0
 47117  1  0  0  0
 48 56  1  0  0  0
 48 65  1  0  0  0
 48118  1  0  0  0
 49 50  1  0  0  0
 49 53  1  0  0  0
 49 64  1  0  0  0
 49119  1  0  0  0
 50 51  1  0  0  0
 50120  1  0  0  0
 50121  1  0  0  0
 51 52  1  0  0  0
 51122  1  0  0  0
 51123  1  0  0  0
 52124  1  0  0  0
 52125  1  0  0  0
 53 54  1  0  0  0
 54 55  2  0  0  0
 54126  1  0  0  0
 55 57  1  0  0  0
 55127  1  0  0  0
 56 69  2  0  0  0
 57 58  2  0  0  0
 57128  1  0  0  0
 58129  1  0  0  0
 59 60  1  0  0  0
 59 61  1  0  0  0
 59 62  1  0  0  0
 60130  1  0  0  0
 60131  1  0  0  0
 60132  1  0  0  0
 61133  1  0  0  0
 61134  1  0  0  0
 61135  1  0  0  0
 62136  1  0  0  0
 62137  1  0  0  0
 62138  1  0  0  0
 63 65  1  0  0  0
 63139  1  0  0  0
 63140  1  0  0  0
 63141  1  0  0  0
 64142  1  0  0  0
 65143  1  0  0  0
 68 78  1  0  0  0
 71 72  2  0  0  0
 71 73  1  0  0  0
 71 77  1  0  0  0
 72 78  1  0  0  0
 72 81  1  0  0  0
 73 82  2  0  0  0
 73 83  1  0  0  0
 74 75  1  0  0  0
 74 81  2  0  0  0
 74 82  1  0  0  0
 75144  1  0  0  0
 75145  1  0  0  0
 75146  1  0  0  0
 76 77  1  0  0  0
 76147  1  0  0  0
 76148  1  0  0  0
 76149  1  0  0  0
 77150  1  0  0  0
 77151  1  0  0  0
 78152  1  0  0  0
 78153  1  0  0  0
 79 80  1  0  0  0
 79 83  1  0  0  0
 79154  1  0  0  0
 79155  1  0  0  0
 80 84  1  0  0  0
 80156  1  0  0  0
 80157  1  0  0  0
 83158  1  0  0  0
 84159  1  0  0  0
M  ISO  4   1 100  68 101  78 101  84 100
M  END
> <chiral flag>
0

> <version>
0

> <s_m_source_file>
/data/baiqing/PycharmProjects/Reinvent-master-3.2/result/LINK_invent/BTK/process_docking_weight1_custom_sum_contain_oxygen_bond_distance_aromatic_linkinvent_7_9_3/rearranged_h_0186.sdf

> <i_m_source_file_index>
8

> <r_mmod_Potential_Energy-OPLS-2005>
-355.566436767578

> <r_mmod_Stretch_Energy-OPLS-2005>
118.033325195312

> <r_mmod_Bend_Energy-OPLS-2005>
181.507369995117

> <r_mmod_Torsional_Energy-OPLS-2005>
231.631301879883

> <r_mmod_Improper_Torsional_Energy-OPLS-2005>
9.46707057952881

> <r_mmod_Van_der_Waal_Energy-OPLS-2005>
148.47233581543

> <r_mmod_Electrostatic_Energy-OPLS-2005>
-877.73828125

> <r_mmod_Solvation_Energy-OPLS-2005>
-254.285797119141

> <b_mmod_Minimization_Converged-OPLS-2005>
0

> <r_mmod_RMS_Derivative-OPLS-2005>
2.67954921722412

$$$$
8
                    3D
 Structure written by MMmdl.
146154  0  0  1  0            999 V2000
  -30.4127  -15.3345   20.3684 C   0  0  0  0  0  0
  -30.4391  -12.8627   19.5106 C   0  0  0  0  0  0
  -29.5338  -12.5811   18.2840 C   0  0  0  0  0  0
  -28.0882  -12.2910   18.7232 C   0  0  0  0  0  0
  -27.6069  -13.2769   19.8155 C   0  0  2  0  0  0
  -28.6437  -13.4843   20.9394 C   0  0  0  0  0  0
  -25.2378  -13.8243   20.5762 C   0  0  0  0  0  0
  -24.1736  -13.0429   20.9272 C   0  0  0  0  0  0
  -24.6398  -11.6929   20.8775 C   0  0  0  0  0  0
  -23.9096  -10.4287   21.0411 C   0  0  0  0  0  0
  -24.3639   -9.4200   21.9187 C   0  0  0  0  0  0
  -23.6304   -8.2241   22.0756 C   0  0  0  0  0  0
  -22.4289   -8.0284   21.3543 C   0  0  0  0  0  0
  -21.9931   -9.0262   20.4647 C   0  0  0  0  0  0
  -22.7270  -10.2135   20.3057 C   0  0  0  0  0  0
  -21.6855   -6.0739   22.5281 C   0  0  0  0  0  0
  -21.4017   -6.5641   23.8214 C   0  0  0  0  0  0
  -21.3659   -5.6791   24.9176 C   0  0  0  0  0  0
  -21.6041   -4.3055   24.7224 C   0  0  0  0  0  0
  -21.8818   -3.8148   23.4344 C   0  0  0  0  0  0
  -21.9193   -4.6965   22.3402 C   0  0  0  0  0  0
  -22.7753  -13.5180   21.1908 C   0  0  0  0  0  0
  -22.1662   -4.2151   21.0979 F   0  0  0  0  0  0
  -21.5627   -3.4538   25.7735 F   0  0  0  0  0  0
  -29.8548  -14.0185   20.2908 N   0  0  0  0  0  0
  -26.2804  -12.9520   20.3221 N   0  0  0  0  0  0
  -25.9335  -11.6626   20.5727 N   0  0  0  0  0  0
  -22.0412  -12.8169   22.0467 N   0  0  0  0  0  0
  -25.3985  -15.1978   20.4190 N   0  0  0  0  0  0
  -31.6486  -15.3060   20.2361 O   0  0  0  0  0  0
  -21.6645   -6.8888   21.4244 O   0  0  0  0  0  0
  -22.3433  -14.5482   20.6748 O   0  0  0  0  0  0
  -24.6667  -31.8192   23.1659 C   0  0  0  0  0  0
  -25.9329  -32.4564   23.8141 C   0  0  1  0  0  0
  -27.2195  -26.8855   20.1988 C   0  0  0  0  0  0
  -25.5983  -33.8380   24.2045 N   0  0  0  0  0  0
  -23.4829  -30.4285   21.5171 C   0  0  2  0  0  0
  -24.9347  -28.7989   20.1235 C   0  0  0  0  0  0
  -22.7677  -29.4424   22.4780 C   0  0  0  0  0  0
  -18.0325  -28.1410   22.8464 C   0  0  0  0  0  0
  -24.1497  -36.7198   23.2648 C   0  0  0  0  0  0
  -26.0541  -30.6130   21.4004 C   0  0  0  0  0  0
  -26.1216  -29.1951   20.7522 C   0  0  0  0  0  0
  -27.2605  -28.2636   20.7551 C   0  0  0  0  0  0
  -25.9977  -26.6436   19.5324 C   0  0  0  0  0  0
  -24.8989  -27.5434   19.4940 C   0  0  0  0  0  0
  -23.7251  -29.7350   20.1480 C   0  0  0  0  0  0
  -25.4138  -36.2951   24.0295 C   0  0  1  0  0  0
  -20.5949  -28.3757   23.1182 C   0  0  2  0  0  0
  -20.6802  -26.9436   22.5401 C   0  0  0  0  0  0
  -19.5776  -26.6376   21.5213 C   0  0  0  0  0  0
  -18.1958  -26.7942   22.1621 C   0  0  0  0  0  0
  -19.1585  -28.8905   23.2809 C   0  0  0  0  0  0
  -18.9496  -30.1495   23.8846 C   0  0  0  0  0  0
  -17.6488  -30.6600   24.0554 C   0  0  0  0  0  0
  -25.9105  -34.9335   23.4991 C   0  0  0  0  0  0
  -16.5379  -29.9086   23.6344 C   0  0  0  0  0  0
  -16.7305  -28.6506   23.0363 C   0  0  0  0  0  0
  -26.4568  -31.6526   25.0686 C   0  0  0  0  0  0
  -25.3682  -31.3793   26.1334 C   0  0  0  0  0  0
  -27.0470  -30.2886   24.6450 C   0  0  0  0  0  0
  -27.6048  -32.4346   25.7497 C   0  0  0  0  0  0
  -27.5568  -37.1757   24.8464 C   0  0  0  0  0  0
  -21.4345  -29.3042   22.3527 N   0  0  0  0  0  0
  -26.4279  -37.3691   23.9402 N   0  0  0  0  0  0
  -24.7565  -30.9819   22.0815 N   0  0  0  0  0  0
  -23.4206  -28.8004   23.3045 O   0  0  0  0  0  0
  -28.2507  -25.7947   20.1707 O   0  0  0  0  0  0
  -26.5722  -34.8882   22.4594 O   0  0  0  0  0  0
  -23.5729  -32.1182   23.6730 O   0  0  0  0  0  0
  -30.3109  -21.0371   21.3290 C   0  0  0  0  0  0
  -29.0138  -19.4767   20.0788 C   0  0  0  0  0  0
  -31.0338  -19.8862   21.7408 C   0  0  0  0  0  0
  -29.2245  -20.9784   20.4339 C   0  0  0  0  0  0
  -29.8079  -18.2216   20.5470 C   0  0  0  0  0  0
  -28.6084  -22.5387   19.8555 C   0  0  0  0  0  0
  -28.1827  -24.1694   20.5730 C   0  0  0  0  0  0
  -30.8123  -18.5895   21.3768 N   0  0  0  0  0  0
  -29.6316  -16.6160   20.3057 N   0  0  0  0  0  0
  -31.4484  -13.0885   19.1642 H   0  0  0  0  0  0
  -30.5370  -11.9738   20.1366 H   0  0  0  0  0  0
  -29.9262  -11.7460   17.7024 H   0  0  0  0  0  0
  -29.5447  -13.4474   17.6210 H   0  0  0  0  0  0
  -28.0622  -11.2741   19.1167 H   0  0  0  0  0  0
  -27.4147  -12.3048   17.8657 H   0  0  0  0  0  0
  -27.5083  -14.2328   19.2994 H   0  0  0  0  0  0
  -28.8381  -12.5590   21.4848 H   0  0  0  0  0  0
  -28.2739  -14.2059   21.6694 H   0  0  0  0  0  0
  -25.2778   -9.5676   22.4771 H   0  0  0  0  0  0
  -24.0007   -7.4631   22.7479 H   0  0  0  0  0  0
  -21.0859   -8.8784   19.8955 H   0  0  0  0  0  0
  -22.3724  -10.9676   19.6169 H   0  0  0  0  0  0
  -21.2015   -7.6151   23.9718 H   0  0  0  0  0  0
  -21.1481   -6.0524   25.9077 H   0  0  0  0  0  0
  -22.0598   -2.7611   23.2843 H   0  0  0  0  0  0
  -22.4045  -11.9844   22.4864 H   0  0  0  0  0  0
  -21.1022  -13.1180   22.2663 H   0  0  0  0  0  0
  -24.6231  -15.8426   20.5311 H   0  0  0  0  0  0
  -26.2324  -15.6430   20.0614 H   0  0  0  0  0  0
  -26.7401  -32.5093   23.0856 H   0  0  0  0  0  0
  -25.0071  -33.9448   25.0157 H   0  0  0  0  0  0
  -22.7984  -31.2611   21.3400 H   0  0  0  0  0  0
  -23.3767  -35.9520   23.3279 H   0  0  0  0  0  0
  -24.3571  -36.8877   22.2067 H   0  0  0  0  0  0
  -23.7248  -37.6374   23.6730 H   0  0  0  0  0  0
  -26.2354  -31.3484   20.6153 H   0  0  0  0  0  0
  -26.9141  -30.6757   22.0559 H   0  0  0  0  0  0
  -28.1691  -28.5753   21.2514 H   0  0  0  0  0  0
  -25.8737  -25.6884   19.0422 H   0  0  0  0  0  0
  -23.9974  -27.2336   18.9841 H   0  0  0  0  0  0
  -23.8876  -30.4981   19.3857 H   0  0  0  0  0  0
  -22.8333  -29.1923   19.8301 H   0  0  0  0  0  0
  -25.1341  -36.1738   25.0787 H   0  0  0  0  0  0
  -21.0036  -28.3369   24.1306 H   0  0  0  0  0  0
  -20.5679  -26.2377   23.3645 H   0  0  0  0  0  0
  -21.6666  -26.7410   22.1209 H   0  0  0  0  0  0
  -19.6934  -25.6273   21.1279 H   0  0  0  0  0  0
  -19.6715  -27.3157   20.6720 H   0  0  0  0  0  0
  -17.4225  -26.6680   21.4028 H   0  0  0  0  0  0
  -18.0357  -26.0099   22.9033 H   0  0  0  0  0  0
  -19.7972  -30.7326   24.2191 H   0  0  0  0  0  0
  -17.5040  -31.6275   24.5164 H   0  0  0  0  0  0
  -15.5377  -30.2970   23.7702 H   0  0  0  0  0  0
  -15.8707  -28.0809   22.7108 H   0  0  0  0  0  0
  -24.5880  -30.7128   25.7640 H   0  0  0  0  0  0
  -24.8856  -32.3002   26.4619 H   0  0  0  0  0  0
  -25.7902  -30.9050   27.0202 H   0  0  0  0  0  0
  -26.3146  -29.6549   24.1438 H   0  0  0  0  0  0
  -27.3963  -29.7271   25.5124 H   0  0  0  0  0  0
  -27.9102  -30.4053   23.9894 H   0  0  0  0  0  0
  -27.2607  -33.3692   26.1942 H   0  0  0  0  0  0
  -28.3936  -32.6834   25.0385 H   0  0  0  0  0  0
  -28.0636  -31.8559   26.5526 H   0  0  0  0  0  0
  -28.2566  -38.0070   24.7506 H   0  0  0  0  0  0
  -28.1083  -36.2594   24.6303 H   0  0  0  0  0  0
  -27.2282  -37.1411   25.8867 H   0  0  0  0  0  0
  -20.9608  -29.8716   21.6635 H   0  0  0  0  0  0
  -26.0121  -38.2748   24.1408 H   0  0  0  0  0  0
  -30.6454  -22.0029   21.6834 H   0  0  0  0  0  0
  -28.2099  -19.2765   19.3829 H   0  0  0  0  0  0
  -31.8725  -20.0208   22.4080 H   0  0  0  0  0  0
  -27.7470  -22.2686   19.2447 H   0  0  0  0  0  0
  -29.3640  -22.7948   19.1127 H   0  0  0  0  0  0
  -28.8167  -24.1840   21.4593 H   0  0  0  0  0  0
  -27.1840  -24.0386   20.9902 H   0  0  0  0  0  0
  -28.6698  -16.3948   20.1035 H   0  0  0  0  0  0
  1 25  1  0  0  0
  1 30  2  0  0  0
  1 79  1  0  0  0
  2  3  1  0  0  0
  2 25  1  0  0  0
  2 80  1  0  0  0
  2 81  1  0  0  0
  3  4  1  0  0  0
  3 82  1  0  0  0
  3 83  1  0  0  0
  4  5  1  0  0  0
  4 84  1  0  0  0
  4 85  1  0  0  0
  5  6  1  0  0  0
  5 26  1  0  0  0
  5 86  1  0  0  0
  6 25  1  0  0  0
  6 87  1  0  0  0
  6 88  1  0  0  0
  7  8  2  0  0  0
  7 26  1  0  0  0
  7 29  1  0  0  0
  8  9  1  0  0  0
  8 22  1  0  0  0
  9 10  1  0  0  0
  9 27  2  0  0  0
 10 11  2  0  0  0
 10 15  1  0  0  0
 11 12  1  0  0  0
 11 89  1  0  0  0
 12 13  2  0  0  0
 12 90  1  0  0  0
 13 14  1  0  0  0
 13 31  1  0  0  0
 14 15  2  0  0  0
 14 91  1  0  0  0
 15 92  1  0  0  0
 16 17  2  0  0  0
 16 21  1  0  0  0
 16 31  1  0  0  0
 17 18  1  0  0  0
 17 93  1  0  0  0
 18 19  2  0  0  0
 18 94  1  0  0  0
 19 20  1  0  0  0
 19 24  1  0  0  0
 20 21  2  0  0  0
 20 95  1  0  0  0
 21 23  1  0  0  0
 22 28  1  0  0  0
 22 32  2  0  0  0
 26 27  1  0  0  0
 28 96  1  0  0  0
 28 97  1  0  0  0
 29 98  1  0  0  0
 29 99  1  0  0  0
 33 34  1  0  0  0
 33 66  1  0  0  0
 33 70  2  0  0  0
 34 36  1  0  0  0
 34 59  1  0  0  0
 34100  1  0  0  0
 35 44  2  0  0  0
 35 45  1  0  0  0
 35 68  1  0  0  0
 36 56  1  0  0  0
 36101  1  0  0  0
 37 39  1  0  0  0
 37 47  1  0  0  0
 37 66  1  0  0  0
 37102  1  0  0  0
 38 43  2  0  0  0
 38 46  1  0  0  0
 38 47  1  0  0  0
 39 64  1  0  0  0
 39 67  2  0  0  0
 40 52  1  0  0  0
 40 53  2  0  0  0
 40 58  1  0  0  0
 41103  1  0  0  0
 41104  1  0  0  0
 41105  1  0  0  0
 41 48  1  0  0  0
 42 43  1  0  0  0
 42 66  1  0  0  0
 42106  1  0  0  0
 42107  1  0  0  0
 43 44  1  0  0  0
 44108  1  0  0  0
 45 46  2  0  0  0
 45109  1  0  0  0
 46110  1  0  0  0
 47111  1  0  0  0
 47112  1  0  0  0
 48 56  1  0  0  0
 48 65  1  0  0  0
 48113  1  0  0  0
 49 50  1  0  0  0
 49 53  1  0  0  0
 49 64  1  0  0  0
 49114  1  0  0  0
 50 51  1  0  0  0
 50115  1  0  0  0
 50116  1  0  0  0
 51 52  1  0  0  0
 51117  1  0  0  0
 51118  1  0  0  0
 52119  1  0  0  0
 52120  1  0  0  0
 53 54  1  0  0  0
 54 55  2  0  0  0
 54121  1  0  0  0
 55 57  1  0  0  0
 55122  1  0  0  0
 56 69  2  0  0  0
 57 58  2  0  0  0
 57123  1  0  0  0
 58124  1  0  0  0
 59 60  1  0  0  0
 59 61  1  0  0  0
 59 62  1  0  0  0
 60125  1  0  0  0
 60126  1  0  0  0
 60127  1  0  0  0
 61128  1  0  0  0
 61129  1  0  0  0
 61130  1  0  0  0
 62131  1  0  0  0
 62132  1  0  0  0
 62133  1  0  0  0
 63 65  1  0  0  0
 63134  1  0  0  0
 63135  1  0  0  0
 63136  1  0  0  0
 64137  1  0  0  0
 65138  1  0  0  0
 68 77  1  0  0  0
 71 73  2  0  0  0
 71 74  1  0  0  0
 71139  1  0  0  0
 72 74  2  0  0  0
 72 75  1  0  0  0
 72140  1  0  0  0
 73 78  1  0  0  0
 73141  1  0  0  0
 74 76  1  0  0  0
 75 78  2  0  0  0
 75 79  1  0  0  0
 76 77  1  0  0  0
 76142  1  0  0  0
 76143  1  0  0  0
 77144  1  0  0  0
 77145  1  0  0  0
 79146  1  0  0  0
M  ISO  4   1 100  68 101  77 101  79 100
M  END
> <chiral flag>
0

> <version>
0

> <s_m_source_file>
/data/baiqing/PycharmProjects/Reinvent-master-3.2/result/LINK_invent/BTK/process_docking_weight1_custom_sum_contain_oxygen_bond_distance_aromatic_linkinvent_7_9_3/rearranged_h_0186.sdf

> <i_m_source_file_index>
9

> <r_mmod_Potential_Energy-OPLS-2005>
1308.12426757812

> <r_mmod_Stretch_Energy-OPLS-2005>
649.257202148438

> <r_mmod_Bend_Energy-OPLS-2005>
469.024353027344

> <r_mmod_Torsional_Energy-OPLS-2005>
238.450119018555

> <r_mmod_Improper_Torsional_Energy-OPLS-2005>
8.20735645294189

> <r_mmod_Van_der_Waal_Energy-OPLS-2005>
126.399772644043

> <r_mmod_Electrostatic_Energy-OPLS-2005>
-461.688934326172

> <r_mmod_Solvation_Energy-OPLS-2005>
-240.622848510742

> <b_mmod_Minimization_Converged-OPLS-2005>
0

> <r_mmod_RMS_Derivative-OPLS-2005>
0.801489531993866

$$$$
9
                    3D
 Structure written by MMmdl.
156165  0  0  1  0            999 V2000
  -30.6129  -14.8307   20.4796 C   0  0  0  0  0  0
  -30.4336  -12.5230   19.4788 C   0  0  0  0  0  0
  -29.5107  -12.5231   18.2393 C   0  0  0  0  0  0
  -28.0386  -12.3252   18.6519 C   0  0  0  0  0  0
  -27.6345  -13.2291   19.8448 C   0  0  2  0  0  0
  -28.6839  -13.1734   20.9772 C   0  0  0  0  0  0
  -25.2421  -13.8153   20.5638 C   0  0  0  0  0  0
  -24.1754  -13.0396   20.9219 C   0  0  0  0  0  0
  -24.6375  -11.6889   20.8769 C   0  0  0  0  0  0
  -23.9062  -10.4270   21.0422 C   0  0  0  0  0  0
  -24.3616   -9.4186   21.9196 C   0  0  0  0  0  0
  -23.6289   -8.2224   22.0761 C   0  0  0  0  0  0
  -22.4270   -8.0271   21.3548 C   0  0  0  0  0  0
  -21.9904   -9.0246   20.4652 C   0  0  0  0  0  0
  -22.7237  -10.2122   20.3064 C   0  0  0  0  0  0
  -21.6846   -6.0730   22.5280 C   0  0  0  0  0  0
  -21.4013   -6.5637   23.8213 C   0  0  0  0  0  0
  -21.3659   -5.6790   24.9175 C   0  0  0  0  0  0
  -21.6044   -4.3053   24.7225 C   0  0  0  0  0  0
  -21.8818   -3.8144   23.4347 C   0  0  0  0  0  0
  -21.9190   -4.6959   22.3403 C   0  0  0  0  0  0
  -22.7776  -13.5183   21.1882 C   0  0  0  0  0  0
  -22.1657   -4.2147   21.0979 F   0  0  0  0  0  0
  -21.5630   -3.4536   25.7738 F   0  0  0  0  0  0
  -29.9648  -13.6010   20.3943 N   0  0  0  0  0  0
  -26.2882  -12.9381   20.3252 N   0  0  0  0  0  0
  -25.9303  -11.6527   20.5765 N   0  0  0  0  0  0
  -22.0431  -12.8185   22.0453 N   0  0  0  0  0  0
  -25.3939  -15.1870   20.3930 N   0  0  0  0  0  0
  -31.8013  -14.8664   20.1393 O   0  0  0  0  0  0
  -21.6633   -6.8871   21.4240 O   0  0  0  0  0  0
  -22.3457  -14.5489   20.6729 O   0  0  0  0  0  0
  -24.6352  -31.8508   23.1933 C   0  0  0  0  0  0
  -25.9165  -32.4724   23.8292 C   0  0  1  0  0  0
  -27.2239  -27.2246   20.1486 C   0  0  0  0  0  0
  -25.5946  -33.8528   24.2226 N   0  0  0  0  0  0
  -23.4336  -30.4714   21.5366 C   0  0  2  0  0  0
  -24.8834  -28.9039   20.1157 C   0  0  0  0  0  0
  -22.7518  -29.4591   22.4892 C   0  0  0  0  0  0
  -18.0301  -28.1388   22.8486 C   0  0  0  0  0  0
  -24.1492  -36.7267   23.2640 C   0  0  0  0  0  0
  -25.9808  -30.7551   21.3748 C   0  0  0  0  0  0
  -26.0567  -29.3706   20.7237 C   0  0  0  0  0  0
  -27.2330  -28.5472   20.7203 C   0  0  0  0  0  0
  -26.0277  -26.8266   19.5183 C   0  0  0  0  0  0
  -24.8759  -27.6415   19.4996 C   0  0  0  0  0  0
  -23.6554  -29.7964   20.1563 C   0  0  0  0  0  0
  -25.4121  -36.3047   24.0319 C   0  0  1  0  0  0
  -20.5906  -28.3709   23.1257 C   0  0  2  0  0  0
  -20.6783  -26.9421   22.5407 C   0  0  0  0  0  0
  -19.5758  -26.6385   21.5211 C   0  0  0  0  0  0
  -18.1943  -26.7929   22.1626 C   0  0  0  0  0  0
  -19.1554  -28.8867   23.2866 C   0  0  0  0  0  0
  -18.9471  -30.1466   23.8887 C   0  0  0  0  0  0
  -17.6467  -30.6589   24.0565 C   0  0  0  0  0  0
  -25.9064  -34.9420   23.5077 C   0  0  0  0  0  0
  -16.5361  -29.9084   23.6331 C   0  0  0  0  0  0
  -16.7286  -28.6502   23.0355 C   0  0  0  0  0  0
  -26.4522  -31.6555   25.0692 C   0  0  0  0  0  0
  -25.3736  -31.3714   26.1405 C   0  0  0  0  0  0
  -27.0368  -30.2963   24.6194 C   0  0  0  0  0  0
  -27.6069  -32.4295   25.7481 C   0  0  0  0  0  0
  -27.5575  -37.1790   24.8467 C   0  0  0  0  0  0
  -21.4222  -29.3047   22.3632 N   0  0  0  0  0  0
  -26.4288  -37.3753   23.9407 N   0  0  0  0  0  0
  -24.7025  -31.0448   22.0912 N   0  0  0  0  0  0
  -23.4200  -28.8144   23.3014 O   0  0  0  0  0  0
  -28.3121  -26.3141   20.1352 O   0  0  0  0  0  0
  -26.5646  -34.8906   22.4649 O   0  0  0  0  0  0
  -23.5497  -32.1339   23.7216 O   0  0  0  0  0  0
  -28.0516  -22.2127   18.3076 C   0  0  0  0  0  0
  -28.4583  -23.5322   20.0724 C   0  0  0  0  0  0
  -28.9717  -21.2472   20.0932 C   0  0  0  0  0  0
  -28.4668  -17.8650   21.5226 C   0  0  0  0  0  0
  -28.6865  -16.3287   21.3819 C   0  0  0  0  0  0
  -30.4100  -17.4626   20.2648 C   0  0  0  0  0  0
  -29.2414  -18.5624   20.3995 C   0  0  2  0  0  0
  -27.5100  -22.0668   16.9013 C   0  0  0  0  0  0
  -28.1738  -24.9502   20.7960 C   0  0  0  0  0  0
  -28.0025  -23.4384   18.8268 N   0  0  0  0  0  0
  -28.5034  -21.0926   18.8706 N   0  0  0  0  0  0
  -28.9760  -22.4449   20.7510 N   0  0  0  0  0  0
  -29.9225  -16.0600   20.6323 N   0  0  0  0  0  0
  -29.5184  -20.0467   20.6877 N   0  0  0  0  0  0
  -31.4700  -12.6579   19.1662 H   0  0  0  0  0  0
  -30.4076  -11.5532   19.9786 H   0  0  0  0  0  0
  -29.8124  -11.7412   17.5417 H   0  0  0  0  0  0
  -29.6179  -13.4676   17.7041 H   0  0  0  0  0  0
  -27.9097  -11.2771   18.9239 H   0  0  0  0  0  0
  -27.3788  -12.5010   17.8015 H   0  0  0  0  0  0
  -27.6182  -14.2403   19.4415 H   0  0  0  0  0  0
  -28.7588  -12.1586   21.3710 H   0  0  0  0  0  0
  -28.3917  -13.7809   21.8292 H   0  0  0  0  0  0
  -25.2760   -9.5662   22.4773 H   0  0  0  0  0  0
  -23.9997   -7.4608   22.7475 H   0  0  0  0  0  0
  -21.0837   -8.8771   19.8951 H   0  0  0  0  0  0
  -22.3703  -10.9668   19.6176 H   0  0  0  0  0  0
  -21.2009   -7.6145   23.9717 H   0  0  0  0  0  0
  -21.1480   -6.0520   25.9079 H   0  0  0  0  0  0
  -22.0598   -2.7607   23.2847 H   0  0  0  0  0  0
  -22.4048  -11.9856   22.4856 H   0  0  0  0  0  0
  -21.1055  -13.1216   22.2666 H   0  0  0  0  0  0
  -24.6147  -15.8277   20.4986 H   0  0  0  0  0  0
  -26.2257  -15.6324   20.0296 H   0  0  0  0  0  0
  -26.7230  -32.5372   23.1030 H   0  0  0  0  0  0
  -25.0083  -33.9646   25.0365 H   0  0  0  0  0  0
  -22.7319  -31.2943   21.3845 H   0  0  0  0  0  0
  -23.3750  -35.9604   23.3300 H   0  0  0  0  0  0
  -24.3582  -36.8895   22.2054 H   0  0  0  0  0  0
  -23.7247  -37.6466   23.6671 H   0  0  0  0  0  0
  -26.1192  -31.5111   20.6009 H   0  0  0  0  0  0
  -26.8576  -30.8098   22.0085 H   0  0  0  0  0  0
  -28.1359  -28.9069   21.1942 H   0  0  0  0  0  0
  -25.9795  -25.8568   19.0426 H   0  0  0  0  0  0
  -23.9783  -27.2793   19.0174 H   0  0  0  0  0  0
  -23.7825  -30.5671   19.3949 H   0  0  0  0  0  0
  -22.7726  -29.2307   19.8536 H   0  0  0  0  0  0
  -25.1304  -36.1882   25.0810 H   0  0  0  0  0  0
  -21.0008  -28.3297   24.1372 H   0  0  0  0  0  0
  -20.5676  -26.2325   23.3618 H   0  0  0  0  0  0
  -21.6652  -26.7432   22.1207 H   0  0  0  0  0  0
  -19.6918  -25.6294   21.1247 H   0  0  0  0  0  0
  -19.6691  -27.3191   20.6736 H   0  0  0  0  0  0
  -17.4210  -26.6680   21.4032 H   0  0  0  0  0  0
  -18.0347  -26.0070   22.9021 H   0  0  0  0  0  0
  -19.7946  -30.7292   24.2248 H   0  0  0  0  0  0
  -17.5019  -31.6267   24.5170 H   0  0  0  0  0  0
  -15.5360  -30.2983   23.7654 H   0  0  0  0  0  0
  -15.8689  -28.0816   22.7070 H   0  0  0  0  0  0
  -24.5940  -30.7025   25.7738 H   0  0  0  0  0  0
  -24.8897  -32.2882   26.4779 H   0  0  0  0  0  0
  -25.8053  -30.8937   27.0209 H   0  0  0  0  0  0
  -26.2952  -29.6698   24.1222 H   0  0  0  0  0  0
  -27.4040  -29.7237   25.4723 H   0  0  0  0  0  0
  -27.8836  -30.4218   23.9442 H   0  0  0  0  0  0
  -27.2679  -33.3612   26.2020 H   0  0  0  0  0  0
  -28.3914  -32.6814   25.0333 H   0  0  0  0  0  0
  -28.0694  -31.8432   26.5432 H   0  0  0  0  0  0
  -28.2591  -38.0088   24.7508 H   0  0  0  0  0  0
  -28.1072  -36.2615   24.6303 H   0  0  0  0  0  0
  -27.2294  -37.1450   25.8871 H   0  0  0  0  0  0
  -20.9418  -29.8752   21.6815 H   0  0  0  0  0  0
  -26.0158  -38.2822   24.1407 H   0  0  0  0  0  0
  -28.8615  -18.1802   22.4901 H   0  0  0  0  0  0
  -27.4071  -18.1253   21.5148 H   0  0  0  0  0  0
  -27.8512  -15.9055   20.8389 H   0  0  0  0  0  0
  -28.7187  -15.8695   22.3705 H   0  0  0  0  0  0
  -30.8243  -17.4632   19.2555 H   0  0  0  0  0  0
  -31.2321  -17.7084   20.9387 H   0  0  0  0  0  0
  -28.6375  -18.5087   19.4921 H   0  0  0  0  0  0
  -26.7436  -22.8137   16.6929 H   0  0  0  0  0  0
  -27.0609  -21.0840   16.7565 H   0  0  0  0  0  0
  -28.3116  -22.1854   16.1729 H   0  0  0  0  0  0
  -28.8270  -24.9818   21.6680 H   0  0  0  0  0  0
  -27.1685  -24.8762   21.2119 H   0  0  0  0  0  0
  -29.9272  -20.2201   21.5981 H   0  0  0  0  0  0
  1 25  1  0  0  0
  1 30  2  0  0  0
  1 83  1  0  0  0
  2  3  1  0  0  0
  2 25  1  0  0  0
  2 85  1  0  0  0
  2 86  1  0  0  0
  3  4  1  0  0  0
  3 87  1  0  0  0
  3 88  1  0  0  0
  4  5  1  0  0  0
  4 89  1  0  0  0
  4 90  1  0  0  0
  5  6  1  0  0  0
  5 26  1  0  0  0
  5 91  1  0  0  0
  6 25  1  0  0  0
  6 92  1  0  0  0
  6 93  1  0  0  0
  7  8  2  0  0  0
  7 26  1  0  0  0
  7 29  1  0  0  0
  8  9  1  0  0  0
  8 22  1  0  0  0
  9 10  1  0  0  0
  9 27  2  0  0  0
 10 11  2  0  0  0
 10 15  1  0  0  0
 11 12  1  0  0  0
 11 94  1  0  0  0
 12 13  2  0  0  0
 12 95  1  0  0  0
 13 14  1  0  0  0
 13 31  1  0  0  0
 14 15  2  0  0  0
 14 96  1  0  0  0
 15 97  1  0  0  0
 16 17  2  0  0  0
 16 21  1  0  0  0
 16 31  1  0  0  0
 17 18  1  0  0  0
 17 98  1  0  0  0
 18 19  2  0  0  0
 18 99  1  0  0  0
 19 20  1  0  0  0
 19 24  1  0  0  0
 20 21  2  0  0  0
 20100  1  0  0  0
 21 23  1  0  0  0
 22 28  1  0  0  0
 22 32  2  0  0  0
 26 27  1  0  0  0
 28101  1  0  0  0
 28102  1  0  0  0
 29103  1  0  0  0
 29104  1  0  0  0
 33 34  1  0  0  0
 33 66  1  0  0  0
 33 70  2  0  0  0
 34 36  1  0  0  0
 34 59  1  0  0  0
 34105  1  0  0  0
 35 44  2  0  0  0
 35 45  1  0  0  0
 35 68  1  0  0  0
 36 56  1  0  0  0
 36106  1  0  0  0
 37 39  1  0  0  0
 37 47  1  0  0  0
 37 66  1  0  0  0
 37107  1  0  0  0
 38 43  2  0  0  0
 38 46  1  0  0  0
 38 47  1  0  0  0
 39 64  1  0  0  0
 39 67  2  0  0  0
 40 52  1  0  0  0
 40 53  2  0  0  0
 40 58  1  0  0  0
 41108  1  0  0  0
 41109  1  0  0  0
 41110  1  0  0  0
 41 48  1  0  0  0
 42 43  1  0  0  0
 42 66  1  0  0  0
 42111  1  0  0  0
 42112  1  0  0  0
 43 44  1  0  0  0
 44113  1  0  0  0
 45 46  2  0  0  0
 45114  1  0  0  0
 46115  1  0  0  0
 47116  1  0  0  0
 47117  1  0  0  0
 48 56  1  0  0  0
 48 65  1  0  0  0
 48118  1  0  0  0
 49 50  1  0  0  0
 49 53  1  0  0  0
 49 64  1  0  0  0
 49119  1  0  0  0
 50 51  1  0  0  0
 50120  1  0  0  0
 50121  1  0  0  0
 51 52  1  0  0  0
 51122  1  0  0  0
 51123  1  0  0  0
 52124  1  0  0  0
 52125  1  0  0  0
 53 54  1  0  0  0
 54 55  2  0  0  0
 54126  1  0  0  0
 55 57  1  0  0  0
 55127  1  0  0  0
 56 69  2  0  0  0
 57 58  2  0  0  0
 57128  1  0  0  0
 58129  1  0  0  0
 59 60  1  0  0  0
 59 61  1  0  0  0
 59 62  1  0  0  0
 60130  1  0  0  0
 60131  1  0  0  0
 60132  1  0  0  0
 61133  1  0  0  0
 61134  1  0  0  0
 61135  1  0  0  0
 62136  1  0  0  0
 62137  1  0  0  0
 62138  1  0  0  0
 63 65  1  0  0  0
 63139  1  0  0  0
 63140  1  0  0  0
 63141  1  0  0  0
 64142  1  0  0  0
 65143  1  0  0  0
 68 79  1  0  0  0
 71 78  1  0  0  0
 71 80  2  0  0  0
 71 81  1  0  0  0
 72 79  1  0  0  0
 72 80  1  0  0  0
 72 82  2  0  0  0
 73 81  2  0  0  0
 73 82  1  0  0  0
 73 84  1  0  0  0
 74 75  1  0  0  0
 74 77  1  0  0  0
 74144  1  0  0  0
 74145  1  0  0  0
 75 83  1  0  0  0
 75146  1  0  0  0
 75147  1  0  0  0
 76 77  1  0  0  0
 76 83  1  0  0  0
 76148  1  0  0  0
 76149  1  0  0  0
 77 84  1  0  0  0
 77150  1  0  0  0
 78151  1  0  0  0
 78152  1  0  0  0
 78153  1  0  0  0
 79154  1  0  0  0
 79155  1  0  0  0
 84156  1  0  0  0
M  ISO  4   1 100  68 101  79 101  83 100
M  END
> <chiral flag>
0

> <version>
0

> <s_m_source_file>
/data/baiqing/PycharmProjects/Reinvent-master-3.2/result/LINK_invent/BTK/process_docking_weight1_custom_sum_contain_oxygen_bond_distance_aromatic_linkinvent_7_9_3/rearranged_h_0186.sdf

> <i_m_source_file_index>
10

> <r_mmod_Potential_Energy-OPLS-2005>
-339.990539550781

> <r_mmod_Stretch_Energy-OPLS-2005>
147.006683349609

> <r_mmod_Bend_Energy-OPLS-2005>
227.065582275391

> <r_mmod_Torsional_Energy-OPLS-2005>
320.4560546875

> <r_mmod_Improper_Torsional_Energy-OPLS-2005>
9.63319396972656

> <r_mmod_Van_der_Waal_Energy-OPLS-2005>
149.271484375

> <r_mmod_Electrostatic_Energy-OPLS-2005>
-1064.931640625

> <r_mmod_Solvation_Energy-OPLS-2005>
-240.221908569336

> <b_mmod_Minimization_Converged-OPLS-2005>
0

> <r_mmod_RMS_Derivative-OPLS-2005>
0.757814764976501

$$$$
10
                    3D
 Structure written by MMmdl.
153162  0  0  1  0            999 V2000
  -30.5181  -14.9572   20.4190 C   0  0  0  0  0  0
  -30.4613  -12.5914   19.4811 C   0  0  0  0  0  0
  -29.5248  -12.5078   18.2505 C   0  0  0  0  0  0
  -28.0626  -12.2845   18.6827 C   0  0  0  0  0  0
  -27.6366  -13.2311   19.8316 C   0  0  2  0  0  0
  -28.6845  -13.2583   20.9662 C   0  0  0  0  0  0
  -25.2526  -13.8168   20.5696 C   0  0  0  0  0  0
  -24.1822  -13.0428   20.9248 C   0  0  0  0  0  0
  -24.6404  -11.6909   20.8764 C   0  0  0  0  0  0
  -23.9076  -10.4291   21.0415 C   0  0  0  0  0  0
  -24.3625   -9.4203   21.9196 C   0  0  0  0  0  0
  -23.6291   -8.2239   22.0759 C   0  0  0  0  0  0
  -22.4279   -8.0285   21.3549 C   0  0  0  0  0  0
  -21.9919   -9.0258   20.4652 C   0  0  0  0  0  0
  -22.7242  -10.2135   20.3057 C   0  0  0  0  0  0
  -21.6852   -6.0735   22.5279 C   0  0  0  0  0  0
  -21.4013   -6.5641   23.8211 C   0  0  0  0  0  0
  -21.3654   -5.6794   24.9174 C   0  0  0  0  0  0
  -21.6042   -4.3057   24.7227 C   0  0  0  0  0  0
  -21.8823   -3.8150   23.4350 C   0  0  0  0  0  0
  -21.9196   -4.6966   22.3402 C   0  0  0  0  0  0
  -22.7838  -13.5225   21.1878 C   0  0  0  0  0  0
  -22.1663   -4.2146   21.0980 F   0  0  0  0  0  0
  -21.5625   -3.4543   25.7741 F   0  0  0  0  0  0
  -29.9609  -13.6785   20.3703 N   0  0  0  0  0  0
  -26.2937  -12.9367   20.3219 N   0  0  0  0  0  0
  -25.9333  -11.6525   20.5741 N   0  0  0  0  0  0
  -22.0468  -12.8222   22.0418 N   0  0  0  0  0  0
  -25.4219  -15.1882   20.4030 N   0  0  0  0  0  0
  -31.7240  -15.0636   20.1659 O   0  0  0  0  0  0
  -21.6641   -6.8881   21.4239 O   0  0  0  0  0  0
  -22.3540  -14.5539   20.6717 O   0  0  0  0  0  0
  -24.6408  -31.8476   23.1882 C   0  0  0  0  0  0
  -25.9194  -32.4717   23.8279 C   0  0  1  0  0  0
  -27.2199  -27.1469   20.1687 C   0  0  0  0  0  0
  -25.5960  -33.8512   24.2222 N   0  0  0  0  0  0
  -23.4444  -30.4690   21.5321 C   0  0  2  0  0  0
  -24.8950  -28.8944   20.1127 C   0  0  0  0  0  0
  -22.7559  -29.4592   22.4834 C   0  0  0  0  0  0
  -18.0316  -28.1444   22.8497 C   0  0  0  0  0  0
  -24.1476  -36.7252   23.2635 C   0  0  0  0  0  0
  -25.9976  -30.7275   21.3811 C   0  0  0  0  0  0
  -26.0694  -29.3357   20.7358 C   0  0  0  0  0  0
  -27.2321  -28.4763   20.7483 C   0  0  0  0  0  0
  -26.0243  -26.8147   19.4877 C   0  0  0  0  0  0
  -24.8859  -27.6492   19.4681 C   0  0  0  0  0  0
  -23.6715  -29.7977   20.1521 C   0  0  0  0  0  0
  -25.4105  -36.3040   24.0319 C   0  0  1  0  0  0
  -20.5930  -28.3774   23.1238 C   0  0  2  0  0  0
  -20.6797  -26.9474   22.5411 C   0  0  0  0  0  0
  -19.5762  -26.6442   21.5222 C   0  0  0  0  0  0
  -18.1952  -26.7985   22.1642 C   0  0  0  0  0  0
  -19.1570  -28.8924   23.2870 C   0  0  0  0  0  0
  -18.9484  -30.1522   23.8896 C   0  0  0  0  0  0
  -17.6472  -30.6626   24.0603 C   0  0  0  0  0  0
  -25.9062  -34.9413   23.5084 C   0  0  0  0  0  0
  -16.5371  -29.9134   23.6356 C   0  0  0  0  0  0
  -16.7300  -28.6560   23.0362 C   0  0  0  0  0  0
  -26.4528  -31.6543   25.0681 C   0  0  0  0  0  0
  -25.3727  -31.3755   26.1396 C   0  0  0  0  0  0
  -27.0347  -30.2936   24.6191 C   0  0  0  0  0  0
  -27.6101  -32.4257   25.7446 C   0  0  0  0  0  0
  -27.5567  -37.1787   24.8465 C   0  0  0  0  0  0
  -21.4253  -29.3069   22.3572 N   0  0  0  0  0  0
  -26.4266  -37.3758   23.9417 N   0  0  0  0  0  0
  -24.7139  -31.0373   22.0896 N   0  0  0  0  0  0
  -23.4200  -28.8149   23.2994 O   0  0  0  0  0  0
  -28.2780  -26.1674   20.2390 O   0  0  0  0  0  0
  -26.5644  -34.8895   22.4655 O   0  0  0  0  0  0
  -23.5533  -32.1331   23.7130 O   0  0  0  0  0  0
  -28.3174  -18.2057   20.2320 C   0  0  0  0  0  0
  -30.2906  -19.9528   20.7032 C   0  0  0  0  0  0
  -29.5966  -17.6018   20.4779 C   0  0  0  0  0  0
  -28.9835  -20.5242   20.4212 C   0  0  0  0  0  0
  -31.9127  -22.0816   20.6024 C   0  0  0  0  0  0
  -32.7521  -20.8469   20.4480 C   0  0  0  0  0  0
  -31.4452  -20.7769   21.2077 C   0  0  0  0  0  0
  -27.9664  -24.6494   20.3969 C   0  0  0  0  0  0
  -28.9956  -23.3137   20.4218 C   0  0  0  0  0  0
  -28.0323  -19.5621   20.1914 N   0  0  0  0  0  0
  -30.5708  -18.5638   20.7078 N   0  0  0  0  0  0
  -29.6360  -16.0639   20.5302 N   0  0  0  0  0  0
  -28.4221  -21.8844   20.3962 O   0  0  0  0  0  0
  -31.4840  -12.7776   19.1492 H   0  0  0  0  0  0
  -30.4899  -11.6404   20.0162 H   0  0  0  0  0  0
  -29.8427  -11.6976   17.5919 H   0  0  0  0  0  0
  -29.5986  -13.4257   17.6651 H   0  0  0  0  0  0
  -27.9785  -11.2488   19.0175 H   0  0  0  0  0  0
  -27.3893  -12.3850   17.8313 H   0  0  0  0  0  0
  -27.6000  -14.2263   19.3881 H   0  0  0  0  0  0
  -28.7790  -12.2789   21.4376 H   0  0  0  0  0  0
  -28.3831  -13.9514   21.7538 H   0  0  0  0  0  0
  -25.2764   -9.5674   22.4774 H   0  0  0  0  0  0
  -24.0001   -7.4625   22.7475 H   0  0  0  0  0  0
  -21.0854   -8.8769   19.8947 H   0  0  0  0  0  0
  -22.3705  -10.9676   19.6165 H   0  0  0  0  0  0
  -21.2008   -7.6148   23.9712 H   0  0  0  0  0  0
  -21.1465   -6.0527   25.9077 H   0  0  0  0  0  0
  -22.0610   -2.7613   23.2849 H   0  0  0  0  0  0
  -22.4057  -11.9854   22.4770 H   0  0  0  0  0  0
  -21.1089  -13.1251   22.2623 H   0  0  0  0  0  0
  -24.6383  -15.8273   20.4849 H   0  0  0  0  0  0
  -26.2181  -15.6000   19.9362 H   0  0  0  0  0  0
  -26.7249  -32.5360   23.0999 H   0  0  0  0  0  0
  -25.0085  -33.9628   25.0359 H   0  0  0  0  0  0
  -22.7493  -31.2971   21.3792 H   0  0  0  0  0  0
  -23.3742  -35.9582   23.3283 H   0  0  0  0  0  0
  -24.3580  -36.8893   22.2054 H   0  0  0  0  0  0
  -23.7198  -37.6432   23.6671 H   0  0  0  0  0  0
  -26.1368  -31.4730   20.5970 H   0  0  0  0  0  0
  -26.8747  -30.7982   22.0115 H   0  0  0  0  0  0
  -28.1228  -28.8086   21.2639 H   0  0  0  0  0  0
  -25.9417  -25.8775   18.9599 H   0  0  0  0  0  0
  -23.9957  -27.3197   18.9491 H   0  0  0  0  0  0
  -23.8073  -30.5716   19.3956 H   0  0  0  0  0  0
  -22.7851  -29.2399   19.8430 H   0  0  0  0  0  0
  -25.1289  -36.1868   25.0809 H   0  0  0  0  0  0
  -21.0066  -28.3373   24.1337 H   0  0  0  0  0  0
  -20.5732  -26.2384   23.3632 H   0  0  0  0  0  0
  -21.6669  -26.7511   22.1196 H   0  0  0  0  0  0
  -19.6916  -25.6357   21.1265 H   0  0  0  0  0  0
  -19.6684  -27.3255   20.6743 H   0  0  0  0  0  0
  -17.4229  -26.6766   21.4029 H   0  0  0  0  0  0
  -18.0332  -26.0137   22.9045 H   0  0  0  0  0  0
  -19.7951  -30.7370   24.2249 H   0  0  0  0  0  0
  -17.5025  -31.6294   24.5236 H   0  0  0  0  0  0
  -15.5379  -30.3047   23.7667 H   0  0  0  0  0  0
  -15.8706  -28.0897   22.7042 H   0  0  0  0  0  0
  -24.5916  -30.7059   25.7771 H   0  0  0  0  0  0
  -24.8880  -32.2935   26.4729 H   0  0  0  0  0  0
  -25.8035  -30.9033   27.0229 H   0  0  0  0  0  0
  -26.2910  -29.6674   24.1230 H   0  0  0  0  0  0
  -27.4019  -29.7216   25.4725 H   0  0  0  0  0  0
  -27.8817  -30.4186   23.9433 H   0  0  0  0  0  0
  -27.2775  -33.3629   26.1910 H   0  0  0  0  0  0
  -28.3969  -32.6675   25.0291 H   0  0  0  0  0  0
  -28.0662  -31.8394   26.5426 H   0  0  0  0  0  0
  -28.2609  -38.0070   24.7542 H   0  0  0  0  0  0
  -28.1053  -36.2618   24.6271 H   0  0  0  0  0  0
  -27.2317  -37.1416   25.8878 H   0  0  0  0  0  0
  -20.9438  -29.8745   21.6732 H   0  0  0  0  0  0
  -26.0135  -38.2820   24.1458 H   0  0  0  0  0  0
  -27.4645  -17.5655   20.0553 H   0  0  0  0  0  0
  -31.4786  -22.4497   19.6797 H   0  0  0  0  0  0
  -32.2653  -22.8456   21.2938 H   0  0  0  0  0  0
  -33.6772  -20.8155   21.0192 H   0  0  0  0  0  0
  -32.7979  -20.4258   19.4443 H   0  0  0  0  0  0
  -31.5042  -20.6870   22.2902 H   0  0  0  0  0  0
  -27.4226  -24.5879   21.3405 H   0  0  0  0  0  0
  -27.2351  -24.3852   19.6373 H   0  0  0  0  0  0
  -29.6411  -23.4044   21.2973 H   0  0  0  0  0  0
  -29.6391  -23.4169   19.5511 H   0  0  0  0  0  0
  -28.7029  -15.6940   20.6055 H   0  0  0  0  0  0
  1 25  1  0  0  0
  1 30  2  0  0  0
  1 82  1  0  0  0
  2  3  1  0  0  0
  2 25  1  0  0  0
  2 84  1  0  0  0
  2 85  1  0  0  0
  3  4  1  0  0  0
  3 86  1  0  0  0
  3 87  1  0  0  0
  4  5  1  0  0  0
  4 88  1  0  0  0
  4 89  1  0  0  0
  5  6  1  0  0  0
  5 26  1  0  0  0
  5 90  1  0  0  0
  6 25  1  0  0  0
  6 91  1  0  0  0
  6 92  1  0  0  0
  7  8  2  0  0  0
  7 26  1  0  0  0
  7 29  1  0  0  0
  8  9  1  0  0  0
  8 22  1  0  0  0
  9 10  1  0  0  0
  9 27  2  0  0  0
 10 11  2  0  0  0
 10 15  1  0  0  0
 11 12  1  0  0  0
 11 93  1  0  0  0
 12 13  2  0  0  0
 12 94  1  0  0  0
 13 14  1  0  0  0
 13 31  1  0  0  0
 14 15  2  0  0  0
 14 95  1  0  0  0
 15 96  1  0  0  0
 16 17  2  0  0  0
 16 21  1  0  0  0
 16 31  1  0  0  0
 17 18  1  0  0  0
 17 97  1  0  0  0
 18 19  2  0  0  0
 18 98  1  0  0  0
 19 20  1  0  0  0
 19 24  1  0  0  0
 20 21  2  0  0  0
 20 99  1  0  0  0
 21 23  1  0  0  0
 22 28  1  0  0  0
 22 32  2  0  0  0
 26 27  1  0  0  0
 28100  1  0  0  0
 28101  1  0  0  0
 29102  1  0  0  0
 29103  1  0  0  0
 33 34  1  0  0  0
 33 66  1  0  0  0
 33 70  2  0  0  0
 34 36  1  0  0  0
 34 59  1  0  0  0
 34104  1  0  0  0
 35 44  2  0  0  0
 35 45  1  0  0  0
 35 68  1  0  0  0
 36 56  1  0  0  0
 36105  1  0  0  0
 37 39  1  0  0  0
 37 47  1  0  0  0
 37 66  1  0  0  0
 37106  1  0  0  0
 38 43  2  0  0  0
 38 46  1  0  0  0
 38 47  1  0  0  0
 39 64  1  0  0  0
 39 67  2  0  0  0
 40 52  1  0  0  0
 40 53  2  0  0  0
 40 58  1  0  0  0
 41107  1  0  0  0
 41108  1  0  0  0
 41109  1  0  0  0
 41 48  1  0  0  0
 42 43  1  0  0  0
 42 66  1  0  0  0
 42110  1  0  0  0
 42111  1  0  0  0
 43 44  1  0  0  0
 44112  1  0  0  0
 45 46  2  0  0  0
 45113  1  0  0  0
 46114  1  0  0  0
 47115  1  0  0  0
 47116  1  0  0  0
 48 56  1  0  0  0
 48 65  1  0  0  0
 48117  1  0  0  0
 49 50  1  0  0  0
 49 53  1  0  0  0
 49 64  1  0  0  0
 49118  1  0  0  0
 50 51  1  0  0  0
 50119  1  0  0  0
 50120  1  0  0  0
 51 52  1  0  0  0
 51121  1  0  0  0
 51122  1  0  0  0
 52123  1  0  0  0
 52124  1  0  0  0
 53 54  1  0  0  0
 54 55  2  0  0  0
 54125  1  0  0  0
 55 57  1  0  0  0
 55126  1  0  0  0
 56 69  2  0  0  0
 57 58  2  0  0  0
 57127  1  0  0  0
 58128  1  0  0  0
 59 60  1  0  0  0
 59 61  1  0  0  0
 59 62  1  0  0  0
 60129  1  0  0  0
 60130  1  0  0  0
 60131  1  0  0  0
 61132  1  0  0  0
 61133  1  0  0  0
 61134  1  0  0  0
 62135  1  0  0  0
 62136  1  0  0  0
 62137  1  0  0  0
 63 65  1  0  0  0
 63138  1  0  0  0
 63139  1  0  0  0
 63140  1  0  0  0
 64141  1  0  0  0
 65142  1  0  0  0
 68 78  1  0  0  0
 71 73  2  0  0  0
 71 80  1  0  0  0
 71143  1  0  0  0
 72 74  1  0  0  0
 72 81  2  0  0  0
 72 77  1  0  0  0
 73 81  1  0  0  0
 73 82  1  0  0  0
 74 80  2  0  0  0
 74 83  1  0  0  0
 75 76  1  0  0  0
 75 77  1  0  0  0
 75144  1  0  0  0
 75145  1  0  0  0
 76 77  1  0  0  0
 76146  1  0  0  0
 76147  1  0  0  0
 77148  1  0  0  0
 78 79  1  0  0  0
 78149  1  0  0  0
 78150  1  0  0  0
 79 83  1  0  0  0
 79151  1  0  0  0
 79152  1  0  0  0
 82153  1  0  0  0
M  ISO  4   1 100  68 101  78 101  82 100
M  END
> <chiral flag>
0

> <version>
0

> <s_m_source_file>
/data/baiqing/PycharmProjects/Reinvent-master-3.2/result/LINK_invent/BTK/process_docking_weight1_custom_sum_contain_oxygen_bond_distance_aromatic_linkinvent_7_9_3/rearranged_h_0186.sdf

> <i_m_source_file_index>
11

> <r_mmod_Potential_Energy-OPLS-2005>
561.441101074219

> <r_mmod_Stretch_Energy-OPLS-2005>
237.970825195312

> <r_mmod_Bend_Energy-OPLS-2005>
319.702880859375

> <r_mmod_Torsional_Energy-OPLS-2005>
239.775497436523

> <r_mmod_Improper_Torsional_Energy-OPLS-2005>
6.78410148620605

> <r_mmod_Van_der_Waal_Energy-OPLS-2005>
132.927764892578

> <r_mmod_Electrostatic_Energy-OPLS-2005>
-335.006896972656

> <r_mmod_Solvation_Energy-OPLS-2005>
-234.279922485352

> <b_mmod_Minimization_Converged-OPLS-2005>
0

> <r_mmod_RMS_Derivative-OPLS-2005>
4.5347113609314

$$$$
11
                    3D
 Structure written by MMmdl.
156165  0  0  1  0            999 V2000
  -29.9742  -16.8803   20.2657 C   0  0  0  0  0  0
  -30.3590  -13.9618   19.4338 C   0  0  0  0  0  0
  -29.6222  -12.9614   18.4280 C   0  0  0  0  0  0
  -28.3077  -12.4065   18.9782 C   0  0  0  0  0  0
  -27.6210  -13.4917   19.8071 C   0  0  2  0  0  0
  -28.5959  -14.3410   20.7416 C   0  0  0  0  0  0
  -25.2458  -13.8662   20.6103 C   0  0  0  0  0  0
  -24.1888  -13.0600   20.9380 C   0  0  0  0  0  0
  -24.6753  -11.7168   20.8735 C   0  0  0  0  0  0
  -23.9396  -10.4377   21.0313 C   0  0  0  0  0  0
  -24.3792   -9.4229   21.9104 C   0  0  0  0  0  0
  -23.6350   -8.2315   22.0737 C   0  0  0  0  0  0
  -22.4338   -8.0322   21.3505 C   0  0  0  0  0  0
  -22.0083   -9.0334   20.4597 C   0  0  0  0  0  0
  -22.7552  -10.2179   20.2956 C   0  0  0  0  0  0
  -21.6847   -6.0700   22.5297 C   0  0  0  0  0  0
  -21.3989   -6.5565   23.8242 C   0  0  0  0  0  0
  -21.3743   -5.6739   24.9227 C   0  0  0  0  0  0
  -21.6063   -4.2998   24.7288 C   0  0  0  0  0  0
  -21.8786   -3.8080   23.4409 C   0  0  0  0  0  0
  -21.9178   -4.6904   22.3444 C   0  0  0  0  0  0
  -22.7833  -13.5202   21.1973 C   0  0  0  0  0  0
  -22.1627   -4.2021   21.1046 F   0  0  0  0  0  0
  -21.5731   -3.4527   25.7840 F   0  0  0  0  0  0
  -29.5726  -15.2923   19.9590 N   0  0  0  0  0  0
  -26.3253  -13.0430   20.3750 N   0  0  0  0  0  0
  -25.9815  -11.7246   20.5686 N   0  0  0  0  0  0
  -22.0442  -12.8046   22.0495 N   0  0  0  0  0  0
  -25.3731  -15.2409   20.4524 N   0  0  0  0  0  0
  -30.7933  -16.2137   21.0260 O   0  0  0  0  0  0
  -21.6652   -6.8898   21.4274 O   0  0  0  0  0  0
  -22.3382  -14.5403   20.6822 O   0  0  0  0  0  0
  -24.7693  -31.6907   23.0817 C   0  0  0  0  0  0
  -25.9853  -32.3931   23.7712 C   0  0  1  0  0  0
  -27.3379  -25.8278   20.2712 C   0  0  0  0  0  0
  -25.6043  -33.7814   24.1455 N   0  0  0  0  0  0
  -23.6341  -30.2476   21.4549 C   0  0  2  0  0  0
  -25.1160  -28.3866   20.1493 C   0  0  0  0  0  0
  -22.8164  -29.3716   22.4510 C   0  0  0  0  0  0
  -18.0402  -28.1474   22.8402 C   0  0  0  0  0  0
  -24.1491  -36.6907   23.2667 C   0  0  0  0  0  0
  -26.2501  -30.1299   21.4743 C   0  0  0  0  0  0
  -26.3218  -28.5949   20.8301 C   0  0  0  0  0  0
  -27.3627  -27.3785   20.8342 C   0  0  0  0  0  0
  -26.0879  -26.0532   19.5295 C   0  0  0  0  0  0
  -25.0919  -27.1462   19.4688 C   0  0  0  0  0  0
  -23.9369  -29.4421   20.1395 C   0  0  0  0  0  0
  -25.4170  -36.2558   24.0222 C   0  0  1  0  0  0
  -20.6060  -28.3847   23.0999 C   0  0  2  0  0  0
  -20.6796  -26.9427   22.5422 C   0  0  0  0  0  0
  -19.5807  -26.6336   21.5215 C   0  0  0  0  0  0
  -18.1986  -26.7979   22.1589 C   0  0  0  0  0  0
  -19.1683  -28.9021   23.2626 C   0  0  0  0  0  0
  -18.9564  -30.1574   23.8718 C   0  0  0  0  0  0
  -17.6536  -30.6623   24.0530 C   0  0  0  0  0  0
  -25.9227  -34.8984   23.4751 C   0  0  0  0  0  0
  -16.5422  -29.9092   23.6365 C   0  0  0  0  0  0
  -16.7367  -28.6524   23.0374 C   0  0  0  0  0  0
  -26.4762  -31.6347   25.0666 C   0  0  0  0  0  0
  -25.3597  -31.3852   26.1083 C   0  0  0  0  0  0
  -27.0834  -30.2628   24.7115 C   0  0  0  0  0  0
  -27.6028  -32.4444   25.7503 C   0  0  0  0  0  0
  -27.5553  -37.1542   24.8434 C   0  0  0  0  0  0
  -21.4735  -29.2890   22.3216 N   0  0  0  0  0  0
  -26.4193  -37.3447   23.9476 N   0  0  0  0  0  0
  -24.9178  -30.7471   22.0525 N   0  0  0  0  0  0
  -23.4215  -28.7447   23.3210 O   0  0  0  0  0  0
  -28.2579  -24.2509   20.2954 O   0  0  0  0  0  0
  -26.5998  -34.8741   22.4448 O   0  0  0  0  0  0
  -23.6500  -32.0371   23.5244 O   0  0  0  0  0  0
  -31.3672  -16.7487   18.4136 C   0  0  0  0  0  0
  -30.8028  -19.1052   20.9478 C   0  0  0  0  0  0
  -32.1120  -17.8928   19.8994 C   0  0  0  0  0  0
  -29.4574  -17.1849   17.9780 C   0  0  0  0  0  0
  -29.1714  -19.8366   20.1711 C   0  0  0  0  0  0
  -31.7466  -20.0441   18.9628 C   0  0  0  0  0  0
  -31.7489  -18.9301   17.5640 C   0  0  0  0  0  0
  -32.6616  -18.8497   18.8216 C   0  0  0  0  0  0
  -28.7547  -16.3027   17.0156 C   0  0  0  0  0  0
  -34.1619  -18.9057   18.7402 C   0  0  0  0  0  0
  -28.3132  -22.0172   20.2220 C   0  0  0  0  0  0
  -28.5130  -18.5322   18.9761 N   0  0  0  0  0  0
  -30.6952  -18.8415   18.7415 N   0  0  0  0  0  0
  -31.2874  -14.2650   18.9451 H   0  0  0  0  0  0
  -30.7251  -13.3729   20.2675 H   0  0  0  0  0  0
  -30.2753  -12.1209   18.1896 H   0  0  0  0  0  0
  -29.4515  -13.4628   17.4801 H   0  0  0  0  0  0
  -28.5430  -11.5686   19.6341 H   0  0  0  0  0  0
  -27.6543  -11.9997   18.2048 H   0  0  0  0  0  0
  -27.3184  -14.2201   19.0562 H   0  0  0  0  0  0
  -29.0823  -13.7214   21.4865 H   0  0  0  0  0  0
  -27.9973  -15.0053   21.3512 H   0  0  0  0  0  0
  -25.2876   -9.5629   22.4782 H   0  0  0  0  0  0
  -23.9953   -7.4702   22.7511 H   0  0  0  0  0  0
  -21.1013   -8.8894   19.8889 H   0  0  0  0  0  0
  -22.3994  -10.9692   19.6041 H   0  0  0  0  0  0
  -21.1859   -7.6050   23.9701 H   0  0  0  0  0  0
  -21.1672   -6.0483   25.9140 H   0  0  0  0  0  0
  -22.0471   -2.7504   23.3002 H   0  0  0  0  0  0
  -22.4080  -11.9766   22.4965 H   0  0  0  0  0  0
  -21.0997  -13.0966   22.2576 H   0  0  0  0  0  0
  -24.5910  -15.8784   20.5605 H   0  0  0  0  0  0
  -26.2245  -15.7112   20.1680 H   0  0  0  0  0  0
  -26.8069  -32.4292   23.0530 H   0  0  0  0  0  0
  -24.9920  -33.8673   24.9420 H   0  0  0  0  0  0
  -23.0088  -31.1000   21.1813 H   0  0  0  0  0  0
  -23.3852  -35.9120   23.3017 H   0  0  0  0  0  0
  -24.3568  -36.8956   22.2151 H   0  0  0  0  0  0
  -23.7114  -37.5892   23.7035 H   0  0  0  0  0  0
  -26.5334  -30.8009   20.6637 H   0  0  0  0  0  0
  -27.0783  -30.2337   22.1616 H   0  0  0  0  0  0
  -28.2490  -27.5969   21.4043 H   0  0  0  0  0  0
  -25.7811  -25.1887   18.9607 H   0  0  0  0  0  0
  -24.2058  -26.9432   18.8816 H   0  0  0  0  0  0
  -24.1744  -30.1593   19.3541 H   0  0  0  0  0  0
  -23.0300  -28.9371   19.7926 H   0  0  0  0  0  0
  -25.1384  -36.1142   25.0697 H   0  0  0  0  0  0
  -21.0100  -28.3537   24.1143 H   0  0  0  0  0  0
  -20.5575  -26.2485   23.3755 H   0  0  0  0  0  0
  -21.6648  -26.7215   22.1278 H   0  0  0  0  0  0
  -19.6935  -25.6203   21.1347 H   0  0  0  0  0  0
  -19.6784  -27.3057   20.6689 H   0  0  0  0  0  0
  -17.4234  -26.6719   21.3996 H   0  0  0  0  0  0
  -18.0358  -26.0171   22.9044 H   0  0  0  0  0  0
  -19.8033  -30.7441   24.2011 H   0  0  0  0  0  0
  -17.5085  -31.6289   24.5175 H   0  0  0  0  0  0
  -15.5422  -30.2945   23.7821 H   0  0  0  0  0  0
  -15.8750  -28.0802   22.7198 H   0  0  0  0  0  0
  -24.5848  -30.7168   25.7274 H   0  0  0  0  0  0
  -24.8731  -32.3134   26.4118 H   0  0  0  0  0  0
  -25.7564  -30.9199   27.0120 H   0  0  0  0  0  0
  -26.3659  -29.5959   24.2319 H   0  0  0  0  0  0
  -27.4176  -29.7411   25.6098 H   0  0  0  0  0  0
  -27.9675  -30.3603   24.0814 H   0  0  0  0  0  0
  -27.2444  -33.3918   26.1552 H   0  0  0  0  0  0
  -28.4091  -32.6766   25.0521 H   0  0  0  0  0  0
  -28.0442  -31.8971   26.5837 H   0  0  0  0  0  0
  -28.2306  -38.0068   24.7745 H   0  0  0  0  0  0
  -28.1300  -36.2623   24.5928 H   0  0  0  0  0  0
  -27.2333  -37.0730   25.8821 H   0  0  0  0  0  0
  -21.0306  -29.8375   21.5975 H   0  0  0  0  0  0
  -25.9913  -38.2397   24.1690 H   0  0  0  0  0  0
  -32.0071  -16.0186   17.9090 H   0  0  0  0  0  0
  -31.2842  -19.7006   21.7039 H   0  0  0  0  0  0
  -31.7323  -20.9856   18.3730 H   0  0  0  0  0  0
  -31.9840  -20.5777   19.8812 H   0  0  0  0  0  0
  -31.8955  -19.7659   16.8599 H   0  0  0  0  0  0
  -31.7739  -18.1750   16.7701 H   0  0  0  0  0  0
  -28.5086  -16.8187   16.0946 H   0  0  0  0  0  0
  -27.8661  -15.9536   17.5137 H   0  0  0  0  0  0
  -29.4180  -15.4528   16.8470 H   0  0  0  0  0  0
  -34.5406  -19.5148   19.5583 H   0  0  0  0  0  0
  -34.4526  -19.3642   17.8134 H   0  0  0  0  0  0
  -34.6574  -17.9260   18.7578 H   0  0  0  0  0  0
  -27.6195  -21.8368   21.0392 H   0  0  0  0  0  0
  -27.7353  -21.9037   19.3032 H   0  0  0  0  0  0
  1 25  1  0  0  0
  1 30  2  0  0  0
  1 83  1  0  0  0
  2  3  1  0  0  0
  2 25  1  0  0  0
  2 84  1  0  0  0
  2 85  1  0  0  0
  3  4  1  0  0  0
  3 86  1  0  0  0
  3 87  1  0  0  0
  4  5  1  0  0  0
  4 88  1  0  0  0
  4 89  1  0  0  0
  5  6  1  0  0  0
  5 26  1  0  0  0
  5 90  1  0  0  0
  6 25  1  0  0  0
  6 91  1  0  0  0
  6 92  1  0  0  0
  7  8  2  0  0  0
  7 26  1  0  0  0
  7 29  1  0  0  0
  8  9  1  0  0  0
  8 22  1  0  0  0
  9 10  1  0  0  0
  9 27  2  0  0  0
 10 11  2  0  0  0
 10 15  1  0  0  0
 11 12  1  0  0  0
 11 93  1  0  0  0
 12 13  2  0  0  0
 12 94  1  0  0  0
 13 14  1  0  0  0
 13 31  1  0  0  0
 14 15  2  0  0  0
 14 95  1  0  0  0
 15 96  1  0  0  0
 16 17  2  0  0  0
 16 21  1  0  0  0
 16 31  1  0  0  0
 17 18  1  0  0  0
 17 97  1  0  0  0
 18 19  2  0  0  0
 18 98  1  0  0  0
 19 20  1  0  0  0
 19 24  1  0  0  0
 20 21  2  0  0  0
 20 99  1  0  0  0
 21 23  1  0  0  0
 22 28  1  0  0  0
 22 32  2  0  0  0
 26 27  1  0  0  0
 28100  1  0  0  0
 28101  1  0  0  0
 29102  1  0  0  0
 29103  1  0  0  0
 33 34  1  0  0  0
 33 66  1  0  0  0
 33 70  2  0  0  0
 34 36  1  0  0  0
 34 59  1  0  0  0
 34104  1  0  0  0
 35 44  2  0  0  0
 35 45  1  0  0  0
 35 68  1  0  0  0
 36 56  1  0  0  0
 36105  1  0  0  0
 37 39  1  0  0  0
 37 47  1  0  0  0
 37 66  1  0  0  0
 37106  1  0  0  0
 38 43  2  0  0  0
 38 46  1  0  0  0
 38 47  1  0  0  0
 39 64  1  0  0  0
 39 67  2  0  0  0
 40 52  1  0  0  0
 40 53  2  0  0  0
 40 58  1  0  0  0
 41107  1  0  0  0
 41108  1  0  0  0
 41109  1  0  0  0
 41 48  1  0  0  0
 42 43  1  0  0  0
 42 66  1  0  0  0
 42110  1  0  0  0
 42111  1  0  0  0
 43 44  1  0  0  0
 44112  1  0  0  0
 45 46  2  0  0  0
 45113  1  0  0  0
 46114  1  0  0  0
 47115  1  0  0  0
 47116  1  0  0  0
 48 56  1  0  0  0
 48 65  1  0  0  0
 48117  1  0  0  0
 49 50  1  0  0  0
 49 53  1  0  0  0
 49 64  1  0  0  0
 49118  1  0  0  0
 50 51  1  0  0  0
 50119  1  0  0  0
 50120  1  0  0  0
 51 52  1  0  0  0
 51121  1  0  0  0
 51122  1  0  0  0
 52123  1  0  0  0
 52124  1  0  0  0
 53 54  1  0  0  0
 54 55  2  0  0  0
 54125  1  0  0  0
 55 57  1  0  0  0
 55126  1  0  0  0
 56 69  2  0  0  0
 57 58  2  0  0  0
 57127  1  0  0  0
 58128  1  0  0  0
 59 60  1  0  0  0
 59 61  1  0  0  0
 59 62  1  0  0  0
 60129  1  0  0  0
 60130  1  0  0  0
 60131  1  0  0  0
 61132  1  0  0  0
 61133  1  0  0  0
 61134  1  0  0  0
 62135  1  0  0  0
 62136  1  0  0  0
 62137  1  0  0  0
 63 65  1  0  0  0
 63138  1  0  0  0
 63139  1  0  0  0
 63140  1  0  0  0
 64141  1  0  0  0
 65142  1  0  0  0
 68 81  1  0  0  0
 71 73  2  0  0  0
 71 74  1  0  0  0
 71143  1  0  0  0
 72 73  1  0  0  0
 72 75  2  0  0  0
 72144  1  0  0  0
 73 78  1  0  0  0
 74 79  1  0  0  0
 74 82  2  0  0  0
 75 81  1  0  0  0
 75 82  1  0  0  0
 76 78  1  0  0  0
 76 83  1  0  0  0
 76145  1  0  0  0
 76146  1  0  0  0
 77 78  1  0  0  0
 77 83  1  0  0  0
 77147  1  0  0  0
 77148  1  0  0  0
 78 80  1  0  0  0
 79149  1  0  0  0
 79150  1  0  0  0
 79151  1  0  0  0
 80152  1  0  0  0
 80153  1  0  0  0
 80154  1  0  0  0
 81155  1  0  0  0
 81156  1  0  0  0
M  ISO  4   1 100  68 101  81 101  83 100
M  END
> <chiral flag>
0

> <version>
0

> <s_m_source_file>
/data/baiqing/PycharmProjects/Reinvent-master-3.2/result/LINK_invent/BTK/process_docking_weight1_custom_sum_contain_oxygen_bond_distance_aromatic_linkinvent_7_9_3/rearranged_h_0186.sdf

> <i_m_source_file_index>
12

> <r_mmod_Potential_Energy-OPLS-2005>
18605.5546875

> <r_mmod_Stretch_Energy-OPLS-2005>
10407.279296875

> <r_mmod_Bend_Energy-OPLS-2005>
1524.75769042969

> <r_mmod_Torsional_Energy-OPLS-2005>
499.914916992188

> <r_mmod_Improper_Torsional_Energy-OPLS-2005>
125.887008666992

> <r_mmod_Van_der_Waal_Energy-OPLS-2005>
3018.24438476562

> <r_mmod_Electrostatic_Energy-OPLS-2005>
-450.182342529297

> <r_mmod_Solvation_Energy-OPLS-2005>
-224.377731323242

> <b_mmod_Minimization_Converged-OPLS-2005>
0

> <r_mmod_RMS_Derivative-OPLS-2005>
26.1494731903076

$$$$
12
                    3D
 Structure written by MMmdl.
156165  0  0  1  0            999 V2000
  -30.6237  -14.9591   20.4324 C   0  0  0  0  0  0
  -30.4152  -12.6087   19.5044 C   0  0  0  0  0  0
  -29.5129  -12.5381   18.2567 C   0  0  0  0  0  0
  -28.0446  -12.3360   18.6699 C   0  0  0  0  0  0
  -27.6196  -13.2660   19.8382 C   0  0  2  0  0  0
  -28.6653  -13.3326   20.9715 C   0  0  0  0  0  0
  -25.2402  -13.8248   20.5742 C   0  0  0  0  0  0
  -24.1741  -13.0453   20.9257 C   0  0  0  0  0  0
  -24.6374  -11.6940   20.8760 C   0  0  0  0  0  0
  -23.9060  -10.4300   21.0402 C   0  0  0  0  0  0
  -24.3606   -9.4221   21.9198 C   0  0  0  0  0  0
  -23.6274   -8.2250   22.0768 C   0  0  0  0  0  0
  -22.4264   -8.0278   21.3547 C   0  0  0  0  0  0
  -21.9894   -9.0250   20.4655 C   0  0  0  0  0  0
  -22.7216  -10.2134   20.3067 C   0  0  0  0  0  0
  -21.6849   -6.0718   22.5262 C   0  0  0  0  0  0
  -21.4004   -6.5622   23.8193 C   0  0  0  0  0  0
  -21.3671   -5.6783   24.9165 C   0  0  0  0  0  0
  -21.6055   -4.3041   24.7218 C   0  0  0  0  0  0
  -21.8815   -3.8130   23.4339 C   0  0  0  0  0  0
  -21.9197   -4.6948   22.3393 C   0  0  0  0  0  0
  -22.7764  -13.5223   21.1896 C   0  0  0  0  0  0
  -22.1681   -4.2132   21.0969 F   0  0  0  0  0  0
  -21.5643   -3.4532   25.7733 F   0  0  0  0  0  0
  -29.9272  -13.7473   20.3476 N   0  0  0  0  0  0
  -26.2842  -12.9515   20.3293 N   0  0  0  0  0  0
  -25.9312  -11.6620   20.5750 N   0  0  0  0  0  0
  -22.0396  -12.8220   22.0445 N   0  0  0  0  0  0
  -25.4068  -15.1969   20.4103 N   0  0  0  0  0  0
  -31.8381  -14.8591   20.2163 O   0  0  0  0  0  0
  -21.6645   -6.8864   21.4225 O   0  0  0  0  0  0
  -22.3454  -14.5525   20.6720 O   0  0  0  0  0  0
  -24.6459  -31.8441   23.1860 C   0  0  0  0  0  0
  -25.9220  -32.4686   23.8260 C   0  0  1  0  0  0
  -27.2047  -27.1013   20.1422 C   0  0  0  0  0  0
  -25.5962  -33.8497   24.2160 N   0  0  0  0  0  0
  -23.4492  -30.4645   21.5343 C   0  0  2  0  0  0
  -24.8943  -28.8940   20.1072 C   0  0  0  0  0  0
  -22.7571  -29.4546   22.4852 C   0  0  0  0  0  0
  -18.0298  -28.1384   22.8489 C   0  0  0  0  0  0
  -24.1506  -36.7245   23.2640 C   0  0  0  0  0  0
  -26.0091  -30.7066   21.3907 C   0  0  0  0  0  0
  -26.0756  -29.3174   20.7266 C   0  0  0  0  0  0
  -27.2272  -28.4390   20.7271 C   0  0  0  0  0  0
  -25.9844  -26.7914   19.4932 C   0  0  0  0  0  0
  -24.8644  -27.6449   19.4756 C   0  0  0  0  0  0
  -23.6739  -29.7989   20.1529 C   0  0  0  0  0  0
  -25.4138  -36.3017   24.0300 C   0  0  1  0  0  0
  -20.5922  -28.3715   23.1241 C   0  0  2  0  0  0
  -20.6792  -26.9423   22.5416 C   0  0  0  0  0  0
  -19.5760  -26.6384   21.5224 C   0  0  0  0  0  0
  -18.1937  -26.7929   22.1628 C   0  0  0  0  0  0
  -19.1561  -28.8866   23.2866 C   0  0  0  0  0  0
  -18.9467  -30.1466   23.8895 C   0  0  0  0  0  0
  -17.6461  -30.6597   24.0552 C   0  0  0  0  0  0
  -25.9095  -34.9402   23.5046 C   0  0  0  0  0  0
  -16.5353  -29.9082   23.6346 C   0  0  0  0  0  0
  -16.7282  -28.6496   23.0370 C   0  0  0  0  0  0
  -26.4531  -31.6562   25.0718 C   0  0  0  0  0  0
  -25.3710  -31.3755   26.1404 C   0  0  0  0  0  0
  -27.0366  -30.2938   24.6324 C   0  0  0  0  0  0
  -27.6051  -32.4332   25.7523 C   0  0  0  0  0  0
  -27.5571  -37.1780   24.8458 C   0  0  0  0  0  0
  -21.4262  -29.3051   22.3605 N   0  0  0  0  0  0
  -26.4285  -37.3738   23.9402 N   0  0  0  0  0  0
  -24.7214  -31.0269   22.0911 N   0  0  0  0  0  0
  -23.4207  -28.8077   23.2999 O   0  0  0  0  0  0
  -28.2583  -26.1021   20.2606 O   0  0  0  0  0  0
  -26.5676  -34.8911   22.4626 O   0  0  0  0  0  0
  -23.5581  -32.1322   23.7076 O   0  0  0  0  0  0
  -27.7793  -23.2596   18.1761 C   0  0  0  0  0  0
  -28.6118  -22.3655   20.0448 C   0  0  0  0  0  0
  -28.1783  -24.7127   19.8511 C   0  0  0  0  0  0
  -28.3539  -18.4465   20.7893 C   0  0  0  0  0  0
  -30.6443  -18.9878   20.7324 C   0  0  0  0  0  0
  -28.6749  -16.8665   20.4661 C   0  0  0  0  0  0
  -31.0118  -17.4778   20.3110 C   0  0  0  0  0  0
  -29.2884  -19.6314   20.2607 C   0  0  0  0  0  0
  -27.2121  -23.0461   16.7886 C   0  0  0  0  0  0
  -28.1746  -22.1612   18.8188 N   0  0  0  0  0  0
  -27.7822  -24.5232   18.5983 N   0  0  0  0  0  0
  -28.6424  -23.6370   20.6195 N   0  0  0  0  0  0
  -30.0786  -16.3002   20.5262 N   0  0  0  0  0  0
  -29.0356  -21.1191   20.7200 N   0  0  0  0  0  0
  -31.4538  -12.7294   19.1926 H   0  0  0  0  0  0
  -30.3925  -11.6668   20.0552 H   0  0  0  0  0  0
  -29.8302  -11.7256   17.6027 H   0  0  0  0  0  0
  -29.6195  -13.4596   17.6800 H   0  0  0  0  0  0
  -27.9278  -11.2927   18.9644 H   0  0  0  0  0  0
  -27.3894  -12.4859   17.8115 H   0  0  0  0  0  0
  -27.5699  -14.2647   19.4026 H   0  0  0  0  0  0
  -28.7635  -12.3649   21.4672 H   0  0  0  0  0  0
  -28.3686  -14.0455   21.7414 H   0  0  0  0  0  0
  -25.2743   -9.5700   22.4793 H   0  0  0  0  0  0
  -23.9987   -7.4629   22.7468 H   0  0  0  0  0  0
  -21.0837   -8.8727   19.8940 H   0  0  0  0  0  0
  -22.3640  -10.9671   19.6177 H   0  0  0  0  0  0
  -21.1976   -7.6121   23.9682 H   0  0  0  0  0  0
  -21.1533   -6.0527   25.9067 H   0  0  0  0  0  0
  -22.0593   -2.7588   23.2839 H   0  0  0  0  0  0
  -22.3972  -11.9887   22.4884 H   0  0  0  0  0  0
  -21.1005  -13.1264   22.2588 H   0  0  0  0  0  0
  -24.6396  -15.8527   20.5043 H   0  0  0  0  0  0
  -26.2552  -15.6252   20.0658 H   0  0  0  0  0  0
  -26.7268  -32.5286   23.0973 H   0  0  0  0  0  0
  -25.0053  -33.9629   25.0262 H   0  0  0  0  0  0
  -22.7538  -31.2919   21.3835 H   0  0  0  0  0  0
  -23.3770  -35.9576   23.3292 H   0  0  0  0  0  0
  -24.3585  -36.8906   22.2059 H   0  0  0  0  0  0
  -23.7260  -37.6438   23.6690 H   0  0  0  0  0  0
  -26.1741  -31.4618   20.6217 H   0  0  0  0  0  0
  -26.8760  -30.7504   22.0366 H   0  0  0  0  0  0
  -28.1259  -28.7590   21.2376 H   0  0  0  0  0  0
  -25.8256  -25.8383   19.0180 H   0  0  0  0  0  0
  -23.9605  -27.3124   18.9852 H   0  0  0  0  0  0
  -23.8086  -30.5764   19.4011 H   0  0  0  0  0  0
  -22.7868  -29.2439   19.8440 H   0  0  0  0  0  0
  -25.1334  -36.1830   25.0785 H   0  0  0  0  0  0
  -21.0011  -28.3315   24.1357 H   0  0  0  0  0  0
  -20.5689  -26.2336   23.3637 H   0  0  0  0  0  0
  -21.6652  -26.7434   22.1203 H   0  0  0  0  0  0
  -19.6933  -25.6290   21.1268 H   0  0  0  0  0  0
  -19.6696  -27.3190   20.6746 H   0  0  0  0  0  0
  -17.4210  -26.6673   21.4031 H   0  0  0  0  0  0
  -18.0331  -26.0078   22.9026 H   0  0  0  0  0  0
  -19.7941  -30.7291   24.2272 H   0  0  0  0  0  0
  -17.5009  -31.6292   24.5124 H   0  0  0  0  0  0
  -15.5353  -30.2967   23.7696 H   0  0  0  0  0  0
  -15.8674  -28.0815   22.7084 H   0  0  0  0  0  0
  -24.5896  -30.7101   25.7711 H   0  0  0  0  0  0
  -24.8901  -32.2948   26.4770 H   0  0  0  0  0  0
  -25.7999  -30.8960   27.0218 H   0  0  0  0  0  0
  -26.2961  -29.6682   24.1326 H   0  0  0  0  0  0
  -27.3920  -29.7229   25.4915 H   0  0  0  0  0  0
  -27.8923  -30.4131   23.9670 H   0  0  0  0  0  0
  -27.2607  -33.3638   26.2057 H   0  0  0  0  0  0
  -28.3898  -32.6892   25.0385 H   0  0  0  0  0  0
  -28.0679  -31.8489   26.5494 H   0  0  0  0  0  0
  -28.2570  -38.0089   24.7505 H   0  0  0  0  0  0
  -28.1084  -36.2621   24.6284 H   0  0  0  0  0  0
  -27.2296  -37.1427   25.8863 H   0  0  0  0  0  0
  -20.9446  -29.8749   21.6790 H   0  0  0  0  0  0
  -26.0147  -38.2806   24.1413 H   0  0  0  0  0  0
  -28.2969  -18.5388   21.8754 H   0  0  0  0  0  0
  -27.3368  -18.6491   20.4495 H   0  0  0  0  0  0
  -31.4576  -19.6292   20.3912 H   0  0  0  0  0  0
  -30.6885  -19.0377   21.8219 H   0  0  0  0  0  0
  -28.3157  -16.6599   19.4571 H   0  0  0  0  0  0
  -28.0534  -16.2635   21.1259 H   0  0  0  0  0  0
  -31.9538  -17.2560   20.8180 H   0  0  0  0  0  0
  -31.2549  -17.4850   19.2475 H   0  0  0  0  0  0
  -29.2614  -19.6275   19.1705 H   0  0  0  0  0  0
  -27.5716  -22.1169   16.3456 H   0  0  0  0  0  0
  -27.4885  -23.8633   16.1217 H   0  0  0  0  0  0
  -26.1234  -23.0030   16.8331 H   0  0  0  0  0  0
  -29.3529  -21.2956   21.6660 H   0  0  0  0  0  0
  1 25  1  0  0  0
  1 30  2  0  0  0
  1 83  1  0  0  0
  2  3  1  0  0  0
  2 25  1  0  0  0
  2 85  1  0  0  0
  2 86  1  0  0  0
  3  4  1  0  0  0
  3 87  1  0  0  0
  3 88  1  0  0  0
  4  5  1  0  0  0
  4 89  1  0  0  0
  4 90  1  0  0  0
  5  6  1  0  0  0
  5 26  1  0  0  0
  5 91  1  0  0  0
  6 25  1  0  0  0
  6 92  1  0  0  0
  6 93  1  0  0  0
  7  8  2  0  0  0
  7 26  1  0  0  0
  7 29  1  0  0  0
  8  9  1  0  0  0
  8 22  1  0  0  0
  9 10  1  0  0  0
  9 27  2  0  0  0
 10 11  2  0  0  0
 10 15  1  0  0  0
 11 12  1  0  0  0
 11 94  1  0  0  0
 12 13  2  0  0  0
 12 95  1  0  0  0
 13 14  1  0  0  0
 13 31  1  0  0  0
 14 15  2  0  0  0
 14 96  1  0  0  0
 15 97  1  0  0  0
 16 17  2  0  0  0
 16 21  1  0  0  0
 16 31  1  0  0  0
 17 18  1  0  0  0
 17 98  1  0  0  0
 18 19  2  0  0  0
 18 99  1  0  0  0
 19 20  1  0  0  0
 19 24  1  0  0  0
 20 21  2  0  0  0
 20100  1  0  0  0
 21 23  1  0  0  0
 22 28  1  0  0  0
 22 32  2  0  0  0
 26 27  1  0  0  0
 28101  1  0  0  0
 28102  1  0  0  0
 29103  1  0  0  0
 29104  1  0  0  0
 33 34  1  0  0  0
 33 66  1  0  0  0
 33 70  2  0  0  0
 34 36  1  0  0  0
 34 59  1  0  0  0
 34105  1  0  0  0
 35 44  2  0  0  0
 35 45  1  0  0  0
 35 68  1  0  0  0
 36 56  1  0  0  0
 36106  1  0  0  0
 37 39  1  0  0  0
 37 47  1  0  0  0
 37 66  1  0  0  0
 37107  1  0  0  0
 38 43  2  0  0  0
 38 46  1  0  0  0
 38 47  1  0  0  0
 39 64  1  0  0  0
 39 67  2  0  0  0
 40 52  1  0  0  0
 40 53  2  0  0  0
 40 58  1  0  0  0
 41108  1  0  0  0
 41109  1  0  0  0
 41110  1  0  0  0
 41 48  1  0  0  0
 42 43  1  0  0  0
 42 66  1  0  0  0
 42111  1  0  0  0
 42112  1  0  0  0
 43 44  1  0  0  0
 44113  1  0  0  0
 45 46  2  0  0  0
 45114  1  0  0  0
 46115  1  0  0  0
 47116  1  0  0  0
 47117  1  0  0  0
 48 56  1  0  0  0
 48 65  1  0  0  0
 48118  1  0  0  0
 49 50  1  0  0  0
 49 53  1  0  0  0
 49 64  1  0  0  0
 49119  1  0  0  0
 50 51  1  0  0  0
 50120  1  0  0  0
 50121  1  0  0  0
 51 52  1  0  0  0
 51122  1  0  0  0
 51123  1  0  0  0
 52124  1  0  0  0
 52125  1  0  0  0
 53 54  1  0  0  0
 54 55  2  0  0  0
 54126  1  0  0  0
 55 57  1  0  0  0
 55127  1  0  0  0
 56 69  2  0  0  0
 57 58  2  0  0  0
 57128  1  0  0  0
 58129  1  0  0  0
 59 60  1  0  0  0
 59 61  1  0  0  0
 59 62  1  0  0  0
 60130  1  0  0  0
 60131  1  0  0  0
 60132  1  0  0  0
 61133  1  0  0  0
 61134  1  0  0  0
 61135  1  0  0  0
 62136  1  0  0  0
 62137  1  0  0  0
 62138  1  0  0  0
 63 65  1  0  0  0
 63139  1  0  0  0
 63140  1  0  0  0
 63141  1  0  0  0
 64142  1  0  0  0
 65143  1  0  0  0
 68 73  1  0  0  0
 71 79  1  0  0  0
 71 80  2  0  0  0
 71 81  1  0  0  0
 72 80  1  0  0  0
 72 82  2  0  0  0
 72 84  1  0  0  0
 73 81  2  0  0  0
 73 82  1  0  0  0
 74 76  1  0  0  0
 74 78  1  0  0  0
 74144  1  0  0  0
 74145  1  0  0  0
 75 77  1  0  0  0
 75 78  1  0  0  0
 75146  1  0  0  0
 75147  1  0  0  0
 76 83  1  0  0  0
 76148  1  0  0  0
 76149  1  0  0  0
 77 83  1  0  0  0
 77150  1  0  0  0
 77151  1  0  0  0
 78 84  1  0  0  0
 78152  1  0  0  0
 79153  1  0  0  0
 79154  1  0  0  0
 79155  1  0  0  0
 84156  1  0  0  0
M  ISO  4   1 100  68 101  73 101  83 100
M  END
> <chiral flag>
0

> <version>
0

> <s_m_source_file>
/data/baiqing/PycharmProjects/Reinvent-master-3.2/result/LINK_invent/BTK/process_docking_weight1_custom_sum_contain_oxygen_bond_distance_aromatic_linkinvent_7_9_3/rearranged_h_0186.sdf

> <i_m_source_file_index>
13

> <r_mmod_Potential_Energy-OPLS-2005>
-13.4493761062622

> <r_mmod_Stretch_Energy-OPLS-2005>
236.051620483398

> <r_mmod_Bend_Energy-OPLS-2005>
321.309143066406

> <r_mmod_Torsional_Energy-OPLS-2005>
301.1416015625

> <r_mmod_Improper_Torsional_Energy-OPLS-2005>
6.64108371734619

> <r_mmod_Van_der_Waal_Energy-OPLS-2005>
162.70817565918

> <r_mmod_Electrostatic_Energy-OPLS-2005>
-1020.85485839844

> <r_mmod_Solvation_Energy-OPLS-2005>
-231.753128051758

> <b_mmod_Minimization_Converged-OPLS-2005>
0

> <r_mmod_RMS_Derivative-OPLS-2005>
2.49361968040466

$$$$
13
                    3D
 Structure written by MMmdl.
150158  0  0  1  0            999 V2000
  -30.4264  -15.2140   20.3756 C   0  0  0  0  0  0
  -30.4460  -12.7668   19.5201 C   0  0  0  0  0  0
  -29.5359  -12.5758   18.2793 C   0  0  0  0  0  0
  -28.0786  -12.3119   18.7004 C   0  0  0  0  0  0
  -27.6181  -13.2693   19.8277 C   0  0  2  0  0  0
  -28.6550  -13.3970   20.9648 C   0  0  0  0  0  0
  -25.2414  -13.8237   20.5731 C   0  0  0  0  0  0
  -24.1762  -13.0437   20.9261 C   0  0  0  0  0  0
  -24.6407  -11.6932   20.8762 C   0  0  0  0  0  0
  -23.9092  -10.4294   21.0412 C   0  0  0  0  0  0
  -24.3638   -9.4205   21.9186 C   0  0  0  0  0  0
  -23.6306   -8.2244   22.0753 C   0  0  0  0  0  0
  -22.4285   -8.0288   21.3546 C   0  0  0  0  0  0
  -21.9927   -9.0266   20.4651 C   0  0  0  0  0  0
  -22.7264  -10.2142   20.3062 C   0  0  0  0  0  0
  -21.6854   -6.0743   22.5280 C   0  0  0  0  0  0
  -21.4018   -6.5642   23.8217 C   0  0  0  0  0  0
  -21.3660   -5.6790   24.9175 C   0  0  0  0  0  0
  -21.6044   -4.3052   24.7223 C   0  0  0  0  0  0
  -21.8817   -3.8150   23.4340 C   0  0  0  0  0  0
  -21.9193   -4.6971   22.3399 C   0  0  0  0  0  0
  -22.7778  -13.5202   21.1904 C   0  0  0  0  0  0
  -22.1661   -4.2157   21.0976 F   0  0  0  0  0  0
  -21.5629   -3.4533   25.7732 F   0  0  0  0  0  0
  -29.8971  -13.8956   20.3525 N   0  0  0  0  0  0
  -26.2843  -12.9503   20.3206 N   0  0  0  0  0  0
  -25.9342  -11.6616   20.5712 N   0  0  0  0  0  0
  -22.0427  -12.8197   22.0461 N   0  0  0  0  0  0
  -25.4031  -15.1974   20.4136 N   0  0  0  0  0  0
  -31.6394  -15.2622   20.1206 O   0  0  0  0  0  0
  -21.6644   -6.8889   21.4244 O   0  0  0  0  0  0
  -22.3462  -14.5504   20.6737 O   0  0  0  0  0  0
  -24.6594  -31.8257   23.1721 C   0  0  0  0  0  0
  -25.9289  -32.4601   23.8175 C   0  0  1  0  0  0
  -27.2199  -26.9571   20.1819 C   0  0  0  0  0  0
  -25.5969  -33.8414   24.2080 N   0  0  0  0  0  0
  -23.4727  -30.4376   21.5202 C   0  0  2  0  0  0
  -24.9262  -28.8278   20.1101 C   0  0  0  0  0  0
  -22.7649  -29.4448   22.4792 C   0  0  0  0  0  0
  -18.0320  -28.1403   22.8461 C   0  0  0  0  0  0
  -24.1497  -36.7214   23.2644 C   0  0  0  0  0  0
  -26.0389  -30.6411   21.3983 C   0  0  0  0  0  0
  -26.1075  -29.2341   20.7428 C   0  0  0  0  0  0
  -27.2485  -28.3182   20.7554 C   0  0  0  0  0  0
  -26.0125  -26.6949   19.4981 C   0  0  0  0  0  0
  -24.9022  -27.5781   19.4684 C   0  0  0  0  0  0
  -23.7101  -29.7513   20.1462 C   0  0  0  0  0  0
  -25.4137  -36.2973   24.0298 C   0  0  1  0  0  0
  -20.5940  -28.3739   23.1199 C   0  0  2  0  0  0
  -20.6792  -26.9421   22.5411 C   0  0  0  0  0  0
  -19.5775  -26.6365   21.5213 C   0  0  0  0  0  0
  -18.1953  -26.7939   22.1612 C   0  0  0  0  0  0
  -19.1579  -28.8893   23.2817 C   0  0  0  0  0  0
  -18.9488  -30.1485   23.8849 C   0  0  0  0  0  0
  -17.6480  -30.6595   24.0548 C   0  0  0  0  0  0
  -25.9095  -34.9357   23.5010 C   0  0  0  0  0  0
  -16.5372  -29.9077   23.6342 C   0  0  0  0  0  0
  -16.7300  -28.6498   23.0360 C   0  0  0  0  0  0
  -26.4539  -31.6548   25.0704 C   0  0  0  0  0  0
  -25.3662  -31.3818   26.1364 C   0  0  0  0  0  0
  -27.0408  -30.2906   24.6435 C   0  0  0  0  0  0
  -27.6049  -32.4342   25.7493 C   0  0  0  0  0  0
  -27.5578  -37.1761   24.8457 C   0  0  0  0  0  0
  -21.4323  -29.3033   22.3547 N   0  0  0  0  0  0
  -26.4283  -37.3707   23.9407 N   0  0  0  0  0  0
  -24.7446  -30.9949   22.0837 N   0  0  0  0  0  0
  -23.4213  -28.8019   23.3021 O   0  0  0  0  0  0
  -28.2348  -25.8783   20.2825 O   0  0  0  0  0  0
  -26.5703  -34.8888   22.4603 O   0  0  0  0  0  0
  -23.5674  -32.1209   23.6839 O   0  0  0  0  0  0
  -28.3529  -18.7877   20.8126 C   0  0  0  0  0  0
  -29.0808  -21.1281   20.3476 C   0  0  0  0  0  0
  -29.5402  -18.0189   20.4265 C   0  0  0  0  0  0
  -30.2846  -20.3755   19.9564 C   0  0  0  0  0  0
  -32.7321  -20.5431   19.6319 C   0  0  0  0  0  0
  -28.9812  -22.8553   20.6183 C   0  0  0  0  0  0
  -28.0612  -24.2652   20.0281 C   0  0  0  0  0  0
  -28.1416  -20.2000   20.7963 N   0  0  0  0  0  0
  -30.4794  -18.9564   19.9849 N   0  0  0  0  0  0
  -29.5800  -16.4095   20.5246 N   0  0  0  0  0  0
  -31.3942  -21.1166   19.5343 N   0  0  0  0  0  0
  -31.4668  -12.9703   19.1946 H   0  0  0  0  0  0
  -30.5033  -11.8450   20.1013 H   0  0  0  0  0  0
  -29.9025  -11.7573   17.6577 H   0  0  0  0  0  0
  -29.5777  -13.4726   17.6590 H   0  0  0  0  0  0
  -28.0149  -11.2805   19.0482 H   0  0  0  0  0  0
  -27.4124  -12.3856   17.8396 H   0  0  0  0  0  0
  -27.5469  -14.2484   19.3529 H   0  0  0  0  0  0
  -28.8062  -12.4444   21.4746 H   0  0  0  0  0  0
  -28.3061  -14.0996   21.7227 H   0  0  0  0  0  0
  -25.2781   -9.5683   22.4763 H   0  0  0  0  0  0
  -24.0015   -7.4632   22.7468 H   0  0  0  0  0  0
  -21.0859   -8.8797   19.8957 H   0  0  0  0  0  0
  -22.3724  -10.9686   19.6176 H   0  0  0  0  0  0
  -21.2011   -7.6150   23.9724 H   0  0  0  0  0  0
  -21.1484   -6.0517   25.9079 H   0  0  0  0  0  0
  -22.0595   -2.7615   23.2834 H   0  0  0  0  0  0
  -22.4050  -11.9869   22.4860 H   0  0  0  0  0  0
  -21.1045  -13.1226   22.2661 H   0  0  0  0  0  0
  -24.6186  -15.8333   20.5081 H   0  0  0  0  0  0
  -26.2090  -15.6275   19.9807 H   0  0  0  0  0  0
  -26.7357  -32.5141   23.0891 H   0  0  0  0  0  0
  -25.0067  -33.9492   25.0198 H   0  0  0  0  0  0
  -22.7838  -31.2679   21.3511 H   0  0  0  0  0  0
  -23.3770  -35.9533   23.3275 H   0  0  0  0  0  0
  -24.3573  -36.8890   22.2064 H   0  0  0  0  0  0
  -23.7244  -37.6391   23.6717 H   0  0  0  0  0  0
  -26.2168  -31.3844   20.6202 H   0  0  0  0  0  0
  -26.9000  -30.6963   22.0524 H   0  0  0  0  0  0
  -28.1420  -28.6233   21.2822 H   0  0  0  0  0  0
  -25.8940  -25.7383   19.0096 H   0  0  0  0  0  0
  -24.0039  -27.2612   18.9564 H   0  0  0  0  0  0
  -23.8601  -30.5184   19.3859 H   0  0  0  0  0  0
  -22.8207  -29.2017   19.8328 H   0  0  0  0  0  0
  -25.1340  -36.1768   25.0789 H   0  0  0  0  0  0
  -21.0027  -28.3346   24.1323 H   0  0  0  0  0  0
  -20.5654  -26.2358   23.3651 H   0  0  0  0  0  0
  -21.6663  -26.7389   22.1235 H   0  0  0  0  0  0
  -19.6934  -25.6257   21.1287 H   0  0  0  0  0  0
  -19.6734  -27.3139   20.6715 H   0  0  0  0  0  0
  -17.4229  -26.6682   21.4010 H   0  0  0  0  0  0
  -18.0344  -26.0094   22.9019 H   0  0  0  0  0  0
  -19.7959  -30.7314   24.2202 H   0  0  0  0  0  0
  -17.5029  -31.6274   24.5152 H   0  0  0  0  0  0
  -15.5368  -30.2958   23.7699 H   0  0  0  0  0  0
  -15.8702  -28.0800   22.7102 H   0  0  0  0  0  0
  -24.5868  -30.7132   25.7687 H   0  0  0  0  0  0
  -24.8811  -32.3021   26.4628 H   0  0  0  0  0  0
  -25.7886  -30.9104   27.0246 H   0  0  0  0  0  0
  -26.3056  -29.6605   24.1417 H   0  0  0  0  0  0
  -27.3896  -29.7265   25.5095 H   0  0  0  0  0  0
  -27.9026  -30.4074   23.9862 H   0  0  0  0  0  0
  -27.2637  -33.3682   26.1970 H   0  0  0  0  0  0
  -28.3908  -32.6839   25.0352 H   0  0  0  0  0  0
  -28.0664  -31.8532   26.5489 H   0  0  0  0  0  0
  -28.2577  -38.0075   24.7507 H   0  0  0  0  0  0
  -28.1093  -36.2602   24.6277 H   0  0  0  0  0  0
  -27.2297  -37.1401   25.8860 H   0  0  0  0  0  0
  -20.9569  -29.8720   21.6680 H   0  0  0  0  0  0
  -26.0135  -38.2768   24.1413 H   0  0  0  0  0  0
  -27.5019  -18.2345   21.1830 H   0  0  0  0  0  0
  -33.4871  -21.3131   19.4677 H   0  0  0  0  0  0
  -32.8808  -19.7616   18.8852 H   0  0  0  0  0  0
  -32.9053  -20.1124   20.6197 H   0  0  0  0  0  0
  -30.0127  -23.1771   20.4942 H   0  0  0  0  0  0
  -28.8429  -22.8989   21.6981 H   0  0  0  0  0  0
  -27.0242  -24.0508   20.2865 H   0  0  0  0  0  0
  -28.0889  -24.1801   18.9415 H   0  0  0  0  0  0
  -28.6607  -16.0754   20.7662 H   0  0  0  0  0  0
  -31.3149  -22.1286   19.5830 H   0  0  0  0  0  0
  1 25  1  0  0  0
  1 30  2  0  0  0
  1 80  1  0  0  0
  2  3  1  0  0  0
  2 25  1  0  0  0
  2 82  1  0  0  0
  2 83  1  0  0  0
  3  4  1  0  0  0
  3 84  1  0  0  0
  3 85  1  0  0  0
  4  5  1  0  0  0
  4 86  1  0  0  0
  4 87  1  0  0  0
  5  6  1  0  0  0
  5 26  1  0  0  0
  5 88  1  0  0  0
  6 25  1  0  0  0
  6 89  1  0  0  0
  6 90  1  0  0  0
  7  8  2  0  0  0
  7 26  1  0  0  0
  7 29  1  0  0  0
  8  9  1  0  0  0
  8 22  1  0  0  0
  9 10  1  0  0  0
  9 27  2  0  0  0
 10 11  2  0  0  0
 10 15  1  0  0  0
 11 12  1  0  0  0
 11 91  1  0  0  0
 12 13  2  0  0  0
 12 92  1  0  0  0
 13 14  1  0  0  0
 13 31  1  0  0  0
 14 15  2  0  0  0
 14 93  1  0  0  0
 15 94  1  0  0  0
 16 17  2  0  0  0
 16 21  1  0  0  0
 16 31  1  0  0  0
 17 18  1  0  0  0
 17 95  1  0  0  0
 18 19  2  0  0  0
 18 96  1  0  0  0
 19 20  1  0  0  0
 19 24  1  0  0  0
 20 21  2  0  0  0
 20 97  1  0  0  0
 21 23  1  0  0  0
 22 28  1  0  0  0
 22 32  2  0  0  0
 26 27  1  0  0  0
 28 98  1  0  0  0
 28 99  1  0  0  0
 29100  1  0  0  0
 29101  1  0  0  0
 33 34  1  0  0  0
 33 66  1  0  0  0
 33 70  2  0  0  0
 34 36  1  0  0  0
 34 59  1  0  0  0
 34102  1  0  0  0
 35 44  2  0  0  0
 35 45  1  0  0  0
 35 68  1  0  0  0
 36 56  1  0  0  0
 36103  1  0  0  0
 37 39  1  0  0  0
 37 47  1  0  0  0
 37 66  1  0  0  0
 37104  1  0  0  0
 38 43  2  0  0  0
 38 46  1  0  0  0
 38 47  1  0  0  0
 39 64  1  0  0  0
 39 67  2  0  0  0
 40 52  1  0  0  0
 40 53  2  0  0  0
 40 58  1  0  0  0
 41105  1  0  0  0
 41106  1  0  0  0
 41107  1  0  0  0
 41 48  1  0  0  0
 42 43  1  0  0  0
 42 66  1  0  0  0
 42108  1  0  0  0
 42109  1  0  0  0
 43 44  1  0  0  0
 44110  1  0  0  0
 45 46  2  0  0  0
 45111  1  0  0  0
 46112  1  0  0  0
 47113  1  0  0  0
 47114  1  0  0  0
 48 56  1  0  0  0
 48 65  1  0  0  0
 48115  1  0  0  0
 49 50  1  0  0  0
 49 53  1  0  0  0
 49 64  1  0  0  0
 49116  1  0  0  0
 50 51  1  0  0  0
 50117  1  0  0  0
 50118  1  0  0  0
 51 52  1  0  0  0
 51119  1  0  0  0
 51120  1  0  0  0
 52121  1  0  0  0
 52122  1  0  0  0
 53 54  1  0  0  0
 54 55  2  0  0  0
 54123  1  0  0  0
 55 57  1  0  0  0
 55124  1  0  0  0
 56 69  2  0  0  0
 57 58  2  0  0  0
 57125  1  0  0  0
 58126  1  0  0  0
 59 60  1  0  0  0
 59 61  1  0  0  0
 59 62  1  0  0  0
 60127  1  0  0  0
 60128  1  0  0  0
 60129  1  0  0  0
 61130  1  0  0  0
 61131  1  0  0  0
 61132  1  0  0  0
 62133  1  0  0  0
 62134  1  0  0  0
 62135  1  0  0  0
 63 65  1  0  0  0
 63136  1  0  0  0
 63137  1  0  0  0
 63138  1  0  0  0
 64139  1  0  0  0
 65140  1  0  0  0
 68 77  1  0  0  0
 71 73  2  0  0  0
 71 78  1  0  0  0
 71141  1  0  0  0
 72 74  1  0  0  0
 72 76  1  0  0  0
 72 78  2  0  0  0
 73 79  1  0  0  0
 73 80  1  0  0  0
 74 79  2  0  0  0
 74 81  1  0  0  0
 75 81  1  0  0  0
 75142  1  0  0  0
 75143  1  0  0  0
 75144  1  0  0  0
 76 77  1  0  0  0
 76145  1  0  0  0
 76146  1  0  0  0
 77147  1  0  0  0
 77148  1  0  0  0
 80149  1  0  0  0
 81150  1  0  0  0
M  ISO  4   1 100  68 101  77 101  80 100
M  END
> <chiral flag>
0

> <version>
0

> <s_m_source_file>
/data/baiqing/PycharmProjects/Reinvent-master-3.2/result/LINK_invent/BTK/process_docking_weight1_custom_sum_contain_oxygen_bond_distance_aromatic_linkinvent_7_9_3/rearranged_h_0186.sdf

> <i_m_source_file_index>
14

> <r_mmod_Potential_Energy-OPLS-2005>
1066.55908203125

> <r_mmod_Stretch_Energy-OPLS-2005>
495.315643310547

> <r_mmod_Bend_Energy-OPLS-2005>
430.705963134766

> <r_mmod_Torsional_Energy-OPLS-2005>
194.441146850586

> <r_mmod_Improper_Torsional_Energy-OPLS-2005>
7.76905536651611

> <r_mmod_Van_der_Waal_Energy-OPLS-2005>
134.503067016602

> <r_mmod_Electrostatic_Energy-OPLS-2005>
-348.351013183594

> <r_mmod_Solvation_Energy-OPLS-2005>
-257.705322265625

> <b_mmod_Minimization_Converged-OPLS-2005>
0

> <r_mmod_RMS_Derivative-OPLS-2005>
0.851891279220581

$$$$
14
                    3D
 Structure written by MMmdl.
157165  0  0  1  0            999 V2000
  -30.5288  -15.0244   20.3831 C   0  0  0  0  0  0
  -30.4221  -12.6384   19.4880 C   0  0  0  0  0  0
  -29.5020  -12.4970   18.2516 C   0  0  0  0  0  0
  -28.0537  -12.2552   18.6989 C   0  0  0  0  0  0
  -27.6123  -13.2381   19.8142 C   0  0  2  0  0  0
  -28.6465  -13.3672   20.9470 C   0  0  0  0  0  0
  -25.2419  -13.8138   20.5670 C   0  0  0  0  0  0
  -24.1769  -13.0410   20.9289 C   0  0  0  0  0  0
  -24.6403  -11.6870   20.8908 C   0  0  0  0  0  0
  -23.9118  -10.4230   21.0598 C   0  0  0  0  0  0
  -24.3662   -9.4122   21.9353 C   0  0  0  0  0  0
  -23.6325   -8.2174   22.0859 C   0  0  0  0  0  0
  -22.4319   -8.0237   21.3634 C   0  0  0  0  0  0
  -21.9945   -9.0219   20.4756 C   0  0  0  0  0  0
  -22.7283  -10.2095   20.3244 C   0  0  0  0  0  0
  -21.6784   -6.0771   22.5311 C   0  0  0  0  0  0
  -21.3931   -6.5695   23.8240 C   0  0  0  0  0  0
  -21.3696   -5.6875   24.9222 C   0  0  0  0  0  0
  -21.6088   -4.3134   24.7297 C   0  0  0  0  0  0
  -21.8796   -3.8210   23.4409 C   0  0  0  0  0  0
  -21.9114   -4.7009   22.3450 C   0  0  0  0  0  0
  -22.7780  -13.5203   21.1879 C   0  0  0  0  0  0
  -22.1605   -4.2182   21.1023 F   0  0  0  0  0  0
  -21.5684   -3.4620   25.7835 F   0  0  0  0  0  0
  -29.9134  -13.7696   20.3280 N   0  0  0  0  0  0
  -26.2818  -12.9344   20.3216 N   0  0  0  0  0  0
  -25.9323  -11.6515   20.5869 N   0  0  0  0  0  0
  -22.0370  -12.8291   22.0436 N   0  0  0  0  0  0
  -25.4230  -15.1831   20.3956 N   0  0  0  0  0  0
  -31.7305  -15.0437   20.0875 O   0  0  0  0  0  0
  -21.6631   -6.8893   21.4289 O   0  0  0  0  0  0
  -22.3581  -14.5522   20.6642 O   0  0  0  0  0  0
  -24.6475  -31.8424   23.1803 C   0  0  0  0  0  0
  -25.9266  -32.4676   23.8228 C   0  0  1  0  0  0
  -27.2252  -27.1099   20.1261 C   0  0  0  0  0  0
  -25.5974  -33.8468   24.2166 N   0  0  0  0  0  0
  -23.4605  -30.4579   21.5276 C   0  0  2  0  0  0
  -24.9075  -28.8773   20.1033 C   0  0  0  0  0  0
  -22.7660  -29.4571   22.4847 C   0  0  0  0  0  0
  -18.0415  -28.1437   22.8554 C   0  0  0  0  0  0
  -24.1492  -36.7246   23.2646 C   0  0  0  0  0  0
  -26.0143  -30.7069   21.3784 C   0  0  0  0  0  0
  -26.0867  -29.3132   20.7186 C   0  0  0  0  0  0
  -27.2514  -28.4492   20.7015 C   0  0  0  0  0  0
  -26.0234  -26.7880   19.4677 C   0  0  0  0  0  0
  -24.8933  -27.6330   19.4538 C   0  0  0  0  0  0
  -23.6844  -29.7773   20.1498 C   0  0  0  0  0  0
  -25.4126  -36.2998   24.0291 C   0  0  1  0  0  0
  -20.6046  -28.3819   23.1251 C   0  0  2  0  0  0
  -20.6999  -26.9523   22.5405 C   0  0  0  0  0  0
  -19.5929  -26.6490   21.5250 C   0  0  0  0  0  0
  -18.2106  -26.7985   22.1663 C   0  0  0  0  0  0
  -19.1670  -28.8932   23.2894 C   0  0  0  0  0  0
  -18.9580  -30.1537   23.8918 C   0  0  0  0  0  0
  -17.6577  -30.6658   24.0608 C   0  0  0  0  0  0
  -25.9085  -34.9394   23.5050 C   0  0  0  0  0  0
  -16.5456  -29.9162   23.6398 C   0  0  0  0  0  0
  -16.7393  -28.6565   23.0405 C   0  0  0  0  0  0
  -26.4557  -31.6531   25.0693 C   0  0  0  0  0  0
  -25.3713  -31.3750   26.1378 C   0  0  0  0  0  0
  -27.0426  -30.2909   24.6308 C   0  0  0  0  0  0
  -27.6094  -32.4290   25.7476 C   0  0  0  0  0  0
  -27.5560  -37.1760   24.8452 C   0  0  0  0  0  0
  -21.4371  -29.3153   22.3621 N   0  0  0  0  0  0
  -26.4279  -37.3702   23.9395 N   0  0  0  0  0  0
  -24.7287  -31.0258   22.0851 N   0  0  0  0  0  0
  -23.4312  -28.8065   23.2987 O   0  0  0  0  0  0
  -28.2779  -26.1134   20.1199 O   0  0  0  0  0  0
  -26.5707  -34.8896   22.4637 O   0  0  0  0  0  0
  -23.5585  -32.1323   23.7016 O   0  0  0  0  0  0
  -29.3380  -17.3729   19.8669 C   0  0  0  0  0  0
  -28.9337  -17.1923   18.5993 C   0  0  0  0  0  0
  -30.1658  -18.5075   21.7342 C   0  0  0  0  0  0
  -30.2335  -16.9495   21.9604 C   0  0  0  0  0  0
  -29.1213  -18.8000   20.6349 C   0  0  2  0  0  0
  -27.6966  -18.7266   21.2454 C   0  0  0  0  0  0
  -29.2615  -20.3590   19.9042 C   0  0  0  0  0  0
  -28.7700  -23.1698   19.8034 C   0  0  0  0  0  0
  -28.0288  -24.5829   20.4208 C   0  0  0  0  0  0
  -29.8499  -16.2587   20.7115 N   0  0  0  0  0  0
  -28.7182  -21.7314   20.5237 N   0  3  0  0  0  0
  -31.4463  -12.7864   19.1521 H   0  0  0  0  0  0
  -30.4232  -11.7183   20.0742 H   0  0  0  0  0  0
  -29.8407  -11.6787   17.6163 H   0  0  0  0  0  0
  -29.5565  -13.3979   17.6359 H   0  0  0  0  0  0
  -27.9970  -11.2319   19.0766 H   0  0  0  0  0  0
  -27.3750  -12.2914   17.8498 H   0  0  0  0  0  0
  -27.5440  -14.2090   19.3248 H   0  0  0  0  0  0
  -28.7452  -12.4409   21.5105 H   0  0  0  0  0  0
  -28.3103  -14.1359   21.6505 H   0  0  0  0  0  0
  -25.2782   -9.5536   22.5009 H   0  0  0  0  0  0
  -23.9977   -7.4538   22.7573 H   0  0  0  0  0  0
  -21.0882   -8.8773   19.9028 H   0  0  0  0  0  0
  -22.3779  -10.9689   19.6415 H   0  0  0  0  0  0
  -21.1895   -7.6186   23.9756 H   0  0  0  0  0  0
  -21.1560   -6.0610   25.9145 H   0  0  0  0  0  0
  -22.0534   -2.7673   23.2885 H   0  0  0  0  0  0
  -22.3882  -11.9867   22.4760 H   0  0  0  0  0  0
  -21.1086  -13.1549   22.2845 H   0  0  0  0  0  0
  -24.6595  -15.8433   20.4787 H   0  0  0  0  0  0
  -26.2848  -15.5861   20.0532 H   0  0  0  0  0  0
  -26.7395  -32.5258   23.0996 H   0  0  0  0  0  0
  -24.9979  -33.9528   25.0234 H   0  0  0  0  0  0
  -22.7705  -31.2897   21.3590 H   0  0  0  0  0  0
  -23.3712  -35.9601   23.3264 H   0  0  0  0  0  0
  -24.3588  -36.8924   22.2067 H   0  0  0  0  0  0
  -23.7282  -37.6453   23.6718 H   0  0  0  0  0  0
  -26.1807  -31.4578   20.6056 H   0  0  0  0  0  0
  -26.8838  -30.7580   22.0196 H   0  0  0  0  0  0
  -28.1607  -28.7959   21.1751 H   0  0  0  0  0  0
  -25.9430  -25.8449   18.9485 H   0  0  0  0  0  0
  -24.0084  -27.3053   18.9274 H   0  0  0  0  0  0
  -23.8139  -30.5381   19.3773 H   0  0  0  0  0  0
  -22.8001  -29.2153   19.8477 H   0  0  0  0  0  0
  -25.1301  -36.1807   25.0763 H   0  0  0  0  0  0
  -21.0114  -28.3462   24.1379 H   0  0  0  0  0  0
  -20.5913  -26.2436   23.3640 H   0  0  0  0  0  0
  -21.6849  -26.7475   22.1160 H   0  0  0  0  0  0
  -19.6816  -27.3372   20.6832 H   0  0  0  0  0  0
  -19.7199  -25.6471   21.1207 H   0  0  0  0  0  0
  -17.4432  -26.6767   21.4006 H   0  0  0  0  0  0
  -18.0506  -26.0107   22.9057 H   0  0  0  0  0  0
  -19.8056  -30.7372   24.2296 H   0  0  0  0  0  0
  -17.5121  -31.6332   24.5202 H   0  0  0  0  0  0
  -15.5501  -30.3108   23.7728 H   0  0  0  0  0  0
  -15.8748  -28.0965   22.7117 H   0  0  0  0  0  0
  -24.5913  -30.7070   25.7697 H   0  0  0  0  0  0
  -24.8865  -32.2941   26.4671 H   0  0  0  0  0  0
  -25.7951  -30.9022   27.0245 H   0  0  0  0  0  0
  -26.3052  -29.6598   24.1330 H   0  0  0  0  0  0
  -27.4069  -29.7234   25.4888 H   0  0  0  0  0  0
  -27.8951  -30.4118   23.9622 H   0  0  0  0  0  0
  -27.2718  -33.3619   26.1985 H   0  0  0  0  0  0
  -28.3947  -32.6780   25.0331 H   0  0  0  0  0  0
  -28.0747  -31.8470   26.5437 H   0  0  0  0  0  0
  -28.2554  -38.0081   24.7478 H   0  0  0  0  0  0
  -28.1092  -36.2590   24.6291 H   0  0  0  0  0  0
  -27.2297  -37.1438   25.8871 H   0  0  0  0  0  0
  -20.9628  -29.9015   21.6880 H   0  0  0  0  0  0
  -26.0128  -38.2765   24.1360 H   0  0  0  0  0  0
  -28.9697  -16.2375   18.0924 H   0  0  0  0  0  0
  -28.4897  -18.0150   18.0537 H   0  0  0  0  0  0
  -31.1454  -18.8451   21.3890 H   0  0  0  0  0  0
  -29.9681  -19.0593   22.6539 H   0  0  0  0  0  0
  -29.5351  -16.6577   22.7441 H   0  0  0  0  0  0
  -31.2269  -16.6547   22.3145 H   0  0  0  0  0  0
  -27.5679  -19.4168   22.0795 H   0  0  0  0  0  0
  -27.4556  -17.7296   21.6249 H   0  0  0  0  0  0
  -26.9327  -18.9600   20.5045 H   0  0  0  0  0  0
  -28.8115  -20.3018   18.9131 H   0  0  0  0  0  0
  -30.3205  -20.5292   19.6992 H   0  0  0  0  0  0
  -29.8241  -23.3979   19.6296 H   0  0  0  0  0  0
  -28.3501  -23.0151   18.8075 H   0  0  0  0  0  0
  -28.2024  -24.5339   21.4943 H   0  0  0  0  0  0
  -26.9578  -24.4077   20.3207 H   0  0  0  0  0  0
  -29.1990  -21.8454   21.4039 H   0  0  0  0  0  0
  -27.7480  -21.5707   20.7480 H   0  0  0  0  0  0
  1 25  1  0  0  0
  1 30  2  0  0  0
  1 80  1  0  0  0
  2  3  1  0  0  0
  2 25  1  0  0  0
  2 82  1  0  0  0
  2 83  1  0  0  0
  3  4  1  0  0  0
  3 84  1  0  0  0
  3 85  1  0  0  0
  4  5  1  0  0  0
  4 86  1  0  0  0
  4 87  1  0  0  0
  5  6  1  0  0  0
  5 26  1  0  0  0
  5 88  1  0  0  0
  6 25  1  0  0  0
  6 89  1  0  0  0
  6 90  1  0  0  0
  7  8  2  0  0  0
  7 26  1  0  0  0
  7 29  1  0  0  0
  8  9  1  0  0  0
  8 22  1  0  0  0
  9 10  1  0  0  0
  9 27  2  0  0  0
 10 11  2  0  0  0
 10 15  1  0  0  0
 11 12  1  0  0  0
 11 91  1  0  0  0
 12 13  2  0  0  0
 12 92  1  0  0  0
 13 14  1  0  0  0
 13 31  1  0  0  0
 14 15  2  0  0  0
 14 93  1  0  0  0
 15 94  1  0  0  0
 16 17  2  0  0  0
 16 21  1  0  0  0
 16 31  1  0  0  0
 17 18  1  0  0  0
 17 95  1  0  0  0
 18 19  2  0  0  0
 18 96  1  0  0  0
 19 20  1  0  0  0
 19 24  1  0  0  0
 20 21  2  0  0  0
 20 97  1  0  0  0
 21 23  1  0  0  0
 22 28  1  0  0  0
 22 32  2  0  0  0
 26 27  1  0  0  0
 28 98  1  0  0  0
 28 99  1  0  0  0
 29100  1  0  0  0
 29101  1  0  0  0
 33 34  1  0  0  0
 33 66  1  0  0  0
 33 70  2  0  0  0
 34 36  1  0  0  0
 34 59  1  0  0  0
 34102  1  0  0  0
 35 44  2  0  0  0
 35 45  1  0  0  0
 35 68  1  0  0  0
 36 56  1  0  0  0
 36103  1  0  0  0
 37 39  1  0  0  0
 37 47  1  0  0  0
 37 66  1  0  0  0
 37104  1  0  0  0
 38 43  2  0  0  0
 38 46  1  0  0  0
 38 47  1  0  0  0
 39 64  1  0  0  0
 39 67  2  0  0  0
 40 52  1  0  0  0
 40 53  2  0  0  0
 40 58  1  0  0  0
 41105  1  0  0  0
 41106  1  0  0  0
 41107  1  0  0  0
 41 48  1  0  0  0
 42 43  1  0  0  0
 42 66  1  0  0  0
 42108  1  0  0  0
 42109  1  0  0  0
 43 44  1  0  0  0
 44110  1  0  0  0
 45 46  2  0  0  0
 45111  1  0  0  0
 46112  1  0  0  0
 47113  1  0  0  0
 47114  1  0  0  0
 48 56  1  0  0  0
 48 65  1  0  0  0
 48115  1  0  0  0
 49 50  1  0  0  0
 49 53  1  0  0  0
 49 64  1  0  0  0
 49116  1  0  0  0
 50 51  1  0  0  0
 50117  1  0  0  0
 50118  1  0  0  0
 51 52  1  0  0  0
 51119  1  0  0  0
 51120  1  0  0  0
 52121  1  0  0  0
 52122  1  0  0  0
 53 54  1  0  0  0
 54 55  2  0  0  0
 54123  1  0  0  0
 55 57  1  0  0  0
 55124  1  0  0  0
 56 69  2  0  0  0
 57 58  2  0  0  0
 57125  1  0  0  0
 58126  1  0  0  0
 59 60  1  0  0  0
 59 61  1  0  0  0
 59 62  1  0  0  0
 60127  1  0  0  0
 60128  1  0  0  0
 60129  1  0  0  0
 61130  1  0  0  0
 61131  1  0  0  0
 61132  1  0  0  0
 62133  1  0  0  0
 62134  1  0  0  0
 62135  1  0  0  0
 63 65  1  0  0  0
 63136  1  0  0  0
 63137  1  0  0  0
 63138  1  0  0  0
 64139  1  0  0  0
 65140  1  0  0  0
 68 79  1  0  0  0
 71 72  2  0  0  0
 71 75  1  0  0  0
 71 80  1  0  0  0
 72141  1  0  0  0
 72142  1  0  0  0
 73 74  1  0  0  0
 73 75  1  0  0  0
 73143  1  0  0  0
 73144  1  0  0  0
 74 80  1  0  0  0
 74145  1  0  0  0
 74146  1  0  0  0
 75 76  1  0  0  0
 75 77  1  0  0  0
 76147  1  0  0  0
 76148  1  0  0  0
 76149  1  0  0  0
 77 81  1  0  0  0
 77150  1  0  0  0
 77151  1  0  0  0
 78 79  1  0  0  0
 78 81  1  0  0  0
 78152  1  0  0  0
 78153  1  0  0  0
 79154  1  0  0  0
 79155  1  0  0  0
 81156  1  0  0  0
 81157  1  0  0  0
M  CHG  1  81   1
M  ISO  4   1 100  68 101  79 101  80 100
M  END
> <chiral flag>
0

> <version>
0

> <s_m_source_file>
/data/baiqing/PycharmProjects/Reinvent-master-3.2/result/LINK_invent/BTK/process_docking_weight1_custom_sum_contain_oxygen_bond_distance_aromatic_linkinvent_7_9_3/rearranged_h_0186.sdf

> <i_m_source_file_index>
15

> <r_mmod_Potential_Energy-OPLS-2005>
681.840881347656

> <r_mmod_Stretch_Energy-OPLS-2005>
312.434753417969

> <r_mmod_Bend_Energy-OPLS-2005>
329.796997070312

> <r_mmod_Torsional_Energy-OPLS-2005>
323.455505371094

> <r_mmod_Improper_Torsional_Energy-OPLS-2005>
4.71332263946533

> <r_mmod_Van_der_Waal_Energy-OPLS-2005>
102.943519592285

> <r_mmod_Electrostatic_Energy-OPLS-2005>
-185.414077758789

> <r_mmod_Solvation_Energy-OPLS-2005>
-444.141479492188

> <b_mmod_Minimization_Converged-OPLS-2005>
0

> <r_mmod_RMS_Derivative-OPLS-2005>
8.91018199920654

$$$$
15
                    3D
 Structure written by MMmdl.
157165  0  0  1  0            999 V2000
  -30.6869  -14.4937   20.5705 C   0  0  0  0  0  0
  -30.4227  -12.3215   19.4146 C   0  0  0  0  0  0
  -29.4924  -12.5043   18.1988 C   0  0  0  0  0  0
  -28.0148  -12.3584   18.6203 C   0  0  0  0  0  0
  -27.6601  -13.2069   19.8713 C   0  0  2  0  0  0
  -28.7015  -12.9946   20.9890 C   0  0  0  0  0  0
  -25.2596  -13.8188   20.5655 C   0  0  0  0  0  0
  -24.1851  -13.0478   20.9191 C   0  0  0  0  0  0
  -24.6378  -11.6938   20.8714 C   0  0  0  0  0  0
  -23.9029  -10.4333   21.0383 C   0  0  0  0  0  0
  -24.3600   -9.4263   21.9146 C   0  0  0  0  0  0
  -23.6311   -8.2279   22.0717 C   0  0  0  0  0  0
  -22.4285   -8.0292   21.3524 C   0  0  0  0  0  0
  -21.9925   -9.0260   20.4636 C   0  0  0  0  0  0
  -22.7216  -10.2153   20.3031 C   0  0  0  0  0  0
  -21.6893   -6.0730   22.5262 C   0  0  0  0  0  0
  -21.4044   -6.5635   23.8192 C   0  0  0  0  0  0
  -21.3650   -5.6781   24.9152 C   0  0  0  0  0  0
  -21.6042   -4.3042   24.7207 C   0  0  0  0  0  0
  -21.8842   -3.8144   23.4334 C   0  0  0  0  0  0
  -21.9235   -4.6957   22.3387 C   0  0  0  0  0  0
  -22.7887  -13.5259   21.1886 C   0  0  0  0  0  0
  -22.1693   -4.2147   21.0965 F   0  0  0  0  0  0
  -21.5630   -3.4516   25.7708 F   0  0  0  0  0  0
  -30.0276  -13.3118   20.4296 N   0  0  0  0  0  0
  -26.3023  -12.9352   20.3359 N   0  0  0  0  0  0
  -25.9303  -11.6509   20.5757 N   0  0  0  0  0  0
  -22.0551  -12.8177   22.0411 N   0  0  0  0  0  0
  -25.4317  -15.1910   20.3970 N   0  0  0  0  0  0
  -31.8227  -14.6821   20.1252 O   0  0  0  0  0  0
  -21.6676   -6.8871   21.4219 O   0  0  0  0  0  0
  -22.3544  -14.5562   20.6762 O   0  0  0  0  0  0
  -24.6179  -31.8676   23.2093 C   0  0  0  0  0  0
  -25.9083  -32.4816   23.8361 C   0  0  1  0  0  0
  -27.2236  -27.4023   20.0914 C   0  0  0  0  0  0
  -25.5943  -33.8610   24.2308 N   0  0  0  0  0  0
  -23.4036  -30.4925   21.5537 C   0  0  2  0  0  0
  -24.8489  -28.9671   20.1092 C   0  0  0  0  0  0
  -22.7437  -29.4615   22.4995 C   0  0  0  0  0  0
  -18.0276  -28.1313   22.8536 C   0  0  0  0  0  0
  -24.1508  -36.7304   23.2632 C   0  0  0  0  0  0
  -25.9392  -30.8202   21.3727 C   0  0  0  0  0  0
  -26.0126  -29.4558   20.7150 C   0  0  0  0  0  0
  -27.1998  -28.6814   20.7063 C   0  0  0  0  0  0
  -26.0409  -26.9566   19.4487 C   0  0  0  0  0  0
  -24.8614  -27.7197   19.4683 C   0  0  0  0  0  0
  -23.6134  -29.8364   20.1640 C   0  0  0  0  0  0
  -25.4130  -36.3092   24.0324 C   0  0  1  0  0  0
  -20.5876  -28.3598   23.1357 C   0  0  2  0  0  0
  -20.6761  -26.9336   22.5427 C   0  0  0  0  0  0
  -19.5726  -26.6342   21.5226 C   0  0  0  0  0  0
  -18.1911  -26.7875   22.1643 C   0  0  0  0  0  0
  -19.1528  -28.8772   23.2954 C   0  0  0  0  0  0
  -18.9439  -30.1387   23.8953 C   0  0  0  0  0  0
  -17.6434  -30.6541   24.0539 C   0  0  0  0  0  0
  -25.9057  -34.9465   23.5114 C   0  0  0  0  0  0
  -16.5331  -29.9028   23.6307 C   0  0  0  0  0  0
  -16.7262  -28.6420   23.0389 C   0  0  0  0  0  0
  -26.4508  -31.6590   25.0682 C   0  0  0  0  0  0
  -25.3720  -31.3715   26.1377 C   0  0  0  0  0  0
  -27.0344  -30.3021   24.6066 C   0  0  0  0  0  0
  -27.6092  -32.4292   25.7449 C   0  0  0  0  0  0
  -27.5603  -37.1795   24.8457 C   0  0  0  0  0  0
  -21.4157  -29.2983   22.3775 N   0  0  0  0  0  0
  -26.4309  -37.3782   23.9412 N   0  0  0  0  0  0
  -24.6717  -31.0740   22.1024 N   0  0  0  0  0  0
  -23.4234  -28.8133   23.2992 O   0  0  0  0  0  0
  -28.3752  -26.6243   20.1456 O   0  0  0  0  0  0
  -26.5606  -34.8925   22.4662 O   0  0  0  0  0  0
  -23.5382  -32.1458   23.7481 O   0  0  0  0  0  0
  -29.7700  -17.3524   22.7341 C   0  0  0  0  0  0
  -28.6139  -17.9232   21.8942 C   0  0  0  0  0  0
  -30.4166  -16.8755   21.4234 C   0  0  2  0  0  0
  -29.6067  -18.0142   20.7228 C   0  0  2  0  0  0
  -29.3298  -24.2717   20.4083 C   0  0  0  0  0  0
  -29.8337  -21.7668   20.6521 C   0  0  0  0  0  0
  -28.2524  -25.2202   19.8016 C   0  0  0  0  0  0
  -29.5547  -20.3520   20.0517 C   0  0  0  0  0  0
  -29.9687  -15.4980   21.1154 N   0  0  0  0  0  0
  -29.2384  -22.8823   19.8471 N   0  3  0  0  0  0
  -30.2477  -19.3043   20.7579 O   0  0  0  0  0  0
  -31.4651  -12.4296   19.1078 H   0  0  0  0  0  0
  -30.3259  -11.3129   19.8172 H   0  0  0  0  0  0
  -29.7330  -11.7659   17.4316 H   0  0  0  0  0  0
  -29.6552  -13.4831   17.7454 H   0  0  0  0  0  0
  -27.8380  -11.3032   18.8311 H   0  0  0  0  0  0
  -27.3562  -12.6147   17.7905 H   0  0  0  0  0  0
  -27.7025  -14.2525   19.5718 H   0  0  0  0  0  0
  -28.6865  -11.9565   21.3241 H   0  0  0  0  0  0
  -28.4639  -13.5970   21.8679 H   0  0  0  0  0  0
  -25.2756   -9.5796   22.4713 H   0  0  0  0  0  0
  -24.0079   -7.4674   22.7411 H   0  0  0  0  0  0
  -21.0871   -8.8737   19.8927 H   0  0  0  0  0  0
  -22.3635  -10.9671   19.6146 H   0  0  0  0  0  0
  -21.2015   -7.6137   23.9669 H   0  0  0  0  0  0
  -21.1455   -6.0517   25.9035 H   0  0  0  0  0  0
  -22.0638   -2.7604   23.2821 H   0  0  0  0  0  0
  -22.4197  -11.9807   22.4731 H   0  0  0  0  0  0
  -21.1146  -13.1113   22.2629 H   0  0  0  0  0  0
  -24.6626  -15.8469   20.4775 H   0  0  0  0  0  0
  -26.2681  -15.6160   20.0152 H   0  0  0  0  0  0
  -26.7122  -32.5516   23.1096 H   0  0  0  0  0  0
  -25.0108  -33.9763   25.0468 H   0  0  0  0  0  0
  -22.6897  -31.3088   21.4202 H   0  0  0  0  0  0
  -23.3767  -35.9633   23.3272 H   0  0  0  0  0  0
  -24.3607  -36.8941   22.2047 H   0  0  0  0  0  0
  -23.7245  -37.6500   23.6659 H   0  0  0  0  0  0
  -26.0631  -31.5862   20.6069 H   0  0  0  0  0  0
  -26.8243  -30.8637   21.9962 H   0  0  0  0  0  0
  -28.0924  -29.0535   21.1897 H   0  0  0  0  0  0
  -25.9940  -26.0189   18.9152 H   0  0  0  0  0  0
  -23.9712  -27.3484   18.9775 H   0  0  0  0  0  0
  -23.7307  -30.6190   19.4127 H   0  0  0  0  0  0
  -22.7349  -29.2643   19.8584 H   0  0  0  0  0  0
  -25.1306  -36.1943   25.0811 H   0  0  0  0  0  0
  -20.9983  -28.3097   24.1473 H   0  0  0  0  0  0
  -20.5661  -26.2171   23.3587 H   0  0  0  0  0  0
  -21.6623  -26.7364   22.1200 H   0  0  0  0  0  0
  -19.6871  -25.6265   21.1213 H   0  0  0  0  0  0
  -19.6662  -27.3191   20.6787 H   0  0  0  0  0  0
  -17.4195  -26.6685   21.4019 H   0  0  0  0  0  0
  -18.0281  -25.9971   22.8988 H   0  0  0  0  0  0
  -19.7903  -30.7189   24.2376 H   0  0  0  0  0  0
  -17.4966  -31.6243   24.5078 H   0  0  0  0  0  0
  -15.5325  -30.2926   23.7564 H   0  0  0  0  0  0
  -15.8681  -28.0697   22.7141 H   0  0  0  0  0  0
  -24.5870  -30.7128   25.7645 H   0  0  0  0  0  0
  -24.8947  -32.2894   26.4809 H   0  0  0  0  0  0
  -25.7979  -30.8821   27.0139 H   0  0  0  0  0  0
  -26.2883  -29.6741   24.1166 H   0  0  0  0  0  0
  -27.4181  -29.7282   25.4519 H   0  0  0  0  0  0
  -27.8704  -30.4342   23.9184 H   0  0  0  0  0  0
  -27.2720  -33.3571   26.2078 H   0  0  0  0  0  0
  -28.3876  -32.6869   25.0255 H   0  0  0  0  0  0
  -28.0782  -31.8362   26.5313 H   0  0  0  0  0  0
  -28.2583  -38.0136   24.7560 H   0  0  0  0  0  0
  -28.1138  -36.2659   24.6216 H   0  0  0  0  0  0
  -27.2321  -37.1358   25.8860 H   0  0  0  0  0  0
  -20.9289  -29.8772   21.7089 H   0  0  0  0  0  0
  -26.0192  -38.2859   24.1410 H   0  0  0  0  0  0
  -29.4900  -16.5736   23.4444 H   0  0  0  0  0  0
  -30.3598  -18.1309   23.2224 H   0  0  0  0  0  0
  -28.2185  -18.8756   22.2505 H   0  0  0  0  0  0
  -27.8130  -17.2011   21.7191 H   0  0  0  0  0  0
  -31.4977  -17.0235   21.4028 H   0  0  0  0  0  0
  -29.2059  -17.7359   19.7452 H   0  0  0  0  0  0
  -29.2025  -24.2393   21.4910 H   0  0  0  0  0  0
  -30.3261  -24.6728   20.2205 H   0  0  0  0  0  0
  -30.9103  -21.9266   20.7379 H   0  0  0  0  0  0
  -29.4288  -21.7996   21.6647 H   0  0  0  0  0  0
  -27.2914  -24.8275   20.1390 H   0  0  0  0  0  0
  -28.2675  -25.1507   18.7141 H   0  0  0  0  0  0
  -29.8683  -20.3148   19.0065 H   0  0  0  0  0  0
  -28.4786  -20.1674   20.0588 H   0  0  0  0  0  0
  -29.0298  -15.2546   21.3906 H   0  0  0  0  0  0
  -29.6766  -22.8838   18.9366 H   0  0  0  0  0  0
  -28.2629  -22.6740   19.6961 H   0  0  0  0  0  0
  1 25  1  0  0  0
  1 30  2  0  0  0
  1 79  1  0  0  0
  2  3  1  0  0  0
  2 25  1  0  0  0
  2 82  1  0  0  0
  2 83  1  0  0  0
  3  4  1  0  0  0
  3 84  1  0  0  0
  3 85  1  0  0  0
  4  5  1  0  0  0
  4 86  1  0  0  0
  4 87  1  0  0  0
  5  6  1  0  0  0
  5 26  1  0  0  0
  5 88  1  0  0  0
  6 25  1  0  0  0
  6 89  1  0  0  0
  6 90  1  0  0  0
  7  8  2  0  0  0
  7 26  1  0  0  0
  7 29  1  0  0  0
  8  9  1  0  0  0
  8 22  1  0  0  0
  9 10  1  0  0  0
  9 27  2  0  0  0
 10 11  2  0  0  0
 10 15  1  0  0  0
 11 12  1  0  0  0
 11 91  1  0  0  0
 12 13  2  0  0  0
 12 92  1  0  0  0
 13 14  1  0  0  0
 13 31  1  0  0  0
 14 15  2  0  0  0
 14 93  1  0  0  0
 15 94  1  0  0  0
 16 17  2  0  0  0
 16 21  1  0  0  0
 16 31  1  0  0  0
 17 18  1  0  0  0
 17 95  1  0  0  0
 18 19  2  0  0  0
 18 96  1  0  0  0
 19 20  1  0  0  0
 19 24  1  0  0  0
 20 21  2  0  0  0
 20 97  1  0  0  0
 21 23  1  0  0  0
 22 28  1  0  0  0
 22 32  2  0  0  0
 26 27  1  0  0  0
 28 98  1  0  0  0
 28 99  1  0  0  0
 29100  1  0  0  0
 29101  1  0  0  0
 33 34  1  0  0  0
 33 66  1  0  0  0
 33 70  2  0  0  0
 34 36  1  0  0  0
 34 59  1  0  0  0
 34102  1  0  0  0
 35 44  2  0  0  0
 35 45  1  0  0  0
 35 68  1  0  0  0
 36 56  1  0  0  0
 36103  1  0  0  0
 37 39  1  0  0  0
 37 47  1  0  0  0
 37 66  1  0  0  0
 37104  1  0  0  0
 38 43  2  0  0  0
 38 46  1  0  0  0
 38 47  1  0  0  0
 39 64  1  0  0  0
 39 67  2  0  0  0
 40 52  1  0  0  0
 40 53  2  0  0  0
 40 58  1  0  0  0
 41105  1  0  0  0
 41106  1  0  0  0
 41107  1  0  0  0
 41 48  1  0  0  0
 42 43  1  0  0  0
 42 66  1  0  0  0
 42108  1  0  0  0
 42109  1  0  0  0
 43 44  1  0  0  0
 44110  1  0  0  0
 45 46  2  0  0  0
 45111  1  0  0  0
 46112  1  0  0  0
 47113  1  0  0  0
 47114  1  0  0  0
 48 56  1  0  0  0
 48 65  1  0  0  0
 48115  1  0  0  0
 49 50  1  0  0  0
 49 53  1  0  0  0
 49 64  1  0  0  0
 49116  1  0  0  0
 50 51  1  0  0  0
 50117  1  0  0  0
 50118  1  0  0  0
 51 52  1  0  0  0
 51119  1  0  0  0
 51120  1  0  0  0
 52121  1  0  0  0
 52122  1  0  0  0
 53 54  1  0  0  0
 54 55  2  0  0  0
 54123  1  0  0  0
 55 57  1  0  0  0
 55124  1  0  0  0
 56 69  2  0  0  0
 57 58  2  0  0  0
 57125  1  0  0  0
 58126  1  0  0  0
 59 60  1  0  0  0
 59 61  1  0  0  0
 59 62  1  0  0  0
 60127  1  0  0  0
 60128  1  0  0  0
 60129  1  0  0  0
 61130  1  0  0  0
 61131  1  0  0  0
 61132  1  0  0  0
 62133  1  0  0  0
 62134  1  0  0  0
 62135  1  0  0  0
 63 65  1  0  0  0
 63136  1  0  0  0
 63137  1  0  0  0
 63138  1  0  0  0
 64139  1  0  0  0
 65140  1  0  0  0
 68 77  1  0  0  0
 71 72  1  0  0  0
 71 73  1  0  0  0
 71141  1  0  0  0
 71142  1  0  0  0
 72 74  1  0  0  0
 72143  1  0  0  0
 72144  1  0  0  0
 73 74  1  0  0  0
 73 79  1  0  0  0
 73145  1  0  0  0
 74 81  1  0  0  0
 74146  1  0  0  0
 75 77  1  0  0  0
 75 80  1  0  0  0
 75147  1  0  0  0
 75148  1  0  0  0
 76 78  1  0  0  0
 76 80  1  0  0  0
 76149  1  0  0  0
 76150  1  0  0  0
 77151  1  0  0  0
 77152  1  0  0  0
 78 81  1  0  0  0
 78153  1  0  0  0
 78154  1  0  0  0
 79155  1  0  0  0
 80156  1  0  0  0
 80157  1  0  0  0
M  CHG  1  80   1
M  ISO  4   1 100  68 101  77 101  79 100
M  END
> <chiral flag>
0

> <version>
0

> <s_m_source_file>
/data/baiqing/PycharmProjects/Reinvent-master-3.2/result/LINK_invent/BTK/process_docking_weight1_custom_sum_contain_oxygen_bond_distance_aromatic_linkinvent_7_9_3/rearranged_h_0186.sdf

> <i_m_source_file_index>
16

> <r_mmod_Potential_Energy-OPLS-2005>
-156.11882019043

> <r_mmod_Stretch_Energy-OPLS-2005>
44.4968452453613

> <r_mmod_Bend_Energy-OPLS-2005>
117.543792724609

> <r_mmod_Torsional_Energy-OPLS-2005>
233.977798461914

> <r_mmod_Improper_Torsional_Energy-OPLS-2005>
3.1278874874115

> <r_mmod_Van_der_Waal_Energy-OPLS-2005>
138.120559692383

> <r_mmod_Electrostatic_Energy-OPLS-2005>
-260.300598144531

> <r_mmod_Solvation_Energy-OPLS-2005>
-451.78662109375

> <b_mmod_Minimization_Converged-OPLS-2005>
0

> <r_mmod_RMS_Derivative-OPLS-2005>
3.66991448402405

$$$$
16
                    3D
 Structure written by MMmdl.
160169  0  0  1  0            999 V2000
  -30.6885  -14.6637   20.5201 C   0  0  0  0  0  0
  -30.4235  -12.4228   19.4599 C   0  0  0  0  0  0
  -29.5005  -12.5148   18.2265 C   0  0  0  0  0  0
  -28.0260  -12.3478   18.6399 C   0  0  0  0  0  0
  -27.6474  -13.2261   19.8624 C   0  0  2  0  0  0
  -28.6961  -13.1026   20.9896 C   0  0  0  0  0  0
  -25.2511  -13.8186   20.5680 C   0  0  0  0  0  0
  -24.1803  -13.0437   20.9201 C   0  0  0  0  0  0
  -24.6394  -11.6918   20.8755 C   0  0  0  0  0  0
  -23.9069  -10.4296   21.0416 C   0  0  0  0  0  0
  -24.3615   -9.4209   21.9193 C   0  0  0  0  0  0
  -23.6289   -8.2242   22.0755 C   0  0  0  0  0  0
  -22.4270   -8.0283   21.3544 C   0  0  0  0  0  0
  -21.9913   -9.0257   20.4642 C   0  0  0  0  0  0
  -22.7243  -10.2136   20.3059 C   0  0  0  0  0  0
  -21.6855   -6.0738   22.5280 C   0  0  0  0  0  0
  -21.4014   -6.5641   23.8214 C   0  0  0  0  0  0
  -21.3657   -5.6793   24.9176 C   0  0  0  0  0  0
  -21.6045   -4.3055   24.7228 C   0  0  0  0  0  0
  -21.8819   -3.8149   23.4351 C   0  0  0  0  0  0
  -21.9191   -4.6966   22.3404 C   0  0  0  0  0  0
  -22.7825  -13.5220   21.1861 C   0  0  0  0  0  0
  -22.1660   -4.2153   21.0981 F   0  0  0  0  0  0
  -21.5628   -3.4537   25.7739 F   0  0  0  0  0  0
  -29.9966  -13.4744   20.4141 N   0  0  0  0  0  0
  -26.2961  -12.9395   20.3344 N   0  0  0  0  0  0
  -25.9330  -11.6542   20.5794 N   0  0  0  0  0  0
  -22.0472  -12.8200   22.0411 N   0  0  0  0  0  0
  -25.4157  -15.1902   20.4026 N   0  0  0  0  0  0
  -31.8625  -14.7062   20.1396 O   0  0  0  0  0  0
  -21.6635   -6.8879   21.4239 O   0  0  0  0  0  0
  -22.3510  -14.5531   20.6723 O   0  0  0  0  0  0
  -24.6302  -31.8612   23.2071 C   0  0  0  0  0  0
  -25.9145  -32.4785   23.8391 C   0  0  1  0  0  0
  -27.2041  -27.2878   20.1060 C   0  0  0  0  0  0
  -25.5954  -33.8584   24.2305 N   0  0  0  0  0  0
  -23.4239  -30.4925   21.5512 C   0  0  2  0  0  0
  -24.8677  -28.9637   20.1072 C   0  0  0  0  0  0
  -22.7501  -29.4638   22.4923 C   0  0  0  0  0  0
  -18.0295  -28.1388   22.8484 C   0  0  0  0  0  0
  -24.1484  -36.7281   23.2626 C   0  0  0  0  0  0
  -25.9738  -30.7797   21.3904 C   0  0  0  0  0  0
  -26.0436  -29.4097   20.7243 C   0  0  0  0  0  0
  -27.2146  -28.5829   20.7232 C   0  0  0  0  0  0
  -26.0039  -26.9392   19.4283 C   0  0  0  0  0  0
  -24.8523  -27.7331   19.4504 C   0  0  0  0  0  0
  -23.6393  -29.8457   20.1621 C   0  0  0  0  0  0
  -25.4102  -36.3075   24.0327 C   0  0  1  0  0  0
  -20.5899  -28.3696   23.1261 C   0  0  2  0  0  0
  -20.6780  -26.9417   22.5396 C   0  0  0  0  0  0
  -19.5751  -26.6385   21.5203 C   0  0  0  0  0  0
  -18.1934  -26.7932   22.1620 C   0  0  0  0  0  0
  -19.1549  -28.8859   23.2871 C   0  0  0  0  0  0
  -18.9469  -30.1458   23.8890 C   0  0  0  0  0  0
  -17.6468  -30.6587   24.0559 C   0  0  0  0  0  0
  -25.9065  -34.9451   23.5111 C   0  0  0  0  0  0
  -16.5359  -29.9084   23.6331 C   0  0  0  0  0  0
  -16.7281  -28.6502   23.0356 C   0  0  0  0  0  0
  -26.4516  -31.6591   25.0763 C   0  0  0  0  0  0
  -25.3737  -31.3730   26.1481 C   0  0  0  0  0  0
  -27.0367  -30.3006   24.6250 C   0  0  0  0  0  0
  -27.6068  -32.4330   25.7541 C   0  0  0  0  0  0
  -27.5599  -37.1756   24.8435 C   0  0  0  0  0  0
  -21.4211  -29.3053   22.3658 N   0  0  0  0  0  0
  -26.4259  -37.3795   23.9461 N   0  0  0  0  0  0
  -24.6949  -31.0604   22.1052 N   0  0  0  0  0  0
  -23.4222  -28.8152   23.2984 O   0  0  0  0  0  0
  -28.2591  -26.3408   20.1945 O   0  0  0  0  0  0
  -26.5625  -34.8916   22.4674 O   0  0  0  0  0  0
  -23.5451  -32.1434   23.7367 O   0  0  0  0  0  0
  -30.3423  -22.2193   20.8828 C   0  0  0  0  0  0
  -27.8318  -22.3342   19.9690 C   0  0  0  0  0  0
  -28.5389  -23.5631   20.2317 C   0  0  0  0  0  0
  -29.6378  -20.9997   20.6096 C   0  0  0  0  0  0
  -28.9817  -17.7588   21.8450 C   0  0  0  0  0  0
  -28.9623  -16.2209   21.6368 C   0  0  0  0  0  0
  -30.5608  -17.1824   20.1841 C   0  0  0  0  0  0
  -29.5986  -18.3595   20.5814 C   0  0  2  0  0  0
  -26.3796  -22.2064   17.8847 C   0  0  0  0  0  0
  -26.4099  -22.2934   19.4155 C   0  0  0  0  0  0
  -27.8191  -24.9379   19.9212 C   0  0  0  0  0  0
  -29.8163  -23.4803   20.6998 N   0  0  0  0  0  0
  -28.3705  -21.0887   20.1506 N   0  0  0  0  0  0
  -30.0216  -15.8728   20.6797 N   0  0  0  0  0  0
  -30.2301  -19.7042   20.7847 N   0  0  0  0  0  0
  -31.4649  -12.5246   19.1504 H   0  0  0  0  0  0
  -30.3531  -11.4363   19.9211 H   0  0  0  0  0  0
  -29.7723  -11.7554   17.4921 H   0  0  0  0  0  0
  -29.6367  -13.4807   17.7368 H   0  0  0  0  0  0
  -27.8698  -11.2956   18.8802 H   0  0  0  0  0  0
  -27.3684  -12.5671   17.7979 H   0  0  0  0  0  0
  -27.6589  -14.2582   19.5119 H   0  0  0  0  0  0
  -28.7277  -12.0789   21.3659 H   0  0  0  0  0  0
  -28.4309  -13.7077   21.8523 H   0  0  0  0  0  0
  -25.2761   -9.5685   22.4771 H   0  0  0  0  0  0
  -24.0000   -7.4634   22.7475 H   0  0  0  0  0  0
  -21.0848   -8.8781   19.8942 H   0  0  0  0  0  0
  -22.3708  -10.9677   19.6168 H   0  0  0  0  0  0
  -21.2002   -7.6150   23.9717 H   0  0  0  0  0  0
  -21.1478   -6.0524   25.9076 H   0  0  0  0  0  0
  -22.0596   -2.7611   23.2854 H   0  0  0  0  0  0
  -22.4085  -11.9850   22.4784 H   0  0  0  0  0  0
  -21.1096  -13.1235   22.2634 H   0  0  0  0  0  0
  -24.6444  -15.8410   20.5020 H   0  0  0  0  0  0
  -26.2613  -15.6280   20.0613 H   0  0  0  0  0  0
  -26.7213  -32.5448   23.1137 H   0  0  0  0  0  0
  -25.0105  -33.9741   25.0449 H   0  0  0  0  0  0
  -22.7172  -31.3136   21.4151 H   0  0  0  0  0  0
  -23.3790  -35.9561   23.3182 H   0  0  0  0  0  0
  -24.3611  -36.9017   22.2066 H   0  0  0  0  0  0
  -23.7164  -37.6415   23.6724 H   0  0  0  0  0  0
  -26.1162  -31.5451   20.6260 H   0  0  0  0  0  0
  -26.8507  -30.8205   22.0249 H   0  0  0  0  0  0
  -28.1054  -28.9118   21.2399 H   0  0  0  0  0  0
  -25.8797  -26.0202   18.8778 H   0  0  0  0  0  0
  -23.9576  -27.3912   18.9481 H   0  0  0  0  0  0
  -23.7629  -30.6310   19.4153 H   0  0  0  0  0  0
  -22.7572  -29.2821   19.8523 H   0  0  0  0  0  0
  -25.1254  -36.1906   25.0812 H   0  0  0  0  0  0
  -20.9992  -28.3273   24.1380 H   0  0  0  0  0  0
  -20.5681  -26.2306   23.3596 H   0  0  0  0  0  0
  -21.6647  -26.7437   22.1187 H   0  0  0  0  0  0
  -19.6912  -25.6296   21.1232 H   0  0  0  0  0  0
  -19.6686  -27.3193   20.6732 H   0  0  0  0  0  0
  -17.4196  -26.6679   21.4030 H   0  0  0  0  0  0
  -18.0339  -26.0075   22.9018 H   0  0  0  0  0  0
  -19.7944  -30.7273   24.2262 H   0  0  0  0  0  0
  -17.5026  -31.6267   24.5164 H   0  0  0  0  0  0
  -15.5362  -30.2987   23.7663 H   0  0  0  0  0  0
  -15.8681  -28.0821   22.7080 H   0  0  0  0  0  0
  -24.5915  -30.7076   25.7802 H   0  0  0  0  0  0
  -24.8925  -32.2898   26.4900 H   0  0  0  0  0  0
  -25.8056  -30.8909   27.0261 H   0  0  0  0  0  0
  -26.2957  -29.6755   24.1253 H   0  0  0  0  0  0
  -27.4022  -29.7266   25.4776 H   0  0  0  0  0  0
  -27.8853  -30.4276   23.9523 H   0  0  0  0  0  0
  -27.2677  -33.3640   26.2097 H   0  0  0  0  0  0
  -28.3897  -32.6874   25.0383 H   0  0  0  0  0  0
  -28.0720  -31.8470   26.5479 H   0  0  0  0  0  0
  -28.2464  -38.0201   24.7700 H   0  0  0  0  0  0
  -28.1244  -36.2749   24.5972 H   0  0  0  0  0  0
  -27.2364  -37.1046   25.8834 H   0  0  0  0  0  0
  -20.9383  -29.8810   21.6900 H   0  0  0  0  0  0
  -26.0124  -38.2828   24.1611 H   0  0  0  0  0  0
  -31.3580  -22.1838   21.2495 H   0  0  0  0  0  0
  -29.6096  -17.9870   22.7082 H   0  0  0  0  0  0
  -27.9893  -18.1613   22.0540 H   0  0  0  0  0  0
  -28.0000  -15.9205   21.2260 H   0  0  0  0  0  0
  -29.1006  -15.7101   22.5908 H   0  0  0  0  0  0
  -31.5430  -17.3335   20.6359 H   0  0  0  0  0  0
  -30.7101  -17.1493   19.1039 H   0  0  0  0  0  0
  -28.8231  -18.4395   19.8175 H   0  0  0  0  0  0
  -25.3533  -22.1573   17.5211 H   0  0  0  0  0  0
  -26.9009  -21.3156   17.5328 H   0  0  0  0  0  0
  -26.8520  -23.0742   17.4246 H   0  0  0  0  0  0
  -25.8126  -23.1370   19.7545 H   0  0  0  0  0  0
  -25.9032  -21.4180   19.8251 H   0  0  0  0  0  0
  -26.8859  -24.8228   20.4713 H   0  0  0  0  0  0
  -27.6174  -24.8748   18.8520 H   0  0  0  0  0  0
  -31.1893  -19.7064   21.1186 H   0  0  0  0  0  0
  1 25  1  0  0  0
  1 30  2  0  0  0
  1 84  1  0  0  0
  2  3  1  0  0  0
  2 25  1  0  0  0
  2 86  1  0  0  0
  2 87  1  0  0  0
  3  4  1  0  0  0
  3 88  1  0  0  0
  3 89  1  0  0  0
  4  5  1  0  0  0
  4 90  1  0  0  0
  4 91  1  0  0  0
  5  6  1  0  0  0
  5 26  1  0  0  0
  5 92  1  0  0  0
  6 25  1  0  0  0
  6 93  1  0  0  0
  6 94  1  0  0  0
  7  8  2  0  0  0
  7 26  1  0  0  0
  7 29  1  0  0  0
  8  9  1  0  0  0
  8 22  1  0  0  0
  9 10  1  0  0  0
  9 27  2  0  0  0
 10 11  2  0  0  0
 10 15  1  0  0  0
 11 12  1  0  0  0
 11 95  1  0  0  0
 12 13  2  0  0  0
 12 96  1  0  0  0
 13 14  1  0  0  0
 13 31  1  0  0  0
 14 15  2  0  0  0
 14 97  1  0  0  0
 15 98  1  0  0  0
 16 17  2  0  0  0
 16 21  1  0  0  0
 16 31  1  0  0  0
 17 18  1  0  0  0
 17 99  1  0  0  0
 18 19  2  0  0  0
 18100  1  0  0  0
 19 20  1  0  0  0
 19 24  1  0  0  0
 20 21  2  0  0  0
 20101  1  0  0  0
 21 23  1  0  0  0
 22 28  1  0  0  0
 22 32  2  0  0  0
 26 27  1  0  0  0
 28102  1  0  0  0
 28103  1  0  0  0
 29104  1  0  0  0
 29105  1  0  0  0
 33 34  1  0  0  0
 33 66  1  0  0  0
 33 70  2  0  0  0
 34 36  1  0  0  0
 34 59  1  0  0  0
 34106  1  0  0  0
 35 44  2  0  0  0
 35 45  1  0  0  0
 35 68  1  0  0  0
 36 56  1  0  0  0
 36107  1  0  0  0
 37 39  1  0  0  0
 37 47  1  0  0  0
 37 66  1  0  0  0
 37108  1  0  0  0
 38 43  2  0  0  0
 38 46  1  0  0  0
 38 47  1  0  0  0
 39 64  1  0  0  0
 39 67  2  0  0  0
 40 52  1  0  0  0
 40 53  2  0  0  0
 40 58  1  0  0  0
 41109  1  0  0  0
 41110  1  0  0  0
 41111  1  0  0  0
 41 48  1  0  0  0
 42 43  1  0  0  0
 42 66  1  0  0  0
 42112  1  0  0  0
 42113  1  0  0  0
 43 44  1  0  0  0
 44114  1  0  0  0
 45 46  2  0  0  0
 45115  1  0  0  0
 46116  1  0  0  0
 47117  1  0  0  0
 47118  1  0  0  0
 48 56  1  0  0  0
 48 65  1  0  0  0
 48119  1  0  0  0
 49 50  1  0  0  0
 49 53  1  0  0  0
 49 64  1  0  0  0
 49120  1  0  0  0
 50 51  1  0  0  0
 50121  1  0  0  0
 50122  1  0  0  0
 51 52  1  0  0  0
 51123  1  0  0  0
 51124  1  0  0  0
 52125  1  0  0  0
 52126  1  0  0  0
 53 54  1  0  0  0
 54 55  2  0  0  0
 54127  1  0  0  0
 55 57  1  0  0  0
 55128  1  0  0  0
 56 69  2  0  0  0
 57 58  2  0  0  0
 57129  1  0  0  0
 58130  1  0  0  0
 59 60  1  0  0  0
 59 61  1  0  0  0
 59 62  1  0  0  0
 60131  1  0  0  0
 60132  1  0  0  0
 60133  1  0  0  0
 61134  1  0  0  0
 61135  1  0  0  0
 61136  1  0  0  0
 62137  1  0  0  0
 62138  1  0  0  0
 62139  1  0  0  0
 63 65  1  0  0  0
 63140  1  0  0  0
 63141  1  0  0  0
 63142  1  0  0  0
 64143  1  0  0  0
 65144  1  0  0  0
 68 81  1  0  0  0
 71 74  2  0  0  0
 71 82  1  0  0  0
 71145  1  0  0  0
 72 73  1  0  0  0
 72 80  1  0  0  0
 72 83  2  0  0  0
 73 81  1  0  0  0
 73 82  2  0  0  0
 74 83  1  0  0  0
 74 85  1  0  0  0
 75 76  1  0  0  0
 75 78  1  0  0  0
 75146  1  0  0  0
 75147  1  0  0  0
 76 84  1  0  0  0
 76148  1  0  0  0
 76149  1  0  0  0
 77 78  1  0  0  0
 77 84  1  0  0  0
 77150  1  0  0  0
 77151  1  0  0  0
 78 85  1  0  0  0
 78152  1  0  0  0
 79 80  1  0  0  0
 79153  1  0  0  0
 79154  1  0  0  0
 79155  1  0  0  0
 80156  1  0  0  0
 80157  1  0  0  0
 81158  1  0  0  0
 81159  1  0  0  0
 85160  1  0  0  0
M  ISO  4   1 100  68 101  81 101  84 100
M  END
> <chiral flag>
0

> <version>
0

> <s_m_source_file>
/data/baiqing/PycharmProjects/Reinvent-master-3.2/result/LINK_invent/BTK/process_docking_weight1_custom_sum_contain_oxygen_bond_distance_aromatic_linkinvent_7_9_3/rearranged_h_0186.sdf

> <i_m_source_file_index>
17

> <r_mmod_Potential_Energy-OPLS-2005>
333.001007080078

> <r_mmod_Stretch_Energy-OPLS-2005>
94.4997100830078

> <r_mmod_Bend_Energy-OPLS-2005>
216.726547241211

> <r_mmod_Torsional_Energy-OPLS-2005>
287.198516845703

> <r_mmod_Improper_Torsional_Energy-OPLS-2005>
11.1974267959595

> <r_mmod_Van_der_Waal_Energy-OPLS-2005>
161.494277954102

> <r_mmod_Electrostatic_Energy-OPLS-2005>
-275.927368164062

> <r_mmod_Solvation_Energy-OPLS-2005>
-230.647323608398

> <b_mmod_Minimization_Converged-OPLS-2005>
0

> <r_mmod_RMS_Derivative-OPLS-2005>
0.808457732200623

$$$$
17
                    3D
 Structure written by MMmdl.
151160  0  0  1  0            999 V2000
  -30.3286  -15.6100   20.2568 C   0  0  0  0  0  0
  -30.4254  -13.0775   19.4933 C   0  0  0  0  0  0
  -29.5388  -12.6188   18.3054 C   0  0  0  0  0  0
  -28.1273  -12.2608   18.7908 C   0  0  0  0  0  0
  -27.5990  -13.3004   19.8017 C   0  0  2  0  0  0
  -28.6230  -13.6613   20.9018 C   0  0  0  0  0  0
  -25.2400  -13.8310   20.5823 C   0  0  0  0  0  0
  -24.1739  -13.0433   20.9321 C   0  0  0  0  0  0
  -24.6459  -11.6971   20.8810 C   0  0  0  0  0  0
  -23.9162  -10.4291   21.0429 C   0  0  0  0  0  0
  -24.3685   -9.4223   21.9191 C   0  0  0  0  0  0
  -23.6343   -8.2244   22.0757 C   0  0  0  0  0  0
  -22.4309   -8.0287   21.3553 C   0  0  0  0  0  0
  -21.9949   -9.0276   20.4643 C   0  0  0  0  0  0
  -22.7343  -10.2169   20.3053 C   0  0  0  0  0  0
  -21.6843   -6.0752   22.5268 C   0  0  0  0  0  0
  -21.4050   -6.5649   23.8252 C   0  0  0  0  0  0
  -21.3642   -5.6798   24.9158 C   0  0  0  0  0  0
  -21.6023   -4.3055   24.7218 C   0  0  0  0  0  0
  -21.8817   -3.8167   23.4343 C   0  0  0  0  0  0
  -21.9217   -4.6971   22.3404 C   0  0  0  0  0  0
  -22.7767  -13.5212   21.1887 C   0  0  0  0  0  0
  -22.1662   -4.2167   21.0988 F   0  0  0  0  0  0
  -21.5594   -3.4526   25.7740 F   0  0  0  0  0  0
  -29.7780  -14.2645   20.2005 N   0  0  0  0  0  0
  -26.2803  -12.9578   20.3257 N   0  0  0  0  0  0
  -25.9405  -11.6700   20.5791 N   0  0  0  0  0  0
  -22.0403  -12.8169   22.0448 N   0  0  0  0  0  0
  -25.4058  -15.2037   20.4323 N   0  0  0  0  0  0
  -31.5667  -15.5155   20.2188 O   0  0  0  0  0  0
  -21.6644   -6.8900   21.4256 O   0  0  0  0  0  0
  -22.3463  -14.5474   20.6729 O   0  0  0  0  0  0
  -24.6783  -31.8072   23.1553 C   0  0  0  0  0  0
  -25.9389  -32.4495   23.8085 C   0  0  1  0  0  0
  -27.2066  -26.7651   20.1869 C   0  0  0  0  0  0
  -25.6008  -33.8315   24.2013 N   0  0  0  0  0  0
  -23.4949  -30.4179   21.5075 C   0  0  2  0  0  0
  -24.9439  -28.7675   20.1170 C   0  0  0  0  0  0
  -22.7725  -29.4378   22.4715 C   0  0  0  0  0  0
  -18.0375  -28.1442   22.8470 C   0  0  0  0  0  0
  -24.1482  -36.7156   23.2655 C   0  0  0  0  0  0
  -26.0744  -30.5634   21.3949 C   0  0  0  0  0  0
  -26.1365  -29.1320   20.7526 C   0  0  0  0  0  0
  -27.2583  -28.1599   20.7549 C   0  0  0  0  0  0
  -25.9784  -26.5900   19.5086 C   0  0  0  0  0  0
  -24.8977  -27.5175   19.4776 C   0  0  0  0  0  0
  -23.7384  -29.7181   20.1397 C   0  0  0  0  0  0
  -25.4131  -36.2919   24.0302 C   0  0  1  0  0  0
  -20.5969  -28.3793   23.1171 C   0  0  2  0  0  0
  -20.6798  -26.9457   22.5390 C   0  0  0  0  0  0
  -19.5757  -26.6401   21.5202 C   0  0  0  0  0  0
  -18.1964  -26.7967   22.1630 C   0  0  0  0  0  0
  -19.1627  -28.8932   23.2810 C   0  0  0  0  0  0
  -18.9519  -30.1512   23.8862 C   0  0  0  0  0  0
  -17.6506  -30.6625   24.0555 C   0  0  0  0  0  0
  -25.9084  -34.9292   23.4981 C   0  0  0  0  0  0
  -16.5392  -29.9098   23.6341 C   0  0  0  0  0  0
  -16.7343  -28.6509   23.0376 C   0  0  0  0  0  0
  -26.4617  -31.6487   25.0659 C   0  0  0  0  0  0
  -25.3710  -31.3718   26.1275 C   0  0  0  0  0  0
  -27.0526  -30.2861   24.6422 C   0  0  0  0  0  0
  -27.6097  -32.4315   25.7487 C   0  0  0  0  0  0
  -27.5531  -37.1798   24.8545 C   0  0  0  0  0  0
  -21.4369  -29.3045   22.3500 N   0  0  0  0  0  0
  -26.4317  -37.3626   23.9348 N   0  0  0  0  0  0
  -24.7740  -30.9616   22.0721 N   0  0  0  0  0  0
  -23.4233  -28.7946   23.2997 O   0  0  0  0  0  0
  -28.1866  -25.5800   20.1741 O   0  0  0  0  0  0
  -26.5696  -34.8865   22.4585 O   0  0  0  0  0  0
  -23.5814  -32.1117   23.6580 O   0  0  0  0  0  0
  -30.6682  -18.2900   18.7636 C   0  0  0  0  0  0
  -27.5042  -22.8393   19.6188 C   0  0  0  0  0  0
  -29.5997  -17.1984   18.5768 C   0  0  0  0  0  0
  -28.5394  -22.0908   20.5112 C   0  0  2  0  0  0
  -27.9475  -23.9132   20.5395 C   0  0  1  0  0  0
  -29.9224  -18.7481   20.0231 C   0  0  2  0  0  0
  -29.1375  -20.5076   19.6794 C   0  0  2  0  0  0
  -29.6209  -16.9865   20.0310 N   0  0  0  0  0  0
  -30.3398  -21.1735   19.1590 N   0  3  0  0  0  0
  -31.4045  -13.3582   19.1048 H   0  0  0  0  0  0
  -30.6203  -12.2639   20.1857 H   0  0  0  0  0  0
  -29.9914  -11.7633   17.8018 H   0  0  0  0  0  0
  -29.4778  -13.4200   17.5688 H   0  0  0  0  0  0
  -28.1953  -11.2939   19.2909 H   0  0  0  0  0  0
  -27.4417  -12.1349   17.9540 H   0  0  0  0  0  0
  -27.4500  -14.2022   19.2062 H   0  0  0  0  0  0
  -28.9081  -12.8046   21.5179 H   0  0  0  0  0  0
  -28.2094  -14.4136   21.5753 H   0  0  0  0  0  0
  -25.2805   -9.5646   22.4787 H   0  0  0  0  0  0
  -23.9992   -7.4633   22.7488 H   0  0  0  0  0  0
  -21.0841   -8.8858   19.8964 H   0  0  0  0  0  0
  -22.3807  -10.9699   19.6147 H   0  0  0  0  0  0
  -21.2080   -7.6171   23.9756 H   0  0  0  0  0  0
  -21.1420   -6.0512   25.9098 H   0  0  0  0  0  0
  -22.0616   -2.7610   23.2854 H   0  0  0  0  0  0
  -22.4025  -11.9857   22.4837 H   0  0  0  0  0  0
  -21.1033  -13.1203   22.2636 H   0  0  0  0  0  0
  -24.6413  -15.8588   20.5621 H   0  0  0  0  0  0
  -26.2711  -15.6497   20.1459 H   0  0  0  0  0  0
  -26.7465  -32.4997   23.0778 H   0  0  0  0  0  0
  -25.0136  -33.9328   25.0168 H   0  0  0  0  0  0
  -22.8174  -31.2564   21.3266 H   0  0  0  0  0  0
  -23.3671  -35.9592   23.3536 H   0  0  0  0  0  0
  -24.3471  -36.8556   22.2027 H   0  0  0  0  0  0
  -23.7379  -37.6475   23.6547 H   0  0  0  0  0  0
  -26.2577  -31.2935   20.6046 H   0  0  0  0  0  0
  -26.9295  -30.6332   22.0500 H   0  0  0  0  0  0
  -28.1622  -28.4547   21.2641 H   0  0  0  0  0  0
  -25.8242  -25.6504   18.9928 H   0  0  0  0  0  0
  -23.9891  -27.2348   18.9635 H   0  0  0  0  0  0
  -23.9051  -30.4791   19.3765 H   0  0  0  0  0  0
  -22.8380  -29.1855   19.8184 H   0  0  0  0  0  0
  -25.1358  -36.1724   25.0809 H   0  0  0  0  0  0
  -21.0111  -28.3376   24.1262 H   0  0  0  0  0  0
  -20.5642  -26.2393   23.3634 H   0  0  0  0  0  0
  -21.6667  -26.7366   22.1202 H   0  0  0  0  0  0
  -19.6885  -25.6290   21.1272 H   0  0  0  0  0  0
  -19.6700  -27.3173   20.6706 H   0  0  0  0  0  0
  -17.4211  -26.6731   21.4078 H   0  0  0  0  0  0
  -18.0385  -26.0163   22.9079 H   0  0  0  0  0  0
  -19.7982  -30.7358   24.2234 H   0  0  0  0  0  0
  -17.5034  -31.6297   24.5155 H   0  0  0  0  0  0
  -15.5377  -30.2965   23.7694 H   0  0  0  0  0  0
  -15.8750  -28.0785   22.7136 H   0  0  0  0  0  0
  -24.5953  -30.7020   25.7536 H   0  0  0  0  0  0
  -24.8828  -32.2899   26.4568 H   0  0  0  0  0  0
  -25.7925  -30.8966   27.0136 H   0  0  0  0  0  0
  -26.3199  -29.6515   24.1416 H   0  0  0  0  0  0
  -27.4047  -29.7252   25.5087 H   0  0  0  0  0  0
  -27.9157  -30.4062   23.9857 H   0  0  0  0  0  0
  -27.2684  -33.3692   26.1890 H   0  0  0  0  0  0
  -28.4023  -32.6733   25.0388 H   0  0  0  0  0  0
  -28.0636  -31.8529   26.5544 H   0  0  0  0  0  0
  -28.2740  -37.9879   24.7239 H   0  0  0  0  0  0
  -28.0821  -36.2405   24.6863 H   0  0  0  0  0  0
  -27.2179  -37.2044   25.8930 H   0  0  0  0  0  0
  -20.9656  -29.8748   21.6604 H   0  0  0  0  0  0
  -26.0172  -38.2739   24.1134 H   0  0  0  0  0  0
  -31.6847  -17.9124   18.9686 H   0  0  0  0  0  0
  -30.6645  -18.9697   17.9093 H   0  0  0  0  0  0
  -26.4843  -22.5060   19.7435 H   0  0  0  0  0  0
  -27.7450  -22.9518   18.5707 H   0  0  0  0  0  0
  -29.9492  -16.3817   17.9320 H   0  0  0  0  0  0
  -28.6113  -17.5275   18.2333 H   0  0  0  0  0  0
  -28.1598  -21.7178   21.4701 H   0  0  0  0  0  0
  -27.2756  -24.0755   21.3859 H   0  0  0  0  0  0
  -30.7085  -18.9411   20.7468 H   0  0  0  0  0  0
  -28.5002  -20.3736   18.7980 H   0  0  0  0  0  0
  -30.9293  -20.5403   18.6440 H   0  0  0  0  0  0
  -30.8515  -21.5285   19.9499 H   0  0  0  0  0  0
  -30.0776  -21.9476   18.5725 H   0  0  0  0  0  0
  1 25  1  0  0  0
  1 30  2  0  0  0
  1 78  1  0  0  0
  2  3  1  0  0  0
  2 25  1  0  0  0
  2 80  1  0  0  0
  2 81  1  0  0  0
  3  4  1  0  0  0
  3 82  1  0  0  0
  3 83  1  0  0  0
  4  5  1  0  0  0
  4 84  1  0  0  0
  4 85  1  0  0  0
  5  6  1  0  0  0
  5 26  1  0  0  0
  5 86  1  0  0  0
  6 25  1  0  0  0
  6 87  1  0  0  0
  6 88  1  0  0  0
  7  8  2  0  0  0
  7 26  1  0  0  0
  7 29  1  0  0  0
  8  9  1  0  0  0
  8 22  1  0  0  0
  9 10  1  0  0  0
  9 27  2  0  0  0
 10 11  2  0  0  0
 10 15  1  0  0  0
 11 12  1  0  0  0
 11 89  1  0  0  0
 12 13  2  0  0  0
 12 90  1  0  0  0
 13 14  1  0  0  0
 13 31  1  0  0  0
 14 15  2  0  0  0
 14 91  1  0  0  0
 15 92  1  0  0  0
 16 17  2  0  0  0
 16 21  1  0  0  0
 16 31  1  0  0  0
 17 18  1  0  0  0
 17 93  1  0  0  0
 18 19  2  0  0  0
 18 94  1  0  0  0
 19 20  1  0  0  0
 19 24  1  0  0  0
 20 21  2  0  0  0
 20 95  1  0  0  0
 21 23  1  0  0  0
 22 28  1  0  0  0
 22 32  2  0  0  0
 26 27  1  0  0  0
 28 96  1  0  0  0
 28 97  1  0  0  0
 29 98  1  0  0  0
 29 99  1  0  0  0
 33 34  1  0  0  0
 33 66  1  0  0  0
 33 70  2  0  0  0
 34 36  1  0  0  0
 34 59  1  0  0  0
 34100  1  0  0  0
 35 44  2  0  0  0
 35 45  1  0  0  0
 35 68  1  0  0  0
 36 56  1  0  0  0
 36101  1  0  0  0
 37 39  1  0  0  0
 37 47  1  0  0  0
 37 66  1  0  0  0
 37102  1  0  0  0
 38 43  2  0  0  0
 38 46  1  0  0  0
 38 47  1  0  0  0
 39 64  1  0  0  0
 39 67  2  0  0  0
 40 52  1  0  0  0
 40 53  2  0  0  0
 40 58  1  0  0  0
 41103  1  0  0  0
 41104  1  0  0  0
 41105  1  0  0  0
 41 48  1  0  0  0
 42 43  1  0  0  0
 42 66  1  0  0  0
 42106  1  0  0  0
 42107  1  0  0  0
 43 44  1  0  0  0
 44108  1  0  0  0
 45 46  2  0  0  0
 45109  1  0  0  0
 46110  1  0  0  0
 47111  1  0  0  0
 47112  1  0  0  0
 48 56  1  0  0  0
 48 65  1  0  0  0
 48113  1  0  0  0
 49 50  1  0  0  0
 49 53  1  0  0  0
 49 64  1  0  0  0
 49114  1  0  0  0
 50 51  1  0  0  0
 50115  1  0  0  0
 50116  1  0  0  0
 51 52  1  0  0  0
 51117  1  0  0  0
 51118  1  0  0  0
 52119  1  0  0  0
 52120  1  0  0  0
 53 54  1  0  0  0
 54 55  2  0  0  0
 54121  1  0  0  0
 55 57  1  0  0  0
 55122  1  0  0  0
 56 69  2  0  0  0
 57 58  2  0  0  0
 57123  1  0  0  0
 58124  1  0  0  0
 59 60  1  0  0  0
 59 61  1  0  0  0
 59 62  1  0  0  0
 60125  1  0  0  0
 60126  1  0  0  0
 60127  1  0  0  0
 61128  1  0  0  0
 61129  1  0  0  0
 61130  1  0  0  0
 62131  1  0  0  0
 62132  1  0  0  0
 62133  1  0  0  0
 63 65  1  0  0  0
 63134  1  0  0  0
 63135  1  0  0  0
 63136  1  0  0  0
 64137  1  0  0  0
 65138  1  0  0  0
 68 75  1  0  0  0
 71 73  1  0  0  0
 71139  1  0  0  0
 71140  1  0  0  0
 71 76  1  0  0  0
 72 75  1  0  0  0
 72141  1  0  0  0
 72142  1  0  0  0
 72 74  1  0  0  0
 73 78  1  0  0  0
 73143  1  0  0  0
 73144  1  0  0  0
 74 75  1  0  0  0
 74 77  1  0  0  0
 74145  1  0  0  0
 75146  1  0  0  0
 76 77  1  0  0  0
 76 78  1  0  0  0
 76147  1  0  0  0
 77 79  1  0  0  0
 77148  1  0  0  0
 79149  1  0  0  0
 79150  1  0  0  0
 79151  1  0  0  0
M  CHG  1  79   1
M  ISO  4   1 100  68 101  75 101  78 100
M  END
> <chiral flag>
0

> <version>
0

> <s_m_source_file>
/data/baiqing/PycharmProjects/Reinvent-master-3.2/result/LINK_invent/BTK/process_docking_weight1_custom_sum_contain_oxygen_bond_distance_aromatic_linkinvent_7_9_3/rearranged_h_0186.sdf

> <i_m_source_file_index>
18

> <r_mmod_Potential_Energy-OPLS-2005>
2506.7119140625

> <r_mmod_Stretch_Energy-OPLS-2005>
1132.00317382812

> <r_mmod_Bend_Energy-OPLS-2005>
858.987670898438

> <r_mmod_Torsional_Energy-OPLS-2005>
358.639221191406

> <r_mmod_Improper_Torsional_Energy-OPLS-2005>
17.1263179779053

> <r_mmod_Van_der_Waal_Energy-OPLS-2005>
118.168663024902

> <r_mmod_Electrostatic_Energy-OPLS-2005>
-296.450225830078

> <r_mmod_Solvation_Energy-OPLS-2005>
-514.837036132812

> <b_mmod_Minimization_Converged-OPLS-2005>
0

> <r_mmod_RMS_Derivative-OPLS-2005>
14.2449531555176

$$$$
18
                    3D
 Structure written by MMmdl.
164173  0  0  1  0            999 V2000
  -30.5859  -14.7969   20.3599 C   0  0  0  0  0  0
  -30.4409  -12.4576   19.4708 C   0  0  0  0  0  0
  -29.5187  -12.4001   18.2333 C   0  0  0  0  0  0
  -28.0348  -12.2754   18.6488 C   0  0  0  0  0  0
  -27.6261  -13.1900   19.8397 C   0  0  2  0  0  0
  -28.6888  -13.1940   20.9573 C   0  0  0  0  0  0
  -25.2531  -13.8029   20.5729 C   0  0  0  0  0  0
  -24.1775  -13.0343   20.9188 C   0  0  0  0  0  0
  -24.6337  -11.6798   20.8762 C   0  0  0  0  0  0
  -23.9019  -10.4213   21.0413 C   0  0  0  0  0  0
  -24.3589   -9.4133   21.9187 C   0  0  0  0  0  0
  -23.6254   -8.2185   22.0762 C   0  0  0  0  0  0
  -22.4237   -8.0248   21.3547 C   0  0  0  0  0  0
  -21.9870   -9.0212   20.4647 C   0  0  0  0  0  0
  -22.7207  -10.2073   20.3043 C   0  0  0  0  0  0
  -21.6839   -6.0729   22.5283 C   0  0  0  0  0  0
  -21.4025   -6.5634   23.8223 C   0  0  0  0  0  0
  -21.3631   -5.6775   24.9173 C   0  0  0  0  0  0
  -21.6021   -4.3039   24.7209 C   0  0  0  0  0  0
  -21.8836   -3.8146   23.4331 C   0  0  0  0  0  0
  -21.9182   -4.6963   22.3393 C   0  0  0  0  0  0
  -22.7819  -13.5195   21.1796 C   0  0  0  0  0  0
  -22.1648   -4.2165   21.0962 F   0  0  0  0  0  0
  -21.5589   -3.4508   25.7716 F   0  0  0  0  0  0
  -29.9688  -13.5597   20.3391 N   0  0  0  0  0  0
  -26.2890  -12.9121   20.3342 N   0  0  0  0  0  0
  -25.9250  -11.6325   20.5818 N   0  0  0  0  0  0
  -22.0410  -12.8238   22.0338 N   0  0  0  0  0  0
  -25.4275  -15.1753   20.4160 N   0  0  0  0  0  0
  -31.8179  -14.8489   20.2745 O   0  0  0  0  0  0
  -21.6586   -6.8862   21.4255 O   0  0  0  0  0  0
  -22.3547  -14.5510   20.6615 O   0  0  0  0  0  0
  -24.6277  -31.8545   23.1955 C   0  0  0  0  0  0
  -25.9104  -32.4769   23.8305 C   0  0  1  0  0  0
  -27.2246  -27.2700   20.1347 C   0  0  0  0  0  0
  -25.5920  -33.8577   24.2254 N   0  0  0  0  0  0
  -23.4257  -30.4714   21.5398 C   0  0  2  0  0  0
  -24.8691  -28.9103   20.1057 C   0  0  0  0  0  0
  -22.7495  -29.4587   22.4950 C   0  0  0  0  0  0
  -18.0298  -28.1398   22.8511 C   0  0  0  0  0  0
  -24.1479  -36.7268   23.2658 C   0  0  0  0  0  0
  -25.9652  -30.7720   21.3659 C   0  0  0  0  0  0
  -26.0340  -29.3911   20.7156 C   0  0  0  0  0  0
  -27.2072  -28.5802   20.7179 C   0  0  0  0  0  0
  -26.0388  -26.8401   19.5013 C   0  0  0  0  0  0
  -24.8772  -27.6477   19.4840 C   0  0  0  0  0  0
  -23.6375  -29.7954   20.1558 C   0  0  0  0  0  0
  -25.4111  -36.3094   24.0355 C   0  0  1  0  0  0
  -20.5901  -28.3686   23.1319 C   0  0  2  0  0  0
  -20.6796  -26.9413   22.5439 C   0  0  0  0  0  0
  -19.5755  -26.6391   21.5261 C   0  0  0  0  0  0
  -18.1929  -26.7947   22.1641 C   0  0  0  0  0  0
  -19.1555  -28.8861   23.2907 C   0  0  0  0  0  0
  -18.9468  -30.1478   23.8898 C   0  0  0  0  0  0
  -17.6459  -30.6601   24.0575 C   0  0  0  0  0  0
  -25.9048  -34.9464   23.5103 C   0  0  0  0  0  0
  -16.5352  -29.9089   23.6343 C   0  0  0  0  0  0
  -16.7282  -28.6516   23.0350 C   0  0  0  0  0  0
  -26.4470  -31.6596   25.0687 C   0  0  0  0  0  0
  -25.3708  -31.3690   26.1409 C   0  0  0  0  0  0
  -27.0311  -30.3044   24.6098 C   0  0  0  0  0  0
  -27.6014  -32.4344   25.7439 C   0  0  0  0  0  0
  -27.5579  -37.1797   24.8486 C   0  0  0  0  0  0
  -21.4208  -29.3028   22.3701 N   0  0  0  0  0  0
  -26.4289  -37.3791   23.9436 N   0  0  0  0  0  0
  -24.6932  -31.0503   22.0914 N   0  0  0  0  0  0
  -23.4208  -28.8158   23.3061 O   0  0  0  0  0  0
  -28.3763  -26.4651   20.2127 O   0  0  0  0  0  0
  -26.5607  -34.8949   22.4666 O   0  0  0  0  0  0
  -23.5430  -32.1343   23.7263 O   0  0  0  0  0  0
  -28.1671  -23.8902   20.5293 C   0  0  0  0  0  0
  -28.7660  -22.6251   20.1358 C   0  0  0  0  0  0
  -28.5661  -25.1009   19.8417 C   0  0  0  0  0  0
  -29.9789  -23.7860   18.5658 C   0  0  0  0  0  0
  -29.7987  -17.0588   17.9812 C   0  0  0  0  0  0
  -30.8207  -17.7228   18.8833 C   0  0  0  0  0  0
  -29.0989  -16.0320   18.8800 C   0  0  0  0  0  0
  -30.2624  -17.4384   20.2813 C   0  0  1  0  0  0
  -27.1462  -23.9560   21.6562 C   0  0  0  0  0  0
  -31.0309  -23.7416   17.4790 C   0  0  0  0  0  0
  -28.4811  -21.1764   20.7254 C   0  0  0  0  0  0
  -29.1529  -18.5888   20.6460 C   0  0  0  0  0  0
  -29.6760  -22.6257   19.1434 N   0  0  0  0  0  0
  -29.4851  -24.9824   18.8670 N   0  0  0  0  0  0
  -29.8131  -15.9642   20.1724 N   0  0  0  0  0  0
  -29.5088  -20.0769   20.4396 N   0  3  0  0  0  0
  -31.4782  -12.5968   19.1597 H   0  0  0  0  0  0
  -30.4103  -11.5070   20.0089 H   0  0  0  0  0  0
  -29.7951  -11.5425   17.6182 H   0  0  0  0  0  0
  -29.6787  -13.2603   17.5876 H   0  0  0  0  0  0
  -27.8844  -11.2317   18.9293 H   0  0  0  0  0  0
  -27.3849  -12.4486   17.7907 H   0  0  0  0  0  0
  -27.5461  -14.1817   19.4287 H   0  0  0  0  0  0
  -28.7584  -12.2096   21.4230 H   0  0  0  0  0  0
  -28.4325  -13.9001   21.7497 H   0  0  0  0  0  0
  -25.2737   -9.5568   22.4769 H   0  0  0  0  0  0
  -23.9938   -7.4562   22.7488 H   0  0  0  0  0  0
  -21.0798   -8.8733   19.8958 H   0  0  0  0  0  0
  -22.3695  -10.9608   19.6137 H   0  0  0  0  0  0
  -21.2076   -7.6154   23.9732 H   0  0  0  0  0  0
  -21.1405   -6.0492   25.9071 H   0  0  0  0  0  0
  -22.0646   -2.7618   23.2799 H   0  0  0  0  0  0
  -22.4009  -11.9911   22.4757 H   0  0  0  0  0  0
  -21.1028  -13.1308   22.2472 H   0  0  0  0  0  0
  -24.6667  -15.8343   20.5381 H   0  0  0  0  0  0
  -26.2980  -15.6138   20.1466 H   0  0  0  0  0  0
  -26.7159  -32.5395   23.1034 H   0  0  0  0  0  0
  -25.0143  -33.9725   25.0450 H   0  0  0  0  0  0
  -22.7238  -31.2949   21.3940 H   0  0  0  0  0  0
  -23.3781  -35.9559   23.3310 H   0  0  0  0  0  0
  -24.3589  -36.8863   22.2076 H   0  0  0  0  0  0
  -23.7177  -37.6453   23.6649 H   0  0  0  0  0  0
  -26.0958  -31.5300   20.5930 H   0  0  0  0  0  0
  -26.8486  -30.8267   21.9908 H   0  0  0  0  0  0
  -28.1035  -28.9488   21.1945 H   0  0  0  0  0  0
  -25.9953  -25.8670   19.0353 H   0  0  0  0  0  0
  -23.9841  -27.2798   18.9985 H   0  0  0  0  0  0
  -23.7518  -30.5684   19.3946 H   0  0  0  0  0  0
  -22.7565  -29.2221   19.8597 H   0  0  0  0  0  0
  -25.1295  -36.1943   25.0850 H   0  0  0  0  0  0
  -20.9997  -28.3243   24.1436 H   0  0  0  0  0  0
  -20.5758  -26.2282   23.3632 H   0  0  0  0  0  0
  -21.6650  -26.7486   22.1180 H   0  0  0  0  0  0
  -19.6912  -25.6310   21.1267 H   0  0  0  0  0  0
  -19.6685  -27.3231   20.6814 H   0  0  0  0  0  0
  -17.4221  -26.6758   21.4011 H   0  0  0  0  0  0
  -18.0265  -26.0085   22.9015 H   0  0  0  0  0  0
  -19.7939  -30.7332   24.2220 H   0  0  0  0  0  0
  -17.5001  -31.6269   24.5190 H   0  0  0  0  0  0
  -15.5345  -30.2980   23.7687 H   0  0  0  0  0  0
  -15.8685  -28.0853   22.7024 H   0  0  0  0  0  0
  -24.5958  -30.6947   25.7741 H   0  0  0  0  0  0
  -24.8814  -32.2820   26.4803 H   0  0  0  0  0  0
  -25.8074  -30.8924   27.0194 H   0  0  0  0  0  0
  -26.2859  -29.6810   24.1141 H   0  0  0  0  0  0
  -27.4073  -29.7274   25.4549 H   0  0  0  0  0  0
  -27.8695  -30.4387   23.9267 H   0  0  0  0  0  0
  -27.2644  -33.3702   26.1904 H   0  0  0  0  0  0
  -28.3858  -32.6799   25.0271 H   0  0  0  0  0  0
  -28.0622  -31.8536   26.5431 H   0  0  0  0  0  0
  -28.2605  -38.0089   24.7562 H   0  0  0  0  0  0
  -28.1060  -36.2630   24.6269 H   0  0  0  0  0  0
  -27.2309  -37.1390   25.8891 H   0  0  0  0  0  0
  -20.9405  -29.8688   21.6858 H   0  0  0  0  0  0
  -26.0168  -38.2870   24.1419 H   0  0  0  0  0  0
  -30.2787  -16.5893   17.1201 H   0  0  0  0  0  0
  -29.0751  -17.7817   17.6033 H   0  0  0  0  0  0
  -30.9573  -18.7761   18.6469 H   0  0  0  0  0  0
  -31.7956  -17.2452   18.7717 H   0  0  0  0  0  0
  -29.0625  -15.1033   18.3259 H   0  0  0  0  0  0
  -28.0631  -16.3264   19.0570 H   0  0  0  0  0  0
  -31.0748  -17.5025   21.0057 H   0  0  0  0  0  0
  -27.4754  -23.3976   22.5343 H   0  0  0  0  0  0
  -26.1890  -23.5435   21.3282 H   0  0  0  0  0  0
  -26.9678  -24.9832   21.9794 H   0  0  0  0  0  0
  -31.0986  -22.7463   17.0419 H   0  0  0  0  0  0
  -32.0064  -23.9954   17.8932 H   0  0  0  0  0  0
  -30.7996  -24.4451   16.6799 H   0  0  0  0  0  0
  -27.5164  -20.8634   20.3241 H   0  0  0  0  0  0
  -28.3498  -21.2549   21.8029 H   0  0  0  0  0  0
  -28.8607  -18.4568   21.6882 H   0  0  0  0  0  0
  -28.2440  -18.4104   20.0707 H   0  0  0  0  0  0
  -30.3293  -20.3068   20.9730 H   0  0  0  0  0  0
  -29.7538  -20.2424   19.4764 H   0  0  0  0  0  0
  1 25  1  0  0  0
  1 30  2  0  0  0
  1 85  1  0  0  0
  2  3  1  0  0  0
  2 25  1  0  0  0
  2 87  1  0  0  0
  2 88  1  0  0  0
  3  4  1  0  0  0
  3 89  1  0  0  0
  3 90  1  0  0  0
  4  5  1  0  0  0
  4 91  1  0  0  0
  4 92  1  0  0  0
  5  6  1  0  0  0
  5 26  1  0  0  0
  5 93  1  0  0  0
  6 25  1  0  0  0
  6 94  1  0  0  0
  6 95  1  0  0  0
  7  8  2  0  0  0
  7 26  1  0  0  0
  7 29  1  0  0  0
  8  9  1  0  0  0
  8 22  1  0  0  0
  9 10  1  0  0  0
  9 27  2  0  0  0
 10 11  2  0  0  0
 10 15  1  0  0  0
 11 12  1  0  0  0
 11 96  1  0  0  0
 12 13  2  0  0  0
 12 97  1  0  0  0
 13 14  1  0  0  0
 13 31  1  0  0  0
 14 15  2  0  0  0
 14 98  1  0  0  0
 15 99  1  0  0  0
 16 17  2  0  0  0
 16 21  1  0  0  0
 16 31  1  0  0  0
 17 18  1  0  0  0
 17100  1  0  0  0
 18 19  2  0  0  0
 18101  1  0  0  0
 19 20  1  0  0  0
 19 24  1  0  0  0
 20 21  2  0  0  0
 20102  1  0  0  0
 21 23  1  0  0  0
 22 28  1  0  0  0
 22 32  2  0  0  0
 26 27  1  0  0  0
 28103  1  0  0  0
 28104  1  0  0  0
 29105  1  0  0  0
 29106  1  0  0  0
 33 34  1  0  0  0
 33 66  1  0  0  0
 33 70  2  0  0  0
 34 36  1  0  0  0
 34 59  1  0  0  0
 34107  1  0  0  0
 35 44  2  0  0  0
 35 45  1  0  0  0
 35 68  1  0  0  0
 36 56  1  0  0  0
 36108  1  0  0  0
 37 39  1  0  0  0
 37 47  1  0  0  0
 37 66  1  0  0  0
 37109  1  0  0  0
 38 43  2  0  0  0
 38 46  1  0  0  0
 38 47  1  0  0  0
 39 64  1  0  0  0
 39 67  2  0  0  0
 40 52  1  0  0  0
 40 53  2  0  0  0
 40 58  1  0  0  0
 41110  1  0  0  0
 41111  1  0  0  0
 41112  1  0  0  0
 41 48  1  0  0  0
 42 43  1  0  0  0
 42 66  1  0  0  0
 42113  1  0  0  0
 42114  1  0  0  0
 43 44  1  0  0  0
 44115  1  0  0  0
 45 46  2  0  0  0
 45116  1  0  0  0
 46117  1  0  0  0
 47118  1  0  0  0
 47119  1  0  0  0
 48 56  1  0  0  0
 48 65  1  0  0  0
 48120  1  0  0  0
 49 50  1  0  0  0
 49 53  1  0  0  0
 49 64  1  0  0  0
 49121  1  0  0  0
 50 51  1  0  0  0
 50122  1  0  0  0
 50123  1  0  0  0
 51 52  1  0  0  0
 51124  1  0  0  0
 51125  1  0  0  0
 52126  1  0  0  0
 52127  1  0  0  0
 53 54  1  0  0  0
 54 55  2  0  0  0
 54128  1  0  0  0
 55 57  1  0  0  0
 55129  1  0  0  0
 56 69  2  0  0  0
 57 58  2  0  0  0
 57130  1  0  0  0
 58131  1  0  0  0
 59 60  1  0  0  0
 59 61  1  0  0  0
 59 62  1  0  0  0
 60132  1  0  0  0
 60133  1  0  0  0
 60134  1  0  0  0
 61135  1  0  0  0
 61136  1  0  0  0
 61137  1  0  0  0
 62138  1  0  0  0
 62139  1  0  0  0
 62140  1  0  0  0
 63 65  1  0  0  0
 63141  1  0  0  0
 63142  1  0  0  0
 63143  1  0  0  0
 64144  1  0  0  0
 65145  1  0  0  0
 68 73  1  0  0  0
 71 72  2  0  0  0
 71 73  1  0  0  0
 71 79  1  0  0  0
 72 81  1  0  0  0
 72 83  1  0  0  0
 73 84  2  0  0  0
 74 80  1  0  0  0
 74 83  2  0  0  0
 74 84  1  0  0  0
 75 76  1  0  0  0
 75 77  1  0  0  0
 75146  1  0  0  0
 75147  1  0  0  0
 76 78  1  0  0  0
 76148  1  0  0  0
 76149  1  0  0  0
 77 85  1  0  0  0
 77150  1  0  0  0
 77151  1  0  0  0
 78 82  1  0  0  0
 78 85  1  0  0  0
 78152  1  0  0  0
 79153  1  0  0  0
 79154  1  0  0  0
 79155  1  0  0  0
 80156  1  0  0  0
 80157  1  0  0  0
 80158  1  0  0  0
 81 86  1  0  0  0
 81159  1  0  0  0
 81160  1  0  0  0
 82 86  1  0  0  0
 82161  1  0  0  0
 82162  1  0  0  0
 86163  1  0  0  0
 86164  1  0  0  0
M  CHG  1  86   1
M  ISO  4   1 100  68 101  73 101  85 100
M  END
> <chiral flag>
0

> <version>
0

> <s_m_source_file>
/data/baiqing/PycharmProjects/Reinvent-master-3.2/result/LINK_invent/BTK/process_docking_weight1_custom_sum_contain_oxygen_bond_distance_aromatic_linkinvent_7_9_3/rearranged_h_0186.sdf

> <i_m_source_file_index>
19

> <r_mmod_Potential_Energy-OPLS-2005>
-232.072570800781

> <r_mmod_Stretch_Energy-OPLS-2005>
122.735961914062

> <r_mmod_Bend_Energy-OPLS-2005>
221.546722412109

> <r_mmod_Torsional_Energy-OPLS-2005>
374.500915527344

> <r_mmod_Improper_Torsional_Energy-OPLS-2005>
14.1158819198608

> <r_mmod_Van_der_Waal_Energy-OPLS-2005>
145.133422851562

> <r_mmod_Electrostatic_Energy-OPLS-2005>
-744.943359375

> <r_mmod_Solvation_Energy-OPLS-2005>
-467.455596923828

> <b_mmod_Minimization_Converged-OPLS-2005>
0

> <r_mmod_RMS_Derivative-OPLS-2005>
3.42484450340271

$$$$
19
                    3D
 Structure written by MMmdl.
155164  0  0  1  0            999 V2000
  -30.5287  -14.8372   20.4577 C   0  0  0  0  0  0
  -30.4565  -12.5125   19.4773 C   0  0  0  0  0  0
  -29.5234  -12.5272   18.2424 C   0  0  0  0  0  0
  -28.0475  -12.3384   18.6514 C   0  0  0  0  0  0
  -27.6439  -13.2306   19.8538 C   0  0  2  0  0  0
  -28.6912  -13.1563   20.9876 C   0  0  0  0  0  0
  -25.2513  -13.8185   20.5711 C   0  0  0  0  0  0
  -24.1795  -13.0432   20.9191 C   0  0  0  0  0  0
  -24.6385  -11.6910   20.8726 C   0  0  0  0  0  0
  -23.9061  -10.4288   21.0391 C   0  0  0  0  0  0
  -24.3610   -9.4209   21.9169 C   0  0  0  0  0  0
  -23.6286   -8.2245   22.0751 C   0  0  0  0  0  0
  -22.4263   -8.0279   21.3549 C   0  0  0  0  0  0
  -21.9896   -9.0250   20.4650 C   0  0  0  0  0  0
  -22.7229  -10.2125   20.3050 C   0  0  0  0  0  0
  -21.6854   -6.0727   22.5274 C   0  0  0  0  0  0
  -21.4017   -6.5630   23.8205 C   0  0  0  0  0  0
  -21.3665   -5.6788   24.9168 C   0  0  0  0  0  0
  -21.6046   -4.3050   24.7222 C   0  0  0  0  0  0
  -21.8820   -3.8140   23.4344 C   0  0  0  0  0  0
  -21.9195   -4.6957   22.3399 C   0  0  0  0  0  0
  -22.7818  -13.5223   21.1864 C   0  0  0  0  0  0
  -22.1662   -4.2143   21.0977 F   0  0  0  0  0  0
  -21.5629   -3.4534   25.7735 F   0  0  0  0  0  0
  -29.9856  -13.5616   20.4145 N   0  0  0  0  0  0
  -26.2946  -12.9386   20.3288 N   0  0  0  0  0  0
  -25.9317  -11.6530   20.5727 N   0  0  0  0  0  0
  -22.0473  -12.8213   22.0427 N   0  0  0  0  0  0
  -25.4184  -15.1918   20.4208 N   0  0  0  0  0  0
  -31.7067  -14.9977   20.1104 O   0  0  0  0  0  0
  -21.6640   -6.8865   21.4233 O   0  0  0  0  0  0
  -22.3498  -14.5532   20.6721 O   0  0  0  0  0  0
  -24.6374  -31.8504   23.1921 C   0  0  0  0  0  0
  -25.9173  -32.4728   23.8299 C   0  0  1  0  0  0
  -27.2272  -27.2078   20.1378 C   0  0  0  0  0  0
  -25.5939  -33.8528   24.2226 N   0  0  0  0  0  0
  -23.4373  -30.4709   21.5368 C   0  0  2  0  0  0
  -24.8868  -28.9078   20.1108 C   0  0  0  0  0  0
  -22.7536  -29.4587   22.4885 C   0  0  0  0  0  0
  -18.0301  -28.1388   22.8479 C   0  0  0  0  0  0
  -24.1488  -36.7271   23.2641 C   0  0  0  0  0  0
  -25.9871  -30.7487   21.3769 C   0  0  0  0  0  0
  -26.0613  -29.3647   20.7218 C   0  0  0  0  0  0
  -27.2332  -28.5303   20.7189 C   0  0  0  0  0  0
  -26.0246  -26.8339   19.4953 C   0  0  0  0  0  0
  -24.8775  -27.6530   19.4845 C   0  0  0  0  0  0
  -23.6595  -29.8009   20.1550 C   0  0  0  0  0  0
  -25.4114  -36.3052   24.0327 C   0  0  1  0  0  0
  -20.5908  -28.3713   23.1248 C   0  0  2  0  0  0
  -20.6781  -26.9421   22.5407 C   0  0  0  0  0  0
  -19.5758  -26.6379   21.5208 C   0  0  0  0  0  0
  -18.1939  -26.7926   22.1622 C   0  0  0  0  0  0
  -19.1556  -28.8868   23.2859 C   0  0  0  0  0  0
  -18.9474  -30.1460   23.8892 C   0  0  0  0  0  0
  -17.6471  -30.6586   24.0560 C   0  0  0  0  0  0
  -25.9064  -34.9428   23.5085 C   0  0  0  0  0  0
  -16.5362  -29.9082   23.6324 C   0  0  0  0  0  0
  -16.7287  -28.6497   23.0354 C   0  0  0  0  0  0
  -26.4516  -31.6565   25.0708 C   0  0  0  0  0  0
  -25.3726  -31.3727   26.1421 C   0  0  0  0  0  0
  -27.0357  -30.2975   24.6211 C   0  0  0  0  0  0
  -27.6066  -32.4306   25.7487 C   0  0  0  0  0  0
  -27.5576  -37.1788   24.8466 C   0  0  0  0  0  0
  -21.4236  -29.3049   22.3632 N   0  0  0  0  0  0
  -26.4282  -37.3759   23.9416 N   0  0  0  0  0  0
  -24.7070  -31.0426   22.0917 N   0  0  0  0  0  0
  -23.4211  -28.8133   23.3013 O   0  0  0  0  0  0
  -28.3112  -26.2780   20.2012 O   0  0  0  0  0  0
  -26.5647  -34.8916   22.4660 O   0  0  0  0  0  0
  -23.5511  -32.1346   23.7185 O   0  0  0  0  0  0
  -28.3946  -19.8782   21.1250 C   0  0  0  0  0  0
  -29.5413  -19.6445   20.4049 C   0  0  0  0  0  0
  -27.7713  -18.7635   21.6996 C   0  0  0  0  0  0
  -29.4052  -17.2947   20.8351 C   0  0  0  0  0  0
  -28.0051  -21.3752   21.1626 C   0  0  0  0  0  0
  -30.0106  -21.0544   19.8929 C   0  0  0  0  0  0
  -26.5010  -18.8868   22.5131 C   0  0  0  0  0  0
  -29.1826  -23.5961   20.3657 C   0  0  0  0  0  0
  -28.0648  -24.7716   20.0597 C   0  0  0  0  0  0
  -30.0708  -18.3488   20.2413 N   0  0  0  0  0  0
  -28.2825  -17.5159   21.5338 N   0  0  0  0  0  0
  -29.6299  -15.8651   20.7582 N   0  0  0  0  0  0
  -28.8738  -22.0685   20.1504 N   0  3  2  0  0  0
  -31.4901  -12.6782   19.1696 H   0  0  0  0  0  0
  -30.4423  -11.5351   19.9618 H   0  0  0  0  0  0
  -29.8190  -11.7483   17.5380 H   0  0  0  0  0  0
  -29.6354  -13.4739   17.7124 H   0  0  0  0  0  0
  -27.9055  -11.2879   18.9074 H   0  0  0  0  0  0
  -27.3936  -12.5348   17.8010 H   0  0  0  0  0  0
  -27.6339  -14.2532   19.4759 H   0  0  0  0  0  0
  -28.7486  -12.1448   21.3929 H   0  0  0  0  0  0
  -28.4057  -13.7947   21.8249 H   0  0  0  0  0  0
  -25.2757   -9.5689   22.4739 H   0  0  0  0  0  0
  -24.0003   -7.4636   22.7468 H   0  0  0  0  0  0
  -21.0827   -8.8773   19.8953 H   0  0  0  0  0  0
  -22.3690  -10.9662   19.6160 H   0  0  0  0  0  0
  -21.2009   -7.6140   23.9706 H   0  0  0  0  0  0
  -21.1485   -6.0517   25.9071 H   0  0  0  0  0  0
  -22.0595   -2.7602   23.2846 H   0  0  0  0  0  0
  -22.4092  -11.9876   22.4816 H   0  0  0  0  0  0
  -21.1092  -13.1233   22.2645 H   0  0  0  0  0  0
  -24.6500  -15.8401   20.5541 H   0  0  0  0  0  0
  -26.2775  -15.6530   20.1509 H   0  0  0  0  0  0
  -26.7244  -32.5366   23.1042 H   0  0  0  0  0  0
  -25.0072  -33.9647   25.0363 H   0  0  0  0  0  0
  -22.7364  -31.2948   21.3853 H   0  0  0  0  0  0
  -23.3749  -35.9603   23.3290 H   0  0  0  0  0  0
  -24.3583  -36.8908   22.2059 H   0  0  0  0  0  0
  -23.7240  -37.6468   23.6675 H   0  0  0  0  0  0
  -26.1276  -31.5037   20.6020 H   0  0  0  0  0  0
  -26.8641  -30.8050   22.0103 H   0  0  0  0  0  0
  -28.1306  -28.8784   21.2107 H   0  0  0  0  0  0
  -25.9354  -25.8771   19.0044 H   0  0  0  0  0  0
  -23.9799  -27.2979   18.9966 H   0  0  0  0  0  0
  -23.7895  -30.5751   19.3977 H   0  0  0  0  0  0
  -22.7763  -29.2376   19.8487 H   0  0  0  0  0  0
  -25.1290  -36.1890   25.0816 H   0  0  0  0  0  0
  -21.0004  -28.3297   24.1369 H   0  0  0  0  0  0
  -20.5656  -26.2331   23.3625 H   0  0  0  0  0  0
  -21.6651  -26.7421   22.1219 H   0  0  0  0  0  0
  -19.6917  -25.6284   21.1252 H   0  0  0  0  0  0
  -19.6687  -27.3178   20.6728 H   0  0  0  0  0  0
  -17.4204  -26.6672   21.4027 H   0  0  0  0  0  0
  -18.0343  -26.0070   22.9025 H   0  0  0  0  0  0
  -19.7950  -30.7271   24.2267 H   0  0  0  0  0  0
  -17.5027  -31.6264   24.5165 H   0  0  0  0  0  0
  -15.5364  -30.2989   23.7640 H   0  0  0  0  0  0
  -15.8687  -28.0809   22.7084 H   0  0  0  0  0  0
  -24.5911  -30.7063   25.7751 H   0  0  0  0  0  0
  -24.8908  -32.2897   26.4820 H   0  0  0  0  0  0
  -25.8037  -30.8926   27.0215 H   0  0  0  0  0  0
  -26.2942  -29.6721   24.1224 H   0  0  0  0  0  0
  -27.4018  -29.7240   25.4736 H   0  0  0  0  0  0
  -27.8833  -30.4236   23.9472 H   0  0  0  0  0  0
  -27.2676  -33.3620   26.2034 H   0  0  0  0  0  0
  -28.3895  -32.6836   25.0325 H   0  0  0  0  0  0
  -28.0713  -31.8444   26.5426 H   0  0  0  0  0  0
  -28.2584  -38.0095   24.7512 H   0  0  0  0  0  0
  -28.1079  -36.2622   24.6278 H   0  0  0  0  0  0
  -27.2302  -37.1429   25.8872 H   0  0  0  0  0  0
  -20.9435  -29.8781   21.6835 H   0  0  0  0  0  0
  -26.0153  -38.2828   24.1418 H   0  0  0  0  0  0
  -28.1972  -21.7682   22.1621 H   0  0  0  0  0  0
  -26.9480  -21.5227   20.9367 H   0  0  0  0  0  0
  -30.2695  -21.0191   18.8353 H   0  0  0  0  0  0
  -30.9015  -21.3452   20.4481 H   0  0  0  0  0  0
  -26.5868  -19.7001   23.2341 H   0  0  0  0  0  0
  -26.2906  -17.9688   23.0627 H   0  0  0  0  0  0
  -25.6541  -19.0932   21.8589 H   0  0  0  0  0  0
  -29.5423  -23.7201   21.3872 H   0  0  0  0  0  0
  -30.0407  -23.8245   19.7333 H   0  0  0  0  0  0
  -27.1963  -24.5425   20.6785 H   0  0  0  0  0  0
  -27.7411  -24.6114   19.0316 H   0  0  0  0  0  0
  -28.7878  -15.4152   21.0701 H   0  0  0  0  0  0
  -28.3467  -22.0190   19.2911 H   0  0  0  0  0  0
  1 25  1  0  0  0
  1 30  2  0  0  0
  1 82  1  0  0  0
  2  3  1  0  0  0
  2 25  1  0  0  0
  2 84  1  0  0  0
  2 85  1  0  0  0
  3  4  1  0  0  0
  3 86  1  0  0  0
  3 87  1  0  0  0
  4  5  1  0  0  0
  4 88  1  0  0  0
  4 89  1  0  0  0
  5  6  1  0  0  0
  5 26  1  0  0  0
  5 90  1  0  0  0
  6 25  1  0  0  0
  6 91  1  0  0  0
  6 92  1  0  0  0
  7  8  2  0  0  0
  7 26  1  0  0  0
  7 29  1  0  0  0
  8  9  1  0  0  0
  8 22  1  0  0  0
  9 10  1  0  0  0
  9 27  2  0  0  0
 10 11  2  0  0  0
 10 15  1  0  0  0
 11 12  1  0  0  0
 11 93  1  0  0  0
 12 13  2  0  0  0
 12 94  1  0  0  0
 13 14  1  0  0  0
 13 31  1  0  0  0
 14 15  2  0  0  0
 14 95  1  0  0  0
 15 96  1  0  0  0
 16 17  2  0  0  0
 16 21  1  0  0  0
 16 31  1  0  0  0
 17 18  1  0  0  0
 17 97  1  0  0  0
 18 19  2  0  0  0
 18 98  1  0  0  0
 19 20  1  0  0  0
 19 24  1  0  0  0
 20 21  2  0  0  0
 20 99  1  0  0  0
 21 23  1  0  0  0
 22 28  1  0  0  0
 22 32  2  0  0  0
 26 27  1  0  0  0
 28100  1  0  0  0
 28101  1  0  0  0
 29102  1  0  0  0
 29103  1  0  0  0
 33 34  1  0  0  0
 33 66  1  0  0  0
 33 70  2  0  0  0
 34 36  1  0  0  0
 34 59  1  0  0  0
 34104  1  0  0  0
 35 44  2  0  0  0
 35 45  1  0  0  0
 35 68  1  0  0  0
 36 56  1  0  0  0
 36105  1  0  0  0
 37 39  1  0  0  0
 37 47  1  0  0  0
 37 66  1  0  0  0
 37106  1  0  0  0
 38 43  2  0  0  0
 38 46  1  0  0  0
 38 47  1  0  0  0
 39 64  1  0  0  0
 39 67  2  0  0  0
 40 52  1  0  0  0
 40 53  2  0  0  0
 40 58  1  0  0  0
 41107  1  0  0  0
 41108  1  0  0  0
 41109  1  0  0  0
 41 48  1  0  0  0
 42 43  1  0  0  0
 42 66  1  0  0  0
 42110  1  0  0  0
 42111  1  0  0  0
 43 44  1  0  0  0
 44112  1  0  0  0
 45 46  2  0  0  0
 45113  1  0  0  0
 46114  1  0  0  0
 47115  1  0  0  0
 47116  1  0  0  0
 48 56  1  0  0  0
 48 65  1  0  0  0
 48117  1  0  0  0
 49 50  1  0  0  0
 49 53  1  0  0  0
 49 64  1  0  0  0
 49118  1  0  0  0
 50 51  1  0  0  0
 50119  1  0  0  0
 50120  1  0  0  0
 51 52  1  0  0  0
 51121  1  0  0  0
 51122  1  0  0  0
 52123  1  0  0  0
 52124  1  0  0  0
 53 54  1  0  0  0
 54 55  2  0  0  0
 54125  1  0  0  0
 55 57  1  0  0  0
 55126  1  0  0  0
 56 69  2  0  0  0
 57 58  2  0  0  0
 57127  1  0  0  0
 58128  1  0  0  0
 59 60  1  0  0  0
 59 61  1  0  0  0
 59 62  1  0  0  0
 60129  1  0  0  0
 60130  1  0  0  0
 60131  1  0  0  0
 61132  1  0  0  0
 61133  1  0  0  0
 61134  1  0  0  0
 62135  1  0  0  0
 62136  1  0  0  0
 62137  1  0  0  0
 63 65  1  0  0  0
 63138  1  0  0  0
 63139  1  0  0  0
 63140  1  0  0  0
 64141  1  0  0  0
 65142  1  0  0  0
 68 79  1  0  0  0
 71 72  1  0  0  0
 71 73  2  0  0  0
 71 75  1  0  0  0
 72 76  1  0  0  0
 72 80  2  0  0  0
 73 77  1  0  0  0
 73 81  1  0  0  0
 74 80  1  0  0  0
 74 81  2  0  0  0
 74 82  1  0  0  0
 75 83  1  0  0  0
 75143  1  0  0  0
 75144  1  0  0  0
 76 83  1  0  0  0
 76145  1  0  0  0
 76146  1  0  0  0
 77147  1  0  0  0
 77148  1  0  0  0
 77149  1  0  0  0
 78 79  1  0  0  0
 78150  1  0  0  0
 78151  1  0  0  0
 78 83  1  0  0  0
 79152  1  0  0  0
 79153  1  0  0  0
 82154  1  0  0  0
 83155  1  0  0  0
M  CHG  1  83   1
M  ISO  4   1 100  68 101  79 101  82 100
M  END
> <chiral flag>
0

> <version>
0

> <s_m_source_file>
/data/baiqing/PycharmProjects/Reinvent-master-3.2/result/LINK_invent/BTK/process_docking_weight1_custom_sum_contain_oxygen_bond_distance_aromatic_linkinvent_7_9_3/rearranged_h_0186.sdf

> <i_m_source_file_index>
20

> <r_mmod_Potential_Energy-OPLS-2005>
-224.491333007812

> <r_mmod_Stretch_Energy-OPLS-2005>
161.998992919922

> <r_mmod_Bend_Energy-OPLS-2005>
309.524291992188

> <r_mmod_Torsional_Energy-OPLS-2005>
214.549407958984

> <r_mmod_Improper_Torsional_Energy-OPLS-2005>
3.62025833129883

> <r_mmod_Van_der_Waal_Energy-OPLS-2005>
130.786560058594

> <r_mmod_Electrostatic_Energy-OPLS-2005>
-687.233642578125

> <r_mmod_Solvation_Energy-OPLS-2005>
-483.754241943359

> <b_mmod_Minimization_Converged-OPLS-2005>
0

> <r_mmod_RMS_Derivative-OPLS-2005>
1.05820763111115

$$$$
20
                    3D
 Structure written by MMmdl.
149158  0  0  1  0            999 V2000
  -30.6006  -14.9894   20.3942 C   0  0  0  0  0  0
  -30.4134  -12.6234   19.5048 C   0  0  0  0  0  0
  -29.5071  -12.5232   18.2596 C   0  0  0  0  0  0
  -28.0499  -12.2938   18.6911 C   0  0  0  0  0  0
  -27.6139  -13.2601   19.8240 C   0  0  2  0  0  0
  -28.6538  -13.3685   20.9597 C   0  0  0  0  0  0
  -25.2383  -13.8248   20.5720 C   0  0  0  0  0  0
  -24.1724  -13.0450   20.9252 C   0  0  0  0  0  0
  -24.6359  -11.6937   20.8769 C   0  0  0  0  0  0
  -23.9055  -10.4298   21.0412 C   0  0  0  0  0  0
  -24.3615   -9.4214   21.9187 C   0  0  0  0  0  0
  -23.6300   -8.2240   22.0755 C   0  0  0  0  0  0
  -22.4281   -8.0274   21.3548 C   0  0  0  0  0  0
  -21.9909   -9.0239   20.4646 C   0  0  0  0  0  0
  -22.7226  -10.2125   20.3058 C   0  0  0  0  0  0
  -21.6846   -6.0736   22.5276 C   0  0  0  0  0  0
  -21.4006   -6.5635   23.8212 C   0  0  0  0  0  0
  -21.3665   -5.6788   24.9175 C   0  0  0  0  0  0
  -21.6041   -4.3051   24.7215 C   0  0  0  0  0  0
  -21.8822   -3.8144   23.4336 C   0  0  0  0  0  0
  -21.9191   -4.6966   22.3396 C   0  0  0  0  0  0
  -22.7742  -13.5199   21.1901 C   0  0  0  0  0  0
  -22.1658   -4.2148   21.0976 F   0  0  0  0  0  0
  -21.5633   -3.4535   25.7732 F   0  0  0  0  0  0
  -29.9226  -13.7674   20.3393 N   0  0  0  0  0  0
  -26.2803  -12.9495   20.3218 N   0  0  0  0  0  0
  -25.9289  -11.6614   20.5744 N   0  0  0  0  0  0
  -22.0402  -12.8191   22.0466 N   0  0  0  0  0  0
  -25.4040  -15.1973   20.4130 N   0  0  0  0  0  0
  -31.8144  -14.9259   20.1702 O   0  0  0  0  0  0
  -21.6639   -6.8874   21.4242 O   0  0  0  0  0  0
  -22.3424  -14.5494   20.6739 O   0  0  0  0  0  0
  -24.6477  -31.8406   23.1850 C   0  0  0  0  0  0
  -25.9232  -32.4674   23.8254 C   0  0  1  0  0  0
  -27.2006  -27.0867   20.1459 C   0  0  0  0  0  0
  -25.5977  -33.8491   24.2158 N   0  0  0  0  0  0
  -23.4524  -30.4635   21.5315 C   0  0  2  0  0  0
  -24.8998  -28.8906   20.1061 C   0  0  0  0  0  0
  -22.7576  -29.4555   22.4825 C   0  0  0  0  0  0
  -18.0307  -28.1411   22.8480 C   0  0  0  0  0  0
  -24.1485  -36.7238   23.2645 C   0  0  0  0  0  0
  -26.0152  -30.6977   21.3946 C   0  0  0  0  0  0
  -26.0820  -29.3076   20.7304 C   0  0  0  0  0  0
  -27.2334  -28.4227   20.7348 C   0  0  0  0  0  0
  -25.9908  -26.7960   19.4738 C   0  0  0  0  0  0
  -24.8697  -27.6494   19.4627 C   0  0  0  0  0  0
  -23.6791  -29.7961   20.1504 C   0  0  0  0  0  0
  -25.4124  -36.3010   24.0300 C   0  0  1  0  0  0
  -20.5918  -28.3729   23.1219 C   0  0  2  0  0  0
  -20.6797  -26.9430   22.5403 C   0  0  0  0  0  0
  -19.5773  -26.6387   21.5214 C   0  0  0  0  0  0
  -18.1947  -26.7956   22.1611 C   0  0  0  0  0  0
  -19.1566  -28.8889   23.2846 C   0  0  0  0  0  0
  -18.9488  -30.1489   23.8870 C   0  0  0  0  0  0
  -17.6485  -30.6610   24.0561 C   0  0  0  0  0  0
  -25.9084  -34.9393   23.5025 C   0  0  0  0  0  0
  -16.5373  -29.9102   23.6348 C   0  0  0  0  0  0
  -16.7287  -28.6514   23.0376 C   0  0  0  0  0  0
  -26.4541  -31.6568   25.0722 C   0  0  0  0  0  0
  -25.3694  -31.3821   26.1396 C   0  0  0  0  0  0
  -27.0403  -30.2942   24.6365 C   0  0  0  0  0  0
  -27.6067  -32.4351   25.7507 C   0  0  0  0  0  0
  -27.5562  -37.1775   24.8468 C   0  0  0  0  0  0
  -21.4261  -29.3055   22.3579 N   0  0  0  0  0  0
  -26.4282  -37.3729   23.9399 N   0  0  0  0  0  0
  -24.7258  -31.0222   22.0913 N   0  0  0  0  0  0
  -23.4204  -28.8105   23.2990 O   0  0  0  0  0  0
  -28.2077  -26.0366   20.2292 O   0  0  0  0  0  0
  -26.5677  -34.8890   22.4607 O   0  0  0  0  0  0
  -23.5583  -32.1297   23.7028 O   0  0  0  0  0  0
  -29.0896  -21.1078   21.5339 C   0  0  0  0  0  0
  -28.6521  -22.0788   19.1034 C   0  0  0  0  0  0
  -29.1558  -20.1294   20.4662 C   0  0  0  0  0  0
  -28.5531  -23.0568   20.1725 C   0  0  0  0  0  0
  -28.7798  -17.1096   20.2579 C   0  0  0  0  0  0
  -30.7703  -17.6289   20.4064 C   0  0  0  0  0  0
  -29.4787  -18.4937   20.6905 C   0  0  0  0  0  0
  -27.7867  -24.5373   19.9820 C   0  0  0  0  0  0
  -28.9477  -20.7096   19.2302 N   0  0  0  0  0  0
  -28.7910  -22.4777   21.4049 N   0  0  0  0  0  0
  -30.0358  -16.3063   20.5619 N   0  0  0  0  0  0
  -31.4489  -12.7493   19.1860 H   0  0  0  0  0  0
  -30.3939  -11.6925   20.0751 H   0  0  0  0  0  0
  -29.8391  -11.7107   17.6123 H   0  0  0  0  0  0
  -29.5803  -13.4383   17.6692 H   0  0  0  0  0  0
  -27.9751  -11.2632   19.0417 H   0  0  0  0  0  0
  -27.3777  -12.3723   17.8358 H   0  0  0  0  0  0
  -27.5527  -14.2424   19.3538 H   0  0  0  0  0  0
  -28.7531  -12.4267   21.5012 H   0  0  0  0  0  0
  -28.3415  -14.1210   21.6862 H   0  0  0  0  0  0
  -25.2759   -9.5685   22.4762 H   0  0  0  0  0  0
  -24.0008   -7.4620   22.7467 H   0  0  0  0  0  0
  -21.0840   -8.8741   19.8944 H   0  0  0  0  0  0
  -22.3676  -10.9660   19.6161 H   0  0  0  0  0  0
  -21.1998   -7.6145   23.9710 H   0  0  0  0  0  0
  -21.1483   -6.0523   25.9077 H   0  0  0  0  0  0
  -22.0601   -2.7607   23.2831 H   0  0  0  0  0  0
  -22.4037  -11.9867   22.4856 H   0  0  0  0  0  0
  -21.1010  -13.1196   22.2661 H   0  0  0  0  0  0
  -24.6356  -15.8513   20.5191 H   0  0  0  0  0  0
  -26.2519  -15.6317   20.0740 H   0  0  0  0  0  0
  -26.7288  -32.5235   23.0972 H   0  0  0  0  0  0
  -25.0099  -33.9612   25.0287 H   0  0  0  0  0  0
  -22.7580  -31.2922   21.3748 H   0  0  0  0  0  0
  -23.3751  -35.9571   23.3317 H   0  0  0  0  0  0
  -24.3568  -36.8858   22.2062 H   0  0  0  0  0  0
  -23.7251  -37.6438   23.6682 H   0  0  0  0  0  0
  -26.1819  -31.4507   20.6238 H   0  0  0  0  0  0
  -26.8840  -30.7429   22.0411 H   0  0  0  0  0  0
  -28.1292  -28.7326   21.2520 H   0  0  0  0  0  0
  -25.8470  -25.8556   18.9665 H   0  0  0  0  0  0
  -23.9662  -27.3266   18.9625 H   0  0  0  0  0  0
  -23.8171  -30.5705   19.3944 H   0  0  0  0  0  0
  -22.7911  -29.2413   19.8399 H   0  0  0  0  0  0
  -25.1324  -36.1817   25.0798 H   0  0  0  0  0  0
  -21.0011  -28.3308   24.1336 H   0  0  0  0  0  0
  -20.5690  -26.2339   23.3621 H   0  0  0  0  0  0
  -21.6662  -26.7446   22.1199 H   0  0  0  0  0  0
  -19.6936  -25.6294   21.1257 H   0  0  0  0  0  0
  -19.6716  -27.3183   20.6733 H   0  0  0  0  0  0
  -17.4222  -26.6702   21.4006 H   0  0  0  0  0  0
  -18.0340  -26.0114   22.9016 H   0  0  0  0  0  0
  -19.7971  -30.7315   24.2214 H   0  0  0  0  0  0
  -17.5050  -31.6289   24.5173 H   0  0  0  0  0  0
  -15.5378  -30.3006   23.7719 H   0  0  0  0  0  0
  -15.8676  -28.0827   22.7128 H   0  0  0  0  0  0
  -24.5913  -30.7102   25.7748 H   0  0  0  0  0  0
  -24.8843  -32.3035   26.4637 H   0  0  0  0  0  0
  -25.7967  -30.9148   27.0276 H   0  0  0  0  0  0
  -26.3029  -29.6669   24.1343 H   0  0  0  0  0  0
  -27.3945  -29.7260   25.4982 H   0  0  0  0  0  0
  -27.8974  -30.4171   23.9738 H   0  0  0  0  0  0
  -27.2656  -33.3692   26.1994 H   0  0  0  0  0  0
  -28.3938  -32.6849   25.0373 H   0  0  0  0  0  0
  -28.0672  -31.8530   26.5503 H   0  0  0  0  0  0
  -28.2601  -38.0050   24.7475 H   0  0  0  0  0  0
  -28.1030  -36.2579   24.6338 H   0  0  0  0  0  0
  -27.2277  -37.1468   25.8873 H   0  0  0  0  0  0
  -20.9460  -29.8735   21.6738 H   0  0  0  0  0  0
  -26.0125  -38.2777   24.1430 H   0  0  0  0  0  0
  -29.2655  -20.7798   22.5478 H   0  0  0  0  0  0
  -28.4030  -22.3865   18.0974 H   0  0  0  0  0  0
  -28.5065  -17.0945   19.1998 H   0  0  0  0  0  0
  -27.9141  -16.8587   20.8732 H   0  0  0  0  0  0
  -31.5661  -17.7975   21.1328 H   0  0  0  0  0  0
  -31.1570  -17.7778   19.3965 H   0  0  0  0  0  0
  -29.3914  -18.4713   21.7783 H   0  0  0  0  0  0
  -26.8618  -24.4080   20.5467 H   0  0  0  0  0  0
  -27.4881  -24.5074   18.9347 H   0  0  0  0  0  0
  1 25  1  0  0  0
  1 30  2  0  0  0
  1 81  1  0  0  0
  2  3  1  0  0  0
  2 25  1  0  0  0
  2 82  1  0  0  0
  2 83  1  0  0  0
  3  4  1  0  0  0
  3 84  1  0  0  0
  3 85  1  0  0  0
  4  5  1  0  0  0
  4 86  1  0  0  0
  4 87  1  0  0  0
  5  6  1  0  0  0
  5 26  1  0  0  0
  5 88  1  0  0  0
  6 25  1  0  0  0
  6 89  1  0  0  0
  6 90  1  0  0  0
  7  8  2  0  0  0
  7 26  1  0  0  0
  7 29  1  0  0  0
  8  9  1  0  0  0
  8 22  1  0  0  0
  9 10  1  0  0  0
  9 27  2  0  0  0
 10 11  2  0  0  0
 10 15  1  0  0  0
 11 12  1  0  0  0
 11 91  1  0  0  0
 12 13  2  0  0  0
 12 92  1  0  0  0
 13 14  1  0  0  0
 13 31  1  0  0  0
 14 15  2  0  0  0
 14 93  1  0  0  0
 15 94  1  0  0  0
 16 17  2  0  0  0
 16 21  1  0  0  0
 16 31  1  0  0  0
 17 18  1  0  0  0
 17 95  1  0  0  0
 18 19  2  0  0  0
 18 96  1  0  0  0
 19 20  1  0  0  0
 19 24  1  0  0  0
 20 21  2  0  0  0
 20 97  1  0  0  0
 21 23  1  0  0  0
 22 28  1  0  0  0
 22 32  2  0  0  0
 26 27  1  0  0  0
 28 98  1  0  0  0
 28 99  1  0  0  0
 29100  1  0  0  0
 29101  1  0  0  0
 33 34  1  0  0  0
 33 66  1  0  0  0
 33 70  2  0  0  0
 34 36  1  0  0  0
 34 59  1  0  0  0
 34102  1  0  0  0
 35 44  2  0  0  0
 35 45  1  0  0  0
 35 68  1  0  0  0
 36 56  1  0  0  0
 36103  1  0  0  0
 37 39  1  0  0  0
 37 47  1  0  0  0
 37 66  1  0  0  0
 37104  1  0  0  0
 38 43  2  0  0  0
 38 46  1  0  0  0
 38 47  1  0  0  0
 39 64  1  0  0  0
 39 67  2  0  0  0
 40 52  1  0  0  0
 40 53  2  0  0  0
 40 58  1  0  0  0
 41105  1  0  0  0
 41106  1  0  0  0
 41107  1  0  0  0
 41 48  1  0  0  0
 42 43  1  0  0  0
 42 66  1  0  0  0
 42108  1  0  0  0
 42109  1  0  0  0
 43 44  1  0  0  0
 44110  1  0  0  0
 45 46  2  0  0  0
 45111  1  0  0  0
 46112  1  0  0  0
 47113  1  0  0  0
 47114  1  0  0  0
 48 56  1  0  0  0
 48 65  1  0  0  0
 48115  1  0  0  0
 49 50  1  0  0  0
 49 53  1  0  0  0
 49 64  1  0  0  0
 49116  1  0  0  0
 50 51  1  0  0  0
 50117  1  0  0  0
 50118  1  0  0  0
 51 52  1  0  0  0
 51119  1  0  0  0
 51120  1  0  0  0
 52121  1  0  0  0
 52122  1  0  0  0
 53 54  1  0  0  0
 54 55  2  0  0  0
 54123  1  0  0  0
 55 57  1  0  0  0
 55124  1  0  0  0
 56 69  2  0  0  0
 57 58  2  0  0  0
 57125  1  0  0  0
 58126  1  0  0  0
 59 60  1  0  0  0
 59 61  1  0  0  0
 59 62  1  0  0  0
 60127  1  0  0  0
 60128  1  0  0  0
 60129  1  0  0  0
 61130  1  0  0  0
 61131  1  0  0  0
 61132  1  0  0  0
 62133  1  0  0  0
 62134  1  0  0  0
 62135  1  0  0  0
 63 65  1  0  0  0
 63136  1  0  0  0
 63137  1  0  0  0
 63138  1  0  0  0
 64139  1  0  0  0
 65140  1  0  0  0
 68 78  1  0  0  0
 71 73  2  0  0  0
 71 80  1  0  0  0
 71141  1  0  0  0
 72 74  1  0  0  0
 72 79  2  0  0  0
 72142  1  0  0  0
 73 79  1  0  0  0
 73 77  1  0  0  0
 74 78  1  0  0  0
 74 80  2  0  0  0
 75 77  1  0  0  0
 75 81  1  0  0  0
 75143  1  0  0  0
 75144  1  0  0  0
 76 77  1  0  0  0
 76 81  1  0  0  0
 76145  1  0  0  0
 76146  1  0  0  0
 77147  1  0  0  0
 78148  1  0  0  0
 78149  1  0  0  0
M  ISO  4   1 100  68 101  78 101  81 100
M  END
> <chiral flag>
0

> <version>
0

> <s_m_source_file>
/data/baiqing/PycharmProjects/Reinvent-master-3.2/result/LINK_invent/BTK/process_docking_weight1_custom_sum_contain_oxygen_bond_distance_aromatic_linkinvent_7_9_3/rearranged_h_0186.sdf

> <i_m_source_file_index>
21

> <r_mmod_Potential_Energy-OPLS-2005>
785.733032226562

> <r_mmod_Stretch_Energy-OPLS-2005>
270.840606689453

> <r_mmod_Bend_Energy-OPLS-2005>
342.189147949219

> <r_mmod_Torsional_Energy-OPLS-2005>
253.449768066406

> <r_mmod_Improper_Torsional_Energy-OPLS-2005>
9.25667095184326

> <r_mmod_Van_der_Waal_Energy-OPLS-2005>
138.981002807617

> <r_mmod_Electrostatic_Energy-OPLS-2005>
-233.381744384766

> <r_mmod_Solvation_Energy-OPLS-2005>
-235.477233886719

> <b_mmod_Minimization_Converged-OPLS-2005>
0

> <r_mmod_RMS_Derivative-OPLS-2005>
2.15166139602661

$$$$
21
                    3D
 Structure written by MMmdl.
144153  0  0  1  0            999 V2000
  -30.3606  -15.4489   20.3560 C   0  0  0  0  0  0
  -30.4376  -12.9470   19.5226 C   0  0  0  0  0  0
  -29.5431  -12.6103   18.2995 C   0  0  0  0  0  0
  -28.1037  -12.2926   18.7388 C   0  0  0  0  0  0
  -27.6029  -13.2869   19.8133 C   0  0  2  0  0  0
  -28.6313  -13.5393   20.9367 C   0  0  0  0  0  0
  -25.2361  -13.8253   20.5761 C   0  0  0  0  0  0
  -24.1730  -13.0431   20.9277 C   0  0  0  0  0  0
  -24.6402  -11.6933   20.8767 C   0  0  0  0  0  0
  -23.9099  -10.4292   21.0405 C   0  0  0  0  0  0
  -24.3641   -9.4205   21.9182 C   0  0  0  0  0  0
  -23.6308   -8.2244   22.0753 C   0  0  0  0  0  0
  -22.4289   -8.0285   21.3543 C   0  0  0  0  0  0
  -21.9930   -9.0261   20.4645 C   0  0  0  0  0  0
  -22.7268  -10.2135   20.3053 C   0  0  0  0  0  0
  -21.6858   -6.0739   22.5278 C   0  0  0  0  0  0
  -21.4021   -6.5642   23.8213 C   0  0  0  0  0  0
  -21.3660   -5.6792   24.9174 C   0  0  0  0  0  0
  -21.6043   -4.3055   24.7222 C   0  0  0  0  0  0
  -21.8819   -3.8149   23.4343 C   0  0  0  0  0  0
  -21.9194   -4.6966   22.3401 C   0  0  0  0  0  0
  -22.7747  -13.5177   21.1913 C   0  0  0  0  0  0
  -22.1661   -4.2152   21.0978 F   0  0  0  0  0  0
  -21.5626   -3.4537   25.7734 F   0  0  0  0  0  0
  -29.8294  -14.1093   20.2887 N   0  0  0  0  0  0
  -26.2789  -12.9544   20.3204 N   0  0  0  0  0  0
  -25.9339  -11.6639   20.5704 N   0  0  0  0  0  0
  -22.0403  -12.8165   22.0468 N   0  0  0  0  0  0
  -25.3969  -15.1990   20.4184 N   0  0  0  0  0  0
  -31.5965  -15.4298   20.2231 O   0  0  0  0  0  0
  -21.6647   -6.8885   21.4241 O   0  0  0  0  0  0
  -22.3427  -14.5475   20.6746 O   0  0  0  0  0  0
  -24.6733  -31.8119   23.1614 C   0  0  0  0  0  0
  -25.9364  -32.4527   23.8119 C   0  0  1  0  0  0
  -27.2221  -26.8081   20.2104 C   0  0  0  0  0  0
  -25.5987  -33.8348   24.2010 N   0  0  0  0  0  0
  -23.4941  -30.4180   21.5132 C   0  0  2  0  0  0
  -24.9487  -28.7758   20.1243 C   0  0  0  0  0  0
  -22.7713  -29.4379   22.4754 C   0  0  0  0  0  0
  -18.0328  -28.1417   22.8457 C   0  0  0  0  0  0
  -24.1497  -36.7188   23.2649 C   0  0  0  0  0  0
  -26.0691  -30.5784   21.4108 C   0  0  0  0  0  0
  -26.1348  -29.1516   20.7671 C   0  0  0  0  0  0
  -27.2617  -28.1923   20.7816 C   0  0  0  0  0  0
  -26.0055  -26.6149   19.5141 C   0  0  0  0  0  0
  -24.9148  -27.5290   19.4780 C   0  0  0  0  0  0
  -23.7428  -29.7214   20.1459 C   0  0  0  0  0  0
  -25.4142  -36.2930   24.0286 C   0  0  1  0  0  0
  -20.5958  -28.3770   23.1166 C   0  0  2  0  0  0
  -20.6801  -26.9440   22.5403 C   0  0  0  0  0  0
  -19.5777  -26.6375   21.5215 C   0  0  0  0  0  0
  -18.1959  -26.7946   22.1620 C   0  0  0  0  0  0
  -19.1592  -28.8916   23.2795 C   0  0  0  0  0  0
  -18.9499  -30.1502   23.8836 C   0  0  0  0  0  0
  -17.6490  -30.6601   24.0553 C   0  0  0  0  0  0
  -25.9113  -34.9316   23.4976 C   0  0  0  0  0  0
  -16.5380  -29.9086   23.6345 C   0  0  0  0  0  0
  -16.7310  -28.6509   23.0358 C   0  0  0  0  0  0
  -26.4574  -31.6517   25.0697 C   0  0  0  0  0  0
  -25.3669  -31.3809   26.1333 C   0  0  0  0  0  0
  -27.0482  -30.2864   24.6520 C   0  0  0  0  0  0
  -27.6039  -32.4355   25.7514 C   0  0  0  0  0  0
  -27.5565  -37.1754   24.8463 C   0  0  0  0  0  0
  -21.4373  -29.3040   22.3502 N   0  0  0  0  0  0
  -26.4278  -37.3677   23.9399 N   0  0  0  0  0  0
  -24.7679  -30.9666   22.0815 N   0  0  0  0  0  0
  -23.4205  -28.7961   23.3047 O   0  0  0  0  0  0
  -28.2365  -25.6722   20.1774 O   0  0  0  0  0  0
  -26.5739  -34.8869   22.4583 O   0  0  0  0  0  0
  -23.5776  -32.1146   23.6631 O   0  0  0  0  0  0
  -27.4866  -23.3627   21.3904 C   0  0  0  0  0  0
  -28.1797  -24.1403   20.3891 C   0  0  0  0  0  0
  -28.4762  -19.1301   21.0589 C   0  0  0  0  0  0
  -28.9719  -20.0568   19.9692 C   0  0  2  0  0  0
  -29.7223  -18.4427   20.5499 C   0  0  2  0  0  0
  -27.7308  -22.0308   21.4145 N   0  0  0  0  0  0
  -28.9073  -23.0700   19.8072 N   0  0  0  0  0  0
  -28.6603  -21.7157   20.4430 N   0  0  0  0  0  0
  -29.5612  -16.7460   20.3805 N   0  0  0  0  0  0
  -31.4397  -13.1949   19.1698 H   0  0  0  0  0  0
  -30.5635  -12.0747   20.1662 H   0  0  0  0  0  0
  -29.9610  -11.7722   17.7400 H   0  0  0  0  0  0
  -29.5334  -13.4614   17.6171 H   0  0  0  0  0  0
  -28.0985  -11.2820   19.1490 H   0  0  0  0  0  0
  -27.4329  -12.2791   17.8791 H   0  0  0  0  0  0
  -27.4910  -14.2309   19.2785 H   0  0  0  0  0  0
  -28.8513  -12.6289   21.4960 H   0  0  0  0  0  0
  -28.2350  -14.2579   21.6561 H   0  0  0  0  0  0
  -25.2780   -9.5682   22.4764 H   0  0  0  0  0  0
  -24.0012   -7.4636   22.7474 H   0  0  0  0  0  0
  -21.0859   -8.8786   19.8954 H   0  0  0  0  0  0
  -22.3723  -10.9677   19.6168 H   0  0  0  0  0  0
  -21.2018   -7.6151   23.9717 H   0  0  0  0  0  0
  -21.1482   -6.0522   25.9076 H   0  0  0  0  0  0
  -22.0596   -2.7610   23.2841 H   0  0  0  0  0  0
  -22.4037  -11.9845   22.4878 H   0  0  0  0  0  0
  -21.1011  -13.1168   22.2657 H   0  0  0  0  0  0
  -24.6225  -15.8448   20.5281 H   0  0  0  0  0  0
  -26.2289  -15.6395   20.0495 H   0  0  0  0  0  0
  -26.7440  -32.5029   23.0832 H   0  0  0  0  0  0
  -25.0057  -33.9407   25.0109 H   0  0  0  0  0  0
  -22.8137  -31.2525   21.3309 H   0  0  0  0  0  0
  -23.3763  -35.9515   23.3279 H   0  0  0  0  0  0
  -24.3568  -36.8877   22.2070 H   0  0  0  0  0  0
  -23.7257  -37.6363   23.6740 H   0  0  0  0  0  0
  -26.2584  -31.3069   20.6213 H   0  0  0  0  0  0
  -26.9258  -30.6467   22.0692 H   0  0  0  0  0  0
  -28.1662  -28.4901   21.2931 H   0  0  0  0  0  0
  -25.8718  -25.6718   19.0031 H   0  0  0  0  0  0
  -24.0184  -27.2356   18.9493 H   0  0  0  0  0  0
  -23.9127  -30.4839   19.3848 H   0  0  0  0  0  0
  -22.8497  -29.1837   19.8234 H   0  0  0  0  0  0
  -25.1349  -36.1710   25.0777 H   0  0  0  0  0  0
  -21.0040  -28.3385   24.1291 H   0  0  0  0  0  0
  -20.5672  -26.2391   23.3654 H   0  0  0  0  0  0
  -21.6664  -26.7398   22.1217 H   0  0  0  0  0  0
  -19.6933  -25.6268   21.1289 H   0  0  0  0  0  0
  -19.6720  -27.3148   20.6716 H   0  0  0  0  0  0
  -17.4227  -26.6682   21.4026 H   0  0  0  0  0  0
  -18.0353  -26.0106   22.9035 H   0  0  0  0  0  0
  -19.7974  -30.7336   24.2179 H   0  0  0  0  0  0
  -17.5040  -31.6273   24.5170 H   0  0  0  0  0  0
  -15.5378  -30.2967   23.7706 H   0  0  0  0  0  0
  -15.8710  -28.0811   22.7102 H   0  0  0  0  0  0
  -24.5871  -30.7137   25.7642 H   0  0  0  0  0  0
  -24.8839  -32.3023   26.4593 H   0  0  0  0  0  0
  -25.7873  -30.9085   27.0220 H   0  0  0  0  0  0
  -26.3169  -29.6511   24.1512 H   0  0  0  0  0  0
  -27.3941  -29.7273   25.5224 H   0  0  0  0  0  0
  -27.9142  -30.4003   23.9999 H   0  0  0  0  0  0
  -27.2582  -33.3708   26.1931 H   0  0  0  0  0  0
  -28.3937  -32.6835   25.0411 H   0  0  0  0  0  0
  -28.0611  -31.8594   26.5569 H   0  0  0  0  0  0
  -28.2561  -38.0069   24.7494 H   0  0  0  0  0  0
  -28.1084  -36.2590   24.6310 H   0  0  0  0  0  0
  -27.2278  -37.1415   25.8865 H   0  0  0  0  0  0
  -20.9653  -29.8717   21.6603 H   0  0  0  0  0  0
  -26.0114  -38.2731   24.1400 H   0  0  0  0  0  0
  -26.8110  -23.7760   22.1261 H   0  0  0  0  0  0
  -27.5204  -18.6548   20.8503 H   0  0  0  0  0  0
  -28.5431  -19.4900   22.0840 H   0  0  0  0  0  0
  -28.5383  -19.9596   18.9764 H   0  0  0  0  0  0
  -30.6515  -18.6715   21.0683 H   0  0  0  0  0  0
  -28.5826  -16.5002   20.3647 H   0  0  0  0  0  0
  1 25  1  0  0  0
  1 30  2  0  0  0
  1 79  1  0  0  0
  2  3  1  0  0  0
  2 25  1  0  0  0
  2 80  1  0  0  0
  2 81  1  0  0  0
  3  4  1  0  0  0
  3 82  1  0  0  0
  3 83  1  0  0  0
  4  5  1  0  0  0
  4 84  1  0  0  0
  4 85  1  0  0  0
  5  6  1  0  0  0
  5 26  1  0  0  0
  5 86  1  0  0  0
  6 25  1  0  0  0
  6 87  1  0  0  0
  6 88  1  0  0  0
  7  8  2  0  0  0
  7 26  1  0  0  0
  7 29  1  0  0  0
  8  9  1  0  0  0
  8 22  1  0  0  0
  9 10  1  0  0  0
  9 27  2  0  0  0
 10 11  2  0  0  0
 10 15  1  0  0  0
 11 12  1  0  0  0
 11 89  1  0  0  0
 12 13  2  0  0  0
 12 90  1  0  0  0
 13 14  1  0  0  0
 13 31  1  0  0  0
 14 15  2  0  0  0
 14 91  1  0  0  0
 15 92  1  0  0  0
 16 17  2  0  0  0
 16 21  1  0  0  0
 16 31  1  0  0  0
 17 18  1  0  0  0
 17 93  1  0  0  0
 18 19  2  0  0  0
 18 94  1  0  0  0
 19 20  1  0  0  0
 19 24  1  0  0  0
 20 21  2  0  0  0
 20 95  1  0  0  0
 21 23  1  0  0  0
 22 28  1  0  0  0
 22 32  2  0  0  0
 26 27  1  0  0  0
 28 96  1  0  0  0
 28 97  1  0  0  0
 29 98  1  0  0  0
 29 99  1  0  0  0
 33 34  1  0  0  0
 33 66  1  0  0  0
 33 70  2  0  0  0
 34 36  1  0  0  0
 34 59  1  0  0  0
 34100  1  0  0  0
 35 44  2  0  0  0
 35 45  1  0  0  0
 35 68  1  0  0  0
 36 56  1  0  0  0
 36101  1  0  0  0
 37 39  1  0  0  0
 37 47  1  0  0  0
 37 66  1  0  0  0
 37102  1  0  0  0
 38 43  2  0  0  0
 38 46  1  0  0  0
 38 47  1  0  0  0
 39 64  1  0  0  0
 39 67  2  0  0  0
 40 52  1  0  0  0
 40 53  2  0  0  0
 40 58  1  0  0  0
 41103  1  0  0  0
 41104  1  0  0  0
 41105  1  0  0  0
 41 48  1  0  0  0
 42 43  1  0  0  0
 42 66  1  0  0  0
 42106  1  0  0  0
 42107  1  0  0  0
 43 44  1  0  0  0
 44108  1  0  0  0
 45 46  2  0  0  0
 45109  1  0  0  0
 46110  1  0  0  0
 47111  1  0  0  0
 47112  1  0  0  0
 48 56  1  0  0  0
 48 65  1  0  0  0
 48113  1  0  0  0
 49 50  1  0  0  0
 49 53  1  0  0  0
 49 64  1  0  0  0
 49114  1  0  0  0
 50 51  1  0  0  0
 50115  1  0  0  0
 50116  1  0  0  0
 51 52  1  0  0  0
 51117  1  0  0  0
 51118  1  0  0  0
 52119  1  0  0  0
 52120  1  0  0  0
 53 54  1  0  0  0
 54 55  2  0  0  0
 54121  1  0  0  0
 55 57  1  0  0  0
 55122  1  0  0  0
 56 69  2  0  0  0
 57 58  2  0  0  0
 57123  1  0  0  0
 58124  1  0  0  0
 59 60  1  0  0  0
 59 61  1  0  0  0
 59 62  1  0  0  0
 60125  1  0  0  0
 60126  1  0  0  0
 60127  1  0  0  0
 61128  1  0  0  0
 61129  1  0  0  0
 61130  1  0  0  0
 62131  1  0  0  0
 62132  1  0  0  0
 62133  1  0  0  0
 63 65  1  0  0  0
 63134  1  0  0  0
 63135  1  0  0  0
 63136  1  0  0  0
 64137  1  0  0  0
 65138  1  0  0  0
 68 72  1  0  0  0
 71 72  1  0  0  0
 71 76  2  0  0  0
 71139  1  0  0  0
 72 77  2  0  0  0
 73 74  1  0  0  0
 73 75  1  0  0  0
 73140  1  0  0  0
 73141  1  0  0  0
 74 75  1  0  0  0
 74 78  1  0  0  0
 74142  1  0  0  0
 75 79  1  0  0  0
 75143  1  0  0  0
 76 78  1  0  0  0
 77 78  1  0  0  0
 79144  1  0  0  0
M  ISO  4   1 100  68 101  72 101  79 100
M  END
> <chiral flag>
0

> <version>
0

> <s_m_source_file>
/data/baiqing/PycharmProjects/Reinvent-master-3.2/result/LINK_invent/BTK/process_docking_weight1_custom_sum_contain_oxygen_bond_distance_aromatic_linkinvent_7_9_3/rearranged_h_0186.sdf

> <i_m_source_file_index>
22

> <r_mmod_Potential_Energy-OPLS-2005>
1809.38549804688

> <r_mmod_Stretch_Energy-OPLS-2005>
780.003784179688

> <r_mmod_Bend_Energy-OPLS-2005>
543.442626953125

> <r_mmod_Torsional_Energy-OPLS-2005>
273.521850585938

> <r_mmod_Improper_Torsional_Energy-OPLS-2005>
7.49832153320312

> <r_mmod_Van_der_Waal_Energy-OPLS-2005>
106.53035736084

> <r_mmod_Electrostatic_Energy-OPLS-2005>
-328.929046630859

> <r_mmod_Solvation_Energy-OPLS-2005>
-229.96549987793

> <b_mmod_Minimization_Converged-OPLS-2005>
0

> <r_mmod_RMS_Derivative-OPLS-2005>
0.415952295064926

$$$$
22
                    3D
 Structure written by MMmdl.
156165  0  0  1  0            999 V2000
  -30.5704  -14.8785   20.4207 C   0  0  0  0  0  0
  -30.4287  -12.5372   19.4952 C   0  0  0  0  0  0
  -29.5140  -12.5202   18.2499 C   0  0  0  0  0  0
  -28.0436  -12.3239   18.6625 C   0  0  0  0  0  0
  -27.6294  -13.2461   19.8392 C   0  0  2  0  0  0
  -28.6700  -13.2515   20.9787 C   0  0  0  0  0  0
  -25.2458  -13.8213   20.5712 C   0  0  0  0  0  0
  -24.1782  -13.0440   20.9223 C   0  0  0  0  0  0
  -24.6394  -11.6922   20.8748 C   0  0  0  0  0  0
  -23.9078  -10.4291   21.0405 C   0  0  0  0  0  0
  -24.3627   -9.4206   21.9186 C   0  0  0  0  0  0
  -23.6299   -8.2240   22.0747 C   0  0  0  0  0  0
  -22.4277   -8.0281   21.3539 C   0  0  0  0  0  0
  -21.9920   -9.0255   20.4641 C   0  0  0  0  0  0
  -22.7249  -10.2132   20.3055 C   0  0  0  0  0  0
  -21.6854   -6.0743   22.5279 C   0  0  0  0  0  0
  -21.4024   -6.5645   23.8213 C   0  0  0  0  0  0
  -21.3661   -5.6794   24.9172 C   0  0  0  0  0  0
  -21.6034   -4.3055   24.7220 C   0  0  0  0  0  0
  -21.8821   -3.8152   23.4340 C   0  0  0  0  0  0
  -21.9198   -4.6972   22.3400 C   0  0  0  0  0  0
  -22.7805  -13.5211   21.1889 C   0  0  0  0  0  0
  -22.1666   -4.2158   21.0975 F   0  0  0  0  0  0
  -21.5623   -3.4538   25.7730 F   0  0  0  0  0  0
  -29.9554  -13.6345   20.3844 N   0  0  0  0  0  0
  -26.2875  -12.9444   20.3231 N   0  0  0  0  0  0
  -25.9323  -11.6570   20.5733 N   0  0  0  0  0  0
  -22.0458  -12.8193   22.0439 N   0  0  0  0  0  0
  -25.4112  -15.1947   20.4156 N   0  0  0  0  0  0
  -31.7718  -14.9303   20.1398 O   0  0  0  0  0  0
  -21.6639   -6.8883   21.4236 O   0  0  0  0  0  0
  -22.3484  -14.5515   20.6725 O   0  0  0  0  0  0
  -24.6419  -31.8442   23.1863 C   0  0  0  0  0  0
  -25.9205  -32.4689   23.8250 C   0  0  1  0  0  0
  -27.2213  -27.1553   20.1460 C   0  0  0  0  0  0
  -25.5960  -33.8496   24.2185 N   0  0  0  0  0  0
  -23.4435  -30.4638   21.5312 C   0  0  2  0  0  0
  -24.8914  -28.8874   20.1080 C   0  0  0  0  0  0
  -22.7555  -29.4557   22.4852 C   0  0  0  0  0  0
  -18.0306  -28.1402   22.8486 C   0  0  0  0  0  0
  -24.1491  -36.7245   23.2643 C   0  0  0  0  0  0
  -25.9965  -30.7237   21.3795 C   0  0  0  0  0  0
  -26.0656  -29.3354   20.7246 C   0  0  0  0  0  0
  -27.2279  -28.4840   20.7269 C   0  0  0  0  0  0
  -26.0205  -26.7959   19.4973 C   0  0  0  0  0  0
  -24.8799  -27.6306   19.4820 C   0  0  0  0  0  0
  -23.6675  -29.7885   20.1509 C   0  0  0  0  0  0
  -25.4123  -36.3029   24.0323 C   0  0  1  0  0  0
  -20.5917  -28.3727   23.1240 C   0  0  2  0  0  0
  -20.6793  -26.9432   22.5412 C   0  0  0  0  0  0
  -19.5766  -26.6393   21.5223 C   0  0  0  0  0  0
  -18.1944  -26.7939   22.1628 C   0  0  0  0  0  0
  -19.1562  -28.8883   23.2855 C   0  0  0  0  0  0
  -18.9478  -30.1478   23.8886 C   0  0  0  0  0  0
  -17.6475  -30.6599   24.0569 C   0  0  0  0  0  0
  -25.9079  -34.9406   23.5063 C   0  0  0  0  0  0
  -16.5366  -29.9099   23.6336 C   0  0  0  0  0  0
  -16.7289  -28.6515   23.0362 C   0  0  0  0  0  0
  -26.4532  -31.6545   25.0683 C   0  0  0  0  0  0
  -25.3719  -31.3726   26.1378 C   0  0  0  0  0  0
  -27.0393  -30.2946   24.6245 C   0  0  0  0  0  0
  -27.6070  -32.4294   25.7470 C   0  0  0  0  0  0
  -27.5575  -37.1782   24.8470 C   0  0  0  0  0  0
  -21.4250  -29.3044   22.3598 N   0  0  0  0  0  0
  -26.4284  -37.3745   23.9414 N   0  0  0  0  0  0
  -24.7139  -31.0326   22.0876 N   0  0  0  0  0  0
  -23.4208  -28.8130   23.3012 O   0  0  0  0  0  0
  -28.3147  -26.2291   20.2343 O   0  0  0  0  0  0
  -26.5668  -34.8911   22.4644 O   0  0  0  0  0  0
  -23.5550  -32.1309   23.7114 O   0  0  0  0  0  0
  -28.6581  -20.9017   21.6802 C   0  0  0  0  0  0
  -29.0325  -19.5108   21.5673 C   0  0  0  0  0  0
  -28.7583  -21.8937   20.6346 C   0  0  0  0  0  0
  -29.5525  -18.9709   20.3660 C   0  0  0  0  0  0
  -29.2519  -21.2365   19.4518 C   0  0  0  0  0  0
  -28.7643  -23.9680   22.3292 C   0  0  0  0  0  0
  -27.3219  -23.7074   22.0184 C   0  0  0  0  0  0
  -28.3733  -23.4903   20.9379 C   0  0  0  0  0  0
  -29.4244  -22.0270   18.1737 C   0  0  0  0  0  0
  -30.3007  -17.5179   20.2003 C   0  0  0  0  0  0
  -28.3344  -24.7225   19.8507 C   0  0  0  0  0  0
  -29.6245  -19.8919   19.3424 N   0  0  0  0  0  0
  -29.8236  -16.0707   20.5387 N   0  0  0  0  0  0
  -31.4674  -12.6698   19.1878 H   0  0  0  0  0  0
  -30.3925  -11.5783   20.0148 H   0  0  0  0  0  0
  -29.8196  -11.7292   17.5635 H   0  0  0  0  0  0
  -29.6198  -13.4590   17.7039 H   0  0  0  0  0  0
  -27.9229  -11.2806   18.9558 H   0  0  0  0  0  0
  -27.3843  -12.4782   17.8078 H   0  0  0  0  0  0
  -27.6015  -14.2543   19.4264 H   0  0  0  0  0  0
  -28.7336  -12.2743   21.4595 H   0  0  0  0  0  0
  -28.3813  -13.9616   21.7554 H   0  0  0  0  0  0
  -25.2772   -9.5688   22.4763 H   0  0  0  0  0  0
  -24.0012   -7.4635   22.7470 H   0  0  0  0  0  0
  -21.0850   -8.8773   19.8955 H   0  0  0  0  0  0
  -22.3705  -10.9670   19.6166 H   0  0  0  0  0  0
  -21.2023   -7.6153   23.9722 H   0  0  0  0  0  0
  -21.1476   -6.0520   25.9074 H   0  0  0  0  0  0
  -22.0601   -2.7615   23.2831 H   0  0  0  0  0  0
  -22.4078  -11.9854   22.4822 H   0  0  0  0  0  0
  -21.1073  -13.1200   22.2651 H   0  0  0  0  0  0
  -24.6383  -15.8419   20.5267 H   0  0  0  0  0  0
  -26.2513  -15.6377   20.0674 H   0  0  0  0  0  0
  -26.7275  -32.5299   23.0982 H   0  0  0  0  0  0
  -25.0082  -33.9598   25.0319 H   0  0  0  0  0  0
  -22.7448  -31.2887   21.3763 H   0  0  0  0  0  0
  -23.3760  -35.9567   23.3296 H   0  0  0  0  0  0
  -24.3571  -36.8883   22.2057 H   0  0  0  0  0  0
  -23.7241  -37.6442   23.6677 H   0  0  0  0  0  0
  -26.1502  -31.4759   20.6042 H   0  0  0  0  0  0
  -26.8686  -30.7731   22.0197 H   0  0  0  0  0  0
  -28.1238  -28.8230   21.2280 H   0  0  0  0  0  0
  -25.9251  -25.8347   19.0182 H   0  0  0  0  0  0
  -23.9810  -27.2794   18.9940 H   0  0  0  0  0  0
  -23.8021  -30.5598   19.3912 H   0  0  0  0  0  0
  -22.7820  -29.2287   19.8436 H   0  0  0  0  0  0
  -25.1307  -36.1851   25.0815 H   0  0  0  0  0  0
  -21.0018  -28.3332   24.1358 H   0  0  0  0  0  0
  -20.5693  -26.2345   23.3635 H   0  0  0  0  0  0
  -21.6658  -26.7445   22.1207 H   0  0  0  0  0  0
  -19.6927  -25.6302   21.1259 H   0  0  0  0  0  0
  -19.6706  -27.3199   20.6752 H   0  0  0  0  0  0
  -17.4217  -26.6698   21.4025 H   0  0  0  0  0  0
  -18.0336  -26.0084   22.9024 H   0  0  0  0  0  0
  -19.7951  -30.7300   24.2254 H   0  0  0  0  0  0
  -17.5027  -31.6275   24.5173 H   0  0  0  0  0  0
  -15.5365  -30.3002   23.7663 H   0  0  0  0  0  0
  -15.8687  -28.0832   22.7089 H   0  0  0  0  0  0
  -24.5936  -30.7027   25.7702 H   0  0  0  0  0  0
  -24.8861  -32.2900   26.4707 H   0  0  0  0  0  0
  -25.8006  -30.8978   27.0210 H   0  0  0  0  0  0
  -26.3001  -29.6663   24.1265 H   0  0  0  0  0  0
  -27.4038  -29.7244   25.4797 H   0  0  0  0  0  0
  -27.8889  -30.4190   23.9529 H   0  0  0  0  0  0
  -27.2688  -33.3632   26.1969 H   0  0  0  0  0  0
  -28.3926  -32.6782   25.0324 H   0  0  0  0  0  0
  -28.0680  -31.8457   26.5450 H   0  0  0  0  0  0
  -28.2589  -38.0083   24.7517 H   0  0  0  0  0  0
  -28.1075  -36.2612   24.6289 H   0  0  0  0  0  0
  -27.2291  -37.1417   25.8875 H   0  0  0  0  0  0
  -20.9465  -29.8727   21.6750 H   0  0  0  0  0  0
  -26.0147  -38.2812   24.1414 H   0  0  0  0  0  0
  -28.3079  -21.2083   22.6530 H   0  0  0  0  0  0
  -28.9733  -18.8745   22.4407 H   0  0  0  0  0  0
  -29.2762  -23.2782   22.9963 H   0  0  0  0  0  0
  -29.0572  -25.0097   22.4458 H   0  0  0  0  0  0
  -26.6780  -24.5812   21.9296 H   0  0  0  0  0  0
  -26.8393  -22.8404   22.4616 H   0  0  0  0  0  0
  -30.2450  -22.7378   18.2760 H   0  0  0  0  0  0
  -28.5092  -22.5702   17.9415 H   0  0  0  0  0  0
  -29.6426  -21.3785   17.3250 H   0  0  0  0  0  0
  -31.2427  -17.6383   20.7364 H   0  0  0  0  0  0
  -30.6009  -17.4684   19.1526 H   0  0  0  0  0  0
  -27.5527  -24.5010   19.1280 H   0  0  0  0  0  0
  -29.2571  -24.6329   19.2787 H   0  0  0  0  0  0
  -28.8418  -15.9689   20.7435 H   0  0  0  0  0  0
  1 25  1  0  0  0
  1 30  2  0  0  0
  1 83  1  0  0  0
  2  3  1  0  0  0
  2 25  1  0  0  0
  2 84  1  0  0  0
  2 85  1  0  0  0
  3  4  1  0  0  0
  3 86  1  0  0  0
  3 87  1  0  0  0
  4  5  1  0  0  0
  4 88  1  0  0  0
  4 89  1  0  0  0
  5  6  1  0  0  0
  5 26  1  0  0  0
  5 90  1  0  0  0
  6 25  1  0  0  0
  6 91  1  0  0  0
  6 92  1  0  0  0
  7  8  2  0  0  0
  7 26  1  0  0  0
  7 29  1  0  0  0
  8  9  1  0  0  0
  8 22  1  0  0  0
  9 10  1  0  0  0
  9 27  2  0  0  0
 10 11  2  0  0  0
 10 15  1  0  0  0
 11 12  1  0  0  0
 11 93  1  0  0  0
 12 13  2  0  0  0
 12 94  1  0  0  0
 13 14  1  0  0  0
 13 31  1  0  0  0
 14 15  2  0  0  0
 14 95  1  0  0  0
 15 96  1  0  0  0
 16 17  2  0  0  0
 16 21  1  0  0  0
 16 31  1  0  0  0
 17 18  1  0  0  0
 17 97  1  0  0  0
 18 19  2  0  0  0
 18 98  1  0  0  0
 19 20  1  0  0  0
 19 24  1  0  0  0
 20 21  2  0  0  0
 20 99  1  0  0  0
 21 23  1  0  0  0
 22 28  1  0  0  0
 22 32  2  0  0  0
 26 27  1  0  0  0
 28100  1  0  0  0
 28101  1  0  0  0
 29102  1  0  0  0
 29103  1  0  0  0
 33 34  1  0  0  0
 33 66  1  0  0  0
 33 70  2  0  0  0
 34 36  1  0  0  0
 34 59  1  0  0  0
 34104  1  0  0  0
 35 44  2  0  0  0
 35 45  1  0  0  0
 35 68  1  0  0  0
 36 56  1  0  0  0
 36105  1  0  0  0
 37 39  1  0  0  0
 37 47  1  0  0  0
 37 66  1  0  0  0
 37106  1  0  0  0
 38 43  2  0  0  0
 38 46  1  0  0  0
 38 47  1  0  0  0
 39 64  1  0  0  0
 39 67  2  0  0  0
 40 52  1  0  0  0
 40 53  2  0  0  0
 40 58  1  0  0  0
 41107  1  0  0  0
 41108  1  0  0  0
 41109  1  0  0  0
 41 48  1  0  0  0
 42 43  1  0  0  0
 42 66  1  0  0  0
 42110  1  0  0  0
 42111  1  0  0  0
 43 44  1  0  0  0
 44112  1  0  0  0
 45 46  2  0  0  0
 45113  1  0  0  0
 46114  1  0  0  0
 47115  1  0  0  0
 47116  1  0  0  0
 48 56  1  0  0  0
 48 65  1  0  0  0
 48117  1  0  0  0
 49 50  1  0  0  0
 49 53  1  0  0  0
 49 64  1  0  0  0
 49118  1  0  0  0
 50 51  1  0  0  0
 50119  1  0  0  0
 50120  1  0  0  0
 51 52  1  0  0  0
 51121  1  0  0  0
 51122  1  0  0  0
 52123  1  0  0  0
 52124  1  0  0  0
 53 54  1  0  0  0
 54 55  2  0  0  0
 54125  1  0  0  0
 55 57  1  0  0  0
 55126  1  0  0  0
 56 69  2  0  0  0
 57 58  2  0  0  0
 57127  1  0  0  0
 58128  1  0  0  0
 59 60  1  0  0  0
 59 61  1  0  0  0
 59 62  1  0  0  0
 60129  1  0  0  0
 60130  1  0  0  0
 60131  1  0  0  0
 61132  1  0  0  0
 61133  1  0  0  0
 61134  1  0  0  0
 62135  1  0  0  0
 62136  1  0  0  0
 62137  1  0  0  0
 63 65  1  0  0  0
 63138  1  0  0  0
 63139  1  0  0  0
 63140  1  0  0  0
 64141  1  0  0  0
 65142  1  0  0  0
 68 81  1  0  0  0
 71 72  2  0  0  0
 71 73  1  0  0  0
 71143  1  0  0  0
 72 74  1  0  0  0
 72144  1  0  0  0
 73 75  2  0  0  0
 73 78  1  0  0  0
 74 80  1  0  0  0
 74 82  2  0  0  0
 75 79  1  0  0  0
 75 82  1  0  0  0
 76 77  1  0  0  0
 76 78  1  0  0  0
 76145  1  0  0  0
 76146  1  0  0  0
 77 78  1  0  0  0
 77147  1  0  0  0
 77148  1  0  0  0
 78 81  1  0  0  0
 79149  1  0  0  0
 79150  1  0  0  0
 79151  1  0  0  0
 80 83  1  0  0  0
 80152  1  0  0  0
 80153  1  0  0  0
 81154  1  0  0  0
 81155  1  0  0  0
 83156  1  0  0  0
M  ISO  4   1 100  68 101  81 101  83 100
M  END
> <chiral flag>
0

> <version>
0

> <s_m_source_file>
/data/baiqing/PycharmProjects/Reinvent-master-3.2/result/LINK_invent/BTK/process_docking_weight1_custom_sum_contain_oxygen_bond_distance_aromatic_linkinvent_7_9_3/rearranged_h_0186.sdf

> <i_m_source_file_index>
23

> <r_mmod_Potential_Energy-OPLS-2005>
194.576812744141

> <r_mmod_Stretch_Energy-OPLS-2005>
218.858642578125

> <r_mmod_Bend_Energy-OPLS-2005>
274.126281738281

> <r_mmod_Torsional_Energy-OPLS-2005>
236.764404296875

> <r_mmod_Improper_Torsional_Energy-OPLS-2005>
6.6205587387085

> <r_mmod_Van_der_Waal_Energy-OPLS-2005>
135.163604736328

> <r_mmod_Electrostatic_Energy-OPLS-2005>
-611.679382324219

> <r_mmod_Solvation_Energy-OPLS-2005>
-221.044647216797

> <b_mmod_Minimization_Converged-OPLS-2005>
0

> <r_mmod_RMS_Derivative-OPLS-2005>
1.46364271640778

$$$$
23
                    3D
 Structure written by MMmdl.
153162  0  0  1  0            999 V2000
  -30.5721  -14.7775   20.4383 C   0  0  0  0  0  0
  -30.4359  -12.4689   19.4779 C   0  0  0  0  0  0
  -29.5144  -12.5046   18.2380 C   0  0  0  0  0  0
  -28.0435  -12.3129   18.6526 C   0  0  0  0  0  0
  -27.6403  -13.2233   19.8431 C   0  0  2  0  0  0
  -28.6797  -13.1698   20.9821 C   0  0  0  0  0  0
  -25.2533  -13.8167   20.5677 C   0  0  0  0  0  0
  -24.1814  -13.0428   20.9195 C   0  0  0  0  0  0
  -24.6388  -11.6904   20.8739 C   0  0  0  0  0  0
  -23.9084  -10.4285   21.0429 C   0  0  0  0  0  0
  -24.3638   -9.4199   21.9203 C   0  0  0  0  0  0
  -23.6306   -8.2236   22.0763 C   0  0  0  0  0  0
  -22.4284   -8.0285   21.3552 C   0  0  0  0  0  0
  -21.9930   -9.0265   20.4654 C   0  0  0  0  0  0
  -22.7264  -10.2137   20.3069 C   0  0  0  0  0  0
  -21.6845   -6.0751   22.5294 C   0  0  0  0  0  0
  -21.4006   -6.5653   23.8229 C   0  0  0  0  0  0
  -21.3651   -5.6800   24.9191 C   0  0  0  0  0  0
  -21.6042   -4.3065   24.7234 C   0  0  0  0  0  0
  -21.8819   -3.8160   23.4355 C   0  0  0  0  0  0
  -21.9187   -4.6980   22.3411 C   0  0  0  0  0  0
  -22.7835  -13.5237   21.1854 C   0  0  0  0  0  0
  -22.1660   -4.2169   21.0990 F   0  0  0  0  0  0
  -21.5618   -3.4546   25.7749 F   0  0  0  0  0  0
  -29.9786  -13.5328   20.4044 N   0  0  0  0  0  0
  -26.2931  -12.9357   20.3223 N   0  0  0  0  0  0
  -25.9313  -11.6513   20.5713 N   0  0  0  0  0  0
  -22.0473  -12.8233   22.0407 N   0  0  0  0  0  0
  -25.4228  -15.1900   20.4100 N   0  0  0  0  0  0
  -31.7621  -14.8898   20.1263 O   0  0  0  0  0  0
  -21.6627   -6.8892   21.4253 O   0  0  0  0  0  0
  -22.3543  -14.5548   20.6712 O   0  0  0  0  0  0
  -24.6344  -31.8516   23.1919 C   0  0  0  0  0  0
  -25.9146  -32.4735   23.8293 C   0  0  1  0  0  0
  -27.2249  -27.2322   20.1260 C   0  0  0  0  0  0
  -25.5938  -33.8540   24.2230 N   0  0  0  0  0  0
  -23.4331  -30.4694   21.5354 C   0  0  2  0  0  0
  -24.8787  -28.9023   20.1068 C   0  0  0  0  0  0
  -22.7513  -29.4591   22.4895 C   0  0  0  0  0  0
  -18.0314  -28.1349   22.8569 C   0  0  0  0  0  0
  -24.1490  -36.7277   23.2642 C   0  0  0  0  0  0
  -25.9795  -30.7503   21.3756 C   0  0  0  0  0  0
  -26.0476  -29.3681   20.7200 C   0  0  0  0  0  0
  -27.2169  -28.5416   20.7223 C   0  0  0  0  0  0
  -26.0307  -26.8287   19.4923 C   0  0  0  0  0  0
  -24.8753  -27.6409   19.4852 C   0  0  0  0  0  0
  -23.6520  -29.7945   20.1541 C   0  0  0  0  0  0
  -25.4118  -36.3060   24.0328 C   0  0  1  0  0  0
  -20.5913  -28.3698   23.1272 C   0  0  2  0  0  0
  -20.6836  -26.9432   22.5356 C   0  0  0  0  0  0
  -19.5698  -26.6246   21.5303 C   0  0  0  0  0  0
  -18.1942  -26.7826   22.1831 C   0  0  0  0  0  0
  -19.1569  -28.8847   23.2906 C   0  0  0  0  0  0
  -18.9490  -30.1463   23.8911 C   0  0  0  0  0  0
  -17.6498  -30.6605   24.0552 C   0  0  0  0  0  0
  -25.9062  -34.9433   23.5088 C   0  0  0  0  0  0
  -16.5391  -29.9083   23.6358 C   0  0  0  0  0  0
  -16.7304  -28.6474   23.0436 C   0  0  0  0  0  0
  -26.4497  -31.6588   25.0711 C   0  0  0  0  0  0
  -25.3706  -31.3750   26.1425 C   0  0  0  0  0  0
  -27.0367  -30.3010   24.6231 C   0  0  0  0  0  0
  -27.6055  -32.4337   25.7484 C   0  0  0  0  0  0
  -27.5576  -37.1794   24.8469 C   0  0  0  0  0  0
  -21.4209  -29.3081   22.3673 N   0  0  0  0  0  0
  -26.4294  -37.3758   23.9407 N   0  0  0  0  0  0
  -24.7014  -31.0440   22.0904 N   0  0  0  0  0  0
  -23.4193  -28.8117   23.3001 O   0  0  0  0  0  0
  -28.3365  -26.3621   20.2265 O   0  0  0  0  0  0
  -26.5640  -34.8925   22.4656 O   0  0  0  0  0  0
  -23.5487  -32.1351   23.7197 O   0  0  0  0  0  0
  -26.5714  -22.1794   20.8256 C   0  0  0  0  0  0
  -28.1709  -23.5906   20.1422 C   0  0  0  0  0  0
  -28.5745  -21.3072   20.3841 C   0  0  0  0  0  0
  -29.1153  -17.8930   19.1449 C   0  0  0  0  0  0
  -29.0698  -18.6530   20.4387 C   0  0  1  0  0  0
  -30.0238  -17.3495   20.2326 C   0  0  1  0  0  0
  -25.1231  -21.9732   21.2212 C   0  0  0  0  0  0
  -28.5049  -25.0363   19.5179 C   0  0  0  0  0  0
  -26.9149  -23.4346   20.5475 N   0  0  0  0  0  0
  -27.3301  -21.0853   20.7677 N   0  0  0  0  0  0
  -29.0553  -22.5382   20.0508 N   0  0  0  0  0  0
  -29.4168  -20.1386   20.3319 N   0  0  0  0  0  0
  -29.7531  -15.8994   20.5719 N   0  0  0  0  0  0
  -31.4754  -12.6059   19.1736 H   0  0  0  0  0  0
  -30.3916  -11.4923   19.9641 H   0  0  0  0  0  0
  -29.8065  -11.7338   17.5243 H   0  0  0  0  0  0
  -29.6301  -13.4587   17.7211 H   0  0  0  0  0  0
  -27.9187  -11.2653   18.9312 H   0  0  0  0  0  0
  -27.3827  -12.4797   17.8001 H   0  0  0  0  0  0
  -27.6320  -14.2398   19.4477 H   0  0  0  0  0  0
  -28.7202  -12.1743   21.4287 H   0  0  0  0  0  0
  -28.4029  -13.8554   21.7850 H   0  0  0  0  0  0
  -25.2787   -9.5666   22.4784 H   0  0  0  0  0  0
  -24.0004   -7.4625   22.7496 H   0  0  0  0  0  0
  -21.0848   -8.8811   19.8965 H   0  0  0  0  0  0
  -22.3747  -10.9693   19.6179 H   0  0  0  0  0  0
  -21.1999   -7.6159   23.9748 H   0  0  0  0  0  0
  -21.1464   -6.0523   25.9096 H   0  0  0  0  0  0
  -22.0599   -2.7623   23.2856 H   0  0  0  0  0  0
  -22.4052  -11.9865   22.4772 H   0  0  0  0  0  0
  -21.1114  -13.1304   22.2642 H   0  0  0  0  0  0
  -24.6510  -15.8392   20.5186 H   0  0  0  0  0  0
  -26.2623  -15.6332   20.0621 H   0  0  0  0  0  0
  -26.7216  -32.5359   23.1034 H   0  0  0  0  0  0
  -25.0096  -33.9665   25.0387 H   0  0  0  0  0  0
  -22.7335  -31.2928   21.3822 H   0  0  0  0  0  0
  -23.3755  -35.9607   23.3308 H   0  0  0  0  0  0
  -24.3585  -36.8890   22.2053 H   0  0  0  0  0  0
  -23.7237  -37.6480   23.6666 H   0  0  0  0  0  0
  -26.1220  -31.5032   20.5981 H   0  0  0  0  0  0
  -26.8575  -30.8025   22.0089 H   0  0  0  0  0  0
  -28.1113  -28.8880   21.2217 H   0  0  0  0  0  0
  -25.9564  -25.8507   19.0392 H   0  0  0  0  0  0
  -23.9753  -27.2724   19.0135 H   0  0  0  0  0  0
  -23.7788  -30.5658   19.3939 H   0  0  0  0  0  0
  -22.7704  -29.2272   19.8507 H   0  0  0  0  0  0
  -25.1298  -36.1913   25.0822 H   0  0  0  0  0  0
  -21.0016  -28.3241   24.1379 H   0  0  0  0  0  0
  -20.5979  -26.2298   23.3566 H   0  0  0  0  0  0
  -21.6668  -26.7580   22.1008 H   0  0  0  0  0  0
  -19.6807  -25.6102   21.1464 H   0  0  0  0  0  0
  -19.6499  -27.2953   20.6736 H   0  0  0  0  0  0
  -17.4107  -26.6439   21.4363 H   0  0  0  0  0  0
  -18.0433  -26.0078   22.9373 H   0  0  0  0  0  0
  -19.7941  -30.7291   24.2320 H   0  0  0  0  0  0
  -17.5072  -31.6287   24.5157 H   0  0  0  0  0  0
  -15.5398  -30.3000   23.7697 H   0  0  0  0  0  0
  -15.8715  -28.0729   22.7235 H   0  0  0  0  0  0
  -24.5880  -30.7108   25.7732 H   0  0  0  0  0  0
  -24.8898  -32.2928   26.4831 H   0  0  0  0  0  0
  -25.7999  -30.8924   27.0216 H   0  0  0  0  0  0
  -26.2967  -29.6734   24.1256 H   0  0  0  0  0  0
  -27.4043  -29.7298   25.4763 H   0  0  0  0  0  0
  -27.8840  -30.4289   23.9495 H   0  0  0  0  0  0
  -27.2677  -33.3647   26.2057 H   0  0  0  0  0  0
  -28.3871  -32.6886   25.0310 H   0  0  0  0  0  0
  -28.0741  -31.8473   26.5401 H   0  0  0  0  0  0
  -28.2604  -38.0079   24.7501 H   0  0  0  0  0  0
  -28.1063  -36.2611   24.6318 H   0  0  0  0  0  0
  -27.2307  -37.1471   25.8877 H   0  0  0  0  0  0
  -20.9381  -29.8786   21.6878 H   0  0  0  0  0  0
  -26.0177  -38.2843   24.1373 H   0  0  0  0  0  0
  -29.6101  -18.3621   18.2952 H   0  0  0  0  0  0
  -28.2173  -17.3344   18.8844 H   0  0  0  0  0  0
  -28.1898  -18.5212   21.0682 H   0  0  0  0  0  0
  -31.0823  -17.5975   20.1571 H   0  0  0  0  0  0
  -24.4567  -22.5006   20.5371 H   0  0  0  0  0  0
  -24.9501  -22.3586   22.2253 H   0  0  0  0  0  0
  -24.8424  -20.9203   21.2003 H   0  0  0  0  0  0
  -28.0215  -25.0923   18.5411 H   0  0  0  0  0  0
  -29.5669  -24.9965   19.2739 H   0  0  0  0  0  0
  -30.3789  -20.3479   20.0950 H   0  0  0  0  0  0
  -28.7982  -15.6867   20.8149 H   0  0  0  0  0  0
  1 25  1  0  0  0
  1 30  2  0  0  0
  1 83  1  0  0  0
  2  3  1  0  0  0
  2 25  1  0  0  0
  2 84  1  0  0  0
  2 85  1  0  0  0
  3  4  1  0  0  0
  3 86  1  0  0  0
  3 87  1  0  0  0
  4  5  1  0  0  0
  4 88  1  0  0  0
  4 89  1  0  0  0
  5  6  1  0  0  0
  5 26  1  0  0  0
  5 90  1  0  0  0
  6 25  1  0  0  0
  6 91  1  0  0  0
  6 92  1  0  0  0
  7  8  2  0  0  0
  7 26  1  0  0  0
  7 29  1  0  0  0
  8  9  1  0  0  0
  8 22  1  0  0  0
  9 10  1  0  0  0
  9 27  2  0  0  0
 10 11  2  0  0  0
 10 15  1  0  0  0
 11 12  1  0  0  0
 11 93  1  0  0  0
 12 13  2  0  0  0
 12 94  1  0  0  0
 13 14  1  0  0  0
 13 31  1  0  0  0
 14 15  2  0  0  0
 14 95  1  0  0  0
 15 96  1  0  0  0
 16 17  2  0  0  0
 16 21  1  0  0  0
 16 31  1  0  0  0
 17 18  1  0  0  0
 17 97  1  0  0  0
 18 19  2  0  0  0
 18 98  1  0  0  0
 19 20  1  0  0  0
 19 24  1  0  0  0
 20 21  2  0  0  0
 20 99  1  0  0  0
 21 23  1  0  0  0
 22 28  1  0  0  0
 22 32  2  0  0  0
 26 27  1  0  0  0
 28100  1  0  0  0
 28101  1  0  0  0
 29102  1  0  0  0
 29103  1  0  0  0
 33 34  1  0  0  0
 33 66  1  0  0  0
 33 70  2  0  0  0
 34 36  1  0  0  0
 34 59  1  0  0  0
 34104  1  0  0  0
 35 44  2  0  0  0
 35 45  1  0  0  0
 35 68  1  0  0  0
 36 56  1  0  0  0
 36105  1  0  0  0
 37 39  1  0  0  0
 37 47  1  0  0  0
 37 66  1  0  0  0
 37106  1  0  0  0
 38 43  2  0  0  0
 38 46  1  0  0  0
 38 47  1  0  0  0
 39 64  1  0  0  0
 39 67  2  0  0  0
 40 52  1  0  0  0
 40 53  2  0  0  0
 40 58  1  0  0  0
 41107  1  0  0  0
 41108  1  0  0  0
 41109  1  0  0  0
 41 48  1  0  0  0
 42 43  1  0  0  0
 42 66  1  0  0  0
 42110  1  0  0  0
 42111  1  0  0  0
 43 44  1  0  0  0
 44112  1  0  0  0
 45 46  2  0  0  0
 45113  1  0  0  0
 46114  1  0  0  0
 47115  1  0  0  0
 47116  1  0  0  0
 48 56  1  0  0  0
 48 65  1  0  0  0
 48117  1  0  0  0
 49 50  1  0  0  0
 49 53  1  0  0  0
 49 64  1  0  0  0
 49118  1  0  0  0
 50 51  1  0  0  0
 50119  1  0  0  0
 50120  1  0  0  0
 51 52  1  0  0  0
 51121  1  0  0  0
 51122  1  0  0  0
 52123  1  0  0  0
 52124  1  0  0  0
 53 54  1  0  0  0
 54 55  2  0  0  0
 54125  1  0  0  0
 55 57  1  0  0  0
 55126  1  0  0  0
 56 69  2  0  0  0
 57 58  2  0  0  0
 57127  1  0  0  0
 58128  1  0  0  0
 59 60  1  0  0  0
 59 61  1  0  0  0
 59 62  1  0  0  0
 60129  1  0  0  0
 60130  1  0  0  0
 60131  1  0  0  0
 61132  1  0  0  0
 61133  1  0  0  0
 61134  1  0  0  0
 62135  1  0  0  0
 62136  1  0  0  0
 62137  1  0  0  0
 63 65  1  0  0  0
 63138  1  0  0  0
 63139  1  0  0  0
 63140  1  0  0  0
 64141  1  0  0  0
 65142  1  0  0  0
 68 78  1  0  0  0
 71 77  1  0  0  0
 71 79  2  0  0  0
 71 80  1  0  0  0
 72 78  1  0  0  0
 72 79  1  0  0  0
 72 81  2  0  0  0
 73 80  2  0  0  0
 73 81  1  0  0  0
 73 82  1  0  0  0
 74 75  1  0  0  0
 74 76  1  0  0  0
 74143  1  0  0  0
 74144  1  0  0  0
 75 76  1  0  0  0
 75 82  1  0  0  0
 75145  1  0  0  0
 76 83  1  0  0  0
 76146  1  0  0  0
 77147  1  0  0  0
 77148  1  0  0  0
 77149  1  0  0  0
 78150  1  0  0  0
 78151  1  0  0  0
 82152  1  0  0  0
 83153  1  0  0  0
M  ISO  4   1 100  68 101  78 101  83 100
M  END
> <chiral flag>
0

> <version>
0

> <s_m_source_file>
/data/baiqing/PycharmProjects/Reinvent-master-3.2/result/LINK_invent/BTK/process_docking_weight1_custom_sum_contain_oxygen_bond_distance_aromatic_linkinvent_7_9_3/rearranged_h_0186.sdf

> <i_m_source_file_index>
24

> <r_mmod_Potential_Energy-OPLS-2005>
-547.504699707031

> <r_mmod_Stretch_Energy-OPLS-2005>
135.070404052734

> <r_mmod_Bend_Energy-OPLS-2005>
196.212600708008

> <r_mmod_Torsional_Energy-OPLS-2005>
256.159454345703

> <r_mmod_Improper_Torsional_Energy-OPLS-2005>
7.7548303604126

> <r_mmod_Van_der_Waal_Energy-OPLS-2005>
146.774124145508

> <r_mmod_Electrostatic_Energy-OPLS-2005>
-1144.00231933594

> <r_mmod_Solvation_Energy-OPLS-2005>
-247.036773681641

> <b_mmod_Minimization_Converged-OPLS-2005>
0

> <r_mmod_RMS_Derivative-OPLS-2005>
2.7089478969574

$$$$
24
                    3D
 Structure written by MMmdl.
158167  0  0  1  0            999 V2000
  -30.5446  -15.1400   20.3876 C   0  0  0  0  0  0
  -30.4133  -12.7348   19.4977 C   0  0  0  0  0  0
  -29.5142  -12.5456   18.2578 C   0  0  0  0  0  0
  -28.0628  -12.2876   18.6922 C   0  0  0  0  0  0
  -27.6029  -13.2675   19.8023 C   0  0  2  0  0  0
  -28.6404  -13.4399   20.9319 C   0  0  0  0  0  0
  -25.2383  -13.8228   20.5713 C   0  0  0  0  0  0
  -24.1735  -13.0426   20.9249 C   0  0  0  0  0  0
  -24.6377  -11.6918   20.8745 C   0  0  0  0  0  0
  -23.9078  -10.4282   21.0388 C   0  0  0  0  0  0
  -24.3631   -9.4198   21.9159 C   0  0  0  0  0  0
  -23.6306   -8.2237   22.0735 C   0  0  0  0  0  0
  -22.4284   -8.0270   21.3536 C   0  0  0  0  0  0
  -21.9921   -9.0235   20.4626 C   0  0  0  0  0  0
  -22.7255  -10.2110   20.3028 C   0  0  0  0  0  0
  -21.6861   -6.0735   22.5275 C   0  0  0  0  0  0
  -21.4022   -6.5637   23.8210 C   0  0  0  0  0  0
  -21.3661   -5.6787   24.9173 C   0  0  0  0  0  0
  -21.6041   -4.3050   24.7217 C   0  0  0  0  0  0
  -21.8821   -3.8143   23.4341 C   0  0  0  0  0  0
  -21.9190   -4.6962   22.3400 C   0  0  0  0  0  0
  -22.7754  -13.5184   21.1887 C   0  0  0  0  0  0
  -22.1656   -4.2156   21.0976 F   0  0  0  0  0  0
  -21.5627   -3.4528   25.7730 F   0  0  0  0  0  0
  -29.8806  -13.8976   20.2899 N   0  0  0  0  0  0
  -26.2774  -12.9488   20.3126 N   0  0  0  0  0  0
  -25.9301  -11.6601   20.5673 N   0  0  0  0  0  0
  -22.0408  -12.8179   22.0443 N   0  0  0  0  0  0
  -25.4063  -15.1953   20.4169 N   0  0  0  0  0  0
  -31.7674  -15.0508   20.2230 O   0  0  0  0  0  0
  -21.6631   -6.8873   21.4243 O   0  0  0  0  0  0
  -22.3432  -14.5471   20.6698 O   0  0  0  0  0  0
  -24.6546  -31.8303   23.1766 C   0  0  0  0  0  0
  -25.9260  -32.4621   23.8213 C   0  0  1  0  0  0
  -27.2044  -26.9919   20.1688 C   0  0  0  0  0  0
  -25.5956  -33.8431   24.2121 N   0  0  0  0  0  0
  -23.4648  -30.4465   21.5252 C   0  0  2  0  0  0
  -24.9146  -28.8520   20.1034 C   0  0  0  0  0  0
  -22.7631  -29.4482   22.4824 C   0  0  0  0  0  0
  -18.0325  -28.1408   22.8493 C   0  0  0  0  0  0
  -24.1500  -36.7231   23.2647 C   0  0  0  0  0  0
  -26.0305  -30.6568   21.3974 C   0  0  0  0  0  0
  -26.0950  -29.2546   20.7413 C   0  0  0  0  0  0
  -27.2339  -28.3409   20.7575 C   0  0  0  0  0  0
  -26.0059  -26.7399   19.4614 C   0  0  0  0  0  0
  -24.8941  -27.6153   19.4429 C   0  0  0  0  0  0
  -23.6962  -29.7689   20.1467 C   0  0  0  0  0  0
  -25.4135  -36.2993   24.0310 C   0  0  1  0  0  0
  -20.5946  -28.3740   23.1222 C   0  0  2  0  0  0
  -20.6809  -26.9430   22.5405 C   0  0  0  0  0  0
  -19.5768  -26.6380   21.5230 C   0  0  0  0  0  0
  -18.1952  -26.7945   22.1637 C   0  0  0  0  0  0
  -19.1585  -28.8893   23.2843 C   0  0  0  0  0  0
  -18.9495  -30.1494   23.8853 C   0  0  0  0  0  0
  -17.6482  -30.6593   24.0568 C   0  0  0  0  0  0
  -25.9087  -34.9370   23.5030 C   0  0  0  0  0  0
  -16.5377  -29.9077   23.6345 C   0  0  0  0  0  0
  -16.7303  -28.6499   23.0363 C   0  0  0  0  0  0
  -26.4536  -31.6536   25.0708 C   0  0  0  0  0  0
  -25.3700  -31.3755   26.1393 C   0  0  0  0  0  0
  -27.0409  -30.2908   24.6387 C   0  0  0  0  0  0
  -27.6046  -32.4334   25.7498 C   0  0  0  0  0  0
  -27.5582  -37.1778   24.8468 C   0  0  0  0  0  0
  -21.4307  -29.3034   22.3571 N   0  0  0  0  0  0
  -26.4292  -37.3720   23.9401 N   0  0  0  0  0  0
  -24.7377  -31.0037   22.0865 N   0  0  0  0  0  0
  -23.4225  -28.8046   23.3024 O   0  0  0  0  0  0
  -28.2004  -25.9100   20.3005 O   0  0  0  0  0  0
  -26.5705  -34.8882   22.4633 O   0  0  0  0  0  0
  -23.5630  -32.1241   23.6909 O   0  0  0  0  0  0
  -28.8737  -20.5886   22.2119 C   0  0  0  0  0  0
  -29.0159  -20.3774   20.8120 C   0  0  0  0  0  0
  -28.5200  -21.8814   22.6983 C   0  0  0  0  0  0
  -28.5294  -22.9029   20.6078 C   0  0  0  0  0  0
  -30.6770  -17.8631   20.3300 C   0  0  0  0  0  0
  -28.7070  -17.3036   20.6586 C   0  0  0  0  0  0
  -29.3417  -18.7656   20.2684 C   0  0  0  0  0  0
  -29.0815  -19.4370   23.1969 C   0  0  0  0  0  0
  -26.6734  -22.4865   24.3426 C   0  0  0  0  0  0
  -28.1684  -22.1702   24.1579 C   0  0  0  0  0  0
  -28.0483  -24.3590   19.8419 C   0  0  0  0  0  0
  -28.8130  -21.6042   20.0532 N   0  0  0  0  0  0
  -28.3967  -22.9766   21.9209 N   0  0  0  0  0  0
  -29.9710  -16.4968   20.3555 N   0  0  0  0  0  0
  -31.4424  -12.8899   19.1720 H   0  0  0  0  0  0
  -30.4323  -11.8261   20.1019 H   0  0  0  0  0  0
  -29.8780  -11.7176   17.6480 H   0  0  0  0  0  0
  -29.5574  -13.4356   17.6273 H   0  0  0  0  0  0
  -28.0147  -11.2636   19.0636 H   0  0  0  0  0  0
  -27.3926  -12.3286   17.8322 H   0  0  0  0  0  0
  -27.5175  -14.2313   19.2983 H   0  0  0  0  0  0
  -28.7861  -12.5119   21.4865 H   0  0  0  0  0  0
  -28.2940  -14.1871   21.6473 H   0  0  0  0  0  0
  -25.2771   -9.5673   22.4741 H   0  0  0  0  0  0
  -24.0010   -7.4621   22.7452 H   0  0  0  0  0  0
  -21.0852   -8.8743   19.8922 H   0  0  0  0  0  0
  -22.3707  -10.9644   19.6127 H   0  0  0  0  0  0
  -21.2017   -7.6147   23.9729 H   0  0  0  0  0  0
  -21.1485   -6.0508   25.9083 H   0  0  0  0  0  0
  -22.0598   -2.7612   23.2833 H   0  0  0  0  0  0
  -22.4049  -11.9895   22.4908 H   0  0  0  0  0  0
  -21.0974  -13.1127   22.2543 H   0  0  0  0  0  0
  -24.6410  -15.8501   20.5327 H   0  0  0  0  0  0
  -26.2578  -15.6331   20.0922 H   0  0  0  0  0  0
  -26.7346  -32.5167   23.0942 H   0  0  0  0  0  0
  -25.0058  -33.9546   25.0241 H   0  0  0  0  0  0
  -22.7721  -31.2754   21.3632 H   0  0  0  0  0  0
  -23.3764  -35.9562   23.3274 H   0  0  0  0  0  0
  -24.3590  -36.8889   22.2068 H   0  0  0  0  0  0
  -23.7247  -37.6412   23.6711 H   0  0  0  0  0  0
  -26.2050  -31.4009   20.6184 H   0  0  0  0  0  0
  -26.8951  -30.7104   22.0477 H   0  0  0  0  0  0
  -28.1221  -28.6402   21.2960 H   0  0  0  0  0  0
  -25.8796  -25.8065   18.9363 H   0  0  0  0  0  0
  -23.9995  -27.3102   18.9154 H   0  0  0  0  0  0
  -23.8330  -30.5393   19.3863 H   0  0  0  0  0  0
  -22.8073  -29.2137   19.8422 H   0  0  0  0  0  0
  -25.1328  -36.1814   25.0807 H   0  0  0  0  0  0
  -21.0052  -28.3337   24.1342 H   0  0  0  0  0  0
  -20.5730  -26.2349   23.3634 H   0  0  0  0  0  0
  -21.6674  -26.7433   22.1191 H   0  0  0  0  0  0
  -19.6930  -25.6283   21.1272 H   0  0  0  0  0  0
  -19.6710  -27.3191   20.6761 H   0  0  0  0  0  0
  -17.4235  -26.6717   21.4019 H   0  0  0  0  0  0
  -18.0326  -26.0088   22.9028 H   0  0  0  0  0  0
  -19.7966  -30.7337   24.2193 H   0  0  0  0  0  0
  -17.5026  -31.6272   24.5175 H   0  0  0  0  0  0
  -15.5373  -30.2959   23.7690 H   0  0  0  0  0  0
  -15.8710  -28.0796   22.7096 H   0  0  0  0  0  0
  -24.5922  -30.7039   25.7733 H   0  0  0  0  0  0
  -24.8840  -32.2935   26.4715 H   0  0  0  0  0  0
  -25.7986  -30.9018   27.0236 H   0  0  0  0  0  0
  -26.3045  -29.6606   24.1386 H   0  0  0  0  0  0
  -27.3947  -29.7246   25.5017 H   0  0  0  0  0  0
  -27.8988  -30.4091   23.9764 H   0  0  0  0  0  0
  -27.2636  -33.3689   26.1955 H   0  0  0  0  0  0
  -28.3925  -32.6812   25.0369 H   0  0  0  0  0  0
  -28.0645  -31.8535   26.5514 H   0  0  0  0  0  0
  -28.2591  -38.0088   24.7522 H   0  0  0  0  0  0
  -28.1090  -36.2611   24.6288 H   0  0  0  0  0  0
  -27.2301  -37.1414   25.8875 H   0  0  0  0  0  0
  -20.9541  -29.8691   21.6688 H   0  0  0  0  0  0
  -26.0137  -38.2780   24.1396 H   0  0  0  0  0  0
  -31.2672  -18.0436   21.2297 H   0  0  0  0  0  0
  -31.3168  -18.0211   19.4610 H   0  0  0  0  0  0
  -27.8555  -17.0464   20.0286 H   0  0  0  0  0  0
  -28.4081  -17.2226   21.7025 H   0  0  0  0  0  0
  -29.1321  -18.8732   19.2037 H   0  0  0  0  0  0
  -29.5720  -19.7614   24.1131 H   0  0  0  0  0  0
  -29.7463  -18.6672   22.8166 H   0  0  0  0  0  0
  -28.1282  -18.9742   23.4569 H   0  0  0  0  0  0
  -26.4370  -22.6661   25.3913 H   0  0  0  0  0  0
  -26.0487  -21.6626   23.9966 H   0  0  0  0  0  0
  -26.3884  -23.3792   23.7838 H   0  0  0  0  0  0
  -28.7627  -23.0206   24.4914 H   0  0  0  0  0  0
  -28.4284  -21.3561   24.8289 H   0  0  0  0  0  0
  -26.9832  -24.1878   19.7086 H   0  0  0  0  0  0
  -28.4573  -24.3108   18.8337 H   0  0  0  0  0  0
  1 25  1  0  0  0
  1 30  2  0  0  0
  1 84  1  0  0  0
  2  3  1  0  0  0
  2 25  1  0  0  0
  2 85  1  0  0  0
  2 86  1  0  0  0
  3  4  1  0  0  0
  3 87  1  0  0  0
  3 88  1  0  0  0
  4  5  1  0  0  0
  4 89  1  0  0  0
  4 90  1  0  0  0
  5  6  1  0  0  0
  5 26  1  0  0  0
  5 91  1  0  0  0
  6 25  1  0  0  0
  6 92  1  0  0  0
  6 93  1  0  0  0
  7  8  2  0  0  0
  7 26  1  0  0  0
  7 29  1  0  0  0
  8  9  1  0  0  0
  8 22  1  0  0  0
  9 10  1  0  0  0
  9 27  2  0  0  0
 10 11  2  0  0  0
 10 15  1  0  0  0
 11 12  1  0  0  0
 11 94  1  0  0  0
 12 13  2  0  0  0
 12 95  1  0  0  0
 13 14  1  0  0  0
 13 31  1  0  0  0
 14 15  2  0  0  0
 14 96  1  0  0  0
 15 97  1  0  0  0
 16 17  2  0  0  0
 16 21  1  0  0  0
 16 31  1  0  0  0
 17 18  1  0  0  0
 17 98  1  0  0  0
 18 19  2  0  0  0
 18 99  1  0  0  0
 19 20  1  0  0  0
 19 24  1  0  0  0
 20 21  2  0  0  0
 20100  1  0  0  0
 21 23  1  0  0  0
 22 28  1  0  0  0
 22 32  2  0  0  0
 26 27  1  0  0  0
 28101  1  0  0  0
 28102  1  0  0  0
 29103  1  0  0  0
 29104  1  0  0  0
 33 34  1  0  0  0
 33 66  1  0  0  0
 33 70  2  0  0  0
 34 36  1  0  0  0
 34 59  1  0  0  0
 34105  1  0  0  0
 35 44  2  0  0  0
 35 45  1  0  0  0
 35 68  1  0  0  0
 36 56  1  0  0  0
 36106  1  0  0  0
 37 39  1  0  0  0
 37 47  1  0  0  0
 37 66  1  0  0  0
 37107  1  0  0  0
 38 43  2  0  0  0
 38 46  1  0  0  0
 38 47  1  0  0  0
 39 64  1  0  0  0
 39 67  2  0  0  0
 40 52  1  0  0  0
 40 53  2  0  0  0
 40 58  1  0  0  0
 41108  1  0  0  0
 41109  1  0  0  0
 41110  1  0  0  0
 41 48  1  0  0  0
 42 43  1  0  0  0
 42 66  1  0  0  0
 42111  1  0  0  0
 42112  1  0  0  0
 43 44  1  0  0  0
 44113  1  0  0  0
 45 46  2  0  0  0
 45114  1  0  0  0
 46115  1  0  0  0
 47116  1  0  0  0
 47117  1  0  0  0
 48 56  1  0  0  0
 48 65  1  0  0  0
 48118  1  0  0  0
 49 50  1  0  0  0
 49 53  1  0  0  0
 49 64  1  0  0  0
 49119  1  0  0  0
 50 51  1  0  0  0
 50120  1  0  0  0
 50121  1  0  0  0
 51 52  1  0  0  0
 51122  1  0  0  0
 51123  1  0  0  0
 52124  1  0  0  0
 52125  1  0  0  0
 53 54  1  0  0  0
 54 55  2  0  0  0
 54126  1  0  0  0
 55 57  1  0  0  0
 55127  1  0  0  0
 56 69  2  0  0  0
 57 58  2  0  0  0
 57128  1  0  0  0
 58129  1  0  0  0
 59 60  1  0  0  0
 59 61  1  0  0  0
 59 62  1  0  0  0
 60130  1  0  0  0
 60131  1  0  0  0
 60132  1  0  0  0
 61133  1  0  0  0
 61134  1  0  0  0
 61135  1  0  0  0
 62136  1  0  0  0
 62137  1  0  0  0
 62138  1  0  0  0
 63 65  1  0  0  0
 63139  1  0  0  0
 63140  1  0  0  0
 63141  1  0  0  0
 64142  1  0  0  0
 65143  1  0  0  0
 68 81  1  0  0  0
 71 72  2  0  0  0
 71 73  1  0  0  0
 71 78  1  0  0  0
 72 82  1  0  0  0
 72 77  1  0  0  0
 73 80  1  0  0  0
 73 83  2  0  0  0
 74 81  1  0  0  0
 74 82  2  0  0  0
 74 83  1  0  0  0
 75 77  1  0  0  0
 75 84  1  0  0  0
 75144  1  0  0  0
 75145  1  0  0  0
 76 77  1  0  0  0
 76 84  1  0  0  0
 76146  1  0  0  0
 76147  1  0  0  0
 77148  1  0  0  0
 78149  1  0  0  0
 78150  1  0  0  0
 78151  1  0  0  0
 79 80  1  0  0  0
 79152  1  0  0  0
 79153  1  0  0  0
 79154  1  0  0  0
 80155  1  0  0  0
 80156  1  0  0  0
 81157  1  0  0  0
 81158  1  0  0  0
M  ISO  4   1 100  68 101  81 101  84 100
M  END
> <chiral flag>
0

> <version>
0

> <s_m_source_file>
/data/baiqing/PycharmProjects/Reinvent-master-3.2/result/LINK_invent/BTK/process_docking_weight1_custom_sum_contain_oxygen_bond_distance_aromatic_linkinvent_7_9_3/rearranged_h_0186.sdf

> <i_m_source_file_index>
25

> <r_mmod_Potential_Energy-OPLS-2005>
670.664001464844

> <r_mmod_Stretch_Energy-OPLS-2005>
415.173278808594

> <r_mmod_Bend_Energy-OPLS-2005>
405.64013671875

> <r_mmod_Torsional_Energy-OPLS-2005>
253.708602905273

> <r_mmod_Improper_Torsional_Energy-OPLS-2005>
9.91808319091797

> <r_mmod_Van_der_Waal_Energy-OPLS-2005>
136.435729980469

> <r_mmod_Electrostatic_Energy-OPLS-2005>
-662.312805175781

> <r_mmod_Solvation_Energy-OPLS-2005>
-245.595153808594

> <b_mmod_Minimization_Converged-OPLS-2005>
0

> <r_mmod_RMS_Derivative-OPLS-2005>
2.2953143119812

$$$$
25
                    3D
 Structure written by MMmdl.
161171  0  0  1  0            999 V2000
  -30.5949  -14.8054   20.4332 C   0  0  0  0  0  0
  -30.4377  -12.4931   19.4840 C   0  0  0  0  0  0
  -29.5185  -12.5205   18.2438 C   0  0  0  0  0  0
  -28.0457  -12.3328   18.6553 C   0  0  0  0  0  0
  -27.6418  -13.2392   19.8484 C   0  0  2  0  0  0
  -28.6853  -13.2097   20.9873 C   0  0  0  0  0  0
  -25.2524  -13.8213   20.5688 C   0  0  0  0  0  0
  -24.1821  -13.0446   20.9193 C   0  0  0  0  0  0
  -24.6420  -11.6928   20.8727 C   0  0  0  0  0  0
  -23.9096  -10.4299   21.0387 C   0  0  0  0  0  0
  -24.3641   -9.4213   21.9169 C   0  0  0  0  0  0
  -23.6304   -8.2259   22.0758 C   0  0  0  0  0  0
  -22.4290   -8.0291   21.3544 C   0  0  0  0  0  0
  -21.9923   -9.0262   20.4638 C   0  0  0  0  0  0
  -22.7260  -10.2138   20.3042 C   0  0  0  0  0  0
  -21.6869   -6.0726   22.5265 C   0  0  0  0  0  0
  -21.4019   -6.5633   23.8193 C   0  0  0  0  0  0
  -21.3675   -5.6794   24.9164 C   0  0  0  0  0  0
  -21.6055   -4.3052   24.7219 C   0  0  0  0  0  0
  -21.8817   -3.8141   23.4340 C   0  0  0  0  0  0
  -21.9209   -4.6959   22.3390 C   0  0  0  0  0  0
  -22.7841  -13.5221   21.1845 C   0  0  0  0  0  0
  -22.1664   -4.2137   21.0967 F   0  0  0  0  0  0
  -21.5634   -3.4537   25.7738 F   0  0  0  0  0  0
  -29.9813  -13.5684   20.4005 N   0  0  0  0  0  0
  -26.2956  -12.9434   20.3267 N   0  0  0  0  0  0
  -25.9359  -11.6576   20.5741 N   0  0  0  0  0  0
  -22.0490  -12.8219   22.0405 N   0  0  0  0  0  0
  -25.4207  -15.1936   20.4067 N   0  0  0  0  0  0
  -31.7841  -14.8922   20.1161 O   0  0  0  0  0  0
  -21.6668   -6.8880   21.4231 O   0  0  0  0  0  0
  -22.3518  -14.5514   20.6681 O   0  0  0  0  0  0
  -24.6334  -31.8535   23.1955 C   0  0  0  0  0  0
  -25.9149  -32.4742   23.8310 C   0  0  1  0  0  0
  -27.2094  -27.2274   20.1607 C   0  0  0  0  0  0
  -25.5937  -33.8548   24.2244 N   0  0  0  0  0  0
  -23.4319  -30.4733   21.5399 C   0  0  2  0  0  0
  -24.8792  -28.9087   20.1182 C   0  0  0  0  0  0
  -22.7517  -29.4592   22.4914 C   0  0  0  0  0  0
  -18.0302  -28.1383   22.8489 C   0  0  0  0  0  0
  -24.1485  -36.7283   23.2637 C   0  0  0  0  0  0
  -25.9788  -30.7543   21.3818 C   0  0  0  0  0  0
  -26.0491  -29.3692   20.7377 C   0  0  0  0  0  0
  -27.2204  -28.5411   20.7470 C   0  0  0  0  0  0
  -26.0303  -26.8481   19.4922 C   0  0  0  0  0  0
  -24.8755  -27.6565   19.4827 C   0  0  0  0  0  0
  -23.6523  -29.8023   20.1584 C   0  0  0  0  0  0
  -25.4120  -36.3076   24.0326 C   0  0  1  0  0  0
  -20.5903  -28.3699   23.1264 C   0  0  2  0  0  0
  -20.6802  -26.9415   22.5410 C   0  0  0  0  0  0
  -19.5767  -26.6376   21.5217 C   0  0  0  0  0  0
  -18.1943  -26.7926   22.1622 C   0  0  0  0  0  0
  -19.1562  -28.8862   23.2870 C   0  0  0  0  0  0
  -18.9471  -30.1463   23.8889 C   0  0  0  0  0  0
  -17.6465  -30.6582   24.0562 C   0  0  0  0  0  0
  -25.9064  -34.9442   23.5101 C   0  0  0  0  0  0
  -16.5360  -29.9086   23.6329 C   0  0  0  0  0  0
  -16.7289  -28.6500   23.0350 C   0  0  0  0  0  0
  -26.4499  -31.6568   25.0714 C   0  0  0  0  0  0
  -25.3713  -31.3731   26.1432 C   0  0  0  0  0  0
  -27.0341  -30.2971   24.6229 C   0  0  0  0  0  0
  -27.6046  -32.4316   25.7503 C   0  0  0  0  0  0
  -27.5590  -37.1792   24.8462 C   0  0  0  0  0  0
  -21.4224  -29.3037   22.3647 N   0  0  0  0  0  0
  -26.4292  -37.3782   23.9421 N   0  0  0  0  0  0
  -24.7008  -31.0468   22.0949 N   0  0  0  0  0  0
  -23.4203  -28.8148   23.3035 O   0  0  0  0  0  0
  -28.3018  -26.3334   20.0965 O   0  0  0  0  0  0
  -26.5649  -34.8924   22.4669 O   0  0  0  0  0  0
  -23.5478  -32.1380   23.7223 O   0  0  0  0  0  0
  -26.3136  -21.8783   20.7031 C   0  0  0  0  0  0
  -26.6250  -23.2435   20.8545 C   0  0  0  0  0  0
  -27.9872  -23.6096   20.6817 C   0  0  0  0  0  0
  -28.4968  -21.2482   20.4712 C   0  0  0  0  0  0
  -24.3730  -23.7689   22.1567 C   0  0  0  0  0  0
  -24.1313  -24.1509   20.7142 C   0  0  0  0  0  0
  -28.4800  -18.1590   19.0812 C   0  0  0  0  0  0
  -29.8820  -17.6360   18.7252 C   0  0  0  0  0  0
  -25.5329  -24.2066   21.2833 C   0  0  0  0  0  0
  -29.0410  -18.6228   20.4361 C   0  0  1  0  0  0
  -30.1462  -17.4273   20.2291 C   0  0  1  0  0  0
  -28.4661  -25.1238   20.9909 C   0  0  0  0  0  0
  -27.2260  -20.9095   20.5273 N   0  0  0  0  0  0
  -28.9075  -22.5577   20.5162 N   0  0  0  0  0  0
  -29.3955  -20.1195   20.4052 N   0  0  0  0  0  0
  -29.8176  -15.9573   20.5905 N   0  0  0  0  0  0
  -31.4764  -12.6241   19.1753 H   0  0  0  0  0  0
  -30.3923  -11.5230   19.9796 H   0  0  0  0  0  0
  -29.8128  -11.7428   17.5379 H   0  0  0  0  0  0
  -29.6368  -13.4722   17.7226 H   0  0  0  0  0  0
  -27.9072  -11.2840   18.9215 H   0  0  0  0  0  0
  -27.3936  -12.5198   17.8015 H   0  0  0  0  0  0
  -27.6241  -14.2548   19.4539 H   0  0  0  0  0  0
  -28.7358  -12.2242   21.4518 H   0  0  0  0  0  0
  -28.4147  -13.9125   21.7772 H   0  0  0  0  0  0
  -25.2770   -9.5712   22.4757 H   0  0  0  0  0  0
  -24.0010   -7.4667   22.7487 H   0  0  0  0  0  0
  -21.0849   -8.8786   19.8944 H   0  0  0  0  0  0
  -22.3698  -10.9690   19.6170 H   0  0  0  0  0  0
  -21.2007   -7.6137   23.9693 H   0  0  0  0  0  0
  -21.1495   -6.0518   25.9063 H   0  0  0  0  0  0
  -22.0592   -2.7604   23.2844 H   0  0  0  0  0  0
  -22.4104  -11.9895   22.4811 H   0  0  0  0  0  0
  -21.1096  -13.1235   22.2574 H   0  0  0  0  0  0
  -24.6516  -15.8463   20.5063 H   0  0  0  0  0  0
  -26.2596  -15.6285   20.0469 H   0  0  0  0  0  0
  -26.7219  -32.5385   23.1050 H   0  0  0  0  0  0
  -25.0060  -33.9674   25.0379 H   0  0  0  0  0  0
  -22.7302  -31.2969   21.3898 H   0  0  0  0  0  0
  -23.3762  -35.9593   23.3279 H   0  0  0  0  0  0
  -24.3579  -36.8932   22.2053 H   0  0  0  0  0  0
  -23.7204  -37.6465   23.6674 H   0  0  0  0  0  0
  -26.1198  -31.5053   20.6033 H   0  0  0  0  0  0
  -26.8561  -30.8086   22.0150 H   0  0  0  0  0  0
  -28.1239  -28.8948   21.2229 H   0  0  0  0  0  0
  -25.9968  -25.8926   18.9880 H   0  0  0  0  0  0
  -23.9854  -27.3025   18.9812 H   0  0  0  0  0  0
  -23.7819  -30.5759   19.4003 H   0  0  0  0  0  0
  -22.7694  -29.2383   19.8525 H   0  0  0  0  0  0
  -25.1290  -36.1925   25.0816 H   0  0  0  0  0  0
  -20.9999  -28.3279   24.1381 H   0  0  0  0  0  0
  -20.5698  -26.2309   23.3615 H   0  0  0  0  0  0
  -21.6664  -26.7433   22.1193 H   0  0  0  0  0  0
  -19.6925  -25.6283   21.1255 H   0  0  0  0  0  0
  -19.6701  -27.3184   20.6741 H   0  0  0  0  0  0
  -17.4215  -26.6686   21.4021 H   0  0  0  0  0  0
  -18.0337  -26.0071   22.9017 H   0  0  0  0  0  0
  -19.7948  -30.7287   24.2249 H   0  0  0  0  0  0
  -17.5020  -31.6264   24.5164 H   0  0  0  0  0  0
  -15.5358  -30.2977   23.7658 H   0  0  0  0  0  0
  -15.8688  -28.0815   22.7066 H   0  0  0  0  0  0
  -24.5883  -30.7086   25.7756 H   0  0  0  0  0  0
  -24.8904  -32.2902   26.4845 H   0  0  0  0  0  0
  -25.8013  -30.8908   27.0220 H   0  0  0  0  0  0
  -26.2926  -29.6720   24.1237 H   0  0  0  0  0  0
  -27.3981  -29.7239   25.4763 H   0  0  0  0  0  0
  -27.8828  -30.4223   23.9502 H   0  0  0  0  0  0
  -27.2641  -33.3618   26.2069 H   0  0  0  0  0  0
  -28.3869  -32.6875   25.0345 H   0  0  0  0  0  0
  -28.0703  -31.8450   26.5438 H   0  0  0  0  0  0
  -28.2579  -38.0119   24.7562 H   0  0  0  0  0  0
  -28.1118  -36.2654   24.6223 H   0  0  0  0  0  0
  -27.2322  -37.1361   25.8867 H   0  0  0  0  0  0
  -20.9422  -29.8747   21.6835 H   0  0  0  0  0  0
  -26.0175  -38.2852   24.1438 H   0  0  0  0  0  0
  -25.2979  -21.5260   20.7958 H   0  0  0  0  0  0
  -24.2680  -22.7193   22.4238 H   0  0  0  0  0  0
  -24.0176  -24.4674   22.9125 H   0  0  0  0  0  0
  -23.6132  -25.0931   20.5440 H   0  0  0  0  0  0
  -23.8830  -23.3572   20.0122 H   0  0  0  0  0  0
  -27.7469  -17.3569   19.1870 H   0  0  0  0  0  0
  -28.1032  -18.9466   18.4282 H   0  0  0  0  0  0
  -30.5187  -18.4050   18.2819 H   0  0  0  0  0  0
  -29.8824  -16.7354   18.1102 H   0  0  0  0  0  0
  -25.9227  -25.1829   21.5486 H   0  0  0  0  0  0
  -28.3612  -18.4202   21.2648 H   0  0  0  0  0  0
  -31.1548  -17.7230   20.5219 H   0  0  0  0  0  0
  -29.5403  -25.0501   21.1551 H   0  0  0  0  0  0
  -28.0806  -25.3915   21.9756 H   0  0  0  0  0  0
  -30.3782  -20.3615   20.3787 H   0  0  0  0  0  0
  -28.8613  -15.7867   20.8596 H   0  0  0  0  0  0
  1 25  1  0  0  0
  1 30  2  0  0  0
  1 86  1  0  0  0
  2  3  1  0  0  0
  2 25  1  0  0  0
  2 87  1  0  0  0
  2 88  1  0  0  0
  3  4  1  0  0  0
  3 89  1  0  0  0
  3 90  1  0  0  0
  4  5  1  0  0  0
  4 91  1  0  0  0
  4 92  1  0  0  0
  5  6  1  0  0  0
  5 26  1  0  0  0
  5 93  1  0  0  0
  6 25  1  0  0  0
  6 94  1  0  0  0
  6 95  1  0  0  0
  7  8  2  0  0  0
  7 26  1  0  0  0
  7 29  1  0  0  0
  8  9  1  0  0  0
  8 22  1  0  0  0
  9 10  1  0  0  0
  9 27  2  0  0  0
 10 11  2  0  0  0
 10 15  1  0  0  0
 11 12  1  0  0  0
 11 96  1  0  0  0
 12 13  2  0  0  0
 12 97  1  0  0  0
 13 14  1  0  0  0
 13 31  1  0  0  0
 14 15  2  0  0  0
 14 98  1  0  0  0
 15 99  1  0  0  0
 16 17  2  0  0  0
 16 21  1  0  0  0
 16 31  1  0  0  0
 17 18  1  0  0  0
 17100  1  0  0  0
 18 19  2  0  0  0
 18101  1  0  0  0
 19 20  1  0  0  0
 19 24  1  0  0  0
 20 21  2  0  0  0
 20102  1  0  0  0
 21 23  1  0  0  0
 22 28  1  0  0  0
 22 32  2  0  0  0
 26 27  1  0  0  0
 28103  1  0  0  0
 28104  1  0  0  0
 29105  1  0  0  0
 29106  1  0  0  0
 33 34  1  0  0  0
 33 66  1  0  0  0
 33 70  2  0  0  0
 34 36  1  0  0  0
 34 59  1  0  0  0
 34107  1  0  0  0
 35 44  2  0  0  0
 35 45  1  0  0  0
 35 68  1  0  0  0
 36 56  1  0  0  0
 36108  1  0  0  0
 37 39  1  0  0  0
 37 47  1  0  0  0
 37 66  1  0  0  0
 37109  1  0  0  0
 38 43  2  0  0  0
 38 46  1  0  0  0
 38 47  1  0  0  0
 39 64  1  0  0  0
 39 67  2  0  0  0
 40 52  1  0  0  0
 40 53  2  0  0  0
 40 58  1  0  0  0
 41110  1  0  0  0
 41111  1  0  0  0
 41112  1  0  0  0
 41 48  1  0  0  0
 42 43  1  0  0  0
 42 66  1  0  0  0
 42113  1  0  0  0
 42114  1  0  0  0
 43 44  1  0  0  0
 44115  1  0  0  0
 45 46  2  0  0  0
 45116  1  0  0  0
 46117  1  0  0  0
 47118  1  0  0  0
 47119  1  0  0  0
 48 56  1  0  0  0
 48 65  1  0  0  0
 48120  1  0  0  0
 49 50  1  0  0  0
 49 53  1  0  0  0
 49 64  1  0  0  0
 49121  1  0  0  0
 50 51  1  0  0  0
 50122  1  0  0  0
 50123  1  0  0  0
 51 52  1  0  0  0
 51124  1  0  0  0
 51125  1  0  0  0
 52126  1  0  0  0
 52127  1  0  0  0
 53 54  1  0  0  0
 54 55  2  0  0  0
 54128  1  0  0  0
 55 57  1  0  0  0
 55129  1  0  0  0
 56 69  2  0  0  0
 57 58  2  0  0  0
 57130  1  0  0  0
 58131  1  0  0  0
 59 60  1  0  0  0
 59 61  1  0  0  0
 59 62  1  0  0  0
 60132  1  0  0  0
 60133  1  0  0  0
 60134  1  0  0  0
 61135  1  0  0  0
 61136  1  0  0  0
 61137  1  0  0  0
 62138  1  0  0  0
 62139  1  0  0  0
 62140  1  0  0  0
 63 65  1  0  0  0
 63141  1  0  0  0
 63142  1  0  0  0
 63143  1  0  0  0
 64144  1  0  0  0
 65145  1  0  0  0
 68 82  1  0  0  0
 71 72  2  0  0  0
 71 83  1  0  0  0
 71146  1  0  0  0
 72 73  1  0  0  0
 72 79  1  0  0  0
 73 82  1  0  0  0
 73 84  2  0  0  0
 74 83  2  0  0  0
 74 84  1  0  0  0
 74 85  1  0  0  0
 75 76  1  0  0  0
 75 79  1  0  0  0
 75147  1  0  0  0
 75148  1  0  0  0
 76 79  1  0  0  0
 76149  1  0  0  0
 76150  1  0  0  0
 77 78  1  0  0  0
 77 80  1  0  0  0
 77151  1  0  0  0
 77152  1  0  0  0
 78 81  1  0  0  0
 78153  1  0  0  0
 78154  1  0  0  0
 79155  1  0  0  0
 80 81  1  0  0  0
 80 85  1  0  0  0
 80156  1  0  0  0
 81 86  1  0  0  0
 81157  1  0  0  0
 82158  1  0  0  0
 82159  1  0  0  0
 85160  1  0  0  0
 86161  1  0  0  0
M  ISO  4   1 100  68 101  82 101  86 100
M  END
> <chiral flag>
0

> <version>
0

> <s_m_source_file>
/data/baiqing/PycharmProjects/Reinvent-master-3.2/result/LINK_invent/BTK/process_docking_weight1_custom_sum_contain_oxygen_bond_distance_aromatic_linkinvent_7_9_3/rearranged_h_0186.sdf

> <i_m_source_file_index>
26

> <r_mmod_Potential_Energy-OPLS-2005>
-197.814544677734

> <r_mmod_Stretch_Energy-OPLS-2005>
148.81657409668

> <r_mmod_Bend_Energy-OPLS-2005>
223.436157226562

> <r_mmod_Torsional_Energy-OPLS-2005>
302.421783447266

> <r_mmod_Improper_Torsional_Energy-OPLS-2005>
7.91679239273071

> <r_mmod_Van_der_Waal_Energy-OPLS-2005>
134.181076049805

> <r_mmod_Electrostatic_Energy-OPLS-2005>
-883.058837890625

> <r_mmod_Solvation_Energy-OPLS-2005>
-238.584899902344

> <b_mmod_Minimization_Converged-OPLS-2005>
0

> <r_mmod_RMS_Derivative-OPLS-2005>
2.41881084442139

$$$$
26
                    3D
 Structure written by MMmdl.
151160  0  0  1  0            999 V2000
  -30.4100  -15.3783   20.3607 C   0  0  0  0  0  0
  -30.4332  -12.8947   19.5257 C   0  0  0  0  0  0
  -29.5378  -12.5942   18.2961 C   0  0  0  0  0  0
  -28.0948  -12.2934   18.7337 C   0  0  0  0  0  0
  -27.6041  -13.2848   19.8163 C   0  0  2  0  0  0
  -28.6342  -13.5189   20.9425 C   0  0  0  0  0  0
  -25.2364  -13.8262   20.5774 C   0  0  0  0  0  0
  -24.1731  -13.0437   20.9277 C   0  0  0  0  0  0
  -24.6399  -11.6940   20.8773 C   0  0  0  0  0  0
  -23.9097  -10.4296   21.0414 C   0  0  0  0  0  0
  -24.3637   -9.4209   21.9190 C   0  0  0  0  0  0
  -23.6303   -8.2247   22.0759 C   0  0  0  0  0  0
  -22.4282   -8.0288   21.3550 C   0  0  0  0  0  0
  -21.9926   -9.0265   20.4652 C   0  0  0  0  0  0
  -22.7266  -10.2139   20.3062 C   0  0  0  0  0  0
  -21.6854   -6.0740   22.5283 C   0  0  0  0  0  0
  -21.4017   -6.5645   23.8216 C   0  0  0  0  0  0
  -21.3659   -5.6797   24.9177 C   0  0  0  0  0  0
  -21.6042   -4.3059   24.7227 C   0  0  0  0  0  0
  -21.8818   -3.8151   23.4348 C   0  0  0  0  0  0
  -21.9192   -4.6968   22.3404 C   0  0  0  0  0  0
  -22.7742  -13.5183   21.1910 C   0  0  0  0  0  0
  -22.1662   -4.2156   21.0980 F   0  0  0  0  0  0
  -21.5622   -3.4541   25.7738 F   0  0  0  0  0  0
  -29.8446  -14.0603   20.2978 N   0  0  0  0  0  0
  -26.2791  -12.9550   20.3221 N   0  0  0  0  0  0
  -25.9338  -11.6646   20.5725 N   0  0  0  0  0  0
  -22.0394  -12.8171   22.0462 N   0  0  0  0  0  0
  -25.3981  -15.2001   20.4218 N   0  0  0  0  0  0
  -31.6405  -15.3333   20.2013 O   0  0  0  0  0  0
  -21.6642   -6.8888   21.4246 O   0  0  0  0  0  0
  -22.3426  -14.5483   20.6747 O   0  0  0  0  0  0
  -24.6704  -31.8168   23.1654 C   0  0  0  0  0  0
  -25.9353  -32.4556   23.8144 C   0  0  1  0  0  0
  -27.2152  -26.8502   20.1948 C   0  0  0  0  0  0
  -25.5991  -33.8373   24.2046 N   0  0  0  0  0  0
  -23.4883  -30.4266   21.5168 C   0  0  2  0  0  0
  -24.9423  -28.8002   20.1163 C   0  0  0  0  0  0
  -22.7702  -29.4408   22.4766 C   0  0  0  0  0  0
  -18.0329  -28.1415   22.8463 C   0  0  0  0  0  0
  -24.1491  -36.7191   23.2651 C   0  0  0  0  0  0
  -26.0627  -30.5984   21.4073 C   0  0  0  0  0  0
  -26.1299  -29.1797   20.7541 C   0  0  0  0  0  0
  -27.2599  -28.2291   20.7643 C   0  0  0  0  0  0
  -25.9968  -26.6468   19.5045 C   0  0  0  0  0  0
  -24.9061  -27.5555   19.4695 C   0  0  0  0  0  0
  -23.7331  -29.7383   20.1458 C   0  0  0  0  0  0
  -25.4138  -36.2948   24.0294 C   0  0  1  0  0  0
  -20.5959  -28.3767   23.1171 C   0  0  2  0  0  0
  -20.6806  -26.9441   22.5399 C   0  0  0  0  0  0
  -19.5778  -26.6375   21.5216 C   0  0  0  0  0  0
  -18.1961  -26.7946   22.1624 C   0  0  0  0  0  0
  -19.1592  -28.8913   23.2801 C   0  0  0  0  0  0
  -18.9502  -30.1502   23.8840 C   0  0  0  0  0  0
  -17.6493  -30.6602   24.0555 C   0  0  0  0  0  0
  -25.9104  -34.9332   23.4992 C   0  0  0  0  0  0
  -16.5384  -29.9085   23.6349 C   0  0  0  0  0  0
  -16.7310  -28.6506   23.0366 C   0  0  0  0  0  0
  -26.4578  -31.6529   25.0703 C   0  0  0  0  0  0
  -25.3684  -31.3810   26.1348 C   0  0  0  0  0  0
  -27.0490  -30.2884   24.6493 C   0  0  0  0  0  0
  -27.6049  -32.4358   25.7518 C   0  0  0  0  0  0
  -27.5556  -37.1771   24.8479 C   0  0  0  0  0  0
  -21.4365  -29.3043   22.3511 N   0  0  0  0  0  0
  -26.4286  -37.3680   23.9388 N   0  0  0  0  0  0
  -24.7625  -30.9756   22.0833 N   0  0  0  0  0  0
  -23.4213  -28.7980   23.3039 O   0  0  0  0  0  0
  -28.1914  -25.6925   20.2497 O   0  0  0  0  0  0
  -26.5714  -34.8879   22.4590 O   0  0  0  0  0  0
  -23.5755  -32.1174   23.6700 O   0  0  0  0  0  0
  -28.3754  -21.0165   20.7652 C   0  0  0  0  0  0
  -29.2923  -19.9469   20.3591 C   0  0  0  0  0  0
  -28.6581  -22.4502   20.2379 C   0  0  0  0  0  0
  -31.1313  -18.6215   19.3931 C   0  0  0  0  0  0
  -31.2387  -20.1497   19.0359 C   0  0  0  0  0  0
  -30.0641  -18.3588   20.5074 C   0  0  1  0  0  0
  -30.7621  -18.4399   21.8780 C   0  0  0  0  0  0
  -27.8166  -24.0497   20.2534 C   0  0  0  0  0  0
  -29.7598  -22.1622   19.4982 N   0  0  0  0  0  0
  -30.0773  -20.7885   19.6088 N   0  0  0  0  0  0
  -29.6769  -16.7007   20.4105 N   0  0  0  0  0  0
  -31.4440  -13.1158   19.1807 H   0  0  0  0  0  0
  -30.5318  -12.0131   20.1614 H   0  0  0  0  0  0
  -29.9408  -11.7565   17.7254 H   0  0  0  0  0  0
  -29.5436  -13.4551   17.6261 H   0  0  0  0  0  0
  -28.0782  -11.2796   19.1356 H   0  0  0  0  0  0
  -27.4231  -12.2959   17.8742 H   0  0  0  0  0  0
  -27.4992  -14.2343   19.2897 H   0  0  0  0  0  0
  -28.8360  -12.6044   21.5024 H   0  0  0  0  0  0
  -28.2515  -14.2458   21.6605 H   0  0  0  0  0  0
  -25.2778   -9.5680   22.4772 H   0  0  0  0  0  0
  -24.0010   -7.4635   22.7476 H   0  0  0  0  0  0
  -21.0856   -8.8790   19.8955 H   0  0  0  0  0  0
  -22.3726  -10.9681   19.6176 H   0  0  0  0  0  0
  -21.2017   -7.6154   23.9723 H   0  0  0  0  0  0
  -21.1476   -6.0526   25.9081 H   0  0  0  0  0  0
  -22.0595   -2.7614   23.2844 H   0  0  0  0  0  0
  -22.4018  -11.9852   22.4877 H   0  0  0  0  0  0
  -21.1005  -13.1186   22.2654 H   0  0  0  0  0  0
  -24.6250  -15.8467   20.5372 H   0  0  0  0  0  0
  -26.2354  -15.6447   20.0695 H   0  0  0  0  0  0
  -26.7429  -32.5074   23.0858 H   0  0  0  0  0  0
  -25.0102  -33.9437   25.0174 H   0  0  0  0  0  0
  -22.8056  -31.2607   21.3406 H   0  0  0  0  0  0
  -23.3749  -35.9530   23.3331 H   0  0  0  0  0  0
  -24.3546  -36.8818   22.2059 H   0  0  0  0  0  0
  -23.7271  -37.6394   23.6698 H   0  0  0  0  0  0
  -26.2502  -31.3337   20.6236 H   0  0  0  0  0  0
  -26.9201  -30.6596   22.0654 H   0  0  0  0  0  0
  -28.1576  -28.5208   21.2910 H   0  0  0  0  0  0
  -25.8447  -25.7052   18.9991 H   0  0  0  0  0  0
  -24.0075  -27.2590   18.9463 H   0  0  0  0  0  0
  -23.8967  -30.5046   19.3873 H   0  0  0  0  0  0
  -22.8404  -29.1983   19.8251 H   0  0  0  0  0  0
  -25.1347  -36.1743   25.0788 H   0  0  0  0  0  0
  -21.0049  -28.3381   24.1293 H   0  0  0  0  0  0
  -20.5692  -26.2383   23.3645 H   0  0  0  0  0  0
  -21.6667  -26.7410   22.1205 H   0  0  0  0  0  0
  -19.6936  -25.6271   21.1281 H   0  0  0  0  0  0
  -19.6718  -27.3155   20.6721 H   0  0  0  0  0  0
  -17.4230  -26.6689   21.4029 H   0  0  0  0  0  0
  -18.0354  -26.0101   22.9034 H   0  0  0  0  0  0
  -19.7978  -30.7336   24.2180 H   0  0  0  0  0  0
  -17.5044  -31.6277   24.5167 H   0  0  0  0  0  0
  -15.5383  -30.2968   23.7706 H   0  0  0  0  0  0
  -15.8711  -28.0804   22.7115 H   0  0  0  0  0  0
  -24.5871  -30.7152   25.7661 H   0  0  0  0  0  0
  -24.8873  -32.3028   26.4631 H   0  0  0  0  0  0
  -25.7899  -30.9071   27.0221 H   0  0  0  0  0  0
  -26.3181  -29.6539   24.1467 H   0  0  0  0  0  0
  -27.3958  -29.7275   25.5183 H   0  0  0  0  0  0
  -27.9145  -30.4048   23.9967 H   0  0  0  0  0  0
  -27.2594  -33.3703   26.1952 H   0  0  0  0  0  0
  -28.3939  -32.6851   25.0411 H   0  0  0  0  0  0
  -28.0627  -31.8586   26.5560 H   0  0  0  0  0  0
  -28.2610  -38.0027   24.7435 H   0  0  0  0  0  0
  -28.1014  -36.2548   24.6431 H   0  0  0  0  0  0
  -27.2251  -37.1563   25.8879 H   0  0  0  0  0  0
  -20.9635  -29.8712   21.6611 H   0  0  0  0  0  0
  -26.0133  -38.2749   24.1344 H   0  0  0  0  0  0
  -27.5596  -20.8131   21.4447 H   0  0  0  0  0  0
  -32.1042  -18.1932   19.6352 H   0  0  0  0  0  0
  -30.7998  -18.1121   18.4876 H   0  0  0  0  0  0
  -31.2662  -20.3176   17.9591 H   0  0  0  0  0  0
  -32.1315  -20.5922   19.4788 H   0  0  0  0  0  0
  -31.3326  -19.3633   21.9840 H   0  0  0  0  0  0
  -31.4566  -17.6156   22.0413 H   0  0  0  0  0  0
  -30.0285  -18.4199   22.6843 H   0  0  0  0  0  0
  -27.1372  -23.9872   21.1033 H   0  0  0  0  0  0
  -27.1441  -23.9764   19.4006 H   0  0  0  0  0  0
  -28.6784  -16.5562   20.4389 H   0  0  0  0  0  0
  1 25  1  0  0  0
  1 30  2  0  0  0
  1 81  1  0  0  0
  2  3  1  0  0  0
  2 25  1  0  0  0
  2 82  1  0  0  0
  2 83  1  0  0  0
  3  4  1  0  0  0
  3 84  1  0  0  0
  3 85  1  0  0  0
  4  5  1  0  0  0
  4 86  1  0  0  0
  4 87  1  0  0  0
  5  6  1  0  0  0
  5 26  1  0  0  0
  5 88  1  0  0  0
  6 25  1  0  0  0
  6 89  1  0  0  0
  6 90  1  0  0  0
  7  8  2  0  0  0
  7 26  1  0  0  0
  7 29  1  0  0  0
  8  9  1  0  0  0
  8 22  1  0  0  0
  9 10  1  0  0  0
  9 27  2  0  0  0
 10 11  2  0  0  0
 10 15  1  0  0  0
 11 12  1  0  0  0
 11 91  1  0  0  0
 12 13  2  0  0  0
 12 92  1  0  0  0
 13 14  1  0  0  0
 13 31  1  0  0  0
 14 15  2  0  0  0
 14 93  1  0  0  0
 15 94  1  0  0  0
 16 17  2  0  0  0
 16 21  1  0  0  0
 16 31  1  0  0  0
 17 18  1  0  0  0
 17 95  1  0  0  0
 18 19  2  0  0  0
 18 96  1  0  0  0
 19 20  1  0  0  0
 19 24  1  0  0  0
 20 21  2  0  0  0
 20 97  1  0  0  0
 21 23  1  0  0  0
 22 28  1  0  0  0
 22 32  2  0  0  0
 26 27  1  0  0  0
 28 98  1  0  0  0
 28 99  1  0  0  0
 29100  1  0  0  0
 29101  1  0  0  0
 33 34  1  0  0  0
 33 66  1  0  0  0
 33 70  2  0  0  0
 34 36  1  0  0  0
 34 59  1  0  0  0
 34102  1  0  0  0
 35 44  2  0  0  0
 35 45  1  0  0  0
 35 68  1  0  0  0
 36 56  1  0  0  0
 36103  1  0  0  0
 37 39  1  0  0  0
 37 47  1  0  0  0
 37 66  1  0  0  0
 37104  1  0  0  0
 38 43  2  0  0  0
 38 46  1  0  0  0
 38 47  1  0  0  0
 39 64  1  0  0  0
 39 67  2  0  0  0
 40 52  1  0  0  0
 40 53  2  0  0  0
 40 58  1  0  0  0
 41105  1  0  0  0
 41106  1  0  0  0
 41107  1  0  0  0
 41 48  1  0  0  0
 42 43  1  0  0  0
 42 66  1  0  0  0
 42108  1  0  0  0
 42109  1  0  0  0
 43 44  1  0  0  0
 44110  1  0  0  0
 45 46  2  0  0  0
 45111  1  0  0  0
 46112  1  0  0  0
 47113  1  0  0  0
 47114  1  0  0  0
 48 56  1  0  0  0
 48 65  1  0  0  0
 48115  1  0  0  0
 49 50  1  0  0  0
 49 53  1  0  0  0
 49 64  1  0  0  0
 49116  1  0  0  0
 50 51  1  0  0  0
 50117  1  0  0  0
 50118  1  0  0  0
 51 52  1  0  0  0
 51119  1  0  0  0
 51120  1  0  0  0
 52121  1  0  0  0
 52122  1  0  0  0
 53 54  1  0  0  0
 54 55  2  0  0  0
 54123  1  0  0  0
 55 57  1  0  0  0
 55124  1  0  0  0
 56 69  2  0  0  0
 57 58  2  0  0  0
 57125  1  0  0  0
 58126  1  0  0  0
 59 60  1  0  0  0
 59 61  1  0  0  0
 59 62  1  0  0  0
 60127  1  0  0  0
 60128  1  0  0  0
 60129  1  0  0  0
 61130  1  0  0  0
 61131  1  0  0  0
 61132  1  0  0  0
 62133  1  0  0  0
 62134  1  0  0  0
 62135  1  0  0  0
 63 65  1  0  0  0
 63136  1  0  0  0
 63137  1  0  0  0
 63138  1  0  0  0
 64139  1  0  0  0
 65140  1  0  0  0
 68 78  1  0  0  0
 71 72  2  0  0  0
 71 73  1  0  0  0
 71141  1  0  0  0
 72 76  1  0  0  0
 72 80  1  0  0  0
 73 78  1  0  0  0
 73 79  2  0  0  0
 74 75  1  0  0  0
 74 76  1  0  0  0
 74142  1  0  0  0
 74143  1  0  0  0
 75 80  1  0  0  0
 75144  1  0  0  0
 75145  1  0  0  0
 76 77  1  0  0  0
 76 81  1  0  0  0
 77146  1  0  0  0
 77147  1  0  0  0
 77148  1  0  0  0
 78149  1  0  0  0
 78150  1  0  0  0
 79 80  1  0  0  0
 81151  1  0  0  0
M  ISO  4   1 100  68 101  78 101  81 100
M  END
> <chiral flag>
0

> <version>
0

> <s_m_source_file>
/data/baiqing/PycharmProjects/Reinvent-master-3.2/result/LINK_invent/BTK/process_docking_weight1_custom_sum_contain_oxygen_bond_distance_aromatic_linkinvent_7_9_3/rearranged_h_0186.sdf

> <i_m_source_file_index>
27

> <r_mmod_Potential_Energy-OPLS-2005>
1592.58557128906

> <r_mmod_Stretch_Energy-OPLS-2005>
683.955261230469

> <r_mmod_Bend_Energy-OPLS-2005>
586.36669921875

> <r_mmod_Torsional_Energy-OPLS-2005>
245.847290039062

> <r_mmod_Improper_Torsional_Energy-OPLS-2005>
5.25148105621338

> <r_mmod_Van_der_Waal_Energy-OPLS-2005>
105.36784362793

> <r_mmod_Electrostatic_Energy-OPLS-2005>
-385.400482177734

> <r_mmod_Solvation_Energy-OPLS-2005>
-232.823013305664

> <b_mmod_Minimization_Converged-OPLS-2005>
0

> <r_mmod_RMS_Derivative-OPLS-2005>
0.731759786605835

$$$$
27
                    3D
 Structure written by MMmdl.
156165  0  0  1  0            999 V2000
  -30.5365  -14.9454   20.4050 C   0  0  0  0  0  0
  -30.4425  -12.5761   19.5146 C   0  0  0  0  0  0
  -29.5317  -12.5153   18.2672 C   0  0  0  0  0  0
  -28.0606  -12.3118   18.6787 C   0  0  0  0  0  0
  -27.6324  -13.2458   19.8405 C   0  0  2  0  0  0
  -28.6717  -13.2723   20.9803 C   0  0  0  0  0  0
  -25.2480  -13.8218   20.5732 C   0  0  0  0  0  0
  -24.1791  -13.0452   20.9243 C   0  0  0  0  0  0
  -24.6386  -11.6935   20.8769 C   0  0  0  0  0  0
  -23.9074  -10.4309   21.0424 C   0  0  0  0  0  0
  -24.3619   -9.4219   21.9201 C   0  0  0  0  0  0
  -23.6293   -8.2263   22.0768 C   0  0  0  0  0  0
  -22.4273   -8.0306   21.3564 C   0  0  0  0  0  0
  -21.9907   -9.0285   20.4669 C   0  0  0  0  0  0
  -22.7240  -10.2154   20.3084 C   0  0  0  0  0  0
  -21.6851   -6.0746   22.5289 C   0  0  0  0  0  0
  -21.4005   -6.5644   23.8219 C   0  0  0  0  0  0
  -21.3659   -5.6796   24.9180 C   0  0  0  0  0  0
  -21.6040   -4.3060   24.7223 C   0  0  0  0  0  0
  -21.8807   -3.8156   23.4340 C   0  0  0  0  0  0
  -21.9185   -4.6975   22.3395 C   0  0  0  0  0  0
  -22.7800  -13.5245   21.1865 C   0  0  0  0  0  0
  -22.1660   -4.2163   21.0971 F   0  0  0  0  0  0
  -21.5624   -3.4540   25.7731 F   0  0  0  0  0  0
  -29.9507  -13.6816   20.3858 N   0  0  0  0  0  0
  -26.2895  -12.9433   20.3245 N   0  0  0  0  0  0
  -25.9324  -11.6570   20.5767 N   0  0  0  0  0  0
  -22.0420  -12.8275   22.0435 N   0  0  0  0  0  0
  -25.4127  -15.1946   20.4130 N   0  0  0  0  0  0
  -31.7389  -15.0109   20.1212 O   0  0  0  0  0  0
  -21.6642   -6.8904   21.4260 O   0  0  0  0  0  0
  -22.3510  -14.5537   20.6678 O   0  0  0  0  0  0
  -24.6457  -31.8445   23.1894 C   0  0  0  0  0  0
  -25.9224  -32.4698   23.8271 C   0  0  1  0  0  0
  -27.2084  -27.1227   20.1481 C   0  0  0  0  0  0
  -25.5972  -33.8504   24.2184 N   0  0  0  0  0  0
  -23.4476  -30.4665   21.5356 C   0  0  2  0  0  0
  -24.8960  -28.8944   20.1110 C   0  0  0  0  0  0
  -22.7554  -29.4559   22.4849 C   0  0  0  0  0  0
  -18.0308  -28.1390   22.8472 C   0  0  0  0  0  0
  -24.1496  -36.7253   23.2638 C   0  0  0  0  0  0
  -26.0071  -30.7107   21.3952 C   0  0  0  0  0  0
  -26.0760  -29.3227   20.7336 C   0  0  0  0  0  0
  -27.2346  -28.4541   20.7347 C   0  0  0  0  0  0
  -26.0050  -26.8092   19.4770 C   0  0  0  0  0  0
  -24.8749  -27.6511   19.4660 C   0  0  0  0  0  0
  -23.6745  -29.7995   20.1540 C   0  0  0  0  0  0
  -25.4125  -36.3036   24.0318 C   0  0  1  0  0  0
  -20.5922  -28.3731   23.1223 C   0  0  2  0  0  0
  -20.6799  -26.9437   22.5385 C   0  0  0  0  0  0
  -19.5773  -26.6375   21.5199 C   0  0  0  0  0  0
  -18.1953  -26.7922   22.1617 C   0  0  0  0  0  0
  -19.1561  -28.8874   23.2843 C   0  0  0  0  0  0
  -18.9482  -30.1467   23.8880 C   0  0  0  0  0  0
  -17.6479  -30.6593   24.0546 C   0  0  0  0  0  0
  -25.9078  -34.9412   23.5063 C   0  0  0  0  0  0
  -16.5371  -29.9084   23.6334 C   0  0  0  0  0  0
  -16.7287  -28.6494   23.0367 C   0  0  0  0  0  0
  -26.4512  -31.6582   25.0734 C   0  0  0  0  0  0
  -25.3674  -31.3817   26.1429 C   0  0  0  0  0  0
  -27.0359  -30.2959   24.6361 C   0  0  0  0  0  0
  -27.6058  -32.4334   25.7500 C   0  0  0  0  0  0
  -27.5578  -37.1788   24.8455 C   0  0  0  0  0  0
  -21.4250  -29.3059   22.3588 N   0  0  0  0  0  0
  -26.4285  -37.3751   23.9407 N   0  0  0  0  0  0
  -24.7201  -31.0279   22.0945 N   0  0  0  0  0  0
  -23.4184  -28.8109   23.3011 O   0  0  0  0  0  0
  -28.2482  -26.1186   20.1848 O   0  0  0  0  0  0
  -26.5658  -34.8909   22.4633 O   0  0  0  0  0  0
  -23.5584  -32.1328   23.7114 O   0  0  0  0  0  0
  -28.6141  -21.8696   20.4394 C   0  0  0  0  0  0
  -29.5168  -20.7241   20.1506 C   0  0  0  0  0  0
  -30.7105  -21.1867   19.5156 C   0  0  0  0  0  0
  -28.8858  -23.2988   20.1385 C   0  0  0  0  0  0
  -30.9170  -22.5750   19.2347 C   0  0  0  0  0  0
  -28.9363  -18.2216   19.2836 C   0  0  0  0  0  0
  -29.2535  -19.0980   20.4603 C   0  0  1  0  0  0
  -30.0314  -17.6161   20.1421 C   0  0  1  0  0  0
  -31.7871  -20.1811   19.1218 C   0  0  0  0  0  0
  -32.1643  -23.0748   18.5239 C   0  0  0  0  0  0
  -27.8899  -24.6008   20.3423 C   0  0  0  0  0  0
  -30.0545  -23.5738   19.5363 N   0  0  0  0  0  0
  -29.7431  -16.1247   20.5035 N   0  0  0  0  0  0
  -31.4810  -12.7211   19.2140 H   0  0  0  0  0  0
  -30.4248  -11.6258   20.0501 H   0  0  0  0  0  0
  -29.8524  -11.7059   17.6088 H   0  0  0  0  0  0
  -29.6323  -13.4390   17.6966 H   0  0  0  0  0  0
  -27.9504  -11.2715   18.9893 H   0  0  0  0  0  0
  -27.4042  -12.4464   17.8186 H   0  0  0  0  0  0
  -27.5981  -14.2487   19.4146 H   0  0  0  0  0  0
  -28.7535  -12.2920   21.4530 H   0  0  0  0  0  0
  -28.3719  -13.9723   21.7610 H   0  0  0  0  0  0
  -25.2761   -9.5682   22.4786 H   0  0  0  0  0  0
  -23.9987   -7.4641   22.7475 H   0  0  0  0  0  0
  -21.0839   -8.8808   19.8978 H   0  0  0  0  0  0
  -22.3702  -10.9700   19.6202 H   0  0  0  0  0  0
  -21.2011   -7.6156   23.9726 H   0  0  0  0  0  0
  -21.1489   -6.0531   25.9082 H   0  0  0  0  0  0
  -22.0586   -2.7624   23.2836 H   0  0  0  0  0  0
  -22.4002  -11.9957   22.4884 H   0  0  0  0  0  0
  -21.1043  -13.1352   22.2597 H   0  0  0  0  0  0
  -24.6374  -15.8397   20.5234 H   0  0  0  0  0  0
  -26.2418  -15.6349   20.0386 H   0  0  0  0  0  0
  -26.7279  -32.5289   23.0986 H   0  0  0  0  0  0
  -25.0092  -33.9591   25.0318 H   0  0  0  0  0  0
  -22.7527  -31.2958   21.3831 H   0  0  0  0  0  0
  -23.3771  -35.9571   23.3272 H   0  0  0  0  0  0
  -24.3581  -36.8908   22.2055 H   0  0  0  0  0  0
  -23.7237  -37.6437   23.6685 H   0  0  0  0  0  0
  -26.1739  -31.4685   20.6282 H   0  0  0  0  0  0
  -26.8718  -30.7498   22.0463 H   0  0  0  0  0  0
  -28.1357  -28.7784   21.2384 H   0  0  0  0  0  0
  -25.9005  -25.8802   18.9405 H   0  0  0  0  0  0
  -23.9824  -27.3207   18.9532 H   0  0  0  0  0  0
  -23.8139  -30.5756   19.4006 H   0  0  0  0  0  0
  -22.7862  -29.2475   19.8416 H   0  0  0  0  0  0
  -25.1317  -36.1851   25.0812 H   0  0  0  0  0  0
  -21.0011  -28.3328   24.1348 H   0  0  0  0  0  0
  -20.5687  -26.2352   23.3601 H   0  0  0  0  0  0
  -21.6671  -26.7441   22.1202 H   0  0  0  0  0  0
  -19.6937  -25.6270   21.1272 H   0  0  0  0  0  0
  -19.6707  -27.3148   20.6695 H   0  0  0  0  0  0
  -17.4214  -26.6648   21.4032 H   0  0  0  0  0  0
  -18.0373  -26.0064   22.9018 H   0  0  0  0  0  0
  -19.7959  -30.7279   24.2253 H   0  0  0  0  0  0
  -17.5038  -31.6280   24.5132 H   0  0  0  0  0  0
  -15.5374  -30.2986   23.7671 H   0  0  0  0  0  0
  -15.8683  -28.0795   22.7128 H   0  0  0  0  0  0
  -24.5810  -30.7220   25.7738 H   0  0  0  0  0  0
  -24.8919  -32.3033   26.4809 H   0  0  0  0  0  0
  -25.7930  -30.8986   27.0236 H   0  0  0  0  0  0
  -26.2985  -29.6688   24.1340 H   0  0  0  0  0  0
  -27.3889  -29.7271   25.4971 H   0  0  0  0  0  0
  -27.8937  -30.4153   23.9740 H   0  0  0  0  0  0
  -27.2666  -33.3646   26.2042 H   0  0  0  0  0  0
  -28.3885  -32.6872   25.0339 H   0  0  0  0  0  0
  -28.0702  -31.8475   26.5437 H   0  0  0  0  0  0
  -28.2602  -38.0082   24.7519 H   0  0  0  0  0  0
  -28.1077  -36.2623   24.6269 H   0  0  0  0  0  0
  -27.2295  -37.1416   25.8855 H   0  0  0  0  0  0
  -20.9453  -29.8752   21.6755 H   0  0  0  0  0  0
  -26.0156  -38.2826   24.1394 H   0  0  0  0  0  0
  -27.6615  -21.6443   20.8995 H   0  0  0  0  0  0
  -29.2457  -18.5638   18.2985 H   0  0  0  0  0  0
  -27.9536  -17.7557   19.2942 H   0  0  0  0  0  0
  -28.5669  -19.0533   21.3029 H   0  0  0  0  0  0
  -31.0476  -17.7347   19.7854 H   0  0  0  0  0  0
  -32.1074  -19.6254   20.0016 H   0  0  0  0  0  0
  -32.6888  -20.6191   18.7002 H   0  0  0  0  0  0
  -31.4100  -19.4900   18.3684 H   0  0  0  0  0  0
  -32.2485  -22.6265   17.5334 H   0  0  0  0  0  0
  -33.0599  -22.8364   19.0969 H   0  0  0  0  0  0
  -32.1452  -24.1571   18.3921 H   0  0  0  0  0  0
  -27.4727  -24.5014   21.3442 H   0  0  0  0  0  0
  -27.0681  -24.3606   19.6735 H   0  0  0  0  0  0
  -28.7765  -15.9342   20.7243 H   0  0  0  0  0  0
  1 25  1  0  0  0
  1 30  2  0  0  0
  1 83  1  0  0  0
  2  3  1  0  0  0
  2 25  1  0  0  0
  2 84  1  0  0  0
  2 85  1  0  0  0
  3  4  1  0  0  0
  3 86  1  0  0  0
  3 87  1  0  0  0
  4  5  1  0  0  0
  4 88  1  0  0  0
  4 89  1  0  0  0
  5  6  1  0  0  0
  5 26  1  0  0  0
  5 90  1  0  0  0
  6 25  1  0  0  0
  6 91  1  0  0  0
  6 92  1  0  0  0
  7  8  2  0  0  0
  7 26  1  0  0  0
  7 29  1  0  0  0
  8  9  1  0  0  0
  8 22  1  0  0  0
  9 10  1  0  0  0
  9 27  2  0  0  0
 10 11  2  0  0  0
 10 15  1  0  0  0
 11 12  1  0  0  0
 11 93  1  0  0  0
 12 13  2  0  0  0
 12 94  1  0  0  0
 13 14  1  0  0  0
 13 31  1  0  0  0
 14 15  2  0  0  0
 14 95  1  0  0  0
 15 96  1  0  0  0
 16 17  2  0  0  0
 16 21  1  0  0  0
 16 31  1  0  0  0
 17 18  1  0  0  0
 17 97  1  0  0  0
 18 19  2  0  0  0
 18 98  1  0  0  0
 19 20  1  0  0  0
 19 24  1  0  0  0
 20 21  2  0  0  0
 20 99  1  0  0  0
 21 23  1  0  0  0
 22 28  1  0  0  0
 22 32  2  0  0  0
 26 27  1  0  0  0
 28100  1  0  0  0
 28101  1  0  0  0
 29102  1  0  0  0
 29103  1  0  0  0
 33 34  1  0  0  0
 33 66  1  0  0  0
 33 70  2  0  0  0
 34 36  1  0  0  0
 34 59  1  0  0  0
 34104  1  0  0  0
 35 44  2  0  0  0
 35 45  1  0  0  0
 35 68  1  0  0  0
 36 56  1  0  0  0
 36105  1  0  0  0
 37 39  1  0  0  0
 37 47  1  0  0  0
 37 66  1  0  0  0
 37106  1  0  0  0
 38 43  2  0  0  0
 38 46  1  0  0  0
 38 47  1  0  0  0
 39 64  1  0  0  0
 39 67  2  0  0  0
 40 52  1  0  0  0
 40 53  2  0  0  0
 40 58  1  0  0  0
 41107  1  0  0  0
 41108  1  0  0  0
 41109  1  0  0  0
 41 48  1  0  0  0
 42 43  1  0  0  0
 42 66  1  0  0  0
 42110  1  0  0  0
 42111  1  0  0  0
 43 44  1  0  0  0
 44112  1  0  0  0
 45 46  2  0  0  0
 45113  1  0  0  0
 46114  1  0  0  0
 47115  1  0  0  0
 47116  1  0  0  0
 48 56  1  0  0  0
 48 65  1  0  0  0
 48117  1  0  0  0
 49 50  1  0  0  0
 49 53  1  0  0  0
 49 64  1  0  0  0
 49118  1  0  0  0
 50 51  1  0  0  0
 50119  1  0  0  0
 50120  1  0  0  0
 51 52  1  0  0  0
 51121  1  0  0  0
 51122  1  0  0  0
 52123  1  0  0  0
 52124  1  0  0  0
 53 54  1  0  0  0
 54 55  2  0  0  0
 54125  1  0  0  0
 55 57  1  0  0  0
 55126  1  0  0  0
 56 69  2  0  0  0
 57 58  2  0  0  0
 57127  1  0  0  0
 58128  1  0  0  0
 59 60  1  0  0  0
 59 61  1  0  0  0
 59 62  1  0  0  0
 60129  1  0  0  0
 60130  1  0  0  0
 60131  1  0  0  0
 61132  1  0  0  0
 61133  1  0  0  0
 61134  1  0  0  0
 62135  1  0  0  0
 62136  1  0  0  0
 62137  1  0  0  0
 63 65  1  0  0  0
 63138  1  0  0  0
 63139  1  0  0  0
 63140  1  0  0  0
 64141  1  0  0  0
 65142  1  0  0  0
 68 81  1  0  0  0
 71 72  2  0  0  0
 71 74  1  0  0  0
 71143  1  0  0  0
 72 73  1  0  0  0
 72 77  1  0  0  0
 73 75  2  0  0  0
 73 79  1  0  0  0
 74 81  1  0  0  0
 74 82  2  0  0  0
 75 80  1  0  0  0
 75 82  1  0  0  0
 76 77  1  0  0  0
 76 78  1  0  0  0
 76144  1  0  0  0
 76145  1  0  0  0
 77 78  1  0  0  0
 77146  1  0  0  0
 78 83  1  0  0  0
 78147  1  0  0  0
 79148  1  0  0  0
 79149  1  0  0  0
 79150  1  0  0  0
 80151  1  0  0  0
 80152  1  0  0  0
 80153  1  0  0  0
 81154  1  0  0  0
 81155  1  0  0  0
 83156  1  0  0  0
M  ISO  4   1 100  68 101  81 101  83 100
M  END
> <chiral flag>
0

> <version>
0

> <s_m_source_file>
/data/baiqing/PycharmProjects/Reinvent-master-3.2/result/LINK_invent/BTK/process_docking_weight1_custom_sum_contain_oxygen_bond_distance_aromatic_linkinvent_7_9_3/rearranged_h_0186.sdf

> <i_m_source_file_index>
28

> <r_mmod_Potential_Energy-OPLS-2005>
416.198120117188

> <r_mmod_Stretch_Energy-OPLS-2005>
283.093780517578

> <r_mmod_Bend_Energy-OPLS-2005>
247.29573059082

> <r_mmod_Torsional_Energy-OPLS-2005>
262.003753662109

> <r_mmod_Improper_Torsional_Energy-OPLS-2005>
5.80929136276245

> <r_mmod_Van_der_Waal_Energy-OPLS-2005>
143.688674926758

> <r_mmod_Electrostatic_Energy-OPLS-2005>
-484.99462890625

> <r_mmod_Solvation_Energy-OPLS-2005>
-238.226745605469

> <b_mmod_Minimization_Converged-OPLS-2005>
0

> <r_mmod_RMS_Derivative-OPLS-2005>
2.47204303741455

$$$$
28
                    3D
 Structure written by MMmdl.
151160  0  0  1  0            999 V2000
  -30.5248  -14.9194   20.4309 C   0  0  0  0  0  0
  -30.4466  -12.5723   19.4764 C   0  0  0  0  0  0
  -29.5160  -12.5167   18.2416 C   0  0  0  0  0  0
  -28.0495  -12.3036   18.6648 C   0  0  0  0  0  0
  -27.6316  -13.2331   19.8344 C   0  0  2  0  0  0
  -28.6787  -13.2331   20.9668 C   0  0  0  0  0  0
  -25.2493  -13.8178   20.5632 C   0  0  0  0  0  0
  -24.1808  -13.0429   20.9179 C   0  0  0  0  0  0
  -24.6399  -11.6903   20.8738 C   0  0  0  0  0  0
  -23.9077  -10.4285   21.0412 C   0  0  0  0  0  0
  -24.3647   -9.4205   21.9186 C   0  0  0  0  0  0
  -23.6323   -8.2235   22.0767 C   0  0  0  0  0  0
  -22.4296   -8.0288   21.3557 C   0  0  0  0  0  0
  -21.9936   -9.0237   20.4634 C   0  0  0  0  0  0
  -22.7255  -10.2124   20.3049 C   0  0  0  0  0  0
  -21.6847   -6.0740   22.5267 C   0  0  0  0  0  0
  -21.3996   -6.5631   23.8202 C   0  0  0  0  0  0
  -21.3676   -5.6784   24.9167 C   0  0  0  0  0  0
  -21.6067   -4.3051   24.7215 C   0  0  0  0  0  0
  -21.8817   -3.8144   23.4326 C   0  0  0  0  0  0
  -21.9193   -4.6964   22.3394 C   0  0  0  0  0  0
  -22.7845  -13.5211   21.1846 C   0  0  0  0  0  0
  -22.1673   -4.2156   21.0974 F   0  0  0  0  0  0
  -21.5661   -3.4539   25.7728 F   0  0  0  0  0  0
  -29.9499  -13.6550   20.3656 N   0  0  0  0  0  0
  -26.2900  -12.9373   20.3212 N   0  0  0  0  0  0
  -25.9317  -11.6518   20.5706 N   0  0  0  0  0  0
  -22.0523  -12.8187   22.0402 N   0  0  0  0  0  0
  -25.4149  -15.1905   20.3993 N   0  0  0  0  0  0
  -31.7388  -15.0149   20.2159 O   0  0  0  0  0  0
  -21.6664   -6.8875   21.4237 O   0  0  0  0  0  0
  -22.3525  -14.5519   20.6711 O   0  0  0  0  0  0
  -24.6404  -31.8434   23.1865 C   0  0  0  0  0  0
  -25.9192  -32.4687   23.8244 C   0  0  1  0  0  0
  -27.2339  -27.1572   20.1746 C   0  0  0  0  0  0
  -25.5956  -33.8495   24.2167 N   0  0  0  0  0  0
  -23.4435  -30.4574   21.5317 C   0  0  2  0  0  0
  -24.8964  -28.8741   20.1194 C   0  0  0  0  0  0
  -22.7551  -29.4532   22.4884 C   0  0  0  0  0  0
  -18.0306  -28.1359   22.8471 C   0  0  0  0  0  0
  -24.1513  -36.7255   23.2636 C   0  0  0  0  0  0
  -25.9942  -30.7269   21.3780 C   0  0  0  0  0  0
  -26.0700  -29.3346   20.7301 C   0  0  0  0  0  0
  -27.2411  -28.4960   20.7299 C   0  0  0  0  0  0
  -26.0325  -26.7731   19.5448 C   0  0  0  0  0  0
  -24.8896  -27.6071   19.5091 C   0  0  0  0  0  0
  -23.6701  -29.7733   20.1549 C   0  0  0  0  0  0
  -25.4144  -36.3018   24.0303 C   0  0  1  0  0  0
  -20.5907  -28.3678   23.1250 C   0  0  2  0  0  0
  -20.6773  -26.9376   22.5409 C   0  0  0  0  0  0
  -19.5758  -26.6355   21.5203 C   0  0  0  0  0  0
  -18.1945  -26.7902   22.1614 C   0  0  0  0  0  0
  -19.1554  -28.8843   23.2851 C   0  0  0  0  0  0
  -18.9462  -30.1441   23.8868 C   0  0  0  0  0  0
  -17.6452  -30.6551   24.0549 C   0  0  0  0  0  0
  -25.9083  -34.9400   23.5043 C   0  0  0  0  0  0
  -16.5352  -29.9034   23.6324 C   0  0  0  0  0  0
  -16.7290  -28.6459   23.0343 C   0  0  0  0  0  0
  -26.4524  -31.6537   25.0674 C   0  0  0  0  0  0
  -25.3715  -31.3696   26.1367 C   0  0  0  0  0  0
  -27.0380  -30.2945   24.6203 C   0  0  0  0  0  0
  -27.6068  -32.4270   25.7459 C   0  0  0  0  0  0
  -27.5587  -37.1786   24.8464 C   0  0  0  0  0  0
  -21.4248  -29.3029   22.3656 N   0  0  0  0  0  0
  -26.4307  -37.3723   23.9385 N   0  0  0  0  0  0
  -24.7122  -31.0305   22.0882 N   0  0  0  0  0  0
  -23.4212  -28.8078   23.3015 O   0  0  0  0  0  0
  -28.3565  -26.2679   20.1288 O   0  0  0  0  0  0
  -26.5663  -34.8909   22.4617 O   0  0  0  0  0  0
  -23.5531  -32.1300   23.7110 O   0  0  0  0  0  0
  -28.5801  -18.0849   21.3474 C   0  0  0  0  0  0
  -29.2833  -24.3034   19.4472 C   0  0  0  0  0  0
  -29.1613  -19.0300   20.3347 C   0  0  2  0  0  0
  -29.8883  -17.5699   20.8433 C   0  0  2  0  0  0
  -28.3822  -23.2299   19.9734 C   0  0  2  0  0  0
  -28.4436  -24.7903   20.6081 C   0  0  1  0  0  0
  -28.8809  -20.5863   20.9061 C   0  0  0  0  0  0
  -29.6864  -16.0583   20.5397 N   0  0  0  0  0  0
  -29.3041  -21.9623   20.2670 N   0  3  0  0  0  0
  -31.4743  -12.7561   19.1609 H   0  0  0  0  0  0
  -30.4568  -11.6163   20.0008 H   0  0  0  0  0  0
  -29.8300  -11.7220   17.5627 H   0  0  0  0  0  0
  -29.5988  -13.4493   17.6818 H   0  0  0  0  0  0
  -27.9435  -11.2603   18.9658 H   0  0  0  0  0  0
  -27.3830  -12.4408   17.8130 H   0  0  0  0  0  0
  -27.6000  -14.2375   19.4128 H   0  0  0  0  0  0
  -28.7683  -12.2428   21.4142 H   0  0  0  0  0  0
  -28.3844  -13.9046   21.7745 H   0  0  0  0  0  0
  -25.2801   -9.5689   22.4748 H   0  0  0  0  0  0
  -24.0039   -7.4619   22.7493 H   0  0  0  0  0  0
  -21.0872   -8.8740   19.8912 H   0  0  0  0  0  0
  -22.3721  -10.9666   19.6159 H   0  0  0  0  0  0
  -21.1962   -7.6132   23.9693 H   0  0  0  0  0  0
  -21.1526   -6.0525   25.9069 H   0  0  0  0  0  0
  -22.0587   -2.7604   23.2824 H   0  0  0  0  0  0
  -22.4193  -11.9852   22.4755 H   0  0  0  0  0  0
  -21.1134  -13.1162   22.2610 H   0  0  0  0  0  0
  -24.6313  -15.8287   20.4778 H   0  0  0  0  0  0
  -26.2314  -15.6211   19.9871 H   0  0  0  0  0  0
  -26.7254  -32.5303   23.0973 H   0  0  0  0  0  0
  -25.0127  -33.9609   25.0331 H   0  0  0  0  0  0
  -22.7437  -31.2803   21.3725 H   0  0  0  0  0  0
  -23.3779  -35.9583   23.3286 H   0  0  0  0  0  0
  -24.3610  -36.8904   22.2055 H   0  0  0  0  0  0
  -23.7286  -37.6453   23.6689 H   0  0  0  0  0  0
  -26.1424  -31.4777   20.5996 H   0  0  0  0  0  0
  -26.8658  -30.7822   22.0187 H   0  0  0  0  0  0
  -28.1466  -28.8577   21.1983 H   0  0  0  0  0  0
  -25.9746  -25.8014   19.0742 H   0  0  0  0  0  0
  -23.9957  -27.2503   19.0174 H   0  0  0  0  0  0
  -23.8039  -30.5401   19.3913 H   0  0  0  0  0  0
  -22.7868  -29.2097   19.8496 H   0  0  0  0  0  0
  -25.1345  -36.1842   25.0794 H   0  0  0  0  0  0
  -20.9992  -28.3236   24.1368 H   0  0  0  0  0  0
  -20.5645  -26.2267   23.3613 H   0  0  0  0  0  0
  -21.6641  -26.7372   22.1216 H   0  0  0  0  0  0
  -19.6917  -25.6269   21.1222 H   0  0  0  0  0  0
  -19.6701  -27.3163   20.6733 H   0  0  0  0  0  0
  -17.4211  -26.6657   21.4012 H   0  0  0  0  0  0
  -18.0345  -26.0037   22.8999 H   0  0  0  0  0  0
  -19.7937  -30.7276   24.2213 H   0  0  0  0  0  0
  -17.4999  -31.6237   24.5138 H   0  0  0  0  0  0
  -15.5342  -30.2913   23.7661 H   0  0  0  0  0  0
  -15.8706  -28.0772   22.7042 H   0  0  0  0  0  0
  -24.5921  -30.7017   25.7666 H   0  0  0  0  0  0
  -24.8886  -32.2869   26.4737 H   0  0  0  0  0  0
  -25.8009  -30.8895   27.0169 H   0  0  0  0  0  0
  -26.2961  -29.6662   24.1259 H   0  0  0  0  0  0
  -27.4079  -29.7238   25.4730 H   0  0  0  0  0  0
  -27.8829  -30.4206   23.9432 H   0  0  0  0  0  0
  -27.2682  -33.3585   26.1997 H   0  0  0  0  0  0
  -28.3906  -32.6786   25.0301 H   0  0  0  0  0  0
  -28.0703  -31.8415   26.5411 H   0  0  0  0  0  0
  -28.2582  -38.0097   24.7511 H   0  0  0  0  0  0
  -28.1100  -36.2632   24.6290 H   0  0  0  0  0  0
  -27.2302  -37.1425   25.8863 H   0  0  0  0  0  0
  -20.9446  -29.8740   21.6850 H   0  0  0  0  0  0
  -26.0180  -38.2788   24.1369 H   0  0  0  0  0  0
  -27.6653  -17.5789   21.0440 H   0  0  0  0  0  0
  -28.5709  -18.3891   22.3934 H   0  0  0  0  0  0
  -29.0455  -24.6624   18.4466 H   0  0  0  0  0  0
  -30.3545  -24.2571   19.6438 H   0  0  0  0  0  0
  -28.7863  -18.9417   19.3155 H   0  0  0  0  0  0
  -30.7710  -17.7589   21.4539 H   0  0  0  0  0  0
  -27.5252  -22.9576   19.3598 H   0  0  0  0  0  0
  -28.8773  -24.8185   21.6070 H   0  0  0  0  0  0
  -29.2916  -20.6214   21.9168 H   0  0  0  0  0  0
  -27.8033  -20.6661   21.0527 H   0  0  0  0  0  0
  -28.7149  -15.7891   20.5647 H   0  0  0  0  0  0
  -30.0602  -22.2844   20.8484 H   0  0  0  0  0  0
  -29.7353  -21.7303   19.3883 H   0  0  0  0  0  0
  1 25  1  0  0  0
  1 30  2  0  0  0
  1 78  1  0  0  0
  2  3  1  0  0  0
  2 25  1  0  0  0
  2 80  1  0  0  0
  2 81  1  0  0  0
  3  4  1  0  0  0
  3 82  1  0  0  0
  3 83  1  0  0  0
  4  5  1  0  0  0
  4 84  1  0  0  0
  4 85  1  0  0  0
  5  6  1  0  0  0
  5 26  1  0  0  0
  5 86  1  0  0  0
  6 25  1  0  0  0
  6 87  1  0  0  0
  6 88  1  0  0  0
  7  8  2  0  0  0
  7 26  1  0  0  0
  7 29  1  0  0  0
  8  9  1  0  0  0
  8 22  1  0  0  0
  9 10  1  0  0  0
  9 27  2  0  0  0
 10 11  2  0  0  0
 10 15  1  0  0  0
 11 12  1  0  0  0
 11 89  1  0  0  0
 12 13  2  0  0  0
 12 90  1  0  0  0
 13 14  1  0  0  0
 13 31  1  0  0  0
 14 15  2  0  0  0
 14 91  1  0  0  0
 15 92  1  0  0  0
 16 17  2  0  0  0
 16 21  1  0  0  0
 16 31  1  0  0  0
 17 18  1  0  0  0
 17 93  1  0  0  0
 18 19  2  0  0  0
 18 94  1  0  0  0
 19 20  1  0  0  0
 19 24  1  0  0  0
 20 21  2  0  0  0
 20 95  1  0  0  0
 21 23  1  0  0  0
 22 28  1  0  0  0
 22 32  2  0  0  0
 26 27  1  0  0  0
 28 96  1  0  0  0
 28 97  1  0  0  0
 29 98  1  0  0  0
 29 99  1  0  0  0
 33 34  1  0  0  0
 33 66  1  0  0  0
 33 70  2  0  0  0
 34 36  1  0  0  0
 34 59  1  0  0  0
 34100  1  0  0  0
 35 44  2  0  0  0
 35 45  1  0  0  0
 35 68  1  0  0  0
 36 56  1  0  0  0
 36101  1  0  0  0
 37 39  1  0  0  0
 37 47  1  0  0  0
 37 66  1  0  0  0
 37102  1  0  0  0
 38 43  2  0  0  0
 38 46  1  0  0  0
 38 47  1  0  0  0
 39 64  1  0  0  0
 39 67  2  0  0  0
 40 52  1  0  0  0
 40 53  2  0  0  0
 40 58  1  0  0  0
 41103  1  0  0  0
 41104  1  0  0  0
 41105  1  0  0  0
 41 48  1  0  0  0
 42 43  1  0  0  0
 42 66  1  0  0  0
 42106  1  0  0  0
 42107  1  0  0  0
 43 44  1  0  0  0
 44108  1  0  0  0
 45 46  2  0  0  0
 45109  1  0  0  0
 46110  1  0  0  0
 47111  1  0  0  0
 47112  1  0  0  0
 48 56  1  0  0  0
 48 65  1  0  0  0
 48113  1  0  0  0
 49 50  1  0  0  0
 49 53  1  0  0  0
 49 64  1  0  0  0
 49114  1  0  0  0
 50 51  1  0  0  0
 50115  1  0  0  0
 50116  1  0  0  0
 51 52  1  0  0  0
 51117  1  0  0  0
 51118  1  0  0  0
 52119  1  0  0  0
 52120  1  0  0  0
 53 54  1  0  0  0
 54 55  2  0  0  0
 54121  1  0  0  0
 55 57  1  0  0  0
 55122  1  0  0  0
 56 69  2  0  0  0
 57 58  2  0  0  0
 57123  1  0  0  0
 58124  1  0  0  0
 59 60  1  0  0  0
 59 61  1  0  0  0
 59 62  1  0  0  0
 60125  1  0  0  0
 60126  1  0  0  0
 60127  1  0  0  0
 61128  1  0  0  0
 61129  1  0  0  0
 61130  1  0  0  0
 62131  1  0  0  0
 62132  1  0  0  0
 62133  1  0  0  0
 63 65  1  0  0  0
 63134  1  0  0  0
 63135  1  0  0  0
 63136  1  0  0  0
 64137  1  0  0  0
 65138  1  0  0  0
 68 76  1  0  0  0
 71 73  1  0  0  0
 71 74  1  0  0  0
 71139  1  0  0  0
 71140  1  0  0  0
 72 75  1  0  0  0
 72 76  1  0  0  0
 72141  1  0  0  0
 72142  1  0  0  0
 73 74  1  0  0  0
 73 77  1  0  0  0
 73143  1  0  0  0
 74 78  1  0  0  0
 74144  1  0  0  0
 75 76  1  0  0  0
 75 79  1  0  0  0
 75145  1  0  0  0
 76146  1  0  0  0
 77 79  1  0  0  0
 77147  1  0  0  0
 77148  1  0  0  0
 78149  1  0  0  0
 79150  1  0  0  0
 79151  1  0  0  0
M  CHG  1  79   1
M  ISO  4   1 100  68 101  76 101  78 100
M  END
> <chiral flag>
0

> <version>
0

> <s_m_source_file>
/data/baiqing/PycharmProjects/Reinvent-master-3.2/result/LINK_invent/BTK/process_docking_weight1_custom_sum_contain_oxygen_bond_distance_aromatic_linkinvent_7_9_3/rearranged_h_0186.sdf

> <i_m_source_file_index>
29

> <r_mmod_Potential_Energy-OPLS-2005>
493.272552490234

> <r_mmod_Stretch_Energy-OPLS-2005>
275.515441894531

> <r_mmod_Bend_Energy-OPLS-2005>
405.251953125

> <r_mmod_Torsional_Energy-OPLS-2005>
317.430877685547

> <r_mmod_Improper_Torsional_Energy-OPLS-2005>
5.08167409896851

> <r_mmod_Van_der_Waal_Energy-OPLS-2005>
109.487266540527

> <r_mmod_Electrostatic_Energy-OPLS-2005>
-279.530975341797

> <r_mmod_Solvation_Energy-OPLS-2005>
-504.634307861328

> <b_mmod_Minimization_Converged-OPLS-2005>
0

> <r_mmod_RMS_Derivative-OPLS-2005>
2.78438758850098

$$$$
29
                    3D
 Structure written by MMmdl.
156165  0  0  1  0            999 V2000
  -30.6505  -14.7434   20.4821 C   0  0  0  0  0  0
  -30.4291  -12.4714   19.4557 C   0  0  0  0  0  0
  -29.4993  -12.5031   18.2236 C   0  0  0  0  0  0
  -28.0300  -12.3032   18.6445 C   0  0  0  0  0  0
  -27.6361  -13.2017   19.8437 C   0  0  2  0  0  0
  -28.6915  -13.1311   20.9715 C   0  0  0  0  0  0
  -25.2491  -13.8091   20.5678 C   0  0  0  0  0  0
  -24.1775  -13.0375   20.9227 C   0  0  0  0  0  0
  -24.6351  -11.6852   20.8785 C   0  0  0  0  0  0
  -23.9028  -10.4252   21.0442 C   0  0  0  0  0  0
  -24.3591   -9.4168   21.9212 C   0  0  0  0  0  0
  -23.6273   -8.2202   22.0763 C   0  0  0  0  0  0
  -22.4258   -8.0251   21.3545 C   0  0  0  0  0  0
  -21.9891   -9.0226   20.4651 C   0  0  0  0  0  0
  -22.7212  -10.2107   20.3075 C   0  0  0  0  0  0
  -21.6836   -6.0716   22.5278 C   0  0  0  0  0  0
  -21.4000   -6.5626   23.8210 C   0  0  0  0  0  0
  -21.3663   -5.6786   24.9177 C   0  0  0  0  0  0
  -21.6049   -4.3047   24.7234 C   0  0  0  0  0  0
  -21.8819   -3.8137   23.4356 C   0  0  0  0  0  0
  -21.9188   -4.6945   22.3407 C   0  0  0  0  0  0
  -22.7808  -13.5189   21.1884 C   0  0  0  0  0  0
  -22.1657   -4.2129   21.0985 F   0  0  0  0  0  0
  -21.5643   -3.4536   25.7750 F   0  0  0  0  0  0
  -29.9742  -13.5388   20.3831 N   0  0  0  0  0  0
  -26.2898  -12.9252   20.3273 N   0  0  0  0  0  0
  -25.9267  -11.6425   20.5779 N   0  0  0  0  0  0
  -22.0435  -12.8201   22.0440 N   0  0  0  0  0  0
  -25.4128  -15.1806   20.4051 N   0  0  0  0  0  0
  -31.8490  -14.7614   20.1832 O   0  0  0  0  0  0
  -21.6617   -6.8856   21.4240 O   0  0  0  0  0  0
  -22.3509  -14.5502   20.6727 O   0  0  0  0  0  0
  -24.6298  -31.8563   23.1992 C   0  0  0  0  0  0
  -25.9128  -32.4758   23.8332 C   0  0  1  0  0  0
  -27.2281  -27.2901   20.1079 C   0  0  0  0  0  0
  -25.5927  -33.8559   24.2262 N   0  0  0  0  0  0
  -23.4241  -30.4798   21.5428 C   0  0  2  0  0  0
  -24.8700  -28.9308   20.1087 C   0  0  0  0  0  0
  -22.7486  -29.4612   22.4922 C   0  0  0  0  0  0
  -18.0288  -28.1388   22.8483 C   0  0  0  0  0  0
  -24.1487  -36.7283   23.2640 C   0  0  0  0  0  0
  -25.9679  -30.7776   21.3738 C   0  0  0  0  0  0
  -26.0397  -29.4028   20.7142 C   0  0  0  0  0  0
  -27.2167  -28.5928   20.7071 C   0  0  0  0  0  0
  -26.0230  -26.8691   19.4978 C   0  0  0  0  0  0
  -24.8648  -27.6704   19.4939 C   0  0  0  0  0  0
  -23.6393  -29.8134   20.1584 C   0  0  0  0  0  0
  -25.4113  -36.3072   24.0330 C   0  0  1  0  0  0
  -20.5891  -28.3692   23.1276 C   0  0  2  0  0  0
  -20.6771  -26.9410   22.5410 C   0  0  0  0  0  0
  -19.5751  -26.6387   21.5204 C   0  0  0  0  0  0
  -18.1931  -26.7933   22.1616 C   0  0  0  0  0  0
  -19.1541  -28.8857   23.2876 C   0  0  0  0  0  0
  -18.9462  -30.1458   23.8894 C   0  0  0  0  0  0
  -17.6461  -30.6589   24.0563 C   0  0  0  0  0  0
  -25.9049  -34.9441   23.5098 C   0  0  0  0  0  0
  -16.5353  -29.9086   23.6335 C   0  0  0  0  0  0
  -16.7276  -28.6502   23.0353 C   0  0  0  0  0  0
  -26.4499  -31.6581   25.0718 C   0  0  0  0  0  0
  -25.3727  -31.3733   26.1444 C   0  0  0  0  0  0
  -27.0336  -30.2998   24.6193 C   0  0  0  0  0  0
  -27.6059  -32.4315   25.7489 C   0  0  0  0  0  0
  -27.5580  -37.1796   24.8464 C   0  0  0  0  0  0
  -21.4197  -29.3045   22.3665 N   0  0  0  0  0  0
  -26.4290  -37.3769   23.9408 N   0  0  0  0  0  0
  -24.6932  -31.0554   22.0951 N   0  0  0  0  0  0
  -23.4199  -28.8146   23.3006 O   0  0  0  0  0  0
  -28.3536  -26.4431   20.1880 O   0  0  0  0  0  0
  -26.5617  -34.8916   22.4665 O   0  0  0  0  0  0
  -23.5454  -32.1367   23.7309 O   0  0  0  0  0  0
  -29.9839  -22.3122   21.3246 C   0  0  0  0  0  0
  -29.5217  -21.1657   20.6010 C   0  0  0  0  0  0
  -28.7464  -23.7530   19.9902 C   0  0  0  0  0  0
  -28.5224  -17.8447   21.2660 C   0  0  0  0  0  0
  -28.6194  -16.3201   21.0119 C   0  0  0  0  0  0
  -30.6517  -17.3213   20.4004 C   0  0  0  0  0  0
  -29.5809  -18.4927   20.3826 C   0  0  2  0  0  0
  -30.9578  -22.1770   22.4803 C   0  0  0  0  0  0
  -28.4957  -25.2013   19.3723 C   0  0  0  0  0  0
  -29.6052  -23.5924   21.0127 N   0  0  0  0  0  0
  -28.6212  -21.4097   19.6068 N   0  0  0  0  0  0
  -28.2463  -22.6861   19.3055 N   0  0  0  0  0  0
  -29.9989  -15.9797   20.6272 N   0  0  0  0  0  0
  -30.0228  -19.8407   20.8773 N   0  0  0  0  0  0
  -31.4645  -12.6000   19.1369 H   0  0  0  0  0  0
  -30.3942  -11.4944   19.9405 H   0  0  0  0  0  0
  -29.7916  -11.7330   17.5080 H   0  0  0  0  0  0
  -29.6072  -13.4583   17.7071 H   0  0  0  0  0  0
  -27.9016  -11.2536   18.9120 H   0  0  0  0  0  0
  -27.3652  -12.4851   17.7991 H   0  0  0  0  0  0
  -27.6197  -14.2026   19.4276 H   0  0  0  0  0  0
  -28.7576  -12.1121   21.3560 H   0  0  0  0  0  0
  -28.4201  -13.7293   21.8356 H   0  0  0  0  0  0
  -25.2736   -9.5638   22.4789 H   0  0  0  0  0  0
  -23.9981   -7.4583   22.7472 H   0  0  0  0  0  0
  -21.0828   -8.8739   19.8954 H   0  0  0  0  0  0
  -22.3676  -10.9650   19.6186 H   0  0  0  0  0  0
  -21.1976   -7.6130   23.9703 H   0  0  0  0  0  0
  -21.1498   -6.0520   25.9080 H   0  0  0  0  0  0
  -22.0600   -2.7598   23.2857 H   0  0  0  0  0  0
  -22.4029  -11.9852   22.4831 H   0  0  0  0  0  0
  -21.1061  -13.1254   22.2645 H   0  0  0  0  0  0
  -24.6442  -15.8319   20.5222 H   0  0  0  0  0  0
  -26.2598  -15.6238   20.0772 H   0  0  0  0  0  0
  -26.7194  -32.5411   23.1073 H   0  0  0  0  0  0
  -25.0081  -33.9695   25.0412 H   0  0  0  0  0  0
  -22.7205  -31.3022   21.3982 H   0  0  0  0  0  0
  -23.3749  -35.9616   23.3309 H   0  0  0  0  0  0
  -24.3580  -36.8892   22.2053 H   0  0  0  0  0  0
  -23.7242  -37.6490   23.6653 H   0  0  0  0  0  0
  -26.1050  -31.5401   20.6060 H   0  0  0  0  0  0
  -26.8468  -30.8249   22.0053 H   0  0  0  0  0  0
  -28.1134  -28.9530   21.1914 H   0  0  0  0  0  0
  -25.9162  -25.8933   19.0522 H   0  0  0  0  0  0
  -23.9622  -27.2962   19.0305 H   0  0  0  0  0  0
  -23.7599  -30.5882   19.4007 H   0  0  0  0  0  0
  -22.7589  -29.2431   19.8569 H   0  0  0  0  0  0
  -25.1295  -36.1922   25.0823 H   0  0  0  0  0  0
  -20.9992  -28.3269   24.1392 H   0  0  0  0  0  0
  -20.5657  -26.2301   23.3610 H   0  0  0  0  0  0
  -21.6644  -26.7428   22.1214 H   0  0  0  0  0  0
  -19.6908  -25.6294   21.1241 H   0  0  0  0  0  0
  -19.6698  -27.3193   20.6728 H   0  0  0  0  0  0
  -17.4204  -26.6684   21.4016 H   0  0  0  0  0  0
  -18.0332  -26.0075   22.9015 H   0  0  0  0  0  0
  -19.7938  -30.7271   24.2270 H   0  0  0  0  0  0
  -17.5016  -31.6272   24.5160 H   0  0  0  0  0  0
  -15.5350  -30.2982   23.7661 H   0  0  0  0  0  0
  -15.8677  -28.0816   22.7077 H   0  0  0  0  0  0
  -24.5903  -30.7076   25.7780 H   0  0  0  0  0  0
  -24.8912  -32.2902   26.4852 H   0  0  0  0  0  0
  -25.8049  -30.8930   27.0231 H   0  0  0  0  0  0
  -26.2909  -29.6754   24.1213 H   0  0  0  0  0  0
  -27.4014  -29.7257   25.4708 H   0  0  0  0  0  0
  -27.8789  -30.4274   23.9428 H   0  0  0  0  0  0
  -27.2675  -33.3622   26.2054 H   0  0  0  0  0  0
  -28.3871  -32.6863   25.0315 H   0  0  0  0  0  0
  -28.0719  -31.8442   26.5412 H   0  0  0  0  0  0
  -28.2600  -38.0090   24.7507 H   0  0  0  0  0  0
  -28.1073  -36.2622   24.6294 H   0  0  0  0  0  0
  -27.2303  -37.1457   25.8869 H   0  0  0  0  0  0
  -20.9375  -29.8767   21.6873 H   0  0  0  0  0  0
  -26.0171  -38.2846   24.1403 H   0  0  0  0  0  0
  -28.7421  -18.0407   22.3165 H   0  0  0  0  0  0
  -27.5229  -18.2345   21.0683 H   0  0  0  0  0  0
  -27.9699  -16.0981   20.1729 H   0  0  0  0  0  0
  -28.2685  -15.7911   21.8943 H   0  0  0  0  0  0
  -31.3651  -17.4742   21.2121 H   0  0  0  0  0  0
  -31.2271  -17.3164   19.4732 H   0  0  0  0  0  0
  -29.1854  -18.5934   19.3696 H   0  0  0  0  0  0
  -31.9515  -21.9284   22.1088 H   0  0  0  0  0  0
  -30.6353  -21.3891   23.1612 H   0  0  0  0  0  0
  -31.0294  -23.1006   23.0546 H   0  0  0  0  0  0
  -27.7402  -25.1147   18.5970 H   0  0  0  0  0  0
  -29.3984  -25.3887   18.7913 H   0  0  0  0  0  0
  -30.7326  -19.8134   21.6014 H   0  0  0  0  0  0
  1 25  1  0  0  0
  1 30  2  0  0  0
  1 83  1  0  0  0
  2  3  1  0  0  0
  2 25  1  0  0  0
  2 85  1  0  0  0
  2 86  1  0  0  0
  3  4  1  0  0  0
  3 87  1  0  0  0
  3 88  1  0  0  0
  4  5  1  0  0  0
  4 89  1  0  0  0
  4 90  1  0  0  0
  5  6  1  0  0  0
  5 26  1  0  0  0
  5 91  1  0  0  0
  6 25  1  0  0  0
  6 92  1  0  0  0
  6 93  1  0  0  0
  7  8  2  0  0  0
  7 26  1  0  0  0
  7 29  1  0  0  0
  8  9  1  0  0  0
  8 22  1  0  0  0
  9 10  1  0  0  0
  9 27  2  0  0  0
 10 11  2  0  0  0
 10 15  1  0  0  0
 11 12  1  0  0  0
 11 94  1  0  0  0
 12 13  2  0  0  0
 12 95  1  0  0  0
 13 14  1  0  0  0
 13 31  1  0  0  0
 14 15  2  0  0  0
 14 96  1  0  0  0
 15 97  1  0  0  0
 16 17  2  0  0  0
 16 21  1  0  0  0
 16 31  1  0  0  0
 17 18  1  0  0  0
 17 98  1  0  0  0
 18 19  2  0  0  0
 18 99  1  0  0  0
 19 20  1  0  0  0
 19 24  1  0  0  0
 20 21  2  0  0  0
 20100  1  0  0  0
 21 23  1  0  0  0
 22 28  1  0  0  0
 22 32  2  0  0  0
 26 27  1  0  0  0
 28101  1  0  0  0
 28102  1  0  0  0
 29103  1  0  0  0
 29104  1  0  0  0
 33 34  1  0  0  0
 33 66  1  0  0  0
 33 70  2  0  0  0
 34 36  1  0  0  0
 34 59  1  0  0  0
 34105  1  0  0  0
 35 44  2  0  0  0
 35 45  1  0  0  0
 35 68  1  0  0  0
 36 56  1  0  0  0
 36106  1  0  0  0
 37 39  1  0  0  0
 37 47  1  0  0  0
 37 66  1  0  0  0
 37107  1  0  0  0
 38 43  2  0  0  0
 38 46  1  0  0  0
 38 47  1  0  0  0
 39 64  1  0  0  0
 39 67  2  0  0  0
 40 52  1  0  0  0
 40 53  2  0  0  0
 40 58  1  0  0  0
 41108  1  0  0  0
 41109  1  0  0  0
 41110  1  0  0  0
 41 48  1  0  0  0
 42 43  1  0  0  0
 42 66  1  0  0  0
 42111  1  0  0  0
 42112  1  0  0  0
 43 44  1  0  0  0
 44113  1  0  0  0
 45 46  2  0  0  0
 45114  1  0  0  0
 46115  1  0  0  0
 47116  1  0  0  0
 47117  1  0  0  0
 48 56  1  0  0  0
 48 65  1  0  0  0
 48118  1  0  0  0
 49 50  1  0  0  0
 49 53  1  0  0  0
 49 64  1  0  0  0
 49119  1  0  0  0
 50 51  1  0  0  0
 50120  1  0  0  0
 50121  1  0  0  0
 51 52  1  0  0  0
 51122  1  0  0  0
 51123  1  0  0  0
 52124  1  0  0  0
 52125  1  0  0  0
 53 54  1  0  0  0
 54 55  2  0  0  0
 54126  1  0  0  0
 55 57  1  0  0  0
 55127  1  0  0  0
 56 69  2  0  0  0
 57 58  2  0  0  0
 57128  1  0  0  0
 58129  1  0  0  0
 59 60  1  0  0  0
 59 61  1  0  0  0
 59 62  1  0  0  0
 60130  1  0  0  0
 60131  1  0  0  0
 60132  1  0  0  0
 61133  1  0  0  0
 61134  1  0  0  0
 61135  1  0  0  0
 62136  1  0  0  0
 62137  1  0  0  0
 62138  1  0  0  0
 63 65  1  0  0  0
 63139  1  0  0  0
 63140  1  0  0  0
 63141  1  0  0  0
 64142  1  0  0  0
 65143  1  0  0  0
 68 79  1  0  0  0
 71 72  2  0  0  0
 71 78  1  0  0  0
 71 80  1  0  0  0
 72 81  1  0  0  0
 72 84  1  0  0  0
 73 79  1  0  0  0
 73 80  2  0  0  0
 73 82  1  0  0  0
 74 75  1  0  0  0
 74 77  1  0  0  0
 74144  1  0  0  0
 74145  1  0  0  0
 75 83  1  0  0  0
 75146  1  0  0  0
 75147  1  0  0  0
 76 77  1  0  0  0
 76 83  1  0  0  0
 76148  1  0  0  0
 76149  1  0  0  0
 77 84  1  0  0  0
 77150  1  0  0  0
 78151  1  0  0  0
 78152  1  0  0  0
 78153  1  0  0  0
 79154  1  0  0  0
 79155  1  0  0  0
 81 82  2  0  0  0
 84156  1  0  0  0
M  ISO  4   1 100  68 101  79 101  83 100
M  END
> <chiral flag>
0

> <version>
0

> <s_m_source_file>
/data/baiqing/PycharmProjects/Reinvent-master-3.2/result/LINK_invent/BTK/process_docking_weight1_custom_sum_contain_oxygen_bond_distance_aromatic_linkinvent_7_9_3/rearranged_h_0186.sdf

> <i_m_source_file_index>
30

> <r_mmod_Potential_Energy-OPLS-2005>
298.191711425781

> <r_mmod_Stretch_Energy-OPLS-2005>
104.791046142578

> <r_mmod_Bend_Energy-OPLS-2005>
234.825958251953

> <r_mmod_Torsional_Energy-OPLS-2005>
293.071044921875

> <r_mmod_Improper_Torsional_Energy-OPLS-2005>
7.95852184295654

> <r_mmod_Van_der_Waal_Energy-OPLS-2005>
151.083679199219

> <r_mmod_Electrostatic_Energy-OPLS-2005>
-329.08642578125

> <r_mmod_Solvation_Energy-OPLS-2005>
-239.852584838867

> <b_mmod_Minimization_Converged-OPLS-2005>
0

> <r_mmod_RMS_Derivative-OPLS-2005>
0.860848784446716

$$$$
30
                    3D
 Structure written by MMmdl.
150158  0  0  1  0            999 V2000
  -30.2765  -15.7673   20.4399 C   0  0  0  0  0  0
  -30.4198  -13.1877   19.6096 C   0  0  0  0  0  0
  -29.5772  -12.7204   18.3859 C   0  0  0  0  0  0
  -28.1641  -12.3164   18.8187 C   0  0  0  0  0  0
  -27.6007  -13.3258   19.8430 C   0  0  2  0  0  0
  -28.5816  -13.7107   20.9785 C   0  0  0  0  0  0
  -25.2270  -13.8373   20.5845 C   0  0  0  0  0  0
  -24.1730  -13.0439   20.9349 C   0  0  0  0  0  0
  -24.6470  -11.6965   20.8746 C   0  0  0  0  0  0
  -23.9185  -10.4310   21.0377 C   0  0  0  0  0  0
  -24.3697   -9.4213   21.9187 C   0  0  0  0  0  0
  -23.6390   -8.2254   22.0778 C   0  0  0  0  0  0
  -22.4369   -8.0324   21.3570 C   0  0  0  0  0  0
  -21.9992   -9.0281   20.4655 C   0  0  0  0  0  0
  -22.7372  -10.2156   20.3045 C   0  0  0  0  0  0
  -21.6867   -6.0755   22.5300 C   0  0  0  0  0  0
  -21.3998   -6.5648   23.8223 C   0  0  0  0  0  0
  -21.3668   -5.6790   24.9172 C   0  0  0  0  0  0
  -21.6058   -4.3054   24.7222 C   0  0  0  0  0  0
  -21.8820   -3.8174   23.4345 C   0  0  0  0  0  0
  -21.9200   -4.6991   22.3403 C   0  0  0  0  0  0
  -22.7692  -13.5107   21.1942 C   0  0  0  0  0  0
  -22.1698   -4.2157   21.0983 F   0  0  0  0  0  0
  -21.5653   -3.4525   25.7737 F   0  0  0  0  0  0
  -29.7572  -14.3768   20.3560 N   0  0  0  0  0  0
  -26.2753  -12.9736   20.3278 N   0  0  0  0  0  0
  -25.9417  -11.6759   20.5645 N   0  0  0  0  0  0
  -22.0327  -12.8018   22.0442 N   0  0  0  0  0  0
  -25.3844  -15.2164   20.4292 N   0  0  0  0  0  0
  -31.4945  -15.6506   20.1592 O   0  0  0  0  0  0
  -21.6714   -6.8927   21.4281 O   0  0  0  0  0  0
  -22.3352  -14.5381   20.6760 O   0  0  0  0  0  0
  -24.6865  -31.7952   23.1520 C   0  0  0  0  0  0
  -25.9389  -32.4470   23.8099 C   0  0  1  0  0  0
  -27.2326  -26.6093   20.3012 C   0  0  0  0  0  0
  -25.5983  -33.8292   24.1978 N   0  0  0  0  0  0
  -23.5195  -30.3857   21.5030 C   0  0  2  0  0  0
  -24.9837  -28.7085   20.1348 C   0  0  0  0  0  0
  -22.7839  -29.4181   22.4699 C   0  0  0  0  0  0
  -18.0293  -28.1406   22.8435 C   0  0  0  0  0  0
  -24.1495  -36.7145   23.2645 C   0  0  0  0  0  0
  -26.1005  -30.5080   21.4197 C   0  0  0  0  0  0
  -26.1723  -29.0544   20.7911 C   0  0  0  0  0  0
  -27.2737  -28.0362   20.8361 C   0  0  0  0  0  0
  -26.0142  -26.4986   19.5717 C   0  0  0  0  0  0
  -24.9557  -27.4596   19.4947 C   0  0  0  0  0  0
  -23.7825  -29.6726   20.1449 C   0  0  0  0  0  0
  -25.4163  -36.2905   24.0281 C   0  0  1  0  0  0
  -20.5938  -28.3761   23.1180 C   0  0  2  0  0  0
  -20.6758  -26.9423   22.5449 C   0  0  0  0  0  0
  -19.5768  -26.6373   21.5232 C   0  0  0  0  0  0
  -18.1936  -26.7930   22.1610 C   0  0  0  0  0  0
  -19.1559  -28.8934   23.2749 C   0  0  0  0  0  0
  -18.9458  -30.1519   23.8832 C   0  0  0  0  0  0
  -17.6445  -30.6616   24.0557 C   0  0  0  0  0  0
  -25.9144  -34.9276   23.4987 C   0  0  0  0  0  0
  -16.5332  -29.9123   23.6321 C   0  0  0  0  0  0
  -16.7266  -28.6506   23.0374 C   0  0  0  0  0  0
  -26.4548  -31.6483   25.0721 C   0  0  0  0  0  0
  -25.3600  -31.3823   26.1363 C   0  0  0  0  0  0
  -27.0500  -30.2842   24.6576 C   0  0  0  0  0  0
  -27.6037  -32.4334   25.7511 C   0  0  0  0  0  0
  -27.5561  -37.1764   24.8484 C   0  0  0  0  0  0
  -21.4440  -29.3006   22.3504 N   0  0  0  0  0  0
  -26.4309  -37.3678   23.9371 N   0  0  0  0  0  0
  -24.7908  -30.9338   22.0774 N   0  0  0  0  0  0
  -23.4232  -28.7755   23.3029 O   0  0  0  0  0  0
  -28.1982  -25.3606   20.4003 O   0  0  0  0  0  0
  -26.5817  -34.8847   22.4620 O   0  0  0  0  0  0
  -23.5864  -32.0997   23.6452 O   0  0  0  0  0  0
  -29.7312  -18.7472   20.1135 C   0  0  0  0  0  0
  -28.7673  -17.6172   21.7712 C   0  0  0  0  0  0
  -28.5964  -19.2479   21.8857 C   0  0  2  0  0  0
  -27.2456  -19.6931   22.5155 C   0  0  0  0  0  0
  -29.1163  -21.8529   20.4706 C   0  0  0  0  0  0
  -28.0601  -23.5546   20.4900 C   0  0  0  0  0  0
  -29.5783  -17.1986   20.5943 N   0  0  0  0  0  0
  -29.0361  -20.0112   20.6414 N   0  0  0  0  0  0
  -30.6095  -19.0087   19.1255 N   0  3  0  0  0  0
  -31.4124  -13.4504   19.2359 H   0  0  0  0  0  0
  -30.6067  -12.3599   20.2926 H   0  0  0  0  0  0
  -30.0740  -11.8986   17.8720 H   0  0  0  0  0  0
  -29.5111  -13.5477   17.6786 H   0  0  0  0  0  0
  -28.2232  -11.3327   19.2844 H   0  0  0  0  0  0
  -27.5027  -12.2084   17.9594 H   0  0  0  0  0  0
  -27.4678  -14.2343   19.2530 H   0  0  0  0  0  0
  -28.8605  -12.8523   21.5875 H   0  0  0  0  0  0
  -28.0792  -14.4148   21.6480 H   0  0  0  0  0  0
  -25.2852   -9.5656   22.4704 H   0  0  0  0  0  0
  -24.0109   -7.4626   22.7507 H   0  0  0  0  0  0
  -21.0925   -8.8820   19.8933 H   0  0  0  0  0  0
  -22.3879  -10.9684   19.6121 H   0  0  0  0  0  0
  -21.1946   -7.6124   23.9719 H   0  0  0  0  0  0
  -21.1522   -6.0507   25.9045 H   0  0  0  0  0  0
  -22.0574   -2.7653   23.2851 H   0  0  0  0  0  0
  -22.4078  -11.9845   22.5040 H   0  0  0  0  0  0
  -21.0865  -13.0873   22.2620 H   0  0  0  0  0  0
  -24.6041  -15.8604   20.4910 H   0  0  0  0  0  0
  -26.2214  -15.6520   20.0651 H   0  0  0  0  0  0
  -26.7475  -32.4933   23.0794 H   0  0  0  0  0  0
  -24.9964  -33.9334   25.0026 H   0  0  0  0  0  0
  -22.8367  -31.2172   21.3138 H   0  0  0  0  0  0
  -23.3772  -35.9459   23.3320 H   0  0  0  0  0  0
  -24.3513  -36.8805   22.2052 H   0  0  0  0  0  0
  -23.7230  -37.6320   23.6723 H   0  0  0  0  0  0
  -26.2930  -31.2107   20.6080 H   0  0  0  0  0  0
  -26.9559  -30.6149   22.0738 H   0  0  0  0  0  0
  -28.1580  -28.3169   21.3870 H   0  0  0  0  0  0
  -25.8276  -25.5556   19.0800 H   0  0  0  0  0  0
  -24.0585  -27.1921   18.9505 H   0  0  0  0  0  0
  -23.9559  -30.4279   19.3821 H   0  0  0  0  0  0
  -22.8906  -29.1388   19.8189 H   0  0  0  0  0  0
  -25.1354  -36.1693   25.0786 H   0  0  0  0  0  0
  -20.9981  -28.3364   24.1322 H   0  0  0  0  0  0
  -20.5640  -26.2385   23.3685 H   0  0  0  0  0  0
  -21.6610  -26.7390   22.1269 H   0  0  0  0  0  0
  -19.6974  -25.6282   21.1301 H   0  0  0  0  0  0
  -19.6729  -27.3156   20.6723 H   0  0  0  0  0  0
  -17.4213  -26.6614   21.4021 H   0  0  0  0  0  0
  -18.0338  -26.0111   22.9029 H   0  0  0  0  0  0
  -19.7932  -30.7321   24.2224 H   0  0  0  0  0  0
  -17.5001  -31.6297   24.5159 H   0  0  0  0  0  0
  -15.5351  -30.3031   23.7731 H   0  0  0  0  0  0
  -15.8592  -28.0845   22.7204 H   0  0  0  0  0  0
  -24.5808  -30.7153   25.7659 H   0  0  0  0  0  0
  -24.8776  -32.3076   26.4564 H   0  0  0  0  0  0
  -25.7777  -30.9148   27.0297 H   0  0  0  0  0  0
  -26.3257  -29.6487   24.1519 H   0  0  0  0  0  0
  -27.3904  -29.7236   25.5272 H   0  0  0  0  0  0
  -27.9195  -30.3992   24.0116 H   0  0  0  0  0  0
  -27.2616  -33.3708   26.1888 H   0  0  0  0  0  0
  -28.3932  -32.6779   25.0395 H   0  0  0  0  0  0
  -28.0596  -31.8609   26.5587 H   0  0  0  0  0  0
  -28.2630  -38.0008   24.7454 H   0  0  0  0  0  0
  -28.1027  -36.2546   24.6445 H   0  0  0  0  0  0
  -27.2273  -37.1532   25.8893 H   0  0  0  0  0  0
  -20.9798  -29.8618   21.6495 H   0  0  0  0  0  0
  -26.0132  -38.2746   24.1353 H   0  0  0  0  0  0
  -29.2687  -17.2664   22.6747 H   0  0  0  0  0  0
  -27.8017  -17.1134   21.7660 H   0  0  0  0  0  0
  -29.3582  -19.5236   22.6157 H   0  0  0  0  0  0
  -26.5291  -18.8761   22.5955 H   0  0  0  0  0  0
  -26.7664  -20.5023   21.9642 H   0  0  0  0  0  0
  -27.3944  -20.0624   23.5346 H   0  0  0  0  0  0
  -29.8651  -22.0530   21.2435 H   0  0  0  0  0  0
  -29.6791  -21.9516   19.5448 H   0  0  0  0  0  0
  -27.5590  -23.4666   21.4570 H   0  0  0  0  0  0
  -27.2646  -23.3634   19.7752 H   0  0  0  0  0  0
  -31.1696  -18.2972   18.6818 H   0  0  0  0  0  0
  -30.7674  -19.9685   18.8433 H   0  0  0  0  0  0
  1 25  1  0  0  0
  1 30  2  0  0  0
  1 77  1  0  0  0
  2  3  1  0  0  0
  2 25  1  0  0  0
  2 80  1  0  0  0
  2 81  1  0  0  0
  3  4  1  0  0  0
  3 82  1  0  0  0
  3 83  1  0  0  0
  4  5  1  0  0  0
  4 84  1  0  0  0
  4 85  1  0  0  0
  5  6  1  0  0  0
  5 26  1  0  0  0
  5 86  1  0  0  0
  6 25  1  0  0  0
  6 87  1  0  0  0
  6 88  1  0  0  0
  7  8  2  0  0  0
  7 26  1  0  0  0
  7 29  1  0  0  0
  8  9  1  0  0  0
  8 22  1  0  0  0
  9 10  1  0  0  0
  9 27  2  0  0  0
 10 11  2  0  0  0
 10 15  1  0  0  0
 11 12  1  0  0  0
 11 89  1  0  0  0
 12 13  2  0  0  0
 12 90  1  0  0  0
 13 14  1  0  0  0
 13 31  1  0  0  0
 14 15  2  0  0  0
 14 91  1  0  0  0
 15 92  1  0  0  0
 16 17  2  0  0  0
 16 21  1  0  0  0
 16 31  1  0  0  0
 17 18  1  0  0  0
 17 93  1  0  0  0
 18 19  2  0  0  0
 18 94  1  0  0  0
 19 20  1  0  0  0
 19 24  1  0  0  0
 20 21  2  0  0  0
 20 95  1  0  0  0
 21 23  1  0  0  0
 22 28  1  0  0  0
 22 32  2  0  0  0
 26 27  1  0  0  0
 28 96  1  0  0  0
 28 97  1  0  0  0
 29 98  1  0  0  0
 29 99  1  0  0  0
 33 34  1  0  0  0
 33 66  1  0  0  0
 33 70  2  0  0  0
 34 36  1  0  0  0
 34 59  1  0  0  0
 34100  1  0  0  0
 35 44  2  0  0  0
 35 45  1  0  0  0
 35 68  1  0  0  0
 36 56  1  0  0  0
 36101  1  0  0  0
 37 39  1  0  0  0
 37 47  1  0  0  0
 37 66  1  0  0  0
 37102  1  0  0  0
 38 43  2  0  0  0
 38 46  1  0  0  0
 38 47  1  0  0  0
 39 64  1  0  0  0
 39 67  2  0  0  0
 40 52  1  0  0  0
 40 53  2  0  0  0
 40 58  1  0  0  0
 41103  1  0  0  0
 41104  1  0  0  0
 41105  1  0  0  0
 41 48  1  0  0  0
 42 43  1  0  0  0
 42 66  1  0  0  0
 42106  1  0  0  0
 42107  1  0  0  0
 43 44  1  0  0  0
 44108  1  0  0  0
 45 46  2  0  0  0
 45109  1  0  0  0
 46110  1  0  0  0
 47111  1  0  0  0
 47112  1  0  0  0
 48 56  1  0  0  0
 48 65  1  0  0  0
 48113  1  0  0  0
 49 50  1  0  0  0
 49 53  1  0  0  0
 49 64  1  0  0  0
 49114  1  0  0  0
 50 51  1  0  0  0
 50115  1  0  0  0
 50116  1  0  0  0
 51 52  1  0  0  0
 51117  1  0  0  0
 51118  1  0  0  0
 52119  1  0  0  0
 52120  1  0  0  0
 53 54  1  0  0  0
 54 55  2  0  0  0
 54121  1  0  0  0
 55 57  1  0  0  0
 55122  1  0  0  0
 56 69  2  0  0  0
 57 58  2  0  0  0
 57123  1  0  0  0
 58124  1  0  0  0
 59 60  1  0  0  0
 59 61  1  0  0  0
 59 62  1  0  0  0
 60125  1  0  0  0
 60126  1  0  0  0
 60127  1  0  0  0
 61128  1  0  0  0
 61129  1  0  0  0
 61130  1  0  0  0
 62131  1  0  0  0
 62132  1  0  0  0
 62133  1  0  0  0
 63 65  1  0  0  0
 63134  1  0  0  0
 63135  1  0  0  0
 63136  1  0  0  0
 64137  1  0  0  0
 65138  1  0  0  0
 68 76  1  0  0  0
 71 77  1  0  0  0
 71 78  1  0  0  0
 71 79  2  0  0  0
 72 73  1  0  0  0
 72 77  1  0  0  0
 72139  1  0  0  0
 72140  1  0  0  0
 73 74  1  0  0  0
 73 78  1  0  0  0
 73141  1  0  0  0
 74142  1  0  0  0
 74143  1  0  0  0
 74144  1  0  0  0
 75 76  1  0  0  0
 75 78  1  0  0  0
 75145  1  0  0  0
 75146  1  0  0  0
 76147  1  0  0  0
 76148  1  0  0  0
 79149  1  0  0  0
 79150  1  0  0  0
M  CHG  1  79   1
M  ISO  4   1 100  68 101  76 101  77 100
M  END
> <chiral flag>
0

> <version>
0

> <s_m_source_file>
/data/baiqing/PycharmProjects/Reinvent-master-3.2/result/LINK_invent/BTK/process_docking_weight1_custom_sum_contain_oxygen_bond_distance_aromatic_linkinvent_7_9_3/rearranged_h_0186.sdf

> <i_m_source_file_index>
31

> <r_mmod_Potential_Energy-OPLS-2005>
2993.42163085938

> <r_mmod_Stretch_Energy-OPLS-2005>
1283.15148925781

> <r_mmod_Bend_Energy-OPLS-2005>
783.823791503906

> <r_mmod_Torsional_Energy-OPLS-2005>
289.410278320312

> <r_mmod_Improper_Torsional_Energy-OPLS-2005>
8.22536659240723

> <r_mmod_Van_der_Waal_Energy-OPLS-2005>
103.353065490723

> <r_mmod_Electrostatic_Energy-OPLS-2005>
-130.303466796875

> <r_mmod_Solvation_Energy-OPLS-2005>
-443.58837890625

> <b_mmod_Minimization_Converged-OPLS-2005>
0

> <r_mmod_RMS_Derivative-OPLS-2005>
11.4449462890625

$$$$
31
                    3D
 Structure written by MMmdl.
154163  0  0  1  0            999 V2000
  -30.5423  -15.0401   20.2674 C   0  0  0  0  0  0
  -30.4306  -12.6313   19.4859 C   0  0  0  0  0  0
  -29.5170  -12.5153   18.2487 C   0  0  0  0  0  0
  -28.0531  -12.3063   18.6762 C   0  0  0  0  0  0
  -27.6187  -13.2707   19.8110 C   0  0  2  0  0  0
  -28.6732  -13.3856   20.9330 C   0  0  0  0  0  0
  -25.2400  -13.8256   20.5776 C   0  0  0  0  0  0
  -24.1758  -13.0460   20.9276 C   0  0  0  0  0  0
  -24.6406  -11.6937   20.8780 C   0  0  0  0  0  0
  -23.9108  -10.4301   21.0393 C   0  0  0  0  0  0
  -24.3653   -9.4210   21.9159 C   0  0  0  0  0  0
  -23.6326   -8.2255   22.0738 C   0  0  0  0  0  0
  -22.4308   -8.0278   21.3532 C   0  0  0  0  0  0
  -21.9953   -9.0270   20.4644 C   0  0  0  0  0  0
  -22.7286  -10.2145   20.3040 C   0  0  0  0  0  0
  -21.6876   -6.0753   22.5268 C   0  0  0  0  0  0
  -21.4048   -6.5648   23.8199 C   0  0  0  0  0  0
  -21.3682   -5.6786   24.9159 C   0  0  0  0  0  0
  -21.6050   -4.3050   24.7196 C   0  0  0  0  0  0
  -21.8805   -3.8150   23.4312 C   0  0  0  0  0  0
  -21.9174   -4.6980   22.3381 C   0  0  0  0  0  0
  -22.7742  -13.5176   21.1906 C   0  0  0  0  0  0
  -22.1633   -4.2170   21.0955 F   0  0  0  0  0  0
  -21.5625   -3.4521   25.7712 F   0  0  0  0  0  0
  -29.9352  -13.7803   20.2947 N   0  0  0  0  0  0
  -26.2862  -12.9567   20.3224 N   0  0  0  0  0  0
  -25.9350  -11.6674   20.5749 N   0  0  0  0  0  0
  -22.0404  -12.8204   22.0485 N   0  0  0  0  0  0
  -25.3953  -15.2006   20.4238 N   0  0  0  0  0  0
  -31.7637  -15.0519   20.0990 O   0  0  0  0  0  0
  -21.6640   -6.8909   21.4233 O   0  0  0  0  0  0
  -22.3422  -14.5476   20.6692 O   0  0  0  0  0  0
  -24.6514  -31.8355   23.1826 C   0  0  0  0  0  0
  -25.9261  -32.4650   23.8190 C   0  0  1  0  0  0
  -27.1926  -27.0426   20.1413 C   0  0  0  0  0  0
  -25.5956  -33.8454   24.2055 N   0  0  0  0  0  0
  -23.4552  -30.4551   21.5349 C   0  0  2  0  0  0
  -24.9040  -28.8735   20.1061 C   0  0  0  0  0  0
  -22.7602  -29.4494   22.4846 C   0  0  0  0  0  0
  -18.0316  -28.1395   22.8459 C   0  0  0  0  0  0
  -24.1539  -36.7253   23.2640 C   0  0  0  0  0  0
  -26.0225  -30.6688   21.4100 C   0  0  0  0  0  0
  -26.0848  -29.2777   20.7435 C   0  0  0  0  0  0
  -27.2271  -28.3734   20.7524 C   0  0  0  0  0  0
  -26.0088  -26.7951   19.4158 C   0  0  0  0  0  0
  -24.8830  -27.6465   19.4287 C   0  0  0  0  0  0
  -23.6851  -29.7880   20.1536 C   0  0  0  0  0  0
  -25.4176  -36.2988   24.0265 C   0  0  1  0  0  0
  -20.5925  -28.3719   23.1261 C   0  0  2  0  0  0
  -20.6816  -26.9422   22.5434 C   0  0  0  0  0  0
  -19.5781  -26.6362   21.5243 C   0  0  0  0  0  0
  -18.1964  -26.7922   22.1633 C   0  0  0  0  0  0
  -19.1560  -28.8863   23.2861 C   0  0  0  0  0  0
  -18.9476  -30.1438   23.8914 C   0  0  0  0  0  0
  -17.6471  -30.6602   24.0544 C   0  0  0  0  0  0
  -25.9118  -34.9377   23.4994 C   0  0  0  0  0  0
  -16.5354  -29.9099   23.6302 C   0  0  0  0  0  0
  -16.7289  -28.6511   23.0330 C   0  0  0  0  0  0
  -26.4547  -31.6561   25.0683 C   0  0  0  0  0  0
  -25.3677  -31.3830   26.1332 C   0  0  0  0  0  0
  -27.0392  -30.2887   24.6409 C   0  0  0  0  0  0
  -27.6070  -32.4368   25.7474 C   0  0  0  0  0  0
  -27.5576  -37.1816   24.8465 C   0  0  0  0  0  0
  -21.4273  -29.3049   22.3643 N   0  0  0  0  0  0
  -26.4321  -37.3705   23.9357 N   0  0  0  0  0  0
  -24.7301  -31.0083   22.0944 N   0  0  0  0  0  0
  -23.4239  -28.8028   23.2997 O   0  0  0  0  0  0
  -28.1982  -25.9759   20.1980 O   0  0  0  0  0  0
  -26.5754  -34.8899   22.4601 O   0  0  0  0  0  0
  -23.5629  -32.1277   23.7001 O   0  0  0  0  0  0
  -28.9822  -23.3684   19.9953 C   0  0  0  0  0  0
  -27.9937  -24.4811   20.2434 C   0  0  0  0  0  0
  -26.7728  -23.8621   20.6750 C   0  0  0  0  0  0
  -28.6767  -21.8936   20.0445 C   0  0  0  0  0  0
  -28.9202  -18.7921   18.2953 C   0  0  0  0  0  0
  -30.1838  -17.9076   18.2622 C   0  0  0  0  0  0
  -29.1445  -19.1364   19.7843 C   0  0  1  0  0  0
  -30.1817  -17.7756   19.8017 C   0  0  1  0  0  0
  -25.6597  -24.5910   21.4077 C   0  0  0  0  0  0
  -26.4979  -22.5256   20.6051 N   0  0  0  0  0  0
  -27.3880  -21.5864   20.2739 N   0  0  0  0  0  0
  -29.5393  -20.6691   19.9244 N   0  0  0  0  0  0
  -29.7917  -16.2661   20.1824 N   0  0  0  0  0  0
  -31.4639  -12.7637   19.1662 H   0  0  0  0  0  0
  -30.4253  -11.7129   20.0753 H   0  0  0  0  0  0
  -29.8482  -11.6930   17.6150 H   0  0  0  0  0  0
  -29.5975  -13.4191   17.6434 H   0  0  0  0  0  0
  -27.9580  -11.2776   19.0231 H   0  0  0  0  0  0
  -27.3871  -12.3998   17.8172 H   0  0  0  0  0  0
  -27.5535  -14.2514   19.3361 H   0  0  0  0  0  0
  -28.7786  -12.4573   21.4973 H   0  0  0  0  0  0
  -28.3752  -14.1558   21.6442 H   0  0  0  0  0  0
  -25.2784   -9.5689   22.4739 H   0  0  0  0  0  0
  -24.0021   -7.4660   22.7464 H   0  0  0  0  0  0
  -21.0874   -8.8802   19.8974 H   0  0  0  0  0  0
  -22.3721  -10.9687   19.6152 H   0  0  0  0  0  0
  -21.2068   -7.6153   23.9735 H   0  0  0  0  0  0
  -21.1534   -6.0499   25.9078 H   0  0  0  0  0  0
  -22.0564   -2.7612   23.2773 H   0  0  0  0  0  0
  -22.4051  -11.9913   22.4954 H   0  0  0  0  0  0
  -21.0990  -13.1199   22.2653 H   0  0  0  0  0  0
  -24.6178  -15.8390   20.5586 H   0  0  0  0  0  0
  -26.2203  -15.6588   20.0573 H   0  0  0  0  0  0
  -26.7279  -32.5199   23.0847 H   0  0  0  0  0  0
  -24.9856  -33.9515   25.0018 H   0  0  0  0  0  0
  -22.7614  -31.2839   21.3819 H   0  0  0  0  0  0
  -23.3739  -35.9660   23.3371 H   0  0  0  0  0  0
  -24.3592  -36.8827   22.2042 H   0  0  0  0  0  0
  -23.7399  -37.6497   23.6670 H   0  0  0  0  0  0
  -26.1987  -31.4137   20.6357 H   0  0  0  0  0  0
  -26.8910  -30.7134   22.0591 H   0  0  0  0  0  0
  -28.1178  -28.6728   21.2827 H   0  0  0  0  0  0
  -25.9094  -25.8554   18.8925 H   0  0  0  0  0  0
  -23.9821  -27.3361   18.9136 H   0  0  0  0  0  0
  -23.8346  -30.5704   19.4075 H   0  0  0  0  0  0
  -22.7963  -29.2400   19.8352 H   0  0  0  0  0  0
  -25.1406  -36.1784   25.0755 H   0  0  0  0  0  0
  -20.9979  -28.3329   24.1386 H   0  0  0  0  0  0
  -20.5726  -26.2328   23.3659 H   0  0  0  0  0  0
  -21.6690  -26.7463   22.1218 H   0  0  0  0  0  0
  -19.6952  -25.6271   21.1290 H   0  0  0  0  0  0
  -19.6723  -27.3166   20.6778 H   0  0  0  0  0  0
  -17.4226  -26.6616   21.4040 H   0  0  0  0  0  0
  -18.0375  -26.0097   22.9067 H   0  0  0  0  0  0
  -19.7941  -30.7236   24.2330 H   0  0  0  0  0  0
  -17.5025  -31.6274   24.5170 H   0  0  0  0  0  0
  -15.5360  -30.3024   23.7591 H   0  0  0  0  0  0
  -15.8685  -28.0844   22.7039 H   0  0  0  0  0  0
  -24.5966  -30.7045   25.7675 H   0  0  0  0  0  0
  -24.8727  -32.3010   26.4470 H   0  0  0  0  0  0
  -25.7949  -30.9238   27.0233 H   0  0  0  0  0  0
  -26.3018  -29.6591   24.1377 H   0  0  0  0  0  0
  -27.3787  -29.7261   25.5124 H   0  0  0  0  0  0
  -27.9050  -30.3976   23.9861 H   0  0  0  0  0  0
  -27.2627  -33.3746   26.1854 H   0  0  0  0  0  0
  -28.4022  -32.6780   25.0388 H   0  0  0  0  0  0
  -28.0585  -31.8563   26.5529 H   0  0  0  0  0  0
  -28.2657  -38.0056   24.7431 H   0  0  0  0  0  0
  -28.1024  -36.2578   24.6449 H   0  0  0  0  0  0
  -27.2246  -37.1649   25.8855 H   0  0  0  0  0  0
  -20.9461  -29.8753   21.6835 H   0  0  0  0  0  0
  -26.0183  -38.2778   24.1273 H   0  0  0  0  0  0
  -30.0001  -23.6506   19.7892 H   0  0  0  0  0  0
  -28.0084  -18.2167   18.1171 H   0  0  0  0  0  0
  -28.9715  -19.6435   17.6098 H   0  0  0  0  0  0
  -31.0603  -18.4354   17.8831 H   0  0  0  0  0  0
  -30.0582  -16.9811   17.6956 H   0  0  0  0  0  0
  -28.2351  -18.9318   20.3524 H   0  0  0  0  0  0
  -31.1654  -18.0506   20.1845 H   0  0  0  0  0  0
  -25.2050  -23.9388   22.1549 H   0  0  0  0  0  0
  -24.8581  -24.8858   20.7297 H   0  0  0  0  0  0
  -26.0309  -25.4575   21.9554 H   0  0  0  0  0  0
  -30.5354  -20.8717   19.8712 H   0  0  0  0  0  0
  -28.7998  -16.1232   20.3009 H   0  0  0  0  0  0
  1 25  1  0  0  0
  1 30  2  0  0  0
  1 83  1  0  0  0
  2  3  1  0  0  0
  2 25  1  0  0  0
  2 84  1  0  0  0
  2 85  1  0  0  0
  3  4  1  0  0  0
  3 86  1  0  0  0
  3 87  1  0  0  0
  4  5  1  0  0  0
  4 88  1  0  0  0
  4 89  1  0  0  0
  5  6  1  0  0  0
  5 26  1  0  0  0
  5 90  1  0  0  0
  6 25  1  0  0  0
  6 91  1  0  0  0
  6 92  1  0  0  0
  7  8  2  0  0  0
  7 26  1  0  0  0
  7 29  1  0  0  0
  8  9  1  0  0  0
  8 22  1  0  0  0
  9 10  1  0  0  0
  9 27  2  0  0  0
 10 11  2  0  0  0
 10 15  1  0  0  0
 11 12  1  0  0  0
 11 93  1  0  0  0
 12 13  2  0  0  0
 12 94  1  0  0  0
 13 14  1  0  0  0
 13 31  1  0  0  0
 14 15  2  0  0  0
 14 95  1  0  0  0
 15 96  1  0  0  0
 16 17  2  0  0  0
 16 21  1  0  0  0
 16 31  1  0  0  0
 17 18  1  0  0  0
 17 97  1  0  0  0
 18 19  2  0  0  0
 18 98  1  0  0  0
 19 20  1  0  0  0
 19 24  1  0  0  0
 20 21  2  0  0  0
 20 99  1  0  0  0
 21 23  1  0  0  0
 22 28  1  0  0  0
 22 32  2  0  0  0
 26 27  1  0  0  0
 28100  1  0  0  0
 28101  1  0  0  0
 29102  1  0  0  0
 29103  1  0  0  0
 33 34  1  0  0  0
 33 66  1  0  0  0
 33 70  2  0  0  0
 34 36  1  0  0  0
 34 59  1  0  0  0
 34104  1  0  0  0
 35 44  2  0  0  0
 35 45  1  0  0  0
 35 68  1  0  0  0
 36 56  1  0  0  0
 36105  1  0  0  0
 37 39  1  0  0  0
 37 47  1  0  0  0
 37 66  1  0  0  0
 37106  1  0  0  0
 38 43  2  0  0  0
 38 46  1  0  0  0
 38 47  1  0  0  0
 39 64  1  0  0  0
 39 67  2  0  0  0
 40 52  1  0  0  0
 40 53  2  0  0  0
 40 58  1  0  0  0
 41107  1  0  0  0
 41108  1  0  0  0
 41109  1  0  0  0
 41 48  1  0  0  0
 42 43  1  0  0  0
 42 66  1  0  0  0
 42110  1  0  0  0
 42111  1  0  0  0
 43 44  1  0  0  0
 44112  1  0  0  0
 45 46  2  0  0  0
 45113  1  0  0  0
 46114  1  0  0  0
 47115  1  0  0  0
 47116  1  0  0  0
 48 56  1  0  0  0
 48 65  1  0  0  0
 48117  1  0  0  0
 49 50  1  0  0  0
 49 53  1  0  0  0
 49 64  1  0  0  0
 49118  1  0  0  0
 50 51  1  0  0  0
 50119  1  0  0  0
 50120  1  0  0  0
 51 52  1  0  0  0
 51121  1  0  0  0
 51122  1  0  0  0
 52123  1  0  0  0
 52124  1  0  0  0
 53 54  1  0  0  0
 54 55  2  0  0  0
 54125  1  0  0  0
 55 57  1  0  0  0
 55126  1  0  0  0
 56 69  2  0  0  0
 57 58  2  0  0  0
 57127  1  0  0  0
 58128  1  0  0  0
 59 60  1  0  0  0
 59 61  1  0  0  0
 59 62  1  0  0  0
 60129  1  0  0  0
 60130  1  0  0  0
 60131  1  0  0  0
 61132  1  0  0  0
 61133  1  0  0  0
 61134  1  0  0  0
 62135  1  0  0  0
 62136  1  0  0  0
 62137  1  0  0  0
 63 65  1  0  0  0
 63138  1  0  0  0
 63139  1  0  0  0
 63140  1  0  0  0
 64141  1  0  0  0
 65142  1  0  0  0
 68 72  1  0  0  0
 71 72  2  0  0  0
 71 74  1  0  0  0
 71143  1  0  0  0
 72 73  1  0  0  0
 73 79  1  0  0  0
 73 80  2  0  0  0
 74 81  2  0  0  0
 74 82  1  0  0  0
 75 76  1  0  0  0
 75 77  1  0  0  0
 75144  1  0  0  0
 75145  1  0  0  0
 76 78  1  0  0  0
 76146  1  0  0  0
 76147  1  0  0  0
 77 78  1  0  0  0
 77 82  1  0  0  0
 77148  1  0  0  0
 78 83  1  0  0  0
 78149  1  0  0  0
 79150  1  0  0  0
 79151  1  0  0  0
 79152  1  0  0  0
 80 81  1  0  0  0
 82153  1  0  0  0
 83154  1  0  0  0
M  ISO  4   1 100  68 101  72 101  83 100
M  END
> <chiral flag>
0

> <version>
0

> <s_m_source_file>
/data/baiqing/PycharmProjects/Reinvent-master-3.2/result/LINK_invent/BTK/process_docking_weight1_custom_sum_contain_oxygen_bond_distance_aromatic_linkinvent_7_9_3/rearranged_h_0186.sdf

> <i_m_source_file_index>
32

> <r_mmod_Potential_Energy-OPLS-2005>
624.371398925781

> <r_mmod_Stretch_Energy-OPLS-2005>
317.611389160156

> <r_mmod_Bend_Energy-OPLS-2005>
311.007843017578

> <r_mmod_Torsional_Energy-OPLS-2005>
262.115447998047

> <r_mmod_Improper_Torsional_Energy-OPLS-2005>
6.27744913101196

> <r_mmod_Van_der_Waal_Energy-OPLS-2005>
136.326736450195

> <r_mmod_Electrostatic_Energy-OPLS-2005>
-456.1865234375

> <r_mmod_Solvation_Energy-OPLS-2005>
-241.331192016602

> <b_mmod_Minimization_Converged-OPLS-2005>
0

> <r_mmod_RMS_Derivative-OPLS-2005>
7.20085763931274

$$$$
32
                    3D
 Structure written by MMmdl.
151159  0  0  1  0            999 V2000
  -30.4178  -15.3331   20.3446 C   0  0  0  0  0  0
  -30.4372  -12.8548   19.5328 C   0  0  0  0  0  0
  -29.5454  -12.6145   18.2903 C   0  0  0  0  0  0
  -28.0964  -12.3161   18.7148 C   0  0  0  0  0  0
  -27.6117  -13.2874   19.8225 C   0  0  2  0  0  0
  -28.6441  -13.4796   20.9563 C   0  0  0  0  0  0
  -25.2385  -13.8261   20.5704 C   0  0  0  0  0  0
  -24.1746  -13.0439   20.9247 C   0  0  0  0  0  0
  -24.6411  -11.6939   20.8756 C   0  0  0  0  0  0
  -23.9117  -10.4290   21.0379 C   0  0  0  0  0  0
  -24.3659   -9.4222   21.9162 C   0  0  0  0  0  0
  -23.6320   -8.2249   22.0740 C   0  0  0  0  0  0
  -22.4292   -8.0290   21.3538 C   0  0  0  0  0  0
  -21.9941   -9.0257   20.4633 C   0  0  0  0  0  0
  -22.7277  -10.2134   20.3042 C   0  0  0  0  0  0
  -21.6874   -6.0727   22.5275 C   0  0  0  0  0  0
  -21.4015   -6.5630   23.8208 C   0  0  0  0  0  0
  -21.3672   -5.6784   24.9166 C   0  0  0  0  0  0
  -21.6047   -4.3044   24.7222 C   0  0  0  0  0  0
  -21.8818   -3.8127   23.4350 C   0  0  0  0  0  0
  -21.9189   -4.6949   22.3395 C   0  0  0  0  0  0
  -22.7756  -13.5184   21.1879 C   0  0  0  0  0  0
  -22.1647   -4.2123   21.0971 F   0  0  0  0  0  0
  -21.5649   -3.4535   25.7740 F   0  0  0  0  0  0
  -29.8682  -14.0105   20.3312 N   0  0  0  0  0  0
  -26.2820  -12.9555   20.3198 N   0  0  0  0  0  0
  -25.9354  -11.6644   20.5701 N   0  0  0  0  0  0
  -22.0375  -12.8240   22.0445 N   0  0  0  0  0  0
  -25.4028  -15.1996   20.4082 N   0  0  0  0  0  0
  -31.6333  -15.3187   20.0990 O   0  0  0  0  0  0
  -21.6657   -6.8877   21.4248 O   0  0  0  0  0  0
  -22.3436  -14.5481   20.6708 O   0  0  0  0  0  0
  -24.6704  -31.8180   23.1656 C   0  0  0  0  0  0
  -25.9345  -32.4569   23.8158 C   0  0  1  0  0  0
  -27.2193  -26.8638   20.1870 C   0  0  0  0  0  0
  -25.5976  -33.8399   24.2054 N   0  0  0  0  0  0
  -23.4887  -30.4260   21.5157 C   0  0  2  0  0  0
  -24.9458  -28.8040   20.1082 C   0  0  0  0  0  0
  -22.7705  -29.4414   22.4775 C   0  0  0  0  0  0
  -18.0319  -28.1430   22.8468 C   0  0  0  0  0  0
  -24.1493  -36.7187   23.2647 C   0  0  0  0  0  0
  -26.0613  -30.5976   21.4105 C   0  0  0  0  0  0
  -26.1278  -29.1842   20.7524 C   0  0  0  0  0  0
  -27.2543  -28.2345   20.7718 C   0  0  0  0  0  0
  -26.0146  -26.6591   19.4730 C   0  0  0  0  0  0
  -24.9203  -27.5665   19.4453 C   0  0  0  0  0  0
  -23.7332  -29.7376   20.1436 C   0  0  0  0  0  0
  -25.4141  -36.2964   24.0290 C   0  0  1  0  0  0
  -20.5951  -28.3778   23.1179 C   0  0  2  0  0  0
  -20.6802  -26.9448   22.5417 C   0  0  0  0  0  0
  -19.5776  -26.6382   21.5235 C   0  0  0  0  0  0
  -18.1949  -26.7959   22.1628 C   0  0  0  0  0  0
  -19.1587  -28.8927   23.2809 C   0  0  0  0  0  0
  -18.9494  -30.1508   23.8848 C   0  0  0  0  0  0
  -17.6485  -30.6618   24.0557 C   0  0  0  0  0  0
  -25.9104  -34.9343   23.4985 C   0  0  0  0  0  0
  -16.5372  -29.9093   23.6360 C   0  0  0  0  0  0
  -16.7296  -28.6521   23.0369 C   0  0  0  0  0  0
  -26.4549  -31.6546   25.0726 C   0  0  0  0  0  0
  -25.3635  -31.3837   26.1355 C   0  0  0  0  0  0
  -27.0448  -30.2897   24.6541 C   0  0  0  0  0  0
  -27.6045  -32.4355   25.7525 C   0  0  0  0  0  0
  -27.5570  -37.1758   24.8455 C   0  0  0  0  0  0
  -21.4363  -29.3051   22.3513 N   0  0  0  0  0  0
  -26.4290  -37.3699   23.9385 N   0  0  0  0  0  0
  -24.7618  -30.9772   22.0821 N   0  0  0  0  0  0
  -23.4228  -28.7998   23.3036 O   0  0  0  0  0  0
  -28.1885  -25.7147   20.3263 O   0  0  0  0  0  0
  -26.5741  -34.8884   22.4598 O   0  0  0  0  0  0
  -23.5758  -32.1187   23.6678 O   0  0  0  0  0  0
  -29.0548  -21.1931   19.8306 C   0  0  0  0  0  0
  -28.5526  -22.5106   20.4615 C   0  0  0  0  0  0
  -29.1840  -19.8068   20.4967 C   0  0  0  0  0  0
  -28.3192  -21.0364   22.3052 C   0  0  0  0  0  0
  -27.8607  -20.9370   23.7446 C   0  0  0  0  0  0
  -30.0210  -18.2819   18.4946 C   0  0  0  0  0  0
  -28.0690  -24.1133   19.8341 C   0  0  0  0  0  0
  -29.8976  -18.2529   20.0230 C   0  0  2  0  0  0
  -28.2107  -22.2655   21.7519 N   0  0  0  0  0  0
  -28.7586  -19.8749   21.7745 N   0  0  0  0  0  0
  -29.6640  -16.6258   20.4234 N   0  0  0  0  0  0
  -31.4579  -13.0588   19.2057 H   0  0  0  0  0  0
  -30.5028  -11.9490   20.1383 H   0  0  0  0  0  0
  -29.9420  -11.7995   17.6854 H   0  0  0  0  0  0
  -29.5662  -13.5034   17.6574 H   0  0  0  0  0  0
  -28.0619  -11.2902   19.0834 H   0  0  0  0  0  0
  -27.4349  -12.3531   17.8502 H   0  0  0  0  0  0
  -27.5205  -14.2540   19.3236 H   0  0  0  0  0  0
  -28.8286  -12.5455   21.4872 H   0  0  0  0  0  0
  -28.2747  -14.1895   21.6981 H   0  0  0  0  0  0
  -25.2792   -9.5695   22.4766 H   0  0  0  0  0  0
  -23.9998   -7.4653   22.7481 H   0  0  0  0  0  0
  -21.0839   -8.8800   19.8971 H   0  0  0  0  0  0
  -22.3703  -10.9682   19.6170 H   0  0  0  0  0  0
  -21.1988   -7.6139   23.9709 H   0  0  0  0  0  0
  -21.1522   -6.0505   25.9070 H   0  0  0  0  0  0
  -22.0584   -2.7585   23.2858 H   0  0  0  0  0  0
  -22.3953  -11.9952   22.4944 H   0  0  0  0  0  0
  -21.0969  -13.1286   22.2552 H   0  0  0  0  0  0
  -24.6367  -15.8576   20.5030 H   0  0  0  0  0  0
  -26.2443  -15.6280   20.0424 H   0  0  0  0  0  0
  -26.7416  -32.5067   23.0864 H   0  0  0  0  0  0
  -25.0030  -33.9466   25.0144 H   0  0  0  0  0  0
  -22.8070  -31.2600   21.3400 H   0  0  0  0  0  0
  -23.3767  -35.9507   23.3318 H   0  0  0  0  0  0
  -24.3548  -36.8833   22.2057 H   0  0  0  0  0  0
  -23.7250  -37.6376   23.6699 H   0  0  0  0  0  0
  -26.2614  -31.3365   20.6333 H   0  0  0  0  0  0
  -26.9136  -30.6512   22.0753 H   0  0  0  0  0  0
  -28.1422  -28.5224   21.3193 H   0  0  0  0  0  0
  -25.8705  -25.7200   18.9602 H   0  0  0  0  0  0
  -24.0276  -27.2739   18.9084 H   0  0  0  0  0  0
  -23.8893  -30.5061   19.3855 H   0  0  0  0  0  0
  -22.8410  -29.1949   19.8244 H   0  0  0  0  0  0
  -25.1357  -36.1758   25.0789 H   0  0  0  0  0  0
  -21.0043  -28.3393   24.1304 H   0  0  0  0  0  0
  -20.5705  -26.2394   23.3666 H   0  0  0  0  0  0
  -21.6657  -26.7430   22.1212 H   0  0  0  0  0  0
  -19.6934  -25.6279   21.1302 H   0  0  0  0  0  0
  -19.6724  -27.3171   20.6745 H   0  0  0  0  0  0
  -17.4229  -26.6718   21.4016 H   0  0  0  0  0  0
  -18.0321  -26.0123   22.9045 H   0  0  0  0  0  0
  -19.7965  -30.7340   24.2216 H   0  0  0  0  0  0
  -17.5027  -31.6298   24.5151 H   0  0  0  0  0  0
  -15.5370  -30.2972   23.7718 H   0  0  0  0  0  0
  -15.8700  -28.0818   22.7113 H   0  0  0  0  0  0
  -24.5822  -30.7194   25.7637 H   0  0  0  0  0  0
  -24.8820  -32.3062   26.4633 H   0  0  0  0  0  0
  -25.7824  -30.9083   27.0237 H   0  0  0  0  0  0
  -26.3137  -29.6552   24.1528 H   0  0  0  0  0  0
  -27.3894  -29.7309   25.5250 H   0  0  0  0  0  0
  -27.9119  -30.4035   24.0033 H   0  0  0  0  0  0
  -27.2618  -33.3689   26.2001 H   0  0  0  0  0  0
  -28.3914  -32.6861   25.0395 H   0  0  0  0  0  0
  -28.0649  -31.8556   26.5531 H   0  0  0  0  0  0
  -28.2586  -38.0059   24.7501 H   0  0  0  0  0  0
  -28.1080  -36.2589   24.6293 H   0  0  0  0  0  0
  -27.2280  -37.1404   25.8859 H   0  0  0  0  0  0
  -20.9630  -29.8692   21.6582 H   0  0  0  0  0  0
  -26.0137  -38.2766   24.1382 H   0  0  0  0  0  0
  -29.3441  -21.2456   18.7890 H   0  0  0  0  0  0
  -27.9245  -21.9003   24.2503 H   0  0  0  0  0  0
  -28.4785  -20.2302   24.2984 H   0  0  0  0  0  0
  -26.8281  -20.5898   23.7883 H   0  0  0  0  0  0
  -30.5191  -19.1917   18.1571 H   0  0  0  0  0  0
  -29.0393  -18.2452   18.0236 H   0  0  0  0  0  0
  -30.6062  -17.4415   18.1221 H   0  0  0  0  0  0
  -26.9967  -23.9749   19.7040 H   0  0  0  0  0  0
  -28.4557  -24.1253   18.8160 H   0  0  0  0  0  0
  -30.9167  -18.3897   20.3875 H   0  0  0  0  0  0
  -28.7026  -16.4666   20.6824 H   0  0  0  0  0  0
  1 25  1  0  0  0
  1 30  2  0  0  0
  1 81  1  0  0  0
  2  3  1  0  0  0
  2 25  1  0  0  0
  2 82  1  0  0  0
  2 83  1  0  0  0
  3  4  1  0  0  0
  3 84  1  0  0  0
  3 85  1  0  0  0
  4  5  1  0  0  0
  4 86  1  0  0  0
  4 87  1  0  0  0
  5  6  1  0  0  0
  5 26  1  0  0  0
  5 88  1  0  0  0
  6 25  1  0  0  0
  6 89  1  0  0  0
  6 90  1  0  0  0
  7  8  2  0  0  0
  7 26  1  0  0  0
  7 29  1  0  0  0
  8  9  1  0  0  0
  8 22  1  0  0  0
  9 10  1  0  0  0
  9 27  2  0  0  0
 10 11  2  0  0  0
 10 15  1  0  0  0
 11 12  1  0  0  0
 11 91  1  0  0  0
 12 13  2  0  0  0
 12 92  1  0  0  0
 13 14  1  0  0  0
 13 31  1  0  0  0
 14 15  2  0  0  0
 14 93  1  0  0  0
 15 94  1  0  0  0
 16 17  2  0  0  0
 16 21  1  0  0  0
 16 31  1  0  0  0
 17 18  1  0  0  0
 17 95  1  0  0  0
 18 19  2  0  0  0
 18 96  1  0  0  0
 19 20  1  0  0  0
 19 24  1  0  0  0
 20 21  2  0  0  0
 20 97  1  0  0  0
 21 23  1  0  0  0
 22 28  1  0  0  0
 22 32  2  0  0  0
 26 27  1  0  0  0
 28 98  1  0  0  0
 28 99  1  0  0  0
 29100  1  0  0  0
 29101  1  0  0  0
 33 34  1  0  0  0
 33 66  1  0  0  0
 33 70  2  0  0  0
 34 36  1  0  0  0
 34 59  1  0  0  0
 34102  1  0  0  0
 35 44  2  0  0  0
 35 45  1  0  0  0
 35 68  1  0  0  0
 36 56  1  0  0  0
 36103  1  0  0  0
 37 39  1  0  0  0
 37 47  1  0  0  0
 37 66  1  0  0  0
 37104  1  0  0  0
 38 43  2  0  0  0
 38 46  1  0  0  0
 38 47  1  0  0  0
 39 64  1  0  0  0
 39 67  2  0  0  0
 40 52  1  0  0  0
 40 53  2  0  0  0
 40 58  1  0  0  0
 41105  1  0  0  0
 41106  1  0  0  0
 41107  1  0  0  0
 41 48  1  0  0  0
 42 43  1  0  0  0
 42 66  1  0  0  0
 42108  1  0  0  0
 42109  1  0  0  0
 43 44  1  0  0  0
 44110  1  0  0  0
 45 46  2  0  0  0
 45111  1  0  0  0
 46112  1  0  0  0
 47113  1  0  0  0
 47114  1  0  0  0
 48 56  1  0  0  0
 48 65  1  0  0  0
 48115  1  0  0  0
 49 50  1  0  0  0
 49 53  1  0  0  0
 49 64  1  0  0  0
 49116  1  0  0  0
 50 51  1  0  0  0
 50117  1  0  0  0
 50118  1  0  0  0
 51 52  1  0  0  0
 51119  1  0  0  0
 51120  1  0  0  0
 52121  1  0  0  0
 52122  1  0  0  0
 53 54  1  0  0  0
 54 55  2  0  0  0
 54123  1  0  0  0
 55 57  1  0  0  0
 55124  1  0  0  0
 56 69  2  0  0  0
 57 58  2  0  0  0
 57125  1  0  0  0
 58126  1  0  0  0
 59 60  1  0  0  0
 59 61  1  0  0  0
 59 62  1  0  0  0
 60127  1  0  0  0
 60128  1  0  0  0
 60129  1  0  0  0
 61130  1  0  0  0
 61131  1  0  0  0
 61132  1  0  0  0
 62133  1  0  0  0
 62134  1  0  0  0
 62135  1  0  0  0
 63 65  1  0  0  0
 63136  1  0  0  0
 63137  1  0  0  0
 63138  1  0  0  0
 64139  1  0  0  0
 65140  1  0  0  0
 68 77  1  0  0  0
 71 72  2  0  0  0
 71 73  1  0  0  0
 71141  1  0  0  0
 72 77  1  0  0  0
 72 79  1  0  0  0
 73 78  1  0  0  0
 73 80  2  0  0  0
 74 75  1  0  0  0
 74 79  2  0  0  0
 74 80  1  0  0  0
 75142  1  0  0  0
 75143  1  0  0  0
 75144  1  0  0  0
 76145  1  0  0  0
 76146  1  0  0  0
 76147  1  0  0  0
 76 78  1  0  0  0
 77148  1  0  0  0
 77149  1  0  0  0
 78 81  1  0  0  0
 78150  1  0  0  0
 81151  1  0  0  0
M  ISO  4   1 100  68 101  77 101  81 100
M  END
> <chiral flag>
0

> <version>
0

> <s_m_source_file>
/data/baiqing/PycharmProjects/Reinvent-master-3.2/result/LINK_invent/BTK/process_docking_weight1_custom_sum_contain_oxygen_bond_distance_aromatic_linkinvent_7_9_3/rearranged_h_0186.sdf

> <i_m_source_file_index>
33

> <r_mmod_Potential_Energy-OPLS-2005>
877.232116699219

> <r_mmod_Stretch_Energy-OPLS-2005>
647.142944335938

> <r_mmod_Bend_Energy-OPLS-2005>
459.943878173828

> <r_mmod_Torsional_Energy-OPLS-2005>
212.46809387207

> <r_mmod_Improper_Torsional_Energy-OPLS-2005>
6.13347482681274

> <r_mmod_Van_der_Waal_Energy-OPLS-2005>
133.769271850586

> <r_mmod_Electrostatic_Energy-OPLS-2005>
-882.021728515625

> <r_mmod_Solvation_Energy-OPLS-2005>
-248.10188293457

> <b_mmod_Minimization_Converged-OPLS-2005>
0

> <r_mmod_RMS_Derivative-OPLS-2005>
3.72391748428345

$$$$
34
                    3D
 Structure written by MMmdl.
153162  0  0  1  0            999 V2000
  -30.5562  -14.9030   20.4249 C   0  0  0  0  0  0
  -30.4303  -12.5582   19.4921 C   0  0  0  0  0  0
  -29.5137  -12.5310   18.2487 C   0  0  0  0  0  0
  -28.0425  -12.3331   18.6601 C   0  0  0  0  0  0
  -27.6273  -13.2510   19.8409 C   0  0  2  0  0  0
  -28.6699  -13.2574   20.9772 C   0  0  0  0  0  0
  -25.2433  -13.8229   20.5718 C   0  0  0  0  0  0
  -24.1755  -13.0444   20.9229 C   0  0  0  0  0  0
  -24.6380  -11.6929   20.8750 C   0  0  0  0  0  0
  -23.9081  -10.4288   21.0396 C   0  0  0  0  0  0
  -24.3634   -9.4206   21.9178 C   0  0  0  0  0  0
  -23.6307   -8.2243   22.0743 C   0  0  0  0  0  0
  -22.4285   -8.0279   21.3539 C   0  0  0  0  0  0
  -21.9921   -9.0248   20.4639 C   0  0  0  0  0  0
  -22.7247  -10.2130   20.3049 C   0  0  0  0  0  0
  -21.6851   -6.0744   22.5282 C   0  0  0  0  0  0
  -21.4019   -6.5644   23.8219 C   0  0  0  0  0  0
  -21.3664   -5.6793   24.9179 C   0  0  0  0  0  0
  -21.6047   -4.3056   24.7225 C   0  0  0  0  0  0
  -21.8820   -3.8150   23.4344 C   0  0  0  0  0  0
  -21.9193   -4.6972   22.3404 C   0  0  0  0  0  0
  -22.7775  -13.5208   21.1888 C   0  0  0  0  0  0
  -22.1653   -4.2156   21.0981 F   0  0  0  0  0  0
  -21.5626   -3.4541   25.7740 F   0  0  0  0  0  0
  -29.9495  -13.6531   20.3791 N   0  0  0  0  0  0
  -26.2867  -12.9473   20.3262 N   0  0  0  0  0  0
  -25.9316  -11.6596   20.5739 N   0  0  0  0  0  0
  -22.0432  -12.8197   22.0448 N   0  0  0  0  0  0
  -25.4102  -15.1964   20.4168 N   0  0  0  0  0  0
  -31.7592  -14.9598   20.1476 O   0  0  0  0  0  0
  -21.6641   -6.8884   21.4243 O   0  0  0  0  0  0
  -22.3455  -14.5502   20.6723 O   0  0  0  0  0  0
  -24.6403  -31.8451   23.1886 C   0  0  0  0  0  0
  -25.9183  -32.4701   23.8274 C   0  0  1  0  0  0
  -27.2159  -27.1494   20.1434 C   0  0  0  0  0  0
  -25.5938  -33.8513   24.2180 N   0  0  0  0  0  0
  -23.4434  -30.4633   21.5344 C   0  0  2  0  0  0
  -24.8911  -28.8918   20.1057 C   0  0  0  0  0  0
  -22.7555  -29.4544   22.4877 C   0  0  0  0  0  0
  -18.0300  -28.1394   22.8482 C   0  0  0  0  0  0
  -24.1487  -36.7263   23.2643 C   0  0  0  0  0  0
  -25.9971  -30.7211   21.3860 C   0  0  0  0  0  0
  -26.0651  -29.3338   20.7270 C   0  0  0  0  0  0
  -27.2245  -28.4760   20.7328 C   0  0  0  0  0  0
  -26.0148  -26.8016   19.4865 C   0  0  0  0  0  0
  -24.8778  -27.6396   19.4718 C   0  0  0  0  0  0
  -23.6669  -29.7925   20.1528 C   0  0  0  0  0  0
  -25.4123  -36.3047   24.0316 C   0  0  1  0  0  0
  -20.5908  -28.3707   23.1248 C   0  0  2  0  0  0
  -20.6786  -26.9413   22.5409 C   0  0  0  0  0  0
  -19.5757  -26.6372   21.5220 C   0  0  0  0  0  0
  -18.1937  -26.7931   22.1626 C   0  0  0  0  0  0
  -19.1556  -28.8874   23.2856 C   0  0  0  0  0  0
  -18.9473  -30.1471   23.8873 C   0  0  0  0  0  0
  -17.6470  -30.6592   24.0555 C   0  0  0  0  0  0
  -25.9069  -34.9416   23.5062 C   0  0  0  0  0  0
  -16.5360  -29.9084   23.6337 C   0  0  0  0  0  0
  -16.7281  -28.6505   23.0353 C   0  0  0  0  0  0
  -26.4497  -31.6577   25.0723 C   0  0  0  0  0  0
  -25.3674  -31.3787   26.1413 C   0  0  0  0  0  0
  -27.0350  -30.2969   24.6310 C   0  0  0  0  0  0
  -27.6026  -32.4346   25.7509 C   0  0  0  0  0  0
  -27.5577  -37.1794   24.8464 C   0  0  0  0  0  0
  -21.4250  -29.3035   22.3628 N   0  0  0  0  0  0
  -26.4285  -37.3758   23.9406 N   0  0  0  0  0  0
  -24.7133  -31.0320   22.0913 N   0  0  0  0  0  0
  -23.4207  -28.8102   23.3029 O   0  0  0  0  0  0
  -28.2887  -26.1993   20.2606 O   0  0  0  0  0  0
  -26.5667  -34.8914   22.4646 O   0  0  0  0  0  0
  -23.5527  -32.1314   23.7119 O   0  0  0  0  0  0
  -28.0514  -20.9076   21.7530 C   0  0  0  0  0  0
  -27.4906  -22.1182   22.2022 C   0  0  0  0  0  0
  -28.8182  -20.9132   20.5846 C   0  0  0  0  0  0
  -28.3676  -23.3359   20.4389 C   0  0  0  0  0  0
  -30.3246  -17.3798   21.2470 C   0  0  0  0  0  0
  -29.3191  -17.0385   19.5464 C   0  0  0  0  0  0
  -29.2138  -18.2555   20.5502 C   0  0  0  0  0  0
  -26.6303  -22.1527   23.4477 C   0  0  0  0  0  0
  -28.3598  -24.7762   19.6413 C   0  0  0  0  0  0
  -27.6515  -23.2979   21.5605 N   0  0  0  0  0  0
  -28.9538  -22.1640   19.9460 N   0  0  0  0  0  0
  -29.8054  -16.0945   20.6248 N   0  0  0  0  0  0
  -29.4415  -19.7041   20.0625 O   0  0  0  0  0  0
  -31.4669  -12.7016   19.1851 H   0  0  0  0  0  0
  -30.4056  -11.6001   20.0133 H   0  0  0  0  0  0
  -29.8222  -11.7380   17.5652 H   0  0  0  0  0  0
  -29.6153  -13.4684   17.6982 H   0  0  0  0  0  0
  -27.9162  -11.2867   18.9402 H   0  0  0  0  0  0
  -27.3871  -12.4994   17.8041 H   0  0  0  0  0  0
  -27.5975  -14.2610   19.4311 H   0  0  0  0  0  0
  -28.7403  -12.2770   21.4507 H   0  0  0  0  0  0
  -28.3799  -13.9632   21.7584 H   0  0  0  0  0  0
  -25.2772   -9.5681   22.4761 H   0  0  0  0  0  0
  -24.0016   -7.4641   22.7471 H   0  0  0  0  0  0
  -21.0845   -8.8768   19.8950 H   0  0  0  0  0  0
  -22.3696  -10.9674   19.6164 H   0  0  0  0  0  0
  -21.2008   -7.6153   23.9727 H   0  0  0  0  0  0
  -21.1487   -6.0520   25.9086 H   0  0  0  0  0  0
  -22.0594   -2.7615   23.2845 H   0  0  0  0  0  0
  -22.4062  -11.9874   22.4851 H   0  0  0  0  0  0
  -21.1041  -13.1200   22.2644 H   0  0  0  0  0  0
  -24.6453  -15.8518   20.5338 H   0  0  0  0  0  0
  -26.2707  -15.6375   20.1182 H   0  0  0  0  0  0
  -26.7251  -32.5305   23.1003 H   0  0  0  0  0  0
  -25.0051  -33.9626   25.0308 H   0  0  0  0  0  0
  -22.7442  -31.2883   21.3818 H   0  0  0  0  0  0
  -23.3760  -35.9583   23.3295 H   0  0  0  0  0  0
  -24.3566  -36.8902   22.2057 H   0  0  0  0  0  0
  -23.7225  -37.6453   23.6682 H   0  0  0  0  0  0
  -26.1528  -31.4754   20.6137 H   0  0  0  0  0  0
  -26.8687  -30.7689   22.0278 H   0  0  0  0  0  0
  -28.1164  -28.8066   21.2458 H   0  0  0  0  0  0
  -25.9025  -25.8400   19.0132 H   0  0  0  0  0  0
  -23.9779  -27.2948   18.9804 H   0  0  0  0  0  0
  -23.8002  -30.5663   19.3961 H   0  0  0  0  0  0
  -22.7815  -29.2329   19.8455 H   0  0  0  0  0  0
  -25.1309  -36.1878   25.0809 H   0  0  0  0  0  0
  -20.9994  -28.3293   24.1369 H   0  0  0  0  0  0
  -20.5679  -26.2323   23.3627 H   0  0  0  0  0  0
  -21.6655  -26.7423   22.1205 H   0  0  0  0  0  0
  -19.6916  -25.6276   21.1264 H   0  0  0  0  0  0
  -19.6695  -27.3164   20.6738 H   0  0  0  0  0  0
  -17.4208  -26.6666   21.4028 H   0  0  0  0  0  0
  -18.0334  -26.0085   22.9036 H   0  0  0  0  0  0
  -19.7949  -30.7300   24.2220 H   0  0  0  0  0  0
  -17.5022  -31.6269   24.5162 H   0  0  0  0  0  0
  -15.5358  -30.2975   23.7684 H   0  0  0  0  0  0
  -15.8681  -28.0820   22.7072 H   0  0  0  0  0  0
  -24.5867  -30.7108   25.7749 H   0  0  0  0  0  0
  -24.8841  -32.2975   26.4749 H   0  0  0  0  0  0
  -25.7945  -30.9032   27.0248 H   0  0  0  0  0  0
  -26.2967  -29.6711   24.1280 H   0  0  0  0  0  0
  -27.3906  -29.7255   25.4894 H   0  0  0  0  0  0
  -27.8897  -30.4199   23.9656 H   0  0  0  0  0  0
  -27.2618  -33.3677   26.2009 H   0  0  0  0  0  0
  -28.3877  -32.6853   25.0365 H   0  0  0  0  0  0
  -28.0638  -31.8518   26.5487 H   0  0  0  0  0  0
  -28.2593  -38.0094   24.7519 H   0  0  0  0  0  0
  -28.1074  -36.2624   24.6283 H   0  0  0  0  0  0
  -27.2295  -37.1439   25.8868 H   0  0  0  0  0  0
  -20.9464  -29.8749   21.6807 H   0  0  0  0  0  0
  -26.0155  -38.2827   24.1409 H   0  0  0  0  0  0
  -27.8907  -19.9974   22.3120 H   0  0  0  0  0  0
  -31.3378  -17.6426   20.9327 H   0  0  0  0  0  0
  -30.2567  -17.4062   22.3356 H   0  0  0  0  0  0
  -28.3536  -16.7647   19.1201 H   0  0  0  0  0  0
  -30.0446  -17.1980   18.7446 H   0  0  0  0  0  0
  -28.2713  -18.1808   21.0926 H   0  0  0  0  0  0
  -25.5866  -22.3231   23.1822 H   0  0  0  0  0  0
  -26.9509  -22.9491   24.1188 H   0  0  0  0  0  0
  -26.6893  -21.2112   23.9932 H   0  0  0  0  0  0
  -29.3106  -24.7822   19.1087 H   0  0  0  0  0  0
  -27.6326  -24.6807   18.8390 H   0  0  0  0  0  0
  1 25  1  0  0  0
  1 30  2  0  0  0
  1 82  1  0  0  0
  2  3  1  0  0  0
  2 25  1  0  0  0
  2 84  1  0  0  0
  2 85  1  0  0  0
  3  4  1  0  0  0
  3 86  1  0  0  0
  3 87  1  0  0  0
  4  5  1  0  0  0
  4 88  1  0  0  0
  4 89  1  0  0  0
  5  6  1  0  0  0
  5 26  1  0  0  0
  5 90  1  0  0  0
  6 25  1  0  0  0
  6 91  1  0  0  0
  6 92  1  0  0  0
  7  8  2  0  0  0
  7 26  1  0  0  0
  7 29  1  0  0  0
  8  9  1  0  0  0
  8 22  1  0  0  0
  9 10  1  0  0  0
  9 27  2  0  0  0
 10 11  2  0  0  0
 10 15  1  0  0  0
 11 12  1  0  0  0
 11 93  1  0  0  0
 12 13  2  0  0  0
 12 94  1  0  0  0
 13 14  1  0  0  0
 13 31  1  0  0  0
 14 15  2  0  0  0
 14 95  1  0  0  0
 15 96  1  0  0  0
 16 17  2  0  0  0
 16 21  1  0  0  0
 16 31  1  0  0  0
 17 18  1  0  0  0
 17 97  1  0  0  0
 18 19  2  0  0  0
 18 98  1  0  0  0
 19 20  1  0  0  0
 19 24  1  0  0  0
 20 21  2  0  0  0
 20 99  1  0  0  0
 21 23  1  0  0  0
 22 28  1  0  0  0
 22 32  2  0  0  0
 26 27  1  0  0  0
 28100  1  0  0  0
 28101  1  0  0  0
 29102  1  0  0  0
 29103  1  0  0  0
 33 34  1  0  0  0
 33 66  1  0  0  0
 33 70  2  0  0  0
 34 36  1  0  0  0
 34 59  1  0  0  0
 34104  1  0  0  0
 35 44  2  0  0  0
 35 45  1  0  0  0
 35 68  1  0  0  0
 36 56  1  0  0  0
 36105  1  0  0  0
 37 39  1  0  0  0
 37 47  1  0  0  0
 37 66  1  0  0  0
 37106  1  0  0  0
 38 43  2  0  0  0
 38 46  1  0  0  0
 38 47  1  0  0  0
 39 64  1  0  0  0
 39 67  2  0  0  0
 40 52  1  0  0  0
 40 53  2  0  0  0
 40 58  1  0  0  0
 41107  1  0  0  0
 41108  1  0  0  0
 41109  1  0  0  0
 41 48  1  0  0  0
 42 43  1  0  0  0
 42 66  1  0  0  0
 42110  1  0  0  0
 42111  1  0  0  0
 43 44  1  0  0  0
 44112  1  0  0  0
 45 46  2  0  0  0
 45113  1  0  0  0
 46114  1  0  0  0
 47115  1  0  0  0
 47116  1  0  0  0
 48 56  1  0  0  0
 48 65  1  0  0  0
 48117  1  0  0  0
 49 50  1  0  0  0
 49 53  1  0  0  0
 49 64  1  0  0  0
 49118  1  0  0  0
 50 51  1  0  0  0
 50119  1  0  0  0
 50120  1  0  0  0
 51 52  1  0  0  0
 51121  1  0  0  0
 51122  1  0  0  0
 52123  1  0  0  0
 52124  1  0  0  0
 53 54  1  0  0  0
 54 55  2  0  0  0
 54125  1  0  0  0
 55 57  1  0  0  0
 55126  1  0  0  0
 56 69  2  0  0  0
 57 58  2  0  0  0
 57127  1  0  0  0
 58128  1  0  0  0
 59 60  1  0  0  0
 59 61  1  0  0  0
 59 62  1  0  0  0
 60129  1  0  0  0
 60130  1  0  0  0
 60131  1  0  0  0
 61132  1  0  0  0
 61133  1  0  0  0
 61134  1  0  0  0
 62135  1  0  0  0
 62136  1  0  0  0
 62137  1  0  0  0
 63 65  1  0  0  0
 63138  1  0  0  0
 63139  1  0  0  0
 63140  1  0  0  0
 64141  1  0  0  0
 65142  1  0  0  0
 68 79  1  0  0  0
 71 72  2  0  0  0
 71 73  1  0  0  0
 71143  1  0  0  0
 72 78  1  0  0  0
 72 80  1  0  0  0
 73 81  2  0  0  0
 73 83  1  0  0  0
 74 79  1  0  0  0
 74 80  2  0  0  0
 74 81  1  0  0  0
 75 77  1  0  0  0
 75 82  1  0  0  0
 75144  1  0  0  0
 75145  1  0  0  0
 76 77  1  0  0  0
 76 82  1  0  0  0
 76146  1  0  0  0
 76147  1  0  0  0
 77 83  1  0  0  0
 77148  1  0  0  0
 78149  1  0  0  0
 78150  1  0  0  0
 78151  1  0  0  0
 79152  1  0  0  0
 79153  1  0  0  0
M  ISO  4   1 100  68 101  79 101  82 100
M  END
> <chiral flag>
0

> <version>
0

> <s_m_source_file>
/data/baiqing/PycharmProjects/Reinvent-master-3.2/result/LINK_invent/BTK/process_docking_weight1_custom_sum_contain_oxygen_bond_distance_aromatic_linkinvent_7_9_3/rearranged_h_0186.sdf

> <i_m_source_file_index>
34

> <r_mmod_Potential_Energy-OPLS-2005>
43.454891204834

> <r_mmod_Stretch_Energy-OPLS-2005>
208.013427734375

> <r_mmod_Bend_Energy-OPLS-2005>
262.905853271484

> <r_mmod_Torsional_Energy-OPLS-2005>
261.255432128906

> <r_mmod_Improper_Torsional_Energy-OPLS-2005>
11.0364465713501

> <r_mmod_Van_der_Waal_Energy-OPLS-2005>
135.018417358398

> <r_mmod_Electrostatic_Energy-OPLS-2005>
-763.215270996094

> <r_mmod_Solvation_Energy-OPLS-2005>
-241.154357910156

> <b_mmod_Minimization_Converged-OPLS-2005>
0

> <r_mmod_RMS_Derivative-OPLS-2005>
1.43152928352356

$$$$
35
                    3D
 Structure written by MMmdl.
163172  0  0  1  0            999 V2000
  -30.6513  -14.8445   20.4389 C   0  0  0  0  0  0
  -30.4150  -12.5282   19.4888 C   0  0  0  0  0  0
  -29.5050  -12.5038   18.2447 C   0  0  0  0  0  0
  -28.0399  -12.2957   18.6653 C   0  0  0  0  0  0
  -27.6228  -13.2319   19.8278 C   0  0  2  0  0  0
  -28.6689  -13.2776   20.9659 C   0  0  0  0  0  0
  -25.2436  -13.8169   20.5691 C   0  0  0  0  0  0
  -24.1756  -13.0404   20.9221 C   0  0  0  0  0  0
  -24.6365  -11.6894   20.8752 C   0  0  0  0  0  0
  -23.9054  -10.4275   21.0406 C   0  0  0  0  0  0
  -24.3608   -9.4194   21.9183 C   0  0  0  0  0  0
  -23.6283   -8.2233   22.0752 C   0  0  0  0  0  0
  -22.4267   -8.0272   21.3542 C   0  0  0  0  0  0
  -21.9902   -9.0242   20.4644 C   0  0  0  0  0  0
  -22.7226  -10.2121   20.3056 C   0  0  0  0  0  0
  -21.6858   -6.0724   22.5267 C   0  0  0  0  0  0
  -21.4017   -6.5630   23.8199 C   0  0  0  0  0  0
  -21.3659   -5.6783   24.9163 C   0  0  0  0  0  0
  -21.6050   -4.3047   24.7215 C   0  0  0  0  0  0
  -21.8825   -3.8136   23.4338 C   0  0  0  0  0  0
  -21.9199   -4.6951   22.3391 C   0  0  0  0  0  0
  -22.7785  -13.5187   21.1873 C   0  0  0  0  0  0
  -22.1667   -4.2140   21.0968 F   0  0  0  0  0  0
  -21.5626   -3.4531   25.7727 F   0  0  0  0  0  0
  -29.9519  -13.6465   20.3589 N   0  0  0  0  0  0
  -26.2848  -12.9378   20.3220 N   0  0  0  0  0  0
  -25.9290  -11.6525   20.5750 N   0  0  0  0  0  0
  -22.0451  -12.8175   22.0438 N   0  0  0  0  0  0
  -25.4045  -15.1897   20.4082 N   0  0  0  0  0  0
  -31.8624  -14.7867   20.1968 O   0  0  0  0  0  0
  -21.6639   -6.8865   21.4230 O   0  0  0  0  0  0
  -22.3466  -14.5491   20.6713 O   0  0  0  0  0  0
  -24.6339  -31.8499   23.1937 C   0  0  0  0  0  0
  -25.9150  -32.4721   23.8302 C   0  0  1  0  0  0
  -27.2219  -27.2190   20.1474 C   0  0  0  0  0  0
  -25.5931  -33.8533   24.2229 N   0  0  0  0  0  0
  -23.4332  -30.4684   21.5373 C   0  0  2  0  0  0
  -24.8819  -28.8973   20.1157 C   0  0  0  0  0  0
  -22.7516  -29.4575   22.4909 C   0  0  0  0  0  0
  -18.0290  -28.1390   22.8483 C   0  0  0  0  0  0
  -24.1491  -36.7270   23.2646 C   0  0  0  0  0  0
  -25.9795  -30.7483   21.3794 C   0  0  0  0  0  0
  -26.0517  -29.3628   20.7299 C   0  0  0  0  0  0
  -27.2225  -28.5343   20.7344 C   0  0  0  0  0  0
  -26.0330  -26.8232   19.5040 C   0  0  0  0  0  0
  -24.8789  -27.6372   19.4923 C   0  0  0  0  0  0
  -23.6543  -29.7909   20.1574 C   0  0  0  0  0  0
  -25.4122  -36.3055   24.0324 C   0  0  1  0  0  0
  -20.5900  -28.3701   23.1265 C   0  0  2  0  0  0
  -20.6774  -26.9416   22.5409 C   0  0  0  0  0  0
  -19.5751  -26.6384   21.5211 C   0  0  0  0  0  0
  -18.1932  -26.7931   22.1621 C   0  0  0  0  0  0
  -19.1546  -28.8865   23.2865 C   0  0  0  0  0  0
  -18.9466  -30.1468   23.8884 C   0  0  0  0  0  0
  -17.6463  -30.6591   24.0564 C   0  0  0  0  0  0
  -25.9060  -34.9425   23.5086 C   0  0  0  0  0  0
  -16.5355  -29.9085   23.6338 C   0  0  0  0  0  0
  -16.7275  -28.6504   23.0356 C   0  0  0  0  0  0
  -26.4505  -31.6561   25.0712 C   0  0  0  0  0  0
  -25.3721  -31.3720   26.1426 C   0  0  0  0  0  0
  -27.0370  -30.2974   24.6235 C   0  0  0  0  0  0
  -27.6057  -32.4314   25.7484 C   0  0  0  0  0  0
  -27.5580  -37.1793   24.8469 C   0  0  0  0  0  0
  -21.4221  -29.3038   22.3650 N   0  0  0  0  0  0
  -26.4293  -37.3757   23.9407 N   0  0  0  0  0  0
  -24.7013  -31.0421   22.0928 N   0  0  0  0  0  0
  -23.4192  -28.8124   23.3033 O   0  0  0  0  0  0
  -28.3357  -26.3410   20.1455 O   0  0  0  0  0  0
  -26.5643  -34.8903   22.4661 O   0  0  0  0  0  0
  -23.5479  -32.1346   23.7207 O   0  0  0  0  0  0
  -28.3044  -24.8995   20.2866 C   0  0  0  0  0  0
  -27.8392  -24.1934   21.4316 C   0  0  0  0  0  0
  -28.9164  -23.9800   19.3675 C   0  0  0  0  0  0
  -28.5833  -22.0678   20.6955 C   0  0  0  0  0  0
  -28.2634  -18.1293   20.4986 C   0  0  0  0  0  0
  -30.4372  -18.7335   21.2468 C   0  0  0  0  0  0
  -28.7631  -16.6439   20.1335 C   0  0  0  0  0  0
  -30.9946  -17.3166   20.7789 C   0  0  0  0  0  0
  -29.2528  -19.3561   20.4386 C   0  0  0  0  0  0
  -27.1905  -24.9420   22.5776 C   0  0  0  0  0  0
  -28.6828  -24.0347   16.8407 C   0  0  0  0  0  0
  -29.5011  -24.4852   18.0597 C   0  0  0  0  0  0
  -27.9748  -22.8328   21.6097 N   0  0  0  0  0  0
  -29.0513  -22.6136   19.5701 N   0  0  0  0  0  0
  -30.0733  -16.1301   20.6497 N   0  0  0  0  0  0
  -28.6901  -20.6598   21.0237 N   0  0  0  0  0  0
  -31.4558  -12.6338   19.1780 H   0  0  0  0  0  0
  -30.3651  -11.5792   20.0251 H   0  0  0  0  0  0
  -29.8146  -11.7113   17.5627 H   0  0  0  0  0  0
  -29.6064  -13.4409   17.6952 H   0  0  0  0  0  0
  -27.9297  -11.2542   18.9725 H   0  0  0  0  0  0
  -27.3776  -12.4351   17.8098 H   0  0  0  0  0  0
  -27.5744  -14.2138   19.3642 H   0  0  0  0  0  0
  -28.7428  -12.3136   21.4710 H   0  0  0  0  0  0
  -28.3844  -14.0035   21.7288 H   0  0  0  0  0  0
  -25.2751   -9.5672   22.4754 H   0  0  0  0  0  0
  -23.9998   -7.4623   22.7463 H   0  0  0  0  0  0
  -21.0845   -8.8754   19.8936 H   0  0  0  0  0  0
  -22.3682  -10.9664   19.6171 H   0  0  0  0  0  0
  -21.2012   -7.6136   23.9699 H   0  0  0  0  0  0
  -21.1477   -6.0511   25.9068 H   0  0  0  0  0  0
  -22.0608   -2.7600   23.2834 H   0  0  0  0  0  0
  -22.4101  -11.9849   22.4826 H   0  0  0  0  0  0
  -21.1067  -13.1186   22.2651 H   0  0  0  0  0  0
  -24.6332  -15.8363   20.5288 H   0  0  0  0  0  0
  -26.2454  -15.6380   20.0720 H   0  0  0  0  0  0
  -26.7213  -32.5357   23.1035 H   0  0  0  0  0  0
  -25.0057  -33.9664   25.0361 H   0  0  0  0  0  0
  -22.7314  -31.2913   21.3847 H   0  0  0  0  0  0
  -23.3755  -35.9601   23.3307 H   0  0  0  0  0  0
  -24.3575  -36.8897   22.2061 H   0  0  0  0  0  0
  -23.7238  -37.6468   23.6671 H   0  0  0  0  0  0
  -26.1222  -31.5038   20.6050 H   0  0  0  0  0  0
  -26.8552  -30.8024   22.0152 H   0  0  0  0  0  0
  -28.1234  -28.8887   21.2153 H   0  0  0  0  0  0
  -25.9902  -25.8579   19.0203 H   0  0  0  0  0  0
  -23.9834  -27.2776   19.0047 H   0  0  0  0  0  0
  -23.7803  -30.5616   19.3959 H   0  0  0  0  0  0
  -22.7713  -29.2249   19.8552 H   0  0  0  0  0  0
  -25.1306  -36.1904   25.0816 H   0  0  0  0  0  0
  -20.9987  -28.3282   24.1389 H   0  0  0  0  0  0
  -20.5668  -26.2315   23.3618 H   0  0  0  0  0  0
  -21.6640  -26.7430   22.1214 H   0  0  0  0  0  0
  -19.6911  -25.6292   21.1250 H   0  0  0  0  0  0
  -19.6693  -27.3186   20.6738 H   0  0  0  0  0  0
  -17.4203  -26.6685   21.4024 H   0  0  0  0  0  0
  -18.0331  -26.0076   22.9021 H   0  0  0  0  0  0
  -19.7942  -30.7290   24.2247 H   0  0  0  0  0  0
  -17.5014  -31.6269   24.5164 H   0  0  0  0  0  0
  -15.5353  -30.2974   23.7673 H   0  0  0  0  0  0
  -15.8680  -28.0815   22.7075 H   0  0  0  0  0  0
  -24.5894  -30.7070   25.7742 H   0  0  0  0  0  0
  -24.8911  -32.2892   26.4840 H   0  0  0  0  0  0
  -25.8028  -30.8897   27.0211 H   0  0  0  0  0  0
  -26.2967  -29.6696   24.1255 H   0  0  0  0  0  0
  -27.4029  -29.7263   25.4778 H   0  0  0  0  0  0
  -27.8847  -30.4234   23.9498 H   0  0  0  0  0  0
  -27.2662  -33.3620   26.2042 H   0  0  0  0  0  0
  -28.3867  -32.6867   25.0310 H   0  0  0  0  0  0
  -28.0719  -31.8454   26.5412 H   0  0  0  0  0  0
  -28.2603  -38.0087   24.7506 H   0  0  0  0  0  0
  -28.1073  -36.2617   24.6309 H   0  0  0  0  0  0
  -27.2295  -37.1454   25.8872 H   0  0  0  0  0  0
  -20.9419  -29.8748   21.6838 H   0  0  0  0  0  0
  -26.0175  -38.2833   24.1396 H   0  0  0  0  0  0
  -27.8659  -18.0796   21.5141 H   0  0  0  0  0  0
  -27.3968  -18.3549   19.8760 H   0  0  0  0  0  0
  -31.2645  -19.4445   21.2523 H   0  0  0  0  0  0
  -30.1382  -18.6382   22.2922 H   0  0  0  0  0  0
  -28.7806  -16.5376   19.0479 H   0  0  0  0  0  0
  -27.9924  -15.9751   20.4967 H   0  0  0  0  0  0
  -31.7990  -17.0479   21.4668 H   0  0  0  0  0  0
  -31.4773  -17.4538   19.8103 H   0  0  0  0  0  0
  -29.5609  -19.5397   19.4081 H   0  0  0  0  0  0
  -27.8795  -25.6849   22.9784 H   0  0  0  0  0  0
  -26.9036  -24.2716   23.3880 H   0  0  0  0  0  0
  -26.2927  -25.4557   22.2340 H   0  0  0  0  0  0
  -29.1075  -24.4289   15.9180 H   0  0  0  0  0  0
  -27.6516  -24.3805   16.9116 H   0  0  0  0  0  0
  -28.6655  -22.9476   16.7605 H   0  0  0  0  0  0
  -30.5299  -24.1345   17.9714 H   0  0  0  0  0  0
  -29.5545  -25.5740   18.0752 H   0  0  0  0  0  0
  -28.2682  -20.4891   21.9274 H   0  0  0  0  0  0
  1 25  1  0  0  0
  1 30  2  0  0  0
  1 85  1  0  0  0
  2  3  1  0  0  0
  2 25  1  0  0  0
  2 87  1  0  0  0
  2 88  1  0  0  0
  3  4  1  0  0  0
  3 89  1  0  0  0
  3 90  1  0  0  0
  4  5  1  0  0  0
  4 91  1  0  0  0
  4 92  1  0  0  0
  5  6  1  0  0  0
  5 26  1  0  0  0
  5 93  1  0  0  0
  6 25  1  0  0  0
  6 94  1  0  0  0
  6 95  1  0  0  0
  7  8  2  0  0  0
  7 26  1  0  0  0
  7 29  1  0  0  0
  8  9  1  0  0  0
  8 22  1  0  0  0
  9 10  1  0  0  0
  9 27  2  0  0  0
 10 11  2  0  0  0
 10 15  1  0  0  0
 11 12  1  0  0  0
 11 96  1  0  0  0
 12 13  2  0  0  0
 12 97  1  0  0  0
 13 14  1  0  0  0
 13 31  1  0  0  0
 14 15  2  0  0  0
 14 98  1  0  0  0
 15 99  1  0  0  0
 16 17  2  0  0  0
 16 21  1  0  0  0
 16 31  1  0  0  0
 17 18  1  0  0  0
 17100  1  0  0  0
 18 19  2  0  0  0
 18101  1  0  0  0
 19 20  1  0  0  0
 19 24  1  0  0  0
 20 21  2  0  0  0
 20102  1  0  0  0
 21 23  1  0  0  0
 22 28  1  0  0  0
 22 32  2  0  0  0
 26 27  1  0  0  0
 28103  1  0  0  0
 28104  1  0  0  0
 29105  1  0  0  0
 29106  1  0  0  0
 33 34  1  0  0  0
 33 66  1  0  0  0
 33 70  2  0  0  0
 34 36  1  0  0  0
 34 59  1  0  0  0
 34107  1  0  0  0
 35 44  2  0  0  0
 35 45  1  0  0  0
 35 68  1  0  0  0
 36 56  1  0  0  0
 36108  1  0  0  0
 37 39  1  0  0  0
 37 47  1  0  0  0
 37 66  1  0  0  0
 37109  1  0  0  0
 38 43  2  0  0  0
 38 46  1  0  0  0
 38 47  1  0  0  0
 39 64  1  0  0  0
 39 67  2  0  0  0
 40 52  1  0  0  0
 40 53  2  0  0  0
 40 58  1  0  0  0
 41110  1  0  0  0
 41111  1  0  0  0
 41112  1  0  0  0
 41 48  1  0  0  0
 42 43  1  0  0  0
 42 66  1  0  0  0
 42113  1  0  0  0
 42114  1  0  0  0
 43 44  1  0  0  0
 44115  1  0  0  0
 45 46  2  0  0  0
 45116  1  0  0  0
 46117  1  0  0  0
 47118  1  0  0  0
 47119  1  0  0  0
 48 56  1  0  0  0
 48 65  1  0  0  0
 48120  1  0  0  0
 49 50  1  0  0  0
 49 53  1  0  0  0
 49 64  1  0  0  0
 49121  1  0  0  0
 50 51  1  0  0  0
 50122  1  0  0  0
 50123  1  0  0  0
 51 52  1  0  0  0
 51124  1  0  0  0
 51125  1  0  0  0
 52126  1  0  0  0
 52127  1  0  0  0
 53 54  1  0  0  0
 54 55  2  0  0  0
 54128  1  0  0  0
 55 57  1  0  0  0
 55129  1  0  0  0
 56 69  2  0  0  0
 57 58  2  0  0  0
 57130  1  0  0  0
 58131  1  0  0  0
 59 60  1  0  0  0
 59 61  1  0  0  0
 59 62  1  0  0  0
 60132  1  0  0  0
 60133  1  0  0  0
 60134  1  0  0  0
 61135  1  0  0  0
 61136  1  0  0  0
 61137  1  0  0  0
 62138  1  0  0  0
 62139  1  0  0  0
 62140  1  0  0  0
 63 65  1  0  0  0
 63141  1  0  0  0
 63142  1  0  0  0
 63143  1  0  0  0
 64144  1  0  0  0
 65145  1  0  0  0
 68 71  1  0  0  0
 71 72  2  0  0  0
 71 73  1  0  0  0
 72 80  1  0  0  0
 72 83  1  0  0  0
 73 82  1  0  0  0
 73 84  2  0  0  0
 74 83  2  0  0  0
 74 84  1  0  0  0
 74 86  1  0  0  0
 75 77  1  0  0  0
 75 79  1  0  0  0
 75146  1  0  0  0
 75147  1  0  0  0
 76 78  1  0  0  0
 76 79  1  0  0  0
 76148  1  0  0  0
 76149  1  0  0  0
 77 85  1  0  0  0
 77150  1  0  0  0
 77151  1  0  0  0
 78 85  1  0  0  0
 78152  1  0  0  0
 78153  1  0  0  0
 79 86  1  0  0  0
 79154  1  0  0  0
 80155  1  0  0  0
 80156  1  0  0  0
 80157  1  0  0  0
 81 82  1  0  0  0
 81158  1  0  0  0
 81159  1  0  0  0
 81160  1  0  0  0
 82161  1  0  0  0
 82162  1  0  0  0
 86163  1  0  0  0
M  ISO  4   1 100  68 101  71 101  85 100
M  END
> <chiral flag>
0

> <version>
0

> <s_m_source_file>
/data/baiqing/PycharmProjects/Reinvent-master-3.2/result/LINK_invent/BTK/process_docking_weight1_custom_sum_contain_oxygen_bond_distance_aromatic_linkinvent_7_9_3/rearranged_h_0186.sdf

> <i_m_source_file_index>
35

> <r_mmod_Potential_Energy-OPLS-2005>
-46.441764831543

> <r_mmod_Stretch_Energy-OPLS-2005>
136.90885925293

> <r_mmod_Bend_Energy-OPLS-2005>
259.43505859375

> <r_mmod_Torsional_Energy-OPLS-2005>
293.530181884766

> <r_mmod_Improper_Torsional_Energy-OPLS-2005>
5.61693000793457

> <r_mmod_Van_der_Waal_Energy-OPLS-2005>
138.814712524414

> <r_mmod_Electrostatic_Energy-OPLS-2005>
-779.303283691406

> <r_mmod_Solvation_Energy-OPLS-2005>
-225.425933837891

> <b_mmod_Minimization_Converged-OPLS-2005>
0

> <r_mmod_RMS_Derivative-OPLS-2005>
1.32109045982361

$$$$
36
                    3D
 Structure written by MMmdl.
157166  0  0  1  0            999 V2000
  -30.5923  -14.7896   20.3050 C   0  0  0  0  0  0
  -30.4553  -12.4572   19.4634 C   0  0  0  0  0  0
  -29.5196  -12.3692   18.2370 C   0  0  0  0  0  0
  -28.0382  -12.2658   18.6530 C   0  0  0  0  0  0
  -27.6368  -13.2267   19.8059 C   0  0  2  0  0  0
  -28.6868  -13.2307   20.9326 C   0  0  0  0  0  0
  -25.2572  -13.8223   20.5632 C   0  0  0  0  0  0
  -24.1853  -13.0460   20.9203 C   0  0  0  0  0  0
  -24.6452  -11.6943   20.8767 C   0  0  0  0  0  0
  -23.9134  -10.4292   21.0400 C   0  0  0  0  0  0
  -24.3683   -9.4188   21.9164 C   0  0  0  0  0  0
  -23.6319   -8.2240   22.0734 C   0  0  0  0  0  0
  -22.4292   -8.0308   21.3527 C   0  0  0  0  0  0
  -21.9965   -9.0295   20.4627 C   0  0  0  0  0  0
  -22.7320  -10.2150   20.3034 C   0  0  0  0  0  0
  -21.6850   -6.0771   22.5272 C   0  0  0  0  0  0
  -21.4008   -6.5646   23.8215 C   0  0  0  0  0  0
  -21.3645   -5.6782   24.9162 C   0  0  0  0  0  0
  -21.6046   -4.3054   24.7214 C   0  0  0  0  0  0
  -21.8832   -3.8163   23.4325 C   0  0  0  0  0  0
  -21.9203   -4.6996   22.3388 C   0  0  0  0  0  0
  -22.7855  -13.5226   21.1850 C   0  0  0  0  0  0
  -22.1653   -4.2186   21.0967 F   0  0  0  0  0  0
  -21.5636   -3.4527   25.7719 F   0  0  0  0  0  0
  -29.9733  -13.5629   20.3153 N   0  0  0  0  0  0
  -26.2959  -12.9400   20.3116 N   0  0  0  0  0  0
  -25.9363  -11.6557   20.5729 N   0  0  0  0  0  0
  -22.0495  -12.8208   22.0391 N   0  0  0  0  0  0
  -25.4355  -15.1922   20.4018 N   0  0  0  0  0  0
  -31.8250  -14.8428   20.2756 O   0  0  0  0  0  0
  -21.6625   -6.8928   21.4236 O   0  0  0  0  0  0
  -22.3508  -14.5499   20.6652 O   0  0  0  0  0  0
  -24.6309  -31.8557   23.1979 C   0  0  0  0  0  0
  -25.9159  -32.4744   23.8319 C   0  0  1  0  0  0
  -27.2218  -27.2838   20.1218 C   0  0  0  0  0  0
  -25.5956  -33.8540   24.2249 N   0  0  0  0  0  0
  -23.4265  -30.4751   21.5422 C   0  0  2  0  0  0
  -24.8716  -28.9213   20.1122 C   0  0  0  0  0  0
  -22.7520  -29.4588   22.4947 C   0  0  0  0  0  0
  -18.0301  -28.1355   22.8489 C   0  0  0  0  0  0
  -24.1499  -36.7265   23.2645 C   0  0  0  0  0  0
  -25.9702  -30.7756   21.3764 C   0  0  0  0  0  0
  -26.0430  -29.3994   20.7154 C   0  0  0  0  0  0
  -27.2223  -28.5936   20.7056 C   0  0  0  0  0  0
  -26.0273  -26.8559   19.5103 C   0  0  0  0  0  0
  -24.8675  -27.6557   19.4991 C   0  0  0  0  0  0
  -23.6426  -29.8053   20.1601 C   0  0  0  0  0  0
  -25.4135  -36.3063   24.0335 C   0  0  1  0  0  0
  -20.5900  -28.3661   23.1287 C   0  0  2  0  0  0
  -20.6769  -26.9373   22.5431 C   0  0  0  0  0  0
  -19.5735  -26.6359   21.5225 C   0  0  0  0  0  0
  -18.1914  -26.7897   22.1629 C   0  0  0  0  0  0
  -19.1551  -28.8832   23.2863 C   0  0  0  0  0  0
  -18.9479  -30.1433   23.8875 C   0  0  0  0  0  0
  -17.6473  -30.6545   24.0569 C   0  0  0  0  0  0
  -25.9085  -34.9437   23.5100 C   0  0  0  0  0  0
  -16.5367  -29.9052   23.6324 C   0  0  0  0  0  0
  -16.7290  -28.6470   23.0348 C   0  0  0  0  0  0
  -26.4539  -31.6561   25.0712 C   0  0  0  0  0  0
  -25.3759  -31.3727   26.1438 C   0  0  0  0  0  0
  -27.0366  -30.2973   24.6178 C   0  0  0  0  0  0
  -27.6085  -32.4329   25.7465 C   0  0  0  0  0  0
  -27.5585  -37.1782   24.8471 C   0  0  0  0  0  0
  -21.4232  -29.3006   22.3687 N   0  0  0  0  0  0
  -26.4299  -37.3767   23.9423 N   0  0  0  0  0  0
  -24.6942  -31.0557   22.0934 N   0  0  0  0  0  0
  -23.4234  -28.8128   23.3026 O   0  0  0  0  0  0
  -28.3406  -26.4327   20.0967 O   0  0  0  0  0  0
  -26.5636  -34.8903   22.4664 O   0  0  0  0  0  0
  -23.5477  -32.1361   23.7301 O   0  0  0  0  0  0
  -29.6290  -20.0027   20.2634 C   0  0  0  0  0  0
  -29.2429  -18.6607   19.9046 C   0  0  0  0  0  0
  -28.7937  -21.1165   19.9221 C   0  0  0  0  0  0
  -27.3564  -19.6076   18.9543 C   0  0  0  0  0  0
  -30.8070  -17.1856   18.5486 C   0  0  0  0  0  0
  -29.7886  -16.0571   18.4221 C   0  0  0  0  0  0
  -30.2333  -17.4040   19.9417 C   0  0  2  0  0  0
  -26.1080  -19.4053   18.1195 C   0  0  0  0  0  0
  -28.5250  -23.7453   19.6006 C   0  0  0  0  0  0
  -28.2277  -25.0125   20.5550 C   0  0  0  0  0  0
  -28.0632  -18.5150   19.2614 N   0  0  0  0  0  0
  -27.6575  -20.8735   19.2551 N   0  0  0  0  0  0
  -29.8411  -15.9007   19.8931 N   0  0  0  0  0  0
  -29.0830  -22.4900   20.2439 N   0  0  0  0  0  0
  -31.4800  -12.6244   19.1225 H   0  0  0  0  0  0
  -30.4752  -11.5232   20.0275 H   0  0  0  0  0  0
  -29.7867  -11.4889   17.6498 H   0  0  0  0  0  0
  -29.6693  -13.2122   17.5688 H   0  0  0  0  0  0
  -27.8841  -11.2359   18.9762 H   0  0  0  0  0  0
  -27.3946  -12.4087   17.7851 H   0  0  0  0  0  0
  -27.6121  -14.2251   19.3678 H   0  0  0  0  0  0
  -28.7336  -12.2624   21.4313 H   0  0  0  0  0  0
  -28.4349  -13.9723   21.6918 H   0  0  0  0  0  0
  -25.2842   -9.5623   22.4728 H   0  0  0  0  0  0
  -24.0022   -7.4620   22.7435 H   0  0  0  0  0  0
  -21.0910   -8.8837   19.8920 H   0  0  0  0  0  0
  -22.3813  -10.9701   19.6134 H   0  0  0  0  0  0
  -21.1968   -7.6145   23.9737 H   0  0  0  0  0  0
  -21.1439   -6.0489   25.9069 H   0  0  0  0  0  0
  -22.0632   -2.7633   23.2805 H   0  0  0  0  0  0
  -22.4122  -11.9941   22.4897 H   0  0  0  0  0  0
  -21.1057  -13.1155   22.2468 H   0  0  0  0  0  0
  -24.6901  -15.8684   20.5304 H   0  0  0  0  0  0
  -26.3050  -15.6182   20.0998 H   0  0  0  0  0  0
  -26.7234  -32.5402   23.1060 H   0  0  0  0  0  0
  -25.0142  -33.9654   25.0425 H   0  0  0  0  0  0
  -22.7209  -31.2957   21.3949 H   0  0  0  0  0  0
  -23.3785  -35.9568   23.3291 H   0  0  0  0  0  0
  -24.3588  -36.8924   22.2060 H   0  0  0  0  0  0
  -23.7204  -37.6435   23.6705 H   0  0  0  0  0  0
  -26.1148  -31.5420   20.6135 H   0  0  0  0  0  0
  -26.8441  -30.8188   22.0145 H   0  0  0  0  0  0
  -28.1229  -28.9554   21.1815 H   0  0  0  0  0  0
  -25.9925  -25.8838   19.0390 H   0  0  0  0  0  0
  -23.9709  -27.2850   19.0202 H   0  0  0  0  0  0
  -23.7619  -30.5784   19.3996 H   0  0  0  0  0  0
  -22.7624  -29.2343   19.8587 H   0  0  0  0  0  0
  -25.1314  -36.1908   25.0824 H   0  0  0  0  0  0
  -20.9991  -28.3234   24.1400 H   0  0  0  0  0  0
  -20.5676  -26.2265   23.3649 H   0  0  0  0  0  0
  -21.6633  -26.7367   22.1210 H   0  0  0  0  0  0
  -19.6916  -25.6281   21.1215 H   0  0  0  0  0  0
  -19.6681  -27.3203   20.6782 H   0  0  0  0  0  0
  -17.4211  -26.6703   21.3998 H   0  0  0  0  0  0
  -18.0251  -26.0004   22.8970 H   0  0  0  0  0  0
  -19.7961  -30.7248   24.2225 H   0  0  0  0  0  0
  -17.5027  -31.6222   24.5184 H   0  0  0  0  0  0
  -15.5360  -30.2954   23.7638 H   0  0  0  0  0  0
  -15.8691  -28.0793   22.7059 H   0  0  0  0  0  0
  -24.5864  -30.7179   25.7745 H   0  0  0  0  0  0
  -24.9038  -32.2912   26.4922 H   0  0  0  0  0  0
  -25.8033  -30.8807   27.0178 H   0  0  0  0  0  0
  -26.2899  -29.6699   24.1284 H   0  0  0  0  0  0
  -27.4147  -29.7269   25.4664 H   0  0  0  0  0  0
  -27.8760  -30.4252   23.9342 H   0  0  0  0  0  0
  -27.2688  -33.3667   26.1951 H   0  0  0  0  0  0
  -28.3905  -32.6818   25.0286 H   0  0  0  0  0  0
  -28.0736  -31.8518   26.5431 H   0  0  0  0  0  0
  -28.2604  -38.0065   24.7510 H   0  0  0  0  0  0
  -28.1066  -36.2594   24.6320 H   0  0  0  0  0  0
  -27.2304  -37.1482   25.8867 H   0  0  0  0  0  0
  -20.9436  -29.8746   21.6899 H   0  0  0  0  0  0
  -26.0190  -38.2854   24.1389 H   0  0  0  0  0  0
  -30.5808  -20.1672   20.7494 H   0  0  0  0  0  0
  -30.6611  -18.0079   17.8469 H   0  0  0  0  0  0
  -31.8403  -16.8405   18.5426 H   0  0  0  0  0  0
  -30.1858  -15.2424   17.8205 H   0  0  0  0  0  0
  -28.8138  -16.3557   18.0324 H   0  0  0  0  0  0
  -31.0343  -17.6057   20.6532 H   0  0  0  0  0  0
  -26.1251  -18.4554   17.5849 H   0  0  0  0  0  0
  -26.0094  -20.1981   17.3768 H   0  0  0  0  0  0
  -25.2239  -19.4260   18.7530 H   0  0  0  0  0  0
  -29.2736  -24.0620   18.8734 H   0  0  0  0  0  0
  -27.6375  -23.5123   19.0116 H   0  0  0  0  0  0
  -28.9561  -24.9498   21.3633 H   0  0  0  0  0  0
  -27.2677  -24.8571   21.0479 H   0  0  0  0  0  0
  -30.0014  -22.6260   20.6523 H   0  0  0  0  0  0
  1 25  1  0  0  0
  1 30  2  0  0  0
  1 83  1  0  0  0
  2  3  1  0  0  0
  2 25  1  0  0  0
  2 85  1  0  0  0
  2 86  1  0  0  0
  3  4  1  0  0  0
  3 87  1  0  0  0
  3 88  1  0  0  0
  4  5  1  0  0  0
  4 89  1  0  0  0
  4 90  1  0  0  0
  5  6  1  0  0  0
  5 26  1  0  0  0
  5 91  1  0  0  0
  6 25  1  0  0  0
  6 92  1  0  0  0
  6 93  1  0  0  0
  7  8  2  0  0  0
  7 26  1  0  0  0
  7 29  1  0  0  0
  8  9  1  0  0  0
  8 22  1  0  0  0
  9 10  1  0  0  0
  9 27  2  0  0  0
 10 11  2  0  0  0
 10 15  1  0  0  0
 11 12  1  0  0  0
 11 94  1  0  0  0
 12 13  2  0  0  0
 12 95  1  0  0  0
 13 14  1  0  0  0
 13 31  1  0  0  0
 14 15  2  0  0  0
 14 96  1  0  0  0
 15 97  1  0  0  0
 16 17  2  0  0  0
 16 21  1  0  0  0
 16 31  1  0  0  0
 17 18  1  0  0  0
 17 98  1  0  0  0
 18 19  2  0  0  0
 18 99  1  0  0  0
 19 20  1  0  0  0
 19 24  1  0  0  0
 20 21  2  0  0  0
 20100  1  0  0  0
 21 23  1  0  0  0
 22 28  1  0  0  0
 22 32  2  0  0  0
 26 27  1  0  0  0
 28101  1  0  0  0
 28102  1  0  0  0
 29103  1  0  0  0
 29104  1  0  0  0
 33 34  1  0  0  0
 33 66  1  0  0  0
 33 70  2  0  0  0
 34 36  1  0  0  0
 34 59  1  0  0  0
 34105  1  0  0  0
 35 44  2  0  0  0
 35 45  1  0  0  0
 35 68  1  0  0  0
 36 56  1  0  0  0
 36106  1  0  0  0
 37 39  1  0  0  0
 37 47  1  0  0  0
 37 66  1  0  0  0
 37107  1  0  0  0
 38 43  2  0  0  0
 38 46  1  0  0  0
 38 47  1  0  0  0
 39 64  1  0  0  0
 39 67  2  0  0  0
 40 52  1  0  0  0
 40 53  2  0  0  0
 40 58  1  0  0  0
 41108  1  0  0  0
 41109  1  0  0  0
 41110  1  0  0  0
 41 48  1  0  0  0
 42 43  1  0  0  0
 42 66  1  0  0  0
 42111  1  0  0  0
 42112  1  0  0  0
 43 44  1  0  0  0
 44113  1  0  0  0
 45 46  2  0  0  0
 45114  1  0  0  0
 46115  1  0  0  0
 47116  1  0  0  0
 47117  1  0  0  0
 48 56  1  0  0  0
 48 65  1  0  0  0
 48118  1  0  0  0
 49 50  1  0  0  0
 49 53  1  0  0  0
 49 64  1  0  0  0
 49119  1  0  0  0
 50 51  1  0  0  0
 50120  1  0  0  0
 50121  1  0  0  0
 51 52  1  0  0  0
 51122  1  0  0  0
 51123  1  0  0  0
 52124  1  0  0  0
 52125  1  0  0  0
 53 54  1  0  0  0
 54 55  2  0  0  0
 54126  1  0  0  0
 55 57  1  0  0  0
 55127  1  0  0  0
 56 69  2  0  0  0
 57 58  2  0  0  0
 57128  1  0  0  0
 58129  1  0  0  0
 59 60  1  0  0  0
 59 61  1  0  0  0
 59 62  1  0  0  0
 60130  1  0  0  0
 60131  1  0  0  0
 60132  1  0  0  0
 61133  1  0  0  0
 61134  1  0  0  0
 61135  1  0  0  0
 62136  1  0  0  0
 62137  1  0  0  0
 62138  1  0  0  0
 63 65  1  0  0  0
 63139  1  0  0  0
 63140  1  0  0  0
 63141  1  0  0  0
 64142  1  0  0  0
 65143  1  0  0  0
 68 80  1  0  0  0
 71 72  2  0  0  0
 71 73  1  0  0  0
 71144  1  0  0  0
 72 81  1  0  0  0
 72 77  1  0  0  0
 73 82  2  0  0  0
 73 84  1  0  0  0
 74 78  1  0  0  0
 74 81  2  0  0  0
 74 82  1  0  0  0
 75 76  1  0  0  0
 75 77  1  0  0  0
 75145  1  0  0  0
 75146  1  0  0  0
 76 83  1  0  0  0
 76147  1  0  0  0
 76148  1  0  0  0
 77 83  1  0  0  0
 77149  1  0  0  0
 78150  1  0  0  0
 78151  1  0  0  0
 78152  1  0  0  0
 79 80  1  0  0  0
 79 84  1  0  0  0
 79153  1  0  0  0
 79154  1  0  0  0
 80155  1  0  0  0
 80156  1  0  0  0
 84157  1  0  0  0
M  ISO  4   1 100  68 101  80 101  83 100
M  END
> <chiral flag>
0

> <version>
0

> <s_m_source_file>
/data/baiqing/PycharmProjects/Reinvent-master-3.2/result/LINK_invent/BTK/process_docking_weight1_custom_sum_contain_oxygen_bond_distance_aromatic_linkinvent_7_9_3/rearranged_h_0186.sdf

> <i_m_source_file_index>
36

> <r_mmod_Potential_Energy-OPLS-2005>
-322.148864746094

> <r_mmod_Stretch_Energy-OPLS-2005>
113.648262023926

> <r_mmod_Bend_Energy-OPLS-2005>
196.021255493164

> <r_mmod_Torsional_Energy-OPLS-2005>
292.245422363281

> <r_mmod_Improper_Torsional_Energy-OPLS-2005>
23.7848129272461

> <r_mmod_Van_der_Waal_Energy-OPLS-2005>
150.727478027344

> <r_mmod_Electrostatic_Energy-OPLS-2005>
-975.170288085938

> <r_mmod_Solvation_Energy-OPLS-2005>
-230.025924682617

> <b_mmod_Minimization_Converged-OPLS-2005>
0

> <r_mmod_RMS_Derivative-OPLS-2005>
4.02734756469727

$$$$
37
                    3D
 Structure written by MMmdl.
150158  0  0  1  0            999 V2000
  -30.3905  -15.3359   20.3346 C   0  0  0  0  0  0
  -30.4395  -12.8511   19.5583 C   0  0  0  0  0  0
  -29.5469  -12.5853   18.3172 C   0  0  0  0  0  0
  -28.1010  -12.2851   18.7407 C   0  0  0  0  0  0
  -27.6102  -13.2753   19.8246 C   0  0  2  0  0  0
  -28.6293  -13.4959   20.9671 C   0  0  0  0  0  0
  -25.2386  -13.8248   20.5723 C   0  0  0  0  0  0
  -24.1733  -13.0453   20.9272 C   0  0  0  0  0  0
  -24.6363  -11.6957   20.8755 C   0  0  0  0  0  0
  -23.9061  -10.4306   21.0402 C   0  0  0  0  0  0
  -24.3602   -9.4221   21.9179 C   0  0  0  0  0  0
  -23.6287   -8.2245   22.0749 C   0  0  0  0  0  0
  -22.4274   -8.0276   21.3528 C   0  0  0  0  0  0
  -21.9903   -9.0261   20.4629 C   0  0  0  0  0  0
  -22.7227  -10.2142   20.3056 C   0  0  0  0  0  0
  -21.6859   -6.0736   22.5277 C   0  0  0  0  0  0
  -21.4021   -6.5625   23.8217 C   0  0  0  0  0  0
  -21.3656   -5.6765   24.9169 C   0  0  0  0  0  0
  -21.6038   -4.3033   24.7213 C   0  0  0  0  0  0
  -21.8817   -3.8143   23.4326 C   0  0  0  0  0  0
  -21.9190   -4.6966   22.3394 C   0  0  0  0  0  0
  -22.7752  -13.5226   21.1914 C   0  0  0  0  0  0
  -22.1657   -4.2157   21.0966 F   0  0  0  0  0  0
  -21.5627   -3.4506   25.7718 F   0  0  0  0  0  0
  -29.8633  -14.0062   20.3459 N   0  0  0  0  0  0
  -26.2789  -12.9513   20.3204 N   0  0  0  0  0  0
  -25.9300  -11.6615   20.5728 N   0  0  0  0  0  0
  -22.0371  -12.8240   22.0452 N   0  0  0  0  0  0
  -25.4031  -15.1970   20.4095 N   0  0  0  0  0  0
  -31.5996  -15.3549   20.0545 O   0  0  0  0  0  0
  -21.6621   -6.8885   21.4245 O   0  0  0  0  0  0
  -22.3439  -14.5503   20.6713 O   0  0  0  0  0  0
  -24.6673  -31.8205   23.1685 C   0  0  0  0  0  0
  -25.9318  -32.4584   23.8175 C   0  0  1  0  0  0
  -27.2141  -26.8966   20.1716 C   0  0  0  0  0  0
  -25.5974  -33.8398   24.2106 N   0  0  0  0  0  0
  -23.4812  -30.4329   21.5213 C   0  0  2  0  0  0
  -24.9334  -28.8144   20.1063 C   0  0  0  0  0  0
  -22.7681  -29.4467   22.4820 C   0  0  0  0  0  0
  -18.0344  -28.1328   22.8535 C   0  0  0  0  0  0
  -24.1502  -36.7197   23.2653 C   0  0  0  0  0  0
  -26.0538  -30.6133   21.4014 C   0  0  0  0  0  0
  -26.1186  -29.2010   20.7452 C   0  0  0  0  0  0
  -27.2513  -28.2636   20.7505 C   0  0  0  0  0  0
  -26.0020  -26.6714   19.4783 C   0  0  0  0  0  0
  -24.9048  -27.5752   19.4482 C   0  0  0  0  0  0
  -23.7184  -29.7439   20.1492 C   0  0  0  0  0  0
  -25.4130  -36.2973   24.0325 C   0  0  1  0  0  0
  -20.5971  -28.3725   23.1107 C   0  0  2  0  0  0
  -20.6897  -26.9482   22.5100 C   0  0  0  0  0  0
  -19.5640  -26.6333   21.5175 C   0  0  0  0  0  0
  -18.1957  -26.7784   22.1849 C   0  0  0  0  0  0
  -19.1606  -28.8852   23.2805 C   0  0  0  0  0  0
  -18.9506  -30.1451   23.8817 C   0  0  0  0  0  0
  -17.6489  -30.6530   24.0534 C   0  0  0  0  0  0
  -25.9095  -34.9345   23.5036 C   0  0  0  0  0  0
  -16.5375  -29.9020   23.6320 C   0  0  0  0  0  0
  -16.7309  -28.6427   23.0378 C   0  0  0  0  0  0
  -26.4548  -31.6523   25.0690 C   0  0  0  0  0  0
  -25.3694  -31.3747   26.1361 C   0  0  0  0  0  0
  -27.0426  -30.2899   24.6375 C   0  0  0  0  0  0
  -27.6050  -32.4320   25.7473 C   0  0  0  0  0  0
  -27.5573  -37.1759   24.8468 C   0  0  0  0  0  0
  -21.4349  -29.3093   22.3558 N   0  0  0  0  0  0
  -26.4276  -37.3708   23.9415 N   0  0  0  0  0  0
  -24.7559  -30.9830   22.0848 N   0  0  0  0  0  0
  -23.4227  -28.7989   23.3026 O   0  0  0  0  0  0
  -28.2145  -25.7829   20.2789 O   0  0  0  0  0  0
  -26.5697  -34.8849   22.4637 O   0  0  0  0  0  0
  -23.5752  -32.1206   23.6789 O   0  0  0  0  0  0
  -28.2569  -18.7193   19.2013 C   0  0  0  0  0  0
  -27.9034  -20.2939   19.3773 C   0  0  0  0  0  0
  -29.6237  -19.7443   20.8071 C   0  0  0  0  0  0
  -29.5460  -18.2265   19.9816 C   0  0  1  0  0  0
  -28.8274  -22.6200   20.6010 C   0  0  0  0  0  0
  -28.0920  -24.1500   19.9372 C   0  0  0  0  0  0
  -29.5911  -16.5944   20.4526 N   0  0  0  0  0  0
  -29.0215  -21.0359   20.0299 N   0  3  2  0  0  0
  -31.4555  -13.0679   19.2299 H   0  0  0  0  0  0
  -30.5237  -11.9611   20.1853 H   0  0  0  0  0  0
  -29.9525  -11.7609   17.7299 H   0  0  0  0  0  0
  -29.5584  -13.4622   17.6691 H   0  0  0  0  0  0
  -28.0769  -11.2699   19.1369 H   0  0  0  0  0  0
  -27.4349  -12.2948   17.8769 H   0  0  0  0  0  0
  -27.5108  -14.2273   19.3009 H   0  0  0  0  0  0
  -28.8053  -12.5830   21.5382 H   0  0  0  0  0  0
  -28.2426  -14.2357   21.6736 H   0  0  0  0  0  0
  -25.2731   -9.5696   22.4784 H   0  0  0  0  0  0
  -23.9993   -7.4624   22.7463 H   0  0  0  0  0  0
  -21.0836   -8.8757   19.8936 H   0  0  0  0  0  0
  -22.3664  -10.9680   19.6182 H   0  0  0  0  0  0
  -21.2028   -7.6130   23.9733 H   0  0  0  0  0  0
  -21.1481   -6.0477   25.9073 H   0  0  0  0  0  0
  -22.0614   -2.7612   23.2800 H   0  0  0  0  0  0
  -22.3944  -11.9905   22.4868 H   0  0  0  0  0  0
  -21.1004  -13.1340   22.2641 H   0  0  0  0  0  0
  -24.6222  -15.8399   20.4816 H   0  0  0  0  0  0
  -26.2244  -15.6217   20.0028 H   0  0  0  0  0  0
  -26.7377  -32.5090   23.0886 H   0  0  0  0  0  0
  -25.0096  -33.9468   25.0240 H   0  0  0  0  0  0
  -22.7990  -31.2686   21.3515 H   0  0  0  0  0  0
  -23.3773  -35.9529   23.3286 H   0  0  0  0  0  0
  -24.3600  -36.8849   22.2077 H   0  0  0  0  0  0
  -23.7226  -37.6367   23.6704 H   0  0  0  0  0  0
  -26.2334  -31.3476   20.6162 H   0  0  0  0  0  0
  -26.9179  -30.6800   22.0496 H   0  0  0  0  0  0
  -28.1524  -28.5570   21.2721 H   0  0  0  0  0  0
  -25.8588  -25.7242   18.9816 H   0  0  0  0  0  0
  -24.0060  -27.2849   18.9200 H   0  0  0  0  0  0
  -23.8603  -30.5100   19.3867 H   0  0  0  0  0  0
  -22.8245  -29.1937   19.8455 H   0  0  0  0  0  0
  -25.1329  -36.1811   25.0824 H   0  0  0  0  0  0
  -21.0078  -28.3212   24.1206 H   0  0  0  0  0  0
  -20.6258  -26.2236   23.3235 H   0  0  0  0  0  0
  -21.6633  -26.7782   22.0483 H   0  0  0  0  0  0
  -19.6750  -25.6234   21.1191 H   0  0  0  0  0  0
  -19.6265  -27.3139   20.6682 H   0  0  0  0  0  0
  -17.4028  -26.6234   21.4505 H   0  0  0  0  0  0
  -18.0624  -26.0045   22.9435 H   0  0  0  0  0  0
  -19.7964  -30.7323   24.2164 H   0  0  0  0  0  0
  -17.5017  -31.6219   24.5120 H   0  0  0  0  0  0
  -15.5376  -30.2926   23.7644 H   0  0  0  0  0  0
  -15.8717  -28.0704   22.7131 H   0  0  0  0  0  0
  -24.5887  -30.7080   25.7673 H   0  0  0  0  0  0
  -24.8842  -32.2924   26.4688 H   0  0  0  0  0  0
  -25.7939  -30.8975   27.0206 H   0  0  0  0  0  0
  -26.3079  -29.6587   24.1351 H   0  0  0  0  0  0
  -27.3954  -29.7240   25.5005 H   0  0  0  0  0  0
  -27.9034  -30.4081   23.9790 H   0  0  0  0  0  0
  -27.2641  -33.3675   26.1917 H   0  0  0  0  0  0
  -28.3910  -32.6799   25.0326 H   0  0  0  0  0  0
  -28.0671  -31.8530   26.5475 H   0  0  0  0  0  0
  -28.2586  -38.0061   24.7518 H   0  0  0  0  0  0
  -28.1080  -36.2585   24.6321 H   0  0  0  0  0  0
  -27.2283  -37.1427   25.8867 H   0  0  0  0  0  0
  -20.9626  -29.8815   21.6692 H   0  0  0  0  0  0
  -26.0140  -38.2781   24.1397 H   0  0  0  0  0  0
  -28.3735  -18.4982   18.1401 H   0  0  0  0  0  0
  -27.3858  -18.1405   19.5081 H   0  0  0  0  0  0
  -27.0176  -20.3995   20.0038 H   0  0  0  0  0  0
  -27.6535  -20.7494   18.4183 H   0  0  0  0  0  0
  -30.6537  -19.9497   21.0997 H   0  0  0  0  0  0
  -29.0811  -19.6595   21.7491 H   0  0  0  0  0  0
  -30.3595  -18.2759   19.2562 H   0  0  0  0  0  0
  -28.3853  -22.5047   21.5896 H   0  0  0  0  0  0
  -29.8592  -22.9044   20.8126 H   0  0  0  0  0  0
  -27.0199  -23.9528   19.9596 H   0  0  0  0  0  0
  -28.3337  -24.1190   18.8742 H   0  0  0  0  0  0
  -28.6796  -16.3366   20.8022 H   0  0  0  0  0  0
  -29.6810  -21.1623   19.2743 H   0  0  0  0  0  0
  1 25  1  0  0  0
  1 30  2  0  0  0
  1 77  1  0  0  0
  2  3  1  0  0  0
  2 25  1  0  0  0
  2 79  1  0  0  0
  2 80  1  0  0  0
  3  4  1  0  0  0
  3 81  1  0  0  0
  3 82  1  0  0  0
  4  5  1  0  0  0
  4 83  1  0  0  0
  4 84  1  0  0  0
  5  6  1  0  0  0
  5 26  1  0  0  0
  5 85  1  0  0  0
  6 25  1  0  0  0
  6 86  1  0  0  0
  6 87  1  0  0  0
  7  8  2  0  0  0
  7 26  1  0  0  0
  7 29  1  0  0  0
  8  9  1  0  0  0
  8 22  1  0  0  0
  9 10  1  0  0  0
  9 27  2  0  0  0
 10 11  2  0  0  0
 10 15  1  0  0  0
 11 12  1  0  0  0
 11 88  1  0  0  0
 12 13  2  0  0  0
 12 89  1  0  0  0
 13 14  1  0  0  0
 13 31  1  0  0  0
 14 15  2  0  0  0
 14 90  1  0  0  0
 15 91  1  0  0  0
 16 17  2  0  0  0
 16 21  1  0  0  0
 16 31  1  0  0  0
 17 18  1  0  0  0
 17 92  1  0  0  0
 18 19  2  0  0  0
 18 93  1  0  0  0
 19 20  1  0  0  0
 19 24  1  0  0  0
 20 21  2  0  0  0
 20 94  1  0  0  0
 21 23  1  0  0  0
 22 28  1  0  0  0
 22 32  2  0  0  0
 26 27  1  0  0  0
 28 95  1  0  0  0
 28 96  1  0  0  0
 29 97  1  0  0  0
 29 98  1  0  0  0
 33 34  1  0  0  0
 33 66  1  0  0  0
 33 70  2  0  0  0
 34 36  1  0  0  0
 34 59  1  0  0  0
 34 99  1  0  0  0
 35 44  2  0  0  0
 35 45  1  0  0  0
 35 68  1  0  0  0
 36 56  1  0  0  0
 36100  1  0  0  0
 37 39  1  0  0  0
 37 47  1  0  0  0
 37 66  1  0  0  0
 37101  1  0  0  0
 38 43  2  0  0  0
 38 46  1  0  0  0
 38 47  1  0  0  0
 39 64  1  0  0  0
 39 67  2  0  0  0
 40 52  1  0  0  0
 40 53  2  0  0  0
 40 58  1  0  0  0
 41102  1  0  0  0
 41103  1  0  0  0
 41104  1  0  0  0
 41 48  1  0  0  0
 42 43  1  0  0  0
 42 66  1  0  0  0
 42105  1  0  0  0
 42106  1  0  0  0
 43 44  1  0  0  0
 44107  1  0  0  0
 45 46  2  0  0  0
 45108  1  0  0  0
 46109  1  0  0  0
 47110  1  0  0  0
 47111  1  0  0  0
 48 56  1  0  0  0
 48 65  1  0  0  0
 48112  1  0  0  0
 49 50  1  0  0  0
 49 53  1  0  0  0
 49 64  1  0  0  0
 49113  1  0  0  0
 50 51  1  0  0  0
 50114  1  0  0  0
 50115  1  0  0  0
 51 52  1  0  0  0
 51116  1  0  0  0
 51117  1  0  0  0
 52118  1  0  0  0
 52119  1  0  0  0
 53 54  1  0  0  0
 54 55  2  0  0  0
 54120  1  0  0  0
 55 57  1  0  0  0
 55121  1  0  0  0
 56 69  2  0  0  0
 57 58  2  0  0  0
 57122  1  0  0  0
 58123  1  0  0  0
 59 60  1  0  0  0
 59 61  1  0  0  0
 59 62  1  0  0  0
 60124  1  0  0  0
 60125  1  0  0  0
 60126  1  0  0  0
 61127  1  0  0  0
 61128  1  0  0  0
 61129  1  0  0  0
 62130  1  0  0  0
 62131  1  0  0  0
 62132  1  0  0  0
 63 65  1  0  0  0
 63133  1  0  0  0
 63134  1  0  0  0
 63135  1  0  0  0
 64136  1  0  0  0
 65137  1  0  0  0
 68 76  1  0  0  0
 71 72  1  0  0  0
 71 74  1  0  0  0
 71138  1  0  0  0
 71139  1  0  0  0
 72 78  1  0  0  0
 72140  1  0  0  0
 72141  1  0  0  0
 73 74  1  0  0  0
 73 78  1  0  0  0
 73142  1  0  0  0
 73143  1  0  0  0
 74 77  1  0  0  0
 74144  1  0  0  0
 75 76  1  0  0  0
 75145  1  0  0  0
 75146  1  0  0  0
 75 78  1  0  0  0
 76147  1  0  0  0
 76148  1  0  0  0
 77149  1  0  0  0
 78150  1  0  0  0
M  CHG  1  78   1
M  ISO  4   1 100  68 101  76 101  77 100
M  END
> <chiral flag>
0

> <version>
0

> <s_m_source_file>
/data/baiqing/PycharmProjects/Reinvent-master-3.2/result/LINK_invent/BTK/process_docking_weight1_custom_sum_contain_oxygen_bond_distance_aromatic_linkinvent_7_9_3/rearranged_h_0186.sdf

> <i_m_source_file_index>
37

> <r_mmod_Potential_Energy-OPLS-2005>
1360.91271972656

> <r_mmod_Stretch_Energy-OPLS-2005>
623.59765625

> <r_mmod_Bend_Energy-OPLS-2005>
521.831970214844

> <r_mmod_Torsional_Energy-OPLS-2005>
273.570373535156

> <r_mmod_Improper_Torsional_Energy-OPLS-2005>
4.57925128936768

> <r_mmod_Van_der_Waal_Energy-OPLS-2005>
105.543487548828

> <r_mmod_Electrostatic_Energy-OPLS-2005>
-234.801788330078

> <r_mmod_Solvation_Energy-OPLS-2005>
-462.451995849609

> <b_mmod_Minimization_Converged-OPLS-2005>
0

> <r_mmod_RMS_Derivative-OPLS-2005>
4.75067710876465

$$$$
38
                    3D
 Structure written by MMmdl.
152161  0  0  1  0            999 V2000
  -30.4998  -15.0312   20.4613 C   0  0  0  0  0  0
  -30.4441  -12.6495   19.5398 C   0  0  0  0  0  0
  -29.5480  -12.5552   18.2829 C   0  0  0  0  0  0
  -28.0713  -12.3445   18.6688 C   0  0  0  0  0  0
  -27.6271  -13.2623   19.8400 C   0  0  2  0  0  0
  -28.6554  -13.3015   20.9917 C   0  0  0  0  0  0
  -25.2448  -13.8233   20.5701 C   0  0  0  0  0  0
  -24.1766  -13.0434   20.9210 C   0  0  0  0  0  0
  -24.6384  -11.6911   20.8722 C   0  0  0  0  0  0
  -23.9063  -10.4304   21.0401 C   0  0  0  0  0  0
  -24.3623   -9.4216   21.9155 C   0  0  0  0  0  0
  -23.6317   -8.2236   22.0719 C   0  0  0  0  0  0
  -22.4299   -8.0261   21.3480 C   0  0  0  0  0  0
  -21.9927   -9.0264   20.4592 C   0  0  0  0  0  0
  -22.7253  -10.2151   20.3026 C   0  0  0  0  0  0
  -21.6874   -6.0729   22.5273 C   0  0  0  0  0  0
  -21.4042   -6.5630   23.8210 C   0  0  0  0  0  0
  -21.3663   -5.6777   24.9154 C   0  0  0  0  0  0
  -21.6035   -4.3041   24.7225 C   0  0  0  0  0  0
  -21.8801   -3.8140   23.4344 C   0  0  0  0  0  0
  -21.9213   -4.6951   22.3401 C   0  0  0  0  0  0
  -22.7787  -13.5229   21.1879 C   0  0  0  0  0  0
  -22.1645   -4.2129   21.0964 F   0  0  0  0  0  0
  -21.5635   -3.4500   25.7739 F   0  0  0  0  0  0
  -29.9275  -13.7523   20.4134 N   0  0  0  0  0  0
  -26.2866  -12.9478   20.3181 N   0  0  0  0  0  0
  -25.9340  -11.6599   20.5692 N   0  0  0  0  0  0
  -22.0387  -12.8241   22.0413 N   0  0  0  0  0  0
  -25.4118  -15.1974   20.4155 N   0  0  0  0  0  0
  -31.6955  -15.0871   20.1425 O   0  0  0  0  0  0
  -21.6619   -6.8867   21.4219 O   0  0  0  0  0  0
  -22.3459  -14.5502   20.6662 O   0  0  0  0  0  0
  -24.6487  -31.8365   23.1840 C   0  0  0  0  0  0
  -25.9229  -32.4644   23.8257 C   0  0  1  0  0  0
  -27.2078  -27.0780   20.1748 C   0  0  0  0  0  0
  -25.5973  -33.8460   24.2173 N   0  0  0  0  0  0
  -23.4546  -30.4573   21.5305 C   0  0  2  0  0  0
  -24.9063  -28.8765   20.1104 C   0  0  0  0  0  0
  -22.7606  -29.4495   22.4821 C   0  0  0  0  0  0
  -18.0301  -28.1337   22.8471 C   0  0  0  0  0  0
  -24.1498  -36.7240   23.2637 C   0  0  0  0  0  0
  -26.0169  -30.6954   21.3935 C   0  0  0  0  0  0
  -26.0871  -29.3040   20.7323 C   0  0  0  0  0  0
  -27.2410  -28.4251   20.7400 C   0  0  0  0  0  0
  -26.0045  -26.7726   19.5041 C   0  0  0  0  0  0
  -24.8838  -27.6289   19.4728 C   0  0  0  0  0  0
  -23.6860  -29.7851   20.1502 C   0  0  0  0  0  0
  -25.4128  -36.3010   24.0316 C   0  0  1  0  0  0
  -20.5938  -28.3673   23.1196 C   0  0  2  0  0  0
  -20.6788  -26.9362   22.5378 C   0  0  0  0  0  0
  -19.5765  -26.6321   21.5188 C   0  0  0  0  0  0
  -18.1957  -26.7880   22.1615 C   0  0  0  0  0  0
  -19.1586  -28.8823   23.2828 C   0  0  0  0  0  0
  -18.9489  -30.1436   23.8828 C   0  0  0  0  0  0
  -17.6481  -30.6546   24.0549 C   0  0  0  0  0  0
  -25.9082  -34.9380   23.5050 C   0  0  0  0  0  0
  -16.5353  -29.9024   23.6341 C   0  0  0  0  0  0
  -16.7298  -28.6444   23.0360 C   0  0  0  0  0  0
  -26.4536  -31.6533   25.0728 C   0  0  0  0  0  0
  -25.3712  -31.3750   26.1425 C   0  0  0  0  0  0
  -27.0417  -30.2908   24.6371 C   0  0  0  0  0  0
  -27.6076  -32.4289   25.7507 C   0  0  0  0  0  0
  -27.5591  -37.1774   24.8459 C   0  0  0  0  0  0
  -21.4287  -29.3002   22.3571 N   0  0  0  0  0  0
  -26.4297  -37.3722   23.9398 N   0  0  0  0  0  0
  -24.7261  -31.0196   22.0902 N   0  0  0  0  0  0
  -23.4229  -28.8031   23.2974 O   0  0  0  0  0  0
  -28.2408  -26.0582   20.2482 O   0  0  0  0  0  0
  -26.5673  -34.8888   22.4636 O   0  0  0  0  0  0
  -23.5583  -32.1274   23.7025 O   0  0  0  0  0  0
  -28.4579  -19.6487   21.8380 C   0  0  0  0  0  0
  -28.1881  -20.9799   21.7060 C   0  0  0  0  0  0
  -29.3071  -19.2282   20.7556 C   0  0  0  0  0  0
  -27.4030  -21.4441   22.8459 C   0  0  0  0  0  0
  -27.8660  -19.1404   23.1199 C   0  0  0  0  0  0
  -30.1151  -17.7823   20.4360 C   0  0  0  0  0  0
  -29.0386  -23.1840   20.3077 C   0  0  0  0  0  0
  -27.9387  -24.5020   20.3323 C   0  0  0  0  0  0
  -29.5037  -20.4742   20.0801 N   0  0  0  0  0  0
  -28.8041  -21.6220   20.6405 N   0  0  0  0  0  0
  -27.2362  -20.3746   23.6418 N   0  0  0  0  0  0
  -29.7401  -16.2374   20.6657 N   0  0  0  0  0  0
  -26.9886  -22.5880   23.0479 O   0  0  0  0  0  0
  -31.4747  -12.8305   19.2373 H   0  0  0  0  0  0
  -30.4598  -11.7014   20.0850 H   0  0  0  0  0  0
  -29.8933  -11.7480   17.6372 H   0  0  0  0  0  0
  -29.6492  -13.4766   17.7081 H   0  0  0  0  0  0
  -27.9478  -11.2996   18.9535 H   0  0  0  0  0  0
  -27.4346  -12.4983   17.7942 H   0  0  0  0  0  0
  -27.5910  -14.2677   19.4218 H   0  0  0  0  0  0
  -28.7614  -12.3213   21.4654 H   0  0  0  0  0  0
  -28.3240  -13.9825   21.7777 H   0  0  0  0  0  0
  -25.2765   -9.5727   22.4729 H   0  0  0  0  0  0
  -24.0011   -7.4657   22.7493 H   0  0  0  0  0  0
  -21.0816   -8.8797   19.8974 H   0  0  0  0  0  0
  -22.3674  -10.9682   19.6118 H   0  0  0  0  0  0
  -21.2017   -7.6135   23.9708 H   0  0  0  0  0  0
  -21.1492   -6.0488   25.9062 H   0  0  0  0  0  0
  -22.0600   -2.7593   23.2827 H   0  0  0  0  0  0
  -22.4010  -11.9978   22.4961 H   0  0  0  0  0  0
  -21.0960  -13.1272   22.2469 H   0  0  0  0  0  0
  -24.6532  -15.8554   20.5516 H   0  0  0  0  0  0
  -26.2398  -15.6317   20.0274 H   0  0  0  0  0  0
  -26.7311  -32.5205   23.1005 H   0  0  0  0  0  0
  -25.0151  -33.9569   25.0337 H   0  0  0  0  0  0
  -22.7613  -31.2870   21.3720 H   0  0  0  0  0  0
  -23.3777  -35.9560   23.3279 H   0  0  0  0  0  0
  -24.3594  -36.8894   22.2060 H   0  0  0  0  0  0
  -23.7260  -37.6430   23.6684 H   0  0  0  0  0  0
  -26.1937  -31.4527   20.6283 H   0  0  0  0  0  0
  -26.8791  -30.7320   22.0486 H   0  0  0  0  0  0
  -28.1374  -28.7522   21.2464 H   0  0  0  0  0  0
  -25.8880  -25.8208   19.0087 H   0  0  0  0  0  0
  -23.9889  -27.3003   18.9611 H   0  0  0  0  0  0
  -23.8253  -30.5578   19.3919 H   0  0  0  0  0  0
  -22.7998  -29.2281   19.8374 H   0  0  0  0  0  0
  -25.1330  -36.1849   25.0817 H   0  0  0  0  0  0
  -21.0059  -28.3240   24.1311 H   0  0  0  0  0  0
  -20.5641  -26.2285   23.3611 H   0  0  0  0  0  0
  -21.6654  -26.7324   22.1215 H   0  0  0  0  0  0
  -19.6926  -25.6228   21.1236 H   0  0  0  0  0  0
  -19.6708  -27.3122   20.6723 H   0  0  0  0  0  0
  -17.4234  -26.6635   21.4003 H   0  0  0  0  0  0
  -18.0360  -25.9993   22.8994 H   0  0  0  0  0  0
  -19.7960  -30.7285   24.2152 H   0  0  0  0  0  0
  -17.5016  -31.6226   24.5147 H   0  0  0  0  0  0
  -15.5363  -30.2908   23.7641 H   0  0  0  0  0  0
  -15.8723  -28.0737   22.7093 H   0  0  0  0  0  0
  -24.5872  -30.7126   25.7730 H   0  0  0  0  0  0
  -24.8944  -32.2948   26.4804 H   0  0  0  0  0  0
  -25.7982  -30.8935   27.0227 H   0  0  0  0  0  0
  -26.3053  -29.6600   24.1378 H   0  0  0  0  0  0
  -27.3993  -29.7248   25.4981 H   0  0  0  0  0  0
  -27.8979  -30.4123   23.9738 H   0  0  0  0  0  0
  -27.2679  -33.3587   26.2073 H   0  0  0  0  0  0
  -28.3890  -32.6833   25.0337 H   0  0  0  0  0  0
  -28.0746  -31.8431   26.5436 H   0  0  0  0  0  0
  -28.2579  -38.0091   24.7531 H   0  0  0  0  0  0
  -28.1116  -36.2632   24.6259 H   0  0  0  0  0  0
  -27.2317  -37.1401   25.8858 H   0  0  0  0  0  0
  -20.9487  -29.8760   21.6815 H   0  0  0  0  0  0
  -26.0172  -38.2793   24.1383 H   0  0  0  0  0  0
  -28.6289  -18.8015   23.8207 H   0  0  0  0  0  0
  -27.1265  -18.3494   22.9956 H   0  0  0  0  0  0
  -31.0652  -17.8823   20.9630 H   0  0  0  0  0  0
  -30.4111  -17.8185   19.3862 H   0  0  0  0  0  0
  -29.8210  -23.4857   21.0068 H   0  0  0  0  0  0
  -29.5164  -23.1957   19.3272 H   0  0  0  0  0  0
  -27.3399  -24.3910   21.2344 H   0  0  0  0  0  0
  -27.2443  -24.2831   19.5236 H   0  0  0  0  0  0
  -26.7351  -20.4074   24.5198 H   0  0  0  0  0  0
  -28.7768  -16.0851   20.9206 H   0  0  0  0  0  0
  1 25  1  0  0  0
  1 30  2  0  0  0
  1 82  1  0  0  0
  2  3  1  0  0  0
  2 25  1  0  0  0
  2 84  1  0  0  0
  2 85  1  0  0  0
  3  4  1  0  0  0
  3 86  1  0  0  0
  3 87  1  0  0  0
  4  5  1  0  0  0
  4 88  1  0  0  0
  4 89  1  0  0  0
  5  6  1  0  0  0
  5 26  1  0  0  0
  5 90  1  0  0  0
  6 25  1  0  0  0
  6 91  1  0  0  0
  6 92  1  0  0  0
  7  8  2  0  0  0
  7 26  1  0  0  0
  7 29  1  0  0  0
  8  9  1  0  0  0
  8 22  1  0  0  0
  9 10  1  0  0  0
  9 27  2  0  0  0
 10 11  2  0  0  0
 10 15  1  0  0  0
 11 12  1  0  0  0
 11 93  1  0  0  0
 12 13  2  0  0  0
 12 94  1  0  0  0
 13 14  1  0  0  0
 13 31  1  0  0  0
 14 15  2  0  0  0
 14 95  1  0  0  0
 15 96  1  0  0  0
 16 17  2  0  0  0
 16 21  1  0  0  0
 16 31  1  0  0  0
 17 18  1  0  0  0
 17 97  1  0  0  0
 18 19  2  0  0  0
 18 98  1  0  0  0
 19 20  1  0  0  0
 19 24  1  0  0  0
 20 21  2  0  0  0
 20 99  1  0  0  0
 21 23  1  0  0  0
 22 28  1  0  0  0
 22 32  2  0  0  0
 26 27  1  0  0  0
 28100  1  0  0  0
 28101  1  0  0  0
 29102  1  0  0  0
 29103  1  0  0  0
 33 34  1  0  0  0
 33 66  1  0  0  0
 33 70  2  0  0  0
 34 36  1  0  0  0
 34 59  1  0  0  0
 34104  1  0  0  0
 35 44  2  0  0  0
 35 45  1  0  0  0
 35 68  1  0  0  0
 36 56  1  0  0  0
 36105  1  0  0  0
 37 39  1  0  0  0
 37 47  1  0  0  0
 37 66  1  0  0  0
 37106  1  0  0  0
 38 43  2  0  0  0
 38 46  1  0  0  0
 38 47  1  0  0  0
 39 64  1  0  0  0
 39 67  2  0  0  0
 40 52  1  0  0  0
 40 53  2  0  0  0
 40 58  1  0  0  0
 41107  1  0  0  0
 41108  1  0  0  0
 41109  1  0  0  0
 41 48  1  0  0  0
 42 43  1  0  0  0
 42 66  1  0  0  0
 42110  1  0  0  0
 42111  1  0  0  0
 43 44  1  0  0  0
 44112  1  0  0  0
 45 46  2  0  0  0
 45113  1  0  0  0
 46114  1  0  0  0
 47115  1  0  0  0
 47116  1  0  0  0
 48 56  1  0  0  0
 48 65  1  0  0  0
 48117  1  0  0  0
 49 50  1  0  0  0
 49 53  1  0  0  0
 49 64  1  0  0  0
 49118  1  0  0  0
 50 51  1  0  0  0
 50119  1  0  0  0
 50120  1  0  0  0
 51 52  1  0  0  0
 51121  1  0  0  0
 51122  1  0  0  0
 52123  1  0  0  0
 52124  1  0  0  0
 53 54  1  0  0  0
 54 55  2  0  0  0
 54125  1  0  0  0
 55 57  1  0  0  0
 55126  1  0  0  0
 56 69  2  0  0  0
 57 58  2  0  0  0
 57127  1  0  0  0
 58128  1  0  0  0
 59 60  1  0  0  0
 59 61  1  0  0  0
 59 62  1  0  0  0
 60129  1  0  0  0
 60130  1  0  0  0
 60131  1  0  0  0
 61132  1  0  0  0
 61133  1  0  0  0
 61134  1  0  0  0
 62135  1  0  0  0
 62136  1  0  0  0
 62137  1  0  0  0
 63 65  1  0  0  0
 63138  1  0  0  0
 63139  1  0  0  0
 63140  1  0  0  0
 64141  1  0  0  0
 65142  1  0  0  0
 68 78  1  0  0  0
 71 72  2  0  0  0
 71 73  1  0  0  0
 71 75  1  0  0  0
 72 74  1  0  0  0
 72 80  1  0  0  0
 73 76  1  0  0  0
 73 79  2  0  0  0
 74 81  1  0  0  0
 74 83  2  0  0  0
 75 81  1  0  0  0
 75143  1  0  0  0
 75144  1  0  0  0
 76 82  1  0  0  0
 76145  1  0  0  0
 76146  1  0  0  0
 77 78  1  0  0  0
 77 80  1  0  0  0
 77147  1  0  0  0
 77148  1  0  0  0
 78149  1  0  0  0
 78150  1  0  0  0
 79 80  1  0  0  0
 81151  1  0  0  0
 82152  1  0  0  0
M  ISO  4   1 100  68 101  78 101  82 100
M  END
> <chiral flag>
0

> <version>
0

> <s_m_source_file>
/data/baiqing/PycharmProjects/Reinvent-master-3.2/result/LINK_invent/BTK/process_docking_weight1_custom_sum_contain_oxygen_bond_distance_aromatic_linkinvent_7_9_3/rearranged_h_0186.sdf

> <i_m_source_file_index>
38

> <r_mmod_Potential_Energy-OPLS-2005>
645.377624511719

> <r_mmod_Stretch_Energy-OPLS-2005>
337.711273193359

> <r_mmod_Bend_Energy-OPLS-2005>
423.776977539062

> <r_mmod_Torsional_Energy-OPLS-2005>
236.877044677734

> <r_mmod_Improper_Torsional_Energy-OPLS-2005>
8.01601219177246

> <r_mmod_Van_der_Waal_Energy-OPLS-2005>
102.020843505859

> <r_mmod_Electrostatic_Energy-OPLS-2005>
-443.131561279297

> <r_mmod_Solvation_Energy-OPLS-2005>
-270.569671630859

> <b_mmod_Minimization_Converged-OPLS-2005>
0

> <r_mmod_RMS_Derivative-OPLS-2005>
6.18945360183716

$$$$
39
                    3D
 Structure written by MMmdl.
157166  0  0  1  0            999 V2000
  -30.5915  -14.9563   20.4008 C   0  0  0  0  0  0
  -30.4313  -12.5895   19.4997 C   0  0  0  0  0  0
  -29.5150  -12.5182   18.2579 C   0  0  0  0  0  0
  -28.0573  -12.2927   18.6948 C   0  0  0  0  0  0
  -27.6299  -13.2521   19.8377 C   0  0  2  0  0  0
  -28.6733  -13.3291   20.9731 C   0  0  0  0  0  0
  -25.2479  -13.8250   20.5703 C   0  0  0  0  0  0
  -24.1808  -13.0448   20.9246 C   0  0  0  0  0  0
  -24.6432  -11.6933   20.8784 C   0  0  0  0  0  0
  -23.9107  -10.4291   21.0438 C   0  0  0  0  0  0
  -24.3634   -9.4187   21.9214 C   0  0  0  0  0  0
  -23.6293   -8.2227   22.0756 C   0  0  0  0  0  0
  -22.4286   -8.0286   21.3536 C   0  0  0  0  0  0
  -21.9940   -9.0281   20.4653 C   0  0  0  0  0  0
  -22.7277  -10.2155   20.3076 C   0  0  0  0  0  0
  -21.6853   -6.0741   22.5281 C   0  0  0  0  0  0
  -21.4024   -6.5646   23.8217 C   0  0  0  0  0  0
  -21.3647   -5.6799   24.9180 C   0  0  0  0  0  0
  -21.6026   -4.3060   24.7220 C   0  0  0  0  0  0
  -21.8819   -3.8152   23.4350 C   0  0  0  0  0  0
  -21.9191   -4.6969   22.3410 C   0  0  0  0  0  0
  -22.7832  -13.5213   21.1879 C   0  0  0  0  0  0
  -22.1667   -4.2150   21.0984 F   0  0  0  0  0  0
  -21.5622   -3.4546   25.7744 F   0  0  0  0  0  0
  -29.9462  -13.7187   20.3553 N   0  0  0  0  0  0
  -26.2923  -12.9478   20.3292 N   0  0  0  0  0  0
  -25.9365  -11.6602   20.5812 N   0  0  0  0  0  0
  -22.0500  -12.8201   22.0446 N   0  0  0  0  0  0
  -25.4109  -15.1966   20.3972 N   0  0  0  0  0  0
  -31.7928  -14.9393   20.1107 O   0  0  0  0  0  0
  -21.6634   -6.8895   21.4240 O   0  0  0  0  0  0
  -22.3497  -14.5491   20.6690 O   0  0  0  0  0  0
  -24.6410  -31.8458   23.1901 C   0  0  0  0  0  0
  -25.9187  -32.4710   23.8284 C   0  0  1  0  0  0
  -27.2032  -27.1087   20.1600 C   0  0  0  0  0  0
  -25.5958  -33.8517   24.2213 N   0  0  0  0  0  0
  -23.4471  -30.4655   21.5365 C   0  0  2  0  0  0
  -24.8997  -28.9014   20.1062 C   0  0  0  0  0  0
  -22.7558  -29.4539   22.4855 C   0  0  0  0  0  0
  -18.0315  -28.1382   22.8471 C   0  0  0  0  0  0
  -24.1495  -36.7245   23.2644 C   0  0  0  0  0  0
  -26.0063  -30.7060   21.4032 C   0  0  0  0  0  0
  -26.0713  -29.3153   20.7528 C   0  0  0  0  0  0
  -27.2173  -28.4281   20.7815 C   0  0  0  0  0  0
  -26.0374  -26.8609   19.3949 C   0  0  0  0  0  0
  -24.8976  -27.6876   19.4105 C   0  0  0  0  0  0
  -23.6736  -29.8005   20.1533 C   0  0  0  0  0  0
  -25.4128  -36.3035   24.0320 C   0  0  1  0  0  0
  -20.5913  -28.3735   23.1248 C   0  0  2  0  0  0
  -20.6803  -26.9445   22.5445 C   0  0  0  0  0  0
  -19.5782  -26.6365   21.5222 C   0  0  0  0  0  0
  -18.1967  -26.7914   22.1650 C   0  0  0  0  0  0
  -19.1560  -28.8867   23.2867 C   0  0  0  0  0  0
  -18.9452  -30.1448   23.8901 C   0  0  0  0  0  0
  -17.6453  -30.6584   24.0547 C   0  0  0  0  0  0
  -25.9067  -34.9410   23.5082 C   0  0  0  0  0  0
  -16.5359  -29.9069   23.6305 C   0  0  0  0  0  0
  -16.7293  -28.6483   23.0349 C   0  0  0  0  0  0
  -26.4515  -31.6564   25.0717 C   0  0  0  0  0  0
  -25.3687  -31.3773   26.1405 C   0  0  0  0  0  0
  -27.0396  -30.2951   24.6325 C   0  0  0  0  0  0
  -27.6052  -32.4324   25.7501 C   0  0  0  0  0  0
  -27.5571  -37.1784   24.8478 C   0  0  0  0  0  0
  -21.4248  -29.3081   22.3633 N   0  0  0  0  0  0
  -26.4298  -37.3745   23.9392 N   0  0  0  0  0  0
  -24.7186  -31.0282   22.0974 N   0  0  0  0  0  0
  -23.4218  -28.8052   23.2976 O   0  0  0  0  0  0
  -28.2380  -26.0816   20.2371 O   0  0  0  0  0  0
  -26.5679  -34.8920   22.4665 O   0  0  0  0  0  0
  -23.5521  -32.1381   23.7090 O   0  0  0  0  0  0
  -26.4721  -22.9682   20.3777 C   0  0  0  0  0  0
  -28.6145  -22.3268   20.4201 C   0  0  0  0  0  0
  -27.9830  -24.6508   20.3438 C   0  0  0  0  0  0
  -29.1068  -16.9569   21.3583 C   0  0  0  0  0  0
  -30.0970  -17.2007   19.1881 C   0  0  0  0  0  0
  -29.2555  -18.5773   21.5544 C   0  0  0  0  0  0
  -30.3163  -18.7769   19.4660 C   0  0  0  0  0  0
  -25.0112  -22.5793   20.3139 C   0  0  0  0  0  0
  -29.6437  -21.0544   20.6059 C   0  0  0  0  0  0
  -27.3407  -21.9615   20.3824 N   0  0  0  0  0  0
  -26.7118  -24.2749   20.4070 N   0  0  0  0  0  0
  -28.9894  -23.6817   20.3771 N   0  0  0  0  0  0
  -29.8960  -16.2107   20.3126 N   0  0  0  0  0  0
  -29.3319  -19.5078   20.3527 N   0  3  0  0  0  0
  -31.4687  -12.7099   19.1791 H   0  0  0  0  0  0
  -30.4070  -11.6474   20.0497 H   0  0  0  0  0  0
  -29.8329  -11.7193   17.5869 H   0  0  0  0  0  0
  -29.5885  -13.4472   17.6899 H   0  0  0  0  0  0
  -27.9758  -11.2610   19.0391 H   0  0  0  0  0  0
  -27.3814  -12.3806   17.8434 H   0  0  0  0  0  0
  -27.5870  -14.2445   19.3868 H   0  0  0  0  0  0
  -28.7651  -12.3826   21.5058 H   0  0  0  0  0  0
  -28.3765  -14.0779   21.7094 H   0  0  0  0  0  0
  -25.2775   -9.5645   22.4788 H   0  0  0  0  0  0
  -23.9978   -7.4621   22.7487 H   0  0  0  0  0  0
  -21.0853   -8.8836   19.8972 H   0  0  0  0  0  0
  -22.3755  -10.9696   19.6188 H   0  0  0  0  0  0
  -21.2047   -7.6169   23.9719 H   0  0  0  0  0  0
  -21.1441   -6.0546   25.9079 H   0  0  0  0  0  0
  -22.0595   -2.7608   23.2867 H   0  0  0  0  0  0
  -22.4125  -11.9850   22.4775 H   0  0  0  0  0  0
  -21.1124  -13.1236   22.2632 H   0  0  0  0  0  0
  -24.6255  -15.8360   20.4683 H   0  0  0  0  0  0
  -26.2296  -15.6188   19.9767 H   0  0  0  0  0  0
  -26.7253  -32.5316   23.1003 H   0  0  0  0  0  0
  -25.0051  -33.9647   25.0330 H   0  0  0  0  0  0
  -22.7504  -31.2914   21.3814 H   0  0  0  0  0  0
  -23.3756  -35.9579   23.3324 H   0  0  0  0  0  0
  -24.3574  -36.8852   22.2058 H   0  0  0  0  0  0
  -23.7252  -37.6452   23.6657 H   0  0  0  0  0  0
  -26.1705  -31.4556   20.6274 H   0  0  0  0  0  0
  -26.8743  -30.7555   22.0510 H   0  0  0  0  0  0
  -28.0974  -28.7273   21.3348 H   0  0  0  0  0  0
  -25.9662  -25.9621   18.8007 H   0  0  0  0  0  0
  -24.0187  -27.3857   18.8560 H   0  0  0  0  0  0
  -23.8010  -30.5743   19.3964 H   0  0  0  0  0  0
  -22.7911  -29.2358   19.8473 H   0  0  0  0  0  0
  -25.1299  -36.1870   25.0812 H   0  0  0  0  0  0
  -20.9986  -28.3324   24.1380 H   0  0  0  0  0  0
  -20.5691  -26.2353   23.3663 H   0  0  0  0  0  0
  -21.6664  -26.7435   22.1260 H   0  0  0  0  0  0
  -19.7021  -25.6275   21.1298 H   0  0  0  0  0  0
  -19.6738  -27.3171   20.6760 H   0  0  0  0  0  0
  -17.4204  -26.6606   21.4105 H   0  0  0  0  0  0
  -18.0373  -26.0096   22.9081 H   0  0  0  0  0  0
  -19.7920  -30.7261   24.2314 H   0  0  0  0  0  0
  -17.5014  -31.6252   24.5128 H   0  0  0  0  0  0
  -15.5355  -30.2973   23.7642 H   0  0  0  0  0  0
  -15.8700  -28.0774   22.7120 H   0  0  0  0  0  0
  -24.5879  -30.7111   25.7714 H   0  0  0  0  0  0
  -24.8861  -32.2969   26.4717 H   0  0  0  0  0  0
  -25.7942  -30.9011   27.0250 H   0  0  0  0  0  0
  -26.3040  -29.6671   24.1300 H   0  0  0  0  0  0
  -27.3973  -29.7240   25.4906 H   0  0  0  0  0  0
  -27.8955  -30.4186   23.9687 H   0  0  0  0  0  0
  -27.2653  -33.3635   26.2043 H   0  0  0  0  0  0
  -28.3877  -32.6874   25.0340 H   0  0  0  0  0  0
  -28.0715  -31.8484   26.5450 H   0  0  0  0  0  0
  -28.2601  -38.0066   24.7480 H   0  0  0  0  0  0
  -28.1051  -36.2593   24.6344 H   0  0  0  0  0  0
  -27.2295  -37.1479   25.8890 H   0  0  0  0  0  0
  -20.9456  -29.8854   21.6865 H   0  0  0  0  0  0
  -26.0162  -38.2819   24.1369 H   0  0  0  0  0  0
  -28.0583  -16.7401   21.1524 H   0  0  0  0  0  0
  -29.3002  -16.4793   22.3192 H   0  0  0  0  0  0
  -30.9166  -16.8596   18.5563 H   0  0  0  0  0  0
  -29.2090  -17.1149   18.5569 H   0  0  0  0  0  0
  -30.1758  -18.7326   22.1177 H   0  0  0  0  0  0
  -28.4581  -18.9325   22.2093 H   0  0  0  0  0  0
  -30.3657  -19.3064   18.5130 H   0  0  0  0  0  0
  -31.3073  -18.8922   19.9048 H   0  0  0  0  0  0
  -24.8890  -21.5685   19.9253 H   0  0  0  0  0  0
  -24.4630  -23.2566   19.6579 H   0  0  0  0  0  0
  -24.5659  -22.6222   21.3072 H   0  0  0  0  0  0
  -29.9873  -21.1303   21.6380 H   0  0  0  0  0  0
  -30.5263  -21.3082   20.0172 H   0  0  0  0  0  0
  -28.4322  -19.5150   19.8924 H   0  0  0  0  0  0
  1 25  1  0  0  0
  1 30  2  0  0  0
  1 83  1  0  0  0
  2  3  1  0  0  0
  2 25  1  0  0  0
  2 85  1  0  0  0
  2 86  1  0  0  0
  3  4  1  0  0  0
  3 87  1  0  0  0
  3 88  1  0  0  0
  4  5  1  0  0  0
  4 89  1  0  0  0
  4 90  1  0  0  0
  5  6  1  0  0  0
  5 26  1  0  0  0
  5 91  1  0  0  0
  6 25  1  0  0  0
  6 92  1  0  0  0
  6 93  1  0  0  0
  7  8  2  0  0  0
  7 26  1  0  0  0
  7 29  1  0  0  0
  8  9  1  0  0  0
  8 22  1  0  0  0
  9 10  1  0  0  0
  9 27  2  0  0  0
 10 11  2  0  0  0
 10 15  1  0  0  0
 11 12  1  0  0  0
 11 94  1  0  0  0
 12 13  2  0  0  0
 12 95  1  0  0  0
 13 14  1  0  0  0
 13 31  1  0  0  0
 14 15  2  0  0  0
 14 96  1  0  0  0
 15 97  1  0  0  0
 16 17  2  0  0  0
 16 21  1  0  0  0
 16 31  1  0  0  0
 17 18  1  0  0  0
 17 98  1  0  0  0
 18 19  2  0  0  0
 18 99  1  0  0  0
 19 20  1  0  0  0
 19 24  1  0  0  0
 20 21  2  0  0  0
 20100  1  0  0  0
 21 23  1  0  0  0
 22 28  1  0  0  0
 22 32  2  0  0  0
 26 27  1  0  0  0
 28101  1  0  0  0
 28102  1  0  0  0
 29103  1  0  0  0
 29104  1  0  0  0
 33 34  1  0  0  0
 33 66  1  0  0  0
 33 70  2  0  0  0
 34 36  1  0  0  0
 34 59  1  0  0  0
 34105  1  0  0  0
 35 44  2  0  0  0
 35 45  1  0  0  0
 35 68  1  0  0  0
 36 56  1  0  0  0
 36106  1  0  0  0
 37 39  1  0  0  0
 37 47  1  0  0  0
 37 66  1  0  0  0
 37107  1  0  0  0
 38 43  2  0  0  0
 38 46  1  0  0  0
 38 47  1  0  0  0
 39 64  1  0  0  0
 39 67  2  0  0  0
 40 52  1  0  0  0
 40 53  2  0  0  0
 40 58  1  0  0  0
 41108  1  0  0  0
 41109  1  0  0  0
 41110  1  0  0  0
 41 48  1  0  0  0
 42 43  1  0  0  0
 42 66  1  0  0  0
 42111  1  0  0  0
 42112  1  0  0  0
 43 44  1  0  0  0
 44113  1  0  0  0
 45 46  2  0  0  0
 45114  1  0  0  0
 46115  1  0  0  0
 47116  1  0  0  0
 47117  1  0  0  0
 48 56  1  0  0  0
 48 65  1  0  0  0
 48118  1  0  0  0
 49 50  1  0  0  0
 49 53  1  0  0  0
 49 64  1  0  0  0
 49119  1  0  0  0
 50 51  1  0  0  0
 50120  1  0  0  0
 50121  1  0  0  0
 51 52  1  0  0  0
 51122  1  0  0  0
 51123  1  0  0  0
 52124  1  0  0  0
 52125  1  0  0  0
 53 54  1  0  0  0
 54 55  2  0  0  0
 54126  1  0  0  0
 55 57  1  0  0  0
 55127  1  0  0  0
 56 69  2  0  0  0
 57 58  2  0  0  0
 57128  1  0  0  0
 58129  1  0  0  0
 59 60  1  0  0  0
 59 61  1  0  0  0
 59 62  1  0  0  0
 60130  1  0  0  0
 60131  1  0  0  0
 60132  1  0  0  0
 61133  1  0  0  0
 61134  1  0  0  0
 61135  1  0  0  0
 62136  1  0  0  0
 62137  1  0  0  0
 62138  1  0  0  0
 63 65  1  0  0  0
 63139  1  0  0  0
 63140  1  0  0  0
 63141  1  0  0  0
 64142  1  0  0  0
 65143  1  0  0  0
 68 73  1  0  0  0
 71 78  1  0  0  0
 71 80  2  0  0  0
 71 81  1  0  0  0
 72 79  1  0  0  0
 72 80  1  0  0  0
 72 82  2  0  0  0
 73 81  2  0  0  0
 73 82  1  0  0  0
 74 76  1  0  0  0
 74 83  1  0  0  0
 74144  1  0  0  0
 74145  1  0  0  0
 75 77  1  0  0  0
 75 83  1  0  0  0
 75146  1  0  0  0
 75147  1  0  0  0
 76 84  1  0  0  0
 76148  1  0  0  0
 76149  1  0  0  0
 77 84  1  0  0  0
 77150  1  0  0  0
 77151  1  0  0  0
 78152  1  0  0  0
 78153  1  0  0  0
 78154  1  0  0  0
 79155  1  0  0  0
 79156  1  0  0  0
 79 84  1  0  0  0
 84157  1  0  0  0
M  CHG  1  84   1
M  ISO  4   1 100  68 101  73 101  83 100
M  END
> <chiral flag>
0

> <version>
0

> <s_m_source_file>
/data/baiqing/PycharmProjects/Reinvent-master-3.2/result/LINK_invent/BTK/process_docking_weight1_custom_sum_contain_oxygen_bond_distance_aromatic_linkinvent_7_9_3/rearranged_h_0186.sdf

> <i_m_source_file_index>
39

> <r_mmod_Potential_Energy-OPLS-2005>
-129.259552001953

> <r_mmod_Stretch_Energy-OPLS-2005>
234.499618530273

> <r_mmod_Bend_Energy-OPLS-2005>
280.988983154297

> <r_mmod_Torsional_Energy-OPLS-2005>
388.982574462891

> <r_mmod_Improper_Torsional_Energy-OPLS-2005>
14.8923311233521

> <r_mmod_Van_der_Waal_Energy-OPLS-2005>
161.908721923828

> <r_mmod_Electrostatic_Energy-OPLS-2005>
-958.337341308594

> <r_mmod_Solvation_Energy-OPLS-2005>
-463.759490966797

> <b_mmod_Minimization_Converged-OPLS-2005>
0

> <r_mmod_RMS_Derivative-OPLS-2005>
4.18156480789185

$$$$
40
                    3D
 Structure written by MMmdl.
150158  0  0  1  0            999 V2000
  -30.3788  -15.2979   20.4511 C   0  0  0  0  0  0
  -30.4622  -12.8495   19.5168 C   0  0  0  0  0  0
  -29.5337  -12.5810   18.3001 C   0  0  0  0  0  0
  -28.0730  -12.3279   18.7320 C   0  0  0  0  0  0
  -27.6260  -13.2700   19.8766 C   0  0  2  0  0  0
  -28.6865  -13.3253   20.9887 C   0  0  0  0  0  0
  -25.2351  -13.8241   20.6058 C   0  0  0  0  0  0
  -24.1704  -13.0369   20.9391 C   0  0  0  0  0  0
  -24.6380  -11.6907   20.8838 C   0  0  0  0  0  0
  -23.9091  -10.4236   21.0390 C   0  0  0  0  0  0
  -24.3638   -9.4158   21.9157 C   0  0  0  0  0  0
  -23.6329   -8.2188   22.0730 C   0  0  0  0  0  0
  -22.4287   -8.0249   21.3512 C   0  0  0  0  0  0
  -21.9931   -9.0213   20.4623 C   0  0  0  0  0  0
  -22.7262  -10.2090   20.3026 C   0  0  0  0  0  0
  -21.6871   -6.0726   22.5271 C   0  0  0  0  0  0
  -21.4029   -6.5645   23.8202 C   0  0  0  0  0  0
  -21.3676   -5.6775   24.9164 C   0  0  0  0  0  0
  -21.6049   -4.3045   24.7214 C   0  0  0  0  0  0
  -21.8832   -3.8137   23.4333 C   0  0  0  0  0  0
  -21.9182   -4.6959   22.3390 C   0  0  0  0  0  0
  -22.7724  -13.5111   21.1958 C   0  0  0  0  0  0
  -22.1656   -4.2143   21.0969 F   0  0  0  0  0  0
  -21.5605   -3.4531   25.7725 F   0  0  0  0  0  0
  -29.8675  -13.9579   20.3619 N   0  0  0  0  0  0
  -26.2872  -12.9565   20.3625 N   0  0  0  0  0  0
  -25.9348  -11.6627   20.5942 N   0  0  0  0  0  0
  -22.0413  -12.8047   22.0485 N   0  0  0  0  0  0
  -25.3610  -15.2031   20.4641 N   0  0  0  0  0  0
  -31.6049  -15.3187   20.2412 O   0  0  0  0  0  0
  -21.6644   -6.8854   21.4228 O   0  0  0  0  0  0
  -22.3421  -14.5440   20.6815 O   0  0  0  0  0  0
  -24.6596  -31.8276   23.1701 C   0  0  0  0  0  0
  -25.9263  -32.4624   23.8187 C   0  0  1  0  0  0
  -27.2399  -26.9608   20.1975 C   0  0  0  0  0  0
  -25.5923  -33.8435   24.2089 N   0  0  0  0  0  0
  -23.4759  -30.4370   21.5173 C   0  0  2  0  0  0
  -24.9301  -28.8177   20.1260 C   0  0  0  0  0  0
  -22.7650  -29.4454   22.4769 C   0  0  0  0  0  0
  -18.0317  -28.1416   22.8436 C   0  0  0  0  0  0
  -24.1496  -36.7274   23.2657 C   0  0  0  0  0  0
  -26.0412  -30.6474   21.3910 C   0  0  0  0  0  0
  -26.1146  -29.2348   20.7484 C   0  0  0  0  0  0
  -27.2645  -28.3293   20.7534 C   0  0  0  0  0  0
  -26.0195  -26.6797   19.5428 C   0  0  0  0  0  0
  -24.9051  -27.5584   19.5039 C   0  0  0  0  0  0
  -23.7177  -29.7476   20.1456 C   0  0  0  0  0  0
  -25.4130  -36.3012   24.0303 C   0  0  1  0  0  0
  -20.5930  -28.3768   23.1173 C   0  0  2  0  0  0
  -20.6795  -26.9455   22.5389 C   0  0  0  0  0  0
  -19.5783  -26.6368   21.5192 C   0  0  0  0  0  0
  -18.1965  -26.7933   22.1608 C   0  0  0  0  0  0
  -19.1577  -28.8916   23.2793 C   0  0  0  0  0  0
  -18.9497  -30.1487   23.8847 C   0  0  0  0  0  0
  -17.6499  -30.6602   24.0555 C   0  0  0  0  0  0
  -25.9074  -34.9377   23.5016 C   0  0  0  0  0  0
  -16.5386  -29.9102   23.6327 C   0  0  0  0  0  0
  -16.7303  -28.6527   23.0340 C   0  0  0  0  0  0
  -26.4476  -31.6572   25.0728 C   0  0  0  0  0  0
  -25.3597  -31.3850   26.1391 C   0  0  0  0  0  0
  -27.0363  -30.2945   24.6452 C   0  0  0  0  0  0
  -27.5973  -32.4370   25.7545 C   0  0  0  0  0  0
  -27.5547  -37.1848   24.8480 C   0  0  0  0  0  0
  -21.4320  -29.3066   22.3537 N   0  0  0  0  0  0
  -26.4309  -37.3709   23.9344 N   0  0  0  0  0  0
  -24.7461  -30.9966   22.0813 N   0  0  0  0  0  0
  -23.4216  -28.8028   23.2981 O   0  0  0  0  0  0
  -28.2865  -25.9068   20.1980 O   0  0  0  0  0  0
  -26.5690  -34.8902   22.4631 O   0  0  0  0  0  0
  -23.5659  -32.1199   23.6826 O   0  0  0  0  0  0
  -28.6284  -17.8711   21.9489 C   0  0  0  0  0  0
  -28.2199  -16.6665   21.0947 C   0  0  0  0  0  0
  -29.6681  -18.2296   20.9031 C   0  0  2  0  0  0
  -29.2667  -19.7467   20.0206 C   0  0  0  0  0  0
  -28.8986  -22.7790   19.9592 C   0  0  0  0  0  0
  -28.1376  -24.3034   20.5382 C   0  0  0  0  0  0
  -29.5877  -16.5808   20.5455 N   0  0  0  0  0  0
  -28.9514  -21.2627   20.6602 N   0  3  0  0  0  0
  -31.4500  -13.1296   19.1499 H   0  0  0  0  0  0
  -30.6372  -11.9358   20.0898 H   0  0  0  0  0  0
  -29.9071  -11.7351   17.7201 H   0  0  0  0  0  0
  -29.5650  -13.4461   17.6381 H   0  0  0  0  0  0
  -28.0001  -11.2880   19.0615 H   0  0  0  0  0  0
  -27.3964  -12.4433   17.8854 H   0  0  0  0  0  0
  -27.5679  -14.2680   19.4467 H   0  0  0  0  0  0
  -28.8903  -12.3137   21.3461 H   0  0  0  0  0  0
  -28.3613  -13.8578   21.8761 H   0  0  0  0  0  0
  -25.2776   -9.5662   22.4743 H   0  0  0  0  0  0
  -24.0040   -7.4608   22.7478 H   0  0  0  0  0  0
  -21.0835   -8.8757   19.8972 H   0  0  0  0  0  0
  -22.3710  -10.9640   19.6150 H   0  0  0  0  0  0
  -21.2058   -7.6147   23.9714 H   0  0  0  0  0  0
  -21.1482   -6.0494   25.9057 H   0  0  0  0  0  0
  -22.0605   -2.7607   23.2821 H   0  0  0  0  0  0
  -22.4133  -11.9746   22.4869 H   0  0  0  0  0  0
  -21.1019  -13.1027   22.2759 H   0  0  0  0  0  0
  -24.5482  -15.8036   20.5782 H   0  0  0  0  0  0
  -26.1669  -15.7066   20.1233 H   0  0  0  0  0  0
  -26.7362  -32.5172   23.0937 H   0  0  0  0  0  0
  -24.9982  -33.9496   25.0175 H   0  0  0  0  0  0
  -22.7890  -31.2668   21.3428 H   0  0  0  0  0  0
  -23.3688  -35.9690   23.3437 H   0  0  0  0  0  0
  -24.3537  -36.8800   22.2047 H   0  0  0  0  0  0
  -23.7367  -37.6557   23.6628 H   0  0  0  0  0  0
  -26.2041  -31.3844   20.6032 H   0  0  0  0  0  0
  -26.9077  -30.7180   22.0372 H   0  0  0  0  0  0
  -28.1687  -28.6575   21.2498 H   0  0  0  0  0  0
  -25.9124  -25.7183   19.0629 H   0  0  0  0  0  0
  -24.0064  -27.2284   19.0023 H   0  0  0  0  0  0
  -23.8884  -30.5149   19.3878 H   0  0  0  0  0  0
  -22.8292  -29.2079   19.8164 H   0  0  0  0  0  0
  -25.1353  -36.1840   25.0801 H   0  0  0  0  0  0
  -21.0015  -28.3376   24.1297 H   0  0  0  0  0  0
  -20.5657  -26.2396   23.3627 H   0  0  0  0  0  0
  -21.6666  -26.7422   22.1221 H   0  0  0  0  0  0
  -19.6948  -25.6252   21.1304 H   0  0  0  0  0  0
  -19.6722  -27.3098   20.6660 H   0  0  0  0  0  0
  -17.4212  -26.6604   21.4046 H   0  0  0  0  0  0
  -18.0427  -26.0117   22.9062 H   0  0  0  0  0  0
  -19.7984  -30.7294   24.2212 H   0  0  0  0  0  0
  -17.5070  -31.6272   24.5180 H   0  0  0  0  0  0
  -15.5395  -30.3014   23.7683 H   0  0  0  0  0  0
  -15.8692  -28.0853   22.7079 H   0  0  0  0  0  0
  -24.5682  -30.7321   25.7680 H   0  0  0  0  0  0
  -24.8874  -32.3079   26.4788 H   0  0  0  0  0  0
  -25.7772  -30.8979   27.0213 H   0  0  0  0  0  0
  -26.2998  -29.6626   24.1473 H   0  0  0  0  0  0
  -27.3903  -29.7321   25.5102 H   0  0  0  0  0  0
  -27.8939  -30.4137   23.9831 H   0  0  0  0  0  0
  -27.2505  -33.3651   26.2110 H   0  0  0  0  0  0
  -28.3793  -32.6982   25.0405 H   0  0  0  0  0  0
  -28.0636  -31.8525   26.5489 H   0  0  0  0  0  0
  -28.2682  -38.0017   24.7310 H   0  0  0  0  0  0
  -28.0921  -36.2542   24.6592 H   0  0  0  0  0  0
  -27.2235  -37.1856   25.8880 H   0  0  0  0  0  0
  -20.9574  -29.8804   21.6704 H   0  0  0  0  0  0
  -26.0180  -38.2819   24.1176 H   0  0  0  0  0  0
  -29.0475  -17.5946   22.9194 H   0  0  0  0  0  0
  -27.8404  -18.6198   22.0694 H   0  0  0  0  0  0
  -27.4644  -16.9342   20.3538 H   0  0  0  0  0  0
  -27.8878  -15.8566   21.7387 H   0  0  0  0  0  0
  -30.6031  -18.4058   21.4342 H   0  0  0  0  0  0
  -28.4333  -19.5499   19.3432 H   0  0  0  0  0  0
  -30.1065  -19.9185   19.3485 H   0  0  0  0  0  0
  -29.9461  -23.0321   19.7954 H   0  0  0  0  0  0
  -28.5079  -22.6267   18.9547 H   0  0  0  0  0  0
  -28.3833  -24.3105   21.5989 H   0  0  0  0  0  0
  -27.0650  -24.1184   20.5276 H   0  0  0  0  0  0
  -29.6126  -21.3577   21.4140 H   0  0  0  0  0  0
  -28.0539  -21.1638   21.1061 H   0  0  0  0  0  0
  1 25  1  0  0  0
  1 30  2  0  0  0
  1 77  1  0  0  0
  2  3  1  0  0  0
  2 25  1  0  0  0
  2 79  1  0  0  0
  2 80  1  0  0  0
  3  4  1  0  0  0
  3 81  1  0  0  0
  3 82  1  0  0  0
  4  5  1  0  0  0
  4 83  1  0  0  0
  4 84  1  0  0  0
  5  6  1  0  0  0
  5 26  1  0  0  0
  5 85  1  0  0  0
  6 25  1  0  0  0
  6 86  1  0  0  0
  6 87  1  0  0  0
  7  8  2  0  0  0
  7 26  1  0  0  0
  7 29  1  0  0  0
  8  9  1  0  0  0
  8 22  1  0  0  0
  9 10  1  0  0  0
  9 27  2  0  0  0
 10 11  2  0  0  0
 10 15  1  0  0  0
 11 12  1  0  0  0
 11 88  1  0  0  0
 12 13  2  0  0  0
 12 89  1  0  0  0
 13 14  1  0  0  0
 13 31  1  0  0  0
 14 15  2  0  0  0
 14 90  1  0  0  0
 15 91  1  0  0  0
 16 17  2  0  0  0
 16 21  1  0  0  0
 16 31  1  0  0  0
 17 18  1  0  0  0
 17 92  1  0  0  0
 18 19  2  0  0  0
 18 93  1  0  0  0
 19 20  1  0  0  0
 19 24  1  0  0  0
 20 21  2  0  0  0
 20 94  1  0  0  0
 21 23  1  0  0  0
 22 28  1  0  0  0
 22 32  2  0  0  0
 26 27  1  0  0  0
 28 95  1  0  0  0
 28 96  1  0  0  0
 29 97  1  0  0  0
 29 98  1  0  0  0
 33 34  1  0  0  0
 33 66  1  0  0  0
 33 70  2  0  0  0
 34 36  1  0  0  0
 34 59  1  0  0  0
 34 99  1  0  0  0
 35 44  2  0  0  0
 35 45  1  0  0  0
 35 68  1  0  0  0
 36 56  1  0  0  0
 36100  1  0  0  0
 37 39  1  0  0  0
 37 47  1  0  0  0
 37 66  1  0  0  0
 37101  1  0  0  0
 38 43  2  0  0  0
 38 46  1  0  0  0
 38 47  1  0  0  0
 39 64  1  0  0  0
 39 67  2  0  0  0
 40 52  1  0  0  0
 40 53  2  0  0  0
 40 58  1  0  0  0
 41102  1  0  0  0
 41103  1  0  0  0
 41104  1  0  0  0
 41 48  1  0  0  0
 42 43  1  0  0  0
 42 66  1  0  0  0
 42105  1  0  0  0
 42106  1  0  0  0
 43 44  1  0  0  0
 44107  1  0  0  0
 45 46  2  0  0  0
 45108  1  0  0  0
 46109  1  0  0  0
 47110  1  0  0  0
 47111  1  0  0  0
 48 56  1  0  0  0
 48 65  1  0  0  0
 48112  1  0  0  0
 49 50  1  0  0  0
 49 53  1  0  0  0
 49 64  1  0  0  0
 49113  1  0  0  0
 50 51  1  0  0  0
 50114  1  0  0  0
 50115  1  0  0  0
 51 52  1  0  0  0
 51116  1  0  0  0
 51117  1  0  0  0
 52118  1  0  0  0
 52119  1  0  0  0
 53 54  1  0  0  0
 54 55  2  0  0  0
 54120  1  0  0  0
 55 57  1  0  0  0
 55121  1  0  0  0
 56 69  2  0  0  0
 57 58  2  0  0  0
 57122  1  0  0  0
 58123  1  0  0  0
 59 60  1  0  0  0
 59 61  1  0  0  0
 59 62  1  0  0  0
 60124  1  0  0  0
 60125  1  0  0  0
 60126  1  0  0  0
 61127  1  0  0  0
 61128  1  0  0  0
 61129  1  0  0  0
 62130  1  0  0  0
 62131  1  0  0  0
 62132  1  0  0  0
 63 65  1  0  0  0
 63133  1  0  0  0
 63134  1  0  0  0
 63135  1  0  0  0
 64136  1  0  0  0
 65137  1  0  0  0
 68 76  1  0  0  0
 71 72  1  0  0  0
 71 73  1  0  0  0
 71138  1  0  0  0
 71139  1  0  0  0
 72 77  1  0  0  0
 72140  1  0  0  0
 72141  1  0  0  0
 73 74  1  0  0  0
 73 77  1  0  0  0
 73142  1  0  0  0
 74 78  1  0  0  0
 74143  1  0  0  0
 74144  1  0  0  0
 75 76  1  0  0  0
 75 78  1  0  0  0
 75145  1  0  0  0
 75146  1  0  0  0
 76147  1  0  0  0
 76148  1  0  0  0
 78149  1  0  0  0
 78150  1  0  0  0
M  CHG  1  78   1
M  ISO  4   1 100  68 101  76 101  77 100
M  END
> <chiral flag>
0

> <version>
0

> <s_m_source_file>
/data/baiqing/PycharmProjects/Reinvent-master-3.2/result/LINK_invent/BTK/process_docking_weight1_custom_sum_contain_oxygen_bond_distance_aromatic_linkinvent_7_9_3/rearranged_h_0186.sdf

> <i_m_source_file_index>
40

> <r_mmod_Potential_Energy-OPLS-2005>
1275.87414550781

> <r_mmod_Stretch_Energy-OPLS-2005>
625.808715820312

> <r_mmod_Bend_Energy-OPLS-2005>
482.016174316406

> <r_mmod_Torsional_Energy-OPLS-2005>
297.924072265625

> <r_mmod_Improper_Torsional_Energy-OPLS-2005>
8.11533355712891

> <r_mmod_Van_der_Waal_Energy-OPLS-2005>
110.904258728027

> <r_mmod_Electrostatic_Energy-OPLS-2005>
-213.600143432617

> <r_mmod_Solvation_Energy-OPLS-2005>
-475.466217041016

> <b_mmod_Minimization_Converged-OPLS-2005>
0

> <r_mmod_RMS_Derivative-OPLS-2005>
6.84322452545166

$$$$
41
                    3D
 Structure written by MMmdl.
156165  0  0  1  0            999 V2000
  -30.6339  -14.8009   20.4749 C   0  0  0  0  0  0
  -30.4297  -12.5018   19.4808 C   0  0  0  0  0  0
  -29.5107  -12.5202   18.2403 C   0  0  0  0  0  0
  -28.0386  -12.3336   18.6542 C   0  0  0  0  0  0
  -27.6385  -13.2379   19.8507 C   0  0  2  0  0  0
  -28.6860  -13.1860   20.9837 C   0  0  0  0  0  0
  -25.2472  -13.8197   20.5678 C   0  0  0  0  0  0
  -24.1783  -13.0433   20.9211 C   0  0  0  0  0  0
  -24.6391  -11.6919   20.8755 C   0  0  0  0  0  0
  -23.9073  -10.4293   21.0410 C   0  0  0  0  0  0
  -24.3622   -9.4207   21.9186 C   0  0  0  0  0  0
  -23.6297   -8.2242   22.0750 C   0  0  0  0  0  0
  -22.4281   -8.0279   21.3543 C   0  0  0  0  0  0
  -21.9919   -9.0256   20.4649 C   0  0  0  0  0  0
  -22.7248  -10.2135   20.3059 C   0  0  0  0  0  0
  -21.6855   -6.0737   22.5280 C   0  0  0  0  0  0
  -21.4016   -6.5637   23.8213 C   0  0  0  0  0  0
  -21.3658   -5.6789   24.9176 C   0  0  0  0  0  0
  -21.6044   -4.3051   24.7224 C   0  0  0  0  0  0
  -21.8817   -3.8145   23.4344 C   0  0  0  0  0  0
  -21.9193   -4.6964   22.3404 C   0  0  0  0  0  0
  -22.7804  -13.5215   21.1864 C   0  0  0  0  0  0
  -22.1663   -4.2148   21.0980 F   0  0  0  0  0  0
  -21.5630   -3.4534   25.7738 F   0  0  0  0  0  0
  -29.9721  -13.5829   20.3948 N   0  0  0  0  0  0
  -26.2921  -12.9424   20.3291 N   0  0  0  0  0  0
  -25.9330  -11.6561   20.5769 N   0  0  0  0  0  0
  -22.0447  -12.8217   22.0426 N   0  0  0  0  0  0
  -25.4094  -15.1917   20.4033 N   0  0  0  0  0  0
  -31.8202  -14.8298   20.1305 O   0  0  0  0  0  0
  -21.6639   -6.8881   21.4241 O   0  0  0  0  0  0
  -22.3492  -14.5519   20.6703 O   0  0  0  0  0  0
  -24.6367  -31.8532   23.1973 C   0  0  0  0  0  0
  -25.9175  -32.4743   23.8328 C   0  0  1  0  0  0
  -27.2097  -27.2171   20.1262 C   0  0  0  0  0  0
  -25.5953  -33.8547   24.2245 N   0  0  0  0  0  0
  -23.4350  -30.4787   21.5427 C   0  0  2  0  0  0
  -24.8806  -28.9280   20.1078 C   0  0  0  0  0  0
  -22.7537  -29.4598   22.4897 C   0  0  0  0  0  0
  -18.0299  -28.1396   22.8486 C   0  0  0  0  0  0
  -24.1492  -36.7280   23.2639 C   0  0  0  0  0  0
  -25.9873  -30.7516   21.3859 C   0  0  0  0  0  0
  -26.0574  -29.3729   20.7233 C   0  0  0  0  0  0
  -27.2247  -28.5317   20.7217 C   0  0  0  0  0  0
  -26.0061  -26.8668   19.4661 C   0  0  0  0  0  0
  -24.8635  -27.6849   19.4667 C   0  0  0  0  0  0
  -23.6551  -29.8202   20.1574 C   0  0  0  0  0  0
  -25.4119  -36.3063   24.0323 C   0  0  1  0  0  0
  -20.5910  -28.3714   23.1256 C   0  0  2  0  0  0
  -20.6788  -26.9428   22.5403 C   0  0  0  0  0  0
  -19.5754  -26.6387   21.5219 C   0  0  0  0  0  0
  -18.1937  -26.7937   22.1633 C   0  0  0  0  0  0
  -19.1555  -28.8873   23.2864 C   0  0  0  0  0  0
  -18.9472  -30.1473   23.8881 C   0  0  0  0  0  0
  -17.6468  -30.6592   24.0564 C   0  0  0  0  0  0
  -25.9067  -34.9434   23.5086 C   0  0  0  0  0  0
  -16.5360  -29.9087   23.6335 C   0  0  0  0  0  0
  -16.7285  -28.6509   23.0351 C   0  0  0  0  0  0
  -26.4514  -31.6581   25.0738 C   0  0  0  0  0  0
  -25.3715  -31.3753   26.1448 C   0  0  0  0  0  0
  -27.0363  -30.2986   24.6267 C   0  0  0  0  0  0
  -27.6059  -32.4333   25.7510 C   0  0  0  0  0  0
  -27.5581  -37.1795   24.8463 C   0  0  0  0  0  0
  -21.4238  -29.3054   22.3641 N   0  0  0  0  0  0
  -26.4289  -37.3768   23.9410 N   0  0  0  0  0  0
  -24.7060  -31.0462   22.0976 N   0  0  0  0  0  0
  -23.4222  -28.8132   23.3001 O   0  0  0  0  0  0
  -28.2652  -26.2563   20.2044 O   0  0  0  0  0  0
  -26.5640  -34.8915   22.4657 O   0  0  0  0  0  0
  -23.5507  -32.1375   23.7241 O   0  0  0  0  0  0
  -28.5125  -22.0751   20.1919 C   0  0  0  0  0  0
  -28.8222  -23.5129   20.2827 C   0  0  0  0  0  0
  -29.6515  -21.3341   20.5112 C   0  0  0  0  0  0
  -28.8805  -17.9596   21.6995 C   0  0  0  0  0  0
  -28.8813  -16.4057   21.5151 C   0  0  0  0  0  0
  -30.4196  -17.3654   20.0279 C   0  0  0  0  0  0
  -29.4603  -18.5874   20.4255 C   0  0  2  0  0  0
  -31.9689  -22.1927   21.1603 C   0  0  0  0  0  0
  -27.9036  -24.7924   19.9750 C   0  0  0  0  0  0
  -30.0928  -23.6236   20.6472 N   0  0  0  0  0  0
  -30.5767  -22.3472   20.7771 N   0  0  0  0  0  0
  -29.9419  -16.0276   20.5681 N   0  0  0  0  0  0
  -30.1145  -19.9463   20.6239 N   0  0  0  0  0  0
  -31.4686  -12.6230   19.1707 H   0  0  0  0  0  0
  -30.3883  -11.5318   19.9787 H   0  0  0  0  0  0
  -29.8066  -11.7387   17.5391 H   0  0  0  0  0  0
  -29.6265  -13.4674   17.7115 H   0  0  0  0  0  0
  -27.9053  -11.2859   18.9258 H   0  0  0  0  0  0
  -27.3791  -12.5130   17.8041 H   0  0  0  0  0  0
  -27.6268  -14.2575   19.4649 H   0  0  0  0  0  0
  -28.7484  -12.1823   21.4070 H   0  0  0  0  0  0
  -28.4010  -13.8315   21.8109 H   0  0  0  0  0  0
  -25.2764   -9.5688   22.4761 H   0  0  0  0  0  0
  -24.0009   -7.4632   22.7468 H   0  0  0  0  0  0
  -21.0852   -8.8779   19.8956 H   0  0  0  0  0  0
  -22.3707  -10.9675   19.6171 H   0  0  0  0  0  0
  -21.2009   -7.6146   23.9719 H   0  0  0  0  0  0
  -21.1483   -6.0517   25.9079 H   0  0  0  0  0  0
  -22.0599   -2.7607   23.2840 H   0  0  0  0  0  0
  -22.4064  -11.9896   22.4847 H   0  0  0  0  0  0
  -21.1057  -13.1245   22.2603 H   0  0  0  0  0  0
  -24.6369  -15.8404   20.5093 H   0  0  0  0  0  0
  -26.2511  -15.6323   20.0566 H   0  0  0  0  0  0
  -26.7242  -32.5373   23.1065 H   0  0  0  0  0  0
  -25.0083  -33.9672   25.0377 H   0  0  0  0  0  0
  -22.7333  -31.3031   21.3988 H   0  0  0  0  0  0
  -23.3758  -35.9607   23.3291 H   0  0  0  0  0  0
  -24.3583  -36.8917   22.2056 H   0  0  0  0  0  0
  -23.7236  -37.6473   23.6674 H   0  0  0  0  0  0
  -26.1353  -31.5125   20.6185 H   0  0  0  0  0  0
  -26.8618  -30.7967   22.0234 H   0  0  0  0  0  0
  -28.1200  -28.8653   21.2275 H   0  0  0  0  0  0
  -25.8930  -25.9257   18.9516 H   0  0  0  0  0  0
  -23.9656  -27.3414   18.9710 H   0  0  0  0  0  0
  -23.7851  -30.6004   19.4065 H   0  0  0  0  0  0
  -22.7709  -29.2604   19.8472 H   0  0  0  0  0  0
  -25.1300  -36.1906   25.0816 H   0  0  0  0  0  0
  -21.0003  -28.3295   24.1377 H   0  0  0  0  0  0
  -20.5703  -26.2327   23.3615 H   0  0  0  0  0  0
  -21.6651  -26.7450   22.1187 H   0  0  0  0  0  0
  -19.6914  -25.6295   21.1255 H   0  0  0  0  0  0
  -19.6685  -27.3192   20.6745 H   0  0  0  0  0  0
  -17.4209  -26.6688   21.4034 H   0  0  0  0  0  0
  -18.0331  -26.0081   22.9031 H   0  0  0  0  0  0
  -19.7944  -30.7298   24.2242 H   0  0  0  0  0  0
  -17.5017  -31.6269   24.5169 H   0  0  0  0  0  0
  -15.5358  -30.2981   23.7663 H   0  0  0  0  0  0
  -15.8689  -28.0823   22.7064 H   0  0  0  0  0  0
  -24.5871  -30.7132   25.7760 H   0  0  0  0  0  0
  -24.8934  -32.2935   26.4868 H   0  0  0  0  0  0
  -25.8006  -30.8911   27.0229 H   0  0  0  0  0  0
  -26.2964  -29.6725   24.1268 H   0  0  0  0  0  0
  -27.3994  -29.7261   25.4812 H   0  0  0  0  0  0
  -27.8867  -30.4237   23.9559 H   0  0  0  0  0  0
  -27.2658  -33.3634   26.2074 H   0  0  0  0  0  0
  -28.3872  -32.6895   25.0341 H   0  0  0  0  0  0
  -28.0731  -31.8473   26.5435 H   0  0  0  0  0  0
  -28.2591  -38.0099   24.7519 H   0  0  0  0  0  0
  -28.1084  -36.2631   24.6277 H   0  0  0  0  0  0
  -27.2303  -37.1429   25.8866 H   0  0  0  0  0  0
  -20.9439  -29.8787   21.6845 H   0  0  0  0  0  0
  -26.0167  -38.2841   24.1411 H   0  0  0  0  0  0
  -27.5597  -21.6513   19.9101 H   0  0  0  0  0  0
  -29.5207  -18.2058   22.5479 H   0  0  0  0  0  0
  -27.8868  -18.3451   21.9328 H   0  0  0  0  0  0
  -27.9240  -16.0851   21.1095 H   0  0  0  0  0  0
  -29.0163  -15.9123   22.4786 H   0  0  0  0  0  0
  -31.4189  -17.5396   20.4288 H   0  0  0  0  0  0
  -30.5288  -17.3057   18.9442 H   0  0  0  0  0  0
  -28.6680  -18.6758   19.6802 H   0  0  0  0  0  0
  -32.0298  -21.7708   22.1635 H   0  0  0  0  0  0
  -32.4844  -23.1538   21.1505 H   0  0  0  0  0  0
  -32.4732  -21.5250   20.4613 H   0  0  0  0  0  0
  -26.9689  -24.6161   20.5088 H   0  0  0  0  0  0
  -27.6558  -24.7163   18.9165 H   0  0  0  0  0  0
  -31.0893  -19.8878   20.8990 H   0  0  0  0  0  0
  1 25  1  0  0  0
  1 30  2  0  0  0
  1 82  1  0  0  0
  2  3  1  0  0  0
  2 25  1  0  0  0
  2 84  1  0  0  0
  2 85  1  0  0  0
  3  4  1  0  0  0
  3 86  1  0  0  0
  3 87  1  0  0  0
  4  5  1  0  0  0
  4 88  1  0  0  0
  4 89  1  0  0  0
  5  6  1  0  0  0
  5 26  1  0  0  0
  5 90  1  0  0  0
  6 25  1  0  0  0
  6 91  1  0  0  0
  6 92  1  0  0  0
  7  8  2  0  0  0
  7 26  1  0  0  0
  7 29  1  0  0  0
  8  9  1  0  0  0
  8 22  1  0  0  0
  9 10  1  0  0  0
  9 27  2  0  0  0
 10 11  2  0  0  0
 10 15  1  0  0  0
 11 12  1  0  0  0
 11 93  1  0  0  0
 12 13  2  0  0  0
 12 94  1  0  0  0
 13 14  1  0  0  0
 13 31  1  0  0  0
 14 15  2  0  0  0
 14 95  1  0  0  0
 15 96  1  0  0  0
 16 17  2  0  0  0
 16 21  1  0  0  0
 16 31  1  0  0  0
 17 18  1  0  0  0
 17 97  1  0  0  0
 18 19  2  0  0  0
 18 98  1  0  0  0
 19 20  1  0  0  0
 19 24  1  0  0  0
 20 21  2  0  0  0
 20 99  1  0  0  0
 21 23  1  0  0  0
 22 28  1  0  0  0
 22 32  2  0  0  0
 26 27  1  0  0  0
 28100  1  0  0  0
 28101  1  0  0  0
 29102  1  0  0  0
 29103  1  0  0  0
 33 34  1  0  0  0
 33 66  1  0  0  0
 33 70  2  0  0  0
 34 36  1  0  0  0
 34 59  1  0  0  0
 34104  1  0  0  0
 35 44  2  0  0  0
 35 45  1  0  0  0
 35 68  1  0  0  0
 36 56  1  0  0  0
 36105  1  0  0  0
 37 39  1  0  0  0
 37 47  1  0  0  0
 37 66  1  0  0  0
 37106  1  0  0  0
 38 43  2  0  0  0
 38 46  1  0  0  0
 38 47  1  0  0  0
 39 64  1  0  0  0
 39 67  2  0  0  0
 40 52  1  0  0  0
 40 53  2  0  0  0
 40 58  1  0  0  0
 41107  1  0  0  0
 41108  1  0  0  0
 41109  1  0  0  0
 41 48  1  0  0  0
 42 43  1  0  0  0
 42 66  1  0  0  0
 42110  1  0  0  0
 42111  1  0  0  0
 43 44  1  0  0  0
 44112  1  0  0  0
 45 46  2  0  0  0
 45113  1  0  0  0
 46114  1  0  0  0
 47115  1  0  0  0
 47116  1  0  0  0
 48 56  1  0  0  0
 48 65  1  0  0  0
 48117  1  0  0  0
 49 50  1  0  0  0
 49 53  1  0  0  0
 49 64  1  0  0  0
 49118  1  0  0  0
 50 51  1  0  0  0
 50119  1  0  0  0
 50120  1  0  0  0
 51 52  1  0  0  0
 51121  1  0  0  0
 51122  1  0  0  0
 52123  1  0  0  0
 52124  1  0  0  0
 53 54  1  0  0  0
 54 55  2  0  0  0
 54125  1  0  0  0
 55 57  1  0  0  0
 55126  1  0  0  0
 56 69  2  0  0  0
 57 58  2  0  0  0
 57127  1  0  0  0
 58128  1  0  0  0
 59 60  1  0  0  0
 59 61  1  0  0  0
 59 62  1  0  0  0
 60129  1  0  0  0
 60130  1  0  0  0
 60131  1  0  0  0
 61132  1  0  0  0
 61133  1  0  0  0
 61134  1  0  0  0
 62135  1  0  0  0
 62136  1  0  0  0
 62137  1  0  0  0
 63 65  1  0  0  0
 63138  1  0  0  0
 63139  1  0  0  0
 63140  1  0  0  0
 64141  1  0  0  0
 65142  1  0  0  0
 68 79  1  0  0  0
 71 72  1  0  0  0
 71 73  2  0  0  0
 71143  1  0  0  0
 72 79  1  0  0  0
 72 80  2  0  0  0
 73 81  1  0  0  0
 73 83  1  0  0  0
 74 75  1  0  0  0
 74 77  1  0  0  0
 74144  1  0  0  0
 74145  1  0  0  0
 75 82  1  0  0  0
 75146  1  0  0  0
 75147  1  0  0  0
 76 77  1  0  0  0
 76 82  1  0  0  0
 76148  1  0  0  0
 76149  1  0  0  0
 77 83  1  0  0  0
 77150  1  0  0  0
 78 81  1  0  0  0
 78151  1  0  0  0
 78152  1  0  0  0
 78153  1  0  0  0
 79154  1  0  0  0
 79155  1  0  0  0
 80 81  1  0  0  0
 83156  1  0  0  0
M  ISO  4   1 100  68 101  79 101  82 100
M  END
> <chiral flag>
0

> <version>
0

> <s_m_source_file>
/data/baiqing/PycharmProjects/Reinvent-master-3.2/result/LINK_invent/BTK/process_docking_weight1_custom_sum_contain_oxygen_bond_distance_aromatic_linkinvent_7_9_3/rearranged_h_0186.sdf

> <i_m_source_file_index>
41

> <r_mmod_Potential_Energy-OPLS-2005>
335.905517578125

> <r_mmod_Stretch_Energy-OPLS-2005>
139.597747802734

> <r_mmod_Bend_Energy-OPLS-2005>
239.178207397461

> <r_mmod_Torsional_Energy-OPLS-2005>
304.469604492188

> <r_mmod_Improper_Torsional_Energy-OPLS-2005>
11.0059413909912

> <r_mmod_Van_der_Waal_Energy-OPLS-2005>
120.386566162109

> <r_mmod_Electrostatic_Energy-OPLS-2005>
-363.59716796875

> <r_mmod_Solvation_Energy-OPLS-2005>
-229.261215209961

> <b_mmod_Minimization_Converged-OPLS-2005>
0

> <r_mmod_RMS_Derivative-OPLS-2005>
0.739984095096588

$$$$
42
                    3D
 Structure written by MMmdl.
157166  0  0  1  0            999 V2000
  -30.5594  -15.0531   20.3631 C   0  0  0  0  0  0
  -30.4299  -12.6617   19.4740 C   0  0  0  0  0  0
  -29.5059  -12.4998   18.2469 C   0  0  0  0  0  0
  -28.0459  -12.2849   18.6879 C   0  0  0  0  0  0
  -27.6076  -13.2524   19.8186 C   0  0  2  0  0  0
  -28.6671  -13.3875   20.9326 C   0  0  0  0  0  0
  -25.2311  -13.8133   20.5752 C   0  0  0  0  0  0
  -24.1688  -13.0316   20.9289 C   0  0  0  0  0  0
  -24.6377  -11.6847   20.8811 C   0  0  0  0  0  0
  -23.9084  -10.4219   21.0437 C   0  0  0  0  0  0
  -24.3629   -9.4132   21.9207 C   0  0  0  0  0  0
  -23.6283   -8.2181   22.0767 C   0  0  0  0  0  0
  -22.4269   -8.0244   21.3546 C   0  0  0  0  0  0
  -21.9913   -9.0216   20.4645 C   0  0  0  0  0  0
  -22.7261  -10.2080   20.3063 C   0  0  0  0  0  0
  -21.6834   -6.0724   22.5279 C   0  0  0  0  0  0
  -21.4001   -6.5634   23.8211 C   0  0  0  0  0  0
  -21.3655   -5.6792   24.9177 C   0  0  0  0  0  0
  -21.6044   -4.3053   24.7226 C   0  0  0  0  0  0
  -21.8817   -3.8142   23.4347 C   0  0  0  0  0  0
  -21.9183   -4.6957   22.3404 C   0  0  0  0  0  0
  -22.7706  -13.5078   21.1924 C   0  0  0  0  0  0
  -22.1661   -4.2150   21.0980 F   0  0  0  0  0  0
  -21.5628   -3.4537   25.7737 F   0  0  0  0  0  0
  -29.9158  -13.8085   20.2794 N   0  0  0  0  0  0
  -26.2792  -12.9422   20.3281 N   0  0  0  0  0  0
  -25.9315  -11.6542   20.5813 N   0  0  0  0  0  0
  -22.0388  -12.8071   22.0510 N   0  0  0  0  0  0
  -25.3689  -15.1840   20.4110 N   0  0  0  0  0  0
  -31.7920  -15.0181   20.2935 O   0  0  0  0  0  0
  -21.6616   -6.8858   21.4241 O   0  0  0  0  0  0
  -22.3373  -14.5374   20.6758 O   0  0  0  0  0  0
  -24.6472  -31.8369   23.1794 C   0  0  0  0  0  0
  -25.9229  -32.4644   23.8213 C   0  0  1  0  0  0
  -27.2363  -27.0866   20.1758 C   0  0  0  0  0  0
  -25.5964  -33.8455   24.2131 N   0  0  0  0  0  0
  -23.4563  -30.4475   21.5266 C   0  0  2  0  0  0
  -24.9100  -28.8516   20.1223 C   0  0  0  0  0  0
  -22.7595  -29.4488   22.4848 C   0  0  0  0  0  0
  -18.0316  -28.1368   22.8458 C   0  0  0  0  0  0
  -24.1491  -36.7247   23.2639 C   0  0  0  0  0  0
  -26.0122  -30.6965   21.3828 C   0  0  0  0  0  0
  -26.0884  -29.2968   20.7361 C   0  0  0  0  0  0
  -27.2534  -28.4349   20.7339 C   0  0  0  0  0  0
  -26.0267  -26.7398   19.5408 C   0  0  0  0  0  0
  -24.8941  -27.5878   19.5087 C   0  0  0  0  0  0
  -23.6877  -29.7594   20.1537 C   0  0  0  0  0  0
  -25.4124  -36.2990   24.0294 C   0  0  1  0  0  0
  -20.5926  -28.3700   23.1197 C   0  0  2  0  0  0
  -20.6784  -26.9391   22.5389 C   0  0  0  0  0  0
  -19.5771  -26.6355   21.5185 C   0  0  0  0  0  0
  -18.1953  -26.7904   22.1597 C   0  0  0  0  0  0
  -19.1573  -28.8855   23.2813 C   0  0  0  0  0  0
  -18.9485  -30.1450   23.8835 C   0  0  0  0  0  0
  -17.6478  -30.6561   24.0546 C   0  0  0  0  0  0
  -25.9083  -34.9373   23.5022 C   0  0  0  0  0  0
  -16.5375  -29.9052   23.6323 C   0  0  0  0  0  0
  -16.7301  -28.6475   23.0343 C   0  0  0  0  0  0
  -26.4539  -31.6529   25.0679 C   0  0  0  0  0  0
  -25.3703  -31.3743   26.1362 C   0  0  0  0  0  0
  -27.0421  -30.2911   24.6298 C   0  0  0  0  0  0
  -27.6050  -32.4319   25.7477 C   0  0  0  0  0  0
  -27.5577  -37.1762   24.8457 C   0  0  0  0  0  0
  -21.4284  -29.3028   22.3587 N   0  0  0  0  0  0
  -26.4278  -37.3713   23.9405 N   0  0  0  0  0  0
  -24.7251  -31.0161   22.0859 N   0  0  0  0  0  0
  -23.4203  -28.8046   23.3033 O   0  0  0  0  0  0
  -28.3236  -26.1284   20.1323 O   0  0  0  0  0  0
  -26.5667  -34.8884   22.4602 O   0  0  0  0  0  0
  -23.5577  -32.1295   23.6971 O   0  0  0  0  0  0
  -28.1326  -17.2574   19.5954 C   0  0  0  0  0  0
  -27.5184  -23.3387   20.0419 C   0  0  0  0  0  0
  -29.4996  -23.5616   20.3253 C   0  0  0  0  0  0
  -29.1801  -16.5008   18.7711 C   0  0  0  0  0  0
  -28.6012  -22.2484   20.5694 C   0  0  2  0  0  0
  -28.2995  -24.6174   20.5987 C   0  0  2  0  0  0
  -29.2396  -17.6708   20.5527 C   0  0  2  0  0  0
  -30.9733  -19.4035   19.4808 C   0  0  0  0  0  0
  -28.6897  -20.6078   20.0393 C   0  0  0  0  0  0
  -29.7516  -19.3042   20.4039 C   0  0  1  0  0  0
  -29.9066  -16.3024   20.0243 N   0  0  0  0  0  0
  -31.4544  -12.8277   19.1361 H   0  0  0  0  0  0
  -30.4510  -11.7464   20.0677 H   0  0  0  0  0  0
  -29.8338  -11.6586   17.6344 H   0  0  0  0  0  0
  -29.5753  -13.3835   17.6107 H   0  0  0  0  0  0
  -27.9619  -11.2547   19.0370 H   0  0  0  0  0  0
  -27.3711  -12.3682   17.8356 H   0  0  0  0  0  0
  -27.5167  -14.2241   19.3416 H   0  0  0  0  0  0
  -28.7949  -12.4567   21.4855 H   0  0  0  0  0  0
  -28.3580  -14.1483   21.6513 H   0  0  0  0  0  0
  -25.2763   -9.5600   22.4800 H   0  0  0  0  0  0
  -23.9971   -7.4571   22.7486 H   0  0  0  0  0  0
  -21.0844   -8.8740   19.8950 H   0  0  0  0  0  0
  -22.3727  -10.9628   19.6182 H   0  0  0  0  0  0
  -21.1995   -7.6145   23.9717 H   0  0  0  0  0  0
  -21.1482   -6.0525   25.9083 H   0  0  0  0  0  0
  -22.0600   -2.7606   23.2847 H   0  0  0  0  0  0
  -22.4010  -11.9719   22.4878 H   0  0  0  0  0  0
  -21.1018  -13.1087   22.2772 H   0  0  0  0  0  0
  -24.5764  -15.8100   20.5069 H   0  0  0  0  0  0
  -26.1939  -15.6402   20.0469 H   0  0  0  0  0  0
  -26.7304  -32.5227   23.0949 H   0  0  0  0  0  0
  -25.0106  -33.9547   25.0274 H   0  0  0  0  0  0
  -22.7604  -31.2709   21.3589 H   0  0  0  0  0  0
  -23.3747  -35.9585   23.3285 H   0  0  0  0  0  0
  -24.3598  -36.8925   22.2064 H   0  0  0  0  0  0
  -23.7268  -37.6436   23.6712 H   0  0  0  0  0  0
  -26.1616  -31.4424   20.6023 H   0  0  0  0  0  0
  -26.8834  -30.7602   22.0232 H   0  0  0  0  0  0
  -28.1597  -28.7858   21.2078 H   0  0  0  0  0  0
  -25.9520  -25.7698   19.0690 H   0  0  0  0  0  0
  -23.9965  -27.2383   19.0189 H   0  0  0  0  0  0
  -23.8236  -30.5238   19.3888 H   0  0  0  0  0  0
  -22.8052  -29.1935   19.8488 H   0  0  0  0  0  0
  -25.1306  -36.1814   25.0781 H   0  0  0  0  0  0
  -20.9991  -28.3307   24.1328 H   0  0  0  0  0  0
  -20.5636  -26.2314   23.3612 H   0  0  0  0  0  0
  -21.6650  -26.7364   22.1209 H   0  0  0  0  0  0
  -19.6929  -25.6255   21.1237 H   0  0  0  0  0  0
  -19.6723  -27.3131   20.6680 H   0  0  0  0  0  0
  -17.4211  -26.6639   21.4007 H   0  0  0  0  0  0
  -18.0374  -26.0038   22.8978 H   0  0  0  0  0  0
  -19.7973  -30.7275   24.2177 H   0  0  0  0  0  0
  -17.5044  -31.6238   24.5153 H   0  0  0  0  0  0
  -15.5370  -30.2928   23.7678 H   0  0  0  0  0  0
  -15.8709  -28.0781   22.7057 H   0  0  0  0  0  0
  -24.5904  -30.7058   25.7697 H   0  0  0  0  0  0
  -24.8855  -32.2919   26.4679 H   0  0  0  0  0  0
  -25.7963  -30.9006   27.0216 H   0  0  0  0  0  0
  -26.3042  -29.6608   24.1314 H   0  0  0  0  0  0
  -27.4011  -29.7236   25.4900 H   0  0  0  0  0  0
  -27.8956  -30.4125   23.9631 H   0  0  0  0  0  0
  -27.2633  -33.3663   26.1950 H   0  0  0  0  0  0
  -28.3914  -32.6825   25.0342 H   0  0  0  0  0  0
  -28.0658  -31.8527   26.5491 H   0  0  0  0  0  0
  -28.2530  -38.0115   24.7523 H   0  0  0  0  0  0
  -28.1128  -36.2629   24.6247 H   0  0  0  0  0  0
  -27.2304  -37.1364   25.8862 H   0  0  0  0  0  0
  -20.9502  -29.8774   21.6787 H   0  0  0  0  0  0
  -26.0139  -38.2769   24.1442 H   0  0  0  0  0  0
  -27.4186  -16.6083   20.0913 H   0  0  0  0  0  0
  -27.6315  -18.0677   19.0649 H   0  0  0  0  0  0
  -26.5280  -23.2132   20.4785 H   0  0  0  0  0  0
  -27.4326  -23.3485   18.9532 H   0  0  0  0  0  0
  -29.8793  -23.6212   19.3034 H   0  0  0  0  0  0
  -30.3307  -23.6562   21.0249 H   0  0  0  0  0  0
  -29.7120  -17.1252   18.0524 H   0  0  0  0  0  0
  -28.8071  -15.6030   18.2827 H   0  0  0  0  0  0
  -28.4676  -22.1960   21.6518 H   0  0  0  0  0  0
  -28.1271  -24.6630   21.6756 H   0  0  0  0  0  0
  -28.8697  -17.5280   21.5695 H   0  0  0  0  0  0
  -31.7276  -18.6558   19.7284 H   0  0  0  0  0  0
  -31.4428  -20.3842   19.5652 H   0  0  0  0  0  0
  -30.6999  -19.2584   18.4361 H   0  0  0  0  0  0
  -28.6123  -20.6259   18.9518 H   0  0  0  0  0  0
  -27.7226  -20.1978   20.3308 H   0  0  0  0  0  0
  -30.1330  -19.5571   21.3939 H   0  0  0  0  0  0
  1 25  1  0  0  0
  1 30  2  0  0  0
  1 81  1  0  0  0
  2  3  1  0  0  0
  2 25  1  0  0  0
  2 82  1  0  0  0
  2 83  1  0  0  0
  3  4  1  0  0  0
  3 84  1  0  0  0
  3 85  1  0  0  0
  4  5  1  0  0  0
  4 86  1  0  0  0
  4 87  1  0  0  0
  5  6  1  0  0  0
  5 26  1  0  0  0
  5 88  1  0  0  0
  6 25  1  0  0  0
  6 89  1  0  0  0
  6 90  1  0  0  0
  7  8  2  0  0  0
  7 26  1  0  0  0
  7 29  1  0  0  0
  8  9  1  0  0  0
  8 22  1  0  0  0
  9 10  1  0  0  0
  9 27  2  0  0  0
 10 11  2  0  0  0
 10 15  1  0  0  0
 11 12  1  0  0  0
 11 91  1  0  0  0
 12 13  2  0  0  0
 12 92  1  0  0  0
 13 14  1  0  0  0
 13 31  1  0  0  0
 14 15  2  0  0  0
 14 93  1  0  0  0
 15 94  1  0  0  0
 16 17  2  0  0  0
 16 21  1  0  0  0
 16 31  1  0  0  0
 17 18  1  0  0  0
 17 95  1  0  0  0
 18 19  2  0  0  0
 18 96  1  0  0  0
 19 20  1  0  0  0
 19 24  1  0  0  0
 20 21  2  0  0  0
 20 97  1  0  0  0
 21 23  1  0  0  0
 22 28  1  0  0  0
 22 32  2  0  0  0
 26 27  1  0  0  0
 28 98  1  0  0  0
 28 99  1  0  0  0
 29100  1  0  0  0
 29101  1  0  0  0
 33 34  1  0  0  0
 33 66  1  0  0  0
 33 70  2  0  0  0
 34 36  1  0  0  0
 34 59  1  0  0  0
 34102  1  0  0  0
 35 44  2  0  0  0
 35 45  1  0  0  0
 35 68  1  0  0  0
 36 56  1  0  0  0
 36103  1  0  0  0
 37 39  1  0  0  0
 37 47  1  0  0  0
 37 66  1  0  0  0
 37104  1  0  0  0
 38 43  2  0  0  0
 38 46  1  0  0  0
 38 47  1  0  0  0
 39 64  1  0  0  0
 39 67  2  0  0  0
 40 52  1  0  0  0
 40 53  2  0  0  0
 40 58  1  0  0  0
 41105  1  0  0  0
 41106  1  0  0  0
 41107  1  0  0  0
 41 48  1  0  0  0
 42 43  1  0  0  0
 42 66  1  0  0  0
 42108  1  0  0  0
 42109  1  0  0  0
 43 44  1  0  0  0
 44110  1  0  0  0
 45 46  2  0  0  0
 45111  1  0  0  0
 46112  1  0  0  0
 47113  1  0  0  0
 47114  1  0  0  0
 48 56  1  0  0  0
 48 65  1  0  0  0
 48115  1  0  0  0
 49 50  1  0  0  0
 49 53  1  0  0  0
 49 64  1  0  0  0
 49116  1  0  0  0
 50 51  1  0  0  0
 50117  1  0  0  0
 50118  1  0  0  0
 51 52  1  0  0  0
 51119  1  0  0  0
 51120  1  0  0  0
 52121  1  0  0  0
 52122  1  0  0  0
 53 54  1  0  0  0
 54 55  2  0  0  0
 54123  1  0  0  0
 55 57  1  0  0  0
 55124  1  0  0  0
 56 69  2  0  0  0
 57 58  2  0  0  0
 57125  1  0  0  0
 58126  1  0  0  0
 59 60  1  0  0  0
 59 61  1  0  0  0
 59 62  1  0  0  0
 60127  1  0  0  0
 60128  1  0  0  0
 60129  1  0  0  0
 61130  1  0  0  0
 61131  1  0  0  0
 61132  1  0  0  0
 62133  1  0  0  0
 62134  1  0  0  0
 62135  1  0  0  0
 63 65  1  0  0  0
 63136  1  0  0  0
 63137  1  0  0  0
 63138  1  0  0  0
 64139  1  0  0  0
 65140  1  0  0  0
 68 76  1  0  0  0
 71 74  1  0  0  0
 71141  1  0  0  0
 71142  1  0  0  0
 71 77  1  0  0  0
 72 75  1  0  0  0
 72 76  1  0  0  0
 72143  1  0  0  0
 72144  1  0  0  0
 73 75  1  0  0  0
 73 76  1  0  0  0
 73145  1  0  0  0
 73146  1  0  0  0
 74 81  1  0  0  0
 74147  1  0  0  0
 74148  1  0  0  0
 75 79  1  0  0  0
 75149  1  0  0  0
 76150  1  0  0  0
 77 80  1  0  0  0
 77 81  1  0  0  0
 77151  1  0  0  0
 78152  1  0  0  0
 78153  1  0  0  0
 78154  1  0  0  0
 78 80  1  0  0  0
 79 80  1  0  0  0
 79155  1  0  0  0
 79156  1  0  0  0
 80157  1  0  0  0
M  ISO  4   1 100  68 101  76 101  81 100
M  END
> <chiral flag>
0

> <version>
0

> <s_m_source_file>
/data/baiqing/PycharmProjects/Reinvent-master-3.2/result/LINK_invent/BTK/process_docking_weight1_custom_sum_contain_oxygen_bond_distance_aromatic_linkinvent_7_9_3/rearranged_h_0186.sdf

> <i_m_source_file_index>
42

> <r_mmod_Potential_Energy-OPLS-2005>
1017.81756591797

> <r_mmod_Stretch_Energy-OPLS-2005>
337.1474609375

> <r_mmod_Bend_Energy-OPLS-2005>
425.541381835938

> <r_mmod_Torsional_Energy-OPLS-2005>
381.822692871094

> <r_mmod_Improper_Torsional_Energy-OPLS-2005>
17.7931365966797

> <r_mmod_Van_der_Waal_Energy-OPLS-2005>
103.466438293457

> <r_mmod_Electrostatic_Energy-OPLS-2005>
-309.552520751953

> <r_mmod_Solvation_Energy-OPLS-2005>
-196.283172607422

> <b_mmod_Minimization_Converged-OPLS-2005>
0

> <r_mmod_RMS_Derivative-OPLS-2005>
2.4459273815155

$$$$
43
                    3D
 Structure written by MMmdl.
155164  0  0  1  0            999 V2000
  -30.4436  -15.2847   20.3851 C   0  0  0  0  0  0
  -30.4306  -12.8266   19.5227 C   0  0  0  0  0  0
  -29.5281  -12.5986   18.2844 C   0  0  0  0  0  0
  -28.0776  -12.3181   18.7129 C   0  0  0  0  0  0
  -27.6097  -13.2849   19.8292 C   0  0  2  0  0  0
  -28.6453  -13.4561   20.9597 C   0  0  0  0  0  0
  -25.2378  -13.8291   20.5817 C   0  0  0  0  0  0
  -24.1733  -13.0458   20.9281 C   0  0  0  0  0  0
  -24.6400  -11.6959   20.8766 C   0  0  0  0  0  0
  -23.9101  -10.4308   21.0409 C   0  0  0  0  0  0
  -24.3651   -9.4220   21.9183 C   0  0  0  0  0  0
  -23.6329   -8.2251   22.0744 C   0  0  0  0  0  0
  -22.4306   -8.0290   21.3547 C   0  0  0  0  0  0
  -21.9947   -9.0258   20.4641 C   0  0  0  0  0  0
  -22.7272  -10.2140   20.3053 C   0  0  0  0  0  0
  -21.6865   -6.0743   22.5281 C   0  0  0  0  0  0
  -21.4012   -6.5642   23.8213 C   0  0  0  0  0  0
  -21.3672   -5.6795   24.9178 C   0  0  0  0  0  0
  -21.6055   -4.3056   24.7224 C   0  0  0  0  0  0
  -21.8821   -3.8149   23.4342 C   0  0  0  0  0  0
  -21.9198   -4.6971   22.3402 C   0  0  0  0  0  0
  -22.7748  -13.5185   21.1940 C   0  0  0  0  0  0
  -22.1657   -4.2157   21.0978 F   0  0  0  0  0  0
  -21.5641   -3.4535   25.7732 F   0  0  0  0  0  0
  -29.8716  -13.9766   20.3288 N   0  0  0  0  0  0
  -26.2813  -12.9576   20.3287 N   0  0  0  0  0  0
  -25.9345  -11.6669   20.5756 N   0  0  0  0  0  0
  -22.0425  -12.8132   22.0483 N   0  0  0  0  0  0
  -25.4023  -15.2032   20.4315 N   0  0  0  0  0  0
  -31.6558  -15.2725   20.1187 O   0  0  0  0  0  0
  -21.6667   -6.8887   21.4243 O   0  0  0  0  0  0
  -22.3409  -14.5485   20.6791 O   0  0  0  0  0  0
  -24.6636  -31.8220   23.1684 C   0  0  0  0  0  0
  -25.9311  -32.4581   23.8158 C   0  0  1  0  0  0
  -27.2236  -26.9181   20.1817 C   0  0  0  0  0  0
  -25.5975  -33.8397   24.2058 N   0  0  0  0  0  0
  -23.4785  -30.4319   21.5179 C   0  0  2  0  0  0
  -24.9329  -28.8136   20.1117 C   0  0  0  0  0  0
  -22.7661  -29.4432   22.4778 C   0  0  0  0  0  0
  -18.0320  -28.1401   22.8469 C   0  0  0  0  0  0
  -24.1492  -36.7208   23.2648 C   0  0  0  0  0  0
  -26.0482  -30.6252   21.3997 C   0  0  0  0  0  0
  -26.1163  -29.2137   20.7439 C   0  0  0  0  0  0
  -27.2550  -28.2868   20.7528 C   0  0  0  0  0  0
  -26.0100  -26.6699   19.5029 C   0  0  0  0  0  0
  -24.9049  -27.5629   19.4719 C   0  0  0  0  0  0
  -23.7189  -29.7432   20.1452 C   0  0  0  0  0  0
  -25.4134  -36.2964   24.0296 C   0  0  1  0  0  0
  -20.5946  -28.3751   23.1190 C   0  0  2  0  0  0
  -20.6798  -26.9432   22.5405 C   0  0  0  0  0  0
  -19.5772  -26.6370   21.5217 C   0  0  0  0  0  0
  -18.1953  -26.7934   22.1623 C   0  0  0  0  0  0
  -19.1583  -28.8895   23.2819 C   0  0  0  0  0  0
  -18.9494  -30.1482   23.8858 C   0  0  0  0  0  0
  -17.6488  -30.6598   24.0550 C   0  0  0  0  0  0
  -25.9102  -34.9345   23.5003 C   0  0  0  0  0  0
  -16.5378  -29.9084   23.6340 C   0  0  0  0  0  0
  -16.7302  -28.6499   23.0371 C   0  0  0  0  0  0
  -26.4559  -31.6536   25.0694 C   0  0  0  0  0  0
  -25.3680  -31.3799   26.1348 C   0  0  0  0  0  0
  -27.0448  -30.2895   24.6444 C   0  0  0  0  0  0
  -27.6035  -32.4348   25.7503 C   0  0  0  0  0  0
  -27.5571  -37.1760   24.8462 C   0  0  0  0  0  0
  -21.4331  -29.3041   22.3536 N   0  0  0  0  0  0
  -26.4279  -37.3699   23.9408 N   0  0  0  0  0  0
  -24.7515  -30.9867   22.0827 N   0  0  0  0  0  0
  -23.4203  -28.8013   23.3033 O   0  0  0  0  0  0
  -28.2367  -25.8209   20.2647 O   0  0  0  0  0  0
  -26.5723  -34.8883   22.4600 O   0  0  0  0  0  0
  -23.5703  -32.1200   23.6770 O   0  0  0  0  0  0
  -31.3293  -23.3587   21.5118 C   0  0  0  0  0  0
  -31.6222  -21.9971   21.5734 C   0  0  0  0  0  0
  -29.5681  -21.3902   20.5617 C   0  0  0  0  0  0
  -29.2213  -22.9610   20.5146 C   0  0  0  0  0  0
  -30.2166  -17.9628   22.0078 C   0  0  0  0  0  0
  -29.1708  -16.8464   21.8679 C   0  0  0  0  0  0
  -30.0173  -18.2421   20.5287 C   0  0  2  0  0  0
  -32.9121  -21.5000   22.1912 C   0  0  0  0  0  0
  -29.0473  -19.7609   20.2178 C   0  0  0  0  0  0
  -28.0517  -24.1736   20.0989 C   0  0  0  0  0  0
  -30.1729  -23.8039   20.9971 N   0  0  0  0  0  0
  -30.7737  -21.0700   21.1018 N   0  0  0  0  0  0
  -29.7025  -16.5828   20.5255 N   0  0  0  0  0  0
  -31.4484  -13.0305   19.1900 H   0  0  0  0  0  0
  -30.4949  -11.9204   20.1268 H   0  0  0  0  0  0
  -29.9092  -11.7776   17.6758 H   0  0  0  0  0  0
  -29.5555  -13.4871   17.6516 H   0  0  0  0  0  0
  -28.0279  -11.2894   19.0717 H   0  0  0  0  0  0
  -27.4069  -12.3760   17.8548 H   0  0  0  0  0  0
  -27.5232  -14.2573   19.3418 H   0  0  0  0  0  0
  -28.8179  -12.5184   21.4890 H   0  0  0  0  0  0
  -28.2745  -14.1638   21.7012 H   0  0  0  0  0  0
  -25.2788   -9.5700   22.4770 H   0  0  0  0  0  0
  -24.0046   -7.4637   22.7450 H   0  0  0  0  0  0
  -21.0883   -8.8767   19.8942 H   0  0  0  0  0  0
  -22.3716  -10.9678   19.6168 H   0  0  0  0  0  0
  -21.1979   -7.6147   23.9709 H   0  0  0  0  0  0
  -21.1507   -6.0531   25.9083 H   0  0  0  0  0  0
  -22.0589   -2.7612   23.2840 H   0  0  0  0  0  0
  -22.4089  -11.9800   22.4843 H   0  0  0  0  0  0
  -21.1026  -13.1097   22.2703 H   0  0  0  0  0  0
  -24.6404  -15.8584   20.5693 H   0  0  0  0  0  0
  -26.2638  -15.6512   20.1445 H   0  0  0  0  0  0
  -26.7383  -32.5110   23.0874 H   0  0  0  0  0  0
  -25.0050  -33.9474   25.0165 H   0  0  0  0  0  0
  -22.7919  -31.2639   21.3444 H   0  0  0  0  0  0
  -23.3768  -35.9527   23.3276 H   0  0  0  0  0  0
  -24.3571  -36.8892   22.2070 H   0  0  0  0  0  0
  -23.7238  -37.6379   23.6731 H   0  0  0  0  0  0
  -26.2288  -31.3669   20.6205 H   0  0  0  0  0  0
  -26.9073  -30.6826   22.0563 H   0  0  0  0  0  0
  -28.1506  -28.5910   21.2751 H   0  0  0  0  0  0
  -25.8837  -25.7137   19.0153 H   0  0  0  0  0  0
  -24.0049  -27.2505   18.9608 H   0  0  0  0  0  0
  -23.8737  -30.5104   19.3853 H   0  0  0  0  0  0
  -22.8281  -29.1975   19.8283 H   0  0  0  0  0  0
  -25.1336  -36.1757   25.0790 H   0  0  0  0  0  0
  -21.0035  -28.3358   24.1314 H   0  0  0  0  0  0
  -20.5678  -26.2371   23.3649 H   0  0  0  0  0  0
  -21.6661  -26.7406   22.1214 H   0  0  0  0  0  0
  -19.6937  -25.6269   21.1279 H   0  0  0  0  0  0
  -19.6714  -27.3152   20.6726 H   0  0  0  0  0  0
  -17.4225  -26.6680   21.4023 H   0  0  0  0  0  0
  -18.0348  -26.0083   22.9024 H   0  0  0  0  0  0
  -19.7973  -30.7302   24.2220 H   0  0  0  0  0  0
  -17.5044  -31.6277   24.5151 H   0  0  0  0  0  0
  -15.5380  -30.2977   23.7685 H   0  0  0  0  0  0
  -15.8700  -28.0796   22.7133 H   0  0  0  0  0  0
  -24.5864  -30.7154   25.7658 H   0  0  0  0  0  0
  -24.8877  -32.3010   26.4656 H   0  0  0  0  0  0
  -25.7903  -30.9035   27.0206 H   0  0  0  0  0  0
  -26.3120  -29.6566   24.1433 H   0  0  0  0  0  0
  -27.3948  -29.7265   25.5110 H   0  0  0  0  0  0
  -27.9072  -30.4059   23.9877 H   0  0  0  0  0  0
  -27.2591  -33.3684   26.1964 H   0  0  0  0  0  0
  -28.3913  -32.6861   25.0389 H   0  0  0  0  0  0
  -28.0638  -31.8565   26.5525 H   0  0  0  0  0  0
  -28.2560  -38.0081   24.7512 H   0  0  0  0  0  0
  -28.1093  -36.2605   24.6281 H   0  0  0  0  0  0
  -27.2290  -37.1388   25.8864 H   0  0  0  0  0  0
  -20.9591  -29.8721   21.6655 H   0  0  0  0  0  0
  -26.0125  -38.2758   24.1416 H   0  0  0  0  0  0
  -32.0212  -24.0990   21.8876 H   0  0  0  0  0  0
  -31.2187  -17.6024   22.2508 H   0  0  0  0  0  0
  -29.9214  -18.7769   22.6700 H   0  0  0  0  0  0
  -28.1375  -17.1998   21.8682 H   0  0  0  0  0  0
  -29.3120  -16.0559   22.6078 H   0  0  0  0  0  0
  -30.9936  -18.3955   20.0662 H   0  0  0  0  0  0
  -33.0815  -21.9863   23.1524 H   0  0  0  0  0  0
  -33.7571  -21.7288   21.5421 H   0  0  0  0  0  0
  -32.8875  -20.4224   22.3586 H   0  0  0  0  0  0
  -28.7727  -19.7678   19.1630 H   0  0  0  0  0  0
  -28.0916  -19.6592   20.7327 H   0  0  0  0  0  0
  -27.1456  -23.9104   20.6449 H   0  0  0  0  0  0
  -27.8106  -24.0027   19.0493 H   0  0  0  0  0  0
  1 25  1  0  0  0
  1 30  2  0  0  0
  1 83  1  0  0  0
  2  3  1  0  0  0
  2 25  1  0  0  0
  2 84  1  0  0  0
  2 85  1  0  0  0
  3  4  1  0  0  0
  3 86  1  0  0  0
  3 87  1  0  0  0
  4  5  1  0  0  0
  4 88  1  0  0  0
  4 89  1  0  0  0
  5  6  1  0  0  0
  5 26  1  0  0  0
  5 90  1  0  0  0
  6 25  1  0  0  0
  6 91  1  0  0  0
  6 92  1  0  0  0
  7  8  2  0  0  0
  7 26  1  0  0  0
  7 29  1  0  0  0
  8  9  1  0  0  0
  8 22  1  0  0  0
  9 10  1  0  0  0
  9 27  2  0  0  0
 10 11  2  0  0  0
 10 15  1  0  0  0
 11 12  1  0  0  0
 11 93  1  0  0  0
 12 13  2  0  0  0
 12 94  1  0  0  0
 13 14  1  0  0  0
 13 31  1  0  0  0
 14 15  2  0  0  0
 14 95  1  0  0  0
 15 96  1  0  0  0
 16 17  2  0  0  0
 16 21  1  0  0  0
 16 31  1  0  0  0
 17 18  1  0  0  0
 17 97  1  0  0  0
 18 19  2  0  0  0
 18 98  1  0  0  0
 19 20  1  0  0  0
 19 24  1  0  0  0
 20 21  2  0  0  0
 20 99  1  0  0  0
 21 23  1  0  0  0
 22 28  1  0  0  0
 22 32  2  0  0  0
 26 27  1  0  0  0
 28100  1  0  0  0
 28101  1  0  0  0
 29102  1  0  0  0
 29103  1  0  0  0
 33 34  1  0  0  0
 33 66  1  0  0  0
 33 70  2  0  0  0
 34 36  1  0  0  0
 34 59  1  0  0  0
 34104  1  0  0  0
 35 44  2  0  0  0
 35 45  1  0  0  0
 35 68  1  0  0  0
 36 56  1  0  0  0
 36105  1  0  0  0
 37 39  1  0  0  0
 37 47  1  0  0  0
 37 66  1  0  0  0
 37106  1  0  0  0
 38 43  2  0  0  0
 38 46  1  0  0  0
 38 47  1  0  0  0
 39 64  1  0  0  0
 39 67  2  0  0  0
 40 52  1  0  0  0
 40 53  2  0  0  0
 40 58  1  0  0  0
 41107  1  0  0  0
 41108  1  0  0  0
 41109  1  0  0  0
 41 48  1  0  0  0
 42 43  1  0  0  0
 42 66  1  0  0  0
 42110  1  0  0  0
 42111  1  0  0  0
 43 44  1  0  0  0
 44112  1  0  0  0
 45 46  2  0  0  0
 45113  1  0  0  0
 46114  1  0  0  0
 47115  1  0  0  0
 47116  1  0  0  0
 48 56  1  0  0  0
 48 65  1  0  0  0
 48117  1  0  0  0
 49 50  1  0  0  0
 49 53  1  0  0  0
 49 64  1  0  0  0
 49118  1  0  0  0
 50 51  1  0  0  0
 50119  1  0  0  0
 50120  1  0  0  0
 51 52  1  0  0  0
 51121  1  0  0  0
 51122  1  0  0  0
 52123  1  0  0  0
 52124  1  0  0  0
 53 54  1  0  0  0
 54 55  2  0  0  0
 54125  1  0  0  0
 55 57  1  0  0  0
 55126  1  0  0  0
 56 69  2  0  0  0
 57 58  2  0  0  0
 57127  1  0  0  0
 58128  1  0  0  0
 59 60  1  0  0  0
 59 61  1  0  0  0
 59 62  1  0  0  0
 60129  1  0  0  0
 60130  1  0  0  0
 60131  1  0  0  0
 61132  1  0  0  0
 61133  1  0  0  0
 61134  1  0  0  0
 62135  1  0  0  0
 62136  1  0  0  0
 62137  1  0  0  0
 63 65  1  0  0  0
 63138  1  0  0  0
 63139  1  0  0  0
 63140  1  0  0  0
 64141  1  0  0  0
 65142  1  0  0  0
 68 80  1  0  0  0
 71 72  2  0  0  0
 71 81  1  0  0  0
 71143  1  0  0  0
 72 78  1  0  0  0
 72 82  1  0  0  0
 73 74  1  0  0  0
 73 79  1  0  0  0
 73 82  2  0  0  0
 74 80  1  0  0  0
 74 81  2  0  0  0
 75 76  1  0  0  0
 75 77  1  0  0  0
 75144  1  0  0  0
 75145  1  0  0  0
 76 83  1  0  0  0
 76146  1  0  0  0
 76147  1  0  0  0
 77 79  1  0  0  0
 77 83  1  0  0  0
 77148  1  0  0  0
 78149  1  0  0  0
 78150  1  0  0  0
 78151  1  0  0  0
 79152  1  0  0  0
 79153  1  0  0  0
 80154  1  0  0  0
 80155  1  0  0  0
M  ISO  4   1 100  68 101  80 101  83 100
M  END
> <chiral flag>
0

> <version>
0

> <s_m_source_file>
/data/baiqing/PycharmProjects/Reinvent-master-3.2/result/LINK_invent/BTK/process_docking_weight1_custom_sum_contain_oxygen_bond_distance_aromatic_linkinvent_7_9_3/rearranged_h_0186.sdf

> <i_m_source_file_index>
43

> <r_mmod_Potential_Energy-OPLS-2005>
1665.94995117188

> <r_mmod_Stretch_Energy-OPLS-2005>
675.060363769531

> <r_mmod_Bend_Energy-OPLS-2005>
557.981872558594

> <r_mmod_Torsional_Energy-OPLS-2005>
274.195831298828

> <r_mmod_Improper_Torsional_Energy-OPLS-2005>
11.2809362411499

> <r_mmod_Van_der_Waal_Energy-OPLS-2005>
126.182579040527

> <r_mmod_Electrostatic_Energy-OPLS-2005>
-219.999008178711

> <r_mmod_Solvation_Energy-OPLS-2005>
-229.027908325195

> <b_mmod_Minimization_Converged-OPLS-2005>
0

> <r_mmod_RMS_Derivative-OPLS-2005>
1.58701062202454

$$$$
44
                    3D
 Structure written by MMmdl.
157166  0  0  1  0            999 V2000
  -30.6550  -14.6954   20.4885 C   0  0  0  0  0  0
  -30.4261  -12.4336   19.4592 C   0  0  0  0  0  0
  -29.5013  -12.5141   18.2260 C   0  0  0  0  0  0
  -28.0251  -12.3504   18.6386 C   0  0  0  0  0  0
  -27.6457  -13.2276   19.8622 C   0  0  2  0  0  0
  -28.6962  -13.1097   20.9877 C   0  0  0  0  0  0
  -25.2504  -13.8176   20.5676 C   0  0  0  0  0  0
  -24.1801  -13.0426   20.9204 C   0  0  0  0  0  0
  -24.6402  -11.6909   20.8767 C   0  0  0  0  0  0
  -23.9075  -10.4290   21.0414 C   0  0  0  0  0  0
  -24.3619   -9.4200   21.9192 C   0  0  0  0  0  0
  -23.6292   -8.2237   22.0752 C   0  0  0  0  0  0
  -22.4274   -8.0284   21.3540 C   0  0  0  0  0  0
  -21.9917   -9.0258   20.4641 C   0  0  0  0  0  0
  -22.7251  -10.2138   20.3056 C   0  0  0  0  0  0
  -21.6846   -6.0743   22.5278 C   0  0  0  0  0  0
  -21.4008   -6.5648   23.8211 C   0  0  0  0  0  0
  -21.3658   -5.6793   24.9173 C   0  0  0  0  0  0
  -21.6042   -4.3059   24.7221 C   0  0  0  0  0  0
  -21.8814   -3.8153   23.4337 C   0  0  0  0  0  0
  -21.9189   -4.6968   22.3395 C   0  0  0  0  0  0
  -22.7822  -13.5212   21.1855 C   0  0  0  0  0  0
  -22.1658   -4.2160   21.0975 F   0  0  0  0  0  0
  -21.5630   -3.4543   25.7729 F   0  0  0  0  0  0
  -29.9915  -13.4878   20.4060 N   0  0  0  0  0  0
  -26.2960  -12.9389   20.3351 N   0  0  0  0  0  0
  -25.9338  -11.6532   20.5806 N   0  0  0  0  0  0
  -22.0472  -12.8205   22.0416 N   0  0  0  0  0  0
  -25.4141  -15.1894   20.4001 N   0  0  0  0  0  0
  -31.8354  -14.7519   20.1269 O   0  0  0  0  0  0
  -21.6631   -6.8888   21.4242 O   0  0  0  0  0  0
  -22.3502  -14.5520   20.6710 O   0  0  0  0  0  0
  -24.6287  -31.8583   23.2017 C   0  0  0  0  0  0
  -25.9131  -32.4767   23.8354 C   0  0  1  0  0  0
  -27.2200  -27.3030   20.1211 C   0  0  0  0  0  0
  -25.5946  -33.8570   24.2288 N   0  0  0  0  0  0
  -23.4241  -30.4819   21.5437 C   0  0  2  0  0  0
  -24.8730  -28.9360   20.1091 C   0  0  0  0  0  0
  -22.7487  -29.4621   22.4921 C   0  0  0  0  0  0
  -18.0288  -28.1384   22.8481 C   0  0  0  0  0  0
  -24.1484  -36.7274   23.2639 C   0  0  0  0  0  0
  -25.9674  -30.7824   21.3772 C   0  0  0  0  0  0
  -26.0434  -29.4092   20.7187 C   0  0  0  0  0  0
  -27.2247  -28.6042   20.7163 C   0  0  0  0  0  0
  -26.0347  -26.8928   19.4765 C   0  0  0  0  0  0
  -24.8711  -27.6832   19.4770 C   0  0  0  0  0  0
  -23.6416  -29.8174   20.1591 C   0  0  0  0  0  0
  -25.4111  -36.3073   24.0334 C   0  0  1  0  0  0
  -20.5889  -28.3692   23.1268 C   0  0  2  0  0  0
  -20.6776  -26.9411   22.5406 C   0  0  0  0  0  0
  -19.5758  -26.6383   21.5202 C   0  0  0  0  0  0
  -18.1936  -26.7935   22.1605 C   0  0  0  0  0  0
  -19.1543  -28.8853   23.2875 C   0  0  0  0  0  0
  -18.9467  -30.1450   23.8898 C   0  0  0  0  0  0
  -17.6466  -30.6586   24.0559 C   0  0  0  0  0  0
  -25.9051  -34.9447   23.5105 C   0  0  0  0  0  0
  -16.5357  -29.9083   23.6335 C   0  0  0  0  0  0
  -16.7273  -28.6498   23.0358 C   0  0  0  0  0  0
  -26.4515  -31.6576   25.0728 C   0  0  0  0  0  0
  -25.3745  -31.3704   26.1451 C   0  0  0  0  0  0
  -27.0356  -30.3000   24.6186 C   0  0  0  0  0  0
  -27.6076  -32.4310   25.7501 C   0  0  0  0  0  0
  -27.5580  -37.1791   24.8465 C   0  0  0  0  0  0
  -21.4198  -29.3046   22.3661 N   0  0  0  0  0  0
  -26.4283  -37.3778   23.9420 N   0  0  0  0  0  0
  -24.6920  -31.0579   22.0977 N   0  0  0  0  0  0
  -23.4199  -28.8162   23.3011 O   0  0  0  0  0  0
  -28.2867  -26.3888   20.1572 O   0  0  0  0  0  0
  -26.5611  -34.8920   22.4665 O   0  0  0  0  0  0
  -23.5445  -32.1387   23.7333 O   0  0  0  0  0  0
  -29.8893  -23.3148   20.9308 C   0  0  0  0  0  0
  -28.5944  -23.7082   20.5280 C   0  0  0  0  0  0
  -27.8267  -22.6086   20.0434 C   0  0  0  0  0  0
  -29.5128  -21.0617   20.4655 C   0  0  0  0  0  0
  -28.9380  -17.8074   21.7392 C   0  0  0  0  0  0
  -28.9541  -16.2595   21.6045 C   0  0  0  0  0  0
  -30.3771  -17.1920   19.9692 C   0  0  0  0  0  0
  -29.4213  -18.3746   20.4022 C   0  0  2  0  0  0
  -26.4036  -22.7905   19.5519 C   0  0  0  0  0  0
  -27.9849  -25.1310   20.8901 C   0  0  0  0  0  0
  -30.3319  -22.0215   20.8877 N   0  0  0  0  0  0
  -28.2844  -21.3144   20.0227 N   0  0  0  0  0  0
  -29.9389  -15.8880   20.5784 N   0  0  0  0  0  0
  -30.0377  -19.7419   20.4988 N   0  0  0  0  0  0
  -31.4672  -12.5438   19.1513 H   0  0  0  0  0  0
  -30.3646  -11.4488   19.9247 H   0  0  0  0  0  0
  -29.7730  -11.7506   17.4965 H   0  0  0  0  0  0
  -29.6383  -13.4742   17.7263 H   0  0  0  0  0  0
  -27.8631  -11.2981   18.8747 H   0  0  0  0  0  0
  -27.3691  -12.5763   17.7973 H   0  0  0  0  0  0
  -27.6522  -14.2597   19.5104 H   0  0  0  0  0  0
  -28.7348  -12.0866   21.3655 H   0  0  0  0  0  0
  -28.4346  -13.7209   21.8480 H   0  0  0  0  0  0
  -25.2756   -9.5676   22.4779 H   0  0  0  0  0  0
  -23.9997   -7.4623   22.7465 H   0  0  0  0  0  0
  -21.0854   -8.8778   19.8939 H   0  0  0  0  0  0
  -22.3710  -10.9680   19.6169 H   0  0  0  0  0  0
  -21.1998   -7.6152   23.9721 H   0  0  0  0  0  0
  -21.1484   -6.0522   25.9078 H   0  0  0  0  0  0
  -22.0595   -2.7616   23.2828 H   0  0  0  0  0  0
  -22.4089  -11.9857   22.4783 H   0  0  0  0  0  0
  -21.1092  -13.1228   22.2633 H   0  0  0  0  0  0
  -24.6366  -15.8352   20.4823 H   0  0  0  0  0  0
  -26.2576  -15.6281   20.0547 H   0  0  0  0  0  0
  -26.7202  -32.5432   23.1104 H   0  0  0  0  0  0
  -25.0136  -33.9712   25.0463 H   0  0  0  0  0  0
  -22.7195  -31.3035   21.3989 H   0  0  0  0  0  0
  -23.3758  -35.9590   23.3290 H   0  0  0  0  0  0
  -24.3582  -36.8899   22.2055 H   0  0  0  0  0  0
  -23.7218  -37.6467   23.6662 H   0  0  0  0  0  0
  -26.1027  -31.5446   20.6091 H   0  0  0  0  0  0
  -26.8464  -30.8309   22.0077 H   0  0  0  0  0  0
  -28.1199  -28.9577   21.2085 H   0  0  0  0  0  0
  -25.9987  -25.9290   18.9896 H   0  0  0  0  0  0
  -23.9774  -27.3167   18.9908 H   0  0  0  0  0  0
  -23.7643  -30.5951   19.4044 H   0  0  0  0  0  0
  -22.7610  -29.2494   19.8527 H   0  0  0  0  0  0
  -25.1291  -36.1917   25.0826 H   0  0  0  0  0  0
  -20.9981  -28.3266   24.1386 H   0  0  0  0  0  0
  -20.5656  -26.2305   23.3611 H   0  0  0  0  0  0
  -21.6646  -26.7431   22.1200 H   0  0  0  0  0  0
  -19.6915  -25.6291   21.1242 H   0  0  0  0  0  0
  -19.6703  -27.3188   20.6732 H   0  0  0  0  0  0
  -17.4207  -26.6685   21.4005 H   0  0  0  0  0  0
  -18.0328  -26.0072   22.8991 H   0  0  0  0  0  0
  -19.7943  -30.7265   24.2270 H   0  0  0  0  0  0
  -17.5024  -31.6272   24.5154 H   0  0  0  0  0  0
  -15.5360  -30.2984   23.7672 H   0  0  0  0  0  0
  -15.8668  -28.0820   22.7085 H   0  0  0  0  0  0
  -24.5957  -30.7007   25.7786 H   0  0  0  0  0  0
  -24.8891  -32.2853   26.4855 H   0  0  0  0  0  0
  -25.8080  -30.8916   27.0239 H   0  0  0  0  0  0
  -26.2925  -29.6744   24.1227 H   0  0  0  0  0  0
  -27.4073  -29.7266   25.4690 H   0  0  0  0  0  0
  -27.8791  -30.4287   23.9399 H   0  0  0  0  0  0
  -27.2705  -33.3630   26.2048 H   0  0  0  0  0  0
  -28.3907  -32.6827   25.0336 H   0  0  0  0  0  0
  -28.0717  -31.8443   26.5440 H   0  0  0  0  0  0
  -28.2581  -38.0105   24.7537 H   0  0  0  0  0  0
  -28.1093  -36.2642   24.6254 H   0  0  0  0  0  0
  -27.2306  -37.1383   25.8869 H   0  0  0  0  0  0
  -20.9381  -29.8769   21.6870 H   0  0  0  0  0  0
  -26.0159  -38.2843   24.1445 H   0  0  0  0  0  0
  -30.5655  -24.0339   21.3689 H   0  0  0  0  0  0
  -29.6278  -18.0990   22.5326 H   0  0  0  0  0  0
  -27.9542  -18.1878   22.0173 H   0  0  0  0  0  0
  -27.9700  -15.9135   21.2937 H   0  0  0  0  0  0
  -29.1851  -15.7937   22.5641 H   0  0  0  0  0  0
  -31.3945  -17.3944   20.3075 H   0  0  0  0  0  0
  -30.4183  -17.1062   18.8824 H   0  0  0  0  0  0
  -28.5769  -18.4186   19.7118 H   0  0  0  0  0  0
  -26.3673  -23.5484   18.7699 H   0  0  0  0  0  0
  -25.7481  -23.0981   20.3659 H   0  0  0  0  0  0
  -26.0038  -21.8661   19.1346 H   0  0  0  0  0  0
  -28.3124  -25.3262   21.9120 H   0  0  0  0  0  0
  -26.9097  -25.0005   21.0042 H   0  0  0  0  0  0
  -31.0040  -19.7286   20.7987 H   0  0  0  0  0  0
  1 25  1  0  0  0
  1 30  2  0  0  0
  1 83  1  0  0  0
  2  3  1  0  0  0
  2 25  1  0  0  0
  2 85  1  0  0  0
  2 86  1  0  0  0
  3  4  1  0  0  0
  3 87  1  0  0  0
  3 88  1  0  0  0
  4  5  1  0  0  0
  4 89  1  0  0  0
  4 90  1  0  0  0
  5  6  1  0  0  0
  5 26  1  0  0  0
  5 91  1  0  0  0
  6 25  1  0  0  0
  6 92  1  0  0  0
  6 93  1  0  0  0
  7  8  2  0  0  0
  7 26  1  0  0  0
  7 29  1  0  0  0
  8  9  1  0  0  0
  8 22  1  0  0  0
  9 10  1  0  0  0
  9 27  2  0  0  0
 10 11  2  0  0  0
 10 15  1  0  0  0
 11 12  1  0  0  0
 11 94  1  0  0  0
 12 13  2  0  0  0
 12 95  1  0  0  0
 13 14  1  0  0  0
 13 31  1  0  0  0
 14 15  2  0  0  0
 14 96  1  0  0  0
 15 97  1  0  0  0
 16 17  2  0  0  0
 16 21  1  0  0  0
 16 31  1  0  0  0
 17 18  1  0  0  0
 17 98  1  0  0  0
 18 19  2  0  0  0
 18 99  1  0  0  0
 19 20  1  0  0  0
 19 24  1  0  0  0
 20 21  2  0  0  0
 20100  1  0  0  0
 21 23  1  0  0  0
 22 28  1  0  0  0
 22 32  2  0  0  0
 26 27  1  0  0  0
 28101  1  0  0  0
 28102  1  0  0  0
 29103  1  0  0  0
 29104  1  0  0  0
 33 34  1  0  0  0
 33 66  1  0  0  0
 33 70  2  0  0  0
 34 36  1  0  0  0
 34 59  1  0  0  0
 34105  1  0  0  0
 35 44  2  0  0  0
 35 45  1  0  0  0
 35 68  1  0  0  0
 36 56  1  0  0  0
 36106  1  0  0  0
 37 39  1  0  0  0
 37 47  1  0  0  0
 37 66  1  0  0  0
 37107  1  0  0  0
 38 43  2  0  0  0
 38 46  1  0  0  0
 38 47  1  0  0  0
 39 64  1  0  0  0
 39 67  2  0  0  0
 40 52  1  0  0  0
 40 53  2  0  0  0
 40 58  1  0  0  0
 41108  1  0  0  0
 41109  1  0  0  0
 41110  1  0  0  0
 41 48  1  0  0  0
 42 43  1  0  0  0
 42 66  1  0  0  0
 42111  1  0  0  0
 42112  1  0  0  0
 43 44  1  0  0  0
 44113  1  0  0  0
 45 46  2  0  0  0
 45114  1  0  0  0
 46115  1  0  0  0
 47116  1  0  0  0
 47117  1  0  0  0
 48 56  1  0  0  0
 48 65  1  0  0  0
 48118  1  0  0  0
 49 50  1  0  0  0
 49 53  1  0  0  0
 49 64  1  0  0  0
 49119  1  0  0  0
 50 51  1  0  0  0
 50120  1  0  0  0
 50121  1  0  0  0
 51 52  1  0  0  0
 51122  1  0  0  0
 51123  1  0  0  0
 52124  1  0  0  0
 52125  1  0  0  0
 53 54  1  0  0  0
 54 55  2  0  0  0
 54126  1  0  0  0
 55 57  1  0  0  0
 55127  1  0  0  0
 56 69  2  0  0  0
 57 58  2  0  0  0
 57128  1  0  0  0
 58129  1  0  0  0
 59 60  1  0  0  0
 59 61  1  0  0  0
 59 62  1  0  0  0
 60130  1  0  0  0
 60131  1  0  0  0
 60132  1  0  0  0
 61133  1  0  0  0
 61134  1  0  0  0
 61135  1  0  0  0
 62136  1  0  0  0
 62137  1  0  0  0
 62138  1  0  0  0
 63 65  1  0  0  0
 63139  1  0  0  0
 63140  1  0  0  0
 63141  1  0  0  0
 64142  1  0  0  0
 65143  1  0  0  0
 68 80  1  0  0  0
 71 72  2  0  0  0
 71 81  1  0  0  0
 71144  1  0  0  0
 72 73  1  0  0  0
 72 80  1  0  0  0
 73 79  1  0  0  0
 73 82  2  0  0  0
 74 81  2  0  0  0
 74 82  1  0  0  0
 74 84  1  0  0  0
 75 76  1  0  0  0
 75 78  1  0  0  0
 75145  1  0  0  0
 75146  1  0  0  0
 76 83  1  0  0  0
 76147  1  0  0  0
 76148  1  0  0  0
 77 78  1  0  0  0
 77 83  1  0  0  0
 77149  1  0  0  0
 77150  1  0  0  0
 78 84  1  0  0  0
 78151  1  0  0  0
 79152  1  0  0  0
 79153  1  0  0  0
 79154  1  0  0  0
 80155  1  0  0  0
 80156  1  0  0  0
 84157  1  0  0  0
M  ISO  4   1 100  68 101  80 101  83 100
M  END
> <chiral flag>
0

> <version>
0

> <s_m_source_file>
/data/baiqing/PycharmProjects/Reinvent-master-3.2/result/LINK_invent/BTK/process_docking_weight1_custom_sum_contain_oxygen_bond_distance_aromatic_linkinvent_7_9_3/rearranged_h_0186.sdf

> <i_m_source_file_index>
44

> <r_mmod_Potential_Energy-OPLS-2005>
-214.684204101562

> <r_mmod_Stretch_Energy-OPLS-2005>
86.4076690673828

> <r_mmod_Bend_Energy-OPLS-2005>
190.596145629883

> <r_mmod_Torsional_Energy-OPLS-2005>
338.230346679688

> <r_mmod_Improper_Torsional_Energy-OPLS-2005>
15.0608062744141

> <r_mmod_Van_der_Waal_Energy-OPLS-2005>
142.09130859375

> <r_mmod_Electrostatic_Energy-OPLS-2005>
-818.406860351562

> <r_mmod_Solvation_Energy-OPLS-2005>
-233.711303710938

> <b_mmod_Minimization_Converged-OPLS-2005>
0

> <r_mmod_RMS_Derivative-OPLS-2005>
1.22168850898743

$$$$
45
                    3D
 Structure written by MMmdl.
158167  0  0  1  0            999 V2000
  -30.7041  -14.5881   20.4946 C   0  0  0  0  0  0
  -30.4172  -12.3627   19.4526 C   0  0  0  0  0  0
  -29.4995  -12.4901   18.2201 C   0  0  0  0  0  0
  -28.0222  -12.3484   18.6335 C   0  0  0  0  0  0
  -27.6491  -13.2278   19.8582 C   0  0  2  0  0  0
  -28.6962  -13.1194   20.9883 C   0  0  0  0  0  0
  -25.2544  -13.8198   20.5714 C   0  0  0  0  0  0
  -24.1817  -13.0445   20.9190 C   0  0  0  0  0  0
  -24.6403  -11.6921   20.8740 C   0  0  0  0  0  0
  -23.9076  -10.4295   21.0401 C   0  0  0  0  0  0
  -24.3622   -9.4209   21.9179 C   0  0  0  0  0  0
  -23.6293   -8.2244   22.0752 C   0  0  0  0  0  0
  -22.4274   -8.0286   21.3543 C   0  0  0  0  0  0
  -21.9915   -9.0260   20.4647 C   0  0  0  0  0  0
  -22.7246  -10.2136   20.3053 C   0  0  0  0  0  0
  -21.6858   -6.0735   22.5276 C   0  0  0  0  0  0
  -21.4020   -6.5636   23.8210 C   0  0  0  0  0  0
  -21.3661   -5.6788   24.9171 C   0  0  0  0  0  0
  -21.6042   -4.3049   24.7220 C   0  0  0  0  0  0
  -21.8817   -3.8145   23.4341 C   0  0  0  0  0  0
  -21.9192   -4.6965   22.3397 C   0  0  0  0  0  0
  -22.7837  -13.5229   21.1845 C   0  0  0  0  0  0
  -22.1661   -4.2150   21.0975 F   0  0  0  0  0  0
  -21.5627   -3.4533   25.7734 F   0  0  0  0  0  0
  -30.0106  -13.4125   20.4057 N   0  0  0  0  0  0
  -26.2980  -12.9406   20.3335 N   0  0  0  0  0  0
  -25.9340  -11.6546   20.5772 N   0  0  0  0  0  0
  -22.0479  -12.8227   22.0404 N   0  0  0  0  0  0
  -25.4256  -15.1920   20.4160 N   0  0  0  0  0  0
  -31.8941  -14.6493   20.1721 O   0  0  0  0  0  0
  -21.6639   -6.8883   21.4240 O   0  0  0  0  0  0
  -22.3518  -14.5532   20.6691 O   0  0  0  0  0  0
  -24.6249  -31.8638   23.2082 C   0  0  0  0  0  0
  -25.9109  -32.4802   23.8390 C   0  0  1  0  0  0
  -27.2104  -27.3382   20.1029 C   0  0  0  0  0  0
  -25.5932  -33.8602   24.2313 N   0  0  0  0  0  0
  -23.4158  -30.4934   21.5516 C   0  0  2  0  0  0
  -24.8583  -28.9639   20.1083 C   0  0  0  0  0  0
  -22.7465  -29.4650   22.4947 C   0  0  0  0  0  0
  -18.0283  -28.1380   22.8483 C   0  0  0  0  0  0
  -24.1485  -36.7303   23.2634 C   0  0  0  0  0  0
  -25.9588  -30.8005   21.3784 C   0  0  0  0  0  0
  -26.0303  -29.4330   20.7150 C   0  0  0  0  0  0
  -27.2103  -28.6316   20.7072 C   0  0  0  0  0  0
  -26.0133  -26.9360   19.4558 C   0  0  0  0  0  0
  -24.8511  -27.7195   19.4706 C   0  0  0  0  0  0
  -23.6272  -29.8409   20.1631 C   0  0  0  0  0  0
  -25.4106  -36.3098   24.0335 C   0  0  1  0  0  0
  -20.5883  -28.3682   23.1280 C   0  0  2  0  0  0
  -20.6773  -26.9408   22.5402 C   0  0  0  0  0  0
  -19.5749  -26.6383   21.5202 C   0  0  0  0  0  0
  -18.1931  -26.7921   22.1621 C   0  0  0  0  0  0
  -19.1536  -28.8847   23.2878 C   0  0  0  0  0  0
  -18.9463  -30.1450   23.8896 C   0  0  0  0  0  0
  -17.6465  -30.6584   24.0561 C   0  0  0  0  0  0
  -25.9048  -34.9466   23.5120 C   0  0  0  0  0  0
  -16.5353  -29.9083   23.6328 C   0  0  0  0  0  0
  -16.7273  -28.6501   23.0348 C   0  0  0  0  0  0
  -26.4492  -31.6596   25.0748 C   0  0  0  0  0  0
  -25.3730  -31.3728   26.1479 C   0  0  0  0  0  0
  -27.0322  -30.3020   24.6185 C   0  0  0  0  0  0
  -27.6053  -32.4320   25.7517 C   0  0  0  0  0  0
  -27.5586  -37.1794   24.8454 C   0  0  0  0  0  0
  -21.4182  -29.3047   22.3685 N   0  0  0  0  0  0
  -26.4280  -37.3797   23.9425 N   0  0  0  0  0  0
  -24.6857  -31.0672   22.1030 N   0  0  0  0  0  0
  -23.4203  -28.8169   23.2998 O   0  0  0  0  0  0
  -28.3058  -26.4605   20.1763 O   0  0  0  0  0  0
  -26.5611  -34.8926   22.4683 O   0  0  0  0  0  0
  -23.5419  -32.1428   23.7420 O   0  0  0  0  0  0
  -30.3282  -24.0563   20.4815 C   0  0  0  0  0  0
  -28.4582  -22.5386   20.4170 C   0  0  0  0  0  0
  -31.1361  -22.9193   20.6963 C   0  0  0  0  0  0
  -28.9414  -23.8808   20.3306 C   0  0  0  0  0  0
  -29.3373  -21.4414   20.6271 C   0  0  0  0  0  0
  -28.9957  -17.8713   19.5659 C   0  0  0  0  0  0
  -29.7010  -18.0292   21.8930 C   0  0  0  0  0  0
  -29.7896  -16.5377   19.4190 C   0  0  0  0  0  0
  -30.4751  -16.6750   21.7410 C   0  0  0  0  0  0
  -29.6213  -18.8515   20.5843 C   0  0  0  0  0  0
  -27.9637  -25.0372   19.9879 C   0  0  0  0  0  0
  -30.6624  -21.6476   20.7619 N   0  0  0  0  0  0
  -30.0010  -15.7593   20.6681 N   0  0  0  0  0  0
  -28.8370  -20.1124   20.7067 N   0  0  0  0  0  0
  -31.4634  -12.4459   19.1531 H   0  0  0  0  0  0
  -30.3165  -11.3776   19.9102 H   0  0  0  0  0  0
  -29.7549  -11.7304   17.4799 H   0  0  0  0  0  0
  -29.6585  -13.4550   17.7361 H   0  0  0  0  0  0
  -27.8490  -11.2974   18.8673 H   0  0  0  0  0  0
  -27.3709  -12.5831   17.7905 H   0  0  0  0  0  0
  -27.6578  -14.2591   19.5056 H   0  0  0  0  0  0
  -28.6930  -12.1215   21.4296 H   0  0  0  0  0  0
  -28.4626  -13.8154   21.7957 H   0  0  0  0  0  0
  -25.2768   -9.5685   22.4750 H   0  0  0  0  0  0
  -24.0000   -7.4636   22.7470 H   0  0  0  0  0  0
  -21.0843   -8.8783   19.8955 H   0  0  0  0  0  0
  -22.3706  -10.9672   19.6159 H   0  0  0  0  0  0
  -21.2021   -7.6145   23.9714 H   0  0  0  0  0  0
  -21.1485   -6.0517   25.9072 H   0  0  0  0  0  0
  -22.0598   -2.7609   23.2835 H   0  0  0  0  0  0
  -22.4100  -11.9895   22.4801 H   0  0  0  0  0  0
  -21.1099  -13.1263   22.2606 H   0  0  0  0  0  0
  -24.6653  -15.8519   20.5374 H   0  0  0  0  0  0
  -26.2923  -15.6320   20.1338 H   0  0  0  0  0  0
  -26.7178  -32.5474   23.1139 H   0  0  0  0  0  0
  -25.0068  -33.9756   25.0450 H   0  0  0  0  0  0
  -22.7081  -31.3142   21.4166 H   0  0  0  0  0  0
  -23.3759  -35.9620   23.3266 H   0  0  0  0  0  0
  -24.3591  -36.8955   22.2056 H   0  0  0  0  0  0
  -23.7218  -37.6490   23.6669 H   0  0  0  0  0  0
  -26.0902  -31.5672   20.6136 H   0  0  0  0  0  0
  -26.8402  -30.8436   22.0067 H   0  0  0  0  0  0
  -28.1049  -28.9836   21.2011 H   0  0  0  0  0  0
  -25.9204  -25.9952   18.9364 H   0  0  0  0  0  0
  -23.9549  -27.3570   18.9858 H   0  0  0  0  0  0
  -23.7447  -30.6232   19.4122 H   0  0  0  0  0  0
  -22.7465  -29.2722   19.8586 H   0  0  0  0  0  0
  -25.1275  -36.1951   25.0825 H   0  0  0  0  0  0
  -20.9976  -28.3253   24.1400 H   0  0  0  0  0  0
  -20.5666  -26.2295   23.3601 H   0  0  0  0  0  0
  -21.6645  -26.7435   22.1203 H   0  0  0  0  0  0
  -19.6912  -25.6294   21.1235 H   0  0  0  0  0  0
  -19.6686  -27.3189   20.6727 H   0  0  0  0  0  0
  -17.4197  -26.6656   21.4030 H   0  0  0  0  0  0
  -18.0346  -26.0066   22.9024 H   0  0  0  0  0  0
  -19.7943  -30.7260   24.2268 H   0  0  0  0  0  0
  -17.5024  -31.6263   24.5163 H   0  0  0  0  0  0
  -15.5355  -30.2987   23.7653 H   0  0  0  0  0  0
  -15.8672  -28.0821   22.7062 H   0  0  0  0  0  0
  -24.5902  -30.7079   25.7814 H   0  0  0  0  0  0
  -24.8924  -32.2893   26.4912 H   0  0  0  0  0  0
  -25.8065  -30.8905   27.0251 H   0  0  0  0  0  0
  -26.2893  -29.6787   24.1200 H   0  0  0  0  0  0
  -27.4011  -29.7258   25.4680 H   0  0  0  0  0  0
  -27.8768  -30.4302   23.9412 H   0  0  0  0  0  0
  -27.2667  -33.3621   26.2095 H   0  0  0  0  0  0
  -28.3867  -32.6882   25.0349 H   0  0  0  0  0  0
  -28.0716  -31.8445   26.5437 H   0  0  0  0  0  0
  -28.2558  -38.0135   24.7572 H   0  0  0  0  0  0
  -28.1127  -36.2674   24.6179 H   0  0  0  0  0  0
  -27.2323  -37.1331   25.8858 H   0  0  0  0  0  0
  -20.9351  -29.8796   21.6926 H   0  0  0  0  0  0
  -26.0161  -38.2862   24.1467 H   0  0  0  0  0  0
  -30.7720  -25.0406   20.4159 H   0  0  0  0  0  0
  -27.3979  -22.3593   20.2971 H   0  0  0  0  0  0
  -32.2046  -23.0316   20.8069 H   0  0  0  0  0  0
  -27.9690  -17.6401   19.8541 H   0  0  0  0  0  0
  -28.9318  -18.3533   18.5891 H   0  0  0  0  0  0
  -30.1802  -18.6285   22.6685 H   0  0  0  0  0  0
  -28.6940  -17.8199   22.2574 H   0  0  0  0  0  0
  -30.7616  -16.7682   18.9772 H   0  0  0  0  0  0
  -29.2766  -15.9066   18.6915 H   0  0  0  0  0  0
  -30.4401  -16.1418   22.6925 H   0  0  0  0  0  0
  -31.5288  -16.9034   21.5677 H   0  0  0  0  0  0
  -30.6327  -19.0957   20.2557 H   0  0  0  0  0  0
  -27.0624  -24.8156   20.5628 H   0  0  0  0  0  0
  -27.7268  -24.8832   18.9347 H   0  0  0  0  0  0
  -27.8314  -20.0137   20.6235 H   0  0  0  0  0  0
  1 25  1  0  0  0
  1 30  2  0  0  0
  1 83  1  0  0  0
  2  3  1  0  0  0
  2 25  1  0  0  0
  2 85  1  0  0  0
  2 86  1  0  0  0
  3  4  1  0  0  0
  3 87  1  0  0  0
  3 88  1  0  0  0
  4  5  1  0  0  0
  4 89  1  0  0  0
  4 90  1  0  0  0
  5  6  1  0  0  0
  5 26  1  0  0  0
  5 91  1  0  0  0
  6 25  1  0  0  0
  6 92  1  0  0  0
  6 93  1  0  0  0
  7  8  2  0  0  0
  7 26  1  0  0  0
  7 29  1  0  0  0
  8  9  1  0  0  0
  8 22  1  0  0  0
  9 10  1  0  0  0
  9 27  2  0  0  0
 10 11  2  0  0  0
 10 15  1  0  0  0
 11 12  1  0  0  0
 11 94  1  0  0  0
 12 13  2  0  0  0
 12 95  1  0  0  0
 13 14  1  0  0  0
 13 31  1  0  0  0
 14 15  2  0  0  0
 14 96  1  0  0  0
 15 97  1  0  0  0
 16 17  2  0  0  0
 16 21  1  0  0  0
 16 31  1  0  0  0
 17 18  1  0  0  0
 17 98  1  0  0  0
 18 19  2  0  0  0
 18 99  1  0  0  0
 19 20  1  0  0  0
 19 24  1  0  0  0
 20 21  2  0  0  0
 20100  1  0  0  0
 21 23  1  0  0  0
 22 28  1  0  0  0
 22 32  2  0  0  0
 26 27  1  0  0  0
 28101  1  0  0  0
 28102  1  0  0  0
 29103  1  0  0  0
 29104  1  0  0  0
 33 34  1  0  0  0
 33 66  1  0  0  0
 33 70  2  0  0  0
 34 36  1  0  0  0
 34 59  1  0  0  0
 34105  1  0  0  0
 35 44  2  0  0  0
 35 45  1  0  0  0
 35 68  1  0  0  0
 36 56  1  0  0  0
 36106  1  0  0  0
 37 39  1  0  0  0
 37 47  1  0  0  0
 37 66  1  0  0  0
 37107  1  0  0  0
 38 43  2  0  0  0
 38 46  1  0  0  0
 38 47  1  0  0  0
 39 64  1  0  0  0
 39 67  2  0  0  0
 40 52  1  0  0  0
 40 53  2  0  0  0
 40 58  1  0  0  0
 41108  1  0  0  0
 41109  1  0  0  0
 41110  1  0  0  0
 41 48  1  0  0  0
 42 43  1  0  0  0
 42 66  1  0  0  0
 42111  1  0  0  0
 42112  1  0  0  0
 43 44  1  0  0  0
 44113  1  0  0  0
 45 46  2  0  0  0
 45114  1  0  0  0
 46115  1  0  0  0
 47116  1  0  0  0
 47117  1  0  0  0
 48 56  1  0  0  0
 48 65  1  0  0  0
 48118  1  0  0  0
 49 50  1  0  0  0
 49 53  1  0  0  0
 49 64  1  0  0  0
 49119  1  0  0  0
 50 51  1  0  0  0
 50120  1  0  0  0
 50121  1  0  0  0
 51 52  1  0  0  0
 51122  1  0  0  0
 51123  1  0  0  0
 52124  1  0  0  0
 52125  1  0  0  0
 53 54  1  0  0  0
 54 55  2  0  0  0
 54126  1  0  0  0
 55 57  1  0  0  0
 55127  1  0  0  0
 56 69  2  0  0  0
 57 58  2  0  0  0
 57128  1  0  0  0
 58129  1  0  0  0
 59 60  1  0  0  0
 59 61  1  0  0  0
 59 62  1  0  0  0
 60130  1  0  0  0
 60131  1  0  0  0
 60132  1  0  0  0
 61133  1  0  0  0
 61134  1  0  0  0
 61135  1  0  0  0
 62136  1  0  0  0
 62137  1  0  0  0
 62138  1  0  0  0
 63 65  1  0  0  0
 63139  1  0  0  0
 63140  1  0  0  0
 63141  1  0  0  0
 64142  1  0  0  0
 65143  1  0  0  0
 68 81  1  0  0  0
 71 73  2  0  0  0
 71 74  1  0  0  0
 71144  1  0  0  0
 72 74  2  0  0  0
 72 75  1  0  0  0
 72145  1  0  0  0
 73 82  1  0  0  0
 73146  1  0  0  0
 74 81  1  0  0  0
 75 82  2  0  0  0
 75 84  1  0  0  0
 76 78  1  0  0  0
 76 80  1  0  0  0
 76147  1  0  0  0
 76148  1  0  0  0
 77 79  1  0  0  0
 77 80  1  0  0  0
 77149  1  0  0  0
 77150  1  0  0  0
 78 83  1  0  0  0
 78151  1  0  0  0
 78152  1  0  0  0
 79 83  1  0  0  0
 79153  1  0  0  0
 79154  1  0  0  0
 80 84  1  0  0  0
 80155  1  0  0  0
 81156  1  0  0  0
 81157  1  0  0  0
 84158  1  0  0  0
M  ISO  4   1 100  68 101  81 101  83 100
M  END
> <chiral flag>
0

> <version>
0

> <s_m_source_file>
/data/baiqing/PycharmProjects/Reinvent-master-3.2/result/LINK_invent/BTK/process_docking_weight1_custom_sum_contain_oxygen_bond_distance_aromatic_linkinvent_7_9_3/rearranged_h_0186.sdf

> <i_m_source_file_index>
45

> <r_mmod_Potential_Energy-OPLS-2005>
39.7676544189453

> <r_mmod_Stretch_Energy-OPLS-2005>
64.0276489257812

> <r_mmod_Bend_Energy-OPLS-2005>
151.567993164062

> <r_mmod_Torsional_Energy-OPLS-2005>
320.316040039062

> <r_mmod_Improper_Torsional_Energy-OPLS-2005>
12.2605466842651

> <r_mmod_Van_der_Waal_Energy-OPLS-2005>
159.270477294922

> <r_mmod_Electrostatic_Energy-OPLS-2005>
-489.292388916016

> <r_mmod_Solvation_Energy-OPLS-2005>
-224.49299621582

> <b_mmod_Minimization_Converged-OPLS-2005>
0

> <r_mmod_RMS_Derivative-OPLS-2005>
0.796994149684906

$$$$
46
                    3D
 Structure written by MMmdl.
158167  0  0  1  0            999 V2000
  -30.6625  -14.7835   20.4209 C   0  0  0  0  0  0
  -30.4178  -12.4817   19.4709 C   0  0  0  0  0  0
  -29.4981  -12.4767   18.2326 C   0  0  0  0  0  0
  -28.0242  -12.3147   18.6545 C   0  0  0  0  0  0
  -27.6276  -13.2376   19.8354 C   0  0  2  0  0  0
  -28.6851  -13.2349   20.9613 C   0  0  0  0  0  0
  -25.2403  -13.8175   20.5708 C   0  0  0  0  0  0
  -24.1762  -13.0410   20.9347 C   0  0  0  0  0  0
  -24.6392  -11.6912   20.8856 C   0  0  0  0  0  0
  -23.9076  -10.4279   21.0449 C   0  0  0  0  0  0
  -24.3603   -9.4180   21.9223 C   0  0  0  0  0  0
  -23.6300   -8.2202   22.0742 C   0  0  0  0  0  0
  -22.4293   -8.0250   21.3512 C   0  0  0  0  0  0
  -21.9931   -9.0221   20.4612 C   0  0  0  0  0  0
  -22.7264  -10.2115   20.3044 C   0  0  0  0  0  0
  -21.6832   -6.0740   22.5287 C   0  0  0  0  0  0
  -21.3991   -6.5632   23.8220 C   0  0  0  0  0  0
  -21.3662   -5.6771   24.9187 C   0  0  0  0  0  0
  -21.6042   -4.3038   24.7205 C   0  0  0  0  0  0
  -21.8814   -3.8131   23.4317 C   0  0  0  0  0  0
  -21.9174   -4.6965   22.3398 C   0  0  0  0  0  0
  -22.7750  -13.5184   21.1903 C   0  0  0  0  0  0
  -22.1635   -4.2158   21.0971 F   0  0  0  0  0  0
  -21.5648   -3.4529   25.7725 F   0  0  0  0  0  0
  -29.9679  -13.5902   20.3442 N   0  0  0  0  0  0
  -26.2866  -12.9441   20.3288 N   0  0  0  0  0  0
  -25.9319  -11.6570   20.5849 N   0  0  0  0  0  0
  -22.0311  -12.8191   22.0381 N   0  0  0  0  0  0
  -25.3905  -15.1868   20.3834 N   0  0  0  0  0  0
  -31.8724  -14.7750   20.1951 O   0  0  0  0  0  0
  -21.6618   -6.8874   21.4234 O   0  0  0  0  0  0
  -22.3491  -14.5514   20.6742 O   0  0  0  0  0  0
  -24.6388  -31.8511   23.1892 C   0  0  0  0  0  0
  -25.9189  -32.4707   23.8265 C   0  0  1  0  0  0
  -27.2169  -27.2037   20.1232 C   0  0  0  0  0  0
  -25.5973  -33.8520   24.2183 N   0  0  0  0  0  0
  -23.4359  -30.4727   21.5351 C   0  0  2  0  0  0
  -24.8795  -28.9123   20.1097 C   0  0  0  0  0  0
  -22.7516  -29.4606   22.4874 C   0  0  0  0  0  0
  -18.0301  -28.1378   22.8469 C   0  0  0  0  0  0
  -24.1492  -36.7259   23.2629 C   0  0  0  0  0  0
  -25.9857  -30.7466   21.3737 C   0  0  0  0  0  0
  -26.0576  -29.3632   20.7185 C   0  0  0  0  0  0
  -27.2310  -28.5273   20.7057 C   0  0  0  0  0  0
  -26.0091  -26.8429   19.4826 C   0  0  0  0  0  0
  -24.8638  -27.6604   19.4793 C   0  0  0  0  0  0
  -23.6523  -29.8041   20.1538 C   0  0  0  0  0  0
  -25.4124  -36.3028   24.0298 C   0  0  1  0  0  0
  -20.5906  -28.3689   23.1245 C   0  0  2  0  0  0
  -20.6784  -26.9408   22.5377 C   0  0  0  0  0  0
  -19.5751  -26.6383   21.5179 C   0  0  0  0  0  0
  -18.1940  -26.7927   22.1611 C   0  0  0  0  0  0
  -19.1548  -28.8858   23.2852 C   0  0  0  0  0  0
  -18.9482  -30.1473   23.8858 C   0  0  0  0  0  0
  -17.6472  -30.6579   24.0562 C   0  0  0  0  0  0
  -25.9079  -34.9419   23.5035 C   0  0  0  0  0  0
  -16.5369  -29.9072   23.6345 C   0  0  0  0  0  0
  -16.7288  -28.6494   23.0339 C   0  0  0  0  0  0
  -26.4554  -31.6526   25.0661 C   0  0  0  0  0  0
  -25.3771  -31.3693   26.1356 C   0  0  0  0  0  0
  -27.0396  -30.2925   24.6175 C   0  0  0  0  0  0
  -27.6084  -32.4266   25.7471 C   0  0  0  0  0  0
  -27.5577  -37.1790   24.8474 C   0  0  0  0  0  0
  -21.4208  -29.3056   22.3631 N   0  0  0  0  0  0
  -26.4289  -37.3737   23.9411 N   0  0  0  0  0  0
  -24.7061  -31.0442   22.0883 N   0  0  0  0  0  0
  -23.4187  -28.8147   23.3002 O   0  0  0  0  0  0
  -28.2857  -26.2529   20.1573 O   0  0  0  0  0  0
  -26.5648  -34.8913   22.4594 O   0  0  0  0  0  0
  -23.5528  -32.1352   23.7166 O   0  0  0  0  0  0
  -27.3058  -21.8936   21.4386 C   0  0  0  0  0  0
  -28.5357  -19.4940   20.6893 C   0  0  0  0  0  0
  -28.4607  -21.9667   20.6354 C   0  0  0  0  0  0
  -27.2792  -19.5643   21.3851 C   0  0  0  0  0  0
  -30.5804  -17.4259   20.3462 C   0  0  0  0  0  0
  -28.7834  -16.6155   20.9044 C   0  0  0  0  0  0
  -29.1324  -18.0291   20.2488 C   0  0  0  0  0  0
  -26.4002  -17.8061   23.0500 C   0  0  0  0  0  0
  -28.9824  -23.4540   20.2530 C   0  0  0  0  0  0
  -27.9553  -24.7559   20.2646 C   0  0  0  0  0  0
  -26.3384  -18.3807   21.6270 C   0  0  1  0  0  0
  -26.7341  -20.7326   21.8014 N   0  0  0  0  0  0
  -29.0888  -20.7411   20.2889 N   0  0  0  0  0  0
  -30.0197  -16.0285   20.3659 N   0  0  0  0  0  0
  -25.0711  -18.7522   21.4202 F   0  0  0  0  0  0
  -31.4578  -12.5845   19.1574 H   0  0  0  0  0  0
  -30.3657  -11.5276   19.9965 H   0  0  0  0  0  0
  -29.7825  -11.6662   17.5593 H   0  0  0  0  0  0
  -29.6258  -13.4032   17.6705 H   0  0  0  0  0  0
  -27.8848  -11.2739   18.9391 H   0  0  0  0  0  0
  -27.3656  -12.4837   17.8012 H   0  0  0  0  0  0
  -27.6028  -14.2419   19.4183 H   0  0  0  0  0  0
  -28.7457  -12.2561   21.4384 H   0  0  0  0  0  0
  -28.4215  -13.9442   21.7459 H   0  0  0  0  0  0
  -25.2677   -9.5712   22.4900 H   0  0  0  0  0  0
  -24.0009   -7.4582   22.7466 H   0  0  0  0  0  0
  -21.0858   -8.8718   19.8912 H   0  0  0  0  0  0
  -22.3685  -10.9660   19.6181 H   0  0  0  0  0  0
  -21.1997   -7.6135   23.9767 H   0  0  0  0  0  0
  -21.1479   -6.0460   25.9101 H   0  0  0  0  0  0
  -22.0603   -2.7589   23.2791 H   0  0  0  0  0  0
  -22.3848  -11.9833   22.4780 H   0  0  0  0  0  0
  -21.0925  -13.1244   22.2523 H   0  0  0  0  0  0
  -24.5523  -15.7582   20.3828 H   0  0  0  0  0  0
  -26.1034  -15.5403   19.7603 H   0  0  0  0  0  0
  -26.7252  -32.5332   23.0993 H   0  0  0  0  0  0
  -25.0165  -33.9644   25.0375 H   0  0  0  0  0  0
  -22.7334  -31.2976   21.3871 H   0  0  0  0  0  0
  -23.3752  -35.9596   23.3280 H   0  0  0  0  0  0
  -24.3606  -36.8885   22.2052 H   0  0  0  0  0  0
  -23.7262  -37.6457   23.6675 H   0  0  0  0  0  0
  -26.1308  -31.5049   20.6013 H   0  0  0  0  0  0
  -26.8631  -30.7962   22.0076 H   0  0  0  0  0  0
  -28.1322  -28.8767   21.1882 H   0  0  0  0  0  0
  -25.9046  -25.9046   18.9661 H   0  0  0  0  0  0
  -23.9650  -27.3084   18.9911 H   0  0  0  0  0  0
  -23.7740  -30.5787   19.3938 H   0  0  0  0  0  0
  -22.7711  -29.2350   19.8524 H   0  0  0  0  0  0
  -25.1320  -36.1844   25.0793 H   0  0  0  0  0  0
  -21.0007  -28.3260   24.1356 H   0  0  0  0  0  0
  -20.5654  -26.2312   23.3579 H   0  0  0  0  0  0
  -21.6660  -26.7420   22.1189 H   0  0  0  0  0  0
  -19.6902  -25.6289   21.1203 H   0  0  0  0  0  0
  -19.6672  -27.3217   20.6709 H   0  0  0  0  0  0
  -17.4208  -26.6659   21.4020 H   0  0  0  0  0  0
  -18.0363  -26.0070   22.9007 H   0  0  0  0  0  0
  -19.7962  -30.7300   24.2173 H   0  0  0  0  0  0
  -17.5037  -31.6245   24.5176 H   0  0  0  0  0  0
  -15.5370  -30.2952   23.7692 H   0  0  0  0  0  0
  -15.8692  -28.0814   22.7038 H   0  0  0  0  0  0
  -24.6013  -30.6942   25.7714 H   0  0  0  0  0  0
  -24.8907  -32.2864   26.4682 H   0  0  0  0  0  0
  -25.8113  -30.8984   27.0178 H   0  0  0  0  0  0
  -26.2989  -29.6643   24.1193 H   0  0  0  0  0  0
  -27.4051  -29.7197   25.4709 H   0  0  0  0  0  0
  -27.8878  -30.4148   23.9430 H   0  0  0  0  0  0
  -27.2676  -33.3592   26.1965 H   0  0  0  0  0  0
  -28.3973  -32.6736   25.0363 H   0  0  0  0  0  0
  -28.0633  -31.8412   26.5454 H   0  0  0  0  0  0
  -28.2578  -38.0098   24.7526 H   0  0  0  0  0  0
  -28.1068  -36.2625   24.6285 H   0  0  0  0  0  0
  -27.2293  -37.1432   25.8872 H   0  0  0  0  0  0
  -20.9382  -29.8795   21.6879 H   0  0  0  0  0  0
  -26.0128  -38.2791   24.1421 H   0  0  0  0  0  0
  -26.7966  -22.7727   21.8007 H   0  0  0  0  0  0
  -31.1006  -17.6849   21.2713 H   0  0  0  0  0  0
  -31.2079  -17.6593   19.4842 H   0  0  0  0  0  0
  -27.8875  -16.1350   20.5206 H   0  0  0  0  0  0
  -28.7919  -16.6032   21.9920 H   0  0  0  0  0  0
  -28.8470  -17.9653   19.1951 H   0  0  0  0  0  0
  -25.7597  -16.9265   23.1382 H   0  0  0  0  0  0
  -26.0649  -18.5381   23.7831 H   0  0  0  0  0  0
  -27.4081  -17.5112   23.3364 H   0  0  0  0  0  0
  -29.4359  -23.3860   19.2629 H   0  0  0  0  0  0
  -29.8086  -23.6647   20.9339 H   0  0  0  0  0  0
  -27.3977  -24.7083   21.1996 H   0  0  0  0  0  0
  -27.2529  -24.4990   19.4785 H   0  0  0  0  0  0
  -26.4732  -17.6285   20.8629 H   0  0  0  0  0  0
  1 25  1  0  0  0
  1 30  2  0  0  0
  1 84  1  0  0  0
  2  3  1  0  0  0
  2 25  1  0  0  0
  2 86  1  0  0  0
  2 87  1  0  0  0
  3  4  1  0  0  0
  3 88  1  0  0  0
  3 89  1  0  0  0
  4  5  1  0  0  0
  4 90  1  0  0  0
  4 91  1  0  0  0
  5  6  1  0  0  0
  5 26  1  0  0  0
  5 92  1  0  0  0
  6 25  1  0  0  0
  6 93  1  0  0  0
  6 94  1  0  0  0
  7  8  2  0  0  0
  7 26  1  0  0  0
  7 29  1  0  0  0
  8  9  1  0  0  0
  8 22  1  0  0  0
  9 10  1  0  0  0
  9 27  2  0  0  0
 10 11  2  0  0  0
 10 15  1  0  0  0
 11 12  1  0  0  0
 11 95  1  0  0  0
 12 13  2  0  0  0
 12 96  1  0  0  0
 13 14  1  0  0  0
 13 31  1  0  0  0
 14 15  2  0  0  0
 14 97  1  0  0  0
 15 98  1  0  0  0
 16 17  2  0  0  0
 16 21  1  0  0  0
 16 31  1  0  0  0
 17 18  1  0  0  0
 17 99  1  0  0  0
 18 19  2  0  0  0
 18100  1  0  0  0
 19 20  1  0  0  0
 19 24  1  0  0  0
 20 21  2  0  0  0
 20101  1  0  0  0
 21 23  1  0  0  0
 22 28  1  0  0  0
 22 32  2  0  0  0
 26 27  1  0  0  0
 28102  1  0  0  0
 28103  1  0  0  0
 29104  1  0  0  0
 29105  1  0  0  0
 33 34  1  0  0  0
 33 66  1  0  0  0
 33 70  2  0  0  0
 34 36  1  0  0  0
 34 59  1  0  0  0
 34106  1  0  0  0
 35 44  2  0  0  0
 35 45  1  0  0  0
 35 68  1  0  0  0
 36 56  1  0  0  0
 36107  1  0  0  0
 37 39  1  0  0  0
 37 47  1  0  0  0
 37 66  1  0  0  0
 37108  1  0  0  0
 38 43  2  0  0  0
 38 46  1  0  0  0
 38 47  1  0  0  0
 39 64  1  0  0  0
 39 67  2  0  0  0
 40 52  1  0  0  0
 40 53  2  0  0  0
 40 58  1  0  0  0
 41109  1  0  0  0
 41110  1  0  0  0
 41111  1  0  0  0
 41 48  1  0  0  0
 42 43  1  0  0  0
 42 66  1  0  0  0
 42112  1  0  0  0
 42113  1  0  0  0
 43 44  1  0  0  0
 44114  1  0  0  0
 45 46  2  0  0  0
 45115  1  0  0  0
 46116  1  0  0  0
 47117  1  0  0  0
 47118  1  0  0  0
 48 56  1  0  0  0
 48 65  1  0  0  0
 48119  1  0  0  0
 49 50  1  0  0  0
 49 53  1  0  0  0
 49 64  1  0  0  0
 49120  1  0  0  0
 50 51  1  0  0  0
 50121  1  0  0  0
 50122  1  0  0  0
 51 52  1  0  0  0
 51123  1  0  0  0
 51124  1  0  0  0
 52125  1  0  0  0
 52126  1  0  0  0
 53 54  1  0  0  0
 54 55  2  0  0  0
 54127  1  0  0  0
 55 57  1  0  0  0
 55128  1  0  0  0
 56 69  2  0  0  0
 57 58  2  0  0  0
 57129  1  0  0  0
 58130  1  0  0  0
 59 60  1  0  0  0
 59 61  1  0  0  0
 59 62  1  0  0  0
 60131  1  0  0  0
 60132  1  0  0  0
 60133  1  0  0  0
 61134  1  0  0  0
 61135  1  0  0  0
 61136  1  0  0  0
 62137  1  0  0  0
 62138  1  0  0  0
 62139  1  0  0  0
 63 65  1  0  0  0
 63140  1  0  0  0
 63141  1  0  0  0
 63142  1  0  0  0
 64143  1  0  0  0
 65144  1  0  0  0
 68 80  1  0  0  0
 71 73  2  0  0  0
 71 82  1  0  0  0
 71145  1  0  0  0
 72 74  1  0  0  0
 72 83  2  0  0  0
 72 77  1  0  0  0
 73 79  1  0  0  0
 73 83  1  0  0  0
 74 81  1  0  0  0
 74 82  2  0  0  0
 75 77  1  0  0  0
 75 84  1  0  0  0
 75146  1  0  0  0
 75147  1  0  0  0
 76 77  1  0  0  0
 76 84  1  0  0  0
 76148  1  0  0  0
 76149  1  0  0  0
 77150  1  0  0  0
 78151  1  0  0  0
 78152  1  0  0  0
 78153  1  0  0  0
 78 81  1  0  0  0
 79 80  1  0  0  0
 79154  1  0  0  0
 79155  1  0  0  0
 80156  1  0  0  0
 80157  1  0  0  0
 81 85  1  0  0  0
 81158  1  0  0  0
M  ISO  4   1 100  68 101  80 101  84 100
M  END
> <chiral flag>
0

> <version>
0

> <s_m_source_file>
/data/baiqing/PycharmProjects/Reinvent-master-3.2/result/LINK_invent/BTK/process_docking_weight1_custom_sum_contain_oxygen_bond_distance_aromatic_linkinvent_7_9_3/rearranged_h_0186.sdf

> <i_m_source_file_index>
46

> <r_mmod_Potential_Energy-OPLS-2005>
476.932678222656

> <r_mmod_Stretch_Energy-OPLS-2005>
184.148956298828

> <r_mmod_Bend_Energy-OPLS-2005>
244.078475952148

> <r_mmod_Torsional_Energy-OPLS-2005>
259.278594970703

> <r_mmod_Improper_Torsional_Energy-OPLS-2005>
16.8612613677979

> <r_mmod_Van_der_Waal_Energy-OPLS-2005>
145.388473510742

> <r_mmod_Electrostatic_Energy-OPLS-2005>
-261.362731933594

> <r_mmod_Solvation_Energy-OPLS-2005>
-230.244064331055

> <b_mmod_Minimization_Converged-OPLS-2005>
0

> <r_mmod_RMS_Derivative-OPLS-2005>
4.59572744369507

$$$$
47
                    3D
 Structure written by MMmdl.
150159  0  0  1  0            999 V2000
  -30.3984  -15.4825   20.3592 C   0  0  0  0  0  0
  -30.4186  -12.9708   19.5422 C   0  0  0  0  0  0
  -29.5370  -12.6203   18.3143 C   0  0  0  0  0  0
  -28.1069  -12.2837   18.7569 C   0  0  0  0  0  0
  -27.5991  -13.2911   19.8147 C   0  0  2  0  0  0
  -28.6156  -13.5924   20.9416 C   0  0  0  0  0  0
  -25.2331  -13.8277   20.5732 C   0  0  0  0  0  0
  -24.1708  -13.0449   20.9231 C   0  0  0  0  0  0
  -24.6383  -11.6944   20.8765 C   0  0  0  0  0  0
  -23.9089  -10.4297   21.0403 C   0  0  0  0  0  0
  -24.3639   -9.4206   21.9179 C   0  0  0  0  0  0
  -23.6301   -8.2243   22.0746 C   0  0  0  0  0  0
  -22.4278   -8.0285   21.3545 C   0  0  0  0  0  0
  -21.9922   -9.0260   20.4642 C   0  0  0  0  0  0
  -22.7258  -10.2135   20.3048 C   0  0  0  0  0  0
  -21.6848   -6.0741   22.5282 C   0  0  0  0  0  0
  -21.4032   -6.5646   23.8227 C   0  0  0  0  0  0
  -21.3655   -5.6797   24.9184 C   0  0  0  0  0  0
  -21.6038   -4.3057   24.7224 C   0  0  0  0  0  0
  -21.8815   -3.8151   23.4346 C   0  0  0  0  0  0
  -21.9188   -4.6974   22.3405 C   0  0  0  0  0  0
  -22.7724  -13.5186   21.1884 C   0  0  0  0  0  0
  -22.1645   -4.2158   21.0981 F   0  0  0  0  0  0
  -21.5620   -3.4538   25.7733 F   0  0  0  0  0  0
  -29.8162  -14.1570   20.2930 N   0  0  0  0  0  0
  -26.2772  -12.9569   20.3225 N   0  0  0  0  0  0
  -25.9331  -11.6664   20.5731 N   0  0  0  0  0  0
  -22.0404  -12.8182   22.0452 N   0  0  0  0  0  0
  -25.3962  -15.2003   20.4154 N   0  0  0  0  0  0
  -31.6203  -15.3863   20.1346 O   0  0  0  0  0  0
  -21.6638   -6.8882   21.4242 O   0  0  0  0  0  0
  -22.3387  -14.5480   20.6695 O   0  0  0  0  0  0
  -24.6769  -31.8114   23.1573 C   0  0  0  0  0  0
  -25.9410  -32.4516   23.8067 C   0  0  1  0  0  0
  -27.2155  -26.7991   20.1952 C   0  0  0  0  0  0
  -25.6051  -33.8334   24.1997 N   0  0  0  0  0  0
  -23.4936  -30.4179   21.5105 C   0  0  2  0  0  0
  -24.9482  -28.7819   20.1047 C   0  0  0  0  0  0
  -22.7733  -29.4382   22.4754 C   0  0  0  0  0  0
  -18.0334  -28.1429   22.8452 C   0  0  0  0  0  0
  -24.1499  -36.7183   23.2612 C   0  0  0  0  0  0
  -26.0655  -30.5779   21.4004 C   0  0  0  0  0  0
  -26.1319  -29.1505   20.7537 C   0  0  0  0  0  0
  -27.2508  -28.1800   20.7803 C   0  0  0  0  0  0
  -26.0113  -26.6264   19.4709 C   0  0  0  0  0  0
  -24.9216  -27.5441   19.4404 C   0  0  0  0  0  0
  -23.7382  -29.7251   20.1378 C   0  0  0  0  0  0
  -25.4117  -36.2917   24.0286 C   0  0  1  0  0  0
  -20.5966  -28.3794   23.1179 C   0  0  2  0  0  0
  -20.6819  -26.9470   22.5416 C   0  0  0  0  0  0
  -19.5793  -26.6381   21.5234 C   0  0  0  0  0  0
  -18.1970  -26.7950   22.1623 C   0  0  0  0  0  0
  -19.1599  -28.8928   23.2793 C   0  0  0  0  0  0
  -18.9503  -30.1516   23.8831 C   0  0  0  0  0  0
  -17.6494  -30.6610   24.0561 C   0  0  0  0  0  0
  -25.9127  -34.9317   23.4957 C   0  0  0  0  0  0
  -16.5387  -29.9100   23.6341 C   0  0  0  0  0  0
  -16.7314  -28.6531   23.0335 C   0  0  0  0  0  0
  -26.4598  -31.6470   25.0628 C   0  0  0  0  0  0
  -25.3696  -31.3821   26.1287 C   0  0  0  0  0  0
  -27.0436  -30.2799   24.6403 C   0  0  0  0  0  0
  -27.6128  -32.4236   25.7414 C   0  0  0  0  0  0
  -27.5601  -37.1684   24.8409 C   0  0  0  0  0  0
  -21.4392  -29.3051   22.3513 N   0  0  0  0  0  0
  -26.4212  -37.3718   23.9495 N   0  0  0  0  0  0
  -24.7675  -30.9665   22.0764 N   0  0  0  0  0  0
  -23.4220  -28.7980   23.3058 O   0  0  0  0  0  0
  -28.1631  -25.6060   20.3352 O   0  0  0  0  0  0
  -26.5744  -34.8904   22.4556 O   0  0  0  0  0  0
  -23.5819  -32.1145   23.6617 O   0  0  0  0  0  0
  -29.3237  -21.1810   19.6602 C   0  0  0  0  0  0
  -29.4145  -19.6848   20.0362 C   0  0  0  0  0  0
  -28.5031  -22.2888   20.3409 C   0  0  0  0  0  0
  -28.6606  -19.2451   21.0769 C   0  0  0  0  0  0
  -27.8402  -21.5670   21.4167 C   0  0  0  0  0  0
  -30.1598  -18.2560   19.5899 C   0  0  0  0  0  0
  -28.7907  -17.6301   21.2989 C   0  0  0  0  0  0
  -26.8714  -22.3310   22.2981 C   0  0  0  0  0  0
  -28.0277  -23.9785   19.8321 C   0  0  0  0  0  0
  -27.9104  -20.1922   21.7516 N   0  0  0  0  0  0
  -29.7385  -16.8727   20.3206 N   0  0  0  0  0  0
  -31.4269  -13.1894   19.1896 H   0  0  0  0  0  0
  -30.5294  -12.1072   20.1995 H   0  0  0  0  0  0
  -29.9703  -11.7902   17.7549 H   0  0  0  0  0  0
  -29.5139  -13.4722   17.6334 H   0  0  0  0  0  0
  -28.1174  -11.2797   19.1828 H   0  0  0  0  0  0
  -27.4349  -12.2458   17.8988 H   0  0  0  0  0  0
  -27.4776  -14.2209   19.2573 H   0  0  0  0  0  0
  -28.8387  -12.7102   21.5436 H   0  0  0  0  0  0
  -28.2004  -14.3379   21.6224 H   0  0  0  0  0  0
  -25.2774   -9.5686   22.4776 H   0  0  0  0  0  0
  -24.0011   -7.4634   22.7473 H   0  0  0  0  0  0
  -21.0842   -8.8770   19.8958 H   0  0  0  0  0  0
  -22.3694  -10.9678   19.6167 H   0  0  0  0  0  0
  -21.2047   -7.6157   23.9737 H   0  0  0  0  0  0
  -21.1479   -6.0522   25.9088 H   0  0  0  0  0  0
  -22.0600   -2.7610   23.2840 H   0  0  0  0  0  0
  -22.4033  -11.9844   22.4847 H   0  0  0  0  0  0
  -21.1032  -13.1222   22.2690 H   0  0  0  0  0  0
  -24.6241  -15.8497   20.5179 H   0  0  0  0  0  0
  -26.2408  -15.6426   20.0781 H   0  0  0  0  0  0
  -26.7481  -32.5048   23.0780 H   0  0  0  0  0  0
  -25.0182  -33.9374   25.0148 H   0  0  0  0  0  0
  -22.8116  -31.2525   21.3344 H   0  0  0  0  0  0
  -23.3823  -35.9438   23.3037 H   0  0  0  0  0  0
  -24.3649  -36.9066   22.2078 H   0  0  0  0  0  0
  -23.7143  -37.6256   23.6811 H   0  0  0  0  0  0
  -26.2433  -31.3057   20.6060 H   0  0  0  0  0  0
  -26.9266  -30.6534   22.0513 H   0  0  0  0  0  0
  -28.1323  -28.4579   21.3409 H   0  0  0  0  0  0
  -25.8605  -25.6902   18.9542 H   0  0  0  0  0  0
  -24.0276  -27.2561   18.9046 H   0  0  0  0  0  0
  -23.9039  -30.4924   19.3791 H   0  0  0  0  0  0
  -22.8434  -29.1890   19.8172 H   0  0  0  0  0  0
  -25.1280  -36.1628   25.0759 H   0  0  0  0  0  0
  -21.0029  -28.3397   24.1316 H   0  0  0  0  0  0
  -20.5725  -26.2421   23.3669 H   0  0  0  0  0  0
  -21.6683  -26.7469   22.1223 H   0  0  0  0  0  0
  -19.6965  -25.6279   21.1304 H   0  0  0  0  0  0
  -19.6711  -27.3164   20.6737 H   0  0  0  0  0  0
  -17.4254  -26.6695   21.4009 H   0  0  0  0  0  0
  -18.0354  -26.0118   22.9038 H   0  0  0  0  0  0
  -19.7977  -30.7355   24.2160 H   0  0  0  0  0  0
  -17.5047  -31.6284   24.5190 H   0  0  0  0  0  0
  -15.5389  -30.2982   23.7706 H   0  0  0  0  0  0
  -15.8713  -28.0842   22.7058 H   0  0  0  0  0  0
  -24.5983  -30.7005   25.7674 H   0  0  0  0  0  0
  -24.8768  -32.3051   26.4357 H   0  0  0  0  0  0
  -25.7932  -30.9300   27.0267 H   0  0  0  0  0  0
  -26.3091  -29.6503   24.1373 H   0  0  0  0  0  0
  -27.3878  -29.7137   25.5061 H   0  0  0  0  0  0
  -27.9078  -30.3904   23.9854 H   0  0  0  0  0  0
  -27.2778  -33.3659   26.1757 H   0  0  0  0  0  0
  -28.4069  -32.6554   25.0300 H   0  0  0  0  0  0
  -28.0631  -31.8467   26.5506 H   0  0  0  0  0  0
  -28.2361  -38.0227   24.7821 H   0  0  0  0  0  0
  -28.1348  -36.2803   24.5728 H   0  0  0  0  0  0
  -27.2428  -37.0706   25.8809 H   0  0  0  0  0  0
  -20.9689  -29.8713   21.6598 H   0  0  0  0  0  0
  -26.0012  -38.2706   24.1724 H   0  0  0  0  0  0
  -29.8802  -21.4804   18.7841 H   0  0  0  0  0  0
  -31.2297  -18.3908   19.7507 H   0  0  0  0  0  0
  -30.0396  -18.1211   18.5158 H   0  0  0  0  0  0
  -27.7960  -17.1922   21.2168 H   0  0  0  0  0  0
  -29.1286  -17.4467   22.3188 H   0  0  0  0  0  0
  -27.1152  -23.3922   22.3347 H   0  0  0  0  0  0
  -26.8971  -21.9582   23.3217 H   0  0  0  0  0  0
  -25.8536  -22.2263   21.9228 H   0  0  0  0  0  0
  -26.9504  -23.8594   19.7198 H   0  0  0  0  0  0
  -28.3795  -24.0278   18.8014 H   0  0  0  0  0  0
  1 25  1  0  0  0
  1 30  2  0  0  0
  1 81  1  0  0  0
  2  3  1  0  0  0
  2 25  1  0  0  0
  2 82  1  0  0  0
  2 83  1  0  0  0
  3  4  1  0  0  0
  3 84  1  0  0  0
  3 85  1  0  0  0
  4  5  1  0  0  0
  4 86  1  0  0  0
  4 87  1  0  0  0
  5  6  1  0  0  0
  5 26  1  0  0  0
  5 88  1  0  0  0
  6 25  1  0  0  0
  6 89  1  0  0  0
  6 90  1  0  0  0
  7  8  2  0  0  0
  7 26  1  0  0  0
  7 29  1  0  0  0
  8  9  1  0  0  0
  8 22  1  0  0  0
  9 10  1  0  0  0
  9 27  2  0  0  0
 10 11  2  0  0  0
 10 15  1  0  0  0
 11 12  1  0  0  0
 11 91  1  0  0  0
 12 13  2  0  0  0
 12 92  1  0  0  0
 13 14  1  0  0  0
 13 31  1  0  0  0
 14 15  2  0  0  0
 14 93  1  0  0  0
 15 94  1  0  0  0
 16 17  2  0  0  0
 16 21  1  0  0  0
 16 31  1  0  0  0
 17 18  1  0  0  0
 17 95  1  0  0  0
 18 19  2  0  0  0
 18 96  1  0  0  0
 19 20  1  0  0  0
 19 24  1  0  0  0
 20 21  2  0  0  0
 20 97  1  0  0  0
 21 23  1  0  0  0
 22 28  1  0  0  0
 22 32  2  0  0  0
 26 27  1  0  0  0
 28 98  1  0  0  0
 28 99  1  0  0  0
 29100  1  0  0  0
 29101  1  0  0  0
 33 34  1  0  0  0
 33 66  1  0  0  0
 33 70  2  0  0  0
 34 36  1  0  0  0
 34 59  1  0  0  0
 34102  1  0  0  0
 35 44  2  0  0  0
 35 45  1  0  0  0
 35 68  1  0  0  0
 36 56  1  0  0  0
 36103  1  0  0  0
 37 39  1  0  0  0
 37 47  1  0  0  0
 37 66  1  0  0  0
 37104  1  0  0  0
 38 43  2  0  0  0
 38 46  1  0  0  0
 38 47  1  0  0  0
 39 64  1  0  0  0
 39 67  2  0  0  0
 40 52  1  0  0  0
 40 53  2  0  0  0
 40 58  1  0  0  0
 41105  1  0  0  0
 41106  1  0  0  0
 41107  1  0  0  0
 41 48  1  0  0  0
 42 43  1  0  0  0
 42 66  1  0  0  0
 42108  1  0  0  0
 42109  1  0  0  0
 43 44  1  0  0  0
 44110  1  0  0  0
 45 46  2  0  0  0
 45111  1  0  0  0
 46112  1  0  0  0
 47113  1  0  0  0
 47114  1  0  0  0
 48 56  1  0  0  0
 48 65  1  0  0  0
 48115  1  0  0  0
 49 50  1  0  0  0
 49 53  1  0  0  0
 49 64  1  0  0  0
 49116  1  0  0  0
 50 51  1  0  0  0
 50117  1  0  0  0
 50118  1  0  0  0
 51 52  1  0  0  0
 51119  1  0  0  0
 51120  1  0  0  0
 52121  1  0  0  0
 52122  1  0  0  0
 53 54  1  0  0  0
 54 55  2  0  0  0
 54123  1  0  0  0
 55 57  1  0  0  0
 55124  1  0  0  0
 56 69  2  0  0  0
 57 58  2  0  0  0
 57125  1  0  0  0
 58126  1  0  0  0
 59 60  1  0  0  0
 59 61  1  0  0  0
 59 62  1  0  0  0
 60127  1  0  0  0
 60128  1  0  0  0
 60129  1  0  0  0
 61130  1  0  0  0
 61131  1  0  0  0
 61132  1  0  0  0
 62133  1  0  0  0
 62134  1  0  0  0
 62135  1  0  0  0
 63 65  1  0  0  0
 63136  1  0  0  0
 63137  1  0  0  0
 63138  1  0  0  0
 64139  1  0  0  0
 65140  1  0  0  0
 68 79  1  0  0  0
 71 72  2  0  0  0
 71 73  1  0  0  0
 71141  1  0  0  0
 72 74  1  0  0  0
 72 76  1  0  0  0
 73 75  2  0  0  0
 73 79  1  0  0  0
 74 77  1  0  0  0
 74 80  2  0  0  0
 75 78  1  0  0  0
 75 80  1  0  0  0
 76 81  1  0  0  0
 76142  1  0  0  0
 76143  1  0  0  0
 77 81  1  0  0  0
 77144  1  0  0  0
 77145  1  0  0  0
 78146  1  0  0  0
 78147  1  0  0  0
 78148  1  0  0  0
 79149  1  0  0  0
 79150  1  0  0  0
M  ISO  4   1 100  68 101  79 101  81 100
M  END
> <chiral flag>
0

> <version>
0

> <s_m_source_file>
/data/baiqing/PycharmProjects/Reinvent-master-3.2/result/LINK_invent/BTK/process_docking_weight1_custom_sum_contain_oxygen_bond_distance_aromatic_linkinvent_7_9_3/rearranged_h_0186.sdf

> <i_m_source_file_index>
47

> <r_mmod_Potential_Energy-OPLS-2005>
1693.32580566406

> <r_mmod_Stretch_Energy-OPLS-2005>
719.142822265625

> <r_mmod_Bend_Energy-OPLS-2005>
577.510864257812

> <r_mmod_Torsional_Energy-OPLS-2005>
266.9453125

> <r_mmod_Improper_Torsional_Energy-OPLS-2005>
14.3168935775757

> <r_mmod_Van_der_Waal_Energy-OPLS-2005>
120.507286071777

> <r_mmod_Electrostatic_Energy-OPLS-2005>
-477.628845214844

> <r_mmod_Solvation_Energy-OPLS-2005>
-227.635406494141

> <b_mmod_Minimization_Converged-OPLS-2005>
0

> <r_mmod_RMS_Derivative-OPLS-2005>
2.45455718040466

$$$$
48
                    3D
 Structure written by MMmdl.
149158  0  0  1  0            999 V2000
  -30.3965  -15.3345   20.3813 C   0  0  0  0  0  0
  -30.4446  -12.8752   19.4884 C   0  0  0  0  0  0
  -29.5305  -12.5760   18.2723 C   0  0  0  0  0  0
  -28.0856  -12.2873   18.7197 C   0  0  0  0  0  0
  -27.6059  -13.2730   19.8126 C   0  0  2  0  0  0
  -28.6478  -13.4756   20.9290 C   0  0  0  0  0  0
  -25.2369  -13.8209   20.5751 C   0  0  0  0  0  0
  -24.1724  -13.0412   20.9264 C   0  0  0  0  0  0
  -24.6382  -11.6928   20.8759 C   0  0  0  0  0  0
  -23.9077  -10.4288   21.0390 C   0  0  0  0  0  0
  -24.3615   -9.4205   21.9181 C   0  0  0  0  0  0
  -23.6292   -8.2239   22.0764 C   0  0  0  0  0  0
  -22.4280   -8.0267   21.3531 C   0  0  0  0  0  0
  -21.9907   -9.0245   20.4634 C   0  0  0  0  0  0
  -22.7239  -10.2124   20.3045 C   0  0  0  0  0  0
  -21.6861   -6.0723   22.5273 C   0  0  0  0  0  0
  -21.4019   -6.5623   23.8201 C   0  0  0  0  0  0
  -21.3660   -5.6777   24.9161 C   0  0  0  0  0  0
  -21.6051   -4.3040   24.7214 C   0  0  0  0  0  0
  -21.8824   -3.8131   23.4334 C   0  0  0  0  0  0
  -21.9202   -4.6951   22.3389 C   0  0  0  0  0  0
  -22.7742  -13.5190   21.1888 C   0  0  0  0  0  0
  -22.1673   -4.2133   21.0962 F   0  0  0  0  0  0
  -21.5630   -3.4516   25.7719 F   0  0  0  0  0  0
  -29.8483  -14.0194   20.2691 N   0  0  0  0  0  0
  -26.2800  -12.9500   20.3206 N   0  0  0  0  0  0
  -25.9319  -11.6605   20.5694 N   0  0  0  0  0  0
  -22.0409  -12.8191   22.0445 N   0  0  0  0  0  0
  -25.3958  -15.1950   20.4182 N   0  0  0  0  0  0
  -31.6390  -15.3169   20.3195 O   0  0  0  0  0  0
  -21.6649   -6.8865   21.4237 O   0  0  0  0  0  0
  -22.3438  -14.5493   20.6730 O   0  0  0  0  0  0
  -24.6660  -31.8177   23.1665 C   0  0  0  0  0  0
  -25.9320  -32.4555   23.8150 C   0  0  1  0  0  0
  -27.2225  -26.8913   20.2085 C   0  0  0  0  0  0
  -25.5974  -33.8372   24.2044 N   0  0  0  0  0  0
  -23.4854  -30.4282   21.5146 C   0  0  2  0  0  0
  -24.9373  -28.8035   20.1173 C   0  0  0  0  0  0
  -22.7672  -29.4430   22.4739 C   0  0  0  0  0  0
  -18.0295  -28.1420   22.8421 C   0  0  0  0  0  0
  -24.1494  -36.7199   23.2652 C   0  0  0  0  0  0
  -26.0530  -30.6173   21.4001 C   0  0  0  0  0  0
  -26.1221  -29.2022   20.7489 C   0  0  0  0  0  0
  -27.2594  -28.2695   20.7627 C   0  0  0  0  0  0
  -26.0027  -26.6450   19.5377 C   0  0  0  0  0  0
  -24.9044  -27.5461   19.4913 C   0  0  0  0  0  0
  -23.7291  -29.7408   20.1434 C   0  0  0  0  0  0
  -25.4136  -36.2947   24.0298 C   0  0  1  0  0  0
  -20.5939  -28.3781   23.1074 C   0  0  2  0  0  0
  -20.6814  -26.9493   22.5189 C   0  0  0  0  0  0
  -19.5663  -26.6351   21.5171 C   0  0  0  0  0  0
  -18.1922  -26.7913   22.1667 C   0  0  0  0  0  0
  -19.1569  -28.8914   23.2755 C   0  0  0  0  0  0
  -18.9488  -30.1480   23.8839 C   0  0  0  0  0  0
  -17.6490  -30.6617   24.0540 C   0  0  0  0  0  0
  -25.9099  -34.9334   23.4998 C   0  0  0  0  0  0
  -16.5376  -29.9114   23.6326 C   0  0  0  0  0  0
  -16.7283  -28.6524   23.0351 C   0  0  0  0  0  0
  -26.4566  -31.6527   25.0703 C   0  0  0  0  0  0
  -25.3694  -31.3786   26.1359 C   0  0  0  0  0  0
  -27.0482  -30.2894   24.6462 C   0  0  0  0  0  0
  -27.6035  -32.4362   25.7517 C   0  0  0  0  0  0
  -27.5564  -37.1762   24.8470 C   0  0  0  0  0  0
  -21.4338  -29.3080   22.3439 N   0  0  0  0  0  0
  -26.4277  -37.3685   23.9397 N   0  0  0  0  0  0
  -24.7556  -30.9833   22.0809 N   0  0  0  0  0  0
  -23.4177  -28.8033   23.3040 O   0  0  0  0  0  0
  -28.2349  -25.7833   20.2607 O   0  0  0  0  0  0
  -26.5716  -34.8883   22.4591 O   0  0  0  0  0  0
  -23.5730  -32.1147   23.6764 O   0  0  0  0  0  0
  -29.4645  -19.5375   20.0503 C   0  0  0  0  0  0
  -28.8515  -20.8568   20.5831 C   0  0  0  0  0  0
  -29.3224  -18.1145   20.6425 C   0  0  0  0  0  0
  -27.9715  -19.3459   22.1616 C   0  0  0  0  0  0
  -28.2634  -23.3218   19.1276 C   0  0  0  0  0  0
  -28.9687  -22.6141   20.2803 C   0  0  1  0  0  0
  -27.9971  -24.1311   20.3838 C   0  0  1  0  0  0
  -27.0184  -19.1989   23.3320 C   0  0  0  0  0  0
  -28.1016  -20.5917   21.6734 N   0  0  0  0  0  0
  -28.5286  -18.1973   21.7335 N   0  0  0  0  0  0
  -29.6199  -16.5912   20.1361 N   0  0  0  0  0  0
  -31.4442  -13.1297   19.1314 H   0  0  0  0  0  0
  -30.5708  -11.9892   20.1136 H   0  0  0  0  0  0
  -29.9199  -11.7353   17.6977 H   0  0  0  0  0  0
  -29.5361  -13.4351   17.6007 H   0  0  0  0  0  0
  -28.0589  -11.2696   19.1104 H   0  0  0  0  0  0
  -27.4086  -12.3005   17.8653 H   0  0  0  0  0  0
  -27.5080  -14.2303   19.2996 H   0  0  0  0  0  0
  -28.8502  -12.5506   21.4687 H   0  0  0  0  0  0
  -28.2816  -14.1919   21.6681 H   0  0  0  0  0  0
  -25.2754   -9.5694   22.4758 H   0  0  0  0  0  0
  -23.9998   -7.4637   22.7492 H   0  0  0  0  0  0
  -21.0845   -8.8753   19.8941 H   0  0  0  0  0  0
  -22.3690  -10.9655   19.6151 H   0  0  0  0  0  0
  -21.2029   -7.6132   23.9683 H   0  0  0  0  0  0
  -21.1470   -6.0513   25.9054 H   0  0  0  0  0  0
  -22.0613   -2.7590   23.2832 H   0  0  0  0  0  0
  -22.4053  -11.9880   22.4846 H   0  0  0  0  0  0
  -21.1002  -13.1166   22.2598 H   0  0  0  0  0  0
  -24.6177  -15.8360   20.5272 H   0  0  0  0  0  0
  -26.2389  -15.6442   20.0891 H   0  0  0  0  0  0
  -26.7394  -32.5088   23.0871 H   0  0  0  0  0  0
  -25.0096  -33.9426   25.0187 H   0  0  0  0  0  0
  -22.7981  -31.2565   21.3415 H   0  0  0  0  0  0
  -23.3759  -35.9528   23.3292 H   0  0  0  0  0  0
  -24.3575  -36.8866   22.2071 H   0  0  0  0  0  0
  -23.7257  -37.6384   23.6730 H   0  0  0  0  0  0
  -26.2358  -31.3565   20.6189 H   0  0  0  0  0  0
  -26.9128  -30.6773   22.0583 H   0  0  0  0  0  0
  -28.1596  -28.5782   21.2759 H   0  0  0  0  0  0
  -25.8732  -25.6816   19.0668 H   0  0  0  0  0  0
  -24.0030  -27.2308   18.9811 H   0  0  0  0  0  0
  -23.8963  -30.5092   19.3871 H   0  0  0  0  0  0
  -22.8386  -29.2011   19.8170 H   0  0  0  0  0  0
  -25.1335  -36.1738   25.0793 H   0  0  0  0  0  0
  -21.0024  -28.3301   24.1211 H   0  0  0  0  0  0
  -20.6020  -26.2354   23.3396 H   0  0  0  0  0  0
  -21.6586  -26.7653   22.0664 H   0  0  0  0  0  0
  -19.6789  -25.6196   21.1356 H   0  0  0  0  0  0
  -19.6536  -27.3024   20.6583 H   0  0  0  0  0  0
  -17.4122  -26.6496   21.4186 H   0  0  0  0  0  0
  -18.0452  -26.0154   22.9201 H   0  0  0  0  0  0
  -19.7963  -30.7277   24.2186 H   0  0  0  0  0  0
  -17.5038  -31.6263   24.5225 H   0  0  0  0  0  0
  -15.5379  -30.2997   23.7679 H   0  0  0  0  0  0
  -15.8667  -28.0834   22.7083 H   0  0  0  0  0  0
  -24.5894  -30.7106   25.7675 H   0  0  0  0  0  0
  -24.8873  -32.2995   26.4654 H   0  0  0  0  0  0
  -25.7939  -30.9046   27.0218 H   0  0  0  0  0  0
  -26.3164  -29.6548   24.1445 H   0  0  0  0  0  0
  -27.3968  -29.7278   25.5138 H   0  0  0  0  0  0
  -27.9113  -30.4062   23.9904 H   0  0  0  0  0  0
  -27.2577  -33.3707   26.1941 H   0  0  0  0  0  0
  -28.3937  -32.6836   25.0422 H   0  0  0  0  0  0
  -28.0604  -31.8595   26.5565 H   0  0  0  0  0  0
  -28.2568  -38.0064   24.7480 H   0  0  0  0  0  0
  -28.1062  -36.2583   24.6338 H   0  0  0  0  0  0
  -27.2272  -37.1457   25.8870 H   0  0  0  0  0  0
  -20.9687  -29.8653   21.6427 H   0  0  0  0  0  0
  -26.0118  -38.2739   24.1403 H   0  0  0  0  0  0
  -30.0723  -19.6268   19.1602 H   0  0  0  0  0  0
  -27.3953  -22.8200   18.7031 H   0  0  0  0  0  0
  -28.9187  -23.7671   18.3838 H   0  0  0  0  0  0
  -30.0323  -22.8143   20.3871 H   0  0  0  0  0  0
  -27.0338  -23.9915   20.8728 H   0  0  0  0  0  0
  -27.5688  -19.0642   24.2632 H   0  0  0  0  0  0
  -26.3791  -20.0760   23.4436 H   0  0  0  0  0  0
  -26.3632  -18.3377   23.1934 H   0  0  0  0  0  0
  -28.7629  -16.2594   19.7253 H   0  0  0  0  0  0
  1 25  1  0  0  0
  1 30  2  0  0  0
  1 81  1  0  0  0
  2  3  1  0  0  0
  2 25  1  0  0  0
  2 82  1  0  0  0
  2 83  1  0  0  0
  3  4  1  0  0  0
  3 84  1  0  0  0
  3 85  1  0  0  0
  4  5  1  0  0  0
  4 86  1  0  0  0
  4 87  1  0  0  0
  5  6  1  0  0  0
  5 26  1  0  0  0
  5 88  1  0  0  0
  6 25  1  0  0  0
  6 89  1  0  0  0
  6 90  1  0  0  0
  7  8  2  0  0  0
  7 26  1  0  0  0
  7 29  1  0  0  0
  8  9  1  0  0  0
  8 22  1  0  0  0
  9 10  1  0  0  0
  9 27  2  0  0  0
 10 11  2  0  0  0
 10 15  1  0  0  0
 11 12  1  0  0  0
 11 91  1  0  0  0
 12 13  2  0  0  0
 12 92  1  0  0  0
 13 14  1  0  0  0
 13 31  1  0  0  0
 14 15  2  0  0  0
 14 93  1  0  0  0
 15 94  1  0  0  0
 16 17  2  0  0  0
 16 21  1  0  0  0
 16 31  1  0  0  0
 17 18  1  0  0  0
 17 95  1  0  0  0
 18 19  2  0  0  0
 18 96  1  0  0  0
 19 20  1  0  0  0
 19 24  1  0  0  0
 20 21  2  0  0  0
 20 97  1  0  0  0
 21 23  1  0  0  0
 22 28  1  0  0  0
 22 32  2  0  0  0
 26 27  1  0  0  0
 28 98  1  0  0  0
 28 99  1  0  0  0
 29100  1  0  0  0
 29101  1  0  0  0
 33 34  1  0  0  0
 33 66  1  0  0  0
 33 70  2  0  0  0
 34 36  1  0  0  0
 34 59  1  0  0  0
 34102  1  0  0  0
 35 44  2  0  0  0
 35 45  1  0  0  0
 35 68  1  0  0  0
 36 56  1  0  0  0
 36103  1  0  0  0
 37 39  1  0  0  0
 37 47  1  0  0  0
 37 66  1  0  0  0
 37104  1  0  0  0
 38 43  2  0  0  0
 38 46  1  0  0  0
 38 47  1  0  0  0
 39 64  1  0  0  0
 39 67  2  0  0  0
 40 52  1  0  0  0
 40 53  2  0  0  0
 40 58  1  0  0  0
 41105  1  0  0  0
 41106  1  0  0  0
 41107  1  0  0  0
 41 48  1  0  0  0
 42 43  1  0  0  0
 42 66  1  0  0  0
 42108  1  0  0  0
 42109  1  0  0  0
 43 44  1  0  0  0
 44110  1  0  0  0
 45 46  2  0  0  0
 45111  1  0  0  0
 46112  1  0  0  0
 47113  1  0  0  0
 47114  1  0  0  0
 48 56  1  0  0  0
 48 65  1  0  0  0
 48115  1  0  0  0
 49 50  1  0  0  0
 49 53  1  0  0  0
 49 64  1  0  0  0
 49116  1  0  0  0
 50 51  1  0  0  0
 50117  1  0  0  0
 50118  1  0  0  0
 51 52  1  0  0  0
 51119  1  0  0  0
 51120  1  0  0  0
 52121  1  0  0  0
 52122  1  0  0  0
 53 54  1  0  0  0
 54 55  2  0  0  0
 54123  1  0  0  0
 55 57  1  0  0  0
 55124  1  0  0  0
 56 69  2  0  0  0
 57 58  2  0  0  0
 57125  1  0  0  0
 58126  1  0  0  0
 59 60  1  0  0  0
 59 61  1  0  0  0
 59 62  1  0  0  0
 60127  1  0  0  0
 60128  1  0  0  0
 60129  1  0  0  0
 61130  1  0  0  0
 61131  1  0  0  0
 61132  1  0  0  0
 62133  1  0  0  0
 62134  1  0  0  0
 62135  1  0  0  0
 63 65  1  0  0  0
 63136  1  0  0  0
 63137  1  0  0  0
 63138  1  0  0  0
 64139  1  0  0  0
 65140  1  0  0  0
 68 77  1  0  0  0
 71 72  2  0  0  0
 71 73  1  0  0  0
 71141  1  0  0  0
 72 79  1  0  0  0
 72 76  1  0  0  0
 73 80  2  0  0  0
 73 81  1  0  0  0
 74 78  1  0  0  0
 74 79  2  0  0  0
 74 80  1  0  0  0
 75 76  1  0  0  0
 75 77  1  0  0  0
 75142  1  0  0  0
 75143  1  0  0  0
 76 77  1  0  0  0
 76144  1  0  0  0
 77145  1  0  0  0
 78146  1  0  0  0
 78147  1  0  0  0
 78148  1  0  0  0
 81149  1  0  0  0
M  ISO  4   1 100  68 101  77 101  81 100
M  END
> <chiral flag>
0

> <version>
0

> <s_m_source_file>
/data/baiqing/PycharmProjects/Reinvent-master-3.2/result/LINK_invent/BTK/process_docking_weight1_custom_sum_contain_oxygen_bond_distance_aromatic_linkinvent_7_9_3/rearranged_h_0186.sdf

> <i_m_source_file_index>
48

> <r_mmod_Potential_Energy-OPLS-2005>
1060.66784667969

> <r_mmod_Stretch_Energy-OPLS-2005>
635.810729980469

> <r_mmod_Bend_Energy-OPLS-2005>
459.56396484375

> <r_mmod_Torsional_Energy-OPLS-2005>
286.163177490234

> <r_mmod_Improper_Torsional_Energy-OPLS-2005>
18.2981491088867

> <r_mmod_Van_der_Waal_Energy-OPLS-2005>
128.497177124023

> <r_mmod_Electrostatic_Energy-OPLS-2005>
-759.713256835938

> <r_mmod_Solvation_Energy-OPLS-2005>
-238.223403930664

> <b_mmod_Minimization_Converged-OPLS-2005>
0

> <r_mmod_RMS_Derivative-OPLS-2005>
3.68168592453003

$$$$
49
                    3D
 Structure written by MMmdl.
149158  0  0  1  0            999 V2000
  -30.3634  -15.4250   20.3263 C   0  0  0  0  0  0
  -30.4197  -12.9420   19.4658 C   0  0  0  0  0  0
  -29.5022  -12.5706   18.2694 C   0  0  0  0  0  0
  -28.0793  -12.2217   18.7376 C   0  0  0  0  0  0
  -27.5960  -13.2180   19.8152 C   0  0  2  0  0  0
  -28.6429  -13.5183   20.9130 C   0  0  0  0  0  0
  -25.2392  -13.7952   20.5884 C   0  0  0  0  0  0
  -24.1670  -13.0193   20.9339 C   0  0  0  0  0  0
  -24.6282  -11.6706   20.8836 C   0  0  0  0  0  0
  -23.8952  -10.4101   21.0448 C   0  0  0  0  0  0
  -24.3498   -9.4021   21.9230 C   0  0  0  0  0  0
  -23.6173   -8.2061   22.0746 C   0  0  0  0  0  0
  -22.4171   -8.0126   21.3524 C   0  0  0  0  0  0
  -21.9814   -9.0083   20.4634 C   0  0  0  0  0  0
  -22.7126  -10.1968   20.3081 C   0  0  0  0  0  0
  -21.6777   -6.0633   22.5273 C   0  0  0  0  0  0
  -21.3985   -6.5574   23.8195 C   0  0  0  0  0  0
  -21.3659   -5.6742   24.9173 C   0  0  0  0  0  0
  -21.6051   -4.3010   24.7235 C   0  0  0  0  0  0
  -21.8817   -3.8075   23.4368 C   0  0  0  0  0  0
  -21.9166   -4.6879   22.3407 C   0  0  0  0  0  0
  -22.7725  -13.5050   21.1909 C   0  0  0  0  0  0
  -22.1639   -4.2063   21.0989 F   0  0  0  0  0  0
  -21.5651   -3.4508   25.7767 F   0  0  0  0  0  0
  -29.8087  -14.1036   20.2194 N   0  0  0  0  0  0
  -26.2765  -12.9131   20.3390 N   0  0  0  0  0  0
  -25.9219  -11.6282   20.5846 N   0  0  0  0  0  0
  -22.0330  -12.8093   22.0493 N   0  0  0  0  0  0
  -25.3969  -15.1646   20.4358 N   0  0  0  0  0  0
  -31.6042  -15.3832   20.3462 O   0  0  0  0  0  0
  -21.6525   -6.8750   21.4217 O   0  0  0  0  0  0
  -22.3473  -14.5330   20.6696 O   0  0  0  0  0  0
  -24.6712  -31.8153   23.1643 C   0  0  0  0  0  0
  -25.9350  -32.4561   23.8132 C   0  0  1  0  0  0
  -27.2290  -26.8775   20.1650 C   0  0  0  0  0  0
  -25.6006  -33.8378   24.2035 N   0  0  0  0  0  0
  -23.4876  -30.4252   21.5112 C   0  0  2  0  0  0
  -24.9401  -28.7944   20.1184 C   0  0  0  0  0  0
  -22.7667  -29.4445   22.4719 C   0  0  0  0  0  0
  -18.0301  -28.1354   22.8433 C   0  0  0  0  0  0
  -24.1498  -36.7218   23.2641 C   0  0  0  0  0  0
  -26.0612  -30.5989   21.4063 C   0  0  0  0  0  0
  -26.1274  -29.1811   20.7545 C   0  0  0  0  0  0
  -27.2630  -28.2432   20.7549 C   0  0  0  0  0  0
  -26.0100  -26.6623   19.4751 C   0  0  0  0  0  0
  -24.9058  -27.5543   19.4625 C   0  0  0  0  0  0
  -23.7339  -29.7313   20.1428 C   0  0  0  0  0  0
  -25.4137  -36.2947   24.0284 C   0  0  1  0  0  0
  -20.5933  -28.3763   23.1038 C   0  0  2  0  0  0
  -20.6804  -26.9374   22.5343 C   0  0  0  0  0  0
  -19.5659  -26.6195   21.5255 C   0  0  0  0  0  0
  -18.1963  -26.7759   22.1895 C   0  0  0  0  0  0
  -19.1536  -28.8910   23.2712 C   0  0  0  0  0  0
  -18.9354  -30.1505   23.8754 C   0  0  0  0  0  0
  -17.6291  -30.6518   24.0533 C   0  0  0  0  0  0
  -25.9099  -34.9338   23.4975 C   0  0  0  0  0  0
  -16.5237  -29.8984   23.6234 C   0  0  0  0  0  0
  -16.7274  -28.6474   23.0195 C   0  0  0  0  0  0
  -26.4549  -31.6545   25.0694 C   0  0  0  0  0  0
  -25.3646  -31.3859   26.1333 C   0  0  0  0  0  0
  -27.0454  -30.2896   24.6532 C   0  0  0  0  0  0
  -27.5986  -32.4413   25.7540 C   0  0  0  0  0  0
  -27.5568  -37.1760   24.8453 C   0  0  0  0  0  0
  -21.4374  -29.2933   22.3271 N   0  0  0  0  0  0
  -26.4261  -37.3700   23.9414 N   0  0  0  0  0  0
  -24.7611  -30.9758   22.0806 N   0  0  0  0  0  0
  -23.4134  -28.8182   23.3157 O   0  0  0  0  0  0
  -28.2333  -25.7495   20.1345 O   0  0  0  0  0  0
  -26.5706  -34.8900   22.4569 O   0  0  0  0  0  0
  -23.5773  -32.1177   23.6710 O   0  0  0  0  0  0
  -26.9559  -23.8874   21.2326 C   0  0  0  0  0  0
  -28.5799  -21.6035   20.4502 C   0  0  0  0  0  0
  -28.0358  -24.2319   20.4018 C   0  0  0  0  0  0
  -27.4337  -21.5562   21.3021 C   0  0  0  0  0  0
  -27.8466  -17.7968   20.3940 C   0  0  0  0  0  0
  -28.4576  -16.9300   19.2920 C   0  0  0  0  0  0
  -29.2455  -18.3383   20.6811 C   0  0  2  0  0  0
  -29.3918  -20.0605   20.0398 C   0  0  0  0  0  0
  -26.6724  -22.6307   21.6488 N   0  0  0  0  0  0
  -28.8472  -23.0254   20.0302 N   0  0  0  0  0  0
  -29.6189  -16.7446   20.1628 N   0  0  0  0  0  0
  -26.8738  -20.1158   22.0516 Cl  0  0  0  0  0  0
  -31.4041  -13.2120   19.0842 H   0  0  0  0  0  0
  -30.5793  -12.0849   20.1201 H   0  0  0  0  0  0
  -29.9300  -11.7483   17.6939 H   0  0  0  0  0  0
  -29.4357  -13.4212   17.5874 H   0  0  0  0  0  0
  -28.0743  -11.2025   19.1275 H   0  0  0  0  0  0
  -27.3856  -12.2195   17.8924 H   0  0  0  0  0  0
  -27.4609  -14.1143   19.2280 H   0  0  0  0  0  0
  -28.9134  -12.6287   21.4837 H   0  0  0  0  0  0
  -28.2499  -14.2370   21.6329 H   0  0  0  0  0  0
  -25.2615   -9.5450   22.4858 H   0  0  0  0  0  0
  -23.9825   -7.4412   22.7454 H   0  0  0  0  0  0
  -21.0743   -8.8530   19.8956 H   0  0  0  0  0  0
  -22.3523  -10.9475   19.6190 H   0  0  0  0  0  0
  -21.1975   -7.6082   23.9679 H   0  0  0  0  0  0
  -21.1521   -6.0491   25.9074 H   0  0  0  0  0  0
  -22.0625   -2.7538   23.2884 H   0  0  0  0  0  0
  -22.3874  -11.9759   22.4945 H   0  0  0  0  0  0
  -21.0949  -13.1134   22.2636 H   0  0  0  0  0  0
  -24.6075  -15.7877   20.5542 H   0  0  0  0  0  0
  -26.2499  -15.6297   20.1570 H   0  0  0  0  0  0
  -26.7438  -32.5065   23.0853 H   0  0  0  0  0  0
  -25.0111  -33.9476   25.0158 H   0  0  0  0  0  0
  -22.8152  -31.2669   21.3300 H   0  0  0  0  0  0
  -23.3767  -35.9534   23.3235 H   0  0  0  0  0  0
  -24.3559  -36.8943   22.2066 H   0  0  0  0  0  0
  -23.7262  -37.6380   23.6765 H   0  0  0  0  0  0
  -26.2499  -31.3330   20.6220 H   0  0  0  0  0  0
  -26.9180  -30.6570   22.0636 H   0  0  0  0  0  0
  -28.1642  -28.5496   21.2692 H   0  0  0  0  0  0
  -25.8862  -25.7253   18.9491 H   0  0  0  0  0  0
  -24.0022  -27.2600   18.9433 H   0  0  0  0  0  0
  -23.9199  -30.4962   19.3893 H   0  0  0  0  0  0
  -22.8420  -29.1989   19.8053 H   0  0  0  0  0  0
  -25.1339  -36.1694   25.0771 H   0  0  0  0  0  0
  -21.0058  -28.3519   24.1161 H   0  0  0  0  0  0
  -20.5824  -26.2300   23.3572 H   0  0  0  0  0  0
  -21.6621  -26.7362   22.1044 H   0  0  0  0  0  0
  -19.6771  -25.6064   21.1402 H   0  0  0  0  0  0
  -19.6380  -27.2857   20.6642 H   0  0  0  0  0  0
  -17.4083  -26.6033   21.4571 H   0  0  0  0  0  0
  -18.0740  -26.0132   22.9603 H   0  0  0  0  0  0
  -19.7752  -30.7418   24.2135 H   0  0  0  0  0  0
  -17.4663  -31.6119   24.5244 H   0  0  0  0  0  0
  -15.5175  -30.2772   23.7603 H   0  0  0  0  0  0
  -15.8718  -28.0791   22.6853 H   0  0  0  0  0  0
  -24.5845  -30.7197   25.7659 H   0  0  0  0  0  0
  -24.8809  -32.3083   26.4568 H   0  0  0  0  0  0
  -25.7830  -30.9147   27.0238 H   0  0  0  0  0  0
  -26.3140  -29.6571   24.1511 H   0  0  0  0  0  0
  -27.3896  -29.7299   25.5238 H   0  0  0  0  0  0
  -27.9113  -30.4052   24.0023 H   0  0  0  0  0  0
  -27.2487  -33.3781   26.1934 H   0  0  0  0  0  0
  -28.3899  -32.6908   25.0447 H   0  0  0  0  0  0
  -28.0550  -31.8667   26.5626 H   0  0  0  0  0  0
  -28.2513  -38.0121   24.7500 H   0  0  0  0  0  0
  -28.1133  -36.2627   24.6256 H   0  0  0  0  0  0
  -27.2278  -37.1365   25.8855 H   0  0  0  0  0  0
  -20.9879  -29.8052   21.5827 H   0  0  0  0  0  0
  -26.0088  -38.2730   24.1474 H   0  0  0  0  0  0
  -26.3103  -24.6604   21.6166 H   0  0  0  0  0  0
  -27.4066  -17.2260   21.2153 H   0  0  0  0  0  0
  -27.1385  -18.5338   20.0046 H   0  0  0  0  0  0
  -28.6927  -17.4837   18.3788 H   0  0  0  0  0  0
  -27.8492  -16.0694   19.0670 H   0  0  0  0  0  0
  -29.4066  -18.3975   21.7591 H   0  0  0  0  0  0
  -30.4486  -20.3170   20.1156 H   0  0  0  0  0  0
  -29.2380  -19.9971   18.9603 H   0  0  0  0  0  0
  1 25  1  0  0  0
  1 30  2  0  0  0
  1 81  1  0  0  0
  2  3  1  0  0  0
  2 25  1  0  0  0
  2 83  1  0  0  0
  2 84  1  0  0  0
  3  4  1  0  0  0
  3 85  1  0  0  0
  3 86  1  0  0  0
  4  5  1  0  0  0
  4 87  1  0  0  0
  4 88  1  0  0  0
  5  6  1  0  0  0
  5 26  1  0  0  0
  5 89  1  0  0  0
  6 25  1  0  0  0
  6 90  1  0  0  0
  6 91  1  0  0  0
  7  8  2  0  0  0
  7 26  1  0  0  0
  7 29  1  0  0  0
  8  9  1  0  0  0
  8 22  1  0  0  0
  9 10  1  0  0  0
  9 27  2  0  0  0
 10 11  2  0  0  0
 10 15  1  0  0  0
 11 12  1  0  0  0
 11 92  1  0  0  0
 12 13  2  0  0  0
 12 93  1  0  0  0
 13 14  1  0  0  0
 13 31  1  0  0  0
 14 15  2  0  0  0
 14 94  1  0  0  0
 15 95  1  0  0  0
 16 17  2  0  0  0
 16 21  1  0  0  0
 16 31  1  0  0  0
 17 18  1  0  0  0
 17 96  1  0  0  0
 18 19  2  0  0  0
 18 97  1  0  0  0
 19 20  1  0  0  0
 19 24  1  0  0  0
 20 21  2  0  0  0
 20 98  1  0  0  0
 21 23  1  0  0  0
 22 28  1  0  0  0
 22 32  2  0  0  0
 26 27  1  0  0  0
 28 99  1  0  0  0
 28100  1  0  0  0
 29101  1  0  0  0
 29102  1  0  0  0
 33 34  1  0  0  0
 33 66  1  0  0  0
 33 70  2  0  0  0
 34 36  1  0  0  0
 34 59  1  0  0  0
 34103  1  0  0  0
 35 44  2  0  0  0
 35 45  1  0  0  0
 35 68  1  0  0  0
 36 56  1  0  0  0
 36104  1  0  0  0
 37 39  1  0  0  0
 37 47  1  0  0  0
 37 66  1  0  0  0
 37105  1  0  0  0
 38 43  2  0  0  0
 38 46  1  0  0  0
 38 47  1  0  0  0
 39 64  1  0  0  0
 39 67  2  0  0  0
 40 52  1  0  0  0
 40 53  2  0  0  0
 40 58  1  0  0  0
 41106  1  0  0  0
 41107  1  0  0  0
 41108  1  0  0  0
 41 48  1  0  0  0
 42 43  1  0  0  0
 42 66  1  0  0  0
 42109  1  0  0  0
 42110  1  0  0  0
 43 44  1  0  0  0
 44111  1  0  0  0
 45 46  2  0  0  0
 45112  1  0  0  0
 46113  1  0  0  0
 47114  1  0  0  0
 47115  1  0  0  0
 48 56  1  0  0  0
 48 65  1  0  0  0
 48116  1  0  0  0
 49 50  1  0  0  0
 49 53  1  0  0  0
 49 64  1  0  0  0
 49117  1  0  0  0
 50 51  1  0  0  0
 50118  1  0  0  0
 50119  1  0  0  0
 51 52  1  0  0  0
 51120  1  0  0  0
 51121  1  0  0  0
 52122  1  0  0  0
 52123  1  0  0  0
 53 54  1  0  0  0
 54 55  2  0  0  0
 54124  1  0  0  0
 55 57  1  0  0  0
 55125  1  0  0  0
 56 69  2  0  0  0
 57 58  2  0  0  0
 57126  1  0  0  0
 58127  1  0  0  0
 59 60  1  0  0  0
 59 61  1  0  0  0
 59 62  1  0  0  0
 60128  1  0  0  0
 60129  1  0  0  0
 60130  1  0  0  0
 61131  1  0  0  0
 61132  1  0  0  0
 61133  1  0  0  0
 62134  1  0  0  0
 62135  1  0  0  0
 62136  1  0  0  0
 63 65  1  0  0  0
 63137  1  0  0  0
 63138  1  0  0  0
 63139  1  0  0  0
 64140  1  0  0  0
 65141  1  0  0  0
 68 73  1  0  0  0
 71 73  2  0  0  0
 71 79  1  0  0  0
 71142  1  0  0  0
 72 74  1  0  0  0
 72 78  1  0  0  0
 72 80  2  0  0  0
 73 80  1  0  0  0
 74 79  2  0  0  0
 74 82  1  0  0  0
 75 76  1  0  0  0
 75 77  1  0  0  0
 75143  1  0  0  0
 75144  1  0  0  0
 76 81  1  0  0  0
 76145  1  0  0  0
 76146  1  0  0  0
 77 78  1  0  0  0
 77 81  1  0  0  0
 77147  1  0  0  0
 78148  1  0  0  0
 78149  1  0  0  0
M  ISO  4   1 100  68 101  73 101  81 100
M  END
> <chiral flag>
0

> <version>
0

> <s_m_source_file>
/data/baiqing/PycharmProjects/Reinvent-master-3.2/result/LINK_invent/BTK/process_docking_weight1_custom_sum_contain_oxygen_bond_distance_aromatic_linkinvent_7_9_3/rearranged_h_0186.sdf

> <i_m_source_file_index>
49

> <r_mmod_Potential_Energy-OPLS-2005>
1858.4267578125

> <r_mmod_Stretch_Energy-OPLS-2005>
706.828552246094

> <r_mmod_Bend_Energy-OPLS-2005>
522.547912597656

> <r_mmod_Torsional_Energy-OPLS-2005>
309.959075927734

> <r_mmod_Improper_Torsional_Energy-OPLS-2005>
6.73534154891968

> <r_mmod_Van_der_Waal_Energy-OPLS-2005>
129.242156982422

> <r_mmod_Electrostatic_Energy-OPLS-2005>
-207.282989501953

> <r_mmod_Solvation_Energy-OPLS-2005>
-219.315765380859

> <b_mmod_Minimization_Converged-OPLS-2005>
0

> <r_mmod_RMS_Derivative-OPLS-2005>
8.08175468444824

$$$$
50
                    3D
 Structure written by MMmdl.
156164  0  0  1  0            999 V2000
  -30.6253  -14.7220   20.4605 C   0  0  0  0  0  0
  -30.4217  -12.4246   19.5256 C   0  0  0  0  0  0
  -29.5267  -12.4942   18.2695 C   0  0  0  0  0  0
  -28.0458  -12.3170   18.6644 C   0  0  0  0  0  0
  -27.6334  -13.2306   19.8535 C   0  0  2  0  0  0
  -28.6618  -13.1830   21.0029 C   0  0  0  0  0  0
  -25.2495  -13.8211   20.5791 C   0  0  0  0  0  0
  -24.1770  -13.0503   20.9220 C   0  0  0  0  0  0
  -24.6336  -11.6948   20.8701 C   0  0  0  0  0  0
  -23.9086  -10.4329   21.0368 C   0  0  0  0  0  0
  -24.3651   -9.4260   21.9155 C   0  0  0  0  0  0
  -23.6356   -8.2273   22.0710 C   0  0  0  0  0  0
  -22.4310   -8.0316   21.3546 C   0  0  0  0  0  0
  -21.9937   -9.0262   20.4645 C   0  0  0  0  0  0
  -22.7257  -10.2147   20.3034 C   0  0  0  0  0  0
  -21.6857   -6.0725   22.5273 C   0  0  0  0  0  0
  -21.4029   -6.5641   23.8203 C   0  0  0  0  0  0
  -21.3677   -5.6807   24.9181 C   0  0  0  0  0  0
  -21.6002   -4.3035   24.7210 C   0  0  0  0  0  0
  -21.8861   -3.8149   23.4332 C   0  0  0  0  0  0
  -21.9193   -4.6972   22.3380 C   0  0  0  0  0  0
  -22.7799  -13.5324   21.1910 C   0  0  0  0  0  0
  -22.1681   -4.2136   21.0956 F   0  0  0  0  0  0
  -21.5634   -3.4543   25.7728 F   0  0  0  0  0  0
  -29.9805  -13.5077   20.4317 N   0  0  0  0  0  0
  -26.2872  -12.9428   20.3269 N   0  0  0  0  0  0
  -25.9276  -11.6551   20.5692 N   0  0  0  0  0  0
  -22.0421  -12.8217   22.0372 N   0  0  0  0  0  0
  -25.4284  -15.1963   20.4439 N   0  0  0  0  0  0
  -31.8152  -14.8033   20.1428 O   0  0  0  0  0  0
  -21.6691   -6.8876   21.4244 O   0  0  0  0  0  0
  -22.3440  -14.5576   20.6743 O   0  0  0  0  0  0
  -24.6338  -31.8487   23.1921 C   0  0  0  0  0  0
  -25.9172  -32.4713   23.8269 C   0  0  1  0  0  0
  -27.2218  -27.2057   20.1189 C   0  0  0  0  0  0
  -25.5953  -33.8520   24.2178 N   0  0  0  0  0  0
  -23.4316  -30.4744   21.5409 C   0  0  2  0  0  0
  -24.8742  -28.9057   20.0999 C   0  0  0  0  0  0
  -22.7515  -29.4619   22.4914 C   0  0  0  0  0  0
  -18.0273  -28.1436   22.8464 C   0  0  0  0  0  0
  -24.1477  -36.7272   23.2621 C   0  0  0  0  0  0
  -25.9843  -30.7380   21.3829 C   0  0  0  0  0  0
  -26.0481  -29.3581   20.7151 C   0  0  0  0  0  0
  -27.2176  -28.5209   20.7126 C   0  0  0  0  0  0
  -26.0257  -26.8301   19.4659 C   0  0  0  0  0  0
  -24.8742  -27.6509   19.4643 C   0  0  0  0  0  0
  -23.6464  -29.8056   20.1551 C   0  0  0  0  0  0
  -25.4102  -36.3052   24.0299 C   0  0  1  0  0  0
  -20.5919  -28.3660   23.1238 C   0  0  2  0  0  0
  -20.6752  -26.9423   22.5254 C   0  0  0  0  0  0
  -19.5702  -26.6536   21.5027 C   0  0  0  0  0  0
  -18.1884  -26.8035   22.1482 C   0  0  0  0  0  0
  -19.1567  -28.8851   23.2877 C   0  0  0  0  0  0
  -18.9481  -30.1400   23.8973 C   0  0  0  0  0  0
  -17.6498  -30.6530   24.0711 C   0  0  0  0  0  0
  -25.9083  -34.9423   23.5058 C   0  0  0  0  0  0
  -16.5380  -29.9097   23.6424 C   0  0  0  0  0  0
  -16.7259  -28.6581   23.0331 C   0  0  0  0  0  0
  -26.4482  -31.6574   25.0723 C   0  0  0  0  0  0
  -25.3663  -31.3876   26.1444 C   0  0  0  0  0  0
  -27.0294  -30.2929   24.6386 C   0  0  0  0  0  0
  -27.6004  -32.4351   25.7511 C   0  0  0  0  0  0
  -27.5561  -37.1801   24.8473 C   0  0  0  0  0  0
  -21.4215  -29.3077   22.3666 N   0  0  0  0  0  0
  -26.4283  -37.3742   23.9419 N   0  0  0  0  0  0
  -24.7034  -31.0385   22.0940 N   0  0  0  0  0  0
  -23.4190  -28.8155   23.2999 O   0  0  0  0  0  0
  -28.3339  -26.3175   20.2318 O   0  0  0  0  0  0
  -26.5648  -34.8936   22.4648 O   0  0  0  0  0  0
  -23.5488  -32.1354   23.7201 O   0  0  0  0  0  0
  -27.3217  -23.2886   21.1487 C   0  0  0  0  0  0
  -27.0988  -21.9831   21.5989 C   0  0  0  0  0  0
  -28.3997  -23.5251   20.2836 C   0  0  0  0  0  0
  -28.9158  -21.1651   20.4734 C   0  0  0  0  0  0
  -25.9346  -21.6680   22.5141 C   0  0  0  0  0  0
  -31.2047  -20.2384   20.3027 C   0  0  0  0  0  0
  -28.5017  -24.9631   19.5508 C   0  0  0  0  0  0
  -30.3505  -17.3261   20.6126 C   0  0  0  0  0  0
  -29.2878  -18.5518   20.5487 C   0  0  0  0  0  0
  -27.8745  -20.9408   21.2502 N   0  0  0  0  0  0
  -29.2109  -22.4189   19.9794 N   0  0  0  0  0  0
  -29.8764  -15.8739   20.6548 N   0  0  0  0  0  0
  -29.7573  -19.9956   20.2978 N   0  0  0  0  0  0
  -31.4708  -12.5252   19.2442 H   0  0  0  0  0  0
  -30.3363  -11.4491   20.0145 H   0  0  0  0  0  0
  -29.8110  -11.7301   17.5482 H   0  0  0  0  0  0
  -29.6648  -13.4562   17.7739 H   0  0  0  0  0  0
  -27.9211  -11.2665   18.9445 H   0  0  0  0  0  0
  -27.3941  -12.4867   17.8087 H   0  0  0  0  0  0
  -27.6317  -14.2518   19.4743 H   0  0  0  0  0  0
  -28.6515  -12.2044   21.4891 H   0  0  0  0  0  0
  -28.3652  -13.9113   21.7641 H   0  0  0  0  0  0
  -25.2793   -9.5738   22.4737 H   0  0  0  0  0  0
  -24.0044   -7.4667   22.7441 H   0  0  0  0  0  0
  -21.0839   -8.8865   19.8923 H   0  0  0  0  0  0
  -22.3748  -10.9739   19.6163 H   0  0  0  0  0  0
  -21.2027   -7.6145   23.9717 H   0  0  0  0  0  0
  -21.1478   -6.0496   25.9069 H   0  0  0  0  0  0
  -22.0586   -2.7611   23.2838 H   0  0  0  0  0  0
  -22.4138  -11.9979   22.4822 H   0  0  0  0  0  0
  -21.1009  -13.1153   22.2570 H   0  0  0  0  0  0
  -24.6878  -15.8609   20.6348 H   0  0  0  0  0  0
  -26.3033  -15.6452   20.2142 H   0  0  0  0  0  0
  -26.7256  -32.5295   23.0992 H   0  0  0  0  0  0
  -25.0097  -33.9672   25.0329 H   0  0  0  0  0  0
  -22.7287  -31.2965   21.3951 H   0  0  0  0  0  0
  -23.3747  -35.9608   23.3306 H   0  0  0  0  0  0
  -24.3560  -36.8883   22.2043 H   0  0  0  0  0  0
  -23.7271  -37.6500   23.6625 H   0  0  0  0  0  0
  -26.1538  -31.5051   20.6264 H   0  0  0  0  0  0
  -26.8432  -30.7630   22.0405 H   0  0  0  0  0  0
  -28.1147  -28.8683   21.2048 H   0  0  0  0  0  0
  -25.9358  -25.8691   18.9820 H   0  0  0  0  0  0
  -23.9722  -27.3062   18.9723 H   0  0  0  0  0  0
  -23.7725  -30.5875   19.4010 H   0  0  0  0  0  0
  -22.7534  -29.2506   19.8438 H   0  0  0  0  0  0
  -25.1295  -36.1873   25.0780 H   0  0  0  0  0  0
  -20.9972  -28.3160   24.1393 H   0  0  0  0  0  0
  -20.5665  -26.2260   23.3397 H   0  0  0  0  0  0
  -21.6621  -26.7512   22.1044 H   0  0  0  0  0  0
  -19.6642  -27.3451   20.6643 H   0  0  0  0  0  0
  -19.6918  -25.6507   21.0882 H   0  0  0  0  0  0
  -17.4206  -26.6878   21.3839 H   0  0  0  0  0  0
  -18.0252  -26.0051   22.8697 H   0  0  0  0  0  0
  -19.7961  -30.7137   24.2396 H   0  0  0  0  0  0
  -17.5047  -31.6154   24.5380 H   0  0  0  0  0  0
  -15.5399  -30.2997   23.7692 H   0  0  0  0  0  0
  -15.8653  -28.0908   22.6994 H   0  0  0  0  0  0
  -24.5819  -30.7232   25.7847 H   0  0  0  0  0  0
  -24.8891  -32.3100   26.4734 H   0  0  0  0  0  0
  -25.7917  -30.9182   27.0313 H   0  0  0  0  0  0
  -26.2919  -29.6746   24.1282 H   0  0  0  0  0  0
  -27.3706  -29.7187   25.5008 H   0  0  0  0  0  0
  -27.8895  -30.4122   23.9813 H   0  0  0  0  0  0
  -27.2543  -33.3630   26.2084 H   0  0  0  0  0  0
  -28.3773  -32.6979   25.0319 H   0  0  0  0  0  0
  -28.0703  -31.8526   26.5459 H   0  0  0  0  0  0
  -28.2609  -38.0056   24.7415 H   0  0  0  0  0  0
  -28.0999  -36.2595   24.6351 H   0  0  0  0  0  0
  -27.2284  -37.1499   25.8874 H   0  0  0  0  0  0
  -20.9374  -29.8843   21.6931 H   0  0  0  0  0  0
  -26.0156  -38.2827   24.1380 H   0  0  0  0  0  0
  -26.6523  -24.0973   21.3966 H   0  0  0  0  0  0
  -25.2980  -20.8897   22.0927 H   0  0  0  0  0  0
  -25.3331  -22.5631   22.6584 H   0  0  0  0  0  0
  -26.2893  -21.3395   23.4929 H   0  0  0  0  0  0
  -31.5874  -20.4691   19.3090 H   0  0  0  0  0  0
  -31.7870  -19.3989   20.6835 H   0  0  0  0  0  0
  -31.4637  -21.0727   20.9562 H   0  0  0  0  0  0
  -27.8439  -24.9058   18.6877 H   0  0  0  0  0  0
  -29.5016  -24.9846   19.1168 H   0  0  0  0  0  0
  -30.9663  -17.4451   21.5115 H   0  0  0  0  0  0
  -31.0163  -17.4201   19.7552 H   0  0  0  0  0  0
  -28.5700  -18.3161   19.7564 H   0  0  0  0  0  0
  -28.7061  -18.5439   21.4727 H   0  0  0  0  0  0
  -28.8916  -15.7438   20.8231 H   0  0  0  0  0  0
  1 25  1  0  0  0
  1 30  2  0  0  0
  1 82  1  0  0  0
  2  3  1  0  0  0
  2 25  1  0  0  0
  2 84  1  0  0  0
  2 85  1  0  0  0
  3  4  1  0  0  0
  3 86  1  0  0  0
  3 87  1  0  0  0
  4  5  1  0  0  0
  4 88  1  0  0  0
  4 89  1  0  0  0
  5  6  1  0  0  0
  5 26  1  0  0  0
  5 90  1  0  0  0
  6 25  1  0  0  0
  6 91  1  0  0  0
  6 92  1  0  0  0
  7  8  2  0  0  0
  7 26  1  0  0  0
  7 29  1  0  0  0
  8  9  1  0  0  0
  8 22  1  0  0  0
  9 10  1  0  0  0
  9 27  2  0  0  0
 10 11  2  0  0  0
 10 15  1  0  0  0
 11 12  1  0  0  0
 11 93  1  0  0  0
 12 13  2  0  0  0
 12 94  1  0  0  0
 13 14  1  0  0  0
 13 31  1  0  0  0
 14 15  2  0  0  0
 14 95  1  0  0  0
 15 96  1  0  0  0
 16 17  2  0  0  0
 16 21  1  0  0  0
 16 31  1  0  0  0
 17 18  1  0  0  0
 17 97  1  0  0  0
 18 19  2  0  0  0
 18 98  1  0  0  0
 19 20  1  0  0  0
 19 24  1  0  0  0
 20 21  2  0  0  0
 20 99  1  0  0  0
 21 23  1  0  0  0
 22 28  1  0  0  0
 22 32  2  0  0  0
 26 27  1  0  0  0
 28100  1  0  0  0
 28101  1  0  0  0
 29102  1  0  0  0
 29103  1  0  0  0
 33 34  1  0  0  0
 33 66  1  0  0  0
 33 70  2  0  0  0
 34 36  1  0  0  0
 34 59  1  0  0  0
 34104  1  0  0  0
 35 44  2  0  0  0
 35 45  1  0  0  0
 35 68  1  0  0  0
 36 56  1  0  0  0
 36105  1  0  0  0
 37 39  1  0  0  0
 37 47  1  0  0  0
 37 66  1  0  0  0
 37106  1  0  0  0
 38 43  2  0  0  0
 38 46  1  0  0  0
 38 47  1  0  0  0
 39 64  1  0  0  0
 39 67  2  0  0  0
 40 52  1  0  0  0
 40 53  2  0  0  0
 40 58  1  0  0  0
 41107  1  0  0  0
 41108  1  0  0  0
 41109  1  0  0  0
 41 48  1  0  0  0
 42 43  1  0  0  0
 42 66  1  0  0  0
 42110  1  0  0  0
 42111  1  0  0  0
 43 44  1  0  0  0
 44112  1  0  0  0
 45 46  2  0  0  0
 45113  1  0  0  0
 46114  1  0  0  0
 47115  1  0  0  0
 47116  1  0  0  0
 48 56  1  0  0  0
 48 65  1  0  0  0
 48117  1  0  0  0
 49 50  1  0  0  0
 49 53  1  0  0  0
 49 64  1  0  0  0
 49118  1  0  0  0
 50 51  1  0  0  0
 50119  1  0  0  0
 50120  1  0  0  0
 51 52  1  0  0  0
 51121  1  0  0  0
 51122  1  0  0  0
 52123  1  0  0  0
 52124  1  0  0  0
 53 54  1  0  0  0
 54 55  2  0  0  0
 54125  1  0  0  0
 55 57  1  0  0  0
 55126  1  0  0  0
 56 69  2  0  0  0
 57 58  2  0  0  0
 57127  1  0  0  0
 58128  1  0  0  0
 59 60  1  0  0  0
 59 61  1  0  0  0
 59 62  1  0  0  0
 60129  1  0  0  0
 60130  1  0  0  0
 60131  1  0  0  0
 61132  1  0  0  0
 61133  1  0  0  0
 61134  1  0  0  0
 62135  1  0  0  0
 62136  1  0  0  0
 62137  1  0  0  0
 63 65  1  0  0  0
 63138  1  0  0  0
 63139  1  0  0  0
 63140  1  0  0  0
 64141  1  0  0  0
 65142  1  0  0  0
 68 77  1  0  0  0
 71 72  2  0  0  0
 71 73  1  0  0  0
 71143  1  0  0  0
 72 75  1  0  0  0
 72 80  1  0  0  0
 73 77  1  0  0  0
 73 81  2  0  0  0
 74 80  2  0  0  0
 74 81  1  0  0  0
 74 83  1  0  0  0
 75144  1  0  0  0
 75145  1  0  0  0
 75146  1  0  0  0
 76 83  1  0  0  0
 76147  1  0  0  0
 76148  1  0  0  0
 76149  1  0  0  0
 77150  1  0  0  0
 77151  1  0  0  0
 78 79  1  0  0  0
 78 82  1  0  0  0
 78152  1  0  0  0
 78153  1  0  0  0
 79 83  1  0  0  0
 79154  1  0  0  0
 79155  1  0  0  0
 82156  1  0  0  0
M  ISO  4   1 100  68 101  77 101  82 100
M  END
> <chiral flag>
0

> <version>
0

> <s_m_source_file>
/data/baiqing/PycharmProjects/Reinvent-master-3.2/result/LINK_invent/BTK/process_docking_weight1_custom_sum_contain_oxygen_bond_distance_aromatic_linkinvent_7_9_3/rearranged_h_0186.sdf

> <i_m_source_file_index>
50

> <r_mmod_Potential_Energy-OPLS-2005>
-366.818725585938

> <r_mmod_Stretch_Energy-OPLS-2005>
146.166809082031

> <r_mmod_Bend_Energy-OPLS-2005>
196.758453369141

> <r_mmod_Torsional_Energy-OPLS-2005>
207.922088623047

> <r_mmod_Improper_Torsional_Energy-OPLS-2005>
6.13682270050049

> <r_mmod_Van_der_Waal_Energy-OPLS-2005>
147.399078369141

> <r_mmod_Electrostatic_Energy-OPLS-2005>
-913.876586914062

> <r_mmod_Solvation_Energy-OPLS-2005>
-255.999053955078

> <b_mmod_Minimization_Converged-OPLS-2005>
0

> <r_mmod_RMS_Derivative-OPLS-2005>
11.9694757461548

$$$$
51
                    3D
 Structure written by MMmdl.
165174  0  0  1  0            999 V2000
  -30.6815  -14.6884   20.5144 C   0  0  0  0  0  0
  -30.4229  -12.4302   19.4705 C   0  0  0  0  0  0
  -29.5060  -12.5152   18.2322 C   0  0  0  0  0  0
  -28.0416  -12.3133   18.6580 C   0  0  0  0  0  0
  -27.6471  -13.2154   19.8562 C   0  0  2  0  0  0
  -28.6922  -13.1656   20.9951 C   0  0  0  0  0  0
  -25.2533  -13.8099   20.5766 C   0  0  0  0  0  0
  -24.1797  -13.0381   20.9139 C   0  0  0  0  0  0
  -24.6368  -11.6849   20.8668 C   0  0  0  0  0  0
  -23.9032  -10.4253   21.0347 C   0  0  0  0  0  0
  -24.3605   -9.4179   21.9141 C   0  0  0  0  0  0
  -23.6308   -8.2205   22.0723 C   0  0  0  0  0  0
  -22.4291   -8.0245   21.3507 C   0  0  0  0  0  0
  -21.9869   -9.0204   20.4610 C   0  0  0  0  0  0
  -22.7176  -10.2097   20.3019 C   0  0  0  0  0  0
  -21.6858   -6.0711   22.5268 C   0  0  0  0  0  0
  -21.4014   -6.5611   23.8197 C   0  0  0  0  0  0
  -21.3662   -5.6764   24.9152 C   0  0  0  0  0  0
  -21.6041   -4.3025   24.7208 C   0  0  0  0  0  0
  -21.8830   -3.8117   23.4331 C   0  0  0  0  0  0
  -21.9199   -4.6936   22.3391 C   0  0  0  0  0  0
  -22.7825  -13.5188   21.1832 C   0  0  0  0  0  0
  -22.1669   -4.2122   21.0972 F   0  0  0  0  0  0
  -21.5642   -3.4518   25.7722 F   0  0  0  0  0  0
  -30.0073  -13.4894   20.4223 N   0  0  0  0  0  0
  -26.2970  -12.9313   20.3326 N   0  0  0  0  0  0
  -25.9307  -11.6450   20.5693 N   0  0  0  0  0  0
  -22.0494  -12.8200   22.0408 N   0  0  0  0  0  0
  -25.4244  -15.1833   20.4470 N   0  0  0  0  0  0
  -31.8167  -14.7928   20.0434 O   0  0  0  0  0  0
  -21.6630   -6.8864   21.4246 O   0  0  0  0  0  0
  -22.3539  -14.5529   20.6702 O   0  0  0  0  0  0
  -24.6273  -31.8569   23.1957 C   0  0  0  0  0  0
  -25.9099  -32.4778   23.8305 C   0  0  1  0  0  0
  -27.2397  -27.2962   20.1098 C   0  0  0  0  0  0
  -25.5899  -33.8575   24.2255 N   0  0  0  0  0  0
  -23.4220  -30.4750   21.5407 C   0  0  2  0  0  0
  -24.8677  -28.9103   20.1180 C   0  0  0  0  0  0
  -22.7479  -29.4601   22.4945 C   0  0  0  0  0  0
  -18.0282  -28.1398   22.8507 C   0  0  0  0  0  0
  -24.1464  -36.7280   23.2644 C   0  0  0  0  0  0
  -25.9600  -30.7801   21.3590 C   0  0  0  0  0  0
  -26.0356  -29.3959   20.7176 C   0  0  0  0  0  0
  -27.2185  -28.5978   20.7063 C   0  0  0  0  0  0
  -26.0463  -26.8575   19.4973 C   0  0  0  0  0  0
  -24.8734  -27.6439   19.5040 C   0  0  0  0  0  0
  -23.6368  -29.7973   20.1610 C   0  0  0  0  0  0
  -25.4088  -36.3092   24.0350 C   0  0  1  0  0  0
  -20.5882  -28.3686   23.1306 C   0  0  2  0  0  0
  -20.6764  -26.9409   22.5437 C   0  0  0  0  0  0
  -19.5738  -26.6401   21.5240 C   0  0  0  0  0  0
  -18.1919  -26.7947   22.1647 C   0  0  0  0  0  0
  -19.1533  -28.8857   23.2904 C   0  0  0  0  0  0
  -18.9460  -30.1458   23.8925 C   0  0  0  0  0  0
  -17.6459  -30.6605   24.0573 C   0  0  0  0  0  0
  -25.9036  -34.9460   23.5108 C   0  0  0  0  0  0
  -16.5348  -29.9121   23.6318 C   0  0  0  0  0  0
  -16.7270  -28.6530   23.0359 C   0  0  0  0  0  0
  -26.4488  -31.6583   25.0666 C   0  0  0  0  0  0
  -25.3735  -31.3707   26.1401 C   0  0  0  0  0  0
  -27.0309  -30.3018   24.6064 C   0  0  0  0  0  0
  -27.6062  -32.4286   25.7442 C   0  0  0  0  0  0
  -27.5562  -37.1791   24.8475 C   0  0  0  0  0  0
  -21.4187  -29.3031   22.3692 N   0  0  0  0  0  0
  -26.4266  -37.3791   23.9433 N   0  0  0  0  0  0
  -24.6902  -31.0557   22.0906 N   0  0  0  0  0  0
  -23.4188  -28.8167   23.3045 O   0  0  0  0  0  0
  -28.4071  -26.5104   20.0948 O   0  0  0  0  0  0
  -26.5634  -34.8954   22.4687 O   0  0  0  0  0  0
  -23.5438  -32.1355   23.7307 O   0  0  0  0  0  0
  -28.8185  -24.4294   18.7900 C   0  0  0  0  0  0
  -29.2043  -23.0540   18.7783 C   0  0  0  0  0  0
  -29.2221  -22.2714   19.9834 C   0  0  0  0  0  0
  -28.8508  -23.0343   21.1406 C   0  0  0  0  0  0
  -28.4788  -25.0935   19.9902 C   0  0  0  0  0  0
  -30.2051  -17.7692   22.5198 C   0  0  0  0  0  0
  -30.6527  -16.3064   22.3250 C   0  0  0  0  0  0
  -30.1811  -18.3627   21.1132 C   0  0  1  0  0  0
  -29.6510  -17.0787   20.3431 C   0  0  1  0  0  0
  -29.7089  -22.5085   17.4486 C   0  0  0  0  0  0
  -28.8799  -22.4343   22.5324 C   0  0  0  0  0  0
  -28.1203  -17.1368   20.2225 C   0  0  0  0  0  0
  -29.7472  -20.7426   19.9556 C   0  0  0  0  0  0
  -28.5123  -24.3688   21.1394 N   0  0  0  0  0  0
  -30.0685  -15.8044   21.0690 N   0  0  0  0  0  0
  -29.4417  -19.7126   21.0348 N   0  3  0  0  0  0
  -31.4706  -12.5240   19.1758 H   0  0  0  0  0  0
  -30.3324  -11.4496   19.9400 H   0  0  0  0  0  0
  -29.7948  -11.7645   17.4951 H   0  0  0  0  0  0
  -29.6183  -13.4852   17.7465 H   0  0  0  0  0  0
  -27.9246  -11.2650   18.9376 H   0  0  0  0  0  0
  -27.3692  -12.4835   17.8161 H   0  0  0  0  0  0
  -27.6374  -14.2272   19.4627 H   0  0  0  0  0  0
  -28.7139  -12.1763   21.4542 H   0  0  0  0  0  0
  -28.4231  -13.8640   21.7893 H   0  0  0  0  0  0
  -25.2772   -9.5674   22.4680 H   0  0  0  0  0  0
  -23.9992   -7.4602   22.7451 H   0  0  0  0  0  0
  -21.0768   -8.8717   19.8960 H   0  0  0  0  0  0
  -22.3605  -10.9628   19.6124 H   0  0  0  0  0  0
  -21.2007   -7.6125   23.9693 H   0  0  0  0  0  0
  -21.1486   -6.0492   25.9055 H   0  0  0  0  0  0
  -22.0630   -2.7587   23.2831 H   0  0  0  0  0  0
  -22.4125  -11.9860   22.4793 H   0  0  0  0  0  0
  -21.1137  -13.1237   22.2702 H   0  0  0  0  0  0
  -24.6783  -15.8416   20.6405 H   0  0  0  0  0  0
  -26.3216  -15.6255   20.3079 H   0  0  0  0  0  0
  -26.7177  -32.5466   23.1072 H   0  0  0  0  0  0
  -25.0030  -33.9695   25.0397 H   0  0  0  0  0  0
  -22.7167  -31.2959   21.3923 H   0  0  0  0  0  0
  -23.3740  -35.9594   23.3316 H   0  0  0  0  0  0
  -24.3561  -36.8885   22.2054 H   0  0  0  0  0  0
  -23.7203  -37.6486   23.6643 H   0  0  0  0  0  0
  -26.0693  -31.5289   20.5729 H   0  0  0  0  0  0
  -26.8508  -30.8570   21.9696 H   0  0  0  0  0  0
  -28.1202  -28.9743   21.1680 H   0  0  0  0  0  0
  -26.0113  -25.8906   19.0149 H   0  0  0  0  0  0
  -23.9770  -27.2652   19.0350 H   0  0  0  0  0  0
  -23.7605  -30.5665   19.3973 H   0  0  0  0  0  0
  -22.7545  -29.2279   19.8625 H   0  0  0  0  0  0
  -25.1267  -36.1940   25.0846 H   0  0  0  0  0  0
  -20.9976  -28.3287   24.1424 H   0  0  0  0  0  0
  -20.5646  -26.2324   23.3650 H   0  0  0  0  0  0
  -21.6642  -26.7448   22.1231 H   0  0  0  0  0  0
  -19.6892  -25.6319   21.1263 H   0  0  0  0  0  0
  -19.6667  -27.3223   20.6777 H   0  0  0  0  0  0
  -17.4184  -26.6706   21.4046 H   0  0  0  0  0  0
  -18.0293  -26.0094   22.9042 H   0  0  0  0  0  0
  -19.7932  -30.7266   24.2322 H   0  0  0  0  0  0
  -17.5020  -31.6290   24.5171 H   0  0  0  0  0  0
  -15.5351  -30.3042   23.7614 H   0  0  0  0  0  0
  -15.8673  -28.0861   22.7063 H   0  0  0  0  0  0
  -24.5931  -30.7027   25.7740 H   0  0  0  0  0  0
  -24.8893  -32.2862   26.4797 H   0  0  0  0  0  0
  -25.8074  -30.8924   27.0192 H   0  0  0  0  0  0
  -26.2853  -29.6789   24.1102 H   0  0  0  0  0  0
  -27.4066  -29.7238   25.4517 H   0  0  0  0  0  0
  -27.8698  -30.4330   23.9227 H   0  0  0  0  0  0
  -27.2700  -33.3601   26.2001 H   0  0  0  0  0  0
  -28.3886  -32.6807   25.0272 H   0  0  0  0  0  0
  -28.0707  -31.8407   26.5367 H   0  0  0  0  0  0
  -28.2606  -38.0067   24.7525 H   0  0  0  0  0  0
  -28.1043  -36.2608   24.6294 H   0  0  0  0  0  0
  -27.2302  -37.1441   25.8889 H   0  0  0  0  0  0
  -20.9366  -29.8779   21.6921 H   0  0  0  0  0  0
  -26.0154  -38.2869   24.1456 H   0  0  0  0  0  0
  -28.8627  -25.0005   17.8724 H   0  0  0  0  0  0
  -30.8605  -18.3125   23.2006 H   0  0  0  0  0  0
  -29.2032  -17.7737   22.9497 H   0  0  0  0  0  0
  -30.3864  -15.6811   23.1786 H   0  0  0  0  0  0
  -31.7436  -16.2968   22.2579 H   0  0  0  0  0  0
  -31.2204  -18.5344   20.8221 H   0  0  0  0  0  0
  -30.0900  -17.0745   19.3436 H   0  0  0  0  0  0
  -29.6491  -21.4290   17.3481 H   0  0  0  0  0  0
  -30.7504  -22.7984   17.3084 H   0  0  0  0  0  0
  -29.1472  -22.9351   16.6179 H   0  0  0  0  0  0
  -28.4080  -23.1054   23.2508 H   0  0  0  0  0  0
  -28.3379  -21.4928   22.5754 H   0  0  0  0  0  0
  -29.9103  -22.2773   22.8534 H   0  0  0  0  0  0
  -27.7935  -18.0559   19.7394 H   0  0  0  0  0  0
  -27.6318  -17.0837   21.1982 H   0  0  0  0  0  0
  -27.7449  -16.3347   19.5979 H   0  0  0  0  0  0
  -30.8262  -20.7786   19.7974 H   0  0  0  0  0  0
  -29.3350  -20.2694   19.0675 H   0  0  0  0  0  0
  -28.4513  -19.5354   21.0471 H   0  0  0  0  0  0
  -29.6742  -20.1697   21.9007 H   0  0  0  0  0  0
  1 25  1  0  0  0
  1 30  2  0  0  0
  1 85  1  0  0  0
  2  3  1  0  0  0
  2 25  1  0  0  0
  2 87  1  0  0  0
  2 88  1  0  0  0
  3  4  1  0  0  0
  3 89  1  0  0  0
  3 90  1  0  0  0
  4  5  1  0  0  0
  4 91  1  0  0  0
  4 92  1  0  0  0
  5  6  1  0  0  0
  5 26  1  0  0  0
  5 93  1  0  0  0
  6 25  1  0  0  0
  6 94  1  0  0  0
  6 95  1  0  0  0
  7  8  2  0  0  0
  7 26  1  0  0  0
  7 29  1  0  0  0
  8  9  1  0  0  0
  8 22  1  0  0  0
  9 10  1  0  0  0
  9 27  2  0  0  0
 10 11  2  0  0  0
 10 15  1  0  0  0
 11 12  1  0  0  0
 11 96  1  0  0  0
 12 13  2  0  0  0
 12 97  1  0  0  0
 13 14  1  0  0  0
 13 31  1  0  0  0
 14 15  2  0  0  0
 14 98  1  0  0  0
 15 99  1  0  0  0
 16 17  2  0  0  0
 16 21  1  0  0  0
 16 31  1  0  0  0
 17 18  1  0  0  0
 17100  1  0  0  0
 18 19  2  0  0  0
 18101  1  0  0  0
 19 20  1  0  0  0
 19 24  1  0  0  0
 20 21  2  0  0  0
 20102  1  0  0  0
 21 23  1  0  0  0
 22 28  1  0  0  0
 22 32  2  0  0  0
 26 27  1  0  0  0
 28103  1  0  0  0
 28104  1  0  0  0
 29105  1  0  0  0
 29106  1  0  0  0
 33 34  1  0  0  0
 33 66  1  0  0  0
 33 70  2  0  0  0
 34 36  1  0  0  0
 34 59  1  0  0  0
 34107  1  0  0  0
 35 44  2  0  0  0
 35 45  1  0  0  0
 35 68  1  0  0  0
 36 56  1  0  0  0
 36108  1  0  0  0
 37 39  1  0  0  0
 37 47  1  0  0  0
 37 66  1  0  0  0
 37109  1  0  0  0
 38 43  2  0  0  0
 38 46  1  0  0  0
 38 47  1  0  0  0
 39 64  1  0  0  0
 39 67  2  0  0  0
 40 52  1  0  0  0
 40 53  2  0  0  0
 40 58  1  0  0  0
 41110  1  0  0  0
 41111  1  0  0  0
 41112  1  0  0  0
 41 48  1  0  0  0
 42 43  1  0  0  0
 42 66  1  0  0  0
 42113  1  0  0  0
 42114  1  0  0  0
 43 44  1  0  0  0
 44115  1  0  0  0
 45 46  2  0  0  0
 45116  1  0  0  0
 46117  1  0  0  0
 47118  1  0  0  0
 47119  1  0  0  0
 48 56  1  0  0  0
 48 65  1  0  0  0
 48120  1  0  0  0
 49 50  1  0  0  0
 49 53  1  0  0  0
 49 64  1  0  0  0
 49121  1  0  0  0
 50 51  1  0  0  0
 50122  1  0  0  0
 50123  1  0  0  0
 51 52  1  0  0  0
 51124  1  0  0  0
 51125  1  0  0  0
 52126  1  0  0  0
 52127  1  0  0  0
 53 54  1  0  0  0
 54 55  2  0  0  0
 54128  1  0  0  0
 55 57  1  0  0  0
 55129  1  0  0  0
 56 69  2  0  0  0
 57 58  2  0  0  0
 57130  1  0  0  0
 58131  1  0  0  0
 59 60  1  0  0  0
 59 61  1  0  0  0
 59 62  1  0  0  0
 60132  1  0  0  0
 60133  1  0  0  0
 60134  1  0  0  0
 61135  1  0  0  0
 61136  1  0  0  0
 61137  1  0  0  0
 62138  1  0  0  0
 62139  1  0  0  0
 62140  1  0  0  0
 63 65  1  0  0  0
 63141  1  0  0  0
 63142  1  0  0  0
 63143  1  0  0  0
 64144  1  0  0  0
 65145  1  0  0  0
 68 75  1  0  0  0
 71 72  2  0  0  0
 71 75  1  0  0  0
 71146  1  0  0  0
 72 73  1  0  0  0
 72 80  1  0  0  0
 73 74  2  0  0  0
 73 83  1  0  0  0
 74 81  1  0  0  0
 74 84  1  0  0  0
 75 84  2  0  0  0
 76 77  1  0  0  0
 76 78  1  0  0  0
 76147  1  0  0  0
 76148  1  0  0  0
 77 85  1  0  0  0
 77149  1  0  0  0
 77150  1  0  0  0
 78 79  1  0  0  0
 78 86  1  0  0  0
 78151  1  0  0  0
 79 82  1  0  0  0
 79 85  1  0  0  0
 79152  1  0  0  0
 80153  1  0  0  0
 80154  1  0  0  0
 80155  1  0  0  0
 81156  1  0  0  0
 81157  1  0  0  0
 81158  1  0  0  0
 82159  1  0  0  0
 82160  1  0  0  0
 82161  1  0  0  0
 83 86  1  0  0  0
 83162  1  0  0  0
 83163  1  0  0  0
 86164  1  0  0  0
 86165  1  0  0  0
M  CHG  1  86   1
M  ISO  4   1 100  68 101  75 101  85 100
M  END
> <chiral flag>
0

> <version>
0

> <s_m_source_file>
/data/baiqing/PycharmProjects/Reinvent-master-3.2/result/LINK_invent/BTK/process_docking_weight1_custom_sum_contain_oxygen_bond_distance_aromatic_linkinvent_7_9_3/rearranged_h_0186.sdf

> <i_m_source_file_index>
51

> <r_mmod_Potential_Energy-OPLS-2005>
123.714256286621

> <r_mmod_Stretch_Energy-OPLS-2005>
104.378028869629

> <r_mmod_Bend_Energy-OPLS-2005>
211.670623779297

> <r_mmod_Torsional_Energy-OPLS-2005>
368.486633300781

> <r_mmod_Improper_Torsional_Energy-OPLS-2005>
9.24853706359863

> <r_mmod_Van_der_Waal_Energy-OPLS-2005>
134.103927612305

> <r_mmod_Electrostatic_Energy-OPLS-2005>
-298.882354736328

> <r_mmod_Solvation_Energy-OPLS-2005>
-463.112091064453

> <b_mmod_Minimization_Converged-OPLS-2005>
0

> <r_mmod_RMS_Derivative-OPLS-2005>
4.43937730789185

$$$$
52
                    3D
 Structure written by MMmdl.
152160  0  0  1  0            999 V2000
  -30.3153  -15.6772   20.3105 C   0  0  0  0  0  0
  -30.4112  -13.1028   19.5517 C   0  0  0  0  0  0
  -29.5471  -12.6643   18.3345 C   0  0  0  0  0  0
  -28.1241  -12.3005   18.7783 C   0  0  0  0  0  0
  -27.5928  -13.3153   19.8157 C   0  0  2  0  0  0
  -28.6048  -13.6779   20.9308 C   0  0  0  0  0  0
  -25.2284  -13.8298   20.5810 C   0  0  0  0  0  0
  -24.1685  -13.0428   20.9293 C   0  0  0  0  0  0
  -24.6402  -11.6943   20.8758 C   0  0  0  0  0  0
  -23.9106  -10.4283   21.0383 C   0  0  0  0  0  0
  -24.3639   -9.4197   21.9172 C   0  0  0  0  0  0
  -23.6301   -8.2240   22.0752 C   0  0  0  0  0  0
  -22.4285   -8.0269   21.3544 C   0  0  0  0  0  0
  -21.9921   -9.0242   20.4648 C   0  0  0  0  0  0
  -22.7262  -10.2120   20.3042 C   0  0  0  0  0  0
  -21.6855   -6.0726   22.5275 C   0  0  0  0  0  0
  -21.4023   -6.5640   23.8207 C   0  0  0  0  0  0
  -21.3664   -5.6800   24.9173 C   0  0  0  0  0  0
  -21.6038   -4.3061   24.7231 C   0  0  0  0  0  0
  -21.8819   -3.8140   23.4359 C   0  0  0  0  0  0
  -21.9191   -4.6948   22.3402 C   0  0  0  0  0  0
  -22.7696  -13.5144   21.1930 C   0  0  0  0  0  0
  -22.1660   -4.2131   21.0979 F   0  0  0  0  0  0
  -21.5625   -3.4545   25.7748 F   0  0  0  0  0  0
  -29.7758  -14.3076   20.2722 N   0  0  0  0  0  0
  -26.2753  -12.9651   20.3277 N   0  0  0  0  0  0
  -25.9357  -11.6712   20.5724 N   0  0  0  0  0  0
  -22.0380  -12.8110   22.0493 N   0  0  0  0  0  0
  -25.3869  -15.2040   20.4254 N   0  0  0  0  0  0
  -31.5436  -15.5356   20.1616 O   0  0  0  0  0  0
  -21.6653   -6.8862   21.4233 O   0  0  0  0  0  0
  -22.3353  -14.5433   20.6763 O   0  0  0  0  0  0
  -24.6891  -31.7939   23.1437 C   0  0  0  0  0  0
  -25.9454  -32.4441   23.8008 C   0  0  1  0  0  0
  -27.2367  -26.6536   20.2147 C   0  0  0  0  0  0
  -25.5994  -33.8259   24.1898 N   0  0  0  0  0  0
  -23.5167  -30.3899   21.5004 C   0  0  2  0  0  0
  -24.9771  -28.7194   20.1180 C   0  0  0  0  0  0
  -22.7789  -29.4289   22.4720 C   0  0  0  0  0  0
  -18.0342  -28.1441   22.8485 C   0  0  0  0  0  0
  -24.1485  -36.7116   23.2659 C   0  0  0  0  0  0
  -26.0996  -30.5092   21.4184 C   0  0  0  0  0  0
  -26.1665  -29.0689   20.7682 C   0  0  0  0  0  0
  -27.2785  -28.0649   20.7839 C   0  0  0  0  0  0
  -26.0113  -26.5255   19.5098 C   0  0  0  0  0  0
  -24.9430  -27.4756   19.4628 C   0  0  0  0  0  0
  -23.7720  -29.6769   20.1402 C   0  0  0  0  0  0
  -25.4151  -36.2874   24.0283 C   0  0  1  0  0  0
  -20.5983  -28.3793   23.1168 C   0  0  2  0  0  0
  -20.6788  -26.9445   22.5431 C   0  0  0  0  0  0
  -19.5767  -26.6391   21.5235 C   0  0  0  0  0  0
  -18.1956  -26.7976   22.1638 C   0  0  0  0  0  0
  -19.1606  -28.8945   23.2794 C   0  0  0  0  0  0
  -18.9509  -30.1532   23.8852 C   0  0  0  0  0  0
  -17.6505  -30.6632   24.0557 C   0  0  0  0  0  0
  -25.9128  -34.9269   23.4933 C   0  0  0  0  0  0
  -16.5393  -29.9113   23.6365 C   0  0  0  0  0  0
  -16.7314  -28.6531   23.0412 C   0  0  0  0  0  0
  -26.4598  -31.6512   25.0663 C   0  0  0  0  0  0
  -25.3627  -31.3878   26.1257 C   0  0  0  0  0  0
  -27.0535  -30.2844   24.6634 C   0  0  0  0  0  0
  -27.6046  -32.4377   25.7495 C   0  0  0  0  0  0
  -27.5554  -37.1723   24.8476 C   0  0  0  0  0  0
  -21.4433  -29.3014   22.3462 N   0  0  0  0  0  0
  -26.4272  -37.3647   23.9408 N   0  0  0  0  0  0
  -24.7915  -30.9331   22.0720 N   0  0  0  0  0  0
  -23.4215  -28.7926   23.3108 O   0  0  0  0  0  0
  -28.1966  -25.4141   20.2972 O   0  0  0  0  0  0
  -26.5779  -34.8867   22.4556 O   0  0  0  0  0  0
  -23.5903  -32.1042   23.6350 O   0  0  0  0  0  0
  -29.5133  -20.6114   20.4621 C   0  0  0  0  0  0
  -30.8979  -20.6292   20.8980 C   0  0  0  0  0  0
  -29.0402  -22.1239   20.4975 C   0  0  0  0  0  0
  -29.5556  -18.8420   19.8239 C   0  0  1  0  0  0
  -30.8764  -19.1220   19.0285 C   0  0  0  0  0  0
  -30.5763  -19.9164   17.7333 C   0  0  0  0  0  0
  -31.8110  -17.9818   18.6099 C   0  0  0  0  0  0
  -28.0323  -23.6460   20.0759 C   0  0  0  0  0  0
  -31.6012  -19.9629   19.9786 N   0  0  0  0  0  0
  -29.5970  -17.0888   20.3432 N   0  0  0  0  0  0
  -31.4043  -21.1814   21.8784 O   0  0  0  0  0  0
  -31.4101  -13.3434   19.1869 H   0  0  0  0  0  0
  -30.5633  -12.2660   20.2343 H   0  0  0  0  0  0
  -30.0069  -11.8231   17.8150 H   0  0  0  0  0  0
  -29.5047  -13.4817   17.6138 H   0  0  0  0  0  0
  -28.1547  -11.3046   19.2208 H   0  0  0  0  0  0
  -27.4562  -12.2350   17.9185 H   0  0  0  0  0  0
  -27.4477  -14.2288   19.2357 H   0  0  0  0  0  0
  -28.8719  -12.8086   21.5326 H   0  0  0  0  0  0
  -28.1626  -14.3985   21.6192 H   0  0  0  0  0  0
  -25.2780   -9.5671   22.4767 H   0  0  0  0  0  0
  -23.9998   -7.4625   22.7480 H   0  0  0  0  0  0
  -21.0855   -8.8752   19.8962 H   0  0  0  0  0  0
  -22.3699  -10.9647   19.6153 H   0  0  0  0  0  0
  -21.2026   -7.6153   23.9692 H   0  0  0  0  0  0
  -21.1493   -6.0549   25.9074 H   0  0  0  0  0  0
  -22.0592   -2.7593   23.2871 H   0  0  0  0  0  0
  -22.4060  -11.9791   22.4876 H   0  0  0  0  0  0
  -21.0977  -13.1077   22.2720 H   0  0  0  0  0  0
  -24.6105  -15.8479   20.5306 H   0  0  0  0  0  0
  -26.2257  -15.6455   20.0715 H   0  0  0  0  0  0
  -26.7547  -32.4899   23.0718 H   0  0  0  0  0  0
  -25.0023  -33.9284   24.9975 H   0  0  0  0  0  0
  -22.8441  -31.2270   21.3034 H   0  0  0  0  0  0
  -23.3778  -35.9407   23.3296 H   0  0  0  0  0  0
  -24.3519  -36.8786   22.2068 H   0  0  0  0  0  0
  -23.7212  -37.6276   23.6748 H   0  0  0  0  0  0
  -26.3160  -31.2332   20.6330 H   0  0  0  0  0  0
  -26.9447  -30.5773   22.0918 H   0  0  0  0  0  0
  -28.1722  -28.3410   21.3278 H   0  0  0  0  0  0
  -25.8393  -25.5826   19.0102 H   0  0  0  0  0  0
  -24.0466  -27.1995   18.9258 H   0  0  0  0  0  0
  -23.9474  -30.4289   19.3705 H   0  0  0  0  0  0
  -22.8789  -29.1383   19.8209 H   0  0  0  0  0  0
  -25.1349  -36.1617   25.0771 H   0  0  0  0  0  0
  -21.0061  -28.3431   24.1294 H   0  0  0  0  0  0
  -20.5675  -26.2399   23.3678 H   0  0  0  0  0  0
  -21.6646  -26.7382   22.1237 H   0  0  0  0  0  0
  -19.6892  -25.6282   21.1308 H   0  0  0  0  0  0
  -19.6727  -27.3165   20.6738 H   0  0  0  0  0  0
  -17.4216  -26.6749   21.4045 H   0  0  0  0  0  0
  -18.0328  -26.0130   22.9042 H   0  0  0  0  0  0
  -19.7983  -30.7351   24.2228 H   0  0  0  0  0  0
  -17.5056  -31.6315   24.5141 H   0  0  0  0  0  0
  -15.5400  -30.2997   23.7729 H   0  0  0  0  0  0
  -15.8709  -28.0797   22.7221 H   0  0  0  0  0  0
  -24.5826  -30.7204   25.7579 H   0  0  0  0  0  0
  -24.8797  -32.3120   26.4445 H   0  0  0  0  0  0
  -25.7777  -30.9184   27.0189 H   0  0  0  0  0  0
  -26.3249  -29.6462   24.1639 H   0  0  0  0  0  0
  -27.3918  -29.7319   25.5413 H   0  0  0  0  0  0
  -27.9250  -30.3952   24.0188 H   0  0  0  0  0  0
  -27.2582  -33.3750   26.1866 H   0  0  0  0  0  0
  -28.3984  -32.6834   25.0425 H   0  0  0  0  0  0
  -28.0577  -31.8619   26.5575 H   0  0  0  0  0  0
  -28.2578  -38.0016   24.7485 H   0  0  0  0  0  0
  -28.1041  -36.2532   24.6350 H   0  0  0  0  0  0
  -27.2246  -37.1406   25.8875 H   0  0  0  0  0  0
  -20.9760  -29.8616   21.6456 H   0  0  0  0  0  0
  -26.0083  -38.2689   24.1423 H   0  0  0  0  0  0
  -29.7117  -22.6620   21.1530 H   0  0  0  0  0  0
  -28.7224  -18.8181   19.1192 H   0  0  0  0  0  0
  -30.1097  -19.2699   16.9872 H   0  0  0  0  0  0
  -31.4918  -20.3112   17.2868 H   0  0  0  0  0  0
  -29.9021  -20.7607   17.8791 H   0  0  0  0  0  0
  -31.2787  -17.1816   18.0938 H   0  0  0  0  0  0
  -32.3688  -17.5969   19.4597 H   0  0  0  0  0  0
  -32.5786  -18.3288   17.9196 H   0  0  0  0  0  0
  -27.0695  -23.4347   20.5382 H   0  0  0  0  0  0
  -27.8347  -23.5315   19.0107 H   0  0  0  0  0  0
  -32.6040  -19.8818   20.0646 H   0  0  0  0  0  0
  -28.6505  -16.8691   20.6209 H   0  0  0  0  0  0
  1 25  1  0  0  0
  1 30  2  0  0  0
  1 80  1  0  0  0
  2  3  1  0  0  0
  2 25  1  0  0  0
  2 82  1  0  0  0
  2 83  1  0  0  0
  3  4  1  0  0  0
  3 84  1  0  0  0
  3 85  1  0  0  0
  4  5  1  0  0  0
  4 86  1  0  0  0
  4 87  1  0  0  0
  5  6  1  0  0  0
  5 26  1  0  0  0
  5 88  1  0  0  0
  6 25  1  0  0  0
  6 89  1  0  0  0
  6 90  1  0  0  0
  7  8  2  0  0  0
  7 26  1  0  0  0
  7 29  1  0  0  0
  8  9  1  0  0  0
  8 22  1  0  0  0
  9 10  1  0  0  0
  9 27  2  0  0  0
 10 11  2  0  0  0
 10 15  1  0  0  0
 11 12  1  0  0  0
 11 91  1  0  0  0
 12 13  2  0  0  0
 12 92  1  0  0  0
 13 14  1  0  0  0
 13 31  1  0  0  0
 14 15  2  0  0  0
 14 93  1  0  0  0
 15 94  1  0  0  0
 16 17  2  0  0  0
 16 21  1  0  0  0
 16 31  1  0  0  0
 17 18  1  0  0  0
 17 95  1  0  0  0
 18 19  2  0  0  0
 18 96  1  0  0  0
 19 20  1  0  0  0
 19 24  1  0  0  0
 20 21  2  0  0  0
 20 97  1  0  0  0
 21 23  1  0  0  0
 22 28  1  0  0  0
 22 32  2  0  0  0
 26 27  1  0  0  0
 28 98  1  0  0  0
 28 99  1  0  0  0
 29100  1  0  0  0
 29101  1  0  0  0
 33 34  1  0  0  0
 33 66  1  0  0  0
 33 70  2  0  0  0
 34 36  1  0  0  0
 34 59  1  0  0  0
 34102  1  0  0  0
 35 44  2  0  0  0
 35 45  1  0  0  0
 35 68  1  0  0  0
 36 56  1  0  0  0
 36103  1  0  0  0
 37 39  1  0  0  0
 37 47  1  0  0  0
 37 66  1  0  0  0
 37104  1  0  0  0
 38 43  2  0  0  0
 38 46  1  0  0  0
 38 47  1  0  0  0
 39 64  1  0  0  0
 39 67  2  0  0  0
 40 52  1  0  0  0
 40 53  2  0  0  0
 40 58  1  0  0  0
 41105  1  0  0  0
 41106  1  0  0  0
 41107  1  0  0  0
 41 48  1  0  0  0
 42 43  1  0  0  0
 42 66  1  0  0  0
 42108  1  0  0  0
 42109  1  0  0  0
 43 44  1  0  0  0
 44110  1  0  0  0
 45 46  2  0  0  0
 45111  1  0  0  0
 46112  1  0  0  0
 47113  1  0  0  0
 47114  1  0  0  0
 48 56  1  0  0  0
 48 65  1  0  0  0
 48115  1  0  0  0
 49 50  1  0  0  0
 49 53  1  0  0  0
 49 64  1  0  0  0
 49116  1  0  0  0
 50 51  1  0  0  0
 50117  1  0  0  0
 50118  1  0  0  0
 51 52  1  0  0  0
 51119  1  0  0  0
 51120  1  0  0  0
 52121  1  0  0  0
 52122  1  0  0  0
 53 54  1  0  0  0
 54 55  2  0  0  0
 54123  1  0  0  0
 55 57  1  0  0  0
 55124  1  0  0  0
 56 69  2  0  0  0
 57 58  2  0  0  0
 57125  1  0  0  0
 58126  1  0  0  0
 59 60  1  0  0  0
 59 61  1  0  0  0
 59 62  1  0  0  0
 60127  1  0  0  0
 60128  1  0  0  0
 60129  1  0  0  0
 61130  1  0  0  0
 61131  1  0  0  0
 61132  1  0  0  0
 62133  1  0  0  0
 62134  1  0  0  0
 62135  1  0  0  0
 63 65  1  0  0  0
 63136  1  0  0  0
 63137  1  0  0  0
 63138  1  0  0  0
 64139  1  0  0  0
 65140  1  0  0  0
 68 78  1  0  0  0
 71 72  1  0  0  0
 71 73  2  0  0  0
 71 74  1  0  0  0
 72 79  1  0  0  0
 72 81  2  0  0  0
 73 78  1  0  0  0
 73141  1  0  0  0
 74 75  1  0  0  0
 74 80  1  0  0  0
 74142  1  0  0  0
 75 76  1  0  0  0
 75 77  1  0  0  0
 75 79  1  0  0  0
 76143  1  0  0  0
 76144  1  0  0  0
 76145  1  0  0  0
 77146  1  0  0  0
 77147  1  0  0  0
 77148  1  0  0  0
 78149  1  0  0  0
 78150  1  0  0  0
 79151  1  0  0  0
 80152  1  0  0  0
M  ISO  4   1 100  68 101  78 101  80 100
M  END
> <chiral flag>
0

> <version>
0

> <s_m_source_file>
/data/baiqing/PycharmProjects/Reinvent-master-3.2/result/LINK_invent/BTK/process_docking_weight1_custom_sum_contain_oxygen_bond_distance_aromatic_linkinvent_7_9_3/rearranged_h_0186.sdf

> <i_m_source_file_index>
52

> <r_mmod_Potential_Energy-OPLS-2005>
2858.64599609375

> <r_mmod_Stretch_Energy-OPLS-2005>
1250.4306640625

> <r_mmod_Bend_Energy-OPLS-2005>
910.380859375

> <r_mmod_Torsional_Energy-OPLS-2005>
296.427307128906

> <r_mmod_Improper_Torsional_Energy-OPLS-2005>
7.56915998458862

> <r_mmod_Van_der_Waal_Energy-OPLS-2005>
138.063583374023

> <r_mmod_Electrostatic_Energy-OPLS-2005>
-477.047668457031

> <r_mmod_Solvation_Energy-OPLS-2005>
-237.327865600586

> <b_mmod_Minimization_Converged-OPLS-2005>
0

> <r_mmod_RMS_Derivative-OPLS-2005>
3.48785209655762

$$$$
53
                    3D
 Structure written by MMmdl.
155164  0  0  1  0            999 V2000
  -30.5648  -14.9679   20.4188 C   0  0  0  0  0  0
  -30.4162  -12.6007   19.5233 C   0  0  0  0  0  0
  -29.5191  -12.5424   18.2666 C   0  0  0  0  0  0
  -28.0537  -12.3116   18.6765 C   0  0  0  0  0  0
  -27.6157  -13.2586   19.8255 C   0  0  2  0  0  0
  -28.6485  -13.3429   20.9688 C   0  0  0  0  0  0
  -25.2410  -13.8240   20.5741 C   0  0  0  0  0  0
  -24.1743  -13.0471   20.9230 C   0  0  0  0  0  0
  -24.6361  -11.6944   20.8765 C   0  0  0  0  0  0
  -23.9071  -10.4323   21.0437 C   0  0  0  0  0  0
  -24.3652   -9.4233   21.9196 C   0  0  0  0  0  0
  -23.6333   -8.2265   22.0755 C   0  0  0  0  0  0
  -22.4304   -8.0308   21.3550 C   0  0  0  0  0  0
  -21.9939   -9.0289   20.4657 C   0  0  0  0  0  0
  -22.7260  -10.2161   20.3071 C   0  0  0  0  0  0
  -21.6856   -6.0774   22.5287 C   0  0  0  0  0  0
  -21.4028   -6.5673   23.8225 C   0  0  0  0  0  0
  -21.3653   -5.6806   24.9180 C   0  0  0  0  0  0
  -21.6041   -4.3074   24.7220 C   0  0  0  0  0  0
  -21.8807   -3.8177   23.4340 C   0  0  0  0  0  0
  -21.9198   -4.7005   22.3402 C   0  0  0  0  0  0
  -22.7772  -13.5240   21.1893 C   0  0  0  0  0  0
  -22.1661   -4.2200   21.0975 F   0  0  0  0  0  0
  -21.5614   -3.4539   25.7726 F   0  0  0  0  0  0
  -29.9228  -13.7314   20.3617 N   0  0  0  0  0  0
  -26.2813  -12.9494   20.3197 N   0  0  0  0  0  0
  -25.9284  -11.6624   20.5718 N   0  0  0  0  0  0
  -22.0425  -12.8256   22.0462 N   0  0  0  0  0  0
  -25.4147  -15.1980   20.4207 N   0  0  0  0  0  0
  -31.7787  -14.9534   20.1780 O   0  0  0  0  0  0
  -21.6644   -6.8921   21.4253 O   0  0  0  0  0  0
  -22.3476  -14.5568   20.6742 O   0  0  0  0  0  0
  -24.6436  -31.8472   23.1855 C   0  0  0  0  0  0
  -25.9255  -32.4659   23.8205 C   0  0  1  0  0  0
  -27.2056  -27.1318   20.1712 C   0  0  0  0  0  0
  -25.6043  -33.8461   24.2145 N   0  0  0  0  0  0
  -23.4415  -30.4670   21.5309 C   0  0  2  0  0  0
  -24.8877  -28.8823   20.1217 C   0  0  0  0  0  0
  -22.7575  -29.4597   22.4883 C   0  0  0  0  0  0
  -18.0315  -28.1432   22.8503 C   0  0  0  0  0  0
  -24.1512  -36.7244   23.2628 C   0  0  0  0  0  0
  -25.9958  -30.7174   21.3860 C   0  0  0  0  0  0
  -26.0631  -29.3203   20.7471 C   0  0  0  0  0  0
  -27.2256  -28.4617   20.7572 C   0  0  0  0  0  0
  -26.0099  -26.7910   19.5072 C   0  0  0  0  0  0
  -24.8755  -27.6309   19.4847 C   0  0  0  0  0  0
  -23.6656  -29.7850   20.1538 C   0  0  0  0  0  0
  -25.4150  -36.2998   24.0284 C   0  0  1  0  0  0
  -20.5911  -28.3800   23.1287 C   0  0  2  0  0  0
  -20.6847  -26.9498   22.5529 C   0  0  0  0  0  0
  -19.5821  -26.6365   21.5353 C   0  0  0  0  0  0
  -18.1987  -26.7926   22.1718 C   0  0  0  0  0  0
  -19.1566  -28.8948   23.2822 C   0  0  0  0  0  0
  -18.9487  -30.1557   23.8815 C   0  0  0  0  0  0
  -17.6487  -30.6645   24.0534 C   0  0  0  0  0  0
  -25.9109  -34.9375   23.5016 C   0  0  0  0  0  0
  -16.5367  -29.9118   23.6354 C   0  0  0  0  0  0
  -16.7294  -28.6521   23.0383 C   0  0  0  0  0  0
  -26.4576  -31.6506   25.0618 C   0  0  0  0  0  0
  -25.3733  -31.3727   26.1282 C   0  0  0  0  0  0
  -27.0460  -30.2905   24.6192 C   0  0  0  0  0  0
  -27.6106  -32.4241   25.7415 C   0  0  0  0  0  0
  -27.5578  -37.1785   24.8457 C   0  0  0  0  0  0
  -21.4281  -29.3103   22.3651 N   0  0  0  0  0  0
  -26.4297  -37.3715   23.9387 N   0  0  0  0  0  0
  -24.7118  -31.0368   22.0853 N   0  0  0  0  0  0
  -23.4231  -28.8146   23.3040 O   0  0  0  0  0  0
  -28.2739  -26.1725   20.0848 O   0  0  0  0  0  0
  -26.5646  -34.8875   22.4567 O   0  0  0  0  0  0
  -23.5589  -32.1342   23.7146 O   0  0  0  0  0  0
  -28.5977  -24.7466   22.0551 C   0  0  0  0  0  0
  -28.8843  -23.4918   22.6185 C   0  0  0  0  0  0
  -28.3247  -24.8370   20.6902 C   0  0  0  0  0  0
  -28.6362  -22.3765   20.6119 C   0  0  0  0  0  0
  -30.3395  -17.2505   19.3307 C   0  0  0  0  0  0
  -29.4667  -17.1099   21.4906 C   0  0  0  0  0  0
  -29.5169  -18.6132   19.0844 C   0  0  0  0  0  0
  -28.6709  -18.5301   21.2540 C   0  0  0  0  0  0
  -28.5362  -20.8995   19.8875 C   0  0  0  0  0  0
  -28.8956  -22.3363   21.9154 N   0  0  0  0  0  0
  -28.3725  -23.6078   19.9828 N   0  0  0  0  0  0
  -29.8593  -16.2215   20.3253 N   0  0  0  0  0  0
  -29.2635  -19.5242   20.2665 N   0  3  0  0  0  0
  -31.4583  -12.7269   19.2301 H   0  0  0  0  0  0
  -30.3722  -11.6649   20.0862 H   0  0  0  0  0  0
  -29.8578  -11.7560   17.5906 H   0  0  0  0  0  0
  -29.5986  -13.4850   17.7185 H   0  0  0  0  0  0
  -27.9558  -11.2729   18.9964 H   0  0  0  0  0  0
  -27.3984  -12.4326   17.8131 H   0  0  0  0  0  0
  -27.5608  -14.2471   19.3669 H   0  0  0  0  0  0
  -28.7337  -12.4007   21.5122 H   0  0  0  0  0  0
  -28.3354  -14.0987   21.6919 H   0  0  0  0  0  0
  -25.2801   -9.5713   22.4783 H   0  0  0  0  0  0
  -24.0047   -7.4646   22.7466 H   0  0  0  0  0  0
  -21.0871   -8.8823   19.8970 H   0  0  0  0  0  0
  -22.3725  -10.9728   19.6198 H   0  0  0  0  0  0
  -21.2026   -7.6178   23.9758 H   0  0  0  0  0  0
  -21.1475   -6.0526   25.9084 H   0  0  0  0  0  0
  -22.0589   -2.7649   23.2810 H   0  0  0  0  0  0
  -22.4052  -11.9905   22.4845 H   0  0  0  0  0  0
  -21.1049  -13.1299   22.2700 H   0  0  0  0  0  0
  -24.6555  -15.8576   20.5472 H   0  0  0  0  0  0
  -26.2727  -15.6364   20.1108 H   0  0  0  0  0  0
  -26.7282  -32.5272   23.0897 H   0  0  0  0  0  0
  -25.0211  -33.9545   25.0306 H   0  0  0  0  0  0
  -22.7402  -31.2900   21.3754 H   0  0  0  0  0  0
  -23.3741  -35.9615   23.3279 H   0  0  0  0  0  0
  -24.3582  -36.8899   22.2048 H   0  0  0  0  0  0
  -23.7304  -37.6447   23.6671 H   0  0  0  0  0  0
  -26.1494  -31.4630   20.6027 H   0  0  0  0  0  0
  -26.8675  -30.7718   22.0268 H   0  0  0  0  0  0
  -28.1281  -28.8055   21.2398 H   0  0  0  0  0  0
  -25.9426  -25.8356   19.0046 H   0  0  0  0  0  0
  -23.9844  -27.3013   18.9679 H   0  0  0  0  0  0
  -22.7788  -29.2219   19.8501 H   0  0  0  0  0  0
  -23.8023  -30.5474   19.3855 H   0  0  0  0  0  0
  -25.1350  -36.1796   25.0769 H   0  0  0  0  0  0
  -20.9938  -28.3447   24.1433 H   0  0  0  0  0  0
  -20.5840  -26.2447   23.3800 H   0  0  0  0  0  0
  -21.6727  -26.7545   22.1332 H   0  0  0  0  0  0
  -19.6762  -27.3087   20.6828 H   0  0  0  0  0  0
  -19.7046  -25.6246   21.1502 H   0  0  0  0  0  0
  -17.4253  -26.6596   21.4132 H   0  0  0  0  0  0
  -18.0414  -26.0130   22.9181 H   0  0  0  0  0  0
  -19.7975  -30.7383   24.2141 H   0  0  0  0  0  0
  -17.5054  -31.6317   24.5175 H   0  0  0  0  0  0
  -15.5358  -30.3021   23.7735 H   0  0  0  0  0  0
  -15.8684  -28.0828   22.7142 H   0  0  0  0  0  0
  -24.5913  -30.7090   25.7561 H   0  0  0  0  0  0
  -24.8931  -32.2942   26.4583 H   0  0  0  0  0  0
  -25.7983  -30.8938   27.0112 H   0  0  0  0  0  0
  -26.3114  -29.6564   24.1215 H   0  0  0  0  0  0
  -27.4112  -29.7222   25.4758 H   0  0  0  0  0  0
  -27.8976  -30.4104   23.9488 H   0  0  0  0  0  0
  -27.2709  -33.3560   26.1931 H   0  0  0  0  0  0
  -28.3967  -32.6761   25.0282 H   0  0  0  0  0  0
  -28.0689  -31.8366   26.5379 H   0  0  0  0  0  0
  -28.2590  -38.0085   24.7472 H   0  0  0  0  0  0
  -28.1061  -36.2597   24.6316 H   0  0  0  0  0  0
  -27.2253  -37.1475   25.8844 H   0  0  0  0  0  0
  -20.9521  -29.8806   21.6804 H   0  0  0  0  0  0
  -26.0144  -38.2782   24.1331 H   0  0  0  0  0  0
  -28.6442  -25.6407   22.6592 H   0  0  0  0  0  0
  -29.1429  -23.4156   23.6662 H   0  0  0  0  0  0
  -31.3617  -17.5271   19.5974 H   0  0  0  0  0  0
  -30.4266  -16.7497   18.3649 H   0  0  0  0  0  0
  -28.8963  -16.5034   22.1939 H   0  0  0  0  0  0
  -30.3957  -17.3424   22.0163 H   0  0  0  0  0  0
  -28.5482  -18.3453   18.6592 H   0  0  0  0  0  0
  -30.0238  -19.1833   18.3053 H   0  0  0  0  0  0
  -28.5407  -19.0340   22.2113 H   0  0  0  0  0  0
  -27.6586  -18.2840   20.9229 H   0  0  0  0  0  0
  -28.8795  -21.1288   18.8802 H   0  0  0  0  0  0
  -27.4733  -20.6905   19.7616 H   0  0  0  0  0  0
  -30.1556  -19.8125   20.6358 H   0  0  0  0  0  0
  1 25  1  0  0  0
  1 30  2  0  0  0
  1 82  1  0  0  0
  2  3  1  0  0  0
  2 25  1  0  0  0
  2 84  1  0  0  0
  2 85  1  0  0  0
  3  4  1  0  0  0
  3 86  1  0  0  0
  3 87  1  0  0  0
  4  5  1  0  0  0
  4 88  1  0  0  0
  4 89  1  0  0  0
  5  6  1  0  0  0
  5 26  1  0  0  0
  5 90  1  0  0  0
  6 25  1  0  0  0
  6 91  1  0  0  0
  6 92  1  0  0  0
  7  8  2  0  0  0
  7 26  1  0  0  0
  7 29  1  0  0  0
  8  9  1  0  0  0
  8 22  1  0  0  0
  9 10  1  0  0  0
  9 27  2  0  0  0
 10 11  2  0  0  0
 10 15  1  0  0  0
 11 12  1  0  0  0
 11 93  1  0  0  0
 12 13  2  0  0  0
 12 94  1  0  0  0
 13 14  1  0  0  0
 13 31  1  0  0  0
 14 15  2  0  0  0
 14 95  1  0  0  0
 15 96  1  0  0  0
 16 17  2  0  0  0
 16 21  1  0  0  0
 16 31  1  0  0  0
 17 18  1  0  0  0
 17 97  1  0  0  0
 18 19  2  0  0  0
 18 98  1  0  0  0
 19 20  1  0  0  0
 19 24  1  0  0  0
 20 21  2  0  0  0
 20 99  1  0  0  0
 21 23  1  0  0  0
 22 28  1  0  0  0
 22 32  2  0  0  0
 26 27  1  0  0  0
 28100  1  0  0  0
 28101  1  0  0  0
 29102  1  0  0  0
 29103  1  0  0  0
 33 34  1  0  0  0
 33 66  1  0  0  0
 33 70  2  0  0  0
 34 36  1  0  0  0
 34 59  1  0  0  0
 34104  1  0  0  0
 35 44  2  0  0  0
 35 45  1  0  0  0
 35 68  1  0  0  0
 36 56  1  0  0  0
 36105  1  0  0  0
 37 39  1  0  0  0
 37 47  1  0  0  0
 37 66  1  0  0  0
 37106  1  0  0  0
 38 43  2  0  0  0
 38 46  1  0  0  0
 38 47  1  0  0  0
 39 64  1  0  0  0
 39 67  2  0  0  0
 40 52  1  0  0  0
 40 53  2  0  0  0
 40 58  1  0  0  0
 41107  1  0  0  0
 41108  1  0  0  0
 41109  1  0  0  0
 41 48  1  0  0  0
 42 43  1  0  0  0
 42 66  1  0  0  0
 42110  1  0  0  0
 42111  1  0  0  0
 43 44  1  0  0  0
 44112  1  0  0  0
 45 46  2  0  0  0
 45113  1  0  0  0
 46114  1  0  0  0
 47115  1  0  0  0
 47116  1  0  0  0
 48 56  1  0  0  0
 48 65  1  0  0  0
 48117  1  0  0  0
 49 50  1  0  0  0
 49 53  1  0  0  0
 49 64  1  0  0  0
 49118  1  0  0  0
 50 51  1  0  0  0
 50119  1  0  0  0
 50120  1  0  0  0
 51 52  1  0  0  0
 51121  1  0  0  0
 51122  1  0  0  0
 52123  1  0  0  0
 52124  1  0  0  0
 53 54  1  0  0  0
 54 55  2  0  0  0
 54125  1  0  0  0
 55 57  1  0  0  0
 55126  1  0  0  0
 56 69  2  0  0  0
 57 58  2  0  0  0
 57127  1  0  0  0
 58128  1  0  0  0
 59 60  1  0  0  0
 59 61  1  0  0  0
 59 62  1  0  0  0
 60129  1  0  0  0
 60130  1  0  0  0
 60131  1  0  0  0
 61132  1  0  0  0
 61133  1  0  0  0
 61134  1  0  0  0
 62135  1  0  0  0
 62136  1  0  0  0
 62137  1  0  0  0
 63 65  1  0  0  0
 63138  1  0  0  0
 63139  1  0  0  0
 63140  1  0  0  0
 64141  1  0  0  0
 65142  1  0  0  0
 68 73  1  0  0  0
 71 72  2  0  0  0
 71 73  1  0  0  0
 71143  1  0  0  0
 72 80  1  0  0  0
 72144  1  0  0  0
 73 81  2  0  0  0
 74 79  1  0  0  0
 74 80  2  0  0  0
 74 81  1  0  0  0
 75 77  1  0  0  0
 75 82  1  0  0  0
 75145  1  0  0  0
 75146  1  0  0  0
 76 78  1  0  0  0
 76 82  1  0  0  0
 76147  1  0  0  0
 76148  1  0  0  0
 77 83  1  0  0  0
 77149  1  0  0  0
 77150  1  0  0  0
 78 83  1  0  0  0
 78151  1  0  0  0
 78152  1  0  0  0
 79153  1  0  0  0
 79154  1  0  0  0
 79 83  1  0  0  0
 83155  1  0  0  0
M  CHG  1  83   1
M  ISO  4   1 100  68 101  73 101  82 100
M  END
> <chiral flag>
0

> <version>
0

> <s_m_source_file>
/data/baiqing/PycharmProjects/Reinvent-master-3.2/result/LINK_invent/BTK/process_docking_weight1_custom_sum_contain_oxygen_bond_distance_aromatic_linkinvent_7_9_3/rearranged_h_0186.sdf

> <i_m_source_file_index>
53

> <r_mmod_Potential_Energy-OPLS-2005>
61.3204345703125

> <r_mmod_Stretch_Energy-OPLS-2005>
222.922088623047

> <r_mmod_Bend_Energy-OPLS-2005>
291.204498291016

> <r_mmod_Torsional_Energy-OPLS-2005>
390.276519775391

> <r_mmod_Improper_Torsional_Energy-OPLS-2005>
18.5426006317139

> <r_mmod_Van_der_Waal_Energy-OPLS-2005>
137.86296081543

> <r_mmod_Electrostatic_Energy-OPLS-2005>
-738.4462890625

> <r_mmod_Solvation_Energy-OPLS-2005>
-459.159515380859

> <b_mmod_Minimization_Converged-OPLS-2005>
0

> <r_mmod_RMS_Derivative-OPLS-2005>
4.77341938018799

$$$$
54
                    3D
 Structure written by MMmdl.
159168  0  0  1  0            999 V2000
  -30.7152  -14.6110   20.5013 C   0  0  0  0  0  0
  -30.4214  -12.3862   19.4402 C   0  0  0  0  0  0
  -29.4888  -12.4782   18.2156 C   0  0  0  0  0  0
  -28.0215  -12.2801   18.6423 C   0  0  0  0  0  0
  -27.6362  -13.1714   19.8471 C   0  0  2  0  0  0
  -28.6985  -13.0986   20.9765 C   0  0  0  0  0  0
  -25.2521  -13.8028   20.5669 C   0  0  0  0  0  0
  -24.1776  -13.0358   20.9223 C   0  0  0  0  0  0
  -24.6311  -11.6821   20.8800 C   0  0  0  0  0  0
  -23.8984  -10.4241   21.0449 C   0  0  0  0  0  0
  -24.3561   -9.4164   21.9214 C   0  0  0  0  0  0
  -23.6255   -8.2194   22.0762 C   0  0  0  0  0  0
  -22.4240   -8.0244   21.3545 C   0  0  0  0  0  0
  -21.9865   -9.0213   20.4651 C   0  0  0  0  0  0
  -22.7175  -10.2100   20.3077 C   0  0  0  0  0  0
  -21.6832   -6.0714   22.5280 C   0  0  0  0  0  0
  -21.3998   -6.5626   23.8211 C   0  0  0  0  0  0
  -21.3656   -5.6783   24.9177 C   0  0  0  0  0  0
  -21.6047   -4.3047   24.7230 C   0  0  0  0  0  0
  -21.8821   -3.8136   23.4352 C   0  0  0  0  0  0
  -21.9186   -4.6948   22.3407 C   0  0  0  0  0  0
  -22.7817  -13.5206   21.1869 C   0  0  0  0  0  0
  -22.1657   -4.2136   21.0983 F   0  0  0  0  0  0
  -21.5636   -3.4533   25.7744 F   0  0  0  0  0  0
  -30.0056  -13.4376   20.3923 N   0  0  0  0  0  0
  -26.2896  -12.9110   20.3319 N   0  0  0  0  0  0
  -25.9219  -11.6326   20.5830 N   0  0  0  0  0  0
  -22.0439  -12.8231   22.0434 N   0  0  0  0  0  0
  -25.4182  -15.1742   20.3989 N   0  0  0  0  0  0
  -31.9048  -14.6418   20.1762 O   0  0  0  0  0  0
  -21.6608   -6.8845   21.4237 O   0  0  0  0  0  0
  -22.3531  -14.5517   20.6705 O   0  0  0  0  0  0
  -24.6185  -31.8651   23.2074 C   0  0  0  0  0  0
  -25.9063  -32.4810   23.8379 C   0  0  1  0  0  0
  -27.2364  -27.3924   20.1058 C   0  0  0  0  0  0
  -25.5906  -33.8608   24.2312 N   0  0  0  0  0  0
  -23.4086  -30.4884   21.5486 C   0  0  2  0  0  0
  -24.8557  -28.9512   20.1133 C   0  0  0  0  0  0
  -22.7433  -29.4644   22.4973 C   0  0  0  0  0  0
  -18.0277  -28.1372   22.8494 C   0  0  0  0  0  0
  -24.1487  -36.7307   23.2636 C   0  0  0  0  0  0
  -25.9417  -30.8189   21.3663 C   0  0  0  0  0  0
  -26.0186  -29.4507   20.7120 C   0  0  0  0  0  0
  -27.2096  -28.6806   20.7020 C   0  0  0  0  0  0
  -26.0499  -26.9234   19.4918 C   0  0  0  0  0  0
  -24.8692  -27.6894   19.4979 C   0  0  0  0  0  0
  -23.6191  -29.8216   20.1633 C   0  0  0  0  0  0
  -25.4109  -36.3104   24.0335 C   0  0  1  0  0  0
  -20.5871  -28.3665   23.1308 C   0  0  2  0  0  0
  -20.6767  -26.9398   22.5413 C   0  0  0  0  0  0
  -19.5743  -26.6379   21.5213 C   0  0  0  0  0  0
  -18.1923  -26.7917   22.1628 C   0  0  0  0  0  0
  -19.1527  -28.8836   23.2897 C   0  0  0  0  0  0
  -18.9453  -30.1443   23.8906 C   0  0  0  0  0  0
  -17.6455  -30.6580   24.0562 C   0  0  0  0  0  0
  -25.9039  -34.9470   23.5123 C   0  0  0  0  0  0
  -16.5346  -29.9080   23.6327 C   0  0  0  0  0  0
  -16.7266  -28.6496   23.0352 C   0  0  0  0  0  0
  -26.4478  -31.6595   25.0718 C   0  0  0  0  0  0
  -25.3740  -31.3708   26.1465 C   0  0  0  0  0  0
  -27.0305  -30.3033   24.6107 C   0  0  0  0  0  0
  -27.6053  -32.4313   25.7481 C   0  0  0  0  0  0
  -27.5582  -37.1806   24.8465 C   0  0  0  0  0  0
  -21.4156  -29.3033   22.3715 N   0  0  0  0  0  0
  -26.4293  -37.3792   23.9411 N   0  0  0  0  0  0
  -24.6747  -31.0724   22.0989 N   0  0  0  0  0  0
  -23.4191  -28.8184   23.3025 O   0  0  0  0  0  0
  -28.3985  -26.6280   20.1495 O   0  0  0  0  0  0
  -26.5603  -34.8927   22.4686 O   0  0  0  0  0  0
  -23.5369  -32.1414   23.7450 O   0  0  0  0  0  0
  -29.6573  -21.5650   17.9407 C   0  0  0  0  0  0
  -29.6067  -22.9149   19.7103 C   0  0  0  0  0  0
  -29.9321  -20.7056   19.9647 C   0  0  0  0  0  0
  -28.6059  -17.7015   20.5181 C   0  0  0  0  0  0
  -28.7436  -16.1840   20.4146 C   0  0  0  0  0  0
  -30.8170  -17.0764   21.0768 C   0  0  0  0  0  0
  -30.0255  -18.1888   20.3332 C   0  0  2  0  0  0
  -29.5590  -21.3734   16.4425 C   0  0  0  0  0  0
  -29.5723  -24.3689   20.2398 C   0  0  0  0  0  0
  -28.3028  -25.2031   19.8681 C   0  0  0  0  0  0
  -29.5364  -22.8072   18.3873 N   0  0  0  0  0  0
  -29.8563  -20.4735   18.6659 N   0  0  0  0  0  0
  -29.8111  -21.8925   20.5645 N   0  0  0  0  0  0
  -30.0904  -15.7911   20.8509 N   0  0  0  0  0  0
  -30.2007  -19.5939   20.7670 N   0  0  0  0  0  0
  -31.4601  -12.4869   19.1216 H   0  0  0  0  0  0
  -30.3516  -11.4019   19.9058 H   0  0  0  0  0  0
  -29.7654  -11.7276   17.4740 H   0  0  0  0  0  0
  -29.6070  -13.4477   17.7293 H   0  0  0  0  0  0
  -27.8899  -11.2296   18.9042 H   0  0  0  0  0  0
  -27.3533  -12.4691   17.8011 H   0  0  0  0  0  0
  -27.5971  -14.1595   19.4165 H   0  0  0  0  0  0
  -28.7308  -12.0928   21.3978 H   0  0  0  0  0  0
  -28.4522  -13.7512   21.8136 H   0  0  0  0  0  0
  -25.2705   -9.5647   22.4791 H   0  0  0  0  0  0
  -23.9971   -7.4576   22.7470 H   0  0  0  0  0  0
  -21.0801   -8.8721   19.8950 H   0  0  0  0  0  0
  -22.3634  -10.9646   19.6191 H   0  0  0  0  0  0
  -21.1979   -7.6132   23.9712 H   0  0  0  0  0  0
  -21.1481   -6.0513   25.9080 H   0  0  0  0  0  0
  -22.0607   -2.7600   23.2854 H   0  0  0  0  0  0
  -22.4021  -11.9883   22.4834 H   0  0  0  0  0  0
  -21.1068  -13.1296   22.2632 H   0  0  0  0  0  0
  -24.6500  -15.8260   20.5168 H   0  0  0  0  0  0
  -26.2663  -15.6179   20.0737 H   0  0  0  0  0  0
  -26.7131  -32.5509   23.1137 H   0  0  0  0  0  0
  -25.0068  -33.9765   25.0467 H   0  0  0  0  0  0
  -22.6991  -31.3065   21.4084 H   0  0  0  0  0  0
  -23.3751  -35.9637   23.3301 H   0  0  0  0  0  0
  -24.3583  -36.8920   22.2051 H   0  0  0  0  0  0
  -23.7235  -37.6510   23.6650 H   0  0  0  0  0  0
  -26.0603  -31.5841   20.5979 H   0  0  0  0  0  0
  -26.8273  -30.8712   21.9879 H   0  0  0  0  0  0
  -28.1050  -29.0627   21.1723 H   0  0  0  0  0  0
  -26.0095  -25.9613   19.0034 H   0  0  0  0  0  0
  -23.9763  -27.3006   19.0278 H   0  0  0  0  0  0
  -23.7301  -30.5965   19.4040 H   0  0  0  0  0  0
  -22.7421  -29.2434   19.8665 H   0  0  0  0  0  0
  -25.1287  -36.1965   25.0828 H   0  0  0  0  0  0
  -20.9966  -28.3226   24.1428 H   0  0  0  0  0  0
  -20.5671  -26.2271   23.3602 H   0  0  0  0  0  0
  -21.6636  -26.7436   22.1204 H   0  0  0  0  0  0
  -19.6905  -25.6294   21.1233 H   0  0  0  0  0  0
  -19.6678  -27.3199   20.6751 H   0  0  0  0  0  0
  -17.4193  -26.6664   21.4031 H   0  0  0  0  0  0
  -18.0327  -26.0054   22.9021 H   0  0  0  0  0  0
  -19.7930  -30.7256   24.2278 H   0  0  0  0  0  0
  -17.5010  -31.6264   24.5155 H   0  0  0  0  0  0
  -15.5347  -30.2986   23.7643 H   0  0  0  0  0  0
  -15.8665  -28.0818   22.7064 H   0  0  0  0  0  0
  -24.5910  -30.7058   25.7802 H   0  0  0  0  0  0
  -24.8936  -32.2866   26.4919 H   0  0  0  0  0  0
  -25.8091  -30.8870   27.0219 H   0  0  0  0  0  0
  -26.2848  -29.6796   24.1162 H   0  0  0  0  0  0
  -27.4070  -29.7269   25.4568 H   0  0  0  0  0  0
  -27.8689  -30.4345   23.9262 H   0  0  0  0  0  0
  -27.2680  -33.3616   26.2062 H   0  0  0  0  0  0
  -28.3862  -32.6864   25.0303 H   0  0  0  0  0  0
  -28.0719  -31.8430   26.5392 H   0  0  0  0  0  0
  -28.2599  -38.0105   24.7526 H   0  0  0  0  0  0
  -28.1080  -36.2640   24.6276 H   0  0  0  0  0  0
  -27.2303  -37.1437   25.8868 H   0  0  0  0  0  0
  -20.9317  -29.8762   21.6943 H   0  0  0  0  0  0
  -26.0181  -38.2868   24.1420 H   0  0  0  0  0  0
  -28.2308  -17.9685   21.5080 H   0  0  0  0  0  0
  -27.9165  -18.1105   19.7774 H   0  0  0  0  0  0
  -28.6363  -15.9269   19.3610 H   0  0  0  0  0  0
  -27.9658  -15.7141   21.0102 H   0  0  0  0  0  0
  -30.8351  -17.2632   22.1515 H   0  0  0  0  0  0
  -31.8542  -17.0547   20.7387 H   0  0  0  0  0  0
  -30.2832  -18.1044   19.2758 H   0  0  0  0  0  0
  -29.8294  -22.2846   15.9087 H   0  0  0  0  0  0
  -28.5399  -21.1057   16.1651 H   0  0  0  0  0  0
  -30.2255  -20.5801   16.1041 H   0  0  0  0  0  0
  -30.4534  -24.8767   19.8480 H   0  0  0  0  0  0
  -29.6914  -24.3617   21.3233 H   0  0  0  0  0  0
  -27.4489  -24.7674   20.3893 H   0  0  0  0  0  0
  -28.1158  -25.0949   18.7992 H   0  0  0  0  0  0
  -30.2322  -19.7830   21.7612 H   0  0  0  0  0  0
  1 25  1  0  0  0
  1 30  2  0  0  0
  1 84  1  0  0  0
  2  3  1  0  0  0
  2 25  1  0  0  0
  2 86  1  0  0  0
  2 87  1  0  0  0
  3  4  1  0  0  0
  3 88  1  0  0  0
  3 89  1  0  0  0
  4  5  1  0  0  0
  4 90  1  0  0  0
  4 91  1  0  0  0
  5  6  1  0  0  0
  5 26  1  0  0  0
  5 92  1  0  0  0
  6 25  1  0  0  0
  6 93  1  0  0  0
  6 94  1  0  0  0
  7  8  2  0  0  0
  7 26  1  0  0  0
  7 29  1  0  0  0
  8  9  1  0  0  0
  8 22  1  0  0  0
  9 10  1  0  0  0
  9 27  2  0  0  0
 10 11  2  0  0  0
 10 15  1  0  0  0
 11 12  1  0  0  0
 11 95  1  0  0  0
 12 13  2  0  0  0
 12 96  1  0  0  0
 13 14  1  0  0  0
 13 31  1  0  0  0
 14 15  2  0  0  0
 14 97  1  0  0  0
 15 98  1  0  0  0
 16 17  2  0  0  0
 16 21  1  0  0  0
 16 31  1  0  0  0
 17 18  1  0  0  0
 17 99  1  0  0  0
 18 19  2  0  0  0
 18100  1  0  0  0
 19 20  1  0  0  0
 19 24  1  0  0  0
 20 21  2  0  0  0
 20101  1  0  0  0
 21 23  1  0  0  0
 22 28  1  0  0  0
 22 32  2  0  0  0
 26 27  1  0  0  0
 28102  1  0  0  0
 28103  1  0  0  0
 29104  1  0  0  0
 29105  1  0  0  0
 33 34  1  0  0  0
 33 66  1  0  0  0
 33 70  2  0  0  0
 34 36  1  0  0  0
 34 59  1  0  0  0
 34106  1  0  0  0
 35 44  2  0  0  0
 35 45  1  0  0  0
 35 68  1  0  0  0
 36 56  1  0  0  0
 36107  1  0  0  0
 37 39  1  0  0  0
 37 47  1  0  0  0
 37 66  1  0  0  0
 37108  1  0  0  0
 38 43  2  0  0  0
 38 46  1  0  0  0
 38 47  1  0  0  0
 39 64  1  0  0  0
 39 67  2  0  0  0
 40 52  1  0  0  0
 40 53  2  0  0  0
 40 58  1  0  0  0
 41109  1  0  0  0
 41110  1  0  0  0
 41111  1  0  0  0
 41 48  1  0  0  0
 42 43  1  0  0  0
 42 66  1  0  0  0
 42112  1  0  0  0
 42113  1  0  0  0
 43 44  1  0  0  0
 44114  1  0  0  0
 45 46  2  0  0  0
 45115  1  0  0  0
 46116  1  0  0  0
 47117  1  0  0  0
 47118  1  0  0  0
 48 56  1  0  0  0
 48 65  1  0  0  0
 48119  1  0  0  0
 49 50  1  0  0  0
 49 53  1  0  0  0
 49 64  1  0  0  0
 49120  1  0  0  0
 50 51  1  0  0  0
 50121  1  0  0  0
 50122  1  0  0  0
 51 52  1  0  0  0
 51123  1  0  0  0
 51124  1  0  0  0
 52125  1  0  0  0
 52126  1  0  0  0
 53 54  1  0  0  0
 54 55  2  0  0  0
 54127  1  0  0  0
 55 57  1  0  0  0
 55128  1  0  0  0
 56 69  2  0  0  0
 57 58  2  0  0  0
 57129  1  0  0  0
 58130  1  0  0  0
 59 60  1  0  0  0
 59 61  1  0  0  0
 59 62  1  0  0  0
 60131  1  0  0  0
 60132  1  0  0  0
 60133  1  0  0  0
 61134  1  0  0  0
 61135  1  0  0  0
 61136  1  0  0  0
 62137  1  0  0  0
 62138  1  0  0  0
 62139  1  0  0  0
 63 65  1  0  0  0
 63140  1  0  0  0
 63141  1  0  0  0
 63142  1  0  0  0
 64143  1  0  0  0
 65144  1  0  0  0
 68 80  1  0  0  0
 71 78  1  0  0  0
 71 81  2  0  0  0
 71 82  1  0  0  0
 72 79  1  0  0  0
 72 81  1  0  0  0
 72 83  2  0  0  0
 73 82  2  0  0  0
 73 83  1  0  0  0
 73 85  1  0  0  0
 74 75  1  0  0  0
 74 77  1  0  0  0
 74145  1  0  0  0
 74146  1  0  0  0
 75 84  1  0  0  0
 75147  1  0  0  0
 75148  1  0  0  0
 76 77  1  0  0  0
 76 84  1  0  0  0
 76149  1  0  0  0
 76150  1  0  0  0
 77 85  1  0  0  0
 77151  1  0  0  0
 78152  1  0  0  0
 78153  1  0  0  0
 78154  1  0  0  0
 79 80  1  0  0  0
 79155  1  0  0  0
 79156  1  0  0  0
 80157  1  0  0  0
 80158  1  0  0  0
 85159  1  0  0  0
M  ISO  4   1 100  68 101  80 101  84 100
M  END
> <chiral flag>
0

> <version>
0

> <s_m_source_file>
/data/baiqing/PycharmProjects/Reinvent-master-3.2/result/LINK_invent/BTK/process_docking_weight1_custom_sum_contain_oxygen_bond_distance_aromatic_linkinvent_7_9_3/rearranged_h_0186.sdf

> <i_m_source_file_index>
54

> <r_mmod_Potential_Energy-OPLS-2005>
-596.828369140625

> <r_mmod_Stretch_Energy-OPLS-2005>
52.627986907959

> <r_mmod_Bend_Energy-OPLS-2005>
154.159393310547

> <r_mmod_Torsional_Energy-OPLS-2005>
284.448577880859

> <r_mmod_Improper_Torsional_Energy-OPLS-2005>
6.23516702651978

> <r_mmod_Van_der_Waal_Energy-OPLS-2005>
182.816436767578

> <r_mmod_Electrostatic_Energy-OPLS-2005>
-1075.43395996094

> <r_mmod_Solvation_Energy-OPLS-2005>
-238.884307861328

> <b_mmod_Minimization_Converged-OPLS-2005>
0

> <r_mmod_RMS_Derivative-OPLS-2005>
0.448379158973694

$$$$
55
                    3D
 Structure written by MMmdl.
158166  0  0  1  0            999 V2000
  -30.5852  -14.9790   20.4226 C   0  0  0  0  0  0
  -30.4260  -12.6115   19.5026 C   0  0  0  0  0  0
  -29.5268  -12.5436   18.2495 C   0  0  0  0  0  0
  -28.0536  -12.3342   18.6517 C   0  0  0  0  0  0
  -27.6251  -13.2562   19.8252 C   0  0  2  0  0  0
  -28.6677  -13.2971   20.9612 C   0  0  0  0  0  0
  -25.2402  -13.8189   20.5667 C   0  0  0  0  0  0
  -24.1738  -13.0406   20.9202 C   0  0  0  0  0  0
  -24.6371  -11.6909   20.8700 C   0  0  0  0  0  0
  -23.9062  -10.4276   21.0373 C   0  0  0  0  0  0
  -24.3618   -9.4201   21.9157 C   0  0  0  0  0  0
  -23.6298   -8.2222   22.0746 C   0  0  0  0  0  0
  -22.4270   -8.0252   21.3523 C   0  0  0  0  0  0
  -21.9891   -9.0230   20.4637 C   0  0  0  0  0  0
  -22.7222  -10.2105   20.3033 C   0  0  0  0  0  0
  -21.6850   -6.0712   22.5268 C   0  0  0  0  0  0
  -21.4024   -6.5617   23.8196 C   0  0  0  0  0  0
  -21.3681   -5.6774   24.9159 C   0  0  0  0  0  0
  -21.6046   -4.3039   24.7212 C   0  0  0  0  0  0
  -21.8826   -3.8125   23.4340 C   0  0  0  0  0  0
  -21.9201   -4.6938   22.3387 C   0  0  0  0  0  0
  -22.7760  -13.5202   21.1868 C   0  0  0  0  0  0
  -22.1671   -4.2128   21.0972 F   0  0  0  0  0  0
  -21.5633   -3.4535   25.7734 F   0  0  0  0  0  0
  -29.9351  -13.7367   20.3610 N   0  0  0  0  0  0
  -26.2849  -12.9474   20.3160 N   0  0  0  0  0  0
  -25.9306  -11.6582   20.5637 N   0  0  0  0  0  0
  -22.0401  -12.8221   22.0427 N   0  0  0  0  0  0
  -25.3942  -15.1911   20.4087 N   0  0  0  0  0  0
  -31.7855  -14.9520   20.1287 O   0  0  0  0  0  0
  -21.6632   -6.8843   21.4227 O   0  0  0  0  0  0
  -22.3457  -14.5520   20.6721 O   0  0  0  0  0  0
  -24.6441  -31.8432   23.1858 C   0  0  0  0  0  0
  -25.9192  -32.4697   23.8268 C   0  0  1  0  0  0
  -27.2228  -27.1259   20.1456 C   0  0  0  0  0  0
  -25.5937  -33.8510   24.2183 N   0  0  0  0  0  0
  -23.4483  -30.4599   21.5327 C   0  0  2  0  0  0
  -24.8981  -28.8827   20.1129 C   0  0  0  0  0  0
  -22.7571  -29.4536   22.4866 C   0  0  0  0  0  0
  -18.0302  -28.1403   22.8457 C   0  0  0  0  0  0
  -24.1495  -36.7250   23.2639 C   0  0  0  0  0  0
  -26.0055  -30.7106   21.3888 C   0  0  0  0  0  0
  -26.0780  -29.3225   20.7280 C   0  0  0  0  0  0
  -27.2407  -28.4616   20.7242 C   0  0  0  0  0  0
  -26.0144  -26.7894   19.4957 C   0  0  0  0  0  0
  -24.8809  -27.6300   19.4830 C   0  0  0  0  0  0
  -23.6750  -29.7865   20.1544 C   0  0  0  0  0  0
  -25.4133  -36.3031   24.0309 C   0  0  1  0  0  0
  -20.5918  -28.3727   23.1225 C   0  0  2  0  0  0
  -20.6804  -26.9432   22.5399 C   0  0  0  0  0  0
  -19.5780  -26.6383   21.5208 C   0  0  0  0  0  0
  -18.1952  -26.7942   22.1609 C   0  0  0  0  0  0
  -19.1557  -28.8886   23.2834 C   0  0  0  0  0  0
  -18.9481  -30.1481   23.8862 C   0  0  0  0  0  0
  -17.6481  -30.6600   24.0555 C   0  0  0  0  0  0
  -25.9076  -34.9411   23.5054 C   0  0  0  0  0  0
  -16.5372  -29.9090   23.6339 C   0  0  0  0  0  0
  -16.7290  -28.6511   23.0356 C   0  0  0  0  0  0
  -26.4506  -31.6579   25.0721 C   0  0  0  0  0  0
  -25.3675  -31.3781   26.1407 C   0  0  0  0  0  0
  -27.0379  -30.2965   24.6338 C   0  0  0  0  0  0
  -27.6024  -32.4364   25.7510 C   0  0  0  0  0  0
  -27.5583  -37.1784   24.8465 C   0  0  0  0  0  0
  -21.4269  -29.3048   22.3593 N   0  0  0  0  0  0
  -26.4295  -37.3745   23.9394 N   0  0  0  0  0  0
  -24.7189  -31.0274   22.0900 N   0  0  0  0  0  0
  -23.4207  -28.8088   23.3022 O   0  0  0  0  0  0
  -28.2792  -26.1395   20.2122 O   0  0  0  0  0  0
  -26.5678  -34.8902   22.4640 O   0  0  0  0  0  0
  -23.5547  -32.1329   23.7053 O   0  0  0  0  0  0
  -28.4737  -18.1868   21.2639 C   0  0  0  0  0  0
  -28.6336  -16.6212   21.1206 C   0  0  0  0  0  0
  -30.4629  -17.6847   20.1363 C   0  0  1  0  0  0
  -29.3275  -18.8834   20.1912 C   0  0  2  0  0  0
  -31.6649  -18.0612   21.0239 C   0  0  0  0  0  0
  -29.6851  -20.5501   20.3665 C   0  0  0  0  0  0
  -29.0659  -23.3011   20.3380 C   0  0  0  0  0  0
  -28.0185  -24.6035   20.0368 C   0  0  0  0  0  0
  -29.9334  -16.2681   20.5167 N   0  0  0  0  0  0
  -28.6124  -18.7317   18.9372 N   0  0  0  0  0  0
  -28.6665  -21.7575   20.1796 N   0  3  0  0  0  0
  -31.4693  -12.7274   19.2028 H   0  0  0  0  0  0
  -30.3868  -11.6681   20.0477 H   0  0  0  0  0  0
  -29.8602  -11.7443   17.5838 H   0  0  0  0  0  0
  -29.6240  -13.4722   17.6827 H   0  0  0  0  0  0
  -27.9289  -11.2889   18.9342 H   0  0  0  0  0  0
  -27.4027  -12.4932   17.7913 H   0  0  0  0  0  0
  -27.5805  -14.2559   19.3935 H   0  0  0  0  0  0
  -28.7632  -12.3140   21.4266 H   0  0  0  0  0  0
  -28.3524  -13.9699   21.7556 H   0  0  0  0  0  0
  -25.2759   -9.5716   22.4732 H   0  0  0  0  0  0
  -24.0013   -7.4645   22.7485 H   0  0  0  0  0  0
  -21.0799   -8.8752   19.8970 H   0  0  0  0  0  0
  -22.3662  -10.9639   19.6149 H   0  0  0  0  0  0
  -21.2009   -7.6122   23.9702 H   0  0  0  0  0  0
  -21.1508   -6.0485   25.9061 H   0  0  0  0  0  0
  -22.0590   -2.7587   23.2829 H   0  0  0  0  0  0
  -22.4027  -11.9941   22.4914 H   0  0  0  0  0  0
  -21.1010  -13.1250   22.2580 H   0  0  0  0  0  0
  -24.6099  -15.8271   20.5113 H   0  0  0  0  0  0
  -26.2272  -15.6423   20.0555 H   0  0  0  0  0  0
  -26.7251  -32.5293   23.0990 H   0  0  0  0  0  0
  -25.0054  -33.9647   25.0306 H   0  0  0  0  0  0
  -22.7499  -31.2858   21.3782 H   0  0  0  0  0  0
  -23.3772  -35.9569   23.3304 H   0  0  0  0  0  0
  -24.3562  -36.8887   22.2054 H   0  0  0  0  0  0
  -23.7257  -37.6440   23.6689 H   0  0  0  0  0  0
  -26.1726  -31.4648   20.6204 H   0  0  0  0  0  0
  -26.8714  -30.7539   22.0380 H   0  0  0  0  0  0
  -28.1416  -28.7958   21.2210 H   0  0  0  0  0  0
  -25.9114  -25.8327   19.0061 H   0  0  0  0  0  0
  -23.9797  -27.2865   18.9933 H   0  0  0  0  0  0
  -23.8109  -30.5604   19.3976 H   0  0  0  0  0  0
  -22.7892  -29.2281   19.8440 H   0  0  0  0  0  0
  -25.1326  -36.1861   25.0806 H   0  0  0  0  0  0
  -21.0000  -28.3336   24.1355 H   0  0  0  0  0  0
  -20.5719  -26.2340   23.3618 H   0  0  0  0  0  0
  -21.6673  -26.7463   22.1195 H   0  0  0  0  0  0
  -19.6951  -25.6285   21.1264 H   0  0  0  0  0  0
  -19.6727  -27.3169   20.6716 H   0  0  0  0  0  0
  -17.4227  -26.6671   21.4014 H   0  0  0  0  0  0
  -18.0354  -26.0106   22.9025 H   0  0  0  0  0  0
  -19.7960  -30.7302   24.2225 H   0  0  0  0  0  0
  -17.5038  -31.6280   24.5162 H   0  0  0  0  0  0
  -15.5368  -30.2987   23.7700 H   0  0  0  0  0  0
  -15.8685  -28.0825   22.7098 H   0  0  0  0  0  0
  -24.5826  -30.7180   25.7700 H   0  0  0  0  0  0
  -24.8904  -32.2978   26.4803 H   0  0  0  0  0  0
  -25.7929  -30.8941   27.0208 H   0  0  0  0  0  0
  -26.3005  -29.6685   24.1328 H   0  0  0  0  0  0
  -27.3944  -29.7276   25.4936 H   0  0  0  0  0  0
  -27.8937  -30.4185   23.9697 H   0  0  0  0  0  0
  -27.2590  -33.3667   26.2053 H   0  0  0  0  0  0
  -28.3847  -32.6939   25.0356 H   0  0  0  0  0  0
  -28.0689  -31.8532   26.5464 H   0  0  0  0  0  0
  -28.2591  -38.0085   24.7495 H   0  0  0  0  0  0
  -28.1084  -36.2612   24.6315 H   0  0  0  0  0  0
  -27.2283  -37.1458   25.8859 H   0  0  0  0  0  0
  -20.9482  -29.8718   21.6736 H   0  0  0  0  0  0
  -26.0166  -38.2810   24.1389 H   0  0  0  0  0  0
  -28.8536  -18.4796   22.2444 H   0  0  0  0  0  0
  -27.4293  -18.4980   21.2390 H   0  0  0  0  0  0
  -27.8594  -16.2582   20.4500 H   0  0  0  0  0  0
  -28.4966  -16.1410   22.0892 H   0  0  0  0  0  0
  -30.8508  -17.6093   19.1193 H   0  0  0  0  0  0
  -31.3715  -18.1496   22.0692 H   0  0  0  0  0  0
  -32.0966  -19.0140   20.7143 H   0  0  0  0  0  0
  -32.4644  -17.3256   20.9589 H   0  0  0  0  0  0
  -30.5123  -20.7615   19.6865 H   0  0  0  0  0  0
  -30.1173  -20.6732   21.3584 H   0  0  0  0  0  0
  -29.4315  -23.4160   21.3595 H   0  0  0  0  0  0
  -29.9442  -23.4604   19.7093 H   0  0  0  0  0  0
  -27.1186  -24.3976   20.6146 H   0  0  0  0  0  0
  -27.7181  -24.4903   18.9958 H   0  0  0  0  0  0
  -27.8152  -19.3509   18.9068 H   0  0  0  0  0  0
  -29.2144  -19.0302   18.1790 H   0  0  0  0  0  0
  -27.9051  -21.5789   20.8153 H   0  0  0  0  0  0
  -28.2870  -21.6452   19.2537 H   0  0  0  0  0  0
  1 25  1  0  0  0
  1 30  2  0  0  0
  1 79  1  0  0  0
  2  3  1  0  0  0
  2 25  1  0  0  0
  2 82  1  0  0  0
  2 83  1  0  0  0
  3  4  1  0  0  0
  3 84  1  0  0  0
  3 85  1  0  0  0
  4  5  1  0  0  0
  4 86  1  0  0  0
  4 87  1  0  0  0
  5  6  1  0  0  0
  5 26  1  0  0  0
  5 88  1  0  0  0
  6 25  1  0  0  0
  6 89  1  0  0  0
  6 90  1  0  0  0
  7  8  2  0  0  0
  7 26  1  0  0  0
  7 29  1  0  0  0
  8  9  1  0  0  0
  8 22  1  0  0  0
  9 10  1  0  0  0
  9 27  2  0  0  0
 10 11  2  0  0  0
 10 15  1  0  0  0
 11 12  1  0  0  0
 11 91  1  0  0  0
 12 13  2  0  0  0
 12 92  1  0  0  0
 13 14  1  0  0  0
 13 31  1  0  0  0
 14 15  2  0  0  0
 14 93  1  0  0  0
 15 94  1  0  0  0
 16 17  2  0  0  0
 16 21  1  0  0  0
 16 31  1  0  0  0
 17 18  1  0  0  0
 17 95  1  0  0  0
 18 19  2  0  0  0
 18 96  1  0  0  0
 19 20  1  0  0  0
 19 24  1  0  0  0
 20 21  2  0  0  0
 20 97  1  0  0  0
 21 23  1  0  0  0
 22 28  1  0  0  0
 22 32  2  0  0  0
 26 27  1  0  0  0
 28 98  1  0  0  0
 28 99  1  0  0  0
 29100  1  0  0  0
 29101  1  0  0  0
 33 34  1  0  0  0
 33 66  1  0  0  0
 33 70  2  0  0  0
 34 36  1  0  0  0
 34 59  1  0  0  0
 34102  1  0  0  0
 35 44  2  0  0  0
 35 45  1  0  0  0
 35 68  1  0  0  0
 36 56  1  0  0  0
 36103  1  0  0  0
 37 39  1  0  0  0
 37 47  1  0  0  0
 37 66  1  0  0  0
 37104  1  0  0  0
 38 43  2  0  0  0
 38 46  1  0  0  0
 38 47  1  0  0  0
 39 64  1  0  0  0
 39 67  2  0  0  0
 40 52  1  0  0  0
 40 53  2  0  0  0
 40 58  1  0  0  0
 41105  1  0  0  0
 41106  1  0  0  0
 41107  1  0  0  0
 41 48  1  0  0  0
 42 43  1  0  0  0
 42 66  1  0  0  0
 42108  1  0  0  0
 42109  1  0  0  0
 43 44  1  0  0  0
 44110  1  0  0  0
 45 46  2  0  0  0
 45111  1  0  0  0
 46112  1  0  0  0
 47113  1  0  0  0
 47114  1  0  0  0
 48 56  1  0  0  0
 48 65  1  0  0  0
 48115  1  0  0  0
 49 50  1  0  0  0
 49 53  1  0  0  0
 49 64  1  0  0  0
 49116  1  0  0  0
 50 51  1  0  0  0
 50117  1  0  0  0
 50118  1  0  0  0
 51 52  1  0  0  0
 51119  1  0  0  0
 51120  1  0  0  0
 52121  1  0  0  0
 52122  1  0  0  0
 53 54  1  0  0  0
 54 55  2  0  0  0
 54123  1  0  0  0
 55 57  1  0  0  0
 55124  1  0  0  0
 56 69  2  0  0  0
 57 58  2  0  0  0
 57125  1  0  0  0
 58126  1  0  0  0
 59 60  1  0  0  0
 59 61  1  0  0  0
 59 62  1  0  0  0
 60127  1  0  0  0
 60128  1  0  0  0
 60129  1  0  0  0
 61130  1  0  0  0
 61131  1  0  0  0
 61132  1  0  0  0
 62133  1  0  0  0
 62134  1  0  0  0
 62135  1  0  0  0
 63 65  1  0  0  0
 63136  1  0  0  0
 63137  1  0  0  0
 63138  1  0  0  0
 64139  1  0  0  0
 65140  1  0  0  0
 68 78  1  0  0  0
 71 72  1  0  0  0
 71 74  1  0  0  0
 71141  1  0  0  0
 71142  1  0  0  0
 72 79  1  0  0  0
 72143  1  0  0  0
 72144  1  0  0  0
 73 74  1  0  0  0
 73 75  1  0  0  0
 73 79  1  0  0  0
 73145  1  0  0  0
 74 76  1  0  0  0
 74 80  1  0  0  0
 75146  1  0  0  0
 75147  1  0  0  0
 75148  1  0  0  0
 76 81  1  0  0  0
 76149  1  0  0  0
 76150  1  0  0  0
 77 78  1  0  0  0
 77 81  1  0  0  0
 77151  1  0  0  0
 77152  1  0  0  0
 78153  1  0  0  0
 78154  1  0  0  0
 80155  1  0  0  0
 80156  1  0  0  0
 81157  1  0  0  0
 81158  1  0  0  0
M  CHG  1  81   1
M  ISO  4   1 100  68 101  78 101  79 100
M  END
> <chiral flag>
0

> <version>
0

> <s_m_source_file>
/data/baiqing/PycharmProjects/Reinvent-master-3.2/result/LINK_invent/BTK/process_docking_weight1_custom_sum_contain_oxygen_bond_distance_aromatic_linkinvent_7_9_3/rearranged_h_0186.sdf

> <i_m_source_file_index>
55

> <r_mmod_Potential_Energy-OPLS-2005>
466.010620117188

> <r_mmod_Stretch_Energy-OPLS-2005>
283.894256591797

> <r_mmod_Bend_Energy-OPLS-2005>
305.856811523438

> <r_mmod_Torsional_Energy-OPLS-2005>
341.026916503906

> <r_mmod_Improper_Torsional_Energy-OPLS-2005>
6.82059478759766

> <r_mmod_Van_der_Waal_Energy-OPLS-2005>
112.218559265137

> <r_mmod_Electrostatic_Energy-OPLS-2005>
-287.431854248047

> <r_mmod_Solvation_Energy-OPLS-2005>
-498.709838867188

> <b_mmod_Minimization_Converged-OPLS-2005>
0

> <r_mmod_RMS_Derivative-OPLS-2005>
3.68110179901123

$$$$
56
                    3D
 Structure written by MMmdl.
157166  0  0  1  0            999 V2000
  -30.6789  -14.5834   20.4840 C   0  0  0  0  0  0
  -30.4183  -12.3517   19.4574 C   0  0  0  0  0  0
  -29.5004  -12.4941   18.2245 C   0  0  0  0  0  0
  -28.0234  -12.3456   18.6355 C   0  0  0  0  0  0
  -27.6517  -13.2208   19.8629 C   0  0  2  0  0  0
  -28.6958  -13.0903   20.9967 C   0  0  0  0  0  0
  -25.2544  -13.8184   20.5687 C   0  0  0  0  0  0
  -24.1820  -13.0440   20.9190 C   0  0  0  0  0  0
  -24.6397  -11.6914   20.8744 C   0  0  0  0  0  0
  -23.9069  -10.4292   21.0405 C   0  0  0  0  0  0
  -24.3620   -9.4207   21.9182 C   0  0  0  0  0  0
  -23.6296   -8.2243   22.0755 C   0  0  0  0  0  0
  -22.4277   -8.0280   21.3548 C   0  0  0  0  0  0
  -21.9912   -9.0252   20.4648 C   0  0  0  0  0  0
  -22.7242  -10.2132   20.3054 C   0  0  0  0  0  0
  -21.6855   -6.0737   22.5280 C   0  0  0  0  0  0
  -21.4016   -6.5641   23.8213 C   0  0  0  0  0  0
  -21.3657   -5.6796   24.9176 C   0  0  0  0  0  0
  -21.6042   -4.3059   24.7229 C   0  0  0  0  0  0
  -21.8819   -3.8149   23.4352 C   0  0  0  0  0  0
  -21.9193   -4.6963   22.3406 C   0  0  0  0  0  0
  -22.7841  -13.5224   21.1852 C   0  0  0  0  0  0
  -22.1662   -4.2149   21.0984 F   0  0  0  0  0  0
  -21.5625   -3.4541   25.7742 F   0  0  0  0  0  0
  -30.0177  -13.3884   20.4288 N   0  0  0  0  0  0
  -26.2982  -12.9377   20.3329 N   0  0  0  0  0  0
  -25.9328  -11.6525   20.5771 N   0  0  0  0  0  0
  -22.0491  -12.8213   22.0410 N   0  0  0  0  0  0
  -25.4232  -15.1907   20.4092 N   0  0  0  0  0  0
  -31.8454  -14.6895   20.0996 O   0  0  0  0  0  0
  -21.6642   -6.8879   21.4242 O   0  0  0  0  0  0
  -22.3522  -14.5532   20.6705 O   0  0  0  0  0  0
  -24.6218  -31.8638   23.2074 C   0  0  0  0  0  0
  -25.9084  -32.4802   23.8385 C   0  0  1  0  0  0
  -27.2234  -27.3658   20.1126 C   0  0  0  0  0  0
  -25.5919  -33.8602   24.2309 N   0  0  0  0  0  0
  -23.4146  -30.4873   21.5485 C   0  0  2  0  0  0
  -24.8637  -28.9506   20.1102 C   0  0  0  0  0  0
  -22.7457  -29.4636   22.4958 C   0  0  0  0  0  0
  -18.0277  -28.1379   22.8488 C   0  0  0  0  0  0
  -24.1490  -36.7298   23.2639 C   0  0  0  0  0  0
  -25.9519  -30.8050   21.3775 C   0  0  0  0  0  0
  -26.0279  -29.4352   20.7233 C   0  0  0  0  0  0
  -27.2122  -28.6477   20.7293 C   0  0  0  0  0  0
  -26.0533  -26.9326   19.4585 C   0  0  0  0  0  0
  -24.8746  -27.6999   19.4725 C   0  0  0  0  0  0
  -23.6284  -29.8242   20.1622 C   0  0  0  0  0  0
  -25.4114  -36.3097   24.0335 C   0  0  1  0  0  0
  -20.5880  -28.3679   23.1294 C   0  0  2  0  0  0
  -20.6774  -26.9407   22.5410 C   0  0  0  0  0  0
  -19.5749  -26.6384   21.5212 C   0  0  0  0  0  0
  -18.1924  -26.7925   22.1621 C   0  0  0  0  0  0
  -19.1530  -28.8845   23.2885 C   0  0  0  0  0  0
  -18.9458  -30.1451   23.8901 C   0  0  0  0  0  0
  -17.6460  -30.6586   24.0563 C   0  0  0  0  0  0
  -25.9049  -34.9466   23.5117 C   0  0  0  0  0  0
  -16.5350  -29.9086   23.6333 C   0  0  0  0  0  0
  -16.7266  -28.6501   23.0356 C   0  0  0  0  0  0
  -26.4487  -31.6602   25.0738 C   0  0  0  0  0  0
  -25.3723  -31.3724   26.1465 C   0  0  0  0  0  0
  -27.0338  -30.3037   24.6166 C   0  0  0  0  0  0
  -27.6058  -32.4340   25.7490 C   0  0  0  0  0  0
  -27.5582  -37.1799   24.8463 C   0  0  0  0  0  0
  -21.4175  -29.3038   22.3696 N   0  0  0  0  0  0
  -26.4294  -37.3787   23.9411 N   0  0  0  0  0  0
  -24.6808  -31.0683   22.1014 N   0  0  0  0  0  0
  -23.4191  -28.8173   23.3025 O   0  0  0  0  0  0
  -28.3110  -26.4988   20.1272 O   0  0  0  0  0  0
  -26.5613  -34.8922   22.4681 O   0  0  0  0  0  0
  -23.5390  -32.1428   23.7419 O   0  0  0  0  0  0
  -29.3938  -19.5025   20.2013 C   0  0  0  0  0  0
  -29.7254  -18.2997   20.8834 C   0  0  0  0  0  0
  -28.9213  -20.5934   20.9640 C   0  0  0  0  0  0
  -29.1763  -19.3261   22.8544 C   0  0  0  0  0  0
  -27.2217  -24.6424   21.3505 C   0  0  0  0  0  0
  -28.6185  -24.0865   21.3698 C   0  0  2  0  0  0
  -28.3701  -25.6370   21.3005 C   0  0  1  0  0  0
  -29.0749  -19.2411   24.3618 C   0  0  0  0  0  0
  -30.2922  -17.0467   20.1766 C   0  0  0  0  0  0
  -29.0561  -23.0545   20.3006 C   0  0  0  0  0  0
  -29.6072  -18.2350   22.2227 N   0  0  0  0  0  0
  -28.8138  -20.4810   22.2927 N   0  0  0  0  0  0
  -28.3458  -21.7541   20.3981 N   0  0  0  0  0  0
  -29.9390  -15.6984   20.7122 N   0  0  0  0  0  0
  -31.4653  -12.4348   19.1606 H   0  0  0  0  0  0
  -30.3139  -11.3602   19.9006 H   0  0  0  0  0  0
  -29.7564  -11.7450   17.4741 H   0  0  0  0  0  0
  -29.6567  -13.4658   17.7529 H   0  0  0  0  0  0
  -27.8526  -11.2934   18.8664 H   0  0  0  0  0  0
  -27.3713  -12.5795   17.7930 H   0  0  0  0  0  0
  -27.6683  -14.2541   19.5157 H   0  0  0  0  0  0
  -28.6878  -12.0828   21.4146 H   0  0  0  0  0  0
  -28.4576  -13.7631   21.8222 H   0  0  0  0  0  0
  -25.2766   -9.5683   22.4756 H   0  0  0  0  0  0
  -24.0006   -7.4635   22.7475 H   0  0  0  0  0  0
  -21.0843   -8.8770   19.8955 H   0  0  0  0  0  0
  -22.3700  -10.9668   19.6162 H   0  0  0  0  0  0
  -21.2012   -7.6150   23.9718 H   0  0  0  0  0  0
  -21.1477   -6.0527   25.9080 H   0  0  0  0  0  0
  -22.0599   -2.7609   23.2853 H   0  0  0  0  0  0
  -22.4116  -11.9877   22.4795 H   0  0  0  0  0  0
  -21.1107  -13.1228   22.2623 H   0  0  0  0  0  0
  -24.6518  -15.8410   20.5120 H   0  0  0  0  0  0
  -26.2699  -15.6321   20.0742 H   0  0  0  0  0  0
  -26.7152  -32.5493   23.1140 H   0  0  0  0  0  0
  -25.0075  -33.9764   25.0457 H   0  0  0  0  0  0
  -22.7062  -31.3064   21.4077 H   0  0  0  0  0  0
  -23.3760  -35.9622   23.3305 H   0  0  0  0  0  0
  -24.3579  -36.8918   22.2052 H   0  0  0  0  0  0
  -23.7236  -37.6499   23.6659 H   0  0  0  0  0  0
  -26.0809  -31.5688   20.6093 H   0  0  0  0  0  0
  -26.8337  -30.8532   22.0051 H   0  0  0  0  0  0
  -28.1043  -29.0083   21.2226 H   0  0  0  0  0  0
  -26.0441  -25.9778   18.9531 H   0  0  0  0  0  0
  -23.9858  -27.3253   18.9835 H   0  0  0  0  0  0
  -23.7414  -30.6021   19.4063 H   0  0  0  0  0  0
  -22.7505  -29.2489   19.8618 H   0  0  0  0  0  0
  -25.1291  -36.1956   25.0828 H   0  0  0  0  0  0
  -20.9965  -28.3250   24.1417 H   0  0  0  0  0  0
  -20.5683  -26.2283   23.3603 H   0  0  0  0  0  0
  -21.6641  -26.7450   22.1196 H   0  0  0  0  0  0
  -19.6914  -25.6296   21.1235 H   0  0  0  0  0  0
  -19.6692  -27.3199   20.6746 H   0  0  0  0  0  0
  -17.4198  -26.6678   21.4014 H   0  0  0  0  0  0
  -18.0321  -26.0061   22.9010 H   0  0  0  0  0  0
  -19.7935  -30.7260   24.2272 H   0  0  0  0  0  0
  -17.5018  -31.6267   24.5161 H   0  0  0  0  0  0
  -15.5351  -30.2989   23.7660 H   0  0  0  0  0  0
  -15.8664  -28.0821   22.7078 H   0  0  0  0  0  0
  -24.5895  -30.7081   25.7788 H   0  0  0  0  0  0
  -24.8907  -32.2879   26.4911 H   0  0  0  0  0  0
  -25.8039  -30.8882   27.0230 H   0  0  0  0  0  0
  -26.2910  -29.6781   24.1202 H   0  0  0  0  0  0
  -27.4074  -29.7299   25.4657 H   0  0  0  0  0  0
  -27.8757  -30.4354   23.9365 H   0  0  0  0  0  0
  -27.2688  -33.3654   26.2052 H   0  0  0  0  0  0
  -28.3855  -32.6881   25.0296 H   0  0  0  0  0  0
  -28.0733  -31.8470   26.5406 H   0  0  0  0  0  0
  -28.2594  -38.0102   24.7539 H   0  0  0  0  0  0
  -28.1085  -36.2636   24.6258 H   0  0  0  0  0  0
  -27.2299  -37.1421   25.8864 H   0  0  0  0  0  0
  -20.9351  -29.8756   21.6905 H   0  0  0  0  0  0
  -26.0180  -38.2861   24.1423 H   0  0  0  0  0  0
  -29.4620  -19.5654   19.1239 H   0  0  0  0  0  0
  -26.6486  -24.5883   22.2738 H   0  0  0  0  0  0
  -26.6517  -24.4363   20.4486 H   0  0  0  0  0  0
  -28.9583  -23.7659   22.3537 H   0  0  0  0  0  0
  -28.5709  -26.2151   22.2014 H   0  0  0  0  0  0
  -29.8887  -18.6436   24.7729 H   0  0  0  0  0  0
  -28.1310  -18.7804   24.6518 H   0  0  0  0  0  0
  -29.1270  -20.2306   24.8166 H   0  0  0  0  0  0
  -31.3763  -17.1684   20.1649 H   0  0  0  0  0  0
  -29.9825  -17.0763   19.1313 H   0  0  0  0  0  0
  -30.1324  -22.8958   20.3837 H   0  0  0  0  0  0
  -28.8769  -23.4788   19.3118 H   0  0  0  0  0  0
  -27.4640  -21.9230   20.8690 H   0  0  0  0  0  0
  -28.9999  -15.5914   21.0604 H   0  0  0  0  0  0
  1 25  1  0  0  0
  1 30  2  0  0  0
  1 84  1  0  0  0
  2  3  1  0  0  0
  2 25  1  0  0  0
  2 85  1  0  0  0
  2 86  1  0  0  0
  3  4  1  0  0  0
  3 87  1  0  0  0
  3 88  1  0  0  0
  4  5  1  0  0  0
  4 89  1  0  0  0
  4 90  1  0  0  0
  5  6  1  0  0  0
  5 26  1  0  0  0
  5 91  1  0  0  0
  6 25  1  0  0  0
  6 92  1  0  0  0
  6 93  1  0  0  0
  7  8  2  0  0  0
  7 26  1  0  0  0
  7 29  1  0  0  0
  8  9  1  0  0  0
  8 22  1  0  0  0
  9 10  1  0  0  0
  9 27  2  0  0  0
 10 11  2  0  0  0
 10 15  1  0  0  0
 11 12  1  0  0  0
 11 94  1  0  0  0
 12 13  2  0  0  0
 12 95  1  0  0  0
 13 14  1  0  0  0
 13 31  1  0  0  0
 14 15  2  0  0  0
 14 96  1  0  0  0
 15 97  1  0  0  0
 16 17  2  0  0  0
 16 21  1  0  0  0
 16 31  1  0  0  0
 17 18  1  0  0  0
 17 98  1  0  0  0
 18 19  2  0  0  0
 18 99  1  0  0  0
 19 20  1  0  0  0
 19 24  1  0  0  0
 20 21  2  0  0  0
 20100  1  0  0  0
 21 23  1  0  0  0
 22 28  1  0  0  0
 22 32  2  0  0  0
 26 27  1  0  0  0
 28101  1  0  0  0
 28102  1  0  0  0
 29103  1  0  0  0
 29104  1  0  0  0
 33 34  1  0  0  0
 33 66  1  0  0  0
 33 70  2  0  0  0
 34 36  1  0  0  0
 34 59  1  0  0  0
 34105  1  0  0  0
 35 44  2  0  0  0
 35 45  1  0  0  0
 35 68  1  0  0  0
 36 56  1  0  0  0
 36106  1  0  0  0
 37 39  1  0  0  0
 37 47  1  0  0  0
 37 66  1  0  0  0
 37107  1  0  0  0
 38 43  2  0  0  0
 38 46  1  0  0  0
 38 47  1  0  0  0
 39 64  1  0  0  0
 39 67  2  0  0  0
 40 52  1  0  0  0
 40 53  2  0  0  0
 40 58  1  0  0  0
 41108  1  0  0  0
 41109  1  0  0  0
 41110  1  0  0  0
 41 48  1  0  0  0
 42 43  1  0  0  0
 42 66  1  0  0  0
 42111  1  0  0  0
 42112  1  0  0  0
 43 44  1  0  0  0
 44113  1  0  0  0
 45 46  2  0  0  0
 45114  1  0  0  0
 46115  1  0  0  0
 47116  1  0  0  0
 47117  1  0  0  0
 48 56  1  0  0  0
 48 65  1  0  0  0
 48118  1  0  0  0
 49 50  1  0  0  0
 49 53  1  0  0  0
 49 64  1  0  0  0
 49119  1  0  0  0
 50 51  1  0  0  0
 50120  1  0  0  0
 50121  1  0  0  0
 51 52  1  0  0  0
 51122  1  0  0  0
 51123  1  0  0  0
 52124  1  0  0  0
 52125  1  0  0  0
 53 54  1  0  0  0
 54 55  2  0  0  0
 54126  1  0  0  0
 55 57  1  0  0  0
 55127  1  0  0  0
 56 69  2  0  0  0
 57 58  2  0  0  0
 57128  1  0  0  0
 58129  1  0  0  0
 59 60  1  0  0  0
 59 61  1  0  0  0
 59 62  1  0  0  0
 60130  1  0  0  0
 60131  1  0  0  0
 60132  1  0  0  0
 61133  1  0  0  0
 61134  1  0  0  0
 61135  1  0  0  0
 62136  1  0  0  0
 62137  1  0  0  0
 62138  1  0  0  0
 63 65  1  0  0  0
 63139  1  0  0  0
 63140  1  0  0  0
 63141  1  0  0  0
 64142  1  0  0  0
 65143  1  0  0  0
 68 77  1  0  0  0
 71 72  2  0  0  0
 71 73  1  0  0  0
 71144  1  0  0  0
 72 79  1  0  0  0
 72 81  1  0  0  0
 73 82  2  0  0  0
 73 83  1  0  0  0
 74 78  1  0  0  0
 74 81  2  0  0  0
 74 82  1  0  0  0
 75 76  1  0  0  0
 75 77  1  0  0  0
 75145  1  0  0  0
 75146  1  0  0  0
 76 77  1  0  0  0
 76 80  1  0  0  0
 76147  1  0  0  0
 77148  1  0  0  0
 78149  1  0  0  0
 78150  1  0  0  0
 78151  1  0  0  0
 79 84  1  0  0  0
 79152  1  0  0  0
 79153  1  0  0  0
 80 83  1  0  0  0
 80154  1  0  0  0
 80155  1  0  0  0
 83156  1  0  0  0
 84157  1  0  0  0
M  ISO  4   1 100  68 101  77 101  84 100
M  END
> <chiral flag>
0

> <version>
0

> <s_m_source_file>
/data/baiqing/PycharmProjects/Reinvent-master-3.2/result/LINK_invent/BTK/process_docking_weight1_custom_sum_contain_oxygen_bond_distance_aromatic_linkinvent_7_9_3/rearranged_h_0186.sdf

> <i_m_source_file_index>
56

> <r_mmod_Potential_Energy-OPLS-2005>
-596.620849609375

> <r_mmod_Stretch_Energy-OPLS-2005>
52.4757843017578

> <r_mmod_Bend_Energy-OPLS-2005>
147.880035400391

> <r_mmod_Torsional_Energy-OPLS-2005>
304.964874267578

> <r_mmod_Improper_Torsional_Energy-OPLS-2005>
13.6218576431274

> <r_mmod_Van_der_Waal_Energy-OPLS-2005>
148.504547119141

> <r_mmod_Electrostatic_Energy-OPLS-2005>
-1064.50378417969

> <r_mmod_Solvation_Energy-OPLS-2005>
-235.872222900391

> <b_mmod_Minimization_Converged-OPLS-2005>
0

> <r_mmod_RMS_Derivative-OPLS-2005>
0.690881252288818

$$$$
57
                    3D
 Structure written by MMmdl.
152161  0  0  1  0            999 V2000
  -30.4734  -15.2632   20.3951 C   0  0  0  0  0  0
  -30.4478  -12.8136   19.5232 C   0  0  0  0  0  0
  -29.5302  -12.6017   18.2898 C   0  0  0  0  0  0
  -28.0765  -12.3255   18.7144 C   0  0  0  0  0  0
  -27.6226  -13.2683   19.8569 C   0  0  2  0  0  0
  -28.6831  -13.3527   20.9854 C   0  0  0  0  0  0
  -25.2180  -13.8099   20.5528 C   0  0  0  0  0  0
  -24.1615  -13.0292   20.9153 C   0  0  0  0  0  0
  -24.6380  -11.6844   20.8784 C   0  0  0  0  0  0
  -23.9096  -10.4218   21.0419 C   0  0  0  0  0  0
  -24.3635   -9.4146   21.9204 C   0  0  0  0  0  0
  -23.6292   -8.2196   22.0765 C   0  0  0  0  0  0
  -22.4275   -8.0251   21.3547 C   0  0  0  0  0  0
  -21.9923   -9.0223   20.4643 C   0  0  0  0  0  0
  -22.7272  -10.2084   20.3055 C   0  0  0  0  0  0
  -21.6842   -6.0725   22.5282 C   0  0  0  0  0  0
  -21.4006   -6.5632   23.8214 C   0  0  0  0  0  0
  -21.3655   -5.6787   24.9176 C   0  0  0  0  0  0
  -21.6044   -4.3050   24.7228 C   0  0  0  0  0  0
  -21.8820   -3.8141   23.4349 C   0  0  0  0  0  0
  -21.9190   -4.6955   22.3405 C   0  0  0  0  0  0
  -22.7643  -13.5055   21.1846 C   0  0  0  0  0  0
  -22.1662   -4.2143   21.0983 F   0  0  0  0  0  0
  -21.5628   -3.4535   25.7741 F   0  0  0  0  0  0
  -29.8982  -13.9427   20.3749 N   0  0  0  0  0  0
  -26.2832  -12.9489   20.3413 N   0  0  0  0  0  0
  -25.9365  -11.6589   20.5915 N   0  0  0  0  0  0
  -22.0351  -12.8066   22.0460 N   0  0  0  0  0  0
  -25.3376  -15.1769   20.3613 N   0  0  0  0  0  0
  -31.6703  -15.2245   20.0718 O   0  0  0  0  0  0
  -21.6623   -6.8864   21.4245 O   0  0  0  0  0  0
  -22.3315  -14.5386   20.6748 O   0  0  0  0  0  0
  -24.6602  -31.8270   23.1740 C   0  0  0  0  0  0
  -25.9296  -32.4608   23.8193 C   0  0  1  0  0  0
  -27.2285  -26.9650   20.1770 C   0  0  0  0  0  0
  -25.5975  -33.8422   24.2097 N   0  0  0  0  0  0
  -23.4741  -30.4398   21.5224 C   0  0  2  0  0  0
  -24.9303  -28.8361   20.1119 C   0  0  0  0  0  0
  -22.7658  -29.4456   22.4792 C   0  0  0  0  0  0
  -18.0320  -28.1411   22.8466 C   0  0  0  0  0  0
  -24.1492  -36.7214   23.2646 C   0  0  0  0  0  0
  -26.0421  -30.6454   21.4004 C   0  0  0  0  0  0
  -26.1132  -29.2392   20.7441 C   0  0  0  0  0  0
  -27.2569  -28.3242   20.7547 C   0  0  0  0  0  0
  -26.0158  -26.7109   19.4934 C   0  0  0  0  0  0
  -24.9051  -27.5908   19.4668 C   0  0  0  0  0  0
  -23.7133  -29.7582   20.1476 C   0  0  0  0  0  0
  -25.4132  -36.2979   24.0301 C   0  0  1  0  0  0
  -20.5944  -28.3754   23.1195 C   0  0  2  0  0  0
  -20.6799  -26.9437   22.5404 C   0  0  0  0  0  0
  -19.5772  -26.6380   21.5216 C   0  0  0  0  0  0
  -18.1953  -26.7945   22.1622 C   0  0  0  0  0  0
  -19.1581  -28.8903   23.2817 C   0  0  0  0  0  0
  -18.9493  -30.1493   23.8852 C   0  0  0  0  0  0
  -17.6487  -30.6601   24.0556 C   0  0  0  0  0  0
  -25.9096  -34.9360   23.5018 C   0  0  0  0  0  0
  -16.5377  -29.9088   23.6345 C   0  0  0  0  0  0
  -16.7301  -28.6509   23.0361 C   0  0  0  0  0  0
  -26.4559  -31.6543   25.0709 C   0  0  0  0  0  0
  -25.3691  -31.3784   26.1368 C   0  0  0  0  0  0
  -27.0454  -30.2914   24.6422 C   0  0  0  0  0  0
  -27.6054  -32.4349   25.7508 C   0  0  0  0  0  0
  -27.5569  -37.1765   24.8467 C   0  0  0  0  0  0
  -21.4329  -29.3047   22.3545 N   0  0  0  0  0  0
  -26.4279  -37.3712   23.9408 N   0  0  0  0  0  0
  -24.7465  -30.9963   22.0861 N   0  0  0  0  0  0
  -23.4217  -28.8017   23.3019 O   0  0  0  0  0  0
  -28.2276  -25.8648   20.2648 O   0  0  0  0  0  0
  -26.5701  -34.8888   22.4610 O   0  0  0  0  0  0
  -23.5678  -32.1225   23.6850 O   0  0  0  0  0  0
  -28.0506  -21.5910   20.9739 C   0  0  0  0  0  0
  -30.2169  -20.8786   19.5584 C   0  0  0  0  0  0
  -29.6680  -19.6998   20.2350 C   0  0  0  0  0  0
  -28.5231  -20.1785   20.9752 C   0  0  0  0  0  0
  -28.6395  -22.7401   20.2752 C   0  0  0  0  0  0
  -28.6803  -16.8023   21.2725 C   0  0  0  0  0  0
  -30.3430  -18.1034   20.1498 C   0  0  0  0  0  0
  -28.5371  -18.0237   22.2224 C   0  0  0  0  0  0
  -27.8722  -24.2889   20.0364 C   0  0  0  0  0  0
  -29.7306  -22.2186   19.5843 N   0  3  0  0  0  0
  -27.8238  -19.2129   21.7204 N   0  0  0  0  0  0
  -29.8343  -16.6090   20.5930 N   0  0  0  0  0  0
  -27.7096  -16.0681   21.1988 O   0  0  0  0  0  0
  -31.4592  -13.0182   19.1702 H   0  0  0  0  0  0
  -30.5429  -11.8903   20.0972 H   0  0  0  0  0  0
  -29.9035  -11.7836   17.6724 H   0  0  0  0  0  0
  -29.5594  -13.4949   17.6642 H   0  0  0  0  0  0
  -28.0211  -11.2901   19.0530 H   0  0  0  0  0  0
  -27.4050  -12.4049   17.8587 H   0  0  0  0  0  0
  -27.5534  -14.2539   19.3965 H   0  0  0  0  0  0
  -28.8730  -12.3591   21.3943 H   0  0  0  0  0  0
  -28.3467  -13.9180   21.8502 H   0  0  0  0  0  0
  -25.2771   -9.5620   22.4791 H   0  0  0  0  0  0
  -23.9983   -7.4585   22.7491 H   0  0  0  0  0  0
  -21.0854   -8.8755   19.8946 H   0  0  0  0  0  0
  -22.3745  -10.9628   19.6161 H   0  0  0  0  0  0
  -21.1997   -7.6140   23.9716 H   0  0  0  0  0  0
  -21.1476   -6.0516   25.9079 H   0  0  0  0  0  0
  -22.0605   -2.7604   23.2851 H   0  0  0  0  0  0
  -22.3992  -11.9725   22.4821 H   0  0  0  0  0  0
  -21.0984  -13.1095   22.2726 H   0  0  0  0  0  0
  -24.5832  -15.7875   20.6514 H   0  0  0  0  0  0
  -26.2610  -15.5845   20.5431 H   0  0  0  0  0  0
  -26.7364  -32.5160   23.0910 H   0  0  0  0  0  0
  -25.0084  -33.9507   25.0221 H   0  0  0  0  0  0
  -22.7857  -31.2705   21.3536 H   0  0  0  0  0  0
  -23.3764  -35.9535   23.3287 H   0  0  0  0  0  0
  -24.3567  -36.8881   22.2065 H   0  0  0  0  0  0
  -23.7240  -37.6393   23.6715 H   0  0  0  0  0  0
  -26.2184  -31.3890   20.6221 H   0  0  0  0  0  0
  -26.9034  -30.7015   22.0540 H   0  0  0  0  0  0
  -28.1496  -28.6301   21.2818 H   0  0  0  0  0  0
  -25.8829  -25.7634   18.9939 H   0  0  0  0  0  0
  -24.0073  -27.2768   18.9522 H   0  0  0  0  0  0
  -23.8649  -30.5281   19.3903 H   0  0  0  0  0  0
  -22.8246  -29.2099   19.8303 H   0  0  0  0  0  0
  -25.1329  -36.1779   25.0792 H   0  0  0  0  0  0
  -21.0030  -28.3358   24.1319 H   0  0  0  0  0  0
  -20.5689  -26.2368   23.3640 H   0  0  0  0  0  0
  -21.6660  -26.7421   22.1205 H   0  0  0  0  0  0
  -19.6934  -25.6280   21.1274 H   0  0  0  0  0  0
  -19.6714  -27.3165   20.6727 H   0  0  0  0  0  0
  -17.4223  -26.6689   21.4024 H   0  0  0  0  0  0
  -18.0345  -26.0100   22.9031 H   0  0  0  0  0  0
  -19.7968  -30.7322   24.2201 H   0  0  0  0  0  0
  -17.5038  -31.6276   24.5166 H   0  0  0  0  0  0
  -15.5374  -30.2974   23.7700 H   0  0  0  0  0  0
  -15.8700  -28.0812   22.7104 H   0  0  0  0  0  0
  -24.5889  -30.7115   25.7680 H   0  0  0  0  0  0
  -24.8861  -32.2981   26.4678 H   0  0  0  0  0  0
  -25.7929  -30.9031   27.0223 H   0  0  0  0  0  0
  -26.3119  -29.6593   24.1404 H   0  0  0  0  0  0
  -27.3972  -29.7272   25.5070 H   0  0  0  0  0  0
  -27.9064  -30.4105   23.9842 H   0  0  0  0  0  0
  -27.2627  -33.3694   26.1963 H   0  0  0  0  0  0
  -28.3930  -32.6839   25.0383 H   0  0  0  0  0  0
  -28.0650  -31.8556   26.5527 H   0  0  0  0  0  0
  -28.2572  -38.0072   24.7510 H   0  0  0  0  0  0
  -28.1077  -36.2598   24.6302 H   0  0  0  0  0  0
  -27.2282  -37.1418   25.8869 H   0  0  0  0  0  0
  -20.9578  -29.8737   21.6676 H   0  0  0  0  0  0
  -26.0129  -38.2771   24.1416 H   0  0  0  0  0  0
  -27.1462  -21.8022   21.5237 H   0  0  0  0  0  0
  -31.0899  -20.7690   18.9308 H   0  0  0  0  0  0
  -31.3101  -18.2055   20.6430 H   0  0  0  0  0  0
  -30.5990  -17.9858   19.0966 H   0  0  0  0  0  0
  -29.5104  -18.3014   22.6317 H   0  0  0  0  0  0
  -27.9796  -17.6725   23.0917 H   0  0  0  0  0  0
  -26.9270  -24.1682   20.5661 H   0  0  0  0  0  0
  -27.5940  -24.2448   18.9837 H   0  0  0  0  0  0
  -30.2326  -22.8836   18.9911 H   0  0  0  0  0  0
  -27.0086  -19.5106   22.2433 H   0  0  0  0  0  0
  1 25  1  0  0  0
  1 30  2  0  0  0
  1 82  1  0  0  0
  2  3  1  0  0  0
  2 25  1  0  0  0
  2 84  1  0  0  0
  2 85  1  0  0  0
  3  4  1  0  0  0
  3 86  1  0  0  0
  3 87  1  0  0  0
  4  5  1  0  0  0
  4 88  1  0  0  0
  4 89  1  0  0  0
  5  6  1  0  0  0
  5 26  1  0  0  0
  5 90  1  0  0  0
  6 25  1  0  0  0
  6 91  1  0  0  0
  6 92  1  0  0  0
  7  8  2  0  0  0
  7 26  1  0  0  0
  7 29  1  0  0  0
  8  9  1  0  0  0
  8 22  1  0  0  0
  9 10  1  0  0  0
  9 27  2  0  0  0
 10 11  2  0  0  0
 10 15  1  0  0  0
 11 12  1  0  0  0
 11 93  1  0  0  0
 12 13  2  0  0  0
 12 94  1  0  0  0
 13 14  1  0  0  0
 13 31  1  0  0  0
 14 15  2  0  0  0
 14 95  1  0  0  0
 15 96  1  0  0  0
 16 17  2  0  0  0
 16 21  1  0  0  0
 16 31  1  0  0  0
 17 18  1  0  0  0
 17 97  1  0  0  0
 18 19  2  0  0  0
 18 98  1  0  0  0
 19 20  1  0  0  0
 19 24  1  0  0  0
 20 21  2  0  0  0
 20 99  1  0  0  0
 21 23  1  0  0  0
 22 28  1  0  0  0
 22 32  2  0  0  0
 26 27  1  0  0  0
 28100  1  0  0  0
 28101  1  0  0  0
 29102  1  0  0  0
 29103  1  0  0  0
 33 34  1  0  0  0
 33 66  1  0  0  0
 33 70  2  0  0  0
 34 36  1  0  0  0
 34 59  1  0  0  0
 34104  1  0  0  0
 35 44  2  0  0  0
 35 45  1  0  0  0
 35 68  1  0  0  0
 36 56  1  0  0  0
 36105  1  0  0  0
 37 39  1  0  0  0
 37 47  1  0  0  0
 37 66  1  0  0  0
 37106  1  0  0  0
 38 43  2  0  0  0
 38 46  1  0  0  0
 38 47  1  0  0  0
 39 64  1  0  0  0
 39 67  2  0  0  0
 40 52  1  0  0  0
 40 53  2  0  0  0
 40 58  1  0  0  0
 41107  1  0  0  0
 41108  1  0  0  0
 41109  1  0  0  0
 41 48  1  0  0  0
 42 43  1  0  0  0
 42 66  1  0  0  0
 42110  1  0  0  0
 42111  1  0  0  0
 43 44  1  0  0  0
 44112  1  0  0  0
 45 46  2  0  0  0
 45113  1  0  0  0
 46114  1  0  0  0
 47115  1  0  0  0
 47116  1  0  0  0
 48 56  1  0  0  0
 48 65  1  0  0  0
 48117  1  0  0  0
 49 50  1  0  0  0
 49 53  1  0  0  0
 49 64  1  0  0  0
 49118  1  0  0  0
 50 51  1  0  0  0
 50119  1  0  0  0
 50120  1  0  0  0
 51 52  1  0  0  0
 51121  1  0  0  0
 51122  1  0  0  0
 52123  1  0  0  0
 52124  1  0  0  0
 53 54  1  0  0  0
 54 55  2  0  0  0
 54125  1  0  0  0
 55 57  1  0  0  0
 55126  1  0  0  0
 56 69  2  0  0  0
 57 58  2  0  0  0
 57127  1  0  0  0
 58128  1  0  0  0
 59 60  1  0  0  0
 59 61  1  0  0  0
 59 62  1  0  0  0
 60129  1  0  0  0
 60130  1  0  0  0
 60131  1  0  0  0
 61132  1  0  0  0
 61133  1  0  0  0
 61134  1  0  0  0
 62135  1  0  0  0
 62136  1  0  0  0
 62137  1  0  0  0
 63 65  1  0  0  0
 63138  1  0  0  0
 63139  1  0  0  0
 63140  1  0  0  0
 64141  1  0  0  0
 65142  1  0  0  0
 68 79  1  0  0  0
 71 74  2  0  0  0
 71 75  1  0  0  0
 71143  1  0  0  0
 72 73  2  0  0  0
 72 80  1  0  0  0
 72144  1  0  0  0
 73 74  1  0  0  0
 73 77  1  0  0  0
 74 81  1  0  0  0
 75 79  1  0  0  0
 75 80  2  0  0  0
 76 78  1  0  0  0
 76 82  1  0  0  0
 76 83  2  0  0  0
 77 82  1  0  0  0
 77145  1  0  0  0
 77146  1  0  0  0
 78 81  1  0  0  0
 78147  1  0  0  0
 78148  1  0  0  0
 79149  1  0  0  0
 79150  1  0  0  0
 80151  1  0  0  0
 81152  1  0  0  0
M  CHG  1  80   1
M  ISO  4   1 100  68 101  79 101  82 100
M  END
> <chiral flag>
0

> <version>
0

> <s_m_source_file>
/data/baiqing/PycharmProjects/Reinvent-master-3.2/result/LINK_invent/BTK/process_docking_weight1_custom_sum_contain_oxygen_bond_distance_aromatic_linkinvent_7_9_3/rearranged_h_0186.sdf

> <i_m_source_file_index>
57

> <r_mmod_Potential_Energy-OPLS-2005>
1066.25964355469

> <r_mmod_Stretch_Energy-OPLS-2005>
491.370025634766

> <r_mmod_Bend_Energy-OPLS-2005>
445.959136962891

> <r_mmod_Torsional_Energy-OPLS-2005>
258.076965332031

> <r_mmod_Improper_Torsional_Energy-OPLS-2005>
10.5428953170776

> <r_mmod_Van_der_Waal_Energy-OPLS-2005>
167.858352661133

> <r_mmod_Electrostatic_Energy-OPLS-2005>
-285.830352783203

> <r_mmod_Solvation_Energy-OPLS-2005>
-438.218841552734

> <b_mmod_Minimization_Converged-OPLS-2005>
0

> <r_mmod_RMS_Derivative-OPLS-2005>
0.392726719379425

$$$$
58
                    3D
 Structure written by MMmdl.
154163  0  0  1  0            999 V2000
  -30.4442  -15.2528   20.3939 C   0  0  0  0  0  0
  -30.4377  -12.8088   19.5046 C   0  0  0  0  0  0
  -29.5291  -12.5695   18.2740 C   0  0  0  0  0  0
  -28.0776  -12.2981   18.7074 C   0  0  0  0  0  0
  -27.6094  -13.2722   19.8173 C   0  0  2  0  0  0
  -28.6482  -13.4418   20.9435 C   0  0  0  0  0  0
  -25.2401  -13.8243   20.5754 C   0  0  0  0  0  0
  -24.1746  -13.0441   20.9266 C   0  0  0  0  0  0
  -24.6393  -11.6933   20.8763 C   0  0  0  0  0  0
  -23.9087  -10.4292   21.0403 C   0  0  0  0  0  0
  -24.3630   -9.4207   21.9186 C   0  0  0  0  0  0
  -23.6302   -8.2241   22.0753 C   0  0  0  0  0  0
  -22.4283   -8.0280   21.3542 C   0  0  0  0  0  0
  -21.9925   -9.0255   20.4645 C   0  0  0  0  0  0
  -22.7254  -10.2135   20.3055 C   0  0  0  0  0  0
  -21.6855   -6.0735   22.5278 C   0  0  0  0  0  0
  -21.4016   -6.5641   23.8213 C   0  0  0  0  0  0
  -21.3664   -5.6791   24.9177 C   0  0  0  0  0  0
  -21.6047   -4.3054   24.7224 C   0  0  0  0  0  0
  -21.8821   -3.8146   23.4345 C   0  0  0  0  0  0
  -21.9198   -4.6964   22.3404 C   0  0  0  0  0  0
  -22.7762  -13.5201   21.1911 C   0  0  0  0  0  0
  -22.1659   -4.2148   21.0978 F   0  0  0  0  0  0
  -21.5633   -3.4540   25.7737 F   0  0  0  0  0  0
  -29.8686  -13.9549   20.3009 N   0  0  0  0  0  0
  -26.2812  -12.9507   20.3211 N   0  0  0  0  0  0
  -25.9328  -11.6616   20.5714 N   0  0  0  0  0  0
  -22.0413  -12.8182   22.0460 N   0  0  0  0  0  0
  -25.4079  -15.1971   20.4186 N   0  0  0  0  0  0
  -31.6738  -15.2361   20.2319 O   0  0  0  0  0  0
  -21.6644   -6.8879   21.4239 O   0  0  0  0  0  0
  -22.3446  -14.5501   20.6749 O   0  0  0  0  0  0
  -24.6624  -31.8243   23.1708 C   0  0  0  0  0  0
  -25.9310  -32.4594   23.8171 C   0  0  1  0  0  0
  -27.2159  -26.9314   20.1929 C   0  0  0  0  0  0
  -25.5987  -33.8409   24.2074 N   0  0  0  0  0  0
  -23.4762  -30.4352   21.5207 C   0  0  2  0  0  0
  -24.9275  -28.8188   20.1202 C   0  0  0  0  0  0
  -22.7664  -29.4444   22.4800 C   0  0  0  0  0  0
  -18.0323  -28.1406   22.8471 C   0  0  0  0  0  0
  -24.1494  -36.7208   23.2646 C   0  0  0  0  0  0
  -26.0448  -30.6332   21.3986 C   0  0  0  0  0  0
  -26.1131  -29.2212   20.7490 C   0  0  0  0  0  0
  -27.2551  -28.3011   20.7542 C   0  0  0  0  0  0
  -25.9990  -26.6772   19.5221 C   0  0  0  0  0  0
  -24.8949  -27.5664   19.4867 C   0  0  0  0  0  0
  -23.7156  -29.7483   20.1488 C   0  0  0  0  0  0
  -25.4137  -36.2967   24.0295 C   0  0  1  0  0  0
  -20.5950  -28.3745   23.1198 C   0  0  2  0  0  0
  -20.6804  -26.9429   22.5403 C   0  0  0  0  0  0
  -19.5774  -26.6372   21.5219 C   0  0  0  0  0  0
  -18.1955  -26.7941   22.1624 C   0  0  0  0  0  0
  -19.1586  -28.8898   23.2819 C   0  0  0  0  0  0
  -18.9494  -30.1494   23.8841 C   0  0  0  0  0  0
  -17.6486  -30.6594   24.0555 C   0  0  0  0  0  0
  -25.9100  -34.9353   23.4999 C   0  0  0  0  0  0
  -16.5376  -29.9079   23.6348 C   0  0  0  0  0  0
  -16.7305  -28.6505   23.0360 C   0  0  0  0  0  0
  -26.4565  -31.6542   25.0699 C   0  0  0  0  0  0
  -25.3696  -31.3798   26.1359 C   0  0  0  0  0  0
  -27.0464  -30.2912   24.6427 C   0  0  0  0  0  0
  -27.6052  -32.4354   25.7507 C   0  0  0  0  0  0
  -27.5564  -37.1762   24.8465 C   0  0  0  0  0  0
  -21.4337  -29.3039   22.3551 N   0  0  0  0  0  0
  -26.4276  -37.3706   23.9407 N   0  0  0  0  0  0
  -24.7492  -30.9909   22.0840 N   0  0  0  0  0  0
  -23.4217  -28.8011   23.3035 O   0  0  0  0  0  0
  -28.2386  -25.8465   20.1916 O   0  0  0  0  0  0
  -26.5699  -34.8887   22.4588 O   0  0  0  0  0  0
  -23.5696  -32.1207   23.6807 O   0  0  0  0  0  0
  -30.3724  -19.7207   19.0738 C   0  0  0  0  0  0
  -30.8864  -18.3691   19.5899 C   0  0  0  0  0  0
  -28.7477  -17.0885   21.1478 C   0  0  0  0  0  0
  -29.1362  -19.6767   19.9618 C   0  0  1  0  0  0
  -29.7676  -18.1532   20.6248 C   0  0  2  0  0  0
  -28.1700  -24.2466   22.0486 C   0  0  0  0  0  0
  -28.8169  -22.7092   19.9511 C   0  0  0  0  0  0
  -28.0440  -24.2371   20.5216 C   0  0  2  0  0  0
  -29.6850  -16.5343   20.3013 N   0  0  0  0  0  0
  -28.8740  -21.1847   20.6380 N   0  3  0  0  0  0
  -31.4521  -13.0236   19.1661 H   0  0  0  0  0  0
  -30.5154  -11.9067   20.1136 H   0  0  0  0  0  0
  -29.9049  -11.7369   17.6783 H   0  0  0  0  0  0
  -29.5587  -13.4477   17.6273 H   0  0  0  0  0  0
  -28.0317  -11.2736   19.0773 H   0  0  0  0  0  0
  -27.4079  -12.3435   17.8478 H   0  0  0  0  0  0
  -27.5240  -14.2401   19.3217 H   0  0  0  0  0  0
  -28.8237  -12.5047   21.4733 H   0  0  0  0  0  0
  -28.2918  -14.1596   21.6840 H   0  0  0  0  0  0
  -25.2768   -9.5683   22.4772 H   0  0  0  0  0  0
  -24.0011   -7.4633   22.7473 H   0  0  0  0  0  0
  -21.0858   -8.8778   19.8952 H   0  0  0  0  0  0
  -22.3708  -10.9678   19.6172 H   0  0  0  0  0  0
  -21.1996   -7.6147   23.9716 H   0  0  0  0  0  0
  -21.1488   -6.0521   25.9082 H   0  0  0  0  0  0
  -22.0594   -2.7609   23.2846 H   0  0  0  0  0  0
  -22.4032  -11.9845   22.4845 H   0  0  0  0  0  0
  -21.1027  -13.1194   22.2662 H   0  0  0  0  0  0
  -24.6441  -15.8546   20.5324 H   0  0  0  0  0  0
  -26.2566  -15.6270   20.0741 H   0  0  0  0  0  0
  -26.7377  -32.5136   23.0885 H   0  0  0  0  0  0
  -25.0127  -33.9497   25.0220 H   0  0  0  0  0  0
  -22.7886  -31.2661   21.3492 H   0  0  0  0  0  0
  -23.3764  -35.9531   23.3282 H   0  0  0  0  0  0
  -24.3564  -36.8878   22.2063 H   0  0  0  0  0  0
  -23.7243  -37.6387   23.6720 H   0  0  0  0  0  0
  -26.2213  -31.3722   20.6158 H   0  0  0  0  0  0
  -26.9071  -30.6933   22.0510 H   0  0  0  0  0  0
  -28.1598  -28.6139   21.2564 H   0  0  0  0  0  0
  -25.8784  -25.7246   19.0264 H   0  0  0  0  0  0
  -23.9950  -27.2525   18.9751 H   0  0  0  0  0  0
  -23.8744  -30.5145   19.3891 H   0  0  0  0  0  0
  -22.8248  -29.2037   19.8309 H   0  0  0  0  0  0
  -25.1338  -36.1758   25.0785 H   0  0  0  0  0  0
  -21.0033  -28.3343   24.1325 H   0  0  0  0  0  0
  -20.5697  -26.2359   23.3641 H   0  0  0  0  0  0
  -21.6665  -26.7413   22.1198 H   0  0  0  0  0  0
  -19.6929  -25.6271   21.1276 H   0  0  0  0  0  0
  -19.6712  -27.3164   20.6734 H   0  0  0  0  0  0
  -17.4228  -26.6692   21.4021 H   0  0  0  0  0  0
  -18.0335  -26.0095   22.9028 H   0  0  0  0  0  0
  -19.7971  -30.7334   24.2168 H   0  0  0  0  0  0
  -17.5037  -31.6269   24.5167 H   0  0  0  0  0  0
  -15.5376  -30.2959   23.7708 H   0  0  0  0  0  0
  -15.8709  -28.0808   22.7094 H   0  0  0  0  0  0
  -24.5891  -30.7128   25.7673 H   0  0  0  0  0  0
  -24.8877  -32.3006   26.4653 H   0  0  0  0  0  0
  -25.7936  -30.9052   27.0216 H   0  0  0  0  0  0
  -26.3131  -29.6591   24.1407 H   0  0  0  0  0  0
  -27.3974  -29.7274   25.5079 H   0  0  0  0  0  0
  -27.9080  -30.4099   23.9858 H   0  0  0  0  0  0
  -27.2611  -33.3695   26.1962 H   0  0  0  0  0  0
  -28.3937  -32.6848   25.0395 H   0  0  0  0  0  0
  -28.0645  -31.8566   26.5530 H   0  0  0  0  0  0
  -28.2566  -38.0071   24.7506 H   0  0  0  0  0  0
  -28.1070  -36.2593   24.6299 H   0  0  0  0  0  0
  -27.2275  -37.1419   25.8866 H   0  0  0  0  0  0
  -20.9583  -29.8716   21.6677 H   0  0  0  0  0  0
  -26.0116  -38.2761   24.1419 H   0  0  0  0  0  0
  -30.1351  -19.7216   18.0088 H   0  0  0  0  0  0
  -31.0573  -20.5350   19.3128 H   0  0  0  0  0  0
  -31.8811  -18.4438   20.0314 H   0  0  0  0  0  0
  -30.9337  -17.6852   18.7384 H   0  0  0  0  0  0
  -27.7323  -17.1404   20.7618 H   0  0  0  0  0  0
  -28.8101  -16.8121   22.1987 H   0  0  0  0  0  0
  -28.2664  -19.4753   19.3349 H   0  0  0  0  0  0
  -27.8772  -23.2909   22.4820 H   0  0  0  0  0  0
  -27.5319  -25.0114   22.4908 H   0  0  0  0  0  0
  -29.1970  -24.4530   22.3494 H   0  0  0  0  0  0
  -29.8652  -22.9572   19.7891 H   0  0  0  0  0  0
  -28.4249  -22.5455   18.9475 H   0  0  0  0  0  0
  -26.9871  -24.0676   20.3148 H   0  0  0  0  0  0
  -29.5428  -21.2621   21.3873 H   0  0  0  0  0  0
  -27.9878  -21.0837   21.1064 H   0  0  0  0  0  0
  1 25  1  0  0  0
  1 30  2  0  0  0
  1 79  1  0  0  0
  2  3  1  0  0  0
  2 25  1  0  0  0
  2 81  1  0  0  0
  2 82  1  0  0  0
  3  4  1  0  0  0
  3 83  1  0  0  0
  3 84  1  0  0  0
  4  5  1  0  0  0
  4 85  1  0  0  0
  4 86  1  0  0  0
  5  6  1  0  0  0
  5 26  1  0  0  0
  5 87  1  0  0  0
  6 25  1  0  0  0
  6 88  1  0  0  0
  6 89  1  0  0  0
  7  8  2  0  0  0
  7 26  1  0  0  0
  7 29  1  0  0  0
  8  9  1  0  0  0
  8 22  1  0  0  0
  9 10  1  0  0  0
  9 27  2  0  0  0
 10 11  2  0  0  0
 10 15  1  0  0  0
 11 12  1  0  0  0
 11 90  1  0  0  0
 12 13  2  0  0  0
 12 91  1  0  0  0
 13 14  1  0  0  0
 13 31  1  0  0  0
 14 15  2  0  0  0
 14 92  1  0  0  0
 15 93  1  0  0  0
 16 17  2  0  0  0
 16 21  1  0  0  0
 16 31  1  0  0  0
 17 18  1  0  0  0
 17 94  1  0  0  0
 18 19  2  0  0  0
 18 95  1  0  0  0
 19 20  1  0  0  0
 19 24  1  0  0  0
 20 21  2  0  0  0
 20 96  1  0  0  0
 21 23  1  0  0  0
 22 28  1  0  0  0
 22 32  2  0  0  0
 26 27  1  0  0  0
 28 97  1  0  0  0
 28 98  1  0  0  0
 29 99  1  0  0  0
 29100  1  0  0  0
 33 34  1  0  0  0
 33 66  1  0  0  0
 33 70  2  0  0  0
 34 36  1  0  0  0
 34 59  1  0  0  0
 34101  1  0  0  0
 35 44  2  0  0  0
 35 45  1  0  0  0
 35 68  1  0  0  0
 36 56  1  0  0  0
 36102  1  0  0  0
 37 39  1  0  0  0
 37 47  1  0  0  0
 37 66  1  0  0  0
 37103  1  0  0  0
 38 43  2  0  0  0
 38 46  1  0  0  0
 38 47  1  0  0  0
 39 64  1  0  0  0
 39 67  2  0  0  0
 40 52  1  0  0  0
 40 53  2  0  0  0
 40 58  1  0  0  0
 41104  1  0  0  0
 41105  1  0  0  0
 41106  1  0  0  0
 41 48  1  0  0  0
 42 43  1  0  0  0
 42 66  1  0  0  0
 42107  1  0  0  0
 42108  1  0  0  0
 43 44  1  0  0  0
 44109  1  0  0  0
 45 46  2  0  0  0
 45110  1  0  0  0
 46111  1  0  0  0
 47112  1  0  0  0
 47113  1  0  0  0
 48 56  1  0  0  0
 48 65  1  0  0  0
 48114  1  0  0  0
 49 50  1  0  0  0
 49 53  1  0  0  0
 49 64  1  0  0  0
 49115  1  0  0  0
 50 51  1  0  0  0
 50116  1  0  0  0
 50117  1  0  0  0
 51 52  1  0  0  0
 51118  1  0  0  0
 51119  1  0  0  0
 52120  1  0  0  0
 52121  1  0  0  0
 53 54  1  0  0  0
 54 55  2  0  0  0
 54122  1  0  0  0
 55 57  1  0  0  0
 55123  1  0  0  0
 56 69  2  0  0  0
 57 58  2  0  0  0
 57124  1  0  0  0
 58125  1  0  0  0
 59 60  1  0  0  0
 59 61  1  0  0  0
 59 62  1  0  0  0
 60126  1  0  0  0
 60127  1  0  0  0
 60128  1  0  0  0
 61129  1  0  0  0
 61130  1  0  0  0
 61131  1  0  0  0
 62132  1  0  0  0
 62133  1  0  0  0
 62134  1  0  0  0
 63 65  1  0  0  0
 63135  1  0  0  0
 63136  1  0  0  0
 63137  1  0  0  0
 64138  1  0  0  0
 65139  1  0  0  0
 68 78  1  0  0  0
 71 72  1  0  0  0
 71 74  1  0  0  0
 71140  1  0  0  0
 71141  1  0  0  0
 72142  1  0  0  0
 72143  1  0  0  0
 72 75  1  0  0  0
 73 75  1  0  0  0
 73 79  1  0  0  0
 73144  1  0  0  0
 73145  1  0  0  0
 74 75  1  0  0  0
 74 80  1  0  0  0
 74146  1  0  0  0
 75 79  1  0  0  0
 76147  1  0  0  0
 76148  1  0  0  0
 76149  1  0  0  0
 76 78  1  0  0  0
 77 78  1  0  0  0
 77 80  1  0  0  0
 77150  1  0  0  0
 77151  1  0  0  0
 78152  1  0  0  0
 80153  1  0  0  0
 80154  1  0  0  0
M  CHG  1  80   1
M  ISO  4   1 100  68 101  78 101  79 100
M  END
> <chiral flag>
0

> <version>
0

> <s_m_source_file>
/data/baiqing/PycharmProjects/Reinvent-master-3.2/result/LINK_invent/BTK/process_docking_weight1_custom_sum_contain_oxygen_bond_distance_aromatic_linkinvent_7_9_3/rearranged_h_0186.sdf

> <i_m_source_file_index>
58

> <r_mmod_Potential_Energy-OPLS-2005>
1661.42529296875

> <r_mmod_Stretch_Energy-OPLS-2005>
614.453247070312

> <r_mmod_Bend_Energy-OPLS-2005>
814.988037109375

> <r_mmod_Torsional_Energy-OPLS-2005>
390.010803222656

> <r_mmod_Improper_Torsional_Energy-OPLS-2005>
18.0204410552979

> <r_mmod_Van_der_Waal_Energy-OPLS-2005>
105.70002746582

> <r_mmod_Electrostatic_Energy-OPLS-2005>
-249.455001831055

> <r_mmod_Solvation_Energy-OPLS-2005>
-474.937744140625

> <b_mmod_Minimization_Converged-OPLS-2005>
0

> <r_mmod_RMS_Derivative-OPLS-2005>
0.973897099494934

$$$$
59
                    3D
 Structure written by MMmdl.
155164  0  0  1  0            999 V2000
  -30.5362  -15.0206   20.4265 C   0  0  0  0  0  0
  -30.4336  -12.6404   19.4953 C   0  0  0  0  0  0
  -29.5195  -12.5585   18.2501 C   0  0  0  0  0  0
  -28.0482  -12.3457   18.6559 C   0  0  0  0  0  0
  -27.6235  -13.2604   19.8358 C   0  0  2  0  0  0
  -28.6689  -13.3035   20.9660 C   0  0  0  0  0  0
  -25.2469  -13.8269   20.5787 C   0  0  0  0  0  0
  -24.1794  -13.0450   20.9255 C   0  0  0  0  0  0
  -24.6449  -11.6937   20.8743 C   0  0  0  0  0  0
  -23.9135  -10.4305   21.0405 C   0  0  0  0  0  0
  -24.3664   -9.4204   21.9189 C   0  0  0  0  0  0
  -23.6314   -8.2230   22.0742 C   0  0  0  0  0  0
  -22.4296   -8.0283   21.3530 C   0  0  0  0  0  0
  -21.9958   -9.0273   20.4637 C   0  0  0  0  0  0
  -22.7298  -10.2155   20.3055 C   0  0  0  0  0  0
  -21.6888   -6.0750   22.5265 C   0  0  0  0  0  0
  -21.4022   -6.5651   23.8199 C   0  0  0  0  0  0
  -21.3668   -5.6800   24.9170 C   0  0  0  0  0  0
  -21.6045   -4.3061   24.7212 C   0  0  0  0  0  0
  -21.8819   -3.8159   23.4330 C   0  0  0  0  0  0
  -21.9200   -4.6978   22.3392 C   0  0  0  0  0  0
  -22.7805  -13.5197   21.1857 C   0  0  0  0  0  0
  -22.1676   -4.2169   21.0965 F   0  0  0  0  0  0
  -21.5628   -3.4528   25.7721 F   0  0  0  0  0  0
  -29.9294  -13.7542   20.3605 N   0  0  0  0  0  0
  -26.2884  -12.9497   20.3266 N   0  0  0  0  0  0
  -25.9375  -11.6623   20.5715 N   0  0  0  0  0  0
  -22.0458  -12.8192   22.0425 N   0  0  0  0  0  0
  -25.4136  -15.2006   20.4308 N   0  0  0  0  0  0
  -31.7282  -15.0518   20.1043 O   0  0  0  0  0  0
  -21.6659   -6.8881   21.4223 O   0  0  0  0  0  0
  -22.3468  -14.5475   20.6667 O   0  0  0  0  0  0
  -24.6527  -31.8295   23.1738 C   0  0  0  0  0  0
  -25.9236  -32.4619   23.8193 C   0  0  1  0  0  0
  -27.2417  -27.0551   20.1531 C   0  0  0  0  0  0
  -25.5947  -33.8431   24.2100 N   0  0  0  0  0  0
  -23.4652  -30.4360   21.5158 C   0  0  2  0  0  0
  -24.9265  -28.8395   20.1024 C   0  0  0  0  0  0
  -22.7626  -29.4426   22.4772 C   0  0  0  0  0  0
  -18.0313  -28.1373   22.8470 C   0  0  0  0  0  0
  -24.1509  -36.7253   23.2644 C   0  0  0  0  0  0
  -26.0232  -30.6726   21.3899 C   0  0  0  0  0  0
  -26.0969  -29.2733   20.7349 C   0  0  0  0  0  0
  -27.2463  -28.3894   20.7523 C   0  0  0  0  0  0
  -26.0548  -26.7382   19.4668 C   0  0  0  0  0  0
  -24.9206  -27.5906   19.4560 C   0  0  0  0  0  0
  -23.7033  -29.7458   20.1418 C   0  0  0  0  0  0
  -25.4140  -36.2987   24.0295 C   0  0  1  0  0  0
  -20.5946  -28.3720   23.1198 C   0  0  2  0  0  0
  -20.6794  -26.9406   22.5403 C   0  0  0  0  0  0
  -19.5774  -26.6356   21.5201 C   0  0  0  0  0  0
  -18.1952  -26.7909   22.1612 C   0  0  0  0  0  0
  -19.1579  -28.8861   23.2829 C   0  0  0  0  0  0
  -18.9489  -30.1456   23.8868 C   0  0  0  0  0  0
  -17.6481  -30.6577   24.0545 C   0  0  0  0  0  0
  -25.9085  -34.9354   23.5013 C   0  0  0  0  0  0
  -16.5374  -29.9061   23.6332 C   0  0  0  0  0  0
  -16.7299  -28.6478   23.0368 C   0  0  0  0  0  0
  -26.4541  -31.6543   25.0687 C   0  0  0  0  0  0
  -25.3696  -31.3783   26.1372 C   0  0  0  0  0  0
  -27.0420  -30.2911   24.6357 C   0  0  0  0  0  0
  -27.6044  -32.4345   25.7495 C   0  0  0  0  0  0
  -27.5579  -37.1782   24.8455 C   0  0  0  0  0  0
  -21.4297  -29.3039   22.3558 N   0  0  0  0  0  0
  -26.4300  -37.3707   23.9383 N   0  0  0  0  0  0
  -24.7318  -31.0043   22.0819 N   0  0  0  0  0  0
  -23.4206  -28.7987   23.2984 O   0  0  0  0  0  0
  -28.2756  -26.0448   20.3251 O   0  0  0  0  0  0
  -26.5682  -34.8870   22.4595 O   0  0  0  0  0  0
  -23.5608  -32.1205   23.6889 O   0  0  0  0  0  0
  -28.7464  -21.5496   22.9562 C   0  0  0  0  0  0
  -29.0964  -20.4679   21.1612 C   0  0  0  0  0  0
  -30.5213  -17.5096   22.1538 C   0  0  0  0  0  0
  -29.3777  -16.4913   22.0405 C   0  0  0  0  0  0
  -30.2623  -17.8209   20.6814 C   0  0  1  0  0  0
  -28.4765  -21.8649   24.3908 C   0  0  0  0  0  0
  -28.2678  -22.9175   19.7698 C   0  0  0  0  0  0
  -28.5436  -24.6382   19.6351 C   0  0  0  0  0  0
  -29.1125  -20.3277   22.4892 N   0  0  0  0  0  0
  -28.5756  -22.4906   22.0498 N   0  0  0  0  0  0
  -28.7459  -21.8695   20.8573 N   0  0  0  0  0  0
  -29.8092  -16.2638   20.6557 N   0  0  0  0  0  0
  -29.3944  -19.1644   20.4424 N   0  0  0  0  0  0
  -31.4693  -12.7938   19.1869 H   0  0  0  0  0  0
  -30.4258  -11.6904   20.0347 H   0  0  0  0  0  0
  -29.8481  -11.7583   17.5858 H   0  0  0  0  0  0
  -29.6052  -13.4856   17.6810 H   0  0  0  0  0  0
  -27.9266  -11.2997   18.9316 H   0  0  0  0  0  0
  -27.3942  -12.5112   17.7989 H   0  0  0  0  0  0
  -27.5774  -14.2648   19.4162 H   0  0  0  0  0  0
  -28.7807  -12.3281   21.4385 H   0  0  0  0  0  0
  -28.3448  -13.9849   21.7494 H   0  0  0  0  0  0
  -25.2830   -9.5683   22.4750 H   0  0  0  0  0  0
  -24.0073   -7.4617   22.7442 H   0  0  0  0  0  0
  -21.0903   -8.8782   19.8908 H   0  0  0  0  0  0
  -22.3776  -10.9688   19.6137 H   0  0  0  0  0  0
  -21.2027   -7.6156   23.9714 H   0  0  0  0  0  0
  -21.1493   -6.0526   25.9075 H   0  0  0  0  0  0
  -22.0601   -2.7607   23.2825 H   0  0  0  0  0  0
  -22.4141  -11.9955   22.4974 H   0  0  0  0  0  0
  -21.0999  -13.1092   22.2442 H   0  0  0  0  0  0
  -24.6460  -15.8519   20.5594 H   0  0  0  0  0  0
  -26.2831  -15.6534   20.1737 H   0  0  0  0  0  0
  -26.7305  -32.5196   23.0922 H   0  0  0  0  0  0
  -25.0085  -33.9540   25.0248 H   0  0  0  0  0  0
  -22.7748  -31.2642   21.3405 H   0  0  0  0  0  0
  -23.3747  -35.9613   23.3281 H   0  0  0  0  0  0
  -24.3601  -36.8923   22.2069 H   0  0  0  0  0  0
  -23.7310  -37.6451   23.6718 H   0  0  0  0  0  0
  -26.1878  -31.4177   20.6106 H   0  0  0  0  0  0
  -26.8913  -30.7332   22.0358 H   0  0  0  0  0  0
  -28.1311  -28.7005   21.2925 H   0  0  0  0  0  0
  -25.9768  -25.7728   18.9894 H   0  0  0  0  0  0
  -24.0274  -27.2514   18.9538 H   0  0  0  0  0  0
  -23.8480  -30.5077   19.3767 H   0  0  0  0  0  0
  -22.8238  -29.1804   19.8324 H   0  0  0  0  0  0
  -25.1339  -36.1788   25.0791 H   0  0  0  0  0  0
  -21.0044  -28.3316   24.1317 H   0  0  0  0  0  0
  -20.5639  -26.2330   23.3629 H   0  0  0  0  0  0
  -21.6651  -26.7360   22.1222 H   0  0  0  0  0  0
  -19.6931  -25.6250   21.1258 H   0  0  0  0  0  0
  -19.6718  -27.3137   20.6702 H   0  0  0  0  0  0
  -17.4222  -26.6655   21.4022 H   0  0  0  0  0  0
  -18.0367  -26.0050   22.9007 H   0  0  0  0  0  0
  -19.7971  -30.7278   24.2236 H   0  0  0  0  0  0
  -17.5036  -31.6261   24.5138 H   0  0  0  0  0  0
  -15.5379  -30.2953   23.7665 H   0  0  0  0  0  0
  -15.8703  -28.0768   22.7122 H   0  0  0  0  0  0
  -24.5863  -30.7147   25.7689 H   0  0  0  0  0  0
  -24.8916  -32.2989   26.4725 H   0  0  0  0  0  0
  -25.7961  -30.8993   27.0196 H   0  0  0  0  0  0
  -26.3044  -29.6606   24.1372 H   0  0  0  0  0  0
  -27.3985  -29.7265   25.4988 H   0  0  0  0  0  0
  -27.8981  -30.4107   23.9712 H   0  0  0  0  0  0
  -27.2599  -33.3668   26.1994 H   0  0  0  0  0  0
  -28.3913  -32.6876   25.0372 H   0  0  0  0  0  0
  -28.0647  -31.8518   26.5494 H   0  0  0  0  0  0
  -28.2559  -38.0106   24.7477 H   0  0  0  0  0  0
  -28.1103  -36.2622   24.6302 H   0  0  0  0  0  0
  -27.2284  -37.1450   25.8854 H   0  0  0  0  0  0
  -20.9512  -29.8794   21.6768 H   0  0  0  0  0  0
  -26.0139  -38.2768   24.1363 H   0  0  0  0  0  0
  -31.4914  -17.0308   22.3154 H   0  0  0  0  0  0
  -30.3848  -18.2893   22.8938 H   0  0  0  0  0  0
  -29.5055  -15.6565   22.7322 H   0  0  0  0  0  0
  -28.3716  -16.9142   22.1269 H   0  0  0  0  0  0
  -31.2212  -17.9528   20.1771 H   0  0  0  0  0  0
  -29.3227  -22.3826   24.8446 H   0  0  0  0  0  0
  -28.2617  -20.9669   24.9710 H   0  0  0  0  0  0
  -27.6059  -22.5208   24.4588 H   0  0  0  0  0  0
  -28.6265  -22.4945   18.8281 H   0  0  0  0  0  0
  -27.1880  -22.7792   19.7039 H   0  0  0  0  0  0
  -28.2565  -24.8460   18.6018 H   0  0  0  0  0  0
  -29.6335  -24.6661   19.5933 H   0  0  0  0  0  0
  -29.3193  -19.3422   19.4458 H   0  0  0  0  0  0
  1 25  1  0  0  0
  1 30  2  0  0  0
  1 82  1  0  0  0
  2  3  1  0  0  0
  2 25  1  0  0  0
  2 84  1  0  0  0
  2 85  1  0  0  0
  3  4  1  0  0  0
  3 86  1  0  0  0
  3 87  1  0  0  0
  4  5  1  0  0  0
  4 88  1  0  0  0
  4 89  1  0  0  0
  5  6  1  0  0  0
  5 26  1  0  0  0
  5 90  1  0  0  0
  6 25  1  0  0  0
  6 91  1  0  0  0
  6 92  1  0  0  0
  7  8  2  0  0  0
  7 26  1  0  0  0
  7 29  1  0  0  0
  8  9  1  0  0  0
  8 22  1  0  0  0
  9 10  1  0  0  0
  9 27  2  0  0  0
 10 11  2  0  0  0
 10 15  1  0  0  0
 11 12  1  0  0  0
 11 93  1  0  0  0
 12 13  2  0  0  0
 12 94  1  0  0  0
 13 14  1  0  0  0
 13 31  1  0  0  0
 14 15  2  0  0  0
 14 95  1  0  0  0
 15 96  1  0  0  0
 16 17  2  0  0  0
 16 21  1  0  0  0
 16 31  1  0  0  0
 17 18  1  0  0  0
 17 97  1  0  0  0
 18 19  2  0  0  0
 18 98  1  0  0  0
 19 20  1  0  0  0
 19 24  1  0  0  0
 20 21  2  0  0  0
 20 99  1  0  0  0
 21 23  1  0  0  0
 22 28  1  0  0  0
 22 32  2  0  0  0
 26 27  1  0  0  0
 28100  1  0  0  0
 28101  1  0  0  0
 29102  1  0  0  0
 29103  1  0  0  0
 33 34  1  0  0  0
 33 66  1  0  0  0
 33 70  2  0  0  0
 34 36  1  0  0  0
 34 59  1  0  0  0
 34104  1  0  0  0
 35 44  2  0  0  0
 35 45  1  0  0  0
 35 68  1  0  0  0
 36 56  1  0  0  0
 36105  1  0  0  0
 37 39  1  0  0  0
 37 47  1  0  0  0
 37 66  1  0  0  0
 37106  1  0  0  0
 38 43  2  0  0  0
 38 46  1  0  0  0
 38 47  1  0  0  0
 39 64  1  0  0  0
 39 67  2  0  0  0
 40 52  1  0  0  0
 40 53  2  0  0  0
 40 58  1  0  0  0
 41107  1  0  0  0
 41108  1  0  0  0
 41109  1  0  0  0
 41 48  1  0  0  0
 42 43  1  0  0  0
 42 66  1  0  0  0
 42110  1  0  0  0
 42111  1  0  0  0
 43 44  1  0  0  0
 44112  1  0  0  0
 45 46  2  0  0  0
 45113  1  0  0  0
 46114  1  0  0  0
 47115  1  0  0  0
 47116  1  0  0  0
 48 56  1  0  0  0
 48 65  1  0  0  0
 48117  1  0  0  0
 49 50  1  0  0  0
 49 53  1  0  0  0
 49 64  1  0  0  0
 49118  1  0  0  0
 50 51  1  0  0  0
 50119  1  0  0  0
 50120  1  0  0  0
 51 52  1  0  0  0
 51121  1  0  0  0
 51122  1  0  0  0
 52123  1  0  0  0
 52124  1  0  0  0
 53 54  1  0  0  0
 54 55  2  0  0  0
 54125  1  0  0  0
 55 57  1  0  0  0
 55126  1  0  0  0
 56 69  2  0  0  0
 57 58  2  0  0  0
 57127  1  0  0  0
 58128  1  0  0  0
 59 60  1  0  0  0
 59 61  1  0  0  0
 59 62  1  0  0  0
 60129  1  0  0  0
 60130  1  0  0  0
 60131  1  0  0  0
 61132  1  0  0  0
 61133  1  0  0  0
 61134  1  0  0  0
 62135  1  0  0  0
 62136  1  0  0  0
 62137  1  0  0  0
 63 65  1  0  0  0
 63138  1  0  0  0
 63139  1  0  0  0
 63140  1  0  0  0
 64141  1  0  0  0
 65142  1  0  0  0
 68 78  1  0  0  0
 71 76  1  0  0  0
 71 79  1  0  0  0
 71 80  2  0  0  0
 72 79  2  0  0  0
 72 81  1  0  0  0
 72 83  1  0  0  0
 73 74  1  0  0  0
 73 75  1  0  0  0
 73143  1  0  0  0
 73144  1  0  0  0
 74 82  1  0  0  0
 74145  1  0  0  0
 74146  1  0  0  0
 75 82  1  0  0  0
 75 83  1  0  0  0
 75147  1  0  0  0
 76148  1  0  0  0
 76149  1  0  0  0
 76150  1  0  0  0
 77 78  1  0  0  0
 77 81  1  0  0  0
 77151  1  0  0  0
 77152  1  0  0  0
 78153  1  0  0  0
 78154  1  0  0  0
 80 81  1  0  0  0
 83155  1  0  0  0
M  ISO  4   1 100  68 101  78 101  82 100
M  END
> <chiral flag>
0

> <version>
0

> <s_m_source_file>
/data/baiqing/PycharmProjects/Reinvent-master-3.2/result/LINK_invent/BTK/process_docking_weight1_custom_sum_contain_oxygen_bond_distance_aromatic_linkinvent_7_9_3/rearranged_h_0186.sdf

> <i_m_source_file_index>
59

> <r_mmod_Potential_Energy-OPLS-2005>
940.648986816406

> <r_mmod_Stretch_Energy-OPLS-2005>
385.871124267578

> <r_mmod_Bend_Energy-OPLS-2005>
514.575134277344

> <r_mmod_Torsional_Energy-OPLS-2005>
259.601531982422

> <r_mmod_Improper_Torsional_Energy-OPLS-2005>
14.3987274169922

> <r_mmod_Van_der_Waal_Energy-OPLS-2005>
114.762023925781

> <r_mmod_Electrostatic_Energy-OPLS-2005>
-367.051605224609

> <r_mmod_Solvation_Energy-OPLS-2005>
-241.546661376953

> <b_mmod_Minimization_Converged-OPLS-2005>
0

> <r_mmod_RMS_Derivative-OPLS-2005>
5.53211402893066

$$$$
60
                    3D
 Structure written by MMmdl.
164173  0  0  1  0            999 V2000
  -30.7060  -14.4611   20.5367 C   0  0  0  0  0  0
  -30.4212  -12.2889   19.4207 C   0  0  0  0  0  0
  -29.4992  -12.4947   18.2015 C   0  0  0  0  0  0
  -28.0178  -12.3665   18.6139 C   0  0  0  0  0  0
  -27.6629  -13.2077   19.8711 C   0  0  2  0  0  0
  -28.7054  -13.0036   20.9943 C   0  0  0  0  0  0
  -25.2610  -13.8161   20.5698 C   0  0  0  0  0  0
  -24.1845  -13.0448   20.9165 C   0  0  0  0  0  0
  -24.6388  -11.6908   20.8705 C   0  0  0  0  0  0
  -23.9043  -10.4299   21.0387 C   0  0  0  0  0  0
  -24.3586   -9.4220   21.9179 C   0  0  0  0  0  0
  -23.6268   -8.2244   22.0756 C   0  0  0  0  0  0
  -22.4243   -8.0272   21.3549 C   0  0  0  0  0  0
  -21.9878   -9.0252   20.4663 C   0  0  0  0  0  0
  -22.7207  -10.2129   20.3066 C   0  0  0  0  0  0
  -21.6864   -6.0712   22.5275 C   0  0  0  0  0  0
  -21.4018   -6.5615   23.8202 C   0  0  0  0  0  0
  -21.3662   -5.6772   24.9167 C   0  0  0  0  0  0
  -21.6043   -4.3035   24.7228 C   0  0  0  0  0  0
  -21.8811   -3.8128   23.4347 C   0  0  0  0  0  0
  -21.9199   -4.6944   22.3402 C   0  0  0  0  0  0
  -22.7864  -13.5274   21.1826 C   0  0  0  0  0  0
  -22.1667   -4.2127   21.0978 F   0  0  0  0  0  0
  -21.5642   -3.4520   25.7744 F   0  0  0  0  0  0
  -30.0357  -13.2850   20.4281 N   0  0  0  0  0  0
  -26.3032  -12.9334   20.3331 N   0  0  0  0  0  0
  -25.9310  -11.6487   20.5699 N   0  0  0  0  0  0
  -22.0491  -12.8294   22.0380 N   0  0  0  0  0  0
  -25.4383  -15.1869   20.4138 N   0  0  0  0  0  0
  -31.8634  -14.6217   20.1405 O   0  0  0  0  0  0
  -21.6638   -6.8845   21.4228 O   0  0  0  0  0  0
  -22.3566  -14.5599   20.6697 O   0  0  0  0  0  0
  -24.6156  -31.8690   23.2132 C   0  0  0  0  0  0
  -25.9057  -32.4828   23.8414 C   0  0  1  0  0  0
  -27.2323  -27.4417   20.0746 C   0  0  0  0  0  0
  -25.5916  -33.8625   24.2351 N   0  0  0  0  0  0
  -23.4003  -30.4970   21.5536 C   0  0  2  0  0  0
  -24.8435  -28.9615   20.1147 C   0  0  0  0  0  0
  -22.7404  -29.4680   22.4994 C   0  0  0  0  0  0
  -18.0275  -28.1361   22.8495 C   0  0  0  0  0  0
  -24.1479  -36.7316   23.2635 C   0  0  0  0  0  0
  -25.9307  -30.8310   21.3686 C   0  0  0  0  0  0
  -26.0035  -29.4666   20.7153 C   0  0  0  0  0  0
  -27.1954  -28.7083   20.7044 C   0  0  0  0  0  0
  -26.0476  -26.9457   19.4810 C   0  0  0  0  0  0
  -24.8583  -27.6979   19.5013 C   0  0  0  0  0  0
  -23.6074  -29.8317   20.1668 C   0  0  0  0  0  0
  -25.4099  -36.3119   24.0348 C   0  0  1  0  0  0
  -20.5862  -28.3661   23.1313 C   0  0  2  0  0  0
  -20.6760  -26.9396   22.5405 C   0  0  0  0  0  0
  -19.5741  -26.6374   21.5202 C   0  0  0  0  0  0
  -18.1917  -26.7910   22.1611 C   0  0  0  0  0  0
  -19.1524  -28.8829   23.2901 C   0  0  0  0  0  0
  -18.9454  -30.1427   23.8914 C   0  0  0  0  0  0
  -17.6463  -30.6575   24.0558 C   0  0  0  0  0  0
  -25.9026  -34.9484   23.5144 C   0  0  0  0  0  0
  -16.5353  -29.9076   23.6316 C   0  0  0  0  0  0
  -16.7268  -28.6486   23.0354 C   0  0  0  0  0  0
  -26.4486  -31.6610   25.0742 C   0  0  0  0  0  0
  -25.3757  -31.3731   26.1502 C   0  0  0  0  0  0
  -27.0306  -30.3049   24.6115 C   0  0  0  0  0  0
  -27.6062  -32.4330   25.7493 C   0  0  0  0  0  0
  -27.5591  -37.1799   24.8459 C   0  0  0  0  0  0
  -21.4136  -29.3041   22.3730 N   0  0  0  0  0  0
  -26.4284  -37.3814   23.9427 N   0  0  0  0  0  0
  -24.6677  -31.0797   22.1037 N   0  0  0  0  0  0
  -23.4180  -28.8204   23.3027 O   0  0  0  0  0  0
  -28.4163  -26.7314   20.0753 O   0  0  0  0  0  0
  -26.5580  -34.8945   22.4697 O   0  0  0  0  0  0
  -23.5351  -32.1453   23.7521 O   0  0  0  0  0  0
  -30.7061  -23.4367   20.8700 C   0  0  0  0  0  0
  -30.1179  -23.7447   19.6214 C   0  0  0  0  0  0
  -30.0128  -21.4846   19.1242 C   0  0  0  0  0  0
  -30.6718  -21.1764   20.3466 C   0  0  0  0  0  0
  -29.8687  -16.3593   21.9704 C   0  0  0  0  0  0
  -29.9891  -16.7824   19.9497 C   0  0  0  0  0  0
  -30.6178  -17.4352   21.1769 C   0  0  0  0  0  0
  -29.6339  -20.4248   18.1035 C   0  0  0  0  0  0
  -30.2089  -19.2310   22.8426 C   0  0  0  0  0  0
  -30.0439  -25.1782   19.1001 C   0  0  0  0  0  0
  -31.2168  -19.7752   20.6597 C   0  0  0  0  0  0
  -28.6332  -25.7912   19.0174 C   0  0  0  0  0  0
  -30.9856  -22.1589   21.2316 N   0  0  0  0  0  0
  -29.7389  -22.7639   18.7640 N   0  0  0  0  0  0
  -29.9106  -15.5361   20.7437 N   0  0  0  0  0  0
  -30.2932  -18.8778   21.4058 N   0  3  1  0  0  0
  -31.4713  -12.3631   19.1317 H   0  0  0  0  0  0
  -30.2973  -11.2839   19.8254 H   0  0  0  0  0  0
  -29.7356  -11.7638   17.4257 H   0  0  0  0  0  0
  -29.6775  -13.4773   17.7602 H   0  0  0  0  0  0
  -27.8171  -11.3121   18.8071 H   0  0  0  0  0  0
  -27.3733  -12.6484   17.7803 H   0  0  0  0  0  0
  -27.7030  -14.2542   19.5672 H   0  0  0  0  0  0
  -28.6716  -11.9799   21.3722 H   0  0  0  0  0  0
  -28.4831  -13.6480   21.8468 H   0  0  0  0  0  0
  -25.2723   -9.5716   22.4751 H   0  0  0  0  0  0
  -24.0003   -7.4636   22.7461 H   0  0  0  0  0  0
  -21.0818   -8.8773   19.8958 H   0  0  0  0  0  0
  -22.3667  -10.9665   19.6179 H   0  0  0  0  0  0
  -21.2007   -7.6120   23.9698 H   0  0  0  0  0  0
  -21.1501   -6.0500   25.9063 H   0  0  0  0  0  0
  -22.0597   -2.7594   23.2854 H   0  0  0  0  0  0
  -22.4065  -11.9968   22.4805 H   0  0  0  0  0  0
  -21.1112  -13.1352   22.2570 H   0  0  0  0  0  0
  -24.6814  -15.8529   20.5307 H   0  0  0  0  0  0
  -26.3078  -15.6154   20.1211 H   0  0  0  0  0  0
  -26.7117  -32.5532   23.1166 H   0  0  0  0  0  0
  -25.0109  -33.9797   25.0524 H   0  0  0  0  0  0
  -22.6885  -31.3143   21.4170 H   0  0  0  0  0  0
  -23.3750  -35.9634   23.3292 H   0  0  0  0  0  0
  -24.3575  -36.8932   22.2047 H   0  0  0  0  0  0
  -23.7214  -37.6521   23.6639 H   0  0  0  0  0  0
  -26.0472  -31.5937   20.5975 H   0  0  0  0  0  0
  -26.8191  -30.8798   21.9863 H   0  0  0  0  0  0
  -28.0923  -29.0939   21.1688 H   0  0  0  0  0  0
  -26.0066  -25.9772   19.0058 H   0  0  0  0  0  0
  -23.9623  -27.2958   19.0470 H   0  0  0  0  0  0
  -23.7196  -30.6084   19.4099 H   0  0  0  0  0  0
  -22.7290  -29.2568   19.8675 H   0  0  0  0  0  0
  -25.1255  -36.1990   25.0838 H   0  0  0  0  0  0
  -20.9964  -28.3223   24.1432 H   0  0  0  0  0  0
  -20.5647  -26.2280   23.3597 H   0  0  0  0  0  0
  -21.6641  -26.7417   22.1218 H   0  0  0  0  0  0
  -19.6903  -25.6282   21.1235 H   0  0  0  0  0  0
  -19.6682  -27.3191   20.6736 H   0  0  0  0  0  0
  -17.4192  -26.6681   21.3998 H   0  0  0  0  0  0
  -18.0303  -26.0030   22.8983 H   0  0  0  0  0  0
  -19.7934  -30.7223   24.2304 H   0  0  0  0  0  0
  -17.5025  -31.6260   24.5144 H   0  0  0  0  0  0
  -15.5353  -30.2990   23.7622 H   0  0  0  0  0  0
  -15.8661  -28.0802   22.7076 H   0  0  0  0  0  0
  -24.5923  -30.7075   25.7874 H   0  0  0  0  0  0
  -24.8952  -32.2887   26.4955 H   0  0  0  0  0  0
  -25.8126  -30.8917   27.0259 H   0  0  0  0  0  0
  -26.2838  -29.6819   24.1180 H   0  0  0  0  0  0
  -27.4092  -29.7292   25.4576 H   0  0  0  0  0  0
  -27.8678  -30.4380   23.9255 H   0  0  0  0  0  0
  -27.2688  -33.3631   26.2086 H   0  0  0  0  0  0
  -28.3858  -32.6895   25.0304 H   0  0  0  0  0  0
  -28.0748  -31.8446   26.5397 H   0  0  0  0  0  0
  -28.2585  -38.0124   24.7549 H   0  0  0  0  0  0
  -28.1107  -36.2655   24.6197 H   0  0  0  0  0  0
  -27.2324  -37.1360   25.8867 H   0  0  0  0  0  0
  -20.9291  -29.8793   21.6977 H   0  0  0  0  0  0
  -26.0178  -38.2890   24.1443 H   0  0  0  0  0  0
  -31.0229  -24.2199   21.5448 H   0  0  0  0  0  0
  -28.8545  -16.6284   22.2701 H   0  0  0  0  0  0
  -30.4408  -15.9700   22.8152 H   0  0  0  0  0  0
  -30.6577  -16.7553   19.0854 H   0  0  0  0  0  0
  -29.0100  -17.1777   19.6718 H   0  0  0  0  0  0
  -31.6979  -17.2661   21.2279 H   0  0  0  0  0  0
  -29.1492  -19.5719   18.5800 H   0  0  0  0  0  0
  -30.5206  -20.0716   17.5764 H   0  0  0  0  0  0
  -28.9397  -20.8214   17.3630 H   0  0  0  0  0  0
  -29.4101  -18.6782   23.3341 H   0  0  0  0  0  0
  -29.9887  -20.2893   22.9858 H   0  0  0  0  0  0
  -31.1431  -19.0082   23.3596 H   0  0  0  0  0  0
  -30.4820  -25.1684   18.1020 H   0  0  0  0  0  0
  -30.6963  -25.8222   19.6887 H   0  0  0  0  0  0
  -32.1580  -19.8662   21.2068 H   0  0  0  0  0  0
  -31.4917  -19.3116   19.7134 H   0  0  0  0  0  0
  -27.8905  -24.9954   18.9875 H   0  0  0  0  0  0
  -28.5546  -26.3389   18.0759 H   0  0  0  0  0  0
  -29.3711  -19.0406   21.0292 H   0  0  0  0  0  0
  1 25  1  0  0  0
  1 30  2  0  0  0
  1 85  1  0  0  0
  2  3  1  0  0  0
  2 25  1  0  0  0
  2 87  1  0  0  0
  2 88  1  0  0  0
  3  4  1  0  0  0
  3 89  1  0  0  0
  3 90  1  0  0  0
  4  5  1  0  0  0
  4 91  1  0  0  0
  4 92  1  0  0  0
  5  6  1  0  0  0
  5 26  1  0  0  0
  5 93  1  0  0  0
  6 25  1  0  0  0
  6 94  1  0  0  0
  6 95  1  0  0  0
  7  8  2  0  0  0
  7 26  1  0  0  0
  7 29  1  0  0  0
  8  9  1  0  0  0
  8 22  1  0  0  0
  9 10  1  0  0  0
  9 27  2  0  0  0
 10 11  2  0  0  0
 10 15  1  0  0  0
 11 12  1  0  0  0
 11 96  1  0  0  0
 12 13  2  0  0  0
 12 97  1  0  0  0
 13 14  1  0  0  0
 13 31  1  0  0  0
 14 15  2  0  0  0
 14 98  1  0  0  0
 15 99  1  0  0  0
 16 17  2  0  0  0
 16 21  1  0  0  0
 16 31  1  0  0  0
 17 18  1  0  0  0
 17100  1  0  0  0
 18 19  2  0  0  0
 18101  1  0  0  0
 19 20  1  0  0  0
 19 24  1  0  0  0
 20 21  2  0  0  0
 20102  1  0  0  0
 21 23  1  0  0  0
 22 28  1  0  0  0
 22 32  2  0  0  0
 26 27  1  0  0  0
 28103  1  0  0  0
 28104  1  0  0  0
 29105  1  0  0  0
 29106  1  0  0  0
 33 34  1  0  0  0
 33 66  1  0  0  0
 33 70  2  0  0  0
 34 36  1  0  0  0
 34 59  1  0  0  0
 34107  1  0  0  0
 35 44  2  0  0  0
 35 45  1  0  0  0
 35 68  1  0  0  0
 36 56  1  0  0  0
 36108  1  0  0  0
 37 39  1  0  0  0
 37 47  1  0  0  0
 37 66  1  0  0  0
 37109  1  0  0  0
 38 43  2  0  0  0
 38 46  1  0  0  0
 38 47  1  0  0  0
 39 64  1  0  0  0
 39 67  2  0  0  0
 40 52  1  0  0  0
 40 53  2  0  0  0
 40 58  1  0  0  0
 41110  1  0  0  0
 41111  1  0  0  0
 41112  1  0  0  0
 41 48  1  0  0  0
 42 43  1  0  0  0
 42 66  1  0  0  0
 42113  1  0  0  0
 42114  1  0  0  0
 43 44  1  0  0  0
 44115  1  0  0  0
 45 46  2  0  0  0
 45116  1  0  0  0
 46117  1  0  0  0
 47118  1  0  0  0
 47119  1  0  0  0
 48 56  1  0  0  0
 48 65  1  0  0  0
 48120  1  0  0  0
 49 50  1  0  0  0
 49 53  1  0  0  0
 49 64  1  0  0  0
 49121  1  0  0  0
 50 51  1  0  0  0
 50122  1  0  0  0
 50123  1  0  0  0
 51 52  1  0  0  0
 51124  1  0  0  0
 51125  1  0  0  0
 52126  1  0  0  0
 52127  1  0  0  0
 53 54  1  0  0  0
 54 55  2  0  0  0
 54128  1  0  0  0
 55 57  1  0  0  0
 55129  1  0  0  0
 56 69  2  0  0  0
 57 58  2  0  0  0
 57130  1  0  0  0
 58131  1  0  0  0
 59 60  1  0  0  0
 59 61  1  0  0  0
 59 62  1  0  0  0
 60132  1  0  0  0
 60133  1  0  0  0
 60134  1  0  0  0
 61135  1  0  0  0
 61136  1  0  0  0
 61137  1  0  0  0
 62138  1  0  0  0
 62139  1  0  0  0
 62140  1  0  0  0
 63 65  1  0  0  0
 63141  1  0  0  0
 63142  1  0  0  0
 63143  1  0  0  0
 64144  1  0  0  0
 65145  1  0  0  0
 68 82  1  0  0  0
 71 72  2  0  0  0
 71 83  1  0  0  0
 71146  1  0  0  0
 72 80  1  0  0  0
 72 84  1  0  0  0
 73 74  1  0  0  0
 73 78  1  0  0  0
 73 84  2  0  0  0
 74 81  1  0  0  0
 74 83  2  0  0  0
 75 85  1  0  0  0
 75147  1  0  0  0
 75148  1  0  0  0
 75 77  1  0  0  0
 76 77  1  0  0  0
 76 85  1  0  0  0
 76149  1  0  0  0
 76150  1  0  0  0
 77 86  1  0  0  0
 77151  1  0  0  0
 78152  1  0  0  0
 78153  1  0  0  0
 78154  1  0  0  0
 79155  1  0  0  0
 79156  1  0  0  0
 79157  1  0  0  0
 79 86  1  0  0  0
 80 82  1  0  0  0
 80158  1  0  0  0
 80159  1  0  0  0
 81 86  1  0  0  0
 81160  1  0  0  0
 81161  1  0  0  0
 82162  1  0  0  0
 82163  1  0  0  0
 86164  1  0  0  0
M  CHG  1  86   1
M  ISO  4   1 100  68 101  82 101  85 100
M  END
> <chiral flag>
0

> <version>
0

> <s_m_source_file>
/data/baiqing/PycharmProjects/Reinvent-master-3.2/result/LINK_invent/BTK/process_docking_weight1_custom_sum_contain_oxygen_bond_distance_aromatic_linkinvent_7_9_3/rearranged_h_0186.sdf

> <i_m_source_file_index>
60

> <r_mmod_Potential_Energy-OPLS-2005>
-67.1557159423828

> <r_mmod_Stretch_Energy-OPLS-2005>
40.7736053466797

> <r_mmod_Bend_Energy-OPLS-2005>
114.532073974609

> <r_mmod_Torsional_Energy-OPLS-2005>
297.810028076172

> <r_mmod_Improper_Torsional_Energy-OPLS-2005>
17.921760559082

> <r_mmod_Van_der_Waal_Energy-OPLS-2005>
158.171722412109

> <r_mmod_Electrostatic_Energy-OPLS-2005>
-250.879455566406

> <r_mmod_Solvation_Energy-OPLS-2005>
-459.507507324219

> <b_mmod_Minimization_Converged-OPLS-2005>
0

> <r_mmod_RMS_Derivative-OPLS-2005>
3.12764239311218

$$$$
61
                    3D
 Structure written by MMmdl.
172181  0  0  1  0            999 V2000
  -30.5679  -14.8221   20.4508 C   0  0  0  0  0  0
  -30.4404  -12.5057   19.4811 C   0  0  0  0  0  0
  -29.5152  -12.5163   18.2429 C   0  0  0  0  0  0
  -28.0439  -12.3226   18.6587 C   0  0  0  0  0  0
  -27.6380  -13.2342   19.8471 C   0  0  2  0  0  0
  -28.6817  -13.1944   20.9840 C   0  0  0  0  0  0
  -25.2496  -13.8195   20.5695 C   0  0  0  0  0  0
  -24.1797  -13.0439   20.9219 C   0  0  0  0  0  0
  -24.6393  -11.6917   20.8752 C   0  0  0  0  0  0
  -23.9072  -10.4294   21.0410 C   0  0  0  0  0  0
  -24.3622   -9.4207   21.9186 C   0  0  0  0  0  0
  -23.6296   -8.2243   22.0754 C   0  0  0  0  0  0
  -22.4278   -8.0282   21.3544 C   0  0  0  0  0  0
  -21.9916   -9.0256   20.4645 C   0  0  0  0  0  0
  -22.7247  -10.2134   20.3057 C   0  0  0  0  0  0
  -21.6853   -6.0737   22.5279 C   0  0  0  0  0  0
  -21.4015   -6.5640   23.8214 C   0  0  0  0  0  0
  -21.3658   -5.6792   24.9174 C   0  0  0  0  0  0
  -21.6047   -4.3055   24.7225 C   0  0  0  0  0  0
  -21.8817   -3.8147   23.4346 C   0  0  0  0  0  0
  -21.9193   -4.6966   22.3402 C   0  0  0  0  0  0
  -22.7819  -13.5219   21.1877 C   0  0  0  0  0  0
  -22.1661   -4.2151   21.0980 F   0  0  0  0  0  0
  -21.5629   -3.4539   25.7736 F   0  0  0  0  0  0
  -29.9738  -13.5747   20.3992 N   0  0  0  0  0  0
  -26.2917  -12.9405   20.3263 N   0  0  0  0  0  0
  -25.9321  -11.6545   20.5744 N   0  0  0  0  0  0
  -22.0465  -12.8203   22.0427 N   0  0  0  0  0  0
  -25.4174  -15.1923   20.4105 N   0  0  0  0  0  0
  -31.7593  -14.9314   20.1467 O   0  0  0  0  0  0
  -21.6640   -6.8880   21.4241 O   0  0  0  0  0  0
  -22.3505  -14.5526   20.6728 O   0  0  0  0  0  0
  -24.6350  -31.8505   23.1947 C   0  0  0  0  0  0
  -25.9156  -32.4731   23.8310 C   0  0  1  0  0  0
  -27.2163  -27.2070   20.1586 C   0  0  0  0  0  0
  -25.5934  -33.8536   24.2232 N   0  0  0  0  0  0
  -23.4357  -30.4706   21.5375 C   0  0  2  0  0  0
  -24.8867  -28.9060   20.1134 C   0  0  0  0  0  0
  -22.7529  -29.4572   22.4887 C   0  0  0  0  0  0
  -18.0292  -28.1395   22.8479 C   0  0  0  0  0  0
  -24.1488  -36.7269   23.2641 C   0  0  0  0  0  0
  -25.9850  -30.7462   21.3843 C   0  0  0  0  0  0
  -26.0579  -29.3609   20.7341 C   0  0  0  0  0  0
  -27.2263  -28.5239   20.7463 C   0  0  0  0  0  0
  -26.0367  -26.8466   19.4762 C   0  0  0  0  0  0
  -24.8830  -27.6570   19.4721 C   0  0  0  0  0  0
  -23.6601  -29.8000   20.1561 C   0  0  0  0  0  0
  -25.4118  -36.3056   24.0324 C   0  0  1  0  0  0
  -20.5903  -28.3709   23.1254 C   0  0  2  0  0  0
  -20.6775  -26.9419   22.5409 C   0  0  0  0  0  0
  -19.5751  -26.6380   21.5215 C   0  0  0  0  0  0
  -18.1930  -26.7935   22.1623 C   0  0  0  0  0  0
  -19.1550  -28.8870   23.2857 C   0  0  0  0  0  0
  -18.9475  -30.1468   23.8884 C   0  0  0  0  0  0
  -17.6474  -30.6597   24.0561 C   0  0  0  0  0  0
  -25.9060  -34.9428   23.5084 C   0  0  0  0  0  0
  -16.5363  -29.9095   23.6338 C   0  0  0  0  0  0
  -16.7279  -28.6509   23.0359 C   0  0  0  0  0  0
  -26.4511  -31.6578   25.0721 C   0  0  0  0  0  0
  -25.3710  -31.3742   26.1424 C   0  0  0  0  0  0
  -27.0369  -30.2988   24.6242 C   0  0  0  0  0  0
  -27.6049  -32.4336   25.7499 C   0  0  0  0  0  0
  -27.5576  -37.1790   24.8467 C   0  0  0  0  0  0
  -21.4229  -29.3045   22.3635 N   0  0  0  0  0  0
  -26.4286  -37.3762   23.9409 N   0  0  0  0  0  0
  -24.7043  -31.0427   22.0947 N   0  0  0  0  0  0
  -23.4202  -28.8112   23.3009 O   0  0  0  0  0  0
  -28.2947  -26.2761   20.1533 O   0  0  0  0  0  0
  -26.5638  -34.8911   22.4657 O   0  0  0  0  0  0
  -23.5487  -32.1348   23.7211 O   0  0  0  0  0  0
  -27.1468  -23.1478   21.4550 C   0  0  0  0  0  0
  -26.9559  -24.6509   21.6388 C   0  0  0  0  0  0
  -29.3524  -18.2576   19.3725 C   0  0  0  0  0  0
  -29.6833  -19.9222   21.6922 C   0  0  0  0  0  0
  -28.2386  -23.3478   20.3879 C   0  0  2  0  0  0
  -29.4577  -18.3329   21.7954 C   0  0  1  0  0  0
  -30.0116  -17.4879   20.5795 C   0  0  1  0  0  0
  -28.2752  -24.9317   20.8939 C   0  0  1  0  0  0
  -29.5298  -19.8557   19.2820 C   0  0  1  0  0  0
  -28.8169  -20.3740   18.0181 C   0  0  0  0  0  0
  -29.7661  -17.5613   25.6624 C   0  0  0  0  0  0
  -30.0177  -17.7788   23.1289 C   0  0  0  0  0  0
  -29.4123  -22.2038   20.4881 C   0  0  0  0  0  0
  -29.2515  -18.2353   24.3850 C   0  0  0  0  0  0
  -29.7582  -15.9496   20.6415 N   0  0  0  0  0  0
  -29.1052  -20.6563   20.5003 N   0  3  2  0  0  0
  -31.4774  -12.6534   19.1750 H   0  0  0  0  0  0
  -30.4110  -11.5355   19.9799 H   0  0  0  0  0  0
  -29.8124  -11.7352   17.5419 H   0  0  0  0  0  0
  -29.6237  -13.4628   17.7112 H   0  0  0  0  0  0
  -27.9180  -11.2757   18.9387 H   0  0  0  0  0  0
  -27.3831  -12.4905   17.8071 H   0  0  0  0  0  0
  -27.6228  -14.2495   19.4500 H   0  0  0  0  0  0
  -28.7369  -12.1997   21.4290 H   0  0  0  0  0  0
  -28.4024  -13.8753   21.7898 H   0  0  0  0  0  0
  -25.2766   -9.5682   22.4761 H   0  0  0  0  0  0
  -24.0005   -7.4632   22.7472 H   0  0  0  0  0  0
  -21.0849   -8.8775   19.8947 H   0  0  0  0  0  0
  -22.3707  -10.9673   19.6165 H   0  0  0  0  0  0
  -21.2006   -7.6148   23.9718 H   0  0  0  0  0  0
  -21.1483   -6.0522   25.9078 H   0  0  0  0  0  0
  -22.0597   -2.7611   23.2845 H   0  0  0  0  0  0
  -22.4082  -11.9860   22.4804 H   0  0  0  0  0  0
  -21.1081  -13.1220   22.2635 H   0  0  0  0  0  0
  -24.6430  -15.8390   20.5138 H   0  0  0  0  0  0
  -26.2514  -15.6314   20.0439 H   0  0  0  0  0  0
  -26.7217  -32.5371   23.1041 H   0  0  0  0  0  0
  -25.0077  -33.9670   25.0377 H   0  0  0  0  0  0
  -22.7345  -31.2937   21.3854 H   0  0  0  0  0  0
  -23.3757  -35.9594   23.3302 H   0  0  0  0  0  0
  -24.3575  -36.8898   22.2056 H   0  0  0  0  0  0
  -23.7238  -37.6464   23.6676 H   0  0  0  0  0  0
  -26.1297  -31.5002   20.6093 H   0  0  0  0  0  0
  -26.8600  -30.7999   22.0205 H   0  0  0  0  0  0
  -28.1222  -28.8674   21.2446 H   0  0  0  0  0  0
  -25.9962  -25.8923   18.9697 H   0  0  0  0  0  0
  -23.9918  -27.3073   18.9694 H   0  0  0  0  0  0
  -23.7921  -30.5739   19.3992 H   0  0  0  0  0  0
  -22.7770  -29.2369   19.8478 H   0  0  0  0  0  0
  -25.1305  -36.1892   25.0816 H   0  0  0  0  0  0
  -20.9994  -28.3293   24.1376 H   0  0  0  0  0  0
  -20.5676  -26.2322   23.3622 H   0  0  0  0  0  0
  -21.6640  -26.7432   22.1205 H   0  0  0  0  0  0
  -19.6908  -25.6284   21.1262 H   0  0  0  0  0  0
  -19.6692  -27.3176   20.6734 H   0  0  0  0  0  0
  -17.4201  -26.6691   21.4023 H   0  0  0  0  0  0
  -18.0315  -26.0085   22.9026 H   0  0  0  0  0  0
  -19.7955  -30.7282   24.2252 H   0  0  0  0  0  0
  -17.5034  -31.6282   24.5156 H   0  0  0  0  0  0
  -15.5364  -30.2995   23.7676 H   0  0  0  0  0  0
  -15.8675  -28.0829   22.7086 H   0  0  0  0  0  0
  -24.5906  -30.7069   25.7750 H   0  0  0  0  0  0
  -24.8873  -32.2912   26.4798 H   0  0  0  0  0  0
  -25.8005  -30.8961   27.0235 H   0  0  0  0  0  0
  -26.2966  -29.6717   24.1258 H   0  0  0  0  0  0
  -27.4028  -29.7277   25.4785 H   0  0  0  0  0  0
  -27.8857  -30.4260   23.9519 H   0  0  0  0  0  0
  -27.2652  -33.3658   26.2027 H   0  0  0  0  0  0
  -28.3882  -32.6860   25.0339 H   0  0  0  0  0  0
  -28.0690  -31.8490   26.5452 H   0  0  0  0  0  0
  -28.2588  -38.0091   24.7512 H   0  0  0  0  0  0
  -28.1074  -36.2617   24.6297 H   0  0  0  0  0  0
  -27.2290  -37.1444   25.8869 H   0  0  0  0  0  0
  -20.9422  -29.8781   21.6845 H   0  0  0  0  0  0
  -26.0159  -38.2831   24.1417 H   0  0  0  0  0  0
  -26.2588  -22.6277   21.0935 H   0  0  0  0  0  0
  -27.5260  -22.6766   22.3635 H   0  0  0  0  0  0
  -26.9542  -24.9742   22.6804 H   0  0  0  0  0  0
  -26.0428  -24.9639   21.1412 H   0  0  0  0  0  0
  -28.2852  -18.0316   19.3617 H   0  0  0  0  0  0
  -29.7413  -17.8215   18.4516 H   0  0  0  0  0  0
  -30.7564  -20.1177   21.7218 H   0  0  0  0  0  0
  -29.2702  -20.4045   22.5770 H   0  0  0  0  0  0
  -27.7702  -23.3284   19.4024 H   0  0  0  0  0  0
  -28.3789  -18.1699   21.8225 H   0  0  0  0  0  0
  -31.0928  -17.6305   20.5265 H   0  0  0  0  0  0
  -29.0725  -25.0022   21.6363 H   0  0  0  0  0  0
  -30.5976  -20.0398   19.1502 H   0  0  0  0  0  0
  -27.7361  -20.2509   18.0892 H   0  0  0  0  0  0
  -29.1490  -19.8300   17.1337 H   0  0  0  0  0  0
  -29.0197  -21.4285   17.8324 H   0  0  0  0  0  0
  -29.2044  -17.9002   26.5338 H   0  0  0  0  0  0
  -30.8176  -17.7927   25.8369 H   0  0  0  0  0  0
  -29.6656  -16.4766   25.6076 H   0  0  0  0  0  0
  -31.0728  -18.0419   23.2205 H   0  0  0  0  0  0
  -29.9883  -16.6895   23.1131 H   0  0  0  0  0  0
  -29.9784  -22.4147   21.3961 H   0  0  0  0  0  0
  -30.1433  -22.3886   19.7007 H   0  0  0  0  0  0
  -29.3263  -19.3151   24.5121 H   0  0  0  0  0  0
  -28.1898  -18.0107   24.2697 H   0  0  0  0  0  0
  -28.8022  -15.7018   20.8467 H   0  0  0  0  0  0
  -28.1033  -20.5684   20.5802 H   0  0  0  0  0  0
  1 25  1  0  0  0
  1 30  2  0  0  0
  1 85  1  0  0  0
  2  3  1  0  0  0
  2 25  1  0  0  0
  2 87  1  0  0  0
  2 88  1  0  0  0
  3  4  1  0  0  0
  3 89  1  0  0  0
  3 90  1  0  0  0
  4  5  1  0  0  0
  4 91  1  0  0  0
  4 92  1  0  0  0
  5  6  1  0  0  0
  5 26  1  0  0  0
  5 93  1  0  0  0
  6 25  1  0  0  0
  6 94  1  0  0  0
  6 95  1  0  0  0
  7  8  2  0  0  0
  7 26  1  0  0  0
  7 29  1  0  0  0
  8  9  1  0  0  0
  8 22  1  0  0  0
  9 10  1  0  0  0
  9 27  2  0  0  0
 10 11  2  0  0  0
 10 15  1  0  0  0
 11 12  1  0  0  0
 11 96  1  0  0  0
 12 13  2  0  0  0
 12 97  1  0  0  0
 13 14  1  0  0  0
 13 31  1  0  0  0
 14 15  2  0  0  0
 14 98  1  0  0  0
 15 99  1  0  0  0
 16 17  2  0  0  0
 16 21  1  0  0  0
 16 31  1  0  0  0
 17 18  1  0  0  0
 17100  1  0  0  0
 18 19  2  0  0  0
 18101  1  0  0  0
 19 20  1  0  0  0
 19 24  1  0  0  0
 20 21  2  0  0  0
 20102  1  0  0  0
 21 23  1  0  0  0
 22 28  1  0  0  0
 22 32  2  0  0  0
 26 27  1  0  0  0
 28103  1  0  0  0
 28104  1  0  0  0
 29105  1  0  0  0
 29106  1  0  0  0
 33 34  1  0  0  0
 33 66  1  0  0  0
 33 70  2  0  0  0
 34 36  1  0  0  0
 34 59  1  0  0  0
 34107  1  0  0  0
 35 44  2  0  0  0
 35 45  1  0  0  0
 35 68  1  0  0  0
 36 56  1  0  0  0
 36108  1  0  0  0
 37 39  1  0  0  0
 37 47  1  0  0  0
 37 66  1  0  0  0
 37109  1  0  0  0
 38 43  2  0  0  0
 38 46  1  0  0  0
 38 47  1  0  0  0
 39 64  1  0  0  0
 39 67  2  0  0  0
 40 52  1  0  0  0
 40 53  2  0  0  0
 40 58  1  0  0  0
 41110  1  0  0  0
 41111  1  0  0  0
 41112  1  0  0  0
 41 48  1  0  0  0
 42 43  1  0  0  0
 42 66  1  0  0  0
 42113  1  0  0  0
 42114  1  0  0  0
 43 44  1  0  0  0
 44115  1  0  0  0
 45 46  2  0  0  0
 45116  1  0  0  0
 46117  1  0  0  0
 47118  1  0  0  0
 47119  1  0  0  0
 48 56  1  0  0  0
 48 65  1  0  0  0
 48120  1  0  0  0
 49 50  1  0  0  0
 49 53  1  0  0  0
 49 64  1  0  0  0
 49121  1  0  0  0
 50 51  1  0  0  0
 50122  1  0  0  0
 50123  1  0  0  0
 51 52  1  0  0  0
 51124  1  0  0  0
 51125  1  0  0  0
 52126  1  0  0  0
 52127  1  0  0  0
 53 54  1  0  0  0
 54 55  2  0  0  0
 54128  1  0  0  0
 55 57  1  0  0  0
 55129  1  0  0  0
 56 69  2  0  0  0
 57 58  2  0  0  0
 57130  1  0  0  0
 58131  1  0  0  0
 59 60  1  0  0  0
 59 61  1  0  0  0
 59 62  1  0  0  0
 60132  1  0  0  0
 60133  1  0  0  0
 60134  1  0  0  0
 61135  1  0  0  0
 61136  1  0  0  0
 61137  1  0  0  0
 62138  1  0  0  0
 62139  1  0  0  0
 62140  1  0  0  0
 63 65  1  0  0  0
 63141  1  0  0  0
 63142  1  0  0  0
 63143  1  0  0  0
 64144  1  0  0  0
 65145  1  0  0  0
 68 78  1  0  0  0
 71 72  1  0  0  0
 71 75  1  0  0  0
 71146  1  0  0  0
 71147  1  0  0  0
 72 78  1  0  0  0
 72148  1  0  0  0
 72149  1  0  0  0
 73 77  1  0  0  0
 73 79  1  0  0  0
 73150  1  0  0  0
 73151  1  0  0  0
 74 76  1  0  0  0
 74 86  1  0  0  0
 74152  1  0  0  0
 74153  1  0  0  0
 75 78  1  0  0  0
 75 83  1  0  0  0
 75154  1  0  0  0
 76 77  1  0  0  0
 76 82  1  0  0  0
 76155  1  0  0  0
 77 85  1  0  0  0
 77156  1  0  0  0
 78157  1  0  0  0
 79 80  1  0  0  0
 79 86  1  0  0  0
 79158  1  0  0  0
 80159  1  0  0  0
 80160  1  0  0  0
 80161  1  0  0  0
 81 84  1  0  0  0
 81162  1  0  0  0
 81163  1  0  0  0
 81164  1  0  0  0
 82 84  1  0  0  0
 82165  1  0  0  0
 82166  1  0  0  0
 83167  1  0  0  0
 83168  1  0  0  0
 83 86  1  0  0  0
 84169  1  0  0  0
 84170  1  0  0  0
 85171  1  0  0  0
 86172  1  0  0  0
M  CHG  1  86   1
M  ISO  4   1 100  68 101  78 101  85 100
M  END
> <chiral flag>
0

> <version>
0

> <s_m_source_file>
/data/baiqing/PycharmProjects/Reinvent-master-3.2/result/LINK_invent/BTK/process_docking_weight1_custom_sum_contain_oxygen_bond_distance_aromatic_linkinvent_7_9_3/rearranged_h_0186.sdf

> <i_m_source_file_index>
61

> <r_mmod_Potential_Energy-OPLS-2005>
319.860290527344

> <r_mmod_Stretch_Energy-OPLS-2005>
177.40153503418

> <r_mmod_Bend_Energy-OPLS-2005>
247.952011108398

> <r_mmod_Torsional_Energy-OPLS-2005>
310.804534912109

> <r_mmod_Improper_Torsional_Energy-OPLS-2005>
4.65327596664429

> <r_mmod_Van_der_Waal_Energy-OPLS-2005>
115.506469726562

> <r_mmod_Electrostatic_Energy-OPLS-2005>
-218.081024169922

> <r_mmod_Solvation_Energy-OPLS-2005>
-439.624908447266

> <b_mmod_Minimization_Converged-OPLS-2005>
0

> <r_mmod_RMS_Derivative-OPLS-2005>
0.80818897485733

$$$$
62
                    3D
 Structure written by MMmdl.
155164  0  0  1  0            999 V2000
  -30.5828  -14.8068   20.4440 C   0  0  0  0  0  0
  -30.4362  -12.4924   19.4821 C   0  0  0  0  0  0
  -29.5142  -12.5100   18.2424 C   0  0  0  0  0  0
  -28.0423  -12.3239   18.6592 C   0  0  0  0  0  0
  -27.6386  -13.2361   19.8484 C   0  0  2  0  0  0
  -28.6825  -13.2018   20.9845 C   0  0  0  0  0  0
  -25.2511  -13.8209   20.5722 C   0  0  0  0  0  0
  -24.1796  -13.0448   20.9208 C   0  0  0  0  0  0
  -24.6389  -11.6926   20.8747 C   0  0  0  0  0  0
  -23.9067  -10.4299   21.0407 C   0  0  0  0  0  0
  -24.3618   -9.4214   21.9185 C   0  0  0  0  0  0
  -23.6294   -8.2248   22.0755 C   0  0  0  0  0  0
  -22.4277   -8.0283   21.3544 C   0  0  0  0  0  0
  -21.9910   -9.0257   20.4647 C   0  0  0  0  0  0
  -22.7238  -10.2138   20.3057 C   0  0  0  0  0  0
  -21.6855   -6.0735   22.5277 C   0  0  0  0  0  0
  -21.4018   -6.5640   23.8211 C   0  0  0  0  0  0
  -21.3659   -5.6792   24.9173 C   0  0  0  0  0  0
  -21.6043   -4.3055   24.7225 C   0  0  0  0  0  0
  -21.8817   -3.8147   23.4346 C   0  0  0  0  0  0
  -21.9194   -4.6963   22.3402 C   0  0  0  0  0  0
  -22.7818  -13.5232   21.1864 C   0  0  0  0  0  0
  -22.1662   -4.2147   21.0980 F   0  0  0  0  0  0
  -21.5626   -3.4540   25.7738 F   0  0  0  0  0  0
  -29.9732  -13.5684   20.3919 N   0  0  0  0  0  0
  -26.2926  -12.9415   20.3288 N   0  0  0  0  0  0
  -25.9321  -11.6554   20.5754 N   0  0  0  0  0  0
  -22.0462  -12.8222   22.0420 N   0  0  0  0  0  0
  -25.4243  -15.1930   20.4180 N   0  0  0  0  0  0
  -31.7800  -14.8947   20.1529 O   0  0  0  0  0  0
  -21.6644   -6.8878   21.4239 O   0  0  0  0  0  0
  -22.3502  -14.5535   20.6708 O   0  0  0  0  0  0
  -24.6355  -31.8510   23.1947 C   0  0  0  0  0  0
  -25.9165  -32.4727   23.8304 C   0  0  1  0  0  0
  -27.2140  -27.2109   20.1470 C   0  0  0  0  0  0
  -25.5945  -33.8530   24.2224 N   0  0  0  0  0  0
  -23.4348  -30.4723   21.5388 C   0  0  2  0  0  0
  -24.8833  -28.9106   20.1110 C   0  0  0  0  0  0
  -22.7522  -29.4580   22.4891 C   0  0  0  0  0  0
  -18.0292  -28.1396   22.8483 C   0  0  0  0  0  0
  -24.1494  -36.7271   23.2640 C   0  0  0  0  0  0
  -25.9847  -30.7477   21.3835 C   0  0  0  0  0  0
  -26.0567  -29.3652   20.7271 C   0  0  0  0  0  0
  -27.2264  -28.5298   20.7304 C   0  0  0  0  0  0
  -26.0234  -26.8435   19.4846 C   0  0  0  0  0  0
  -24.8747  -27.6598   19.4756 C   0  0  0  0  0  0
  -23.6568  -29.8043   20.1562 C   0  0  0  0  0  0
  -25.4122  -36.3048   24.0320 C   0  0  1  0  0  0
  -20.5899  -28.3709   23.1257 C   0  0  2  0  0  0
  -20.6778  -26.9422   22.5405 C   0  0  0  0  0  0
  -19.5749  -26.6386   21.5212 C   0  0  0  0  0  0
  -18.1929  -26.7937   22.1624 C   0  0  0  0  0  0
  -19.1548  -28.8870   23.2864 C   0  0  0  0  0  0
  -18.9470  -30.1469   23.8885 C   0  0  0  0  0  0
  -17.6469  -30.6596   24.0562 C   0  0  0  0  0  0
  -25.9067  -34.9422   23.5075 C   0  0  0  0  0  0
  -16.5359  -29.9091   23.6338 C   0  0  0  0  0  0
  -16.7277  -28.6510   23.0358 C   0  0  0  0  0  0
  -26.4516  -31.6568   25.0713 C   0  0  0  0  0  0
  -25.3723  -31.3737   26.1422 C   0  0  0  0  0  0
  -27.0370  -30.2972   24.6243 C   0  0  0  0  0  0
  -27.6054  -32.4322   25.7495 C   0  0  0  0  0  0
  -27.5576  -37.1792   24.8464 C   0  0  0  0  0  0
  -21.4222  -29.3047   22.3638 N   0  0  0  0  0  0
  -26.4289  -37.3754   23.9405 N   0  0  0  0  0  0
  -24.7042  -31.0434   22.0946 N   0  0  0  0  0  0
  -23.4202  -28.8124   23.3011 O   0  0  0  0  0  0
  -28.2840  -26.2707   20.1834 O   0  0  0  0  0  0
  -26.5645  -34.8907   22.4649 O   0  0  0  0  0  0
  -23.5495  -32.1355   23.7217 O   0  0  0  0  0  0
  -27.4046  -19.2918   20.5409 C   0  0  0  0  0  0
  -28.7918  -19.5190   20.4702 C   0  0  0  0  0  0
  -26.9134  -21.5558   20.2702 C   0  0  0  0  0  0
  -28.2930  -21.9262   20.2525 C   0  0  0  0  0  0
  -29.5839  -16.9886   21.5214 C   0  0  0  0  0  0
  -29.7728  -17.0677   19.4382 C   0  0  0  0  0  0
  -29.7250  -18.1962   20.5214 C   0  0  0  0  0  0
  -25.7705  -22.5197   20.0162 C   0  0  0  0  0  0
  -28.7412  -23.4689   19.9648 C   0  0  0  0  0  0
  -28.0073  -24.8201   20.5857 C   0  0  0  0  0  0
  -26.4901  -20.2798   20.4412 N   0  0  0  0  0  0
  -29.2244  -20.8600   20.3348 N   0  0  0  0  0  0
  -29.7742  -15.9554   20.4503 N   0  0  0  0  0  0
  -31.4753  -12.6288   19.1783 H   0  0  0  0  0  0
  -30.3942  -11.5242   19.9837 H   0  0  0  0  0  0
  -29.8072  -11.7278   17.5407 H   0  0  0  0  0  0
  -29.6286  -13.4572   17.7127 H   0  0  0  0  0  0
  -27.9123  -11.2778   18.9388 H   0  0  0  0  0  0
  -27.3821  -12.4950   17.8082 H   0  0  0  0  0  0
  -27.6237  -14.2522   19.4533 H   0  0  0  0  0  0
  -28.7324  -12.2143   21.4451 H   0  0  0  0  0  0
  -28.4105  -13.9025   21.7762 H   0  0  0  0  0  0
  -25.2761   -9.5696   22.4763 H   0  0  0  0  0  0
  -24.0002   -7.4642   22.7479 H   0  0  0  0  0  0
  -21.0839   -8.8776   19.8956 H   0  0  0  0  0  0
  -22.3692  -10.9678   19.6170 H   0  0  0  0  0  0
  -21.2012   -7.6149   23.9715 H   0  0  0  0  0  0
  -21.1482   -6.0522   25.9076 H   0  0  0  0  0  0
  -22.0598   -2.7609   23.2846 H   0  0  0  0  0  0
  -22.4078  -11.9884   22.4808 H   0  0  0  0  0  0
  -21.1083  -13.1253   22.2633 H   0  0  0  0  0  0
  -24.6641  -15.8538   20.5354 H   0  0  0  0  0  0
  -26.2871  -15.6270   20.1157 H   0  0  0  0  0  0
  -26.7224  -32.5358   23.1034 H   0  0  0  0  0  0
  -25.0073  -33.9657   25.0356 H   0  0  0  0  0  0
  -22.7331  -31.2955   21.3894 H   0  0  0  0  0  0
  -23.3753  -35.9606   23.3297 H   0  0  0  0  0  0
  -24.3581  -36.8906   22.2055 H   0  0  0  0  0  0
  -23.7255  -37.6471   23.6677 H   0  0  0  0  0  0
  -26.1314  -31.5053   20.6126 H   0  0  0  0  0  0
  -26.8588  -30.7963   22.0212 H   0  0  0  0  0  0
  -28.1225  -28.8715   21.2290 H   0  0  0  0  0  0
  -25.9640  -25.8920   18.9762 H   0  0  0  0  0  0
  -23.9811  -27.3103   18.9770 H   0  0  0  0  0  0
  -23.7869  -30.5800   19.4009 H   0  0  0  0  0  0
  -22.7734  -29.2418   19.8484 H   0  0  0  0  0  0
  -25.1309  -36.1882   25.0812 H   0  0  0  0  0  0
  -20.9992  -28.3292   24.1379 H   0  0  0  0  0  0
  -20.5686  -26.2318   23.3615 H   0  0  0  0  0  0
  -21.6644  -26.7447   22.1195 H   0  0  0  0  0  0
  -19.6908  -25.6292   21.1251 H   0  0  0  0  0  0
  -19.6688  -27.3184   20.6730 H   0  0  0  0  0  0
  -17.4197  -26.6686   21.4030 H   0  0  0  0  0  0
  -18.0329  -26.0084   22.9023 H   0  0  0  0  0  0
  -19.7945  -30.7287   24.2249 H   0  0  0  0  0  0
  -17.5025  -31.6275   24.5167 H   0  0  0  0  0  0
  -15.5359  -30.2993   23.7671 H   0  0  0  0  0  0
  -15.8674  -28.0827   22.7085 H   0  0  0  0  0  0
  -24.5908  -30.7074   25.7751 H   0  0  0  0  0  0
  -24.8904  -32.2911   26.4809 H   0  0  0  0  0  0
  -25.8029  -30.8940   27.0220 H   0  0  0  0  0  0
  -26.2967  -29.6706   24.1254 H   0  0  0  0  0  0
  -27.4010  -29.7254   25.4789 H   0  0  0  0  0  0
  -27.8864  -30.4221   23.9524 H   0  0  0  0  0  0
  -27.2648  -33.3631   26.2041 H   0  0  0  0  0  0
  -28.3884  -32.6870   25.0341 H   0  0  0  0  0  0
  -28.0698  -31.8467   26.5440 H   0  0  0  0  0  0
  -28.2589  -38.0092   24.7504 H   0  0  0  0  0  0
  -28.1076  -36.2620   24.6300 H   0  0  0  0  0  0
  -27.2291  -37.1449   25.8867 H   0  0  0  0  0  0
  -20.9417  -29.8758   21.6827 H   0  0  0  0  0  0
  -26.0160  -38.2825   24.1402 H   0  0  0  0  0  0
  -27.0139  -18.2902   20.6485 H   0  0  0  0  0  0
  -28.5966  -16.9322   21.9806 H   0  0  0  0  0  0
  -30.3537  -16.9851   22.2951 H   0  0  0  0  0  0
  -30.6655  -17.1177   18.8124 H   0  0  0  0  0  0
  -28.8816  -17.0572   18.8099 H   0  0  0  0  0  0
  -30.7410  -18.5777   20.6283 H   0  0  0  0  0  0
  -25.5322  -23.0810   20.9192 H   0  0  0  0  0  0
  -24.8646  -21.9872   19.7240 H   0  0  0  0  0  0
  -26.0048  -23.2014   19.1991 H   0  0  0  0  0  0
  -28.7034  -23.5691   18.8804 H   0  0  0  0  0  0
  -29.8003  -23.5348   20.2130 H   0  0  0  0  0  0
  -26.9379  -24.6892   20.5293 H   0  0  0  0  0  0
  -28.1956  -24.7906   21.6590 H   0  0  0  0  0  0
  1 25  1  0  0  0
  1 30  2  0  0  0
  1 83  1  0  0  0
  2  3  1  0  0  0
  2 25  1  0  0  0
  2 84  1  0  0  0
  2 85  1  0  0  0
  3  4  1  0  0  0
  3 86  1  0  0  0
  3 87  1  0  0  0
  4  5  1  0  0  0
  4 88  1  0  0  0
  4 89  1  0  0  0
  5  6  1  0  0  0
  5 26  1  0  0  0
  5 90  1  0  0  0
  6 25  1  0  0  0
  6 91  1  0  0  0
  6 92  1  0  0  0
  7  8  2  0  0  0
  7 26  1  0  0  0
  7 29  1  0  0  0
  8  9  1  0  0  0
  8 22  1  0  0  0
  9 10  1  0  0  0
  9 27  2  0  0  0
 10 11  2  0  0  0
 10 15  1  0  0  0
 11 12  1  0  0  0
 11 93  1  0  0  0
 12 13  2  0  0  0
 12 94  1  0  0  0
 13 14  1  0  0  0
 13 31  1  0  0  0
 14 15  2  0  0  0
 14 95  1  0  0  0
 15 96  1  0  0  0
 16 17  2  0  0  0
 16 21  1  0  0  0
 16 31  1  0  0  0
 17 18  1  0  0  0
 17 97  1  0  0  0
 18 19  2  0  0  0
 18 98  1  0  0  0
 19 20  1  0  0  0
 19 24  1  0  0  0
 20 21  2  0  0  0
 20 99  1  0  0  0
 21 23  1  0  0  0
 22 28  1  0  0  0
 22 32  2  0  0  0
 26 27  1  0  0  0
 28100  1  0  0  0
 28101  1  0  0  0
 29102  1  0  0  0
 29103  1  0  0  0
 33 34  1  0  0  0
 33 66  1  0  0  0
 33 70  2  0  0  0
 34 36  1  0  0  0
 34 59  1  0  0  0
 34104  1  0  0  0
 35 44  2  0  0  0
 35 45  1  0  0  0
 35 68  1  0  0  0
 36 56  1  0  0  0
 36105  1  0  0  0
 37 39  1  0  0  0
 37 47  1  0  0  0
 37 66  1  0  0  0
 37106  1  0  0  0
 38 43  2  0  0  0
 38 46  1  0  0  0
 38 47  1  0  0  0
 39 64  1  0  0  0
 39 67  2  0  0  0
 40 52  1  0  0  0
 40 53  2  0  0  0
 40 58  1  0  0  0
 41107  1  0  0  0
 41108  1  0  0  0
 41109  1  0  0  0
 41 48  1  0  0  0
 42 43  1  0  0  0
 42 66  1  0  0  0
 42110  1  0  0  0
 42111  1  0  0  0
 43 44  1  0  0  0
 44112  1  0  0  0
 45 46  2  0  0  0
 45113  1  0  0  0
 46114  1  0  0  0
 47115  1  0  0  0
 47116  1  0  0  0
 48 56  1  0  0  0
 48 65  1  0  0  0
 48117  1  0  0  0
 49 50  1  0  0  0
 49 53  1  0  0  0
 49 64  1  0  0  0
 49118  1  0  0  0
 50 51  1  0  0  0
 50119  1  0  0  0
 50120  1  0  0  0
 51 52  1  0  0  0
 51121  1  0  0  0
 51122  1  0  0  0
 52123  1  0  0  0
 52124  1  0  0  0
 53 54  1  0  0  0
 54 55  2  0  0  0
 54125  1  0  0  0
 55 57  1  0  0  0
 55126  1  0  0  0
 56 69  2  0  0  0
 57 58  2  0  0  0
 57127  1  0  0  0
 58128  1  0  0  0
 59 60  1  0  0  0
 59 61  1  0  0  0
 59 62  1  0  0  0
 60129  1  0  0  0
 60130  1  0  0  0
 60131  1  0  0  0
 61132  1  0  0  0
 61133  1  0  0  0
 61134  1  0  0  0
 62135  1  0  0  0
 62136  1  0  0  0
 62137  1  0  0  0
 63 65  1  0  0  0
 63138  1  0  0  0
 63139  1  0  0  0
 63140  1  0  0  0
 64141  1  0  0  0
 65142  1  0  0  0
 68 80  1  0  0  0
 71 72  2  0  0  0
 71 81  1  0  0  0
 71143  1  0  0  0
 72 82  1  0  0  0
 72 77  1  0  0  0
 73 74  1  0  0  0
 73 78  1  0  0  0
 73 81  2  0  0  0
 74 79  1  0  0  0
 74 82  2  0  0  0
 75 77  1  0  0  0
 75 83  1  0  0  0
 75144  1  0  0  0
 75145  1  0  0  0
 76 77  1  0  0  0
 76 83  1  0  0  0
 76146  1  0  0  0
 76147  1  0  0  0
 77148  1  0  0  0
 78149  1  0  0  0
 78150  1  0  0  0
 78151  1  0  0  0
 79 80  1  0  0  0
 79152  1  0  0  0
 79153  1  0  0  0
 80154  1  0  0  0
 80155  1  0  0  0
M  ISO  4   1 100  68 101  80 101  83 100
M  END
> <chiral flag>
0

> <version>
0

> <s_m_source_file>
/data/baiqing/PycharmProjects/Reinvent-master-3.2/result/LINK_invent/BTK/process_docking_weight1_custom_sum_contain_oxygen_bond_distance_aromatic_linkinvent_7_9_3/rearranged_h_0186.sdf

> <i_m_source_file_index>
62

> <r_mmod_Potential_Energy-OPLS-2005>
439.006164550781

> <r_mmod_Stretch_Energy-OPLS-2005>
170.693756103516

> <r_mmod_Bend_Energy-OPLS-2005>
206.385055541992

> <r_mmod_Torsional_Energy-OPLS-2005>
303.267242431641

> <r_mmod_Improper_Torsional_Energy-OPLS-2005>
16.1883773803711

> <r_mmod_Van_der_Waal_Energy-OPLS-2005>
134.18408203125

> <r_mmod_Electrostatic_Energy-OPLS-2005>
-293.009338378906

> <r_mmod_Solvation_Energy-OPLS-2005>
-216.820281982422

> <b_mmod_Minimization_Converged-OPLS-2005>
0

> <r_mmod_RMS_Derivative-OPLS-2005>
0.468687683343887

$$$$
63
                    3D
 Structure written by MMmdl.
152161  0  0  1  0            999 V2000
  -30.3935  -15.3817   20.3575 C   0  0  0  0  0  0
  -30.4364  -12.8864   19.5558 C   0  0  0  0  0  0
  -29.5482  -12.6073   18.3137 C   0  0  0  0  0  0
  -28.0993  -12.3124   18.7324 C   0  0  0  0  0  0
  -27.6101  -13.2901   19.8285 C   0  0  2  0  0  0
  -28.6334  -13.5054   20.9667 C   0  0  0  0  0  0
  -25.2359  -13.8268   20.5756 C   0  0  0  0  0  0
  -24.1729  -13.0438   20.9258 C   0  0  0  0  0  0
  -24.6407  -11.6944   20.8756 C   0  0  0  0  0  0
  -23.9109  -10.4296   21.0409 C   0  0  0  0  0  0
  -24.3650   -9.4204   21.9180 C   0  0  0  0  0  0
  -23.6302   -8.2257   22.0762 C   0  0  0  0  0  0
  -22.4281   -8.0302   21.3557 C   0  0  0  0  0  0
  -21.9923   -9.0274   20.4658 C   0  0  0  0  0  0
  -22.7276  -10.2138   20.3053 C   0  0  0  0  0  0
  -21.6858   -6.0741   22.5276 C   0  0  0  0  0  0
  -21.4026   -6.5642   23.8210 C   0  0  0  0  0  0
  -21.3657   -5.6797   24.9174 C   0  0  0  0  0  0
  -21.6038   -4.3060   24.7221 C   0  0  0  0  0  0
  -21.8818   -3.8149   23.4341 C   0  0  0  0  0  0
  -21.9191   -4.6969   22.3395 C   0  0  0  0  0  0
  -22.7740  -13.5187   21.1899 C   0  0  0  0  0  0
  -22.1661   -4.2158   21.0974 F   0  0  0  0  0  0
  -21.5619   -3.4536   25.7730 F   0  0  0  0  0  0
  -29.8583  -14.0466   20.3503 N   0  0  0  0  0  0
  -26.2809  -12.9573   20.3234 N   0  0  0  0  0  0
  -25.9350  -11.6661   20.5708 N   0  0  0  0  0  0
  -22.0409  -12.8173   22.0458 N   0  0  0  0  0  0
  -25.3979  -15.2008   20.4201 N   0  0  0  0  0  0
  -31.5994  -15.3757   20.0649 O   0  0  0  0  0  0
  -21.6650   -6.8890   21.4242 O   0  0  0  0  0  0
  -22.3421  -14.5477   20.6732 O   0  0  0  0  0  0
  -24.6691  -31.8146   23.1642 C   0  0  0  0  0  0
  -25.9341  -32.4535   23.8133 C   0  0  1  0  0  0
  -27.2242  -26.8515   20.1939 C   0  0  0  0  0  0
  -25.5974  -33.8356   24.2032 N   0  0  0  0  0  0
  -23.4893  -30.4221   21.5134 C   0  0  2  0  0  0
  -24.9461  -28.7945   20.1106 C   0  0  0  0  0  0
  -22.7705  -29.4386   22.4750 C   0  0  0  0  0  0
  -18.0330  -28.1408   22.8455 C   0  0  0  0  0  0
  -24.1503  -36.7191   23.2651 C   0  0  0  0  0  0
  -26.0623  -30.5949   21.4085 C   0  0  0  0  0  0
  -26.1294  -29.1772   20.7521 C   0  0  0  0  0  0
  -27.2581  -28.2271   20.7709 C   0  0  0  0  0  0
  -26.0133  -26.6429   19.4924 C   0  0  0  0  0  0
  -24.9175  -27.5493   19.4599 C   0  0  0  0  0  0
  -23.7343  -29.7308   20.1422 C   0  0  0  0  0  0
  -25.4146  -36.2939   24.0294 C   0  0  1  0  0  0
  -20.5962  -28.3757   23.1167 C   0  0  2  0  0  0
  -20.6801  -26.9429   22.5402 C   0  0  0  0  0  0
  -19.5776  -26.6366   21.5214 C   0  0  0  0  0  0
  -18.1962  -26.7936   22.1625 C   0  0  0  0  0  0
  -19.1592  -28.8907   23.2797 C   0  0  0  0  0  0
  -18.9502  -30.1496   23.8836 C   0  0  0  0  0  0
  -17.6491  -30.6589   24.0553 C   0  0  0  0  0  0
  -25.9112  -34.9316   23.4993 C   0  0  0  0  0  0
  -16.5384  -29.9075   23.6340 C   0  0  0  0  0  0
  -16.7314  -28.6499   23.0355 C   0  0  0  0  0  0
  -26.4555  -31.6519   25.0705 C   0  0  0  0  0  0
  -25.3660  -31.3804   26.1354 C   0  0  0  0  0  0
  -27.0463  -30.2868   24.6522 C   0  0  0  0  0  0
  -27.6040  -32.4345   25.7508 C   0  0  0  0  0  0
  -27.5571  -37.1754   24.8465 C   0  0  0  0  0  0
  -21.4373  -29.3029   22.3499 N   0  0  0  0  0  0
  -26.4285  -37.3681   23.9396 N   0  0  0  0  0  0
  -24.7620  -30.9733   22.0819 N   0  0  0  0  0  0
  -23.4213  -28.7977   23.3037 O   0  0  0  0  0  0
  -28.2009  -25.7017   20.3160 O   0  0  0  0  0  0
  -26.5739  -34.8865   22.4605 O   0  0  0  0  0  0
  -23.5745  -32.1159   23.6675 O   0  0  0  0  0  0
  -29.2106  -22.5137   21.8535 C   0  0  0  0  0  0
  -29.6602  -21.3167   22.4666 C   0  0  0  0  0  0
  -28.7252  -22.5334   20.5393 C   0  0  0  0  0  0
  -29.2958  -19.9203   20.6126 C   0  0  0  0  0  0
  -29.3613  -20.8179   25.0248 C   0  0  0  0  0  0
  -29.6701  -22.2927   24.9197 C   0  0  0  0  0  0
  -30.1912  -21.3328   23.8723 C   0  0  0  0  0  0
  -28.0147  -24.0651   19.9466 C   0  0  0  0  0  0
  -29.6826  -18.2970   19.9832 C   0  0  0  0  0  0
  -29.6827  -20.0888   21.8747 N   0  0  0  0  0  0
  -28.8170  -21.1536   19.9659 N   0  0  0  0  0  0
  -29.6303  -16.6713   20.4983 N   0  0  0  0  0  0
  -31.4537  -13.0965   19.2234 H   0  0  0  0  0  0
  -30.5204  -11.9937   20.1776 H   0  0  0  0  0  0
  -29.9479  -11.7729   17.7360 H   0  0  0  0  0  0
  -29.5696  -13.4759   17.6532 H   0  0  0  0  0  0
  -28.0665  -11.2898   19.1107 H   0  0  0  0  0  0
  -27.4376  -12.3426   17.8659 H   0  0  0  0  0  0
  -27.5124  -14.2475   19.3163 H   0  0  0  0  0  0
  -28.8202  -12.5818   21.5175 H   0  0  0  0  0  0
  -28.2449  -14.2237   21.6900 H   0  0  0  0  0  0
  -25.2794   -9.5676   22.4757 H   0  0  0  0  0  0
  -24.0003   -7.4641   22.7474 H   0  0  0  0  0  0
  -21.0855   -8.8801   19.8957 H   0  0  0  0  0  0
  -22.3740  -10.9679   19.6165 H   0  0  0  0  0  0
  -21.2041   -7.6152   23.9716 H   0  0  0  0  0  0
  -21.1476   -6.0530   25.9076 H   0  0  0  0  0  0
  -22.0598   -2.7611   23.2840 H   0  0  0  0  0  0
  -22.4053  -11.9858   22.4871 H   0  0  0  0  0  0
  -21.1020  -13.1179   22.2655 H   0  0  0  0  0  0
  -24.6238  -15.8471   20.5347 H   0  0  0  0  0  0
  -26.2315  -15.6439   20.0577 H   0  0  0  0  0  0
  -26.7422  -32.5045   23.0854 H   0  0  0  0  0  0
  -25.0003  -33.9418   25.0098 H   0  0  0  0  0  0
  -22.8072  -31.2562   21.3356 H   0  0  0  0  0  0
  -23.3767  -35.9520   23.3288 H   0  0  0  0  0  0
  -24.3576  -36.8868   22.2072 H   0  0  0  0  0  0
  -23.7265  -37.6372   23.6732 H   0  0  0  0  0  0
  -26.2542  -31.3319   20.6277 H   0  0  0  0  0  0
  -26.9175  -30.6514   22.0701 H   0  0  0  0  0  0
  -28.1470  -28.5169   21.3131 H   0  0  0  0  0  0
  -25.8694  -25.6948   18.9954 H   0  0  0  0  0  0
  -24.0191  -27.2498   18.9385 H   0  0  0  0  0  0
  -23.8970  -30.4969   19.3836 H   0  0  0  0  0  0
  -22.8429  -29.1886   19.8223 H   0  0  0  0  0  0
  -25.1350  -36.1727   25.0785 H   0  0  0  0  0  0
  -21.0042  -28.3372   24.1296 H   0  0  0  0  0  0
  -20.5669  -26.2379   23.3653 H   0  0  0  0  0  0
  -21.6667  -26.7385   22.1219 H   0  0  0  0  0  0
  -19.6935  -25.6261   21.1284 H   0  0  0  0  0  0
  -19.6717  -27.3142   20.6719 H   0  0  0  0  0  0
  -17.4228  -26.6664   21.4041 H   0  0  0  0  0  0
  -18.0370  -26.0098   22.9043 H   0  0  0  0  0  0
  -19.7980  -30.7332   24.2175 H   0  0  0  0  0  0
  -17.5040  -31.6266   24.5170 H   0  0  0  0  0  0
  -15.5378  -30.2955   23.7699 H   0  0  0  0  0  0
  -15.8717  -28.0796   22.7096 H   0  0  0  0  0  0
  -24.5824  -30.7188   25.7644 H   0  0  0  0  0  0
  -24.8880  -32.3024   26.4676 H   0  0  0  0  0  0
  -25.7862  -30.9009   27.0205 H   0  0  0  0  0  0
  -26.3148  -29.6519   24.1519 H   0  0  0  0  0  0
  -27.3927  -29.7279   25.5225 H   0  0  0  0  0  0
  -27.9120  -30.4017   24.0001 H   0  0  0  0  0  0
  -27.2595  -33.3677   26.1976 H   0  0  0  0  0  0
  -28.3902  -32.6858   25.0376 H   0  0  0  0  0  0
  -28.0658  -31.8552   26.5515 H   0  0  0  0  0  0
  -28.2573  -38.0060   24.7488 H   0  0  0  0  0  0
  -28.1080  -36.2584   24.6321 H   0  0  0  0  0  0
  -27.2282  -37.1430   25.8865 H   0  0  0  0  0  0
  -20.9647  -29.8691   21.6592 H   0  0  0  0  0  0
  -26.0128  -38.2740   24.1380 H   0  0  0  0  0  0
  -29.2186  -23.4438   22.4083 H   0  0  0  0  0  0
  -28.3404  -20.5068   24.8124 H   0  0  0  0  0  0
  -29.8701  -20.2602   25.8083 H   0  0  0  0  0  0
  -30.3920  -22.7028   25.6225 H   0  0  0  0  0  0
  -28.8457  -22.9533   24.6583 H   0  0  0  0  0  0
  -31.2587  -21.1196   23.8832 H   0  0  0  0  0  0
  -26.9454  -23.8913   20.0666 H   0  0  0  0  0  0
  -28.1670  -24.0197   18.8684 H   0  0  0  0  0  0
  -30.7092  -18.4113   19.6375 H   0  0  0  0  0  0
  -29.1047  -18.2658   19.0604 H   0  0  0  0  0  0
  -28.7107  -16.4801   20.8663 H   0  0  0  0  0  0
  1 25  1  0  0  0
  1 30  2  0  0  0
  1 82  1  0  0  0
  2  3  1  0  0  0
  2 25  1  0  0  0
  2 83  1  0  0  0
  2 84  1  0  0  0
  3  4  1  0  0  0
  3 85  1  0  0  0
  3 86  1  0  0  0
  4  5  1  0  0  0
  4 87  1  0  0  0
  4 88  1  0  0  0
  5  6  1  0  0  0
  5 26  1  0  0  0
  5 89  1  0  0  0
  6 25  1  0  0  0
  6 90  1  0  0  0
  6 91  1  0  0  0
  7  8  2  0  0  0
  7 26  1  0  0  0
  7 29  1  0  0  0
  8  9  1  0  0  0
  8 22  1  0  0  0
  9 10  1  0  0  0
  9 27  2  0  0  0
 10 11  2  0  0  0
 10 15  1  0  0  0
 11 12  1  0  0  0
 11 92  1  0  0  0
 12 13  2  0  0  0
 12 93  1  0  0  0
 13 14  1  0  0  0
 13 31  1  0  0  0
 14 15  2  0  0  0
 14 94  1  0  0  0
 15 95  1  0  0  0
 16 17  2  0  0  0
 16 21  1  0  0  0
 16 31  1  0  0  0
 17 18  1  0  0  0
 17 96  1  0  0  0
 18 19  2  0  0  0
 18 97  1  0  0  0
 19 20  1  0  0  0
 19 24  1  0  0  0
 20 21  2  0  0  0
 20 98  1  0  0  0
 21 23  1  0  0  0
 22 28  1  0  0  0
 22 32  2  0  0  0
 26 27  1  0  0  0
 28 99  1  0  0  0
 28100  1  0  0  0
 29101  1  0  0  0
 29102  1  0  0  0
 33 34  1  0  0  0
 33 66  1  0  0  0
 33 70  2  0  0  0
 34 36  1  0  0  0
 34 59  1  0  0  0
 34103  1  0  0  0
 35 44  2  0  0  0
 35 45  1  0  0  0
 35 68  1  0  0  0
 36 56  1  0  0  0
 36104  1  0  0  0
 37 39  1  0  0  0
 37 47  1  0  0  0
 37 66  1  0  0  0
 37105  1  0  0  0
 38 43  2  0  0  0
 38 46  1  0  0  0
 38 47  1  0  0  0
 39 64  1  0  0  0
 39 67  2  0  0  0
 40 52  1  0  0  0
 40 53  2  0  0  0
 40 58  1  0  0  0
 41106  1  0  0  0
 41107  1  0  0  0
 41108  1  0  0  0
 41 48  1  0  0  0
 42 43  1  0  0  0
 42 66  1  0  0  0
 42109  1  0  0  0
 42110  1  0  0  0
 43 44  1  0  0  0
 44111  1  0  0  0
 45 46  2  0  0  0
 45112  1  0  0  0
 46113  1  0  0  0
 47114  1  0  0  0
 47115  1  0  0  0
 48 56  1  0  0  0
 48 65  1  0  0  0
 48116  1  0  0  0
 49 50  1  0  0  0
 49 53  1  0  0  0
 49 64  1  0  0  0
 49117  1  0  0  0
 50 51  1  0  0  0
 50118  1  0  0  0
 50119  1  0  0  0
 51 52  1  0  0  0
 51120  1  0  0  0
 51121  1  0  0  0
 52122  1  0  0  0
 52123  1  0  0  0
 53 54  1  0  0  0
 54 55  2  0  0  0
 54124  1  0  0  0
 55 57  1  0  0  0
 55125  1  0  0  0
 56 69  2  0  0  0
 57 58  2  0  0  0
 57126  1  0  0  0
 58127  1  0  0  0
 59 60  1  0  0  0
 59 61  1  0  0  0
 59 62  1  0  0  0
 60128  1  0  0  0
 60129  1  0  0  0
 60130  1  0  0  0
 61131  1  0  0  0
 61132  1  0  0  0
 61133  1  0  0  0
 62134  1  0  0  0
 62135  1  0  0  0
 62136  1  0  0  0
 63 65  1  0  0  0
 63137  1  0  0  0
 63138  1  0  0  0
 63139  1  0  0  0
 64140  1  0  0  0
 65141  1  0  0  0
 68 78  1  0  0  0
 71 72  2  0  0  0
 71 73  1  0  0  0
 71142  1  0  0  0
 72 80  1  0  0  0
 72 77  1  0  0  0
 73 78  1  0  0  0
 73 81  2  0  0  0
 74 79  1  0  0  0
 74 80  2  0  0  0
 74 81  1  0  0  0
 75 76  1  0  0  0
 75 77  1  0  0  0
 75143  1  0  0  0
 75144  1  0  0  0
 76 77  1  0  0  0
 76145  1  0  0  0
 76146  1  0  0  0
 77147  1  0  0  0
 78148  1  0  0  0
 78149  1  0  0  0
 79 82  1  0  0  0
 79150  1  0  0  0
 79151  1  0  0  0
 82152  1  0  0  0
M  ISO  4   1 100  68 101  78 101  82 100
M  END
> <chiral flag>
0

> <version>
0

> <s_m_source_file>
/data/baiqing/PycharmProjects/Reinvent-master-3.2/result/LINK_invent/BTK/process_docking_weight1_custom_sum_contain_oxygen_bond_distance_aromatic_linkinvent_7_9_3/rearranged_h_0186.sdf

> <i_m_source_file_index>
63

> <r_mmod_Potential_Energy-OPLS-2005>
1004.34173583984

> <r_mmod_Stretch_Energy-OPLS-2005>
696.400085449219

> <r_mmod_Bend_Energy-OPLS-2005>
488.598602294922

> <r_mmod_Torsional_Energy-OPLS-2005>
240.894897460938

> <r_mmod_Improper_Torsional_Energy-OPLS-2005>
5.96587133407593

> <r_mmod_Van_der_Waal_Energy-OPLS-2005>
127.033218383789

> <r_mmod_Electrostatic_Energy-OPLS-2005>
-884.63232421875

> <r_mmod_Solvation_Energy-OPLS-2005>
-257.952239990234

> <b_mmod_Minimization_Converged-OPLS-2005>
0

> <r_mmod_RMS_Derivative-OPLS-2005>
1.76397836208344

$$$$
64
                    3D
 Structure written by MMmdl.
153162  0  0  1  0            999 V2000
  -30.5519  -15.1365   20.3833 C   0  0  0  0  0  0
  -30.4199  -12.7313   19.5015 C   0  0  0  0  0  0
  -29.5163  -12.5355   18.2640 C   0  0  0  0  0  0
  -28.0590  -12.3014   18.6924 C   0  0  0  0  0  0
  -27.6040  -13.2744   19.8106 C   0  0  2  0  0  0
  -28.6451  -13.4437   20.9368 C   0  0  0  0  0  0
  -25.2303  -13.8224   20.5663 C   0  0  0  0  0  0
  -24.1698  -13.0432   20.9282 C   0  0  0  0  0  0
  -24.6343  -11.6916   20.8792 C   0  0  0  0  0  0
  -23.9052  -10.4273   21.0416 C   0  0  0  0  0  0
  -24.3599   -9.4163   21.9175 C   0  0  0  0  0  0
  -23.6283   -8.2195   22.0734 C   0  0  0  0  0  0
  -22.4278   -8.0226   21.3517 C   0  0  0  0  0  0
  -21.9927   -9.0212   20.4620 C   0  0  0  0  0  0
  -22.7237  -10.2114   20.3040 C   0  0  0  0  0  0
  -21.6827   -6.0712   22.5313 C   0  0  0  0  0  0
  -21.4005   -6.5624   23.8243 C   0  0  0  0  0  0
  -21.3677   -5.6792   24.9224 C   0  0  0  0  0  0
  -21.6044   -4.3053   24.7287 C   0  0  0  0  0  0
  -21.8819   -3.8138   23.4404 C   0  0  0  0  0  0
  -21.9188   -4.6951   22.3445 C   0  0  0  0  0  0
  -22.7708  -13.5177   21.1933 C   0  0  0  0  0  0
  -22.1655   -4.2118   21.1029 F   0  0  0  0  0  0
  -21.5594   -3.4529   25.7799 F   0  0  0  0  0  0
  -29.8843  -13.8961   20.2905 N   0  0  0  0  0  0
  -26.2759  -12.9521   20.3173 N   0  0  0  0  0  0
  -25.9285  -11.6630   20.5735 N   0  0  0  0  0  0
  -22.0360  -12.8168   22.0474 N   0  0  0  0  0  0
  -25.3862  -15.1952   20.3880 N   0  0  0  0  0  0
  -31.7776  -15.0406   20.2353 O   0  0  0  0  0  0
  -21.6599   -6.8840   21.4260 O   0  0  0  0  0  0
  -22.3412  -14.5495   20.6759 O   0  0  0  0  0  0
  -24.6525  -31.8339   23.1813 C   0  0  0  0  0  0
  -25.9224  -32.4663   23.8249 C   0  0  1  0  0  0
  -27.2008  -27.0036   20.1731 C   0  0  0  0  0  0
  -25.5901  -33.8471   24.2151 N   0  0  0  0  0  0
  -23.4665  -30.4443   21.5332 C   0  0  2  0  0  0
  -24.9147  -28.8530   20.1180 C   0  0  0  0  0  0
  -22.7622  -29.4466   22.4893 C   0  0  0  0  0  0
  -18.0298  -28.1386   22.8486 C   0  0  0  0  0  0
  -24.1500  -36.7198   23.2655 C   0  0  0  0  0  0
  -26.0308  -30.6652   21.4043 C   0  0  0  0  0  0
  -26.0989  -29.2643   20.7432 C   0  0  0  0  0  0
  -27.2396  -28.3556   20.7514 C   0  0  0  0  0  0
  -25.9960  -26.7402   19.4845 C   0  0  0  0  0  0
  -24.8824  -27.6082   19.4771 C   0  0  0  0  0  0
  -23.6992  -29.7668   20.1584 C   0  0  0  0  0  0
  -25.4152  -36.3026   24.0322 C   0  0  1  0  0  0
  -20.5922  -28.3717   23.1245 C   0  0  2  0  0  0
  -20.6777  -26.9416   22.5428 C   0  0  0  0  0  0
  -19.5757  -26.6372   21.5229 C   0  0  0  0  0  0
  -18.1935  -26.7920   22.1637 C   0  0  0  0  0  0
  -19.1557  -28.8879   23.2848 C   0  0  0  0  0  0
  -18.9464  -30.1464   23.8889 C   0  0  0  0  0  0
  -17.6464  -30.6592   24.0542 C   0  0  0  0  0  0
  -25.9089  -34.9387   23.5072 C   0  0  0  0  0  0
  -16.5353  -29.9087   23.6327 C   0  0  0  0  0  0
  -16.7281  -28.6489   23.0384 C   0  0  0  0  0  0
  -26.4526  -31.6573   25.0723 C   0  0  0  0  0  0
  -25.3663  -31.3778   26.1381 C   0  0  0  0  0  0
  -27.0407  -30.2955   24.6378 C   0  0  0  0  0  0
  -27.6090  -32.4344   25.7471 C   0  0  0  0  0  0
  -27.5581  -37.1787   24.8495 C   0  0  0  0  0  0
  -21.4303  -29.3012   22.3598 N   0  0  0  0  0  0
  -26.4331  -37.3731   23.9381 N   0  0  0  0  0  0
  -24.7374  -31.0066   22.0935 N   0  0  0  0  0  0
  -23.4190  -28.8021   23.3115 O   0  0  0  0  0  0
  -28.1884  -25.9168   20.2899 O   0  0  0  0  0  0
  -26.5717  -34.8885   22.4679 O   0  0  0  0  0  0
  -23.5597  -32.1262   23.6925 O   0  0  0  0  0  0
  -29.4293  -20.5871   22.0675 C   0  0  0  0  0  0
  -28.8499  -22.9824   21.9757 C   0  0  0  0  0  0
  -29.2733  -21.8416   22.6963 C   0  0  0  0  0  0
  -29.1482  -20.3821   20.7059 C   0  0  0  0  0  0
  -28.5641  -22.9261   20.6003 C   0  0  0  0  0  0
  -30.7093  -17.8507   20.4385 C   0  0  0  0  0  0
  -28.7194  -17.3305   20.5526 C   0  0  0  0  0  0
  -29.4119  -18.7665   20.1782 C   0  0  0  0  0  0
  -29.5398  -21.9401   24.1842 C   0  0  0  0  0  0
  -27.9154  -24.3635   19.9301 C   0  0  0  0  0  0
  -28.7129  -21.5913   20.0078 N   0  0  0  0  0  0
  -29.9914  -16.4980   20.3595 N   0  0  0  0  0  0
  -31.4433  -12.8976   19.1577 H   0  0  0  0  0  0
  -30.4596  -11.8263   20.1097 H   0  0  0  0  0  0
  -29.8689  -11.6968   17.6624 H   0  0  0  0  0  0
  -29.5778  -13.4195   17.6269 H   0  0  0  0  0  0
  -27.9805  -11.2716   19.0427 H   0  0  0  0  0  0
  -27.3974  -12.3760   17.8287 H   0  0  0  0  0  0
  -27.5189  -14.2440   19.3176 H   0  0  0  0  0  0
  -28.7871  -12.5223   21.5026 H   0  0  0  0  0  0
  -28.3079  -14.2041   21.6449 H   0  0  0  0  0  0
  -25.2755   -9.5592   22.4733 H   0  0  0  0  0  0
  -23.9973   -7.4590   22.7469 H   0  0  0  0  0  0
  -21.0858   -8.8732   19.8933 H   0  0  0  0  0  0
  -22.3683  -10.9632   19.6125 H   0  0  0  0  0  0
  -21.1973   -7.6127   23.9744 H   0  0  0  0  0  0
  -21.1487   -6.0515   25.9121 H   0  0  0  0  0  0
  -22.0566   -2.7575   23.2933 H   0  0  0  0  0  0
  -22.4017  -11.9913   22.4985 H   0  0  0  0  0  0
  -21.0921  -13.1080   22.2556 H   0  0  0  0  0  0
  -24.5747  -15.8057   20.3884 H   0  0  0  0  0  0
  -26.1851  -15.6044   19.9215 H   0  0  0  0  0  0
  -26.7284  -32.5216   23.0963 H   0  0  0  0  0  0
  -24.9951  -33.9612   25.0228 H   0  0  0  0  0  0
  -22.7743  -31.2706   21.3695 H   0  0  0  0  0  0
  -23.3795  -35.9510   23.3385 H   0  0  0  0  0  0
  -24.3552  -36.8740   22.2053 H   0  0  0  0  0  0
  -23.7226  -37.6400   23.6637 H   0  0  0  0  0  0
  -26.1999  -31.4207   20.6350 H   0  0  0  0  0  0
  -26.8949  -30.7178   22.0563 H   0  0  0  0  0  0
  -28.1388  -28.6602   21.2707 H   0  0  0  0  0  0
  -25.8602  -25.7988   18.9732 H   0  0  0  0  0  0
  -23.9731  -27.2836   18.9892 H   0  0  0  0  0  0
  -23.8480  -30.5342   19.4001 H   0  0  0  0  0  0
  -22.8133  -29.2086   19.8513 H   0  0  0  0  0  0
  -25.1354  -36.1903   25.0826 H   0  0  0  0  0  0
  -20.9978  -28.3312   24.1384 H   0  0  0  0  0  0
  -20.5660  -26.2332   23.3650 H   0  0  0  0  0  0
  -21.6641  -26.7403   22.1232 H   0  0  0  0  0  0
  -19.6926  -25.6280   21.1269 H   0  0  0  0  0  0
  -19.6697  -27.3184   20.6759 H   0  0  0  0  0  0
  -17.4197  -26.6655   21.4043 H   0  0  0  0  0  0
  -18.0333  -26.0068   22.9040 H   0  0  0  0  0  0
  -19.7944  -30.7259   24.2284 H   0  0  0  0  0  0
  -17.5019  -31.6282   24.5119 H   0  0  0  0  0  0
  -15.5360  -30.2983   23.7647 H   0  0  0  0  0  0
  -15.8676  -28.0775   22.7168 H   0  0  0  0  0  0
  -24.5902  -30.7084   25.7646 H   0  0  0  0  0  0
  -24.8760  -32.2943   26.4675 H   0  0  0  0  0  0
  -25.7874  -30.9014   27.0241 H   0  0  0  0  0  0
  -26.3076  -29.6681   24.1295 H   0  0  0  0  0  0
  -27.3889  -29.7266   25.5006 H   0  0  0  0  0  0
  -27.9032  -30.4181   23.9829 H   0  0  0  0  0  0
  -27.2761  -33.3710   26.1970 H   0  0  0  0  0  0
  -28.3909  -32.6793   25.0265 H   0  0  0  0  0  0
  -28.0759  -31.8496   26.5410 H   0  0  0  0  0  0
  -28.2690  -37.9990   24.7412 H   0  0  0  0  0  0
  -28.0978  -36.2505   24.6526 H   0  0  0  0  0  0
  -27.2238  -37.1679   25.8883 H   0  0  0  0  0  0
  -20.9565  -29.8681   21.6707 H   0  0  0  0  0  0
  -26.0210  -38.2823   24.1302 H   0  0  0  0  0  0
  -29.7707  -19.7506   22.6627 H   0  0  0  0  0  0
  -28.7073  -23.9247   22.4887 H   0  0  0  0  0  0
  -31.1364  -18.0334   21.4250 H   0  0  0  0  0  0
  -31.4869  -17.9975   19.6881 H   0  0  0  0  0  0
  -27.9048  -17.0663   19.8766 H   0  0  0  0  0  0
  -28.3586  -17.2998   21.5796 H   0  0  0  0  0  0
  -29.3381  -18.8569   19.0938 H   0  0  0  0  0  0
  -29.1115  -21.0772   24.6985 H   0  0  0  0  0  0
  -29.0949  -22.8411   24.6049 H   0  0  0  0  0  0
  -30.6125  -21.9568   24.3785 H   0  0  0  0  0  0
  -28.0100  -24.2839   18.8477 H   0  0  0  0  0  0
  -26.8514  -24.2294   20.1175 H   0  0  0  0  0  0
  1 25  1  0  0  0
  1 30  2  0  0  0
  1 82  1  0  0  0
  2  3  1  0  0  0
  2 25  1  0  0  0
  2 83  1  0  0  0
  2 84  1  0  0  0
  3  4  1  0  0  0
  3 85  1  0  0  0
  3 86  1  0  0  0
  4  5  1  0  0  0
  4 87  1  0  0  0
  4 88  1  0  0  0
  5  6  1  0  0  0
  5 26  1  0  0  0
  5 89  1  0  0  0
  6 25  1  0  0  0
  6 90  1  0  0  0
  6 91  1  0  0  0
  7  8  2  0  0  0
  7 26  1  0  0  0
  7 29  1  0  0  0
  8  9  1  0  0  0
  8 22  1  0  0  0
  9 10  1  0  0  0
  9 27  2  0  0  0
 10 11  2  0  0  0
 10 15  1  0  0  0
 11 12  1  0  0  0
 11 92  1  0  0  0
 12 13  2  0  0  0
 12 93  1  0  0  0
 13 14  1  0  0  0
 13 31  1  0  0  0
 14 15  2  0  0  0
 14 94  1  0  0  0
 15 95  1  0  0  0
 16 17  2  0  0  0
 16 21  1  0  0  0
 16 31  1  0  0  0
 17 18  1  0  0  0
 17 96  1  0  0  0
 18 19  2  0  0  0
 18 97  1  0  0  0
 19 20  1  0  0  0
 19 24  1  0  0  0
 20 21  2  0  0  0
 20 98  1  0  0  0
 21 23  1  0  0  0
 22 28  1  0  0  0
 22 32  2  0  0  0
 26 27  1  0  0  0
 28 99  1  0  0  0
 28100  1  0  0  0
 29101  1  0  0  0
 29102  1  0  0  0
 33 34  1  0  0  0
 33 66  1  0  0  0
 33 70  2  0  0  0
 34 36  1  0  0  0
 34 59  1  0  0  0
 34103  1  0  0  0
 35 44  2  0  0  0
 35 45  1  0  0  0
 35 68  1  0  0  0
 36 56  1  0  0  0
 36104  1  0  0  0
 37 39  1  0  0  0
 37 47  1  0  0  0
 37 66  1  0  0  0
 37105  1  0  0  0
 38 43  2  0  0  0
 38 46  1  0  0  0
 38 47  1  0  0  0
 39 64  1  0  0  0
 39 67  2  0  0  0
 40 52  1  0  0  0
 40 53  2  0  0  0
 40 58  1  0  0  0
 41106  1  0  0  0
 41107  1  0  0  0
 41108  1  0  0  0
 41 48  1  0  0  0
 42 43  1  0  0  0
 42 66  1  0  0  0
 42109  1  0  0  0
 42110  1  0  0  0
 43 44  1  0  0  0
 44111  1  0  0  0
 45 46  2  0  0  0
 45112  1  0  0  0
 46113  1  0  0  0
 47114  1  0  0  0
 47115  1  0  0  0
 48 56  1  0  0  0
 48 65  1  0  0  0
 48116  1  0  0  0
 49 50  1  0  0  0
 49 53  1  0  0  0
 49 64  1  0  0  0
 49117  1  0  0  0
 50 51  1  0  0  0
 50118  1  0  0  0
 50119  1  0  0  0
 51 52  1  0  0  0
 51120  1  0  0  0
 51121  1  0  0  0
 52122  1  0  0  0
 52123  1  0  0  0
 53 54  1  0  0  0
 54 55  2  0  0  0
 54124  1  0  0  0
 55 57  1  0  0  0
 55125  1  0  0  0
 56 69  2  0  0  0
 57 58  2  0  0  0
 57126  1  0  0  0
 58127  1  0  0  0
 59 60  1  0  0  0
 59 61  1  0  0  0
 59 62  1  0  0  0
 60128  1  0  0  0
 60129  1  0  0  0
 60130  1  0  0  0
 61131  1  0  0  0
 61132  1  0  0  0
 61133  1  0  0  0
 62134  1  0  0  0
 62135  1  0  0  0
 62136  1  0  0  0
 63 65  1  0  0  0
 63137  1  0  0  0
 63138  1  0  0  0
 63139  1  0  0  0
 64140  1  0  0  0
 65141  1  0  0  0
 68 80  1  0  0  0
 71 73  2  0  0  0
 71 74  1  0  0  0
 71142  1  0  0  0
 72 73  1  0  0  0
 72 75  2  0  0  0
 72143  1  0  0  0
 73 79  1  0  0  0
 74 81  2  0  0  0
 74 78  1  0  0  0
 75 80  1  0  0  0
 75 81  1  0  0  0
 76 78  1  0  0  0
 76 82  1  0  0  0
 76144  1  0  0  0
 76145  1  0  0  0
 77 78  1  0  0  0
 77 82  1  0  0  0
 77146  1  0  0  0
 77147  1  0  0  0
 78148  1  0  0  0
 79149  1  0  0  0
 79150  1  0  0  0
 79151  1  0  0  0
 80152  1  0  0  0
 80153  1  0  0  0
M  ISO  4   1 100  68 101  80 101  82 100
M  END
> <chiral flag>
0

> <version>
0

> <s_m_source_file>
/data/baiqing/PycharmProjects/Reinvent-master-3.2/result/LINK_invent/BTK/process_docking_weight1_custom_sum_contain_oxygen_bond_distance_aromatic_linkinvent_7_9_3/rearranged_h_0186.sdf

> <i_m_source_file_index>
64

> <r_mmod_Potential_Energy-OPLS-2005>
884.855163574219

> <r_mmod_Stretch_Energy-OPLS-2005>
404.200164794922

> <r_mmod_Bend_Energy-OPLS-2005>
392.309539794922

> <r_mmod_Torsional_Energy-OPLS-2005>
266.662872314453

> <r_mmod_Improper_Torsional_Energy-OPLS-2005>
9.51478385925293

> <r_mmod_Van_der_Waal_Energy-OPLS-2005>
124.282241821289

> <r_mmod_Electrostatic_Energy-OPLS-2005>
-431.675872802734

> <r_mmod_Solvation_Energy-OPLS-2005>
-231.836441040039

> <b_mmod_Minimization_Converged-OPLS-2005>
0

> <r_mmod_RMS_Derivative-OPLS-2005>
4.12371349334717

$$$$
65
                    3D
 Structure written by MMmdl.
152160  0  0  1  0            999 V2000
  -29.5022  -14.7306   19.5803 C   0  0  0  0  0  0
  -30.4822  -12.5047   19.1872 C   0  0  0  0  0  0
  -29.4264  -12.0901   18.1467 C   0  0  0  0  0  0
  -28.1263  -11.6220   18.8787 C   0  0  0  0  0  0
  -27.8799  -12.4800   20.1392 C   0  0  2  0  0  0
  -29.0091  -12.8471   21.0256 C   0  0  0  0  0  0
  -26.2477  -13.9958   21.2409 C   0  0  0  0  0  0
  -24.9711  -13.9198   21.2251 C   0  0  0  0  0  0
  -24.9438  -12.2069   21.3598 C   0  0  0  0  0  0
  -24.0019  -10.8312   21.3234 C   0  0  0  0  0  0
  -24.4354   -9.6525   22.0339 C   0  0  0  0  0  0
  -23.7397   -8.3961   22.1059 C   0  0  0  0  0  0
  -22.5343   -8.1655   21.4036 C   0  0  0  0  0  0
  -22.1098   -9.2325   20.5900 C   0  0  0  0  0  0
  -22.7835  -10.4953   20.5895 C   0  0  0  0  0  0
  -21.7496   -6.1347   22.5240 C   0  0  0  0  0  0
  -21.4443   -6.5995   23.8253 C   0  0  0  0  0  0
  -21.3761   -5.6992   24.9125 C   0  0  0  0  0  0
  -21.5989   -4.3246   24.7108 C   0  0  0  0  0  0
  -21.8706   -3.8473   23.4184 C   0  0  0  0  0  0
  -21.9362   -4.7434   22.3319 C   0  0  0  0  0  0
  -22.7213  -15.3596   20.2783 C   0  0  0  0  0  0
  -22.1737   -4.2559   21.0904 F   0  0  0  0  0  0
  -21.5518   -3.4643   25.7569 F   0  0  0  0  0  0
  -29.7923  -13.4789   20.0427 N   0  0  0  0  0  0
  -26.7000  -12.7799   20.7315 N   0  0  0  0  0  0
  -26.0090  -11.7136   20.8812 N   0  0  0  0  0  0
  -21.3996  -14.8605   20.4487 N   0  0  0  0  0  0
  -26.9154  -15.1377   21.4064 N   0  0  0  0  0  0
  -30.5955  -15.3587   19.6172 O   0  0  0  0  0  0
  -21.7953   -6.9829   21.4272 O   0  0  0  0  0  0
  -22.5758  -16.3159   19.6263 O   0  0  0  0  0  0
  -24.7117  -31.7517   23.1392 C   0  0  0  0  0  0
  -25.9590  -32.4151   23.7944 C   0  0  1  0  0  0
  -26.4749  -26.0035   20.5125 C   0  0  0  0  0  0
  -25.6057  -33.8035   24.1741 N   0  0  0  0  0  0
  -23.5284  -30.3806   21.5011 C   0  0  2  0  0  0
  -24.8815  -28.6335   20.1069 C   0  0  0  0  0  0
  -22.7791  -29.4105   22.4570 C   0  0  0  0  0  0
  -18.0350  -28.1422   22.8477 C   0  0  0  0  0  0
  -24.1524  -36.7023   23.2658 C   0  0  0  0  0  0
  -26.1019  -30.2354   21.5177 C   0  0  0  0  0  0
  -26.0202  -28.7428   20.9001 C   0  0  0  0  0  0
  -26.8315  -27.4494   21.0613 C   0  0  0  0  0  0
  -25.5542  -26.3034   19.4862 C   0  0  0  0  0  0
  -24.7616  -27.4759   19.3327 C   0  0  0  0  0  0
  -23.7872  -29.7124   20.1176 C   0  0  0  0  0  0
  -25.4177  -36.2710   24.0246 C   0  0  1  0  0  0
  -20.5984  -28.3763   23.1116 C   0  0  2  0  0  0
  -20.6784  -26.9402   22.5411 C   0  0  0  0  0  0
  -19.5733  -26.6346   21.5249 C   0  0  0  0  0  0
  -18.1933  -26.7953   22.1658 C   0  0  0  0  0  0
  -19.1621  -28.8928   23.2781 C   0  0  0  0  0  0
  -18.9509  -30.1520   23.8813 C   0  0  0  0  0  0
  -17.6485  -30.6592   24.0550 C   0  0  0  0  0  0
  -25.9179  -34.9104   23.4850 C   0  0  0  0  0  0
  -16.5381  -29.9059   23.6352 C   0  0  0  0  0  0
  -16.7329  -28.6491   23.0370 C   0  0  0  0  0  0
  -26.4658  -31.6441   25.0774 C   0  0  0  0  0  0
  -25.3609  -31.3906   26.1313 C   0  0  0  0  0  0
  -27.0650  -30.2712   24.7117 C   0  0  0  0  0  0
  -27.6037  -32.4459   25.7534 C   0  0  0  0  0  0
  -27.5559  -37.1667   24.8452 C   0  0  0  0  0  0
  -21.4424  -29.2966   22.3372 N   0  0  0  0  0  0
  -26.4251  -37.3526   23.9408 N   0  0  0  0  0  0
  -24.8174  -30.8478   22.0957 N   0  0  0  0  0  0
  -23.4143  -28.7670   23.2965 O   0  0  0  0  0  0
  -26.7817  -24.3613   20.7313 O   0  0  0  0  0  0
  -26.5860  -34.8744   22.4502 O   0  0  0  0  0  0
  -23.6092  -32.0925   23.6081 O   0  0  0  0  0  0
  -23.4735  -13.2746   19.7375 C   0  0  0  0  0  0
  -24.7766  -14.6559   19.0741 C   0  0  0  0  0  0
  -22.9022  -13.6582   21.8222 C   0  0  0  0  0  0
  -24.5984  -16.6093   21.4131 C   0  0  0  0  0  0
  -26.4813  -14.6620   18.4370 C   0  0  0  0  0  0
  -25.7221  -20.2089   20.9666 C   0  0  0  0  0  0
  -25.8675  -22.5205   21.0074 C   0  0  0  0  0  0
  -25.0672  -16.0654   19.9530 N   0  0  0  0  0  0
  -23.6519  -15.3832   22.4237 N   0  0  0  0  0  0
  -22.0490  -12.9116   22.6213 N   0  0  0  0  0  0
  -24.9251  -18.4626   21.5352 N   0  0  0  0  0  0
  -28.1132  -15.1460   19.0108 N   0  0  0  0  0  0
  -31.3533  -12.9422   18.6939 H   0  0  0  0  0  0
  -30.8442  -11.6454   19.7541 H   0  0  0  0  0  0
  -29.8059  -11.2760   17.5284 H   0  0  0  0  0  0
  -29.2154  -12.9126   17.4610 H   0  0  0  0  0  0
  -28.2802  -10.6005   19.2326 H   0  0  0  0  0  0
  -27.2725  -11.5616   18.1959 H   0  0  0  0  0  0
  -27.6746  -13.0808   19.3701 H   0  0  0  0  0  0
  -29.4795  -11.9659   21.4654 H   0  0  0  0  0  0
  -28.7993  -13.5298   21.8461 H   0  0  0  0  0  0
  -25.3632   -9.7378   22.5842 H   0  0  0  0  0  0
  -24.1679   -7.6060   22.7070 H   0  0  0  0  0  0
  -21.2201   -9.1209   19.9825 H   0  0  0  0  0  0
  -22.2054  -11.2104   20.0391 H   0  0  0  0  0  0
  -21.2618   -7.6501   24.0006 H   0  0  0  0  0  0
  -21.1556   -6.0602   25.9072 H   0  0  0  0  0  0
  -22.0233   -2.7908   23.2623 H   0  0  0  0  0  0
  -20.6321  -15.3748   20.0407 H   0  0  0  0  0  0
  -21.1700  -14.0083   20.9423 H   0  0  0  0  0  0
  -26.3770  -15.6695   20.7008 H   0  0  0  0  0  0
  -27.8763  -15.0913   21.1146 H   0  0  0  0  0  0
  -26.7620  -32.4372   23.0564 H   0  0  0  0  0  0
  -25.0085  -33.9031   24.9817 H   0  0  0  0  0  0
  -22.8789  -31.2399   21.3235 H   0  0  0  0  0  0
  -23.3818  -35.9314   23.3171 H   0  0  0  0  0  0
  -24.3604  -36.8864   22.2107 H   0  0  0  0  0  0
  -23.7259  -37.6126   23.6874 H   0  0  0  0  0  0
  -26.4092  -30.8916   20.7025 H   0  0  0  0  0  0
  -26.9369  -30.2691   22.1998 H   0  0  0  0  0  0
  -27.6470  -27.4972   21.7703 H   0  0  0  0  0  0
  -25.2521  -25.4683   18.8703 H   0  0  0  0  0  0
  -23.9514  -27.4341   18.6169 H   0  0  0  0  0  0
  -24.0781  -30.4751   19.3942 H   0  0  0  0  0  0
  -22.8597  -29.2799   19.7375 H   0  0  0  0  0  0
  -25.1415  -36.1399   25.0730 H   0  0  0  0  0  0
  -21.0086  -28.3399   24.1240 H   0  0  0  0  0  0
  -20.5660  -26.2378   23.3686 H   0  0  0  0  0  0
  -21.6624  -26.7311   22.1205 H   0  0  0  0  0  0
  -19.6838  -25.6237   21.1315 H   0  0  0  0  0  0
  -19.6659  -27.3133   20.6758 H   0  0  0  0  0  0
  -17.4207  -26.6767   21.4055 H   0  0  0  0  0  0
  -18.0259  -26.0119   22.9063 H   0  0  0  0  0  0
  -19.7968  -30.7389   24.2128 H   0  0  0  0  0  0
  -17.5002  -31.6252   24.5172 H   0  0  0  0  0  0
  -15.5359  -30.2902   23.7695 H   0  0  0  0  0  0
  -15.8764  -28.0752   22.7105 H   0  0  0  0  0  0
  -24.5789  -30.7295   25.7568 H   0  0  0  0  0  0
  -24.8814  -32.3174   26.4464 H   0  0  0  0  0  0
  -25.7630  -30.9184   27.0285 H   0  0  0  0  0  0
  -26.3331  -29.6070   24.2514 H   0  0  0  0  0  0
  -27.4200  -29.7510   25.6023 H   0  0  0  0  0  0
  -27.9332  -30.3678   24.0599 H   0  0  0  0  0  0
  -27.2541  -33.3915   26.1692 H   0  0  0  0  0  0
  -28.3987  -32.6789   25.0440 H   0  0  0  0  0  0
  -28.0561  -31.8925   26.5774 H   0  0  0  0  0  0
  -28.2453  -38.0073   24.7546 H   0  0  0  0  0  0
  -28.1178  -36.2584   24.6225 H   0  0  0  0  0  0
  -27.2267  -37.1210   25.8846 H   0  0  0  0  0  0
  -20.9746  -29.8657   21.6464 H   0  0  0  0  0  0
  -26.0022  -38.2535   24.1458 H   0  0  0  0  0  0
  -23.3063  -12.4262   19.0979 H   0  0  0  0  0  0
  -26.3557  -15.4058   17.6487 H   0  0  0  0  0  0
  -26.5691  -13.7752   17.8101 H   0  0  0  0  0  0
  -26.7670  -19.9625   21.1482 H   0  0  0  0  0  0
  -25.6125  -20.0811   19.8905 H   0  0  0  0  0  0
  -25.5228  -22.7034   22.0264 H   0  0  0  0  0  0
  -24.9825  -22.7438   20.4132 H   0  0  0  0  0  0
  -22.0583  -13.0794   23.6207 H   0  0  0  0  0  0
  -21.8927  -11.9456   22.3636 H   0  0  0  0  0  0
  -24.4867  -18.7290   22.4120 H   0  0  0  0  0  0
  -28.2125  -16.1186   18.7538 H   0  0  0  0  0  0
  1 25  1  0  0  0
  1 30  2  0  0  0
  1 82  1  0  0  0
  2  3  1  0  0  0
  2 25  1  0  0  0
  2 83  1  0  0  0
  2 84  1  0  0  0
  3  4  1  0  0  0
  3 85  1  0  0  0
  3 86  1  0  0  0
  4  5  1  0  0  0
  4 87  1  0  0  0
  4 88  1  0  0  0
  5  6  1  0  0  0
  5 26  1  0  0  0
  5 89  1  0  0  0
  6 25  1  0  0  0
  6 90  1  0  0  0
  6 91  1  0  0  0
  7  8  2  0  0  0
  7 26  1  0  0  0
  7 29  1  0  0  0
  8  9  1  0  0  0
  8 22  1  0  0  0
  9 10  1  0  0  0
  9 27  2  0  0  0
 10 11  2  0  0  0
 10 15  1  0  0  0
 11 12  1  0  0  0
 11 92  1  0  0  0
 12 13  2  0  0  0
 12 93  1  0  0  0
 13 14  1  0  0  0
 13 31  1  0  0  0
 14 15  2  0  0  0
 14 94  1  0  0  0
 15 95  1  0  0  0
 16 17  2  0  0  0
 16 21  1  0  0  0
 16 31  1  0  0  0
 17 18  1  0  0  0
 17 96  1  0  0  0
 18 19  2  0  0  0
 18 97  1  0  0  0
 19 20  1  0  0  0
 19 24  1  0  0  0
 20 21  2  0  0  0
 20 98  1  0  0  0
 21 23  1  0  0  0
 22 28  1  0  0  0
 22 32  2  0  0  0
 26 27  1  0  0  0
 28 99  1  0  0  0
 28100  1  0  0  0
 29101  1  0  0  0
 29102  1  0  0  0
 33 34  1  0  0  0
 33 66  1  0  0  0
 33 70  2  0  0  0
 34 36  1  0  0  0
 34 59  1  0  0  0
 34103  1  0  0  0
 35 44  2  0  0  0
 35 45  1  0  0  0
 35 68  1  0  0  0
 36 56  1  0  0  0
 36104  1  0  0  0
 37 39  1  0  0  0
 37 47  1  0  0  0
 37 66  1  0  0  0
 37105  1  0  0  0
 38 43  2  0  0  0
 38 46  1  0  0  0
 38 47  1  0  0  0
 39 64  1  0  0  0
 39 67  2  0  0  0
 40 52  1  0  0  0
 40 53  2  0  0  0
 40 58  1  0  0  0
 41106  1  0  0  0
 41107  1  0  0  0
 41108  1  0  0  0
 41 48  1  0  0  0
 42 43  1  0  0  0
 42 66  1  0  0  0
 42109  1  0  0  0
 42110  1  0  0  0
 43 44  1  0  0  0
 44111  1  0  0  0
 45 46  2  0  0  0
 45112  1  0  0  0
 46113  1  0  0  0
 47114  1  0  0  0
 47115  1  0  0  0
 48 56  1  0  0  0
 48 65  1  0  0  0
 48116  1  0  0  0
 49 50  1  0  0  0
 49 53  1  0  0  0
 49 64  1  0  0  0
 49117  1  0  0  0
 50 51  1  0  0  0
 50118  1  0  0  0
 50119  1  0  0  0
 51 52  1  0  0  0
 51120  1  0  0  0
 51121  1  0  0  0
 52122  1  0  0  0
 52123  1  0  0  0
 53 54  1  0  0  0
 54 55  2  0  0  0
 54124  1  0  0  0
 55 57  1  0  0  0
 55125  1  0  0  0
 56 69  2  0  0  0
 57 58  2  0  0  0
 57126  1  0  0  0
 58127  1  0  0  0
 59 60  1  0  0  0
 59 61  1  0  0  0
 59 62  1  0  0  0
 60128  1  0  0  0
 60129  1  0  0  0
 60130  1  0  0  0
 61131  1  0  0  0
 61132  1  0  0  0
 61133  1  0  0  0
 62134  1  0  0  0
 62135  1  0  0  0
 62136  1  0  0  0
 63 65  1  0  0  0
 63137  1  0  0  0
 63138  1  0  0  0
 63139  1  0  0  0
 64140  1  0  0  0
 65141  1  0  0  0
 68 77  1  0  0  0
 71 72  2  0  0  0
 71 73  1  0  0  0
 71142  1  0  0  0
 72 75  1  0  0  0
 72 78  1  0  0  0
 73 79  2  0  0  0
 73 80  1  0  0  0
 74 78  2  0  0  0
 74 79  1  0  0  0
 74 81  1  0  0  0
 75 82  1  0  0  0
 75143  1  0  0  0
 75144  1  0  0  0
 76 77  1  0  0  0
 76 81  1  0  0  0
 76145  1  0  0  0
 76146  1  0  0  0
 77147  1  0  0  0
 77148  1  0  0  0
 80149  1  0  0  0
 80150  1  0  0  0
 81151  1  0  0  0
 82152  1  0  0  0
M  ISO  4   1 100  68 101  77 101  82 100
M  END
> <chiral flag>
0

> <version>
0

> <s_m_source_file>
/data/baiqing/PycharmProjects/Reinvent-master-3.2/result/LINK_invent/BTK/process_docking_weight1_custom_sum_contain_oxygen_bond_distance_aromatic_linkinvent_7_9_3/rearranged_h_0186.sdf

> <i_m_source_file_index>
65

> <r_mmod_Potential_Energy-OPLS-2005>
18897.544921875

> <r_mmod_Stretch_Energy-OPLS-2005>
10159.0234375

> <r_mmod_Bend_Energy-OPLS-2005>
1570.41381835938

> <r_mmod_Torsional_Energy-OPLS-2005>
493.689025878906

> <r_mmod_Improper_Torsional_Energy-OPLS-2005>
42.9364051818848

> <r_mmod_Van_der_Waal_Energy-OPLS-2005>
3285.38061523438

> <r_mmod_Electrostatic_Energy-OPLS-2005>
-1042.5078125

> <r_mmod_Solvation_Energy-OPLS-2005>
-273.433532714844

> <b_mmod_Minimization_Converged-OPLS-2005>
0

> <r_mmod_RMS_Derivative-OPLS-2005>
7.57872104644775

$$$$
66
                    3D
 Structure written by MMmdl.
156165  0  0  1  0            999 V2000
  -30.5743  -14.9528   20.4379 C   0  0  0  0  0  0
  -30.4311  -12.6012   19.5017 C   0  0  0  0  0  0
  -29.5185  -12.5493   18.2555 C   0  0  0  0  0  0
  -28.0507  -12.3316   18.6664 C   0  0  0  0  0  0
  -27.6255  -13.2568   19.8385 C   0  0  2  0  0  0
  -28.6685  -13.3020   20.9763 C   0  0  0  0  0  0
  -25.2462  -13.8224   20.5751 C   0  0  0  0  0  0
  -24.1768  -13.0443   20.9220 C   0  0  0  0  0  0
  -24.6390  -11.6927   20.8736 C   0  0  0  0  0  0
  -23.9060  -10.4298   21.0387 C   0  0  0  0  0  0
  -24.3614   -9.4218   21.9174 C   0  0  0  0  0  0
  -23.6311   -8.2246   22.0747 C   0  0  0  0  0  0
  -22.4295   -8.0278   21.3531 C   0  0  0  0  0  0
  -21.9915   -9.0248   20.4630 C   0  0  0  0  0  0
  -22.7225  -10.2142   20.3028 C   0  0  0  0  0  0
  -21.6850   -6.0733   22.5280 C   0  0  0  0  0  0
  -21.4021   -6.5639   23.8214 C   0  0  0  0  0  0
  -21.3665   -5.6796   24.9177 C   0  0  0  0  0  0
  -21.6056   -4.3060   24.7220 C   0  0  0  0  0  0
  -21.8821   -3.8140   23.4342 C   0  0  0  0  0  0
  -21.9196   -4.6961   22.3403 C   0  0  0  0  0  0
  -22.7796  -13.5226   21.1885 C   0  0  0  0  0  0
  -22.1657   -4.2152   21.0975 F   0  0  0  0  0  0
  -21.5635   -3.4540   25.7729 F   0  0  0  0  0  0
  -29.9394  -13.7113   20.3686 N   0  0  0  0  0  0
  -26.2877  -12.9460   20.3265 N   0  0  0  0  0  0
  -25.9322  -11.6581   20.5724 N   0  0  0  0  0  0
  -22.0428  -12.8213   22.0416 N   0  0  0  0  0  0
  -25.4192  -15.1952   20.4254 N   0  0  0  0  0  0
  -31.7875  -14.9561   20.1930 O   0  0  0  0  0  0
  -21.6650   -6.8877   21.4243 O   0  0  0  0  0  0
  -22.3497  -14.5549   20.6747 O   0  0  0  0  0  0
  -24.6454  -31.8439   23.1873 C   0  0  0  0  0  0
  -25.9223  -32.4695   23.8256 C   0  0  1  0  0  0
  -27.2166  -27.1240   20.1463 C   0  0  0  0  0  0
  -25.5980  -33.8500   24.2193 N   0  0  0  0  0  0
  -23.4484  -30.4622   21.5365 C   0  0  2  0  0  0
  -24.8958  -28.8849   20.1173 C   0  0  0  0  0  0
  -22.7568  -29.4558   22.4903 C   0  0  0  0  0  0
  -18.0302  -28.1394   22.8482 C   0  0  0  0  0  0
  -24.1500  -36.7254   23.2636 C   0  0  0  0  0  0
  -26.0050  -30.7134   21.3852 C   0  0  0  0  0  0
  -26.0765  -29.3210   20.7327 C   0  0  0  0  0  0
  -27.2388  -28.4573   20.7294 C   0  0  0  0  0  0
  -26.0097  -26.7993   19.4869 C   0  0  0  0  0  0
  -24.8761  -27.6369   19.4798 C   0  0  0  0  0  0
  -23.6726  -29.7866   20.1585 C   0  0  0  0  0  0
  -25.4127  -36.3034   24.0320 C   0  0  1  0  0  0
  -20.5917  -28.3724   23.1249 C   0  0  2  0  0  0
  -20.6800  -26.9434   22.5409 C   0  0  0  0  0  0
  -19.5776  -26.6387   21.5218 C   0  0  0  0  0  0
  -18.1950  -26.7937   22.1613 C   0  0  0  0  0  0
  -19.1559  -28.8876   23.2860 C   0  0  0  0  0  0
  -18.9471  -30.1471   23.8883 C   0  0  0  0  0  0
  -17.6471  -30.6597   24.0550 C   0  0  0  0  0  0
  -25.9085  -34.9411   23.5065 C   0  0  0  0  0  0
  -16.5363  -29.9087   23.6335 C   0  0  0  0  0  0
  -16.7287  -28.6502   23.0362 C   0  0  0  0  0  0
  -26.4540  -31.6543   25.0686 C   0  0  0  0  0  0
  -25.3721  -31.3719   26.1377 C   0  0  0  0  0  0
  -27.0392  -30.2946   24.6229 C   0  0  0  0  0  0
  -27.6091  -32.4275   25.7478 C   0  0  0  0  0  0
  -27.5591  -37.1774   24.8448 C   0  0  0  0  0  0
  -21.4264  -29.3053   22.3632 N   0  0  0  0  0  0
  -26.4284  -37.3756   23.9422 N   0  0  0  0  0  0
  -24.7203  -31.0277   22.0922 N   0  0  0  0  0  0
  -23.4204  -28.8107   23.3061 O   0  0  0  0  0  0
  -28.2696  -26.1304   20.1715 O   0  0  0  0  0  0
  -26.5657  -34.8907   22.4635 O   0  0  0  0  0  0
  -23.5574  -32.1324   23.7087 O   0  0  0  0  0  0
  -30.8531  -22.6672   19.0470 C   0  0  0  0  0  0
  -28.9645  -23.3304   20.0544 C   0  0  0  0  0  0
  -29.6135  -21.0252   19.9729 C   0  0  0  0  0  0
  -30.4410  -18.6124   19.3648 C   0  0  0  0  0  0
  -28.9051  -18.6503   21.1617 C   0  0  0  0  0  0
  -29.9675  -17.0877   19.1640 C   0  0  0  0  0  0
  -29.5971  -17.1878   21.4865 C   0  0  0  0  0  0
  -32.0935  -23.0194   18.2471 C   0  0  0  0  0  0
  -27.9518  -24.6035   20.3525 C   0  0  0  0  0  0
  -30.0567  -23.6763   19.3819 N   0  0  0  0  0  0
  -30.6950  -21.3735   19.2962 N   0  0  0  0  0  0
  -28.7000  -21.9855   20.3858 N   0  0  0  0  0  0
  -29.5468  -19.5347   20.1357 N   0  0  0  0  0  0
  -29.8552  -16.1923   20.3660 N   0  0  0  0  0  0
  -31.4674  -12.7464   19.1918 H   0  0  0  0  0  0
  -30.4136  -11.6532   20.0407 H   0  0  0  0  0  0
  -29.8444  -11.7600   17.5765 H   0  0  0  0  0  0
  -29.6072  -13.4853   17.7025 H   0  0  0  0  0  0
  -27.9427  -11.2872   18.9598 H   0  0  0  0  0  0
  -27.3908  -12.4731   17.8083 H   0  0  0  0  0  0
  -27.5833  -14.2602   19.4142 H   0  0  0  0  0  0
  -28.7601  -12.3324   21.4681 H   0  0  0  0  0  0
  -28.3678  -14.0168   21.7436 H   0  0  0  0  0  0
  -25.2740   -9.5719   22.4785 H   0  0  0  0  0  0
  -24.0022   -7.4637   22.7469 H   0  0  0  0  0  0
  -21.0843   -8.8739   19.8950 H   0  0  0  0  0  0
  -22.3641  -10.9688   19.6154 H   0  0  0  0  0  0
  -21.2000   -7.6147   23.9720 H   0  0  0  0  0  0
  -21.1500   -6.0517   25.9090 H   0  0  0  0  0  0
  -22.0597   -2.7604   23.2821 H   0  0  0  0  0  0
  -22.4005  -11.9841   22.4786 H   0  0  0  0  0  0
  -21.1056  -13.1262   22.2607 H   0  0  0  0  0  0
  -24.6691  -15.8630   20.5621 H   0  0  0  0  0  0
  -26.2915  -15.6298   20.1538 H   0  0  0  0  0  0
  -26.7287  -32.5299   23.0982 H   0  0  0  0  0  0
  -25.0116  -33.9614   25.0337 H   0  0  0  0  0  0
  -22.7518  -31.2887   21.3802 H   0  0  0  0  0  0
  -23.3793  -35.9549   23.3220 H   0  0  0  0  0  0
  -24.3607  -36.8958   22.2066 H   0  0  0  0  0  0
  -23.7198  -37.6407   23.6715 H   0  0  0  0  0  0
  -26.1489  -31.4609   20.6046 H   0  0  0  0  0  0
  -26.8817  -30.7757   22.0179 H   0  0  0  0  0  0
  -28.1405  -28.7894   21.2242 H   0  0  0  0  0  0
  -25.9062  -25.8643   18.9604 H   0  0  0  0  0  0
  -23.9786  -27.3005   18.9795 H   0  0  0  0  0  0
  -23.8028  -30.5571   19.3977 H   0  0  0  0  0  0
  -22.7879  -29.2238   19.8542 H   0  0  0  0  0  0
  -25.1307  -36.1861   25.0811 H   0  0  0  0  0  0
  -20.9991  -28.3306   24.1376 H   0  0  0  0  0  0
  -20.5709  -26.2338   23.3621 H   0  0  0  0  0  0
  -21.6662  -26.7460   22.1187 H   0  0  0  0  0  0
  -19.6943  -25.6292   21.1261 H   0  0  0  0  0  0
  -19.6720  -27.3186   20.6738 H   0  0  0  0  0  0
  -17.4231  -26.6693   21.4003 H   0  0  0  0  0  0
  -18.0339  -26.0076   22.9001 H   0  0  0  0  0  0
  -19.7951  -30.7292   24.2246 H   0  0  0  0  0  0
  -17.5025  -31.6280   24.5140 H   0  0  0  0  0  0
  -15.5362  -30.2982   23.7676 H   0  0  0  0  0  0
  -15.8680  -28.0808   22.7100 H   0  0  0  0  0  0
  -24.5931  -30.7046   25.7678 H   0  0  0  0  0  0
  -24.8881  -32.2891   26.4742 H   0  0  0  0  0  0
  -25.8002  -30.8923   27.0188 H   0  0  0  0  0  0
  -26.2987  -29.6675   24.1259 H   0  0  0  0  0  0
  -27.4053  -29.7236   25.4770 H   0  0  0  0  0  0
  -27.8875  -30.4197   23.9500 H   0  0  0  0  0  0
  -27.2734  -33.3628   26.1969 H   0  0  0  0  0  0
  -28.3967  -32.6728   25.0339 H   0  0  0  0  0  0
  -28.0679  -31.8423   26.5462 H   0  0  0  0  0  0
  -28.2539  -38.0143   24.7595 H   0  0  0  0  0  0
  -28.1161  -36.2679   24.6147 H   0  0  0  0  0  0
  -27.2324  -37.1248   25.8849 H   0  0  0  0  0  0
  -20.9490  -29.8738   21.6774 H   0  0  0  0  0  0
  -26.0147  -38.2816   24.1467 H   0  0  0  0  0  0
  -30.5860  -19.0331   18.3687 H   0  0  0  0  0  0
  -31.4275  -18.6290   19.8304 H   0  0  0  0  0  0
  -28.8211  -19.2221   22.0874 H   0  0  0  0  0  0
  -27.8786  -18.4811   20.8368 H   0  0  0  0  0  0
  -30.6481  -16.6221   18.4490 H   0  0  0  0  0  0
  -28.9952  -17.0854   18.6704 H   0  0  0  0  0  0
  -28.9902  -16.6800   22.2387 H   0  0  0  0  0  0
  -30.5556  -17.3701   21.9763 H   0  0  0  0  0  0
  -32.3892  -24.0580   18.3918 H   0  0  0  0  0  0
  -31.9128  -22.8606   17.1842 H   0  0  0  0  0  0
  -32.9355  -22.3910   18.5386 H   0  0  0  0  0  0
  -27.6420  -24.4930   21.3920 H   0  0  0  0  0  0
  -27.0676  -24.3509   19.7742 H   0  0  0  0  0  0
  1 25  1  0  0  0
  1 30  2  0  0  0
  1 84  1  0  0  0
  2  3  1  0  0  0
  2 25  1  0  0  0
  2 85  1  0  0  0
  2 86  1  0  0  0
  3  4  1  0  0  0
  3 87  1  0  0  0
  3 88  1  0  0  0
  4  5  1  0  0  0
  4 89  1  0  0  0
  4 90  1  0  0  0
  5  6  1  0  0  0
  5 26  1  0  0  0
  5 91  1  0  0  0
  6 25  1  0  0  0
  6 92  1  0  0  0
  6 93  1  0  0  0
  7  8  2  0  0  0
  7 26  1  0  0  0
  7 29  1  0  0  0
  8  9  1  0  0  0
  8 22  1  0  0  0
  9 10  1  0  0  0
  9 27  2  0  0  0
 10 11  2  0  0  0
 10 15  1  0  0  0
 11 12  1  0  0  0
 11 94  1  0  0  0
 12 13  2  0  0  0
 12 95  1  0  0  0
 13 14  1  0  0  0
 13 31  1  0  0  0
 14 15  2  0  0  0
 14 96  1  0  0  0
 15 97  1  0  0  0
 16 17  2  0  0  0
 16 21  1  0  0  0
 16 31  1  0  0  0
 17 18  1  0  0  0
 17 98  1  0  0  0
 18 19  2  0  0  0
 18 99  1  0  0  0
 19 20  1  0  0  0
 19 24  1  0  0  0
 20 21  2  0  0  0
 20100  1  0  0  0
 21 23  1  0  0  0
 22 28  1  0  0  0
 22 32  2  0  0  0
 26 27  1  0  0  0
 28101  1  0  0  0
 28102  1  0  0  0
 29103  1  0  0  0
 29104  1  0  0  0
 33 34  1  0  0  0
 33 66  1  0  0  0
 33 70  2  0  0  0
 34 36  1  0  0  0
 34 59  1  0  0  0
 34105  1  0  0  0
 35 44  2  0  0  0
 35 45  1  0  0  0
 35 68  1  0  0  0
 36 56  1  0  0  0
 36106  1  0  0  0
 37 39  1  0  0  0
 37 47  1  0  0  0
 37 66  1  0  0  0
 37107  1  0  0  0
 38 43  2  0  0  0
 38 46  1  0  0  0
 38 47  1  0  0  0
 39 64  1  0  0  0
 39 67  2  0  0  0
 40 52  1  0  0  0
 40 53  2  0  0  0
 40 58  1  0  0  0
 41108  1  0  0  0
 41109  1  0  0  0
 41110  1  0  0  0
 41 48  1  0  0  0
 42 43  1  0  0  0
 42 66  1  0  0  0
 42111  1  0  0  0
 42112  1  0  0  0
 43 44  1  0  0  0
 44113  1  0  0  0
 45 46  2  0  0  0
 45114  1  0  0  0
 46115  1  0  0  0
 47116  1  0  0  0
 47117  1  0  0  0
 48 56  1  0  0  0
 48 65  1  0  0  0
 48118  1  0  0  0
 49 50  1  0  0  0
 49 53  1  0  0  0
 49 64  1  0  0  0
 49119  1  0  0  0
 50 51  1  0  0  0
 50120  1  0  0  0
 50121  1  0  0  0
 51 52  1  0  0  0
 51122  1  0  0  0
 51123  1  0  0  0
 52124  1  0  0  0
 52125  1  0  0  0
 53 54  1  0  0  0
 54 55  2  0  0  0
 54126  1  0  0  0
 55 57  1  0  0  0
 55127  1  0  0  0
 56 69  2  0  0  0
 57 58  2  0  0  0
 57128  1  0  0  0
 58129  1  0  0  0
 59 60  1  0  0  0
 59 61  1  0  0  0
 59 62  1  0  0  0
 60130  1  0  0  0
 60131  1  0  0  0
 60132  1  0  0  0
 61133  1  0  0  0
 61134  1  0  0  0
 61135  1  0  0  0
 62136  1  0  0  0
 62137  1  0  0  0
 62138  1  0  0  0
 63 65  1  0  0  0
 63139  1  0  0  0
 63140  1  0  0  0
 63141  1  0  0  0
 64142  1  0  0  0
 65143  1  0  0  0
 68 79  1  0  0  0
 71 78  1  0  0  0
 71 80  2  0  0  0
 71 81  1  0  0  0
 72 79  1  0  0  0
 72 80  1  0  0  0
 72 82  2  0  0  0
 73 81  2  0  0  0
 73 82  1  0  0  0
 73 83  1  0  0  0
 74 76  1  0  0  0
 74 83  1  0  0  0
 74144  1  0  0  0
 74145  1  0  0  0
 75 77  1  0  0  0
 75 83  1  0  0  0
 75146  1  0  0  0
 75147  1  0  0  0
 76 84  1  0  0  0
 76148  1  0  0  0
 76149  1  0  0  0
 77 84  1  0  0  0
 77150  1  0  0  0
 77151  1  0  0  0
 78152  1  0  0  0
 78153  1  0  0  0
 78154  1  0  0  0
 79155  1  0  0  0
 79156  1  0  0  0
M  ISO  4   1 100  68 101  79 101  84 100
M  END
> <chiral flag>
0

> <version>
0

> <s_m_source_file>
/data/baiqing/PycharmProjects/Reinvent-master-3.2/result/LINK_invent/BTK/process_docking_weight1_custom_sum_contain_oxygen_bond_distance_aromatic_linkinvent_7_9_3/rearranged_h_0186.sdf

> <i_m_source_file_index>
66

> <r_mmod_Potential_Energy-OPLS-2005>
-32.3341484069824

> <r_mmod_Stretch_Energy-OPLS-2005>
241.76286315918

> <r_mmod_Bend_Energy-OPLS-2005>
275.590362548828

> <r_mmod_Torsional_Energy-OPLS-2005>
355.689727783203

> <r_mmod_Improper_Torsional_Energy-OPLS-2005>
15.340425491333

> <r_mmod_Van_der_Waal_Energy-OPLS-2005>
167.034957885742

> <r_mmod_Electrostatic_Energy-OPLS-2005>
-1038.48315429688

> <r_mmod_Solvation_Energy-OPLS-2005>
-245.539459228516

> <b_mmod_Minimization_Converged-OPLS-2005>
0

> <r_mmod_RMS_Derivative-OPLS-2005>
2.42874813079834

$$$$
67
                    3D
 Structure written by MMmdl.
154163  0  0  1  0            999 V2000
  -30.2444  -15.7897   20.3124 C   0  0  0  0  0  0
  -30.4114  -13.1988   19.5420 C   0  0  0  0  0  0
  -29.5561  -12.6966   18.3384 C   0  0  0  0  0  0
  -28.1421  -12.3043   18.7894 C   0  0  0  0  0  0
  -27.5884  -13.3239   19.8085 C   0  0  2  0  0  0
  -28.5933  -13.7222   20.9183 C   0  0  0  0  0  0
  -25.2278  -13.8305   20.5823 C   0  0  0  0  0  0
  -24.1692  -13.0429   20.9304 C   0  0  0  0  0  0
  -24.6417  -11.6952   20.8766 C   0  0  0  0  0  0
  -23.9126  -10.4285   21.0396 C   0  0  0  0  0  0
  -24.3662   -9.4199   21.9183 C   0  0  0  0  0  0
  -23.6312   -8.2249   22.0761 C   0  0  0  0  0  0
  -22.4280   -8.0302   21.3563 C   0  0  0  0  0  0
  -21.9932   -9.0279   20.4649 C   0  0  0  0  0  0
  -22.7294  -10.2138   20.3049 C   0  0  0  0  0  0
  -21.6851   -6.0750   22.5285 C   0  0  0  0  0  0
  -21.4033   -6.5653   23.8229 C   0  0  0  0  0  0
  -21.3662   -5.6796   24.9181 C   0  0  0  0  0  0
  -21.6034   -4.3063   24.7223 C   0  0  0  0  0  0
  -21.8814   -3.8153   23.4339 C   0  0  0  0  0  0
  -21.9187   -4.6981   22.3401 C   0  0  0  0  0  0
  -22.7698  -13.5154   21.1919 C   0  0  0  0  0  0
  -22.1652   -4.2169   21.0980 F   0  0  0  0  0  0
  -21.5605   -3.4538   25.7733 F   0  0  0  0  0  0
  -29.7412  -14.3957   20.2533 N   0  0  0  0  0  0
  -26.2744  -12.9671   20.3243 N   0  0  0  0  0  0
  -25.9360  -11.6714   20.5676 N   0  0  0  0  0  0
  -22.0350  -12.8153   22.0474 N   0  0  0  0  0  0
  -25.3813  -15.2060   20.4293 N   0  0  0  0  0  0
  -31.4823  -15.6973   20.1691 O   0  0  0  0  0  0
  -21.6637   -6.8904   21.4257 O   0  0  0  0  0  0
  -22.3391  -14.5454   20.6745 O   0  0  0  0  0  0
  -24.6960  -31.7864   23.1411 C   0  0  0  0  0  0
  -25.9478  -32.4401   23.8014 C   0  0  1  0  0  0
  -27.2314  -26.5855   20.2267 C   0  0  0  0  0  0
  -25.6001  -33.8234   24.1885 N   0  0  0  0  0  0
  -23.5264  -30.3834   21.4974 C   0  0  2  0  0  0
  -24.9848  -28.6971   20.1234 C   0  0  0  0  0  0
  -22.7818  -29.4245   22.4672 C   0  0  0  0  0  0
  -18.0343  -28.1432   22.8444 C   0  0  0  0  0  0
  -24.1494  -36.7126   23.2653 C   0  0  0  0  0  0
  -26.1126  -30.4817   21.4223 C   0  0  0  0  0  0
  -26.1773  -29.0327   20.7760 C   0  0  0  0  0  0
  -27.2797  -28.0081   20.7907 C   0  0  0  0  0  0
  -26.0057  -26.4891   19.5123 C   0  0  0  0  0  0
  -24.9451  -27.4526   19.4680 C   0  0  0  0  0  0
  -23.7872  -29.6688   20.1384 C   0  0  0  0  0  0
  -25.4148  -36.2854   24.0270 C   0  0  1  0  0  0
  -20.5983  -28.3802   23.1114 C   0  0  2  0  0  0
  -20.6806  -26.9445   22.5406 C   0  0  0  0  0  0
  -19.5788  -26.6368   21.5214 C   0  0  0  0  0  0
  -18.1964  -26.7957   22.1612 C   0  0  0  0  0  0
  -19.1609  -28.8940   23.2761 C   0  0  0  0  0  0
  -18.9517  -30.1519   23.8819 C   0  0  0  0  0  0
  -17.6506  -30.6610   24.0547 C   0  0  0  0  0  0
  -25.9138  -34.9247   23.4924 C   0  0  0  0  0  0
  -16.5393  -29.9093   23.6351 C   0  0  0  0  0  0
  -16.7319  -28.6515   23.0368 C   0  0  0  0  0  0
  -26.4611  -31.6486   25.0684 C   0  0  0  0  0  0
  -25.3638  -31.3845   26.1273 C   0  0  0  0  0  0
  -27.0558  -30.2808   24.6666 C   0  0  0  0  0  0
  -27.6041  -32.4369   25.7513 C   0  0  0  0  0  0
  -27.5563  -37.1718   24.8466 C   0  0  0  0  0  0
  -21.4451  -29.3025   22.3425 N   0  0  0  0  0  0
  -26.4267  -37.3628   23.9409 N   0  0  0  0  0  0
  -24.8034  -30.9200   22.0723 N   0  0  0  0  0  0
  -23.4202  -28.7859   23.3068 O   0  0  0  0  0  0
  -28.1851  -25.3180   20.2968 O   0  0  0  0  0  0
  -26.5802  -34.8845   22.4558 O   0  0  0  0  0  0
  -23.5958  -32.0987   23.6291 O   0  0  0  0  0  0
  -27.8549  -20.0054   18.2710 C   0  0  0  0  0  0
  -28.9834  -21.7146   20.2531 C   0  0  2  0  0  0
  -29.6321  -19.0326   20.2572 C   0  0  1  0  0  0
  -28.8853  -20.2632   19.3356 C   0  0  1  0  0  0
  -29.1776  -20.3325   21.3102 C   0  0  0  0  0  0
  -30.2092  -20.5716   22.4172 C   0  0  0  0  0  0
  -27.8743  -20.0097   22.0575 C   0  0  0  0  0  0
  -28.0308  -23.5048   20.1838 C   0  0  0  0  0  0
  -29.4891  -17.2001   20.3479 N   0  0  0  0  0  0
  -29.2348  -20.3332   17.9332 N   0  3  0  0  0  0
  -31.3958  -13.4805   19.1656 H   0  0  0  0  0  0
  -30.6095  -12.3850   20.2415 H   0  0  0  0  0  0
  -30.0419  -11.8527   17.8463 H   0  0  0  0  0  0
  -29.4927  -13.4908   17.5926 H   0  0  0  0  0  0
  -28.2015  -11.3218   19.2590 H   0  0  0  0  0  0
  -27.4758  -12.2002   17.9324 H   0  0  0  0  0  0
  -27.4284  -14.2232   19.2122 H   0  0  0  0  0  0
  -28.8873  -12.8643   21.5249 H   0  0  0  0  0  0
  -28.1307  -14.4319   21.6045 H   0  0  0  0  0  0
  -25.2807   -9.5659   22.4766 H   0  0  0  0  0  0
  -24.0001   -7.4636   22.7486 H   0  0  0  0  0  0
  -21.0857   -8.8820   19.8962 H   0  0  0  0  0  0
  -22.3770  -10.9683   19.6150 H   0  0  0  0  0  0
  -21.2060   -7.6164   23.9746 H   0  0  0  0  0  0
  -21.1477   -6.0522   25.9094 H   0  0  0  0  0  0
  -22.0584   -2.7617   23.2835 H   0  0  0  0  0  0
  -22.3987  -11.9847   22.4903 H   0  0  0  0  0  0
  -21.0959  -13.1177   22.2649 H   0  0  0  0  0  0
  -24.6004  -15.8422   20.5458 H   0  0  0  0  0  0
  -26.2113  -15.6581   20.0734 H   0  0  0  0  0  0
  -26.7572  -32.4848   23.0738 H   0  0  0  0  0  0
  -25.0028  -33.9259   24.9956 H   0  0  0  0  0  0
  -22.8580  -31.2228   21.2972 H   0  0  0  0  0  0
  -23.3772  -35.9442   23.3261 H   0  0  0  0  0  0
  -24.3550  -36.8853   22.2078 H   0  0  0  0  0  0
  -23.7242  -37.6279   23.6780 H   0  0  0  0  0  0
  -26.3289  -31.1957   20.6262 H   0  0  0  0  0  0
  -26.9591  -30.5555   22.0928 H   0  0  0  0  0  0
  -28.1753  -28.2738   21.3343 H   0  0  0  0  0  0
  -25.8218  -25.5540   19.0015 H   0  0  0  0  0  0
  -24.0478  -27.1834   18.9273 H   0  0  0  0  0  0
  -23.9772  -30.4240   19.3743 H   0  0  0  0  0  0
  -22.8886  -29.1438   19.8094 H   0  0  0  0  0  0
  -25.1363  -36.1601   25.0761 H   0  0  0  0  0  0
  -21.0064  -28.3442   24.1241 H   0  0  0  0  0  0
  -20.5656  -26.2425   23.3679 H   0  0  0  0  0  0
  -21.6669  -26.7377   22.1231 H   0  0  0  0  0  0
  -19.6949  -25.6257   21.1302 H   0  0  0  0  0  0
  -19.6736  -27.3125   20.6701 H   0  0  0  0  0  0
  -17.4232  -26.6685   21.4017 H   0  0  0  0  0  0
  -18.0363  -26.0127   22.9037 H   0  0  0  0  0  0
  -19.7988  -30.7353   24.2162 H   0  0  0  0  0  0
  -17.5053  -31.6281   24.5170 H   0  0  0  0  0  0
  -15.5390  -30.2975   23.7727 H   0  0  0  0  0  0
  -15.8712  -28.0809   22.7144 H   0  0  0  0  0  0
  -24.5837  -30.7187   25.7558 H   0  0  0  0  0  0
  -24.8811  -32.3087   26.4469 H   0  0  0  0  0  0
  -25.7770  -30.9143   27.0206 H   0  0  0  0  0  0
  -26.3293  -29.6379   24.1684 H   0  0  0  0  0  0
  -27.3965  -29.7311   25.5451 H   0  0  0  0  0  0
  -27.9283  -30.3899   24.0222 H   0  0  0  0  0  0
  -27.2564  -33.3746   26.1867 H   0  0  0  0  0  0
  -28.3969  -32.6814   25.0427 H   0  0  0  0  0  0
  -28.0585  -31.8650   26.5617 H   0  0  0  0  0  0
  -28.2541  -38.0047   24.7507 H   0  0  0  0  0  0
  -28.1093  -36.2566   24.6297 H   0  0  0  0  0  0
  -27.2276  -37.1356   25.8866 H   0  0  0  0  0  0
  -20.9786  -29.8659   21.6448 H   0  0  0  0  0  0
  -26.0081  -38.2675   24.1414 H   0  0  0  0  0  0
  -27.1901  -20.8009   17.9428 H   0  0  0  0  0  0
  -27.6287  -18.9871   17.9648 H   0  0  0  0  0  0
  -30.0134  -22.0449   20.1194 H   0  0  0  0  0  0
  -30.7062  -19.1783   20.1260 H   0  0  0  0  0  0
  -31.1769  -20.8601   22.0058 H   0  0  0  0  0  0
  -30.3773  -19.6762   23.0161 H   0  0  0  0  0  0
  -29.9038  -21.3686   23.0958 H   0  0  0  0  0  0
  -27.0462  -19.8388   21.3679 H   0  0  0  0  0  0
  -27.5701  -20.8235   22.7170 H   0  0  0  0  0  0
  -27.9645  -19.1104   22.6671 H   0  0  0  0  0  0
  -27.1858  -23.3533   20.8549 H   0  0  0  0  0  0
  -27.5548  -23.4640   19.2049 H   0  0  0  0  0  0
  -28.5089  -16.9763   20.4397 H   0  0  0  0  0  0
  -29.3489  -21.2436   17.5246 H   0  0  0  0  0  0
  -29.7518  -19.5637   17.5451 H   0  0  0  0  0  0
  1 25  1  0  0  0
  1 30  2  0  0  0
  1 79  1  0  0  0
  2  3  1  0  0  0
  2 25  1  0  0  0
  2 81  1  0  0  0
  2 82  1  0  0  0
  3  4  1  0  0  0
  3 83  1  0  0  0
  3 84  1  0  0  0
  4  5  1  0  0  0
  4 85  1  0  0  0
  4 86  1  0  0  0
  5  6  1  0  0  0
  5 26  1  0  0  0
  5 87  1  0  0  0
  6 25  1  0  0  0
  6 88  1  0  0  0
  6 89  1  0  0  0
  7  8  2  0  0  0
  7 26  1  0  0  0
  7 29  1  0  0  0
  8  9  1  0  0  0
  8 22  1  0  0  0
  9 10  1  0  0  0
  9 27  2  0  0  0
 10 11  2  0  0  0
 10 15  1  0  0  0
 11 12  1  0  0  0
 11 90  1  0  0  0
 12 13  2  0  0  0
 12 91  1  0  0  0
 13 14  1  0  0  0
 13 31  1  0  0  0
 14 15  2  0  0  0
 14 92  1  0  0  0
 15 93  1  0  0  0
 16 17  2  0  0  0
 16 21  1  0  0  0
 16 31  1  0  0  0
 17 18  1  0  0  0
 17 94  1  0  0  0
 18 19  2  0  0  0
 18 95  1  0  0  0
 19 20  1  0  0  0
 19 24  1  0  0  0
 20 21  2  0  0  0
 20 96  1  0  0  0
 21 23  1  0  0  0
 22 28  1  0  0  0
 22 32  2  0  0  0
 26 27  1  0  0  0
 28 97  1  0  0  0
 28 98  1  0  0  0
 29 99  1  0  0  0
 29100  1  0  0  0
 33 34  1  0  0  0
 33 66  1  0  0  0
 33 70  2  0  0  0
 34 36  1  0  0  0
 34 59  1  0  0  0
 34101  1  0  0  0
 35 44  2  0  0  0
 35 45  1  0  0  0
 35 68  1  0  0  0
 36 56  1  0  0  0
 36102  1  0  0  0
 37 39  1  0  0  0
 37 47  1  0  0  0
 37 66  1  0  0  0
 37103  1  0  0  0
 38 43  2  0  0  0
 38 46  1  0  0  0
 38 47  1  0  0  0
 39 64  1  0  0  0
 39 67  2  0  0  0
 40 52  1  0  0  0
 40 53  2  0  0  0
 40 58  1  0  0  0
 41104  1  0  0  0
 41105  1  0  0  0
 41106  1  0  0  0
 41 48  1  0  0  0
 42 43  1  0  0  0
 42 66  1  0  0  0
 42107  1  0  0  0
 42108  1  0  0  0
 43 44  1  0  0  0
 44109  1  0  0  0
 45 46  2  0  0  0
 45110  1  0  0  0
 46111  1  0  0  0
 47112  1  0  0  0
 47113  1  0  0  0
 48 56  1  0  0  0
 48 65  1  0  0  0
 48114  1  0  0  0
 49 50  1  0  0  0
 49 53  1  0  0  0
 49 64  1  0  0  0
 49115  1  0  0  0
 50 51  1  0  0  0
 50116  1  0  0  0
 50117  1  0  0  0
 51 52  1  0  0  0
 51118  1  0  0  0
 51119  1  0  0  0
 52120  1  0  0  0
 52121  1  0  0  0
 53 54  1  0  0  0
 54 55  2  0  0  0
 54122  1  0  0  0
 55 57  1  0  0  0
 55123  1  0  0  0
 56 69  2  0  0  0
 57 58  2  0  0  0
 57124  1  0  0  0
 58125  1  0  0  0
 59 60  1  0  0  0
 59 61  1  0  0  0
 59 62  1  0  0  0
 60126  1  0  0  0
 60127  1  0  0  0
 60128  1  0  0  0
 61129  1  0  0  0
 61130  1  0  0  0
 61131  1  0  0  0
 62132  1  0  0  0
 62133  1  0  0  0
 62134  1  0  0  0
 63 65  1  0  0  0
 63135  1  0  0  0
 63136  1  0  0  0
 63137  1  0  0  0
 64138  1  0  0  0
 65139  1  0  0  0
 68 78  1  0  0  0
 71 80  1  0  0  0
 71140  1  0  0  0
 71141  1  0  0  0
 71 74  1  0  0  0
 72 74  1  0  0  0
 72 75  1  0  0  0
 72 78  1  0  0  0
 72142  1  0  0  0
 73 74  1  0  0  0
 73 75  1  0  0  0
 73 79  1  0  0  0
 73143  1  0  0  0
 74 80  1  0  0  0
 75 76  1  0  0  0
 75 77  1  0  0  0
 76144  1  0  0  0
 76145  1  0  0  0
 76146  1  0  0  0
 77147  1  0  0  0
 77148  1  0  0  0
 77149  1  0  0  0
 78150  1  0  0  0
 78151  1  0  0  0
 79152  1  0  0  0
 80153  1  0  0  0
 80154  1  0  0  0
M  CHG  1  80   1
M  ISO  4   1 100  68 101  78 101  79 100
M  END
> <chiral flag>
0

> <version>
0

> <s_m_source_file>
/data/baiqing/PycharmProjects/Reinvent-master-3.2/result/LINK_invent/BTK/process_docking_weight1_custom_sum_contain_oxygen_bond_distance_aromatic_linkinvent_7_9_3/rearranged_h_0186.sdf

> <i_m_source_file_index>
67

> <r_mmod_Potential_Energy-OPLS-2005>
3266.87744140625

> <r_mmod_Stretch_Energy-OPLS-2005>
1332.48937988281

> <r_mmod_Bend_Energy-OPLS-2005>
1176.32006835938

> <r_mmod_Torsional_Energy-OPLS-2005>
337.403350830078

> <r_mmod_Improper_Torsional_Energy-OPLS-2005>
3.7753791809082

> <r_mmod_Van_der_Waal_Energy-OPLS-2005>
105.989707946777

> <r_mmod_Electrostatic_Energy-OPLS-2005>
-319.420318603516

> <r_mmod_Solvation_Energy-OPLS-2005>
-523.319702148438

> <b_mmod_Minimization_Converged-OPLS-2005>
0

> <r_mmod_RMS_Derivative-OPLS-2005>
2.24057745933533

$$$$
68
                    3D
 Structure written by MMmdl.
156165  0  0  1  0            999 V2000
  -30.7113  -14.5795   20.5089 C   0  0  0  0  0  0
  -30.4266  -12.3644   19.4438 C   0  0  0  0  0  0
  -29.4974  -12.4853   18.2181 C   0  0  0  0  0  0
  -28.0227  -12.3424   18.6382 C   0  0  0  0  0  0
  -27.6575  -13.2197   19.8655 C   0  0  2  0  0  0
  -28.7089  -13.0973   20.9922 C   0  0  0  0  0  0
  -25.2609  -13.8142   20.5703 C   0  0  0  0  0  0
  -24.1853  -13.0411   20.9170 C   0  0  0  0  0  0
  -24.6432  -11.6896   20.8756 C   0  0  0  0  0  0
  -23.9085  -10.4284   21.0414 C   0  0  0  0  0  0
  -24.3628   -9.4211   21.9210 C   0  0  0  0  0  0
  -23.6297   -8.2251   22.0779 C   0  0  0  0  0  0
  -22.4281   -8.0293   21.3563 C   0  0  0  0  0  0
  -21.9920   -9.0263   20.4663 C   0  0  0  0  0  0
  -22.7250  -10.2140   20.3066 C   0  0  0  0  0  0
  -21.6860   -6.0752   22.5285 C   0  0  0  0  0  0
  -21.4020   -6.5653   23.8219 C   0  0  0  0  0  0
  -21.3645   -5.6803   24.9176 C   0  0  0  0  0  0
  -21.6044   -4.3066   24.7223 C   0  0  0  0  0  0
  -21.8816   -3.8156   23.4341 C   0  0  0  0  0  0
  -21.9192   -4.6977   22.3401 C   0  0  0  0  0  0
  -22.7887  -13.5254   21.1804 C   0  0  0  0  0  0
  -22.1661   -4.2153   21.0981 F   0  0  0  0  0  0
  -21.5614   -3.4549   25.7740 F   0  0  0  0  0  0
  -30.0218  -13.4034   20.4100 N   0  0  0  0  0  0
  -26.3056  -12.9341   20.3417 N   0  0  0  0  0  0
  -25.9390  -11.6489   20.5867 N   0  0  0  0  0  0
  -22.0484  -12.8258   22.0331 N   0  0  0  0  0  0
  -25.4305  -15.1837   20.4131 N   0  0  0  0  0  0
  -31.8788  -14.6756   20.1266 O   0  0  0  0  0  0
  -21.6640   -6.8894   21.4252 O   0  0  0  0  0  0
  -22.3618  -14.5584   20.6685 O   0  0  0  0  0  0
  -24.6218  -31.8647   23.2041 C   0  0  0  0  0  0
  -25.9061  -32.4825   23.8391 C   0  0  1  0  0  0
  -27.2258  -27.3404   20.1265 C   0  0  0  0  0  0
  -25.5870  -33.8617   24.2323 N   0  0  0  0  0  0
  -23.4163  -30.4907   21.5443 C   0  0  2  0  0  0
  -24.8663  -28.9471   20.1110 C   0  0  0  0  0  0
  -22.7420  -29.4704   22.4920 C   0  0  0  0  0  0
  -18.0244  -28.1444   22.8503 C   0  0  0  0  0  0
  -24.1471  -36.7301   23.2637 C   0  0  0  0  0  0
  -25.9559  -30.7962   21.3778 C   0  0  0  0  0  0
  -26.0308  -29.4257   20.7248 C   0  0  0  0  0  0
  -27.2155  -28.6330   20.7272 C   0  0  0  0  0  0
  -26.0490  -26.9222   19.4615 C   0  0  0  0  0  0
  -24.8782  -27.7001   19.4661 C   0  0  0  0  0  0
  -23.6306  -29.8196   20.1618 C   0  0  0  0  0  0
  -25.4095  -36.3120   24.0346 C   0  0  1  0  0  0
  -20.5850  -28.3706   23.1163 C   0  0  2  0  0  0
  -20.6740  -26.9434   22.5325 C   0  0  0  0  0  0
  -19.5642  -26.6259   21.5283 C   0  0  0  0  0  0
  -18.1880  -26.7927   22.1794 C   0  0  0  0  0  0
  -19.1520  -28.8917   23.2779 C   0  0  0  0  0  0
  -18.9512  -30.1567   23.8704 C   0  0  0  0  0  0
  -17.6523  -30.6678   24.0480 C   0  0  0  0  0  0
  -25.9024  -34.9485   23.5146 C   0  0  0  0  0  0
  -16.5373  -29.9188   23.6328 C   0  0  0  0  0  0
  -16.7243  -28.6572   23.0408 C   0  0  0  0  0  0
  -26.4463  -31.6621   25.0757 C   0  0  0  0  0  0
  -25.3707  -31.3708   26.1486 C   0  0  0  0  0  0
  -27.0276  -30.3053   24.6175 C   0  0  0  0  0  0
  -27.6047  -32.4332   25.7529 C   0  0  0  0  0  0
  -27.5587  -37.1805   24.8481 C   0  0  0  0  0  0
  -21.4159  -29.3026   22.3556 N   0  0  0  0  0  0
  -26.4290  -37.3809   23.9437 N   0  0  0  0  0  0
  -24.6840  -31.0648   22.1011 N   0  0  0  0  0  0
  -23.4115  -28.8295   23.3064 O   0  0  0  0  0  0
  -28.3322  -26.4873   20.2073 O   0  0  0  0  0  0
  -26.5604  -34.8936   22.4730 O   0  0  0  0  0  0
  -23.5382  -32.1467   23.7356 O   0  0  0  0  0  0
  -27.4500  -18.8976   20.6814 C   0  0  0  0  0  0
  -29.5657  -18.2398   20.7110 C   0  0  0  0  0  0
  -29.0531  -20.4346   20.6093 C   0  0  0  0  0  0
  -28.7945  -24.1985   21.4495 C   0  0  0  0  0  0
  -28.6638  -24.0222   19.3915 C   0  0  0  0  0  0
  -28.5127  -22.9700   20.5288 C   0  0  1  0  0  0
  -28.0408  -25.0488   20.3787 C   0  0  2  0  0  0
  -25.9777  -18.5526   20.7046 C   0  0  0  0  0  0
  -30.5886  -17.0818   20.7816 C   0  0  0  0  0  0
  -28.2885  -17.8697   20.7273 N   0  0  0  0  0  0
  -27.7538  -20.1896   20.6194 N   0  0  0  0  0  0
  -30.0176  -19.5096   20.6525 N   0  0  0  0  0  0
  -29.4327  -21.7920   20.5639 N   0  0  0  0  0  0
  -30.0297  -15.6978   20.8498 N   0  0  0  0  0  0
  -31.4697  -12.4546   19.1331 H   0  0  0  0  0  0
  -30.3434  -11.3766   19.8987 H   0  0  0  0  0  0
  -29.7492  -11.7229   17.4794 H   0  0  0  0  0  0
  -29.6471  -13.4479   17.7287 H   0  0  0  0  0  0
  -27.8492  -11.2914   18.8719 H   0  0  0  0  0  0
  -27.3665  -12.5754   17.7987 H   0  0  0  0  0  0
  -27.6724  -14.2530   19.5194 H   0  0  0  0  0  0
  -28.7185  -12.0884   21.4066 H   0  0  0  0  0  0
  -28.4739  -13.7644   21.8232 H   0  0  0  0  0  0
  -25.2765   -9.5675   22.4801 H   0  0  0  0  0  0
  -23.9995   -7.4635   22.7500 H   0  0  0  0  0  0
  -21.0853   -8.8781   19.8975 H   0  0  0  0  0  0
  -22.3707  -10.9688   19.6181 H   0  0  0  0  0  0
  -21.2035   -7.6163   23.9715 H   0  0  0  0  0  0
  -21.1468   -6.0545   25.9079 H   0  0  0  0  0  0
  -22.0610   -2.7619   23.2841 H   0  0  0  0  0  0
  -22.4039  -11.9897   22.4707 H   0  0  0  0  0  0
  -21.1151  -13.1383   22.2594 H   0  0  0  0  0  0
  -24.6505  -15.8244   20.4985 H   0  0  0  0  0  0
  -26.3006  -15.6312   20.1504 H   0  0  0  0  0  0
  -26.7106  -32.5540   23.1120 H   0  0  0  0  0  0
  -25.0012  -33.9784   25.0455 H   0  0  0  0  0  0
  -22.7146  -31.3146   21.3928 H   0  0  0  0  0  0
  -23.3766  -35.9609   23.3323 H   0  0  0  0  0  0
  -24.3543  -36.8884   22.2044 H   0  0  0  0  0  0
  -23.7184  -37.6492   23.6635 H   0  0  0  0  0  0
  -26.0801  -31.5546   20.6061 H   0  0  0  0  0  0
  -26.8419  -30.8550   21.9971 H   0  0  0  0  0  0
  -28.1060  -28.9921   21.2264 H   0  0  0  0  0  0
  -26.0168  -25.9740   18.9441 H   0  0  0  0  0  0
  -23.9908  -27.3351   18.9661 H   0  0  0  0  0  0
  -23.7363  -30.5864   19.3939 H   0  0  0  0  0  0
  -22.7511  -29.2362   19.8813 H   0  0  0  0  0  0
  -25.1274  -36.1987   25.0838 H   0  0  0  0  0  0
  -20.9977  -28.3254   24.1272 H   0  0  0  0  0  0
  -20.5821  -26.2357   23.3565 H   0  0  0  0  0  0
  -21.6593  -26.7520   22.1035 H   0  0  0  0  0  0
  -19.6689  -25.6067   21.1554 H   0  0  0  0  0  0
  -19.6574  -27.2839   20.6611 H   0  0  0  0  0  0
  -18.0372  -26.0239   22.9403 H   0  0  0  0  0  0
  -17.4099  -26.6469   21.4328 H   0  0  0  0  0  0
  -19.8044  -30.7432   24.1850 H   0  0  0  0  0  0
  -17.5109  -31.6395   24.5004 H   0  0  0  0  0  0
  -15.5408  -30.3205   23.7651 H   0  0  0  0  0  0
  -15.8597  -28.0891   22.7220 H   0  0  0  0  0  0
  -24.5913  -30.7018   25.7819 H   0  0  0  0  0  0
  -24.8843  -32.2828   26.4948 H   0  0  0  0  0  0
  -25.8040  -30.8880   27.0252 H   0  0  0  0  0  0
  -26.2812  -29.6840   24.1202 H   0  0  0  0  0  0
  -27.3971  -29.7280   25.4659 H   0  0  0  0  0  0
  -27.8712  -30.4362   23.9399 H   0  0  0  0  0  0
  -27.2697  -33.3641   26.2121 H   0  0  0  0  0  0
  -28.3863  -32.6858   25.0357 H   0  0  0  0  0  0
  -28.0723  -31.8438   26.5423 H   0  0  0  0  0  0
  -28.2635  -38.0073   24.7548 H   0  0  0  0  0  0
  -28.1052  -36.2618   24.6307 H   0  0  0  0  0  0
  -27.2315  -37.1466   25.8881 H   0  0  0  0  0  0
  -20.9414  -29.8518   21.6536 H   0  0  0  0  0  0
  -26.0196  -38.2909   24.1390 H   0  0  0  0  0  0
  -29.8475  -24.4641   21.5568 H   0  0  0  0  0  0
  -28.2950  -24.1568   22.4178 H   0  0  0  0  0  0
  -28.0707  -23.8265   18.4988 H   0  0  0  0  0  0
  -29.6998  -24.2553   19.1297 H   0  0  0  0  0  0
  -27.4714  -22.6518   20.6198 H   0  0  0  0  0  0
  -26.9750  -24.8546   20.5242 H   0  0  0  0  0  0
  -25.7545  -17.8894   21.5408 H   0  0  0  0  0  0
  -25.6925  -18.0511   19.7802 H   0  0  0  0  0  0
  -25.3548  -19.4407   20.8111 H   0  0  0  0  0  0
  -31.2294  -17.2439   21.6499 H   0  0  0  0  0  0
  -31.2340  -17.1708   19.9065 H   0  0  0  0  0  0
  -30.4315  -21.9600   20.5967 H   0  0  0  0  0  0
  -29.0430  -15.6516   21.0617 H   0  0  0  0  0  0
  1 25  1  0  0  0
  1 30  2  0  0  0
  1 84  1  0  0  0
  2  3  1  0  0  0
  2 25  1  0  0  0
  2 85  1  0  0  0
  2 86  1  0  0  0
  3  4  1  0  0  0
  3 87  1  0  0  0
  3 88  1  0  0  0
  4  5  1  0  0  0
  4 89  1  0  0  0
  4 90  1  0  0  0
  5  6  1  0  0  0
  5 26  1  0  0  0
  5 91  1  0  0  0
  6 25  1  0  0  0
  6 92  1  0  0  0
  6 93  1  0  0  0
  7  8  2  0  0  0
  7 26  1  0  0  0
  7 29  1  0  0  0
  8  9  1  0  0  0
  8 22  1  0  0  0
  9 10  1  0  0  0
  9 27  2  0  0  0
 10 11  2  0  0  0
 10 15  1  0  0  0
 11 12  1  0  0  0
 11 94  1  0  0  0
 12 13  2  0  0  0
 12 95  1  0  0  0
 13 14  1  0  0  0
 13 31  1  0  0  0
 14 15  2  0  0  0
 14 96  1  0  0  0
 15 97  1  0  0  0
 16 17  2  0  0  0
 16 21  1  0  0  0
 16 31  1  0  0  0
 17 18  1  0  0  0
 17 98  1  0  0  0
 18 19  2  0  0  0
 18 99  1  0  0  0
 19 20  1  0  0  0
 19 24  1  0  0  0
 20 21  2  0  0  0
 20100  1  0  0  0
 21 23  1  0  0  0
 22 28  1  0  0  0
 22 32  2  0  0  0
 26 27  1  0  0  0
 28101  1  0  0  0
 28102  1  0  0  0
 29103  1  0  0  0
 29104  1  0  0  0
 33 34  1  0  0  0
 33 66  1  0  0  0
 33 70  2  0  0  0
 34 36  1  0  0  0
 34 59  1  0  0  0
 34105  1  0  0  0
 35 44  2  0  0  0
 35 45  1  0  0  0
 35 68  1  0  0  0
 36 56  1  0  0  0
 36106  1  0  0  0
 37 39  1  0  0  0
 37 47  1  0  0  0
 37 66  1  0  0  0
 37107  1  0  0  0
 38 43  2  0  0  0
 38 46  1  0  0  0
 38 47  1  0  0  0
 39 64  1  0  0  0
 39 67  2  0  0  0
 40 52  1  0  0  0
 40 53  2  0  0  0
 40 58  1  0  0  0
 41108  1  0  0  0
 41109  1  0  0  0
 41110  1  0  0  0
 41 48  1  0  0  0
 42 43  1  0  0  0
 42 66  1  0  0  0
 42111  1  0  0  0
 42112  1  0  0  0
 43 44  1  0  0  0
 44113  1  0  0  0
 45 46  2  0  0  0
 45114  1  0  0  0
 46115  1  0  0  0
 47116  1  0  0  0
 47117  1  0  0  0
 48 56  1  0  0  0
 48 65  1  0  0  0
 48118  1  0  0  0
 49 50  1  0  0  0
 49 53  1  0  0  0
 49 64  1  0  0  0
 49119  1  0  0  0
 50 51  1  0  0  0
 50120  1  0  0  0
 50121  1  0  0  0
 51 52  1  0  0  0
 51122  1  0  0  0
 51123  1  0  0  0
 52124  1  0  0  0
 52125  1  0  0  0
 53 54  1  0  0  0
 54 55  2  0  0  0
 54126  1  0  0  0
 55 57  1  0  0  0
 55127  1  0  0  0
 56 69  2  0  0  0
 57 58  2  0  0  0
 57128  1  0  0  0
 58129  1  0  0  0
 59 60  1  0  0  0
 59 61  1  0  0  0
 59 62  1  0  0  0
 60130  1  0  0  0
 60131  1  0  0  0
 60132  1  0  0  0
 61133  1  0  0  0
 61134  1  0  0  0
 61135  1  0  0  0
 62136  1  0  0  0
 62137  1  0  0  0
 62138  1  0  0  0
 63 65  1  0  0  0
 63139  1  0  0  0
 63140  1  0  0  0
 63141  1  0  0  0
 64142  1  0  0  0
 65143  1  0  0  0
 68 77  1  0  0  0
 71 78  1  0  0  0
 71 80  2  0  0  0
 71 81  1  0  0  0
 72 79  1  0  0  0
 72 80  1  0  0  0
 72 82  2  0  0  0
 73 81  2  0  0  0
 73 82  1  0  0  0
 73 83  1  0  0  0
 74 76  1  0  0  0
 74 77  1  0  0  0
 74144  1  0  0  0
 74145  1  0  0  0
 75 76  1  0  0  0
 75 77  1  0  0  0
 75146  1  0  0  0
 75147  1  0  0  0
 76 83  1  0  0  0
 76148  1  0  0  0
 77149  1  0  0  0
 78150  1  0  0  0
 78151  1  0  0  0
 78152  1  0  0  0
 79 84  1  0  0  0
 79153  1  0  0  0
 79154  1  0  0  0
 83155  1  0  0  0
 84156  1  0  0  0
M  ISO  4   1 100  68 101  77 101  84 100
M  END
> <chiral flag>
0

> <version>
0

> <s_m_source_file>
/data/baiqing/PycharmProjects/Reinvent-master-3.2/result/LINK_invent/BTK/process_docking_weight1_custom_sum_contain_oxygen_bond_distance_aromatic_linkinvent_7_9_3/rearranged_h_0186.sdf

> <i_m_source_file_index>
68

> <r_mmod_Potential_Energy-OPLS-2005>
-900.048889160156

> <r_mmod_Stretch_Energy-OPLS-2005>
57.6720542907715

> <r_mmod_Bend_Energy-OPLS-2005>
155.981872558594

> <r_mmod_Torsional_Energy-OPLS-2005>
211.854797363281

> <r_mmod_Improper_Torsional_Energy-OPLS-2005>
4.20768928527832

> <r_mmod_Van_der_Waal_Energy-OPLS-2005>
179.813522338867

> <r_mmod_Electrostatic_Energy-OPLS-2005>
-1320.07141113281

> <r_mmod_Solvation_Energy-OPLS-2005>
-230.927520751953

> <b_mmod_Minimization_Converged-OPLS-2005>
0

> <r_mmod_RMS_Derivative-OPLS-2005>
4.10874700546265

$$$$
69
                    3D
 Structure written by MMmdl.
150158  0  0  1  0            999 V2000
  -30.4148  -15.4922   20.3454 C   0  0  0  0  0  0
  -30.4110  -12.9824   19.5307 C   0  0  0  0  0  0
  -29.5316  -12.6171   18.3075 C   0  0  0  0  0  0
  -28.0998  -12.2931   18.7540 C   0  0  0  0  0  0
  -27.5933  -13.3012   19.8128 C   0  0  2  0  0  0
  -28.6164  -13.6083   20.9311 C   0  0  0  0  0  0
  -25.2318  -13.8297   20.5816 C   0  0  0  0  0  0
  -24.1698  -13.0448   20.9295 C   0  0  0  0  0  0
  -24.6389  -11.6955   20.8780 C   0  0  0  0  0  0
  -23.9103  -10.4296   21.0409 C   0  0  0  0  0  0
  -24.3645   -9.4206   21.9185 C   0  0  0  0  0  0
  -23.6310   -8.2245   22.0753 C   0  0  0  0  0  0
  -22.4288   -8.0288   21.3547 C   0  0  0  0  0  0
  -21.9934   -9.0264   20.4647 C   0  0  0  0  0  0
  -22.7274  -10.2138   20.3057 C   0  0  0  0  0  0
  -21.6857   -6.0739   22.5278 C   0  0  0  0  0  0
  -21.4020   -6.5642   23.8212 C   0  0  0  0  0  0
  -21.3661   -5.6795   24.9175 C   0  0  0  0  0  0
  -21.6045   -4.3057   24.7224 C   0  0  0  0  0  0
  -21.8818   -3.8148   23.4345 C   0  0  0  0  0  0
  -21.9193   -4.6965   22.3401 C   0  0  0  0  0  0
  -22.7712  -13.5178   21.1930 C   0  0  0  0  0  0
  -22.1660   -4.2152   21.0978 F   0  0  0  0  0  0
  -21.5625   -3.4541   25.7736 F   0  0  0  0  0  0
  -29.8063  -14.1788   20.2668 N   0  0  0  0  0  0
  -26.2749  -12.9614   20.3259 N   0  0  0  0  0  0
  -25.9332  -11.6691   20.5733 N   0  0  0  0  0  0
  -22.0377  -12.8149   22.0478 N   0  0  0  0  0  0
  -25.3945  -15.2037   20.4269 N   0  0  0  0  0  0
  -31.6422  -15.3537   20.1831 O   0  0  0  0  0  0
  -21.6648   -6.8887   21.4242 O   0  0  0  0  0  0
  -22.3392  -14.5479   20.6769 O   0  0  0  0  0  0
  -24.6761  -31.8082   23.1573 C   0  0  0  0  0  0
  -25.9378  -32.4506   23.8095 C   0  0  1  0  0  0
  -27.2183  -26.7801   20.2035 C   0  0  0  0  0  0
  -25.5988  -33.8328   24.1988 N   0  0  0  0  0  0
  -23.4981  -30.4133   21.5094 C   0  0  2  0  0  0
  -24.9534  -28.7703   20.1125 C   0  0  0  0  0  0
  -22.7733  -29.4356   22.4730 C   0  0  0  0  0  0
  -18.0336  -28.1414   22.8464 C   0  0  0  0  0  0
  -24.1495  -36.7174   23.2652 C   0  0  0  0  0  0
  -26.0742  -30.5659   21.4102 C   0  0  0  0  0  0
  -26.1392  -29.1397   20.7580 C   0  0  0  0  0  0
  -27.2594  -28.1690   20.7749 C   0  0  0  0  0  0
  -26.0047  -26.6016   19.4972 C   0  0  0  0  0  0
  -24.9207  -27.5264   19.4589 C   0  0  0  0  0  0
  -23.7467  -29.7168   20.1409 C   0  0  0  0  0  0
  -25.4141  -36.2918   24.0287 C   0  0  1  0  0  0
  -20.5967  -28.3770   23.1160 C   0  0  2  0  0  0
  -20.6802  -26.9438   22.5404 C   0  0  0  0  0  0
  -19.5774  -26.6372   21.5219 C   0  0  0  0  0  0
  -18.1959  -26.7944   22.1626 C   0  0  0  0  0  0
  -19.1600  -28.8916   23.2795 C   0  0  0  0  0  0
  -18.9506  -30.1501   23.8837 C   0  0  0  0  0  0
  -17.6496  -30.6599   24.0554 C   0  0  0  0  0  0
  -25.9116  -34.9307   23.4971 C   0  0  0  0  0  0
  -16.5387  -29.9082   23.6346 C   0  0  0  0  0  0
  -16.7317  -28.6504   23.0366 C   0  0  0  0  0  0
  -26.4578  -31.6511   25.0687 C   0  0  0  0  0  0
  -25.3662  -31.3808   26.1315 C   0  0  0  0  0  0
  -27.0500  -30.2857   24.6532 C   0  0  0  0  0  0
  -27.6035  -32.4360   25.7504 C   0  0  0  0  0  0
  -27.5564  -37.1745   24.8468 C   0  0  0  0  0  0
  -21.4386  -29.3035   22.3489 N   0  0  0  0  0  0
  -26.4274  -37.3670   23.9406 N   0  0  0  0  0  0
  -24.7720  -30.9605   22.0785 N   0  0  0  0  0  0
  -23.4217  -28.7949   23.3039 O   0  0  0  0  0  0
  -28.1927  -25.6027   20.3084 O   0  0  0  0  0  0
  -26.5749  -34.8871   22.4582 O   0  0  0  0  0  0
  -23.5798  -32.1121   23.6578 O   0  0  0  0  0  0
  -28.5071  -17.7105   20.5805 C   0  0  0  0  0  0
  -30.5849  -18.1983   19.7660 C   0  0  0  0  0  0
  -28.2678  -19.4130   20.8770 C   0  0  0  0  0  0
  -30.3409  -19.8585   20.1141 C   0  0  0  0  0  0
  -28.9045  -22.2980   20.5810 C   0  0  0  0  0  0
  -28.0493  -23.9000   20.0444 C   0  0  0  0  0  0
  -29.8418  -16.9299   20.3046 N   0  0  0  0  0  0
  -28.9707  -20.6109   20.1293 N   0  3  0  0  0  0
  -31.4189  -13.1938   19.1716 H   0  0  0  0  0  0
  -30.5243  -12.1258   20.1973 H   0  0  0  0  0  0
  -29.9583  -11.7722   17.7652 H   0  0  0  0  0  0
  -29.5159  -13.4558   17.6099 H   0  0  0  0  0  0
  -28.1069  -11.2901   19.1826 H   0  0  0  0  0  0
  -27.4261  -12.2575   17.8971 H   0  0  0  0  0  0
  -27.4652  -14.2308   19.2561 H   0  0  0  0  0  0
  -28.8479  -12.7237   21.5263 H   0  0  0  0  0  0
  -28.2077  -14.3485   21.6208 H   0  0  0  0  0  0
  -25.2783   -9.5681   22.4771 H   0  0  0  0  0  0
  -24.0011   -7.4637   22.7477 H   0  0  0  0  0  0
  -21.0860   -8.8794   19.8954 H   0  0  0  0  0  0
  -22.3731  -10.9682   19.6172 H   0  0  0  0  0  0
  -21.2019   -7.6152   23.9718 H   0  0  0  0  0  0
  -21.1482   -6.0523   25.9079 H   0  0  0  0  0  0
  -22.0594   -2.7609   23.2843 H   0  0  0  0  0  0
  -22.4019  -11.9822   22.4865 H   0  0  0  0  0  0
  -21.0990  -13.1150   22.2692 H   0  0  0  0  0  0
  -24.6241  -15.8535   20.5418 H   0  0  0  0  0  0
  -26.2417  -15.6450   20.0948 H   0  0  0  0  0  0
  -26.7457  -32.4999   23.0809 H   0  0  0  0  0  0
  -25.0055  -33.9378   25.0086 H   0  0  0  0  0  0
  -22.8191  -31.2487   21.3262 H   0  0  0  0  0  0
  -23.3767  -35.9493   23.3276 H   0  0  0  0  0  0
  -24.3564  -36.8867   22.2074 H   0  0  0  0  0  0
  -23.7247  -37.6343   23.6746 H   0  0  0  0  0  0
  -26.2712  -31.2963   20.6245 H   0  0  0  0  0  0
  -26.9279  -30.6288   22.0728 H   0  0  0  0  0  0
  -28.1513  -28.4530   21.3153 H   0  0  0  0  0  0
  -25.8532  -25.6561   18.9966 H   0  0  0  0  0  0
  -24.0243  -27.2375   18.9273 H   0  0  0  0  0  0
  -23.9164  -30.4800   19.3805 H   0  0  0  0  0  0
  -22.8527  -29.1803   19.8184 H   0  0  0  0  0  0
  -25.1347  -36.1692   25.0778 H   0  0  0  0  0  0
  -21.0056  -28.3389   24.1284 H   0  0  0  0  0  0
  -20.5670  -26.2395   23.3660 H   0  0  0  0  0  0
  -21.6663  -26.7387   22.1219 H   0  0  0  0  0  0
  -19.6928  -25.6266   21.1289 H   0  0  0  0  0  0
  -19.6709  -27.3149   20.6721 H   0  0  0  0  0  0
  -17.4227  -26.6693   21.4029 H   0  0  0  0  0  0
  -18.0345  -26.0097   22.9033 H   0  0  0  0  0  0
  -19.7980  -30.7335   24.2177 H   0  0  0  0  0  0
  -17.5045  -31.6270   24.5172 H   0  0  0  0  0  0
  -15.5383  -30.2966   23.7696 H   0  0  0  0  0  0
  -15.8720  -28.0798   22.7115 H   0  0  0  0  0  0
  -24.5867  -30.7134   25.7620 H   0  0  0  0  0  0
  -24.8828  -32.3024   26.4565 H   0  0  0  0  0  0
  -25.7857  -30.9089   27.0209 H   0  0  0  0  0  0
  -26.3195  -29.6485   24.1536 H   0  0  0  0  0  0
  -27.3968  -29.7285   25.5243 H   0  0  0  0  0  0
  -27.9162  -30.3998   24.0013 H   0  0  0  0  0  0
  -27.2573  -33.3718   26.1904 H   0  0  0  0  0  0
  -28.3938  -32.6831   25.0404 H   0  0  0  0  0  0
  -28.0602  -31.8612   26.5570 H   0  0  0  0  0  0
  -28.2558  -38.0061   24.7505 H   0  0  0  0  0  0
  -28.1083  -36.2584   24.6306 H   0  0  0  0  0  0
  -27.2279  -37.1398   25.8870 H   0  0  0  0  0  0
  -20.9672  -29.8709   21.6583 H   0  0  0  0  0  0
  -26.0107  -38.2723   24.1408 H   0  0  0  0  0  0
  -27.8886  -17.4764   19.7135 H   0  0  0  0  0  0
  -28.0223  -17.1782   21.3995 H   0  0  0  0  0  0
  -31.6441  -18.0140   19.9484 H   0  0  0  0  0  0
  -30.4908  -18.1107   18.6828 H   0  0  0  0  0  0
  -28.4967  -19.5651   21.9330 H   0  0  0  0  0  0
  -27.1964  -19.6045   20.8119 H   0  0  0  0  0  0
  -30.9825  -20.4214   19.4362 H   0  0  0  0  0  0
  -30.7806  -20.0318   21.0978 H   0  0  0  0  0  0
  -28.7760  -22.2650   21.6623 H   0  0  0  0  0  0
  -29.9520  -22.5739   20.4635 H   0  0  0  0  0  0
  -26.9983  -23.7157   20.2660 H   0  0  0  0  0  0
  -28.0914  -23.8508   18.9566 H   0  0  0  0  0  0
  -28.6395  -20.5811   19.1761 H   0  0  0  0  0  0
  1 25  1  0  0  0
  1 30  2  0  0  0
  1 77  1  0  0  0
  2  3  1  0  0  0
  2 25  1  0  0  0
  2 79  1  0  0  0
  2 80  1  0  0  0
  3  4  1  0  0  0
  3 81  1  0  0  0
  3 82  1  0  0  0
  4  5  1  0  0  0
  4 83  1  0  0  0
  4 84  1  0  0  0
  5  6  1  0  0  0
  5 26  1  0  0  0
  5 85  1  0  0  0
  6 25  1  0  0  0
  6 86  1  0  0  0
  6 87  1  0  0  0
  7  8  2  0  0  0
  7 26  1  0  0  0
  7 29  1  0  0  0
  8  9  1  0  0  0
  8 22  1  0  0  0
  9 10  1  0  0  0
  9 27  2  0  0  0
 10 11  2  0  0  0
 10 15  1  0  0  0
 11 12  1  0  0  0
 11 88  1  0  0  0
 12 13  2  0  0  0
 12 89  1  0  0  0
 13 14  1  0  0  0
 13 31  1  0  0  0
 14 15  2  0  0  0
 14 90  1  0  0  0
 15 91  1  0  0  0
 16 17  2  0  0  0
 16 21  1  0  0  0
 16 31  1  0  0  0
 17 18  1  0  0  0
 17 92  1  0  0  0
 18 19  2  0  0  0
 18 93  1  0  0  0
 19 20  1  0  0  0
 19 24  1  0  0  0
 20 21  2  0  0  0
 20 94  1  0  0  0
 21 23  1  0  0  0
 22 28  1  0  0  0
 22 32  2  0  0  0
 26 27  1  0  0  0
 28 95  1  0  0  0
 28 96  1  0  0  0
 29 97  1  0  0  0
 29 98  1  0  0  0
 33 34  1  0  0  0
 33 66  1  0  0  0
 33 70  2  0  0  0
 34 36  1  0  0  0
 34 59  1  0  0  0
 34 99  1  0  0  0
 35 44  2  0  0  0
 35 45  1  0  0  0
 35 68  1  0  0  0
 36 56  1  0  0  0
 36100  1  0  0  0
 37 39  1  0  0  0
 37 47  1  0  0  0
 37 66  1  0  0  0
 37101  1  0  0  0
 38 43  2  0  0  0
 38 46  1  0  0  0
 38 47  1  0  0  0
 39 64  1  0  0  0
 39 67  2  0  0  0
 40 52  1  0  0  0
 40 53  2  0  0  0
 40 58  1  0  0  0
 41102  1  0  0  0
 41103  1  0  0  0
 41104  1  0  0  0
 41 48  1  0  0  0
 42 43  1  0  0  0
 42 66  1  0  0  0
 42105  1  0  0  0
 42106  1  0  0  0
 43 44  1  0  0  0
 44107  1  0  0  0
 45 46  2  0  0  0
 45108  1  0  0  0
 46109  1  0  0  0
 47110  1  0  0  0
 47111  1  0  0  0
 48 56  1  0  0  0
 48 65  1  0  0  0
 48112  1  0  0  0
 49 50  1  0  0  0
 49 53  1  0  0  0
 49 64  1  0  0  0
 49113  1  0  0  0
 50 51  1  0  0  0
 50114  1  0  0  0
 50115  1  0  0  0
 51 52  1  0  0  0
 51116  1  0  0  0
 51117  1  0  0  0
 52118  1  0  0  0
 52119  1  0  0  0
 53 54  1  0  0  0
 54 55  2  0  0  0
 54120  1  0  0  0
 55 57  1  0  0  0
 55121  1  0  0  0
 56 69  2  0  0  0
 57 58  2  0  0  0
 57122  1  0  0  0
 58123  1  0  0  0
 59 60  1  0  0  0
 59 61  1  0  0  0
 59 62  1  0  0  0
 60124  1  0  0  0
 60125  1  0  0  0
 60126  1  0  0  0
 61127  1  0  0  0
 61128  1  0  0  0
 61129  1  0  0  0
 62130  1  0  0  0
 62131  1  0  0  0
 62132  1  0  0  0
 63 65  1  0  0  0
 63133  1  0  0  0
 63134  1  0  0  0
 63135  1  0  0  0
 64136  1  0  0  0
 65137  1  0  0  0
 68 76  1  0  0  0
 71 73  1  0  0  0
 71 77  1  0  0  0
 71138  1  0  0  0
 71139  1  0  0  0
 72 74  1  0  0  0
 72 77  1  0  0  0
 72140  1  0  0  0
 72141  1  0  0  0
 73 78  1  0  0  0
 73142  1  0  0  0
 73143  1  0  0  0
 74 78  1  0  0  0
 74144  1  0  0  0
 74145  1  0  0  0
 75 76  1  0  0  0
 75146  1  0  0  0
 75147  1  0  0  0
 75 78  1  0  0  0
 76148  1  0  0  0
 76149  1  0  0  0
 78150  1  0  0  0
M  CHG  1  78   1
M  ISO  4   1 100  68 101  76 101  77 100
M  END
> <chiral flag>
0

> <version>
0

> <s_m_source_file>
/data/baiqing/PycharmProjects/Reinvent-master-3.2/result/LINK_invent/BTK/process_docking_weight1_custom_sum_contain_oxygen_bond_distance_aromatic_linkinvent_7_9_3/rearranged_h_0186.sdf

> <i_m_source_file_index>
69

> <r_mmod_Potential_Energy-OPLS-2005>
2069.70849609375

> <r_mmod_Stretch_Energy-OPLS-2005>
822.303466796875

> <r_mmod_Bend_Energy-OPLS-2005>
682.106689453125

> <r_mmod_Torsional_Energy-OPLS-2005>
364.669525146484

> <r_mmod_Improper_Torsional_Energy-OPLS-2005>
7.53518962860107

> <r_mmod_Van_der_Waal_Energy-OPLS-2005>
115.253486633301

> <r_mmod_Electrostatic_Energy-OPLS-2005>
-187.556671142578

> <r_mmod_Solvation_Energy-OPLS-2005>
-448.615417480469

> <b_mmod_Minimization_Converged-OPLS-2005>
0

> <r_mmod_RMS_Derivative-OPLS-2005>
0.569041132926941

$$$$
70
                    3D
 Structure written by MMmdl.
153162  0  0  1  0            999 V2000
  -30.6428  -14.8830   20.4146 C   0  0  0  0  0  0
  -30.4125  -12.5545   19.4802 C   0  0  0  0  0  0
  -29.5012  -12.5140   18.2370 C   0  0  0  0  0  0
  -28.0343  -12.3226   18.6567 C   0  0  0  0  0  0
  -27.6232  -13.2562   19.8277 C   0  0  2  0  0  0
  -28.6719  -13.3138   20.9590 C   0  0  0  0  0  0
  -25.2443  -13.8229   20.5694 C   0  0  0  0  0  0
  -24.1771  -13.0442   20.9224 C   0  0  0  0  0  0
  -24.6410  -11.6947   20.8783 C   0  0  0  0  0  0
  -23.9102  -10.4301   21.0418 C   0  0  0  0  0  0
  -24.3664   -9.4209   21.9180 C   0  0  0  0  0  0
  -23.6332   -8.2246   22.0747 C   0  0  0  0  0  0
  -22.4301   -8.0291   21.3548 C   0  0  0  0  0  0
  -21.9957   -9.0262   20.4640 C   0  0  0  0  0  0
  -22.7280  -10.2134   20.3046 C   0  0  0  0  0  0
  -21.6859   -6.0760   22.5280 C   0  0  0  0  0  0
  -21.4015   -6.5657   23.8214 C   0  0  0  0  0  0
  -21.3660   -5.6797   24.9173 C   0  0  0  0  0  0
  -21.6055   -4.3060   24.7217 C   0  0  0  0  0  0
  -21.8820   -3.8160   23.4332 C   0  0  0  0  0  0
  -21.9195   -4.6987   22.3399 C   0  0  0  0  0  0
  -22.7792  -13.5196   21.1861 C   0  0  0  0  0  0
  -22.1656   -4.2162   21.0978 F   0  0  0  0  0  0
  -21.5631   -3.4550   25.7730 F   0  0  0  0  0  0
  -29.9448  -13.6849   20.3328 N   0  0  0  0  0  0
  -26.2877  -12.9499   20.3241 N   0  0  0  0  0  0
  -25.9344  -11.6628   20.5773 N   0  0  0  0  0  0
  -22.0458  -12.8178   22.0419 N   0  0  0  0  0  0
  -25.4081  -15.1943   20.4101 N   0  0  0  0  0  0
  -31.8589  -14.8282   20.2169 O   0  0  0  0  0  0
  -21.6652   -6.8890   21.4235 O   0  0  0  0  0  0
  -22.3467  -14.5490   20.6704 O   0  0  0  0  0  0
  -24.6433  -31.8471   23.1908 C   0  0  0  0  0  0
  -25.9220  -32.4711   23.8278 C   0  0  1  0  0  0
  -27.2076  -27.1505   20.1498 C   0  0  0  0  0  0
  -25.5992  -33.8519   24.2208 N   0  0  0  0  0  0
  -23.4429  -30.4693   21.5389 C   0  0  2  0  0  0
  -24.8891  -28.9000   20.1107 C   0  0  0  0  0  0
  -22.7562  -29.4576   22.4893 C   0  0  0  0  0  0
  -18.0293  -28.1406   22.8477 C   0  0  0  0  0  0
  -24.1494  -36.7251   23.2637 C   0  0  0  0  0  0
  -25.9999  -30.7227   21.3901 C   0  0  0  0  0  0
  -26.0662  -29.3363   20.7308 C   0  0  0  0  0  0
  -27.2294  -28.4784   20.7324 C   0  0  0  0  0  0
  -26.0093  -26.8223   19.4772 C   0  0  0  0  0  0
  -24.8724  -27.6563   19.4666 C   0  0  0  0  0  0
  -23.6656  -29.8037   20.1558 C   0  0  0  0  0  0
  -25.4128  -36.3034   24.0301 C   0  0  1  0  0  0
  -20.5916  -28.3722   23.1255 C   0  0  2  0  0  0
  -20.6790  -26.9434   22.5415 C   0  0  0  0  0  0
  -19.5766  -26.6388   21.5228 C   0  0  0  0  0  0
  -18.1941  -26.7939   22.1623 C   0  0  0  0  0  0
  -19.1552  -28.8877   23.2860 C   0  0  0  0  0  0
  -18.9472  -30.1473   23.8873 C   0  0  0  0  0  0
  -17.6474  -30.6601   24.0556 C   0  0  0  0  0  0
  -25.9081  -34.9413   23.5057 C   0  0  0  0  0  0
  -16.5367  -29.9089   23.6358 C   0  0  0  0  0  0
  -16.7275  -28.6522   23.0358 C   0  0  0  0  0  0
  -26.4523  -31.6570   25.0721 C   0  0  0  0  0  0
  -25.3699  -31.3786   26.1421 C   0  0  0  0  0  0
  -27.0390  -30.2956   24.6338 C   0  0  0  0  0  0
  -27.6060  -32.4337   25.7526 C   0  0  0  0  0  0
  -27.5577  -37.1786   24.8462 C   0  0  0  0  0  0
  -21.4263  -29.3057   22.3625 N   0  0  0  0  0  0
  -26.4291  -37.3749   23.9408 N   0  0  0  0  0  0
  -24.7149  -31.0344   22.0935 N   0  0  0  0  0  0
  -23.4232  -28.8127   23.3033 O   0  0  0  0  0  0
  -28.2539  -26.1626   20.1867 O   0  0  0  0  0  0
  -26.5673  -34.8904   22.4637 O   0  0  0  0  0  0
  -23.5560  -32.1354   23.7159 O   0  0  0  0  0  0
  -30.5718  -22.4469   19.0679 C   0  0  0  0  0  0
  -28.8236  -23.3518   20.1572 C   0  0  0  0  0  0
  -29.2700  -21.0190   20.1883 C   0  0  0  0  0  0
  -30.7471  -17.5267   20.4399 C   0  0  0  0  0  0
  -28.7587  -16.9073   20.5715 C   0  0  0  0  0  0
  -29.4199  -18.2542   20.0260 C   0  0  0  0  0  0
  -31.7908  -22.6540   18.1928 C   0  0  0  0  0  0
  -27.8972  -24.6717   20.4627 C   0  0  0  0  0  0
  -29.8917  -23.5526   19.3911 N   0  0  0  0  0  0
  -30.3200  -21.1791   19.4058 N   0  0  0  0  0  0
  -28.4862  -22.0746   20.5968 N   0  0  0  0  0  0
  -30.0641  -16.1827   20.4395 N   0  0  0  0  0  0
  -29.0193  -19.6408   20.6094 N   0  0  0  0  0  0
  -31.4507  -12.6679   19.1640 H   0  0  0  0  0  0
  -30.3722  -11.6110   20.0248 H   0  0  0  0  0  0
  -29.8078  -11.7069   17.5691 H   0  0  0  0  0  0
  -29.6091  -13.4390   17.6681 H   0  0  0  0  0  0
  -27.9131  -11.2794   18.9519 H   0  0  0  0  0  0
  -27.3745  -12.4698   17.8012 H   0  0  0  0  0  0
  -27.5780  -14.2536   19.3938 H   0  0  0  0  0  0
  -28.7519  -12.3615   21.4858 H   0  0  0  0  0  0
  -28.3860  -14.0635   21.7007 H   0  0  0  0  0  0
  -25.2799   -9.5689   22.4778 H   0  0  0  0  0  0
  -24.0034   -7.4645   22.7480 H   0  0  0  0  0  0
  -21.0876   -8.8786   19.8957 H   0  0  0  0  0  0
  -22.3724  -10.9696   19.6180 H   0  0  0  0  0  0
  -21.1995   -7.6168   23.9729 H   0  0  0  0  0  0
  -21.1479   -6.0525   25.9084 H   0  0  0  0  0  0
  -22.0598   -2.7611   23.2829 H   0  0  0  0  0  0
  -22.4080  -11.9873   22.4816 H   0  0  0  0  0  0
  -21.1080  -13.1172   22.2632 H   0  0  0  0  0  0
  -24.6375  -15.8447   20.5206 H   0  0  0  0  0  0
  -26.2493  -15.6349   20.0660 H   0  0  0  0  0  0
  -26.7307  -32.5308   23.1019 H   0  0  0  0  0  0
  -25.0092  -33.9641   25.0323 H   0  0  0  0  0  0
  -22.7434  -31.2955   21.3901 H   0  0  0  0  0  0
  -23.3762  -35.9581   23.3292 H   0  0  0  0  0  0
  -24.3568  -36.8896   22.2053 H   0  0  0  0  0  0
  -23.7250  -37.6440   23.6681 H   0  0  0  0  0  0
  -26.1635  -31.4800   20.6210 H   0  0  0  0  0  0
  -26.8685  -30.7652   22.0360 H   0  0  0  0  0  0
  -28.1283  -28.8094   21.2351 H   0  0  0  0  0  0
  -25.9181  -25.8879   18.9431 H   0  0  0  0  0  0
  -23.9785  -27.3287   18.9540 H   0  0  0  0  0  0
  -23.8022  -30.5824   19.4047 H   0  0  0  0  0  0
  -22.7790  -29.2493   19.8442 H   0  0  0  0  0  0
  -25.1320  -36.1842   25.0794 H   0  0  0  0  0  0
  -20.9989  -28.3308   24.1388 H   0  0  0  0  0  0
  -20.5715  -26.2337   23.3628 H   0  0  0  0  0  0
  -21.6650  -26.7466   22.1196 H   0  0  0  0  0  0
  -19.6932  -25.6294   21.1269 H   0  0  0  0  0  0
  -19.6702  -27.3190   20.6753 H   0  0  0  0  0  0
  -17.4219  -26.6693   21.4022 H   0  0  0  0  0  0
  -18.0323  -26.0088   22.9022 H   0  0  0  0  0  0
  -19.7942  -30.7302   24.2242 H   0  0  0  0  0  0
  -17.5018  -31.6274   24.5157 H   0  0  0  0  0  0
  -15.5361  -30.2985   23.7686 H   0  0  0  0  0  0
  -15.8675  -28.0824   22.7096 H   0  0  0  0  0  0
  -24.5888  -30.7118   25.7740 H   0  0  0  0  0  0
  -24.8869  -32.2978   26.4746 H   0  0  0  0  0  0
  -25.7958  -30.9022   27.0260 H   0  0  0  0  0  0
  -26.3014  -29.6683   24.1312 H   0  0  0  0  0  0
  -27.3944  -29.7255   25.4934 H   0  0  0  0  0  0
  -27.8947  -30.4173   23.9694 H   0  0  0  0  0  0
  -27.2644  -33.3653   26.2053 H   0  0  0  0  0  0
  -28.3896  -32.6878   25.0370 H   0  0  0  0  0  0
  -28.0696  -31.8491   26.5484 H   0  0  0  0  0  0
  -28.2584  -38.0092   24.7515 H   0  0  0  0  0  0
  -28.1080  -36.2620   24.6274 H   0  0  0  0  0  0
  -27.2296  -37.1415   25.8866 H   0  0  0  0  0  0
  -20.9473  -29.8739   21.6767 H   0  0  0  0  0  0
  -26.0141  -38.2813   24.1417 H   0  0  0  0  0  0
  -31.1245  -17.8171   21.4222 H   0  0  0  0  0  0
  -31.5384  -17.6222   19.6938 H   0  0  0  0  0  0
  -27.9687  -16.5294   19.9252 H   0  0  0  0  0  0
  -28.4070  -16.9692   21.6050 H   0  0  0  0  0  0
  -29.3439  -18.2884   18.9343 H   0  0  0  0  0  0
  -32.0736  -23.7071   18.1264 H   0  0  0  0  0  0
  -31.5951  -22.2938   17.1830 H   0  0  0  0  0  0
  -32.6426  -22.1056   18.5939 H   0  0  0  0  0  0
  -27.6688  -24.6223   21.5274 H   0  0  0  0  0  0
  -26.9601  -24.4247   19.9739 H   0  0  0  0  0  0
  -28.2398  -19.5904   21.2556 H   0  0  0  0  0  0
  1 25  1  0  0  0
  1 30  2  0  0  0
  1 82  1  0  0  0
  2  3  1  0  0  0
  2 25  1  0  0  0
  2 84  1  0  0  0
  2 85  1  0  0  0
  3  4  1  0  0  0
  3 86  1  0  0  0
  3 87  1  0  0  0
  4  5  1  0  0  0
  4 88  1  0  0  0
  4 89  1  0  0  0
  5  6  1  0  0  0
  5 26  1  0  0  0
  5 90  1  0  0  0
  6 25  1  0  0  0
  6 91  1  0  0  0
  6 92  1  0  0  0
  7  8  2  0  0  0
  7 26  1  0  0  0
  7 29  1  0  0  0
  8  9  1  0  0  0
  8 22  1  0  0  0
  9 10  1  0  0  0
  9 27  2  0  0  0
 10 11  2  0  0  0
 10 15  1  0  0  0
 11 12  1  0  0  0
 11 93  1  0  0  0
 12 13  2  0  0  0
 12 94  1  0  0  0
 13 14  1  0  0  0
 13 31  1  0  0  0
 14 15  2  0  0  0
 14 95  1  0  0  0
 15 96  1  0  0  0
 16 17  2  0  0  0
 16 21  1  0  0  0
 16 31  1  0  0  0
 17 18  1  0  0  0
 17 97  1  0  0  0
 18 19  2  0  0  0
 18 98  1  0  0  0
 19 20  1  0  0  0
 19 24  1  0  0  0
 20 21  2  0  0  0
 20 99  1  0  0  0
 21 23  1  0  0  0
 22 28  1  0  0  0
 22 32  2  0  0  0
 26 27  1  0  0  0
 28100  1  0  0  0
 28101  1  0  0  0
 29102  1  0  0  0
 29103  1  0  0  0
 33 34  1  0  0  0
 33 66  1  0  0  0
 33 70  2  0  0  0
 34 36  1  0  0  0
 34 59  1  0  0  0
 34104  1  0  0  0
 35 44  2  0  0  0
 35 45  1  0  0  0
 35 68  1  0  0  0
 36 56  1  0  0  0
 36105  1  0  0  0
 37 39  1  0  0  0
 37 47  1  0  0  0
 37 66  1  0  0  0
 37106  1  0  0  0
 38 43  2  0  0  0
 38 46  1  0  0  0
 38 47  1  0  0  0
 39 64  1  0  0  0
 39 67  2  0  0  0
 40 52  1  0  0  0
 40 53  2  0  0  0
 40 58  1  0  0  0
 41107  1  0  0  0
 41108  1  0  0  0
 41109  1  0  0  0
 41 48  1  0  0  0
 42 43  1  0  0  0
 42 66  1  0  0  0
 42110  1  0  0  0
 42111  1  0  0  0
 43 44  1  0  0  0
 44112  1  0  0  0
 45 46  2  0  0  0
 45113  1  0  0  0
 46114  1  0  0  0
 47115  1  0  0  0
 47116  1  0  0  0
 48 56  1  0  0  0
 48 65  1  0  0  0
 48117  1  0  0  0
 49 50  1  0  0  0
 49 53  1  0  0  0
 49 64  1  0  0  0
 49118  1  0  0  0
 50 51  1  0  0  0
 50119  1  0  0  0
 50120  1  0  0  0
 51 52  1  0  0  0
 51121  1  0  0  0
 51122  1  0  0  0
 52123  1  0  0  0
 52124  1  0  0  0
 53 54  1  0  0  0
 54 55  2  0  0  0
 54125  1  0  0  0
 55 57  1  0  0  0
 55126  1  0  0  0
 56 69  2  0  0  0
 57 58  2  0  0  0
 57127  1  0  0  0
 58128  1  0  0  0
 59 60  1  0  0  0
 59 61  1  0  0  0
 59 62  1  0  0  0
 60129  1  0  0  0
 60130  1  0  0  0
 60131  1  0  0  0
 61132  1  0  0  0
 61133  1  0  0  0
 61134  1  0  0  0
 62135  1  0  0  0
 62136  1  0  0  0
 62137  1  0  0  0
 63 65  1  0  0  0
 63138  1  0  0  0
 63139  1  0  0  0
 63140  1  0  0  0
 64141  1  0  0  0
 65142  1  0  0  0
 68 78  1  0  0  0
 71 77  1  0  0  0
 71 79  2  0  0  0
 71 80  1  0  0  0
 72 78  1  0  0  0
 72 79  1  0  0  0
 72 81  2  0  0  0
 73 80  2  0  0  0
 73 81  1  0  0  0
 73 83  1  0  0  0
 74 76  1  0  0  0
 74 82  1  0  0  0
 74143  1  0  0  0
 74144  1  0  0  0
 75 76  1  0  0  0
 75 82  1  0  0  0
 75145  1  0  0  0
 75146  1  0  0  0
 76 83  1  0  0  0
 76147  1  0  0  0
 77148  1  0  0  0
 77149  1  0  0  0
 77150  1  0  0  0
 78151  1  0  0  0
 78152  1  0  0  0
 83153  1  0  0  0
M  ISO  4   1 100  68 101  78 101  82 100
M  END
> <chiral flag>
0

> <version>
0

> <s_m_source_file>
/data/baiqing/PycharmProjects/Reinvent-master-3.2/result/LINK_invent/BTK/process_docking_weight1_custom_sum_contain_oxygen_bond_distance_aromatic_linkinvent_7_9_3/rearranged_h_0186.sdf

> <i_m_source_file_index>
70

> <r_mmod_Potential_Energy-OPLS-2005>
-300.458435058594

> <r_mmod_Stretch_Energy-OPLS-2005>
189.747512817383

> <r_mmod_Bend_Energy-OPLS-2005>
270.097106933594

> <r_mmod_Torsional_Energy-OPLS-2005>
254.183258056641

> <r_mmod_Improper_Torsional_Energy-OPLS-2005>
7.12297630310059

> <r_mmod_Van_der_Waal_Energy-OPLS-2005>
146.727981567383

> <r_mmod_Electrostatic_Energy-OPLS-2005>
-1086.20666503906

> <r_mmod_Solvation_Energy-OPLS-2005>
-251.960052490234

> <b_mmod_Minimization_Converged-OPLS-2005>
0

> <r_mmod_RMS_Derivative-OPLS-2005>
3.47896337509155

$$$$
71
                    3D
 Structure written by MMmdl.
162171  0  0  1  0            999 V2000
  -30.6954  -14.5756   20.4843 C   0  0  0  0  0  0
  -30.4173  -12.3477   19.4552 C   0  0  0  0  0  0
  -29.5026  -12.4873   18.2224 C   0  0  0  0  0  0
  -28.0245  -12.3428   18.6362 C   0  0  0  0  0  0
  -27.6491  -13.2269   19.8569 C   0  0  2  0  0  0
  -28.6935  -13.1157   20.9900 C   0  0  0  0  0  0
  -25.2543  -13.8204   20.5696 C   0  0  0  0  0  0
  -24.1823  -13.0453   20.9199 C   0  0  0  0  0  0
  -24.6403  -11.6930   20.8741 C   0  0  0  0  0  0
  -23.9070  -10.4301   21.0401 C   0  0  0  0  0  0
  -24.3617   -9.4212   21.9181 C   0  0  0  0  0  0
  -23.6289   -8.2250   22.0754 C   0  0  0  0  0  0
  -22.4276   -8.0282   21.3542 C   0  0  0  0  0  0
  -21.9908   -9.0259   20.4648 C   0  0  0  0  0  0
  -22.7236  -10.2138   20.3053 C   0  0  0  0  0  0
  -21.6856   -6.0737   22.5278 C   0  0  0  0  0  0
  -21.4015   -6.5639   23.8211 C   0  0  0  0  0  0
  -21.3654   -5.6792   24.9172 C   0  0  0  0  0  0
  -21.6043   -4.3056   24.7228 C   0  0  0  0  0  0
  -21.8818   -3.8149   23.4350 C   0  0  0  0  0  0
  -21.9197   -4.6964   22.3406 C   0  0  0  0  0  0
  -22.7837  -13.5229   21.1881 C   0  0  0  0  0  0
  -22.1661   -4.2149   21.0982 F   0  0  0  0  0  0
  -21.5628   -3.4542   25.7739 F   0  0  0  0  0  0
  -30.0103  -13.3969   20.4069 N   0  0  0  0  0  0
  -26.2985  -12.9410   20.3321 N   0  0  0  0  0  0
  -25.9341  -11.6560   20.5774 N   0  0  0  0  0  0
  -22.0491  -12.8204   22.0424 N   0  0  0  0  0  0
  -25.4237  -15.1924   20.4114 N   0  0  0  0  0  0
  -31.8967  -14.6341   20.2035 O   0  0  0  0  0  0
  -21.6639   -6.8883   21.4237 O   0  0  0  0  0  0
  -22.3509  -14.5540   20.6738 O   0  0  0  0  0  0
  -24.6263  -31.8625   23.2063 C   0  0  0  0  0  0
  -25.9127  -32.4769   23.8374 C   0  0  1  0  0  0
  -27.2068  -27.3388   20.0968 C   0  0  0  0  0  0
  -25.5923  -33.8567   24.2275 N   0  0  0  0  0  0
  -23.4162  -30.4938   21.5484 C   0  0  2  0  0  0
  -24.8549  -28.9599   20.1078 C   0  0  0  0  0  0
  -22.7469  -29.4665   22.4926 C   0  0  0  0  0  0
  -18.0293  -28.1399   22.8479 C   0  0  0  0  0  0
  -24.1482  -36.7318   23.2637 C   0  0  0  0  0  0
  -25.9581  -30.7988   21.3745 C   0  0  0  0  0  0
  -26.0270  -29.4294   20.7149 C   0  0  0  0  0  0
  -27.2050  -28.6279   20.7071 C   0  0  0  0  0  0
  -26.0064  -26.9264   19.4637 C   0  0  0  0  0  0
  -24.8453  -27.7112   19.4765 C   0  0  0  0  0  0
  -23.6260  -29.8392   20.1602 C   0  0  0  0  0  0
  -25.4097  -36.3063   24.0326 C   0  0  1  0  0  0
  -20.5892  -28.3702   23.1275 C   0  0  2  0  0  0
  -20.6774  -26.9423   22.5408 C   0  0  0  0  0  0
  -19.5749  -26.6393   21.5214 C   0  0  0  0  0  0
  -18.1930  -26.7941   22.1632 C   0  0  0  0  0  0
  -19.1548  -28.8868   23.2873 C   0  0  0  0  0  0
  -18.9475  -30.1470   23.8885 C   0  0  0  0  0  0
  -17.6471  -30.6586   24.0574 C   0  0  0  0  0  0
  -25.9044  -34.9439   23.5102 C   0  0  0  0  0  0
  -16.5359  -29.9088   23.6339 C   0  0  0  0  0  0
  -16.7285  -28.6523   23.0330 C   0  0  0  0  0  0
  -26.4504  -31.6564   25.0737 C   0  0  0  0  0  0
  -25.3734  -31.3714   26.1461 C   0  0  0  0  0  0
  -27.0347  -30.2981   24.6201 C   0  0  0  0  0  0
  -27.6067  -32.4289   25.7509 C   0  0  0  0  0  0
  -27.5566  -37.1804   24.8462 C   0  0  0  0  0  0
  -21.4185  -29.3060   22.3670 N   0  0  0  0  0  0
  -26.4276  -37.3753   23.9410 N   0  0  0  0  0  0
  -24.6862  -31.0680   22.0995 N   0  0  0  0  0  0
  -23.4205  -28.8170   23.2967 O   0  0  0  0  0  0
  -28.3160  -26.4821   20.1427 O   0  0  0  0  0  0
  -26.5621  -34.8898   22.4666 O   0  0  0  0  0  0
  -23.5439  -32.1411   23.7408 O   0  0  0  0  0  0
  -27.3090  -19.9670   19.1006 C   0  0  0  0  0  0
  -26.9874  -19.8891   20.5665 C   0  0  0  0  0  0
  -30.0014  -16.6482   21.6196 C   0  0  0  0  0  0
  -30.1398  -16.5605   19.2503 C   0  0  0  0  0  0
  -29.0669  -17.9036   21.4917 C   0  0  0  0  0  0
  -29.1515  -17.7476   19.1490 C   0  0  0  0  0  0
  -28.4491  -19.9507   20.1291 C   0  0  0  0  0  0
  -29.2518  -21.2850   20.3556 C   0  0  0  0  0  0
  -29.0644  -23.9090   20.2581 C   0  0  0  0  0  0
  -28.0168  -25.0494   19.9672 C   0  0  0  0  0  0
  -29.9568  -15.7297   20.4605 N   0  0  0  0  0  0
  -29.2902  -18.6986   20.2649 N   0  0  0  0  0  0
  -28.4446  -22.5358   20.1102 N   0  3  0  0  0  0
  -31.4647  -12.4289   19.1587 H   0  0  0  0  0  0
  -30.3133  -11.3599   19.9061 H   0  0  0  0  0  0
  -29.7578  -11.7344   17.4758 H   0  0  0  0  0  0
  -29.6620  -13.4574   17.7485 H   0  0  0  0  0  0
  -27.8565  -11.2922   18.8775 H   0  0  0  0  0  0
  -27.3708  -12.5659   17.7920 H   0  0  0  0  0  0
  -27.6616  -14.2577   19.5019 H   0  0  0  0  0  0
  -28.6832  -12.1217   21.4400 H   0  0  0  0  0  0
  -28.4635  -13.8203   21.7912 H   0  0  0  0  0  0
  -25.2765   -9.5692   22.4757 H   0  0  0  0  0  0
  -24.0001   -7.4643   22.7471 H   0  0  0  0  0  0
  -21.0849   -8.8773   19.8954 H   0  0  0  0  0  0
  -22.3692  -10.9674   19.6160 H   0  0  0  0  0  0
  -21.1997   -7.6147   23.9716 H   0  0  0  0  0  0
  -21.1476   -6.0523   25.9075 H   0  0  0  0  0  0
  -22.0602   -2.7612   23.2853 H   0  0  0  0  0  0
  -22.4098  -11.9840   22.4780 H   0  0  0  0  0  0
  -21.1109  -13.1215   22.2660 H   0  0  0  0  0  0
  -24.6580  -15.8484   20.5222 H   0  0  0  0  0  0
  -26.2844  -15.6307   20.1100 H   0  0  0  0  0  0
  -26.7185  -32.5453   23.1121 H   0  0  0  0  0  0
  -25.0048  -33.9710   25.0395 H   0  0  0  0  0  0
  -22.7107  -31.3148   21.4091 H   0  0  0  0  0  0
  -23.3711  -35.9684   23.3290 H   0  0  0  0  0  0
  -24.3578  -36.8964   22.2056 H   0  0  0  0  0  0
  -23.7279  -37.6531   23.6679 H   0  0  0  0  0  0
  -26.0865  -31.5596   20.6021 H   0  0  0  0  0  0
  -26.8437  -30.8486   21.9972 H   0  0  0  0  0  0
  -28.1003  -28.9759   21.2038 H   0  0  0  0  0  0
  -25.9102  -25.9818   18.9525 H   0  0  0  0  0  0
  -23.9463  -27.3493   18.9948 H   0  0  0  0  0  0
  -23.7395  -30.6190   19.4067 H   0  0  0  0  0  0
  -22.7461  -29.2688   19.8586 H   0  0  0  0  0  0
  -25.1258  -36.1917   25.0818 H   0  0  0  0  0  0
  -20.9996  -28.3285   24.1390 H   0  0  0  0  0  0
  -20.5690  -26.2312   23.3610 H   0  0  0  0  0  0
  -21.6640  -26.7454   22.1189 H   0  0  0  0  0  0
  -19.6920  -25.6307   21.1240 H   0  0  0  0  0  0
  -19.6686  -27.3207   20.6742 H   0  0  0  0  0  0
  -17.4191  -26.6685   21.4034 H   0  0  0  0  0  0
  -18.0335  -26.0090   22.9040 H   0  0  0  0  0  0
  -19.7952  -30.7297   24.2229 H   0  0  0  0  0  0
  -17.5024  -31.6262   24.5190 H   0  0  0  0  0  0
  -15.5360  -30.2978   23.7674 H   0  0  0  0  0  0
  -15.8691  -28.0855   22.7010 H   0  0  0  0  0  0
  -24.5918  -30.7050   25.7801 H   0  0  0  0  0  0
  -24.8919  -32.2881   26.4872 H   0  0  0  0  0  0
  -25.8049  -30.8910   27.0250 H   0  0  0  0  0  0
  -26.2926  -29.6711   24.1251 H   0  0  0  0  0  0
  -27.4050  -29.7257   25.4721 H   0  0  0  0  0  0
  -27.8778  -30.4241   23.9402 H   0  0  0  0  0  0
  -27.2695  -33.3609   26.2054 H   0  0  0  0  0  0
  -28.3897  -32.6819   25.0345 H   0  0  0  0  0  0
  -28.0698  -31.8426   26.5460 H   0  0  0  0  0  0
  -28.2560  -38.0114   24.7472 H   0  0  0  0  0  0
  -28.1070  -36.2640   24.6294 H   0  0  0  0  0  0
  -27.2293  -37.1457   25.8867 H   0  0  0  0  0  0
  -20.9352  -29.8821   21.6914 H   0  0  0  0  0  0
  -26.0154  -38.2826   24.1398 H   0  0  0  0  0  0
  -27.0765  -20.8958   18.5851 H   0  0  0  0  0  0
  -27.0460  -19.0850   18.5219 H   0  0  0  0  0  0
  -26.5510  -18.9506   20.8965 H   0  0  0  0  0  0
  -26.5391  -20.7708   21.0207 H   0  0  0  0  0  0
  -29.7235  -16.0940   22.5181 H   0  0  0  0  0  0
  -31.0318  -16.9727   21.7770 H   0  0  0  0  0  0
  -31.1645  -16.9364   19.2070 H   0  0  0  0  0  0
  -30.0112  -15.9335   18.3647 H   0  0  0  0  0  0
  -29.2063  -18.5476   22.3616 H   0  0  0  0  0  0
  -28.0359  -17.5530   21.5286 H   0  0  0  0  0  0
  -28.1374  -17.3485   19.1067 H   0  0  0  0  0  0
  -29.3248  -18.2718   18.2083 H   0  0  0  0  0  0
  -30.1166  -21.2911   19.6911 H   0  0  0  0  0  0
  -29.6354  -21.3012   21.3761 H   0  0  0  0  0  0
  -29.4678  -24.0210   21.2648 H   0  0  0  0  0  0
  -29.9006  -23.9983   19.5632 H   0  0  0  0  0  0
  -27.1552  -24.8269   20.6001 H   0  0  0  0  0  0
  -27.7048  -24.8978   18.9327 H   0  0  0  0  0  0
  -27.6536  -22.4871   20.7334 H   0  0  0  0  0  0
  -28.0867  -22.4579   19.1705 H   0  0  0  0  0  0
  1 25  1  0  0  0
  1 30  2  0  0  0
  1 81  1  0  0  0
  2  3  1  0  0  0
  2 25  1  0  0  0
  2 84  1  0  0  0
  2 85  1  0  0  0
  3  4  1  0  0  0
  3 86  1  0  0  0
  3 87  1  0  0  0
  4  5  1  0  0  0
  4 88  1  0  0  0
  4 89  1  0  0  0
  5  6  1  0  0  0
  5 26  1  0  0  0
  5 90  1  0  0  0
  6 25  1  0  0  0
  6 91  1  0  0  0
  6 92  1  0  0  0
  7  8  2  0  0  0
  7 26  1  0  0  0
  7 29  1  0  0  0
  8  9  1  0  0  0
  8 22  1  0  0  0
  9 10  1  0  0  0
  9 27  2  0  0  0
 10 11  2  0  0  0
 10 15  1  0  0  0
 11 12  1  0  0  0
 11 93  1  0  0  0
 12 13  2  0  0  0
 12 94  1  0  0  0
 13 14  1  0  0  0
 13 31  1  0  0  0
 14 15  2  0  0  0
 14 95  1  0  0  0
 15 96  1  0  0  0
 16 17  2  0  0  0
 16 21  1  0  0  0
 16 31  1  0  0  0
 17 18  1  0  0  0
 17 97  1  0  0  0
 18 19  2  0  0  0
 18 98  1  0  0  0
 19 20  1  0  0  0
 19 24  1  0  0  0
 20 21  2  0  0  0
 20 99  1  0  0  0
 21 23  1  0  0  0
 22 28  1  0  0  0
 22 32  2  0  0  0
 26 27  1  0  0  0
 28100  1  0  0  0
 28101  1  0  0  0
 29102  1  0  0  0
 29103  1  0  0  0
 33 34  1  0  0  0
 33 66  1  0  0  0
 33 70  2  0  0  0
 34 36  1  0  0  0
 34 59  1  0  0  0
 34104  1  0  0  0
 35 44  2  0  0  0
 35 45  1  0  0  0
 35 68  1  0  0  0
 36 56  1  0  0  0
 36105  1  0  0  0
 37 39  1  0  0  0
 37 47  1  0  0  0
 37 66  1  0  0  0
 37106  1  0  0  0
 38 43  2  0  0  0
 38 46  1  0  0  0
 38 47  1  0  0  0
 39 64  1  0  0  0
 39 67  2  0  0  0
 40 52  1  0  0  0
 40 53  2  0  0  0
 40 58  1  0  0  0
 41107  1  0  0  0
 41108  1  0  0  0
 41109  1  0  0  0
 41 48  1  0  0  0
 42 43  1  0  0  0
 42 66  1  0  0  0
 42110  1  0  0  0
 42111  1  0  0  0
 43 44  1  0  0  0
 44112  1  0  0  0
 45 46  2  0  0  0
 45113  1  0  0  0
 46114  1  0  0  0
 47115  1  0  0  0
 47116  1  0  0  0
 48 56  1  0  0  0
 48 65  1  0  0  0
 48117  1  0  0  0
 49 50  1  0  0  0
 49 53  1  0  0  0
 49 64  1  0  0  0
 49118  1  0  0  0
 50 51  1  0  0  0
 50119  1  0  0  0
 50120  1  0  0  0
 51 52  1  0  0  0
 51121  1  0  0  0
 51122  1  0  0  0
 52123  1  0  0  0
 52124  1  0  0  0
 53 54  1  0  0  0
 54 55  2  0  0  0
 54125  1  0  0  0
 55 57  1  0  0  0
 55126  1  0  0  0
 56 69  2  0  0  0
 57 58  2  0  0  0
 57127  1  0  0  0
 58128  1  0  0  0
 59 60  1  0  0  0
 59 61  1  0  0  0
 59 62  1  0  0  0
 60129  1  0  0  0
 60130  1  0  0  0
 60131  1  0  0  0
 61132  1  0  0  0
 61133  1  0  0  0
 61134  1  0  0  0
 62135  1  0  0  0
 62136  1  0  0  0
 62137  1  0  0  0
 63 65  1  0  0  0
 63138  1  0  0  0
 63139  1  0  0  0
 63140  1  0  0  0
 64141  1  0  0  0
 65142  1  0  0  0
 68 80  1  0  0  0
 71 72  1  0  0  0
 71 77  1  0  0  0
 71143  1  0  0  0
 71144  1  0  0  0
 72 77  1  0  0  0
 72145  1  0  0  0
 72146  1  0  0  0
 73 75  1  0  0  0
 73 81  1  0  0  0
 73147  1  0  0  0
 73148  1  0  0  0
 74 76  1  0  0  0
 74 81  1  0  0  0
 74149  1  0  0  0
 74150  1  0  0  0
 75 82  1  0  0  0
 75151  1  0  0  0
 75152  1  0  0  0
 76 82  1  0  0  0
 76153  1  0  0  0
 76154  1  0  0  0
 77 78  1  0  0  0
 77 82  1  0  0  0
 78 83  1  0  0  0
 78155  1  0  0  0
 78156  1  0  0  0
 79 80  1  0  0  0
 79 83  1  0  0  0
 79157  1  0  0  0
 79158  1  0  0  0
 80159  1  0  0  0
 80160  1  0  0  0
 83161  1  0  0  0
 83162  1  0  0  0
M  CHG  1  83   1
M  ISO  4   1 100  68 101  80 101  81 100
M  END
> <chiral flag>
0

> <version>
0

> <s_m_source_file>
/data/baiqing/PycharmProjects/Reinvent-master-3.2/result/LINK_invent/BTK/process_docking_weight1_custom_sum_contain_oxygen_bond_distance_aromatic_linkinvent_7_9_3/rearranged_h_0186.sdf

> <i_m_source_file_index>
71

> <r_mmod_Potential_Energy-OPLS-2005>
186.003997802734

> <r_mmod_Stretch_Energy-OPLS-2005>
70.4508514404297

> <r_mmod_Bend_Energy-OPLS-2005>
140.80598449707

> <r_mmod_Torsional_Energy-OPLS-2005>
424.790008544922

> <r_mmod_Improper_Torsional_Energy-OPLS-2005>
16.7458686828613

> <r_mmod_Van_der_Waal_Energy-OPLS-2005>
150.275665283203

> <r_mmod_Electrostatic_Energy-OPLS-2005>
-224.195983886719

> <r_mmod_Solvation_Energy-OPLS-2005>
-436.888061523438

> <b_mmod_Minimization_Converged-OPLS-2005>
0

> <r_mmod_RMS_Derivative-OPLS-2005>
2.31135177612305

$$$$
72
                    3D
 Structure written by MMmdl.
157166  0  0  1  0            999 V2000
  -30.5284  -15.0914   20.4194 C   0  0  0  0  0  0
  -30.4313  -12.6907   19.5161 C   0  0  0  0  0  0
  -29.5224  -12.5553   18.2717 C   0  0  0  0  0  0
  -28.0623  -12.3144   18.6923 C   0  0  0  0  0  0
  -27.6194  -13.2637   19.8356 C   0  0  2  0  0  0
  -28.6598  -13.3528   20.9726 C   0  0  0  0  0  0
  -25.2382  -13.8219   20.5709 C   0  0  0  0  0  0
  -24.1732  -13.0422   20.9242 C   0  0  0  0  0  0
  -24.6383  -11.6923   20.8763 C   0  0  0  0  0  0
  -23.9080  -10.4287   21.0404 C   0  0  0  0  0  0
  -24.3630   -9.4203   21.9181 C   0  0  0  0  0  0
  -23.6301   -8.2242   22.0756 C   0  0  0  0  0  0
  -22.4283   -8.0280   21.3547 C   0  0  0  0  0  0
  -21.9918   -9.0252   20.4648 C   0  0  0  0  0  0
  -22.7250  -10.2128   20.3053 C   0  0  0  0  0  0
  -21.6860   -6.0732   22.5278 C   0  0  0  0  0  0
  -21.4019   -6.5637   23.8212 C   0  0  0  0  0  0
  -21.3658   -5.6791   24.9175 C   0  0  0  0  0  0
  -21.6045   -4.3053   24.7224 C   0  0  0  0  0  0
  -21.8821   -3.8143   23.4349 C   0  0  0  0  0  0
  -21.9197   -4.6960   22.3403 C   0  0  0  0  0  0
  -22.7750  -13.5184   21.1891 C   0  0  0  0  0  0
  -22.1669   -4.2144   21.0983 F   0  0  0  0  0  0
  -21.5623   -3.4539   25.7739 F   0  0  0  0  0  0
  -29.9127  -13.8215   20.3606 N   0  0  0  0  0  0
  -26.2834  -12.9495   20.3257 N   0  0  0  0  0  0
  -25.9326  -11.6608   20.5756 N   0  0  0  0  0  0
  -22.0411  -12.8174   22.0454 N   0  0  0  0  0  0
  -25.3966  -15.1942   20.4092 N   0  0  0  0  0  0
  -31.7306  -15.0801   20.1199 O   0  0  0  0  0  0
  -21.6649   -6.8877   21.4242 O   0  0  0  0  0  0
  -22.3429  -14.5485   20.6734 O   0  0  0  0  0  0
  -24.6519  -31.8357   23.1824 C   0  0  0  0  0  0
  -25.9255  -32.4651   23.8238 C   0  0  1  0  0  0
  -27.2061  -27.0246   20.1747 C   0  0  0  0  0  0
  -25.5966  -33.8462   24.2147 N   0  0  0  0  0  0
  -23.4610  -30.4532   21.5295 C   0  0  2  0  0  0
  -24.9124  -28.8650   20.1104 C   0  0  0  0  0  0
  -22.7613  -29.4502   22.4821 C   0  0  0  0  0  0
  -18.0314  -28.1403   22.8475 C   0  0  0  0  0  0
  -24.1494  -36.7235   23.2641 C   0  0  0  0  0  0
  -26.0244  -30.6701   21.4040 C   0  0  0  0  0  0
  -26.0901  -29.2700   20.7508 C   0  0  0  0  0  0
  -27.2322  -28.3658   20.7715 C   0  0  0  0  0  0
  -26.0162  -26.7731   19.4534 C   0  0  0  0  0  0
  -24.8947  -27.6324   19.4434 C   0  0  0  0  0  0
  -23.6947  -29.7803   20.1507 C   0  0  0  0  0  0
  -25.4132  -36.3006   24.0306 C   0  0  1  0  0  0
  -20.5933  -28.3736   23.1210 C   0  0  2  0  0  0
  -20.6796  -26.9427   22.5402 C   0  0  0  0  0  0
  -19.5767  -26.6377   21.5214 C   0  0  0  0  0  0
  -18.1950  -26.7939   22.1626 C   0  0  0  0  0  0
  -19.1574  -28.8889   23.2834 C   0  0  0  0  0  0
  -18.9486  -30.1484   23.8864 C   0  0  0  0  0  0
  -17.6481  -30.6594   24.0559 C   0  0  0  0  0  0
  -25.9087  -34.9382   23.5043 C   0  0  0  0  0  0
  -16.5373  -29.9085   23.6339 C   0  0  0  0  0  0
  -16.7299  -28.6504   23.0360 C   0  0  0  0  0  0
  -26.4539  -31.6557   25.0725 C   0  0  0  0  0  0
  -25.3690  -31.3802   26.1400 C   0  0  0  0  0  0
  -27.0412  -30.2924   24.6405 C   0  0  0  0  0  0
  -27.6055  -32.4340   25.7515 C   0  0  0  0  0  0
  -27.5576  -37.1780   24.8464 C   0  0  0  0  0  0
  -21.4292  -29.3045   22.3566 N   0  0  0  0  0  0
  -26.4291  -37.3725   23.9399 N   0  0  0  0  0  0
  -24.7328  -31.0107   22.0924 N   0  0  0  0  0  0
  -23.4211  -28.8055   23.3010 O   0  0  0  0  0  0
  -28.2293  -25.9668   20.2255 O   0  0  0  0  0  0
  -26.5682  -34.8894   22.4628 O   0  0  0  0  0  0
  -23.5614  -32.1289   23.6974 O   0  0  0  0  0  0
  -29.0213  -23.3253   20.2865 C   0  0  0  0  0  0
  -28.6241  -21.8805   20.3785 C   0  0  0  0  0  0
  -28.0421  -24.4678   20.3141 C   0  0  0  0  0  0
  -26.4767  -22.7390   20.5225 C   0  0  0  0  0  0
  -28.5694  -18.3248   21.5463 C   0  0  0  0  0  0
  -28.6779  -16.7474   21.3437 C   0  0  0  0  0  0
  -30.2401  -17.8249   20.0224 C   0  0  0  0  0  0
  -29.1305  -19.0446   20.3020 C   0  0  2  0  0  0
  -30.4970  -23.6501   20.1640 C   0  0  0  0  0  0
  -25.0053  -22.4102   20.6547 C   0  0  0  0  0  0
  -27.3041  -21.6848   20.4843 N   0  0  0  0  0  0
  -26.7699  -24.0450   20.4616 N   0  0  0  0  0  0
  -29.8323  -16.3775   20.4930 N   0  0  0  0  0  0
  -29.4503  -20.6135   20.3912 N   0  0  0  0  0  0
  -31.4608  -12.8524   19.1937 H   0  0  0  0  0  0
  -30.4507  -11.7588   20.0836 H   0  0  0  0  0  0
  -29.8686  -11.7420   17.6328 H   0  0  0  0  0  0
  -29.5868  -13.4648   17.6725 H   0  0  0  0  0  0
  -27.9829  -11.2784   19.0245 H   0  0  0  0  0  0
  -27.3968  -12.4112   17.8335 H   0  0  0  0  0  0
  -27.5617  -14.2532   19.3810 H   0  0  0  0  0  0
  -28.7881  -12.3878   21.4651 H   0  0  0  0  0  0
  -28.3256  -14.0434   21.7457 H   0  0  0  0  0  0
  -25.2769   -9.5683   22.4762 H   0  0  0  0  0  0
  -24.0004   -7.4638   22.7482 H   0  0  0  0  0  0
  -21.0846   -8.8772   19.8959 H   0  0  0  0  0  0
  -22.3700  -10.9670   19.6169 H   0  0  0  0  0  0
  -21.2017   -7.6146   23.9713 H   0  0  0  0  0  0
  -21.1479   -6.0523   25.9077 H   0  0  0  0  0  0
  -22.0601   -2.7603   23.2854 H   0  0  0  0  0  0
  -22.4043  -11.9846   22.4844 H   0  0  0  0  0  0
  -21.1029  -13.1194   22.2674 H   0  0  0  0  0  0
  -24.6256  -15.8429   20.5252 H   0  0  0  0  0  0
  -26.2378  -15.6357   20.0631 H   0  0  0  0  0  0
  -26.7315  -32.5223   23.0951 H   0  0  0  0  0  0
  -25.0073  -33.9561   25.0268 H   0  0  0  0  0  0
  -22.7690  -31.2826   21.3697 H   0  0  0  0  0  0
  -23.3760  -35.9564   23.3300 H   0  0  0  0  0  0
  -24.3564  -36.8875   22.2054 H   0  0  0  0  0  0
  -23.7253  -37.6429   23.6690 H   0  0  0  0  0  0
  -26.1964  -31.4157   20.6266 H   0  0  0  0  0  0
  -26.8888  -30.7222   22.0543 H   0  0  0  0  0  0
  -28.1237  -28.6701   21.3016 H   0  0  0  0  0  0
  -25.9174  -25.8433   18.9131 H   0  0  0  0  0  0
  -24.0057  -27.3244   18.9106 H   0  0  0  0  0  0
  -23.8411  -30.5546   19.3968 H   0  0  0  0  0  0
  -22.8065  -29.2304   19.8344 H   0  0  0  0  0  0
  -25.1325  -36.1827   25.0798 H   0  0  0  0  0  0
  -21.0031  -28.3340   24.1329 H   0  0  0  0  0  0
  -20.5685  -26.2349   23.3631 H   0  0  0  0  0  0
  -21.6659  -26.7418   22.1199 H   0  0  0  0  0  0
  -19.6924  -25.6279   21.1263 H   0  0  0  0  0  0
  -19.6703  -27.3171   20.6732 H   0  0  0  0  0  0
  -17.4216  -26.6683   21.4033 H   0  0  0  0  0  0
  -18.0349  -26.0091   22.9031 H   0  0  0  0  0  0
  -19.7960  -30.7314   24.2213 H   0  0  0  0  0  0
  -17.5029  -31.6270   24.5167 H   0  0  0  0  0  0
  -15.5371  -30.2975   23.7680 H   0  0  0  0  0  0
  -15.8699  -28.0812   22.7094 H   0  0  0  0  0  0
  -24.5871  -30.7147   25.7725 H   0  0  0  0  0  0
  -24.8880  -32.3005   26.4719 H   0  0  0  0  0  0
  -25.7930  -30.9043   27.0249 H   0  0  0  0  0  0
  -26.3056  -29.6626   24.1387 H   0  0  0  0  0  0
  -27.3930  -29.7258   25.5038 H   0  0  0  0  0  0
  -27.9010  -30.4108   23.9809 H   0  0  0  0  0  0
  -27.2637  -33.3667   26.2013 H   0  0  0  0  0  0
  -28.3907  -32.6856   25.0375 H   0  0  0  0  0  0
  -28.0677  -31.8521   26.5498 H   0  0  0  0  0  0
  -28.2595  -38.0073   24.7486 H   0  0  0  0  0  0
  -28.1070  -36.2599   24.6326 H   0  0  0  0  0  0
  -27.2281  -37.1464   25.8864 H   0  0  0  0  0  0
  -20.9523  -29.8746   21.6721 H   0  0  0  0  0  0
  -26.0154  -38.2793   24.1391 H   0  0  0  0  0  0
  -29.1662  -18.6058   22.4154 H   0  0  0  0  0  0
  -27.5446  -18.6306   21.7619 H   0  0  0  0  0  0
  -27.7786  -16.3860   20.8499 H   0  0  0  0  0  0
  -28.7362  -16.2475   22.3111 H   0  0  0  0  0  0
  -31.1690  -18.0662   20.5405 H   0  0  0  0  0  0
  -30.4925  -17.7897   18.9620 H   0  0  0  0  0  0
  -28.3718  -18.9594   19.5221 H   0  0  0  0  0  0
  -30.9232  -23.1574   19.2895 H   0  0  0  0  0  0
  -31.0335  -23.3051   21.0486 H   0  0  0  0  0  0
  -30.6628  -24.7231   20.0637 H   0  0  0  0  0  0
  -24.7915  -21.4036   20.2946 H   0  0  0  0  0  0
  -24.3971  -23.1058   20.0760 H   0  0  0  0  0  0
  -24.6972  -22.4716   21.6980 H   0  0  0  0  0  0
  -30.4435  -20.8137   20.3387 H   0  0  0  0  0  0
  1 25  1  0  0  0
  1 30  2  0  0  0
  1 83  1  0  0  0
  2  3  1  0  0  0
  2 25  1  0  0  0
  2 85  1  0  0  0
  2 86  1  0  0  0
  3  4  1  0  0  0
  3 87  1  0  0  0
  3 88  1  0  0  0
  4  5  1  0  0  0
  4 89  1  0  0  0
  4 90  1  0  0  0
  5  6  1  0  0  0
  5 26  1  0  0  0
  5 91  1  0  0  0
  6 25  1  0  0  0
  6 92  1  0  0  0
  6 93  1  0  0  0
  7  8  2  0  0  0
  7 26  1  0  0  0
  7 29  1  0  0  0
  8  9  1  0  0  0
  8 22  1  0  0  0
  9 10  1  0  0  0
  9 27  2  0  0  0
 10 11  2  0  0  0
 10 15  1  0  0  0
 11 12  1  0  0  0
 11 94  1  0  0  0
 12 13  2  0  0  0
 12 95  1  0  0  0
 13 14  1  0  0  0
 13 31  1  0  0  0
 14 15  2  0  0  0
 14 96  1  0  0  0
 15 97  1  0  0  0
 16 17  2  0  0  0
 16 21  1  0  0  0
 16 31  1  0  0  0
 17 18  1  0  0  0
 17 98  1  0  0  0
 18 19  2  0  0  0
 18 99  1  0  0  0
 19 20  1  0  0  0
 19 24  1  0  0  0
 20 21  2  0  0  0
 20100  1  0  0  0
 21 23  1  0  0  0
 22 28  1  0  0  0
 22 32  2  0  0  0
 26 27  1  0  0  0
 28101  1  0  0  0
 28102  1  0  0  0
 29103  1  0  0  0
 29104  1  0  0  0
 33 34  1  0  0  0
 33 66  1  0  0  0
 33 70  2  0  0  0
 34 36  1  0  0  0
 34 59  1  0  0  0
 34105  1  0  0  0
 35 44  2  0  0  0
 35 45  1  0  0  0
 35 68  1  0  0  0
 36 56  1  0  0  0
 36106  1  0  0  0
 37 39  1  0  0  0
 37 47  1  0  0  0
 37 66  1  0  0  0
 37107  1  0  0  0
 38 43  2  0  0  0
 38 46  1  0  0  0
 38 47  1  0  0  0
 39 64  1  0  0  0
 39 67  2  0  0  0
 40 52  1  0  0  0
 40 53  2  0  0  0
 40 58  1  0  0  0
 41108  1  0  0  0
 41109  1  0  0  0
 41110  1  0  0  0
 41 48  1  0  0  0
 42 43  1  0  0  0
 42 66  1  0  0  0
 42111  1  0  0  0
 42112  1  0  0  0
 43 44  1  0  0  0
 44113  1  0  0  0
 45 46  2  0  0  0
 45114  1  0  0  0
 46115  1  0  0  0
 47116  1  0  0  0
 47117  1  0  0  0
 48 56  1  0  0  0
 48 65  1  0  0  0
 48118  1  0  0  0
 49 50  1  0  0  0
 49 53  1  0  0  0
 49 64  1  0  0  0
 49119  1  0  0  0
 50 51  1  0  0  0
 50120  1  0  0  0
 50121  1  0  0  0
 51 52  1  0  0  0
 51122  1  0  0  0
 51123  1  0  0  0
 52124  1  0  0  0
 52125  1  0  0  0
 53 54  1  0  0  0
 54 55  2  0  0  0
 54126  1  0  0  0
 55 57  1  0  0  0
 55127  1  0  0  0
 56 69  2  0  0  0
 57 58  2  0  0  0
 57128  1  0  0  0
 58129  1  0  0  0
 59 60  1  0  0  0
 59 61  1  0  0  0
 59 62  1  0  0  0
 60130  1  0  0  0
 60131  1  0  0  0
 60132  1  0  0  0
 61133  1  0  0  0
 61134  1  0  0  0
 61135  1  0  0  0
 62136  1  0  0  0
 62137  1  0  0  0
 62138  1  0  0  0
 63 65  1  0  0  0
 63139  1  0  0  0
 63140  1  0  0  0
 63141  1  0  0  0
 64142  1  0  0  0
 65143  1  0  0  0
 68 73  1  0  0  0
 71 72  2  0  0  0
 71 73  1  0  0  0
 71 79  1  0  0  0
 72 81  1  0  0  0
 72 84  1  0  0  0
 73 82  2  0  0  0
 74 80  1  0  0  0
 74 81  2  0  0  0
 74 82  1  0  0  0
 75 76  1  0  0  0
 75 78  1  0  0  0
 75144  1  0  0  0
 75145  1  0  0  0
 76 83  1  0  0  0
 76146  1  0  0  0
 76147  1  0  0  0
 77 78  1  0  0  0
 77 83  1  0  0  0
 77148  1  0  0  0
 77149  1  0  0  0
 78 84  1  0  0  0
 78150  1  0  0  0
 79151  1  0  0  0
 79152  1  0  0  0
 79153  1  0  0  0
 80154  1  0  0  0
 80155  1  0  0  0
 80156  1  0  0  0
 84157  1  0  0  0
M  ISO  4   1 100  68 101  73 101  83 100
M  END
> <chiral flag>
0

> <version>
0

> <s_m_source_file>
/data/baiqing/PycharmProjects/Reinvent-master-3.2/result/LINK_invent/BTK/process_docking_weight1_custom_sum_contain_oxygen_bond_distance_aromatic_linkinvent_7_9_3/rearranged_h_0186.sdf

> <i_m_source_file_index>
72

> <r_mmod_Potential_Energy-OPLS-2005>
376.039398193359

> <r_mmod_Stretch_Energy-OPLS-2005>
325.6806640625

> <r_mmod_Bend_Energy-OPLS-2005>
348.306518554688

> <r_mmod_Torsional_Energy-OPLS-2005>
288.644836425781

> <r_mmod_Improper_Torsional_Energy-OPLS-2005>
8.40050315856934

> <r_mmod_Van_der_Waal_Energy-OPLS-2005>
132.726318359375

> <r_mmod_Electrostatic_Energy-OPLS-2005>
-799.393676757812

> <r_mmod_Solvation_Energy-OPLS-2005>
-228.892883300781

> <b_mmod_Minimization_Converged-OPLS-2005>
0

> <r_mmod_RMS_Derivative-OPLS-2005>
0.702728033065796

$$$$
73
                    3D
 Structure written by MMmdl.
164173  0  0  1  0            999 V2000
  -30.6072  -14.7630   20.4756 C   0  0  0  0  0  0
  -30.4311  -12.4710   19.4731 C   0  0  0  0  0  0
  -29.5110  -12.5090   18.2343 C   0  0  0  0  0  0
  -28.0361  -12.3318   18.6445 C   0  0  0  0  0  0
  -27.6372  -13.2298   19.8475 C   0  0  2  0  0  0
  -28.6825  -13.1729   20.9825 C   0  0  0  0  0  0
  -25.2469  -13.8163   20.5670 C   0  0  0  0  0  0
  -24.1768  -13.0410   20.9216 C   0  0  0  0  0  0
  -24.6368  -11.6898   20.8728 C   0  0  0  0  0  0
  -23.9031  -10.4288   21.0373 C   0  0  0  0  0  0
  -24.3600   -9.4201   21.9155 C   0  0  0  0  0  0
  -23.6289   -8.2227   22.0737 C   0  0  0  0  0  0
  -22.4283   -8.0252   21.3510 C   0  0  0  0  0  0
  -21.9902   -9.0211   20.4624 C   0  0  0  0  0  0
  -22.7207  -10.2100   20.3031 C   0  0  0  0  0  0
  -21.6844   -6.0716   22.5270 C   0  0  0  0  0  0
  -21.4003   -6.5627   23.8202 C   0  0  0  0  0  0
  -21.3673   -5.6780   24.9164 C   0  0  0  0  0  0
  -21.6057   -4.3040   24.7214 C   0  0  0  0  0  0
  -21.8824   -3.8130   23.4336 C   0  0  0  0  0  0
  -21.9182   -4.6943   22.3391 C   0  0  0  0  0  0
  -22.7792  -13.5172   21.1850 C   0  0  0  0  0  0
  -22.1654   -4.2124   21.0968 F   0  0  0  0  0  0
  -21.5637   -3.4538   25.7732 F   0  0  0  0  0  0
  -29.9789  -13.5364   20.3988 N   0  0  0  0  0  0
  -26.2900  -12.9383   20.3253 N   0  0  0  0  0  0
  -25.9302  -11.6521   20.5754 N   0  0  0  0  0  0
  -22.0431  -12.8205   22.0444 N   0  0  0  0  0  0
  -25.4095  -15.1893   20.4042 N   0  0  0  0  0  0
  -31.8075  -14.8323   20.1811 O   0  0  0  0  0  0
  -21.6635   -6.8853   21.4236 O   0  0  0  0  0  0
  -22.3478  -14.5455   20.6645 O   0  0  0  0  0  0
  -24.6326  -31.8544   23.1944 C   0  0  0  0  0  0
  -25.9145  -32.4751   23.8284 C   0  0  1  0  0  0
  -27.2276  -27.2770   20.1327 C   0  0  0  0  0  0
  -25.5927  -33.8550   24.2226 N   0  0  0  0  0  0
  -23.4267  -30.4769   21.5389 C   0  0  2  0  0  0
  -24.8705  -28.9094   20.1193 C   0  0  0  0  0  0
  -22.7476  -29.4646   22.4942 C   0  0  0  0  0  0
  -18.0291  -28.1396   22.8482 C   0  0  0  0  0  0
  -24.1487  -36.7306   23.2640 C   0  0  0  0  0  0
  -25.9686  -30.7762   21.3630 C   0  0  0  0  0  0
  -26.0414  -29.3940   20.7157 C   0  0  0  0  0  0
  -27.2252  -28.5925   20.7016 C   0  0  0  0  0  0
  -26.0327  -26.8425   19.5241 C   0  0  0  0  0  0
  -24.8689  -27.6408   19.5127 C   0  0  0  0  0  0
  -23.6404  -29.7964   20.1611 C   0  0  0  0  0  0
  -25.4103  -36.3076   24.0346 C   0  0  1  0  0  0
  -20.5885  -28.3725   23.1275 C   0  0  2  0  0  0
  -20.6775  -26.9445   22.5409 C   0  0  0  0  0  0
  -19.5762  -26.6385   21.5210 C   0  0  0  0  0  0
  -18.1938  -26.7941   22.1609 C   0  0  0  0  0  0
  -19.1531  -28.8874   23.2869 C   0  0  0  0  0  0
  -18.9450  -30.1473   23.8895 C   0  0  0  0  0  0
  -17.6447  -30.6594   24.0577 C   0  0  0  0  0  0
  -25.9045  -34.9452   23.5089 C   0  0  0  0  0  0
  -16.5346  -29.9095   23.6340 C   0  0  0  0  0  0
  -16.7270  -28.6515   23.0360 C   0  0  0  0  0  0
  -26.4478  -31.6587   25.0695 C   0  0  0  0  0  0
  -25.3715  -31.3737   26.1433 C   0  0  0  0  0  0
  -27.0314  -30.3000   24.6200 C   0  0  0  0  0  0
  -27.6023  -32.4330   25.7470 C   0  0  0  0  0  0
  -27.5576  -37.1810   24.8462 C   0  0  0  0  0  0
  -21.4186  -29.3087   22.3667 N   0  0  0  0  0  0
  -26.4280  -37.3772   23.9418 N   0  0  0  0  0  0
  -24.6958  -31.0533   22.0896 N   0  0  0  0  0  0
  -23.4168  -28.8205   23.3053 O   0  0  0  0  0  0
  -28.3611  -26.4470   20.0617 O   0  0  0  0  0  0
  -26.5601  -34.8956   22.4648 O   0  0  0  0  0  0
  -23.5491  -32.1325   23.7284 O   0  0  0  0  0  0
  -29.2103  -18.4094   20.4091 C   0  0  0  0  0  0
  -29.5452  -19.8050   20.6177 C   0  0  0  0  0  0
  -30.1298  -17.3464   20.7615 C   0  0  0  0  0  0
  -31.5355  -19.0570   21.4957 C   0  0  0  0  0  0
  -32.8713  -22.4883   19.9522 C   0  0  0  0  0  0
  -32.6771  -23.8227   19.2860 C   0  0  0  0  0  0
  -31.5573  -23.2252   20.1162 C   0  0  0  0  0  0
  -32.8478  -19.4010   22.1659 C   0  0  0  0  0  0
  -28.6199  -21.0663   20.2722 C   0  0  0  0  0  0
  -30.2995  -22.7296   19.4219 C   0  0  0  0  0  0
  -28.1335  -23.6762   20.2204 C   0  0  0  0  0  0
  -28.4587  -25.1548   20.8133 C   0  0  0  0  0  0
  -30.7351  -20.0771   21.1856 N   0  0  0  0  0  0
  -31.2939  -17.7579   21.3070 N   0  0  0  0  0  0
  -29.8127  -15.8993   20.6189 N   0  0  0  0  0  0
  -29.1612  -22.5149   20.3585 N   0  3  1  0  0  0
  -31.4713  -12.6051   19.1707 H   0  0  0  0  0  0
  -30.3867  -11.4949   19.9590 H   0  0  0  0  0  0
  -29.8043  -11.7346   17.5246 H   0  0  0  0  0  0
  -29.6342  -13.4595   17.7124 H   0  0  0  0  0  0
  -27.8936  -11.2816   18.9016 H   0  0  0  0  0  0
  -27.3772  -12.5211   17.7970 H   0  0  0  0  0  0
  -27.6298  -14.2521   19.4672 H   0  0  0  0  0  0
  -28.7302  -12.1762   21.4217 H   0  0  0  0  0  0
  -28.4143  -13.8501   21.7955 H   0  0  0  0  0  0
  -25.2741   -9.5690   22.4726 H   0  0  0  0  0  0
  -23.9988   -7.4622   22.7470 H   0  0  0  0  0  0
  -21.0817   -8.8692   19.8956 H   0  0  0  0  0  0
  -22.3613  -10.9610   19.6134 H   0  0  0  0  0  0
  -21.2009   -7.6137   23.9703 H   0  0  0  0  0  0
  -21.1498   -6.0500   25.9058 H   0  0  0  0  0  0
  -22.0604   -2.7594   23.2817 H   0  0  0  0  0  0
  -22.4048  -11.9894   22.4888 H   0  0  0  0  0  0
  -21.1013  -13.1190   22.2585 H   0  0  0  0  0  0
  -24.6238  -15.8227   20.5066 H   0  0  0  0  0  0
  -26.2263  -15.6370   20.0120 H   0  0  0  0  0  0
  -26.7244  -32.5412   23.1057 H   0  0  0  0  0  0
  -25.0114  -33.9641   25.0405 H   0  0  0  0  0  0
  -22.7287  -31.3034   21.3867 H   0  0  0  0  0  0
  -23.3750  -35.9631   23.3273 H   0  0  0  0  0  0
  -24.3595  -36.8941   22.2056 H   0  0  0  0  0  0
  -23.7247  -37.6515   23.6668 H   0  0  0  0  0  0
  -26.0968  -31.5347   20.5887 H   0  0  0  0  0  0
  -26.8493  -30.8288   21.9911 H   0  0  0  0  0  0
  -28.1344  -28.9747   21.1421 H   0  0  0  0  0  0
  -26.0020  -25.8736   19.0465 H   0  0  0  0  0  0
  -23.9740  -27.2667   19.0330 H   0  0  0  0  0  0
  -23.7636  -30.5635   19.3964 H   0  0  0  0  0  0
  -22.7564  -29.2283   19.8648 H   0  0  0  0  0  0
  -25.1298  -36.1898   25.0842 H   0  0  0  0  0  0
  -20.9965  -28.3292   24.1397 H   0  0  0  0  0  0
  -20.5681  -26.2326   23.3607 H   0  0  0  0  0  0
  -21.6644  -26.7506   22.1192 H   0  0  0  0  0  0
  -19.6932  -25.6282   21.1272 H   0  0  0  0  0  0
  -19.6699  -27.3163   20.6719 H   0  0  0  0  0  0
  -17.4205  -26.6696   21.4016 H   0  0  0  0  0  0
  -18.0346  -26.0078   22.8997 H   0  0  0  0  0  0
  -19.7927  -30.7295   24.2245 H   0  0  0  0  0  0
  -17.5013  -31.6278   24.5164 H   0  0  0  0  0  0
  -15.5346  -30.2999   23.7676 H   0  0  0  0  0  0
  -15.8668  -28.0849   22.7077 H   0  0  0  0  0  0
  -24.5870  -30.7102   25.7776 H   0  0  0  0  0  0
  -24.8931  -32.2902   26.4904 H   0  0  0  0  0  0
  -25.8041  -30.8884   27.0191 H   0  0  0  0  0  0
  -26.2889  -29.6744   24.1227 H   0  0  0  0  0  0
  -27.3958  -29.7294   25.4754 H   0  0  0  0  0  0
  -27.8787  -30.4254   23.9452 H   0  0  0  0  0  0
  -27.2604  -33.3626   26.2040 H   0  0  0  0  0  0
  -28.3817  -32.6889   25.0281 H   0  0  0  0  0  0
  -28.0702  -31.8460   26.5384 H   0  0  0  0  0  0
  -28.2595  -38.0108   24.7514 H   0  0  0  0  0  0
  -28.1062  -36.2642   24.6251 H   0  0  0  0  0  0
  -27.2313  -37.1436   25.8870 H   0  0  0  0  0  0
  -20.9350  -29.8775   21.6864 H   0  0  0  0  0  0
  -26.0160  -38.2860   24.1361 H   0  0  0  0  0  0
  -28.2488  -18.1666   19.9772 H   0  0  0  0  0  0
  -33.5386  -22.4496   20.8108 H   0  0  0  0  0  0
  -32.8827  -21.6023   19.3197 H   0  0  0  0  0  0
  -32.5587  -23.8354   18.2020 H   0  0  0  0  0  0
  -33.2151  -24.6714   19.7049 H   0  0  0  0  0  0
  -31.3900  -23.7199   21.0711 H   0  0  0  0  0  0
  -33.0673  -20.4663   22.1021 H   0  0  0  0  0  0
  -33.6720  -18.8540   21.7067 H   0  0  0  0  0  0
  -32.8063  -19.1370   23.2219 H   0  0  0  0  0  0
  -27.7657  -20.9983   20.9446 H   0  0  0  0  0  0
  -28.2159  -20.9134   19.2701 H   0  0  0  0  0  0
  -30.5367  -21.8230   18.8625 H   0  0  0  0  0  0
  -30.0276  -23.4617   18.6602 H   0  0  0  0  0  0
  -27.8411  -23.7643   19.1738 H   0  0  0  0  0  0
  -27.2256  -23.3495   20.7297 H   0  0  0  0  0  0
  -29.4891  -25.1333   21.1678 H   0  0  0  0  0  0
  -27.8731  -25.2882   21.7242 H   0  0  0  0  0  0
  -28.8287  -15.6910   20.6508 H   0  0  0  0  0  0
  -29.5526  -22.5342   21.2896 H   0  0  0  0  0  0
  1 25  1  0  0  0
  1 30  2  0  0  0
  1 85  1  0  0  0
  2  3  1  0  0  0
  2 25  1  0  0  0
  2 87  1  0  0  0
  2 88  1  0  0  0
  3  4  1  0  0  0
  3 89  1  0  0  0
  3 90  1  0  0  0
  4  5  1  0  0  0
  4 91  1  0  0  0
  4 92  1  0  0  0
  5  6  1  0  0  0
  5 26  1  0  0  0
  5 93  1  0  0  0
  6 25  1  0  0  0
  6 94  1  0  0  0
  6 95  1  0  0  0
  7  8  2  0  0  0
  7 26  1  0  0  0
  7 29  1  0  0  0
  8  9  1  0  0  0
  8 22  1  0  0  0
  9 10  1  0  0  0
  9 27  2  0  0  0
 10 11  2  0  0  0
 10 15  1  0  0  0
 11 12  1  0  0  0
 11 96  1  0  0  0
 12 13  2  0  0  0
 12 97  1  0  0  0
 13 14  1  0  0  0
 13 31  1  0  0  0
 14 15  2  0  0  0
 14 98  1  0  0  0
 15 99  1  0  0  0
 16 17  2  0  0  0
 16 21  1  0  0  0
 16 31  1  0  0  0
 17 18  1  0  0  0
 17100  1  0  0  0
 18 19  2  0  0  0
 18101  1  0  0  0
 19 20  1  0  0  0
 19 24  1  0  0  0
 20 21  2  0  0  0
 20102  1  0  0  0
 21 23  1  0  0  0
 22 28  1  0  0  0
 22 32  2  0  0  0
 26 27  1  0  0  0
 28103  1  0  0  0
 28104  1  0  0  0
 29105  1  0  0  0
 29106  1  0  0  0
 33 34  1  0  0  0
 33 66  1  0  0  0
 33 70  2  0  0  0
 34 36  1  0  0  0
 34 59  1  0  0  0
 34107  1  0  0  0
 35 44  2  0  0  0
 35 45  1  0  0  0
 35 68  1  0  0  0
 36 56  1  0  0  0
 36108  1  0  0  0
 37 39  1  0  0  0
 37 47  1  0  0  0
 37 66  1  0  0  0
 37109  1  0  0  0
 38 43  2  0  0  0
 38 46  1  0  0  0
 38 47  1  0  0  0
 39 64  1  0  0  0
 39 67  2  0  0  0
 40 52  1  0  0  0
 40 53  2  0  0  0
 40 58  1  0  0  0
 41110  1  0  0  0
 41111  1  0  0  0
 41112  1  0  0  0
 41 48  1  0  0  0
 42 43  1  0  0  0
 42 66  1  0  0  0
 42113  1  0  0  0
 42114  1  0  0  0
 43 44  1  0  0  0
 44115  1  0  0  0
 45 46  2  0  0  0
 45116  1  0  0  0
 46117  1  0  0  0
 47118  1  0  0  0
 47119  1  0  0  0
 48 56  1  0  0  0
 48 65  1  0  0  0
 48120  1  0  0  0
 49 50  1  0  0  0
 49 53  1  0  0  0
 49 64  1  0  0  0
 49121  1  0  0  0
 50 51  1  0  0  0
 50122  1  0  0  0
 50123  1  0  0  0
 51 52  1  0  0  0
 51124  1  0  0  0
 51125  1  0  0  0
 52126  1  0  0  0
 52127  1  0  0  0
 53 54  1  0  0  0
 54 55  2  0  0  0
 54128  1  0  0  0
 55 57  1  0  0  0
 55129  1  0  0  0
 56 69  2  0  0  0
 57 58  2  0  0  0
 57130  1  0  0  0
 58131  1  0  0  0
 59 60  1  0  0  0
 59 61  1  0  0  0
 59 62  1  0  0  0
 60132  1  0  0  0
 60133  1  0  0  0
 60134  1  0  0  0
 61135  1  0  0  0
 61136  1  0  0  0
 61137  1  0  0  0
 62138  1  0  0  0
 62139  1  0  0  0
 62140  1  0  0  0
 63 65  1  0  0  0
 63141  1  0  0  0
 63142  1  0  0  0
 63143  1  0  0  0
 64144  1  0  0  0
 65145  1  0  0  0
 68 82  1  0  0  0
 71 72  2  0  0  0
 71 73  1  0  0  0
 71146  1  0  0  0
 72 79  1  0  0  0
 72 83  1  0  0  0
 73 84  2  0  0  0
 73 85  1  0  0  0
 74 78  1  0  0  0
 74 83  2  0  0  0
 74 84  1  0  0  0
 75 76  1  0  0  0
 75 77  1  0  0  0
 75147  1  0  0  0
 75148  1  0  0  0
 76 77  1  0  0  0
 76149  1  0  0  0
 76150  1  0  0  0
 77 80  1  0  0  0
 77151  1  0  0  0
 78152  1  0  0  0
 78153  1  0  0  0
 78154  1  0  0  0
 79155  1  0  0  0
 79156  1  0  0  0
 79 86  1  0  0  0
 80 86  1  0  0  0
 80157  1  0  0  0
 80158  1  0  0  0
 81 82  1  0  0  0
 81 86  1  0  0  0
 81159  1  0  0  0
 81160  1  0  0  0
 82161  1  0  0  0
 82162  1  0  0  0
 85163  1  0  0  0
 86164  1  0  0  0
M  CHG  1  86   1
M  ISO  4   1 100  68 101  82 101  85 100
M  END
> <chiral flag>
0

> <version>
0

> <s_m_source_file>
/data/baiqing/PycharmProjects/Reinvent-master-3.2/result/LINK_invent/BTK/process_docking_weight1_custom_sum_contain_oxygen_bond_distance_aromatic_linkinvent_7_9_3/rearranged_h_0186.sdf

> <i_m_source_file_index>
73

> <r_mmod_Potential_Energy-OPLS-2005>
-332.520751953125

> <r_mmod_Stretch_Energy-OPLS-2005>
122.945945739746

> <r_mmod_Bend_Energy-OPLS-2005>
183.619140625

> <r_mmod_Torsional_Energy-OPLS-2005>
296.887756347656

> <r_mmod_Improper_Torsional_Energy-OPLS-2005>
6.78537511825562

> <r_mmod_Van_der_Waal_Energy-OPLS-2005>
133.91242980957

> <r_mmod_Electrostatic_Energy-OPLS-2005>
-694.332580566406

> <r_mmod_Solvation_Energy-OPLS-2005>
-461.705139160156

> <b_mmod_Minimization_Converged-OPLS-2005>
0

> <r_mmod_RMS_Derivative-OPLS-2005>
3.33827686309814

$$$$
74
                    3D
 Structure written by MMmdl.
151160  0  0  1  0            999 V2000
  -30.3825  -15.3847   20.3620 C   0  0  0  0  0  0
  -30.4386  -12.8996   19.5219 C   0  0  0  0  0  0
  -29.5399  -12.5984   18.2934 C   0  0  0  0  0  0
  -28.0938  -12.2998   18.7255 C   0  0  0  0  0  0
  -27.6054  -13.2832   19.8168 C   0  0  2  0  0  0
  -28.6367  -13.5029   20.9439 C   0  0  0  0  0  0
  -25.2368  -13.8253   20.5759 C   0  0  0  0  0  0
  -24.1731  -13.0432   20.9272 C   0  0  0  0  0  0
  -24.6404  -11.6932   20.8767 C   0  0  0  0  0  0
  -23.9102  -10.4289   21.0407 C   0  0  0  0  0  0
  -24.3644   -9.4204   21.9188 C   0  0  0  0  0  0
  -23.6310   -8.2243   22.0755 C   0  0  0  0  0  0
  -22.4291   -8.0286   21.3544 C   0  0  0  0  0  0
  -21.9934   -9.0260   20.4641 C   0  0  0  0  0  0
  -22.7273  -10.2135   20.3053 C   0  0  0  0  0  0
  -21.6856   -6.0743   22.5281 C   0  0  0  0  0  0
  -21.4016   -6.5645   23.8214 C   0  0  0  0  0  0
  -21.3662   -5.6798   24.9176 C   0  0  0  0  0  0
  -21.6044   -4.3059   24.7225 C   0  0  0  0  0  0
  -21.8819   -3.8153   23.4345 C   0  0  0  0  0  0
  -21.9192   -4.6970   22.3402 C   0  0  0  0  0  0
  -22.7751  -13.5179   21.1914 C   0  0  0  0  0  0
  -22.1661   -4.2157   21.0978 F   0  0  0  0  0  0
  -21.5629   -3.4541   25.7735 F   0  0  0  0  0  0
  -29.8447  -14.0544   20.3029 N   0  0  0  0  0  0
  -26.2796  -12.9540   20.3210 N   0  0  0  0  0  0
  -25.9339  -11.6637   20.5711 N   0  0  0  0  0  0
  -22.0406  -12.8160   22.0461 N   0  0  0  0  0  0
  -25.3972  -15.1990   20.4196 N   0  0  0  0  0  0
  -31.6148  -15.3760   20.2087 O   0  0  0  0  0  0
  -21.6645   -6.8888   21.4243 O   0  0  0  0  0  0
  -22.3428  -14.5485   20.6754 O   0  0  0  0  0  0
  -24.6692  -31.8169   23.1649 C   0  0  0  0  0  0
  -25.9344  -32.4552   23.8138 C   0  0  1  0  0  0
  -27.2210  -26.8505   20.2077 C   0  0  0  0  0  0
  -25.5989  -33.8372   24.2040 N   0  0  0  0  0  0
  -23.4870  -30.4242   21.5163 C   0  0  2  0  0  0
  -24.9410  -28.7889   20.1247 C   0  0  0  0  0  0
  -22.7691  -29.4417   22.4779 C   0  0  0  0  0  0
  -18.0323  -28.1424   22.8462 C   0  0  0  0  0  0
  -24.1494  -36.7188   23.2645 C   0  0  0  0  0  0
  -26.0592  -30.5974   21.4070 C   0  0  0  0  0  0
  -26.1256  -29.1746   20.7637 C   0  0  0  0  0  0
  -27.2575  -28.2291   20.7768 C   0  0  0  0  0  0
  -26.0062  -26.6349   19.5173 C   0  0  0  0  0  0
  -24.9097  -27.5401   19.4819 C   0  0  0  0  0  0
  -23.7321  -29.7282   20.1486 C   0  0  0  0  0  0
  -25.4138  -36.2949   24.0294 C   0  0  1  0  0  0
  -20.5946  -28.3781   23.1171 C   0  0  2  0  0  0
  -20.6795  -26.9453   22.5406 C   0  0  0  0  0  0
  -19.5773  -26.6391   21.5212 C   0  0  0  0  0  0
  -18.1956  -26.7955   22.1618 C   0  0  0  0  0  0
  -19.1583  -28.8924   23.2805 C   0  0  0  0  0  0
  -18.9496  -30.1510   23.8848 C   0  0  0  0  0  0
  -17.6489  -30.6612   24.0560 C   0  0  0  0  0  0
  -25.9112  -34.9334   23.4996 C   0  0  0  0  0  0
  -16.5379  -29.9098   23.6344 C   0  0  0  0  0  0
  -16.7304  -28.6518   23.0361 C   0  0  0  0  0  0
  -26.4575  -31.6517   25.0691 C   0  0  0  0  0  0
  -25.3690  -31.3785   26.1338 C   0  0  0  0  0  0
  -27.0465  -30.2865   24.6472 C   0  0  0  0  0  0
  -27.6063  -32.4330   25.7496 C   0  0  0  0  0  0
  -27.5568  -37.1752   24.8468 C   0  0  0  0  0  0
  -21.4358  -29.3049   22.3507 N   0  0  0  0  0  0
  -26.4280  -37.3690   23.9406 N   0  0  0  0  0  0
  -24.7606  -30.9758   22.0826 N   0  0  0  0  0  0
  -23.4201  -28.8007   23.3067 O   0  0  0  0  0  0
  -28.2538  -25.7479   20.1722 O   0  0  0  0  0  0
  -26.5734  -34.8886   22.4597 O   0  0  0  0  0  0
  -23.5747  -32.1180   23.6698 O   0  0  0  0  0  0
  -28.7349  -22.9128   19.6772 C   0  0  0  0  0  0
  -28.6694  -21.6407   20.4224 C   0  0  0  0  0  0
  -28.2523  -24.1983   20.3885 C   0  0  0  0  0  0
  -29.5391  -19.1527   19.1689 C   0  0  0  0  0  0
  -28.7778  -19.8455   20.2751 C   0  0  1  0  0  0
  -29.8060  -18.3433   20.4368 C   0  0  1  0  0  0
  -29.1435  -21.3890   23.6878 C   0  0  0  0  0  0
  -27.8817  -21.5871   22.8389 C   0  0  0  0  0  0
  -27.9614  -23.6666   21.5828 N   0  0  0  0  0  0
  -28.1848  -22.2710   21.5936 N   0  0  0  0  0  0
  -29.5873  -16.6689   20.3832 N   0  0  0  0  0  0
  -31.4448  -13.1376   19.1745 H   0  0  0  0  0  0
  -30.5490  -12.0153   20.1516 H   0  0  0  0  0  0
  -29.9429  -11.7610   17.7225 H   0  0  0  0  0  0
  -29.5470  -13.4584   17.6218 H   0  0  0  0  0  0
  -28.0684  -11.2812   19.1141 H   0  0  0  0  0  0
  -27.4244  -12.3167   17.8641 H   0  0  0  0  0  0
  -27.5031  -14.2375   19.2991 H   0  0  0  0  0  0
  -28.8401  -12.5800   21.4895 H   0  0  0  0  0  0
  -28.2550  -14.2179   21.6742 H   0  0  0  0  0  0
  -25.2782   -9.5683   22.4771 H   0  0  0  0  0  0
  -24.0015   -7.4635   22.7479 H   0  0  0  0  0  0
  -21.0867   -8.8785   19.8945 H   0  0  0  0  0  0
  -22.3733  -10.9678   19.6167 H   0  0  0  0  0  0
  -21.2008   -7.6153   23.9722 H   0  0  0  0  0  0
  -21.1486   -6.0525   25.9081 H   0  0  0  0  0  0
  -22.0595   -2.7615   23.2840 H   0  0  0  0  0  0
  -22.4041  -11.9828   22.4850 H   0  0  0  0  0  0
  -21.1014  -13.1159   22.2658 H   0  0  0  0  0  0
  -24.6221  -15.8439   20.5305 H   0  0  0  0  0  0
  -26.2299  -15.6422   20.0558 H   0  0  0  0  0  0
  -26.7415  -32.5075   23.0851 H   0  0  0  0  0  0
  -25.0063  -33.9437   25.0141 H   0  0  0  0  0  0
  -22.8047  -31.2576   21.3370 H   0  0  0  0  0  0
  -23.3777  -35.9498   23.3281 H   0  0  0  0  0  0
  -24.3556  -36.8866   22.2063 H   0  0  0  0  0  0
  -23.7237  -37.6363   23.6723 H   0  0  0  0  0  0
  -26.2413  -31.3275   20.6170 H   0  0  0  0  0  0
  -26.9189  -30.6646   22.0617 H   0  0  0  0  0  0
  -28.1632  -28.5334   21.2819 H   0  0  0  0  0  0
  -25.8803  -25.6871   19.0132 H   0  0  0  0  0  0
  -24.0130  -27.2387   18.9589 H   0  0  0  0  0  0
  -23.8981  -30.4910   19.3871 H   0  0  0  0  0  0
  -22.8393  -29.1876   19.8281 H   0  0  0  0  0  0
  -25.1333  -36.1738   25.0784 H   0  0  0  0  0  0
  -21.0029  -28.3409   24.1299 H   0  0  0  0  0  0
  -20.5661  -26.2406   23.3661 H   0  0  0  0  0  0
  -21.6659  -26.7419   22.1217 H   0  0  0  0  0  0
  -19.6934  -25.6290   21.1274 H   0  0  0  0  0  0
  -19.6708  -27.3176   20.6722 H   0  0  0  0  0  0
  -17.4218  -26.6702   21.4031 H   0  0  0  0  0  0
  -18.0358  -26.0112   22.9030 H   0  0  0  0  0  0
  -19.7972  -30.7338   24.2199 H   0  0  0  0  0  0
  -17.5039  -31.6277   24.5183 H   0  0  0  0  0  0
  -15.5375  -30.2981   23.7704 H   0  0  0  0  0  0
  -15.8707  -28.0821   22.7101 H   0  0  0  0  0  0
  -24.5926  -30.7063   25.7660 H   0  0  0  0  0  0
  -24.8817  -32.2984   26.4580 H   0  0  0  0  0  0
  -25.7919  -30.9097   27.0233 H   0  0  0  0  0  0
  -26.3137  -29.6537   24.1453 H   0  0  0  0  0  0
  -27.3930  -29.7236   25.5151 H   0  0  0  0  0  0
  -27.9109  -30.4006   23.9928 H   0  0  0  0  0  0
  -27.2645  -33.3710   26.1883 H   0  0  0  0  0  0
  -28.3975  -32.6755   25.0389 H   0  0  0  0  0  0
  -28.0612  -31.8576   26.5570 H   0  0  0  0  0  0
  -28.2566  -38.0065   24.7502 H   0  0  0  0  0  0
  -28.1085  -36.2587   24.6312 H   0  0  0  0  0  0
  -27.2277  -37.1402   25.8871 H   0  0  0  0  0  0
  -20.9650  -29.8697   21.6577 H   0  0  0  0  0  0
  -26.0130  -38.2749   24.1414 H   0  0  0  0  0  0
  -29.0844  -22.9321   18.6552 H   0  0  0  0  0  0
  -30.3959  -19.6862   18.7621 H   0  0  0  0  0  0
  -28.9239  -18.6905   18.3995 H   0  0  0  0  0  0
  -27.7353  -19.5483   20.3689 H   0  0  0  0  0  0
  -30.7295  -18.5850   20.9601 H   0  0  0  0  0  0
  -28.9062  -20.8944   24.6298 H   0  0  0  0  0  0
  -29.6115  -22.3451   23.9231 H   0  0  0  0  0  0
  -29.8781  -20.7753   23.1657 H   0  0  0  0  0  0
  -27.1415  -22.1619   23.3977 H   0  0  0  0  0  0
  -27.4184  -20.6260   22.6137 H   0  0  0  0  0  0
  -28.6049  -16.4407   20.4240 H   0  0  0  0  0  0
  1 25  1  0  0  0
  1 30  2  0  0  0
  1 81  1  0  0  0
  2  3  1  0  0  0
  2 25  1  0  0  0
  2 82  1  0  0  0
  2 83  1  0  0  0
  3  4  1  0  0  0
  3 84  1  0  0  0
  3 85  1  0  0  0
  4  5  1  0  0  0
  4 86  1  0  0  0
  4 87  1  0  0  0
  5  6  1  0  0  0
  5 26  1  0  0  0
  5 88  1  0  0  0
  6 25  1  0  0  0
  6 89  1  0  0  0
  6 90  1  0  0  0
  7  8  2  0  0  0
  7 26  1  0  0  0
  7 29  1  0  0  0
  8  9  1  0  0  0
  8 22  1  0  0  0
  9 10  1  0  0  0
  9 27  2  0  0  0
 10 11  2  0  0  0
 10 15  1  0  0  0
 11 12  1  0  0  0
 11 91  1  0  0  0
 12 13  2  0  0  0
 12 92  1  0  0  0
 13 14  1  0  0  0
 13 31  1  0  0  0
 14 15  2  0  0  0
 14 93  1  0  0  0
 15 94  1  0  0  0
 16 17  2  0  0  0
 16 21  1  0  0  0
 16 31  1  0  0  0
 17 18  1  0  0  0
 17 95  1  0  0  0
 18 19  2  0  0  0
 18 96  1  0  0  0
 19 20  1  0  0  0
 19 24  1  0  0  0
 20 21  2  0  0  0
 20 97  1  0  0  0
 21 23  1  0  0  0
 22 28  1  0  0  0
 22 32  2  0  0  0
 26 27  1  0  0  0
 28 98  1  0  0  0
 28 99  1  0  0  0
 29100  1  0  0  0
 29101  1  0  0  0
 33 34  1  0  0  0
 33 66  1  0  0  0
 33 70  2  0  0  0
 34 36  1  0  0  0
 34 59  1  0  0  0
 34102  1  0  0  0
 35 44  2  0  0  0
 35 45  1  0  0  0
 35 68  1  0  0  0
 36 56  1  0  0  0
 36103  1  0  0  0
 37 39  1  0  0  0
 37 47  1  0  0  0
 37 66  1  0  0  0
 37104  1  0  0  0
 38 43  2  0  0  0
 38 46  1  0  0  0
 38 47  1  0  0  0
 39 64  1  0  0  0
 39 67  2  0  0  0
 40 52  1  0  0  0
 40 53  2  0  0  0
 40 58  1  0  0  0
 41105  1  0  0  0
 41106  1  0  0  0
 41107  1  0  0  0
 41 48  1  0  0  0
 42 43  1  0  0  0
 42 66  1  0  0  0
 42108  1  0  0  0
 42109  1  0  0  0
 43 44  1  0  0  0
 44110  1  0  0  0
 45 46  2  0  0  0
 45111  1  0  0  0
 46112  1  0  0  0
 47113  1  0  0  0
 47114  1  0  0  0
 48 56  1  0  0  0
 48 65  1  0  0  0
 48115  1  0  0  0
 49 50  1  0  0  0
 49 53  1  0  0  0
 49 64  1  0  0  0
 49116  1  0  0  0
 50 51  1  0  0  0
 50117  1  0  0  0
 50118  1  0  0  0
 51 52  1  0  0  0
 51119  1  0  0  0
 51120  1  0  0  0
 52121  1  0  0  0
 52122  1  0  0  0
 53 54  1  0  0  0
 54 55  2  0  0  0
 54123  1  0  0  0
 55 57  1  0  0  0
 55124  1  0  0  0
 56 69  2  0  0  0
 57 58  2  0  0  0
 57125  1  0  0  0
 58126  1  0  0  0
 59 60  1  0  0  0
 59 61  1  0  0  0
 59 62  1  0  0  0
 60127  1  0  0  0
 60128  1  0  0  0
 60129  1  0  0  0
 61130  1  0  0  0
 61131  1  0  0  0
 61132  1  0  0  0
 62133  1  0  0  0
 62134  1  0  0  0
 62135  1  0  0  0
 63 65  1  0  0  0
 63136  1  0  0  0
 63137  1  0  0  0
 63138  1  0  0  0
 64139  1  0  0  0
 65140  1  0  0  0
 68 73  1  0  0  0
 71 72  2  0  0  0
 71 73  1  0  0  0
 71141  1  0  0  0
 72 80  1  0  0  0
 72 75  1  0  0  0
 73 79  2  0  0  0
 74 75  1  0  0  0
 74 76  1  0  0  0
 74142  1  0  0  0
 74143  1  0  0  0
 75 76  1  0  0  0
 75144  1  0  0  0
 76 81  1  0  0  0
 76145  1  0  0  0
 77 78  1  0  0  0
 77146  1  0  0  0
 77147  1  0  0  0
 77148  1  0  0  0
 78 80  1  0  0  0
 78149  1  0  0  0
 78150  1  0  0  0
 79 80  1  0  0  0
 81151  1  0  0  0
M  ISO  4   1 100  68 101  73 101  81 100
M  END
> <chiral flag>
0

> <version>
0

> <s_m_source_file>
/data/baiqing/PycharmProjects/Reinvent-master-3.2/result/LINK_invent/BTK/process_docking_weight1_custom_sum_contain_oxygen_bond_distance_aromatic_linkinvent_7_9_3/rearranged_h_0186.sdf

> <i_m_source_file_index>
74

> <r_mmod_Potential_Energy-OPLS-2005>
1516.05871582031

> <r_mmod_Stretch_Energy-OPLS-2005>
677.374267578125

> <r_mmod_Bend_Energy-OPLS-2005>
460.330261230469

> <r_mmod_Torsional_Energy-OPLS-2005>
286.308471679688

> <r_mmod_Improper_Torsional_Energy-OPLS-2005>
6.83581876754761

> <r_mmod_Van_der_Waal_Energy-OPLS-2005>
102.237236022949

> <r_mmod_Electrostatic_Energy-OPLS-2005>
-365.478820800781

> <r_mmod_Solvation_Energy-OPLS-2005>
-228.028472900391

> <b_mmod_Minimization_Converged-OPLS-2005>
0

> <r_mmod_RMS_Derivative-OPLS-2005>
0.887777984142303

$$$$
75
                    3D
 Structure written by MMmdl.
160169  0  0  1  0            999 V2000
  -30.6287  -14.8238   20.4499 C   0  0  0  0  0  0
  -30.4199  -12.5118   19.4863 C   0  0  0  0  0  0
  -29.5057  -12.5143   18.2431 C   0  0  0  0  0  0
  -28.0368  -12.3244   18.6608 C   0  0  0  0  0  0
  -27.6300  -13.2456   19.8417 C   0  0  2  0  0  0
  -28.6740  -13.2477   20.9785 C   0  0  0  0  0  0
  -25.2452  -13.8219   20.5714 C   0  0  0  0  0  0
  -24.1768  -13.0440   20.9223 C   0  0  0  0  0  0
  -24.6384  -11.6927   20.8753 C   0  0  0  0  0  0
  -23.9071  -10.4295   21.0406 C   0  0  0  0  0  0
  -24.3622   -9.4209   21.9182 C   0  0  0  0  0  0
  -23.6298   -8.2244   22.0752 C   0  0  0  0  0  0
  -22.4281   -8.0280   21.3543 C   0  0  0  0  0  0
  -21.9916   -9.0252   20.4643 C   0  0  0  0  0  0
  -22.7243  -10.2133   20.3055 C   0  0  0  0  0  0
  -21.6857   -6.0734   22.5276 C   0  0  0  0  0  0
  -21.4017   -6.5639   23.8207 C   0  0  0  0  0  0
  -21.3659   -5.6794   24.9170 C   0  0  0  0  0  0
  -21.6044   -4.3056   24.7222 C   0  0  0  0  0  0
  -21.8819   -3.8147   23.4344 C   0  0  0  0  0  0
  -21.9193   -4.6963   22.3400 C   0  0  0  0  0  0
  -22.7790  -13.5207   21.1882 C   0  0  0  0  0  0
  -22.1662   -4.2151   21.0977 F   0  0  0  0  0  0
  -21.5626   -3.4539   25.7733 F   0  0  0  0  0  0
  -29.9642  -13.6095   20.3817 N   0  0  0  0  0  0
  -26.2883  -12.9453   20.3273 N   0  0  0  0  0  0
  -25.9317  -11.6581   20.5761 N   0  0  0  0  0  0
  -22.0449  -12.8188   22.0439 N   0  0  0  0  0  0
  -25.4110  -15.1941   20.4124 N   0  0  0  0  0  0
  -31.8282  -14.8395   20.1588 O   0  0  0  0  0  0
  -21.6645   -6.8879   21.4240 O   0  0  0  0  0  0
  -22.3467  -14.5508   20.6725 O   0  0  0  0  0  0
  -24.6377  -31.8509   23.1956 C   0  0  0  0  0  0
  -25.9175  -32.4728   23.8317 C   0  0  1  0  0  0
  -27.2082  -27.1975   20.1460 C   0  0  0  0  0  0
  -25.5951  -33.8536   24.2227 N   0  0  0  0  0  0
  -23.4382  -30.4736   21.5402 C   0  0  2  0  0  0
  -24.8876  -28.9173   20.1077 C   0  0  0  0  0  0
  -22.7539  -29.4579   22.4883 C   0  0  0  0  0  0
  -18.0293  -28.1390   22.8478 C   0  0  0  0  0  0
  -24.1496  -36.7267   23.2642 C   0  0  0  0  0  0
  -25.9912  -30.7426   21.3895 C   0  0  0  0  0  0
  -26.0625  -29.3611   20.7297 C   0  0  0  0  0  0
  -27.2282  -28.5146   20.7388 C   0  0  0  0  0  0
  -26.0215  -26.8586   19.4598 C   0  0  0  0  0  0
  -24.8766  -27.6765   19.4573 C   0  0  0  0  0  0
  -23.6610  -29.8108   20.1562 C   0  0  0  0  0  0
  -25.4127  -36.3053   24.0316 C   0  0  1  0  0  0
  -20.5908  -28.3712   23.1246 C   0  0  2  0  0  0
  -20.6785  -26.9419   22.5406 C   0  0  0  0  0  0
  -19.5759  -26.6377   21.5214 C   0  0  0  0  0  0
  -18.1934  -26.7929   22.1621 C   0  0  0  0  0  0
  -19.1553  -28.8867   23.2851 C   0  0  0  0  0  0
  -18.9476  -30.1464   23.8874 C   0  0  0  0  0  0
  -17.6475  -30.6590   24.0561 C   0  0  0  0  0  0
  -25.9077  -34.9423   23.5077 C   0  0  0  0  0  0
  -16.5363  -29.9086   23.6338 C   0  0  0  0  0  0
  -16.7281  -28.6504   23.0359 C   0  0  0  0  0  0
  -26.4514  -31.6580   25.0737 C   0  0  0  0  0  0
  -25.3710  -31.3755   26.1439 C   0  0  0  0  0  0
  -27.0380  -30.2984   24.6285 C   0  0  0  0  0  0
  -27.6051  -32.4348   25.7518 C   0  0  0  0  0  0
  -27.5570  -37.1788   24.8461 C   0  0  0  0  0  0
  -21.4237  -29.3049   22.3627 N   0  0  0  0  0  0
  -26.4289  -37.3758   23.9402 N   0  0  0  0  0  0
  -24.7082  -31.0419   22.0967 N   0  0  0  0  0  0
  -23.4203  -28.8115   23.3005 O   0  0  0  0  0  0
  -28.2343  -26.2042   20.2048 O   0  0  0  0  0  0
  -26.5655  -34.8905   22.4647 O   0  0  0  0  0  0
  -23.5510  -32.1374   23.7200 O   0  0  0  0  0  0
  -28.5060  -23.3792   20.4993 C   0  0  0  0  0  0
  -28.0388  -22.1122   20.9259 C   0  0  0  0  0  0
  -29.9391  -21.7386   19.9965 C   0  0  0  0  0  0
  -28.8227  -16.7986   20.2792 C   0  0  0  0  0  0
  -30.6270  -17.3428   21.1843 C   0  0  0  0  0  0
  -29.5605  -18.1983   20.4089 C   0  0  0  0  0  0
  -31.1774  -21.0630   19.5105 C   0  0  0  0  0  0
  -26.9542  -21.7742   23.1909 C   0  0  0  0  0  0
  -27.8077  -24.8271   20.7242 C   0  0  0  0  0  0
  -26.7621  -21.8557   21.6727 C   0  0  0  0  0  0
  -28.8297  -19.5374   21.0379 C   0  0  0  0  0  0
  -29.7342  -23.0790   19.8908 N   0  0  0  0  0  0
  -28.9511  -21.0394   20.6113 N   0  0  0  0  0  0
  -29.9980  -16.0360   20.7984 N   0  0  0  0  0  0
  -31.4605  -12.6255   19.1794 H   0  0  0  0  0  0
  -30.3681  -11.5520   20.0026 H   0  0  0  0  0  0
  -29.8032  -11.7254   17.5508 H   0  0  0  0  0  0
  -29.6172  -13.4559   17.7032 H   0  0  0  0  0  0
  -27.9109  -11.2796   18.9478 H   0  0  0  0  0  0
  -27.3758  -12.4869   17.8088 H   0  0  0  0  0  0
  -27.6026  -14.2537   19.4293 H   0  0  0  0  0  0
  -28.7301  -12.2731   21.4654 H   0  0  0  0  0  0
  -28.3957  -13.9670   21.7503 H   0  0  0  0  0  0
  -25.2765   -9.5689   22.4758 H   0  0  0  0  0  0
  -24.0006   -7.4638   22.7472 H   0  0  0  0  0  0
  -21.0847   -8.8769   19.8948 H   0  0  0  0  0  0
  -22.3698  -10.9670   19.6165 H   0  0  0  0  0  0
  -21.2016   -7.6148   23.9713 H   0  0  0  0  0  0
  -21.1479   -6.0522   25.9072 H   0  0  0  0  0  0
  -22.0600   -2.7610   23.2841 H   0  0  0  0  0  0
  -22.4088  -11.9859   22.4821 H   0  0  0  0  0  0
  -21.1065  -13.1194   22.2654 H   0  0  0  0  0  0
  -24.6423  -15.8461   20.5244 H   0  0  0  0  0  0
  -26.2592  -15.6324   20.0801 H   0  0  0  0  0  0
  -26.7243  -32.5355   23.1055 H   0  0  0  0  0  0
  -25.0088  -33.9674   25.0368 H   0  0  0  0  0  0
  -22.7375  -31.2979   21.3914 H   0  0  0  0  0  0
  -23.3759  -35.9597   23.3306 H   0  0  0  0  0  0
  -24.3581  -36.8902   22.2059 H   0  0  0  0  0  0
  -23.7255  -37.6462   23.6683 H   0  0  0  0  0  0
  -26.1445  -31.5013   20.6205 H   0  0  0  0  0  0
  -26.8625  -30.7882   22.0308 H   0  0  0  0  0  0
  -28.1200  -28.8437   21.2538 H   0  0  0  0  0  0
  -25.9565  -25.9182   18.9321 H   0  0  0  0  0  0
  -23.9847  -27.3384   18.9474 H   0  0  0  0  0  0
  -23.7905  -30.5894   19.4035 H   0  0  0  0  0  0
  -22.7774  -29.2491   19.8477 H   0  0  0  0  0  0
  -25.1312  -36.1885   25.0808 H   0  0  0  0  0  0
  -20.9995  -28.3300   24.1372 H   0  0  0  0  0  0
  -20.5690  -26.2320   23.3618 H   0  0  0  0  0  0
  -21.6648  -26.7442   22.1193 H   0  0  0  0  0  0
  -19.6929  -25.6283   21.1256 H   0  0  0  0  0  0
  -19.6702  -27.3178   20.6735 H   0  0  0  0  0  0
  -17.4207  -26.6673   21.4022 H   0  0  0  0  0  0
  -18.0331  -26.0074   22.9024 H   0  0  0  0  0  0
  -19.7955  -30.7278   24.2235 H   0  0  0  0  0  0
  -17.5036  -31.6272   24.5160 H   0  0  0  0  0  0
  -15.5365  -30.2984   23.7677 H   0  0  0  0  0  0
  -15.8680  -28.0816   22.7095 H   0  0  0  0  0  0
  -24.5897  -30.7095   25.7762 H   0  0  0  0  0  0
  -24.8885  -32.2929   26.4821 H   0  0  0  0  0  0
  -25.7996  -30.8963   27.0253 H   0  0  0  0  0  0
  -26.2996  -29.6709   24.1283 H   0  0  0  0  0  0
  -27.4008  -29.7274   25.4842 H   0  0  0  0  0  0
  -27.8892  -30.4238   23.9590 H   0  0  0  0  0  0
  -27.2652  -33.3672   26.2040 H   0  0  0  0  0  0
  -28.3883  -32.6880   25.0361 H   0  0  0  0  0  0
  -28.0693  -31.8517   26.5482 H   0  0  0  0  0  0
  -28.2583  -38.0089   24.7510 H   0  0  0  0  0  0
  -28.1071  -36.2620   24.6293 H   0  0  0  0  0  0
  -27.2283  -37.1440   25.8862 H   0  0  0  0  0  0
  -20.9429  -29.8776   21.6834 H   0  0  0  0  0  0
  -26.0155  -38.2823   24.1414 H   0  0  0  0  0  0
  -28.5506  -16.5546   19.2510 H   0  0  0  0  0  0
  -27.9503  -16.7214   20.9298 H   0  0  0  0  0  0
  -30.6101  -17.5186   22.2606 H   0  0  0  0  0  0
  -31.6393  -17.4858   20.8019 H   0  0  0  0  0  0
  -29.9588  -18.4271   19.4205 H   0  0  0  0  0  0
  -31.9287  -21.7985   19.2233 H   0  0  0  0  0  0
  -30.9516  -20.4449   18.6423 H   0  0  0  0  0  0
  -31.5971  -20.4322   20.2945 H   0  0  0  0  0  0
  -27.6290  -20.9647   23.4686 H   0  0  0  0  0  0
  -26.0028  -21.5970   23.6932 H   0  0  0  0  0  0
  -27.3666  -22.7029   23.5862 H   0  0  0  0  0  0
  -27.7712  -24.9771   21.8037 H   0  0  0  0  0  0
  -26.7617  -24.6716   20.4748 H   0  0  0  0  0  0
  -26.2863  -20.9440   21.3117 H   0  0  0  0  0  0
  -26.0444  -22.6463   21.4529 H   0  0  0  0  0  0
  -29.0466  -19.5373   22.1059 H   0  0  0  0  0  0
  -27.7636  -19.3216   21.0006 H   0  0  0  0  0  0
  1 25  1  0  0  0
  1 30  2  0  0  0
  1 84  1  0  0  0
  2  3  1  0  0  0
  2 25  1  0  0  0
  2 85  1  0  0  0
  2 86  1  0  0  0
  3  4  1  0  0  0
  3 87  1  0  0  0
  3 88  1  0  0  0
  4  5  1  0  0  0
  4 89  1  0  0  0
  4 90  1  0  0  0
  5  6  1  0  0  0
  5 26  1  0  0  0
  5 91  1  0  0  0
  6 25  1  0  0  0
  6 92  1  0  0  0
  6 93  1  0  0  0
  7  8  2  0  0  0
  7 26  1  0  0  0
  7 29  1  0  0  0
  8  9  1  0  0  0
  8 22  1  0  0  0
  9 10  1  0  0  0
  9 27  2  0  0  0
 10 11  2  0  0  0
 10 15  1  0  0  0
 11 12  1  0  0  0
 11 94  1  0  0  0
 12 13  2  0  0  0
 12 95  1  0  0  0
 13 14  1  0  0  0
 13 31  1  0  0  0
 14 15  2  0  0  0
 14 96  1  0  0  0
 15 97  1  0  0  0
 16 17  2  0  0  0
 16 21  1  0  0  0
 16 31  1  0  0  0
 17 18  1  0  0  0
 17 98  1  0  0  0
 18 19  2  0  0  0
 18 99  1  0  0  0
 19 20  1  0  0  0
 19 24  1  0  0  0
 20 21  2  0  0  0
 20100  1  0  0  0
 21 23  1  0  0  0
 22 28  1  0  0  0
 22 32  2  0  0  0
 26 27  1  0  0  0
 28101  1  0  0  0
 28102  1  0  0  0
 29103  1  0  0  0
 29104  1  0  0  0
 33 34  1  0  0  0
 33 66  1  0  0  0
 33 70  2  0  0  0
 34 36  1  0  0  0
 34 59  1  0  0  0
 34105  1  0  0  0
 35 44  2  0  0  0
 35 45  1  0  0  0
 35 68  1  0  0  0
 36 56  1  0  0  0
 36106  1  0  0  0
 37 39  1  0  0  0
 37 47  1  0  0  0
 37 66  1  0  0  0
 37107  1  0  0  0
 38 43  2  0  0  0
 38 46  1  0  0  0
 38 47  1  0  0  0
 39 64  1  0  0  0
 39 67  2  0  0  0
 40 52  1  0  0  0
 40 53  2  0  0  0
 40 58  1  0  0  0
 41108  1  0  0  0
 41109  1  0  0  0
 41110  1  0  0  0
 41 48  1  0  0  0
 42 43  1  0  0  0
 42 66  1  0  0  0
 42111  1  0  0  0
 42112  1  0  0  0
 43 44  1  0  0  0
 44113  1  0  0  0
 45 46  2  0  0  0
 45114  1  0  0  0
 46115  1  0  0  0
 47116  1  0  0  0
 47117  1  0  0  0
 48 56  1  0  0  0
 48 65  1  0  0  0
 48118  1  0  0  0
 49 50  1  0  0  0
 49 53  1  0  0  0
 49 64  1  0  0  0
 49119  1  0  0  0
 50 51  1  0  0  0
 50120  1  0  0  0
 50121  1  0  0  0
 51 52  1  0  0  0
 51122  1  0  0  0
 51123  1  0  0  0
 52124  1  0  0  0
 52125  1  0  0  0
 53 54  1  0  0  0
 54 55  2  0  0  0
 54126  1  0  0  0
 55 57  1  0  0  0
 55127  1  0  0  0
 56 69  2  0  0  0
 57 58  2  0  0  0
 57128  1  0  0  0
 58129  1  0  0  0
 59 60  1  0  0  0
 59 61  1  0  0  0
 59 62  1  0  0  0
 60130  1  0  0  0
 60131  1  0  0  0
 60132  1  0  0  0
 61133  1  0  0  0
 61134  1  0  0  0
 61135  1  0  0  0
 62136  1  0  0  0
 62137  1  0  0  0
 62138  1  0  0  0
 63 65  1  0  0  0
 63139  1  0  0  0
 63140  1  0  0  0
 63141  1  0  0  0
 64142  1  0  0  0
 65143  1  0  0  0
 68 79  1  0  0  0
 71 72  2  0  0  0
 71 79  1  0  0  0
 71 82  1  0  0  0
 72 80  1  0  0  0
 72 83  1  0  0  0
 73 77  1  0  0  0
 73 82  2  0  0  0
 73 83  1  0  0  0
 74 76  1  0  0  0
 74 84  1  0  0  0
 74144  1  0  0  0
 74145  1  0  0  0
 75 76  1  0  0  0
 75 84  1  0  0  0
 75146  1  0  0  0
 75147  1  0  0  0
 76 81  1  0  0  0
 76148  1  0  0  0
 77149  1  0  0  0
 77150  1  0  0  0
 77151  1  0  0  0
 78 80  1  0  0  0
 78152  1  0  0  0
 78153  1  0  0  0
 78154  1  0  0  0
 79155  1  0  0  0
 79156  1  0  0  0
 80157  1  0  0  0
 80158  1  0  0  0
 81 83  1  0  0  0
 81159  1  0  0  0
 81160  1  0  0  0
M  ISO  4   1 100  68 101  79 101  84 100
M  END
> <chiral flag>
0

> <version>
0

> <s_m_source_file>
/data/baiqing/PycharmProjects/Reinvent-master-3.2/result/LINK_invent/BTK/process_docking_weight1_custom_sum_contain_oxygen_bond_distance_aromatic_linkinvent_7_9_3/rearranged_h_0186.sdf

> <i_m_source_file_index>
75

> <r_mmod_Potential_Energy-OPLS-2005>
449.42138671875

> <r_mmod_Stretch_Energy-OPLS-2005>
168.435607910156

> <r_mmod_Bend_Energy-OPLS-2005>
255.811477661133

> <r_mmod_Torsional_Energy-OPLS-2005>
312.298980712891

> <r_mmod_Improper_Torsional_Energy-OPLS-2005>
5.96991729736328

> <r_mmod_Van_der_Waal_Energy-OPLS-2005>
106.748199462891

> <r_mmod_Electrostatic_Energy-OPLS-2005>
-303.255004882812

> <r_mmod_Solvation_Energy-OPLS-2005>
-230.942489624023

> <b_mmod_Minimization_Converged-OPLS-2005>
0

> <r_mmod_RMS_Derivative-OPLS-2005>
0.861433088779449

$$$$
76
                    3D
 Structure written by MMmdl.
162171  0  0  1  0            999 V2000
  -30.5661  -14.8643   20.4409 C   0  0  0  0  0  0
  -30.4356  -12.5307   19.4959 C   0  0  0  0  0  0
  -29.5220  -12.5344   18.2495 C   0  0  0  0  0  0
  -28.0482  -12.3418   18.6554 C   0  0  0  0  0  0
  -27.6365  -13.2473   19.8480 C   0  0  2  0  0  0
  -28.6775  -13.2254   20.9875 C   0  0  0  0  0  0
  -25.2486  -13.8217   20.5682 C   0  0  0  0  0  0
  -24.1805  -13.0444   20.9212 C   0  0  0  0  0  0
  -24.6418  -11.6929   20.8753 C   0  0  0  0  0  0
  -23.9104  -10.4297   21.0413 C   0  0  0  0  0  0
  -24.3647   -9.4206   21.9187 C   0  0  0  0  0  0
  -23.6307   -8.2249   22.0757 C   0  0  0  0  0  0
  -22.4285   -8.0295   21.3550 C   0  0  0  0  0  0
  -21.9934   -9.0274   20.4654 C   0  0  0  0  0  0
  -22.7280  -10.2143   20.3061 C   0  0  0  0  0  0
  -21.6859   -6.0751   22.5290 C   0  0  0  0  0  0
  -21.4017   -6.5651   23.8224 C   0  0  0  0  0  0
  -21.3651   -5.6800   24.9181 C   0  0  0  0  0  0
  -21.6043   -4.3065   24.7229 C   0  0  0  0  0  0
  -21.8817   -3.8160   23.4349 C   0  0  0  0  0  0
  -21.9189   -4.6977   22.3406 C   0  0  0  0  0  0
  -22.7826  -13.5220   21.1858 C   0  0  0  0  0  0
  -22.1665   -4.2166   21.0982 F   0  0  0  0  0  0
  -21.5615   -3.4542   25.7737 F   0  0  0  0  0  0
  -29.9642  -13.6147   20.4007 N   0  0  0  0  0  0
  -26.2919  -12.9457   20.3264 N   0  0  0  0  0  0
  -25.9350  -11.6585   20.5742 N   0  0  0  0  0  0
  -22.0460  -12.8220   22.0413 N   0  0  0  0  0  0
  -25.4145  -15.1946   20.4089 N   0  0  0  0  0  0
  -31.7570  -14.9382   20.1204 O   0  0  0  0  0  0
  -21.6645   -6.8896   21.4251 O   0  0  0  0  0  0
  -22.3511  -14.5517   20.6688 O   0  0  0  0  0  0
  -24.6373  -31.8484   23.1902 C   0  0  0  0  0  0
  -25.9174  -32.4726   23.8277 C   0  0  1  0  0  0
  -27.2143  -27.1632   20.1655 C   0  0  0  0  0  0
  -25.5944  -33.8530   24.2215 N   0  0  0  0  0  0
  -23.4377  -30.4671   21.5335 C   0  0  2  0  0  0
  -24.8867  -28.8884   20.1168 C   0  0  0  0  0  0
  -22.7522  -29.4580   22.4864 C   0  0  0  0  0  0
  -18.0308  -28.1399   22.8510 C   0  0  0  0  0  0
  -24.1482  -36.7250   23.2637 C   0  0  0  0  0  0
  -25.9876  -30.7308   21.3833 C   0  0  0  0  0  0
  -26.0577  -29.3391   20.7368 C   0  0  0  0  0  0
  -27.2193  -28.4892   20.7479 C   0  0  0  0  0  0
  -26.0230  -26.7993   19.5080 C   0  0  0  0  0  0
  -24.8792  -27.6304   19.4896 C   0  0  0  0  0  0
  -23.6627  -29.7896   20.1541 C   0  0  0  0  0  0
  -25.4113  -36.3047   24.0324 C   0  0  1  0  0  0
  -20.5919  -28.3719   23.1256 C   0  0  2  0  0  0
  -20.6774  -26.9425   22.5420 C   0  0  0  0  0  0
  -19.5751  -26.6381   21.5223 C   0  0  0  0  0  0
  -18.1940  -26.7939   22.1643 C   0  0  0  0  0  0
  -19.1564  -28.8877   23.2884 C   0  0  0  0  0  0
  -18.9474  -30.1472   23.8905 C   0  0  0  0  0  0
  -17.6466  -30.6600   24.0568 C   0  0  0  0  0  0
  -25.9056  -34.9428   23.5077 C   0  0  0  0  0  0
  -16.5360  -29.9095   23.6336 C   0  0  0  0  0  0
  -16.7293  -28.6510   23.0377 C   0  0  0  0  0  0
  -26.4515  -31.6578   25.0698 C   0  0  0  0  0  0
  -25.3713  -31.3775   26.1407 C   0  0  0  0  0  0
  -27.0353  -30.2977   24.6228 C   0  0  0  0  0  0
  -27.6060  -32.4323   25.7491 C   0  0  0  0  0  0
  -27.5578  -37.1778   24.8468 C   0  0  0  0  0  0
  -21.4226  -29.3048   22.3604 N   0  0  0  0  0  0
  -26.4278  -37.3758   23.9422 N   0  0  0  0  0  0
  -24.7071  -31.0364   22.0916 N   0  0  0  0  0  0
  -23.4188  -28.8136   23.3011 O   0  0  0  0  0  0
  -28.3318  -26.2665   20.1826 O   0  0  0  0  0  0
  -26.5634  -34.8921   22.4650 O   0  0  0  0  0  0
  -23.5510  -32.1356   23.7145 O   0  0  0  0  0  0
  -29.3838  -24.1772   21.1348 C   0  0  0  0  0  0
  -29.6480  -22.7584   21.1193 C   0  0  0  0  0  0
  -28.9154  -21.8498   20.2842 C   0  0  0  0  0  0
  -27.8926  -22.5639   19.5487 C   0  0  0  0  0  0
  -28.3922  -24.8104   20.3314 C   0  0  0  0  0  0
  -30.4246  -18.3869   22.7386 C   0  0  0  0  0  0
  -29.0908  -18.9488   22.2102 C   0  0  0  0  0  0
  -31.2270  -17.9135   21.5212 C   0  0  0  0  0  0
  -29.1269  -18.8300   20.6780 C   0  0  2  0  0  0
  -30.1765  -17.5501   20.4640 C   0  0  2  0  0  0
  -30.8160  -22.2613   21.9515 C   0  0  0  0  0  0
  -26.9893  -21.8189   18.5827 C   0  0  0  0  0  0
  -29.4250  -20.3100   19.9514 C   0  0  0  0  0  0
  -27.6554  -23.9417   19.5659 N   0  0  0  0  0  0
  -29.8010  -16.0363   20.6397 N   0  0  0  0  0  0
  -31.4755  -12.6669   19.1948 H   0  0  0  0  0  0
  -30.3984  -11.5633   20.0003 H   0  0  0  0  0  0
  -29.8252  -11.7533   17.5509 H   0  0  0  0  0  0
  -29.6374  -13.4813   17.7190 H   0  0  0  0  0  0
  -27.9136  -11.2936   18.9226 H   0  0  0  0  0  0
  -27.3959  -12.5254   17.8009 H   0  0  0  0  0  0
  -27.6164  -14.2632   19.4526 H   0  0  0  0  0  0
  -28.7398  -12.2366   21.4447 H   0  0  0  0  0  0
  -28.3946  -13.9146   21.7845 H   0  0  0  0  0  0
  -25.2785   -9.5678   22.4773 H   0  0  0  0  0  0
  -24.0012   -7.4640   22.7478 H   0  0  0  0  0  0
  -21.0861   -8.8813   19.8960 H   0  0  0  0  0  0
  -22.3747  -10.9693   19.6176 H   0  0  0  0  0  0
  -21.2025   -7.6160   23.9737 H   0  0  0  0  0  0
  -21.1466   -6.0525   25.9085 H   0  0  0  0  0  0
  -22.0599   -2.7623   23.2848 H   0  0  0  0  0  0
  -22.4066  -11.9892   22.4835 H   0  0  0  0  0  0
  -21.1073  -13.1262   22.2588 H   0  0  0  0  0  0
  -24.6396  -15.8417   20.5051 H   0  0  0  0  0  0
  -26.2524  -15.6340   20.0506 H   0  0  0  0  0  0
  -26.7225  -32.5361   23.0991 H   0  0  0  0  0  0
  -25.0077  -33.9657   25.0355 H   0  0  0  0  0  0
  -22.7379  -31.2914   21.3793 H   0  0  0  0  0  0
  -23.3758  -35.9568   23.3306 H   0  0  0  0  0  0
  -24.3545  -36.8867   22.2044 H   0  0  0  0  0  0
  -23.7227  -37.6443   23.6665 H   0  0  0  0  0  0
  -26.1305  -31.4799   20.6039 H   0  0  0  0  0  0
  -26.8620  -30.7903   22.0204 H   0  0  0  0  0  0
  -28.1179  -28.8313   21.2404 H   0  0  0  0  0  0
  -25.9601  -25.8403   19.0161 H   0  0  0  0  0  0
  -23.9859  -27.2813   18.9920 H   0  0  0  0  0  0
  -23.7974  -30.5607   19.3949 H   0  0  0  0  0  0
  -22.7793  -29.2277   19.8466 H   0  0  0  0  0  0
  -25.1298  -36.1874   25.0813 H   0  0  0  0  0  0
  -21.0041  -28.3325   24.1367 H   0  0  0  0  0  0
  -20.5650  -26.2341   23.3643 H   0  0  0  0  0  0
  -21.6639  -26.7418   22.1231 H   0  0  0  0  0  0
  -19.6895  -25.6282   21.1277 H   0  0  0  0  0  0
  -19.6680  -27.3169   20.6732 H   0  0  0  0  0  0
  -17.4204  -26.6718   21.4048 H   0  0  0  0  0  0
  -18.0338  -26.0063   22.9018 H   0  0  0  0  0  0
  -19.7944  -30.7302   24.2275 H   0  0  0  0  0  0
  -17.5018  -31.6289   24.5150 H   0  0  0  0  0  0
  -15.5366  -30.3000   23.7639 H   0  0  0  0  0  0
  -15.8696  -28.0815   22.7104 H   0  0  0  0  0  0
  -24.5917  -30.7086   25.7755 H   0  0  0  0  0  0
  -24.8870  -32.2954   26.4741 H   0  0  0  0  0  0
  -25.8000  -30.9034   27.0247 H   0  0  0  0  0  0
  -26.2949  -29.6724   24.1217 H   0  0  0  0  0  0
  -27.3959  -29.7262   25.4791 H   0  0  0  0  0  0
  -27.8865  -30.4209   23.9528 H   0  0  0  0  0  0
  -27.2663  -33.3638   26.2029 H   0  0  0  0  0  0
  -28.3888  -32.6844   25.0332 H   0  0  0  0  0  0
  -28.0690  -31.8461   26.5435 H   0  0  0  0  0  0
  -28.2590  -38.0082   24.7518 H   0  0  0  0  0  0
  -28.1083  -36.2613   24.6285 H   0  0  0  0  0  0
  -27.2298  -37.1419   25.8871 H   0  0  0  0  0  0
  -20.9422  -29.8750   21.6784 H   0  0  0  0  0  0
  -26.0155  -38.2828   24.1439 H   0  0  0  0  0  0
  -30.0164  -24.8152   21.7378 H   0  0  0  0  0  0
  -30.2298  -17.5411   23.4012 H   0  0  0  0  0  0
  -30.9835  -19.1223   23.3171 H   0  0  0  0  0  0
  -28.9010  -19.9677   22.5474 H   0  0  0  0  0  0
  -28.2735  -18.3433   22.6047 H   0  0  0  0  0  0
  -31.9210  -17.1077   21.7632 H   0  0  0  0  0  0
  -31.8365  -18.7401   21.1513 H   0  0  0  0  0  0
  -28.1336  -18.5279   20.3432 H   0  0  0  0  0  0
  -30.6187  -17.6262   19.4698 H   0  0  0  0  0  0
  -31.7475  -22.3742   21.3977 H   0  0  0  0  0  0
  -30.7209  -21.2136   22.2218 H   0  0  0  0  0  0
  -30.8977  -22.8276   22.8792 H   0  0  0  0  0  0
  -26.8662  -20.7741   18.8649 H   0  0  0  0  0  0
  -27.3948  -21.8619   17.5703 H   0  0  0  0  0  0
  -25.9949  -22.2673   18.5660 H   0  0  0  0  0  0
  -30.5108  -20.3984   19.9358 H   0  0  0  0  0  0
  -29.1913  -20.1563   18.8981 H   0  0  0  0  0  0
  -28.8425  -15.8635   20.9043 H   0  0  0  0  0  0
  1 25  1  0  0  0
  1 30  2  0  0  0
  1 85  1  0  0  0
  2  3  1  0  0  0
  2 25  1  0  0  0
  2 86  1  0  0  0
  2 87  1  0  0  0
  3  4  1  0  0  0
  3 88  1  0  0  0
  3 89  1  0  0  0
  4  5  1  0  0  0
  4 90  1  0  0  0
  4 91  1  0  0  0
  5  6  1  0  0  0
  5 26  1  0  0  0
  5 92  1  0  0  0
  6 25  1  0  0  0
  6 93  1  0  0  0
  6 94  1  0  0  0
  7  8  2  0  0  0
  7 26  1  0  0  0
  7 29  1  0  0  0
  8  9  1  0  0  0
  8 22  1  0  0  0
  9 10  1  0  0  0
  9 27  2  0  0  0
 10 11  2  0  0  0
 10 15  1  0  0  0
 11 12  1  0  0  0
 11 95  1  0  0  0
 12 13  2  0  0  0
 12 96  1  0  0  0
 13 14  1  0  0  0
 13 31  1  0  0  0
 14 15  2  0  0  0
 14 97  1  0  0  0
 15 98  1  0  0  0
 16 17  2  0  0  0
 16 21  1  0  0  0
 16 31  1  0  0  0
 17 18  1  0  0  0
 17 99  1  0  0  0
 18 19  2  0  0  0
 18100  1  0  0  0
 19 20  1  0  0  0
 19 24  1  0  0  0
 20 21  2  0  0  0
 20101  1  0  0  0
 21 23  1  0  0  0
 22 28  1  0  0  0
 22 32  2  0  0  0
 26 27  1  0  0  0
 28102  1  0  0  0
 28103  1  0  0  0
 29104  1  0  0  0
 29105  1  0  0  0
 33 34  1  0  0  0
 33 66  1  0  0  0
 33 70  2  0  0  0
 34 36  1  0  0  0
 34 59  1  0  0  0
 34106  1  0  0  0
 35 44  2  0  0  0
 35 45  1  0  0  0
 35 68  1  0  0  0
 36 56  1  0  0  0
 36107  1  0  0  0
 37 39  1  0  0  0
 37 47  1  0  0  0
 37 66  1  0  0  0
 37108  1  0  0  0
 38 43  2  0  0  0
 38 46  1  0  0  0
 38 47  1  0  0  0
 39 64  1  0  0  0
 39 67  2  0  0  0
 40 52  1  0  0  0
 40 53  2  0  0  0
 40 58  1  0  0  0
 41109  1  0  0  0
 41110  1  0  0  0
 41111  1  0  0  0
 41 48  1  0  0  0
 42 43  1  0  0  0
 42 66  1  0  0  0
 42112  1  0  0  0
 42113  1  0  0  0
 43 44  1  0  0  0
 44114  1  0  0  0
 45 46  2  0  0  0
 45115  1  0  0  0
 46116  1  0  0  0
 47117  1  0  0  0
 47118  1  0  0  0
 48 56  1  0  0  0
 48 65  1  0  0  0
 48119  1  0  0  0
 49 50  1  0  0  0
 49 53  1  0  0  0
 49 64  1  0  0  0
 49120  1  0  0  0
 50 51  1  0  0  0
 50121  1  0  0  0
 50122  1  0  0  0
 51 52  1  0  0  0
 51123  1  0  0  0
 51124  1  0  0  0
 52125  1  0  0  0
 52126  1  0  0  0
 53 54  1  0  0  0
 54 55  2  0  0  0
 54127  1  0  0  0
 55 57  1  0  0  0
 55128  1  0  0  0
 56 69  2  0  0  0
 57 58  2  0  0  0
 57129  1  0  0  0
 58130  1  0  0  0
 59 60  1  0  0  0
 59 61  1  0  0  0
 59 62  1  0  0  0
 60131  1  0  0  0
 60132  1  0  0  0
 60133  1  0  0  0
 61134  1  0  0  0
 61135  1  0  0  0
 61136  1  0  0  0
 62137  1  0  0  0
 62138  1  0  0  0
 62139  1  0  0  0
 63 65  1  0  0  0
 63140  1  0  0  0
 63141  1  0  0  0
 63142  1  0  0  0
 64143  1  0  0  0
 65144  1  0  0  0
 68 75  1  0  0  0
 71 72  2  0  0  0
 71 75  1  0  0  0
 71145  1  0  0  0
 72 73  1  0  0  0
 72 81  1  0  0  0
 73 74  2  0  0  0
 73 83  1  0  0  0
 74 82  1  0  0  0
 74 84  1  0  0  0
 75 84  2  0  0  0
 76 77  1  0  0  0
 76 78  1  0  0  0
 76146  1  0  0  0
 76147  1  0  0  0
 77 79  1  0  0  0
 77148  1  0  0  0
 77149  1  0  0  0
 78 80  1  0  0  0
 78150  1  0  0  0
 78151  1  0  0  0
 79 80  1  0  0  0
 79 83  1  0  0  0
 79152  1  0  0  0
 80 85  1  0  0  0
 80153  1  0  0  0
 81154  1  0  0  0
 81155  1  0  0  0
 81156  1  0  0  0
 82157  1  0  0  0
 82158  1  0  0  0
 82159  1  0  0  0
 83160  1  0  0  0
 83161  1  0  0  0
 85162  1  0  0  0
M  ISO  4   1 100  68 101  75 101  85 100
M  END
> <chiral flag>
0

> <version>
0

> <s_m_source_file>
/data/baiqing/PycharmProjects/Reinvent-master-3.2/result/LINK_invent/BTK/process_docking_weight1_custom_sum_contain_oxygen_bond_distance_aromatic_linkinvent_7_9_3/rearranged_h_0186.sdf

> <i_m_source_file_index>
76

> <r_mmod_Potential_Energy-OPLS-2005>
292.897613525391

> <r_mmod_Stretch_Energy-OPLS-2005>
202.301162719727

> <r_mmod_Bend_Energy-OPLS-2005>
274.392272949219

> <r_mmod_Torsional_Energy-OPLS-2005>
266.728759765625

> <r_mmod_Improper_Torsional_Energy-OPLS-2005>
8.21895313262939

> <r_mmod_Van_der_Waal_Energy-OPLS-2005>
127.104919433594

> <r_mmod_Electrostatic_Energy-OPLS-2005>
-514.526123046875

> <r_mmod_Solvation_Energy-OPLS-2005>
-212.745086669922

> <b_mmod_Minimization_Converged-OPLS-2005>
0

> <r_mmod_RMS_Derivative-OPLS-2005>
2.57684397697449

$$$$
77
                    3D
 Structure written by MMmdl.
166176  0  0  1  0            999 V2000
  -30.7297  -14.3979   20.6708 C   0  0  0  0  0  0
  -30.4282  -12.3327   19.3666 C   0  0  0  0  0  0
  -29.4871  -12.5396   18.1659 C   0  0  0  0  0  0
  -27.9984  -12.4182   18.5581 C   0  0  0  0  0  0
  -27.6565  -13.1955   19.8597 C   0  0  2  0  0  0
  -28.6900  -12.8647   20.9426 C   0  0  0  0  0  0
  -25.2553  -13.8158   20.5623 C   0  0  0  0  0  0
  -24.1817  -13.0450   20.9089 C   0  0  0  0  0  0
  -24.6332  -11.6874   20.8577 C   0  0  0  0  0  0
  -23.8984  -10.4286   21.0306 C   0  0  0  0  0  0
  -24.3566   -9.4225   21.9131 C   0  0  0  0  0  0
  -23.6304   -8.2224   22.0732 C   0  0  0  0  0  0
  -22.4291   -8.0232   21.3537 C   0  0  0  0  0  0
  -21.9881   -9.0159   20.4625 C   0  0  0  0  0  0
  -22.7128  -10.2071   20.3014 C   0  0  0  0  0  0
  -21.6884   -6.0709   22.5289 C   0  0  0  0  0  0
  -21.4014   -6.5610   23.8226 C   0  0  0  0  0  0
  -21.3689   -5.6738   24.9168 C   0  0  0  0  0  0
  -21.6077   -4.3019   24.7196 C   0  0  0  0  0  0
  -21.8827   -3.8112   23.4308 C   0  0  0  0  0  0
  -21.9209   -4.6935   22.3377 C   0  0  0  0  0  0
  -22.7853  -13.5231   21.1796 C   0  0  0  0  0  0
  -22.1673   -4.2143   21.0955 F   0  0  0  0  0  0
  -21.5655   -3.4477   25.7696 F   0  0  0  0  0  0
  -30.0139  -13.2609   20.4383 N   0  0  0  0  0  0
  -26.2972  -12.9292   20.3233 N   0  0  0  0  0  0
  -25.9253  -11.6443   20.5556 N   0  0  0  0  0  0
  -22.0493  -12.8266   22.0345 N   0  0  0  0  0  0
  -25.4210  -15.1909   20.4130 N   0  0  0  0  0  0
  -31.8616  -14.5393   20.1888 O   0  0  0  0  0  0
  -21.6685   -6.8820   21.4255 O   0  0  0  0  0  0
  -22.3567  -14.5623   20.6728 O   0  0  0  0  0  0
  -24.6047  -31.8699   23.2066 C   0  0  0  0  0  0
  -25.8959  -32.4842   23.8310 C   0  0  1  0  0  0
  -27.2026  -27.4495   20.1172 C   0  0  0  0  0  0
  -25.5775  -33.8642   24.2203 N   0  0  0  0  0  0
  -23.3883  -30.4885   21.5570 C   0  0  2  0  0  0
  -24.8269  -28.9589   20.1128 C   0  0  0  0  0  0
  -22.7371  -29.4627   22.5102 C   0  0  0  0  0  0
  -18.0214  -28.1332   22.8528 C   0  0  0  0  0  0
  -24.1448  -36.7340   23.2642 C   0  0  0  0  0  0
  -25.9085  -30.8475   21.3453 C   0  0  0  0  0  0
  -25.9890  -29.4813   20.6975 C   0  0  0  0  0  0
  -27.1853  -28.7348   20.6961 C   0  0  0  0  0  0
  -26.0332  -26.9384   19.5135 C   0  0  0  0  0  0
  -24.8419  -27.6865   19.5184 C   0  0  0  0  0  0
  -23.5842  -29.8171   20.1701 C   0  0  0  0  0  0
  -25.4083  -36.3134   24.0317 C   0  0  1  0  0  0
  -20.5811  -28.3563   23.1395 C   0  0  2  0  0  0
  -20.6673  -26.9310   22.5457 C   0  0  0  0  0  0
  -19.5650  -26.6339   21.5241 C   0  0  0  0  0  0
  -18.1842  -26.7866   22.1674 C   0  0  0  0  0  0
  -19.1474  -28.8766   23.2944 C   0  0  0  0  0  0
  -18.9436  -30.1391   23.8920 C   0  0  0  0  0  0
  -17.6448  -30.6563   24.0563 C   0  0  0  0  0  0
  -25.9035  -34.9501   23.5087 C   0  0  0  0  0  0
  -16.5321  -29.9085   23.6331 C   0  0  0  0  0  0
  -16.7214  -28.6493   23.0354 C   0  0  0  0  0  0
  -26.4330  -31.6674   25.0694 C   0  0  0  0  0  0
  -25.3563  -31.3922   26.1453 C   0  0  0  0  0  0
  -27.0130  -30.3093   24.6113 C   0  0  0  0  0  0
  -27.5870  -32.4420   25.7484 C   0  0  0  0  0  0
  -27.5579  -37.1772   24.8434 C   0  0  0  0  0  0
  -21.4117  -29.2960   22.3866 N   0  0  0  0  0  0
  -26.4266  -37.3831   23.9434 N   0  0  0  0  0  0
  -24.6538  -31.0780   22.0988 N   0  0  0  0  0  0
  -23.4184  -28.8236   23.3157 O   0  0  0  0  0  0
  -28.3262  -26.6744   20.2076 O   0  0  0  0  0  0
  -26.5702  -34.8982   22.4722 O   0  0  0  0  0  0
  -23.5258  -32.1480   23.7482 O   0  0  0  0  0  0
  -28.6618  -20.9248   20.3947 C   0  0  0  0  0  0
  -29.0484  -22.2606   20.2200 C   0  0  0  0  0  0
  -28.0524  -21.4803   22.6566 C   0  0  0  0  0  0
  -28.1687  -20.5029   21.6440 C   0  0  0  0  0  0
  -28.9108  -23.1611   21.2928 C   0  0  0  0  0  0
  -30.5754  -24.9269   20.3548 C   0  0  0  0  0  0
  -30.5603  -25.1167   21.8439 C   0  0  0  0  0  0
  -30.5875  -16.7941   20.6544 C   0  0  0  0  0  0
  -29.5492  -15.6831   22.4969 C   0  0  0  0  0  0
  -29.5344  -17.8978   20.6513 C   0  0  0  0  0  0
  -28.3950  -16.7301   22.5153 C   0  0  0  0  0  0
  -29.3172  -24.6096   21.1385 C   0  0  0  0  0  0
  -27.7093  -19.0534   21.8690 C   0  0  0  0  0  0
  -28.1005  -25.5219   21.0363 C   0  0  0  0  0  0
  -28.4190  -22.7741   22.4940 N   0  0  0  0  0  0
  -30.0670  -15.4999   21.1285 N   0  0  0  0  0  0
  -28.8152  -18.0513   21.9444 N   0  3  0  0  0  0
  -31.4570  -12.4893   19.0331 H   0  0  0  0  0  0
  -30.3933  -11.2987   19.7067 H   0  0  0  0  0  0
  -29.7409  -11.8315   17.3737 H   0  0  0  0  0  0
  -29.6642  -13.5305   17.7404 H   0  0  0  0  0  0
  -27.7499  -11.3613   18.6607 H   0  0  0  0  0  0
  -27.3804  -12.7851   17.7347 H   0  0  0  0  0  0
  -27.7314  -14.2594   19.6448 H   0  0  0  0  0  0
  -28.6807  -11.7817   21.0884 H   0  0  0  0  0  0
  -28.4033  -13.2801   21.9035 H   0  0  0  0  0  0
  -25.2688   -9.5784   22.4694 H   0  0  0  0  0  0
  -24.0034   -7.4651   22.7483 H   0  0  0  0  0  0
  -21.0779   -8.8614   19.8976 H   0  0  0  0  0  0
  -22.3493  -10.9595   19.6130 H   0  0  0  0  0  0
  -21.2013   -7.6109   23.9721 H   0  0  0  0  0  0
  -21.1552   -6.0466   25.9096 H   0  0  0  0  0  0
  -22.0614   -2.7579   23.2797 H   0  0  0  0  0  0
  -22.4072  -11.9921   22.4750 H   0  0  0  0  0  0
  -21.1159  -13.1425   22.2567 H   0  0  0  0  0  0
  -24.6090  -15.8019   20.4176 H   0  0  0  0  0  0
  -26.2563  -15.6468   20.0756 H   0  0  0  0  0  0
  -26.7020  -32.5536   23.1072 H   0  0  0  0  0  0
  -24.9593  -33.9758   25.0097 H   0  0  0  0  0  0
  -22.6754  -31.3033   21.4193 H   0  0  0  0  0  0
  -23.3743  -35.9635   23.3254 H   0  0  0  0  0  0
  -24.3522  -36.9049   22.2070 H   0  0  0  0  0  0
  -23.7133  -37.6495   23.6710 H   0  0  0  0  0  0
  -25.9881  -31.6121   20.5698 H   0  0  0  0  0  0
  -26.8074  -30.9108   21.9481 H   0  0  0  0  0  0
  -28.0776  -29.1216   21.1706 H   0  0  0  0  0  0
  -26.0230  -25.9510   19.0725 H   0  0  0  0  0  0
  -23.9405  -27.2720   19.0876 H   0  0  0  0  0  0
  -23.6734  -30.5840   19.3984 H   0  0  0  0  0  0
  -22.7081  -29.2244   19.8951 H   0  0  0  0  0  0
  -25.1261  -36.1974   25.0804 H   0  0  0  0  0  0
  -20.9843  -28.3030   24.1546 H   0  0  0  0  0  0
  -20.5472  -26.2182   23.3635 H   0  0  0  0  0  0
  -21.6547  -26.7281   22.1300 H   0  0  0  0  0  0
  -19.6778  -25.6266   21.1214 H   0  0  0  0  0  0
  -19.6554  -27.3206   20.6823 H   0  0  0  0  0  0
  -17.4096  -26.6604   21.4098 H   0  0  0  0  0  0
  -18.0251  -25.9985   22.9055 H   0  0  0  0  0  0
  -19.7936  -30.7182   24.2303 H   0  0  0  0  0  0
  -17.5026  -31.6257   24.5134 H   0  0  0  0  0  0
  -15.5331  -30.3008   23.7627 H   0  0  0  0  0  0
  -15.8602  -28.0829   22.7049 H   0  0  0  0  0  0
  -24.5625  -30.7376   25.7838 H   0  0  0  0  0  0
  -24.8878  -32.3175   26.4841 H   0  0  0  0  0  0
  -25.7837  -30.9111   27.0261 H   0  0  0  0  0  0
  -26.2719  -29.6983   24.0954 H   0  0  0  0  0  0
  -27.3627  -29.7219   25.4613 H   0  0  0  0  0  0
  -27.8649  -30.4382   23.9438 H   0  0  0  0  0  0
  -27.2396  -33.3701   26.2047 H   0  0  0  0  0  0
  -28.3690  -32.7040   25.0346 H   0  0  0  0  0  0
  -28.0501  -31.8574   26.5446 H   0  0  0  0  0  0
  -28.2546  -38.0134   24.7631 H   0  0  0  0  0  0
  -28.1126  -36.2682   24.6050 H   0  0  0  0  0  0
  -27.2317  -37.1175   25.8836 H   0  0  0  0  0  0
  -20.9274  -29.8758   21.7165 H   0  0  0  0  0  0
  -26.0168  -38.2896   24.1544 H   0  0  0  0  0  0
  -28.7725  -20.2291   19.5780 H   0  0  0  0  0  0
  -29.4500  -22.5805   19.2718 H   0  0  0  0  0  0
  -27.6393  -21.2207   23.6210 H   0  0  0  0  0  0
  -31.1310  -24.0820   19.9512 H   0  0  0  0  0  0
  -30.6162  -25.8359   19.7631 H   0  0  0  0  0  0
  -30.5524  -26.1460   22.1981 H   0  0  0  0  0  0
  -31.1483  -24.4173   22.4325 H   0  0  0  0  0  0
  -31.4320  -17.0894   21.2804 H   0  0  0  0  0  0
  -30.9759  -16.7332   19.6357 H   0  0  0  0  0  0
  -29.2877  -14.7559   23.0013 H   0  0  0  0  0  0
  -30.3524  -16.0725   23.1241 H   0  0  0  0  0  0
  -28.8163  -17.7317   19.8451 H   0  0  0  0  0  0
  -30.0849  -18.8065   20.4072 H   0  0  0  0  0  0
  -28.0652  -16.8764   23.5462 H   0  0  0  0  0  0
  -27.5313  -16.3362   21.9769 H   0  0  0  0  0  0
  -27.0338  -18.7817   21.0566 H   0  0  0  0  0  0
  -27.1108  -19.0203   22.7816 H   0  0  0  0  0  0
  -27.8258  -25.8373   22.0449 H   0  0  0  0  0  0
  -27.2586  -24.9353   20.6617 H   0  0  0  0  0  0
  -29.4780  -18.4333   22.6045 H   0  0  0  0  0  0
  1 25  1  0  0  0
  1 30  2  0  0  0
  1 86  1  0  0  0
  2  3  1  0  0  0
  2 25  1  0  0  0
  2 88  1  0  0  0
  2 89  1  0  0  0
  3  4  1  0  0  0
  3 90  1  0  0  0
  3 91  1  0  0  0
  4  5  1  0  0  0
  4 92  1  0  0  0
  4 93  1  0  0  0
  5  6  1  0  0  0
  5 26  1  0  0  0
  5 94  1  0  0  0
  6 25  1  0  0  0
  6 95  1  0  0  0
  6 96  1  0  0  0
  7  8  2  0  0  0
  7 26  1  0  0  0
  7 29  1  0  0  0
  8  9  1  0  0  0
  8 22  1  0  0  0
  9 10  1  0  0  0
  9 27  2  0  0  0
 10 11  2  0  0  0
 10 15  1  0  0  0
 11 12  1  0  0  0
 11 97  1  0  0  0
 12 13  2  0  0  0
 12 98  1  0  0  0
 13 14  1  0  0  0
 13 31  1  0  0  0
 14 15  2  0  0  0
 14 99  1  0  0  0
 15100  1  0  0  0
 16 17  2  0  0  0
 16 21  1  0  0  0
 16 31  1  0  0  0
 17 18  1  0  0  0
 17101  1  0  0  0
 18 19  2  0  0  0
 18102  1  0  0  0
 19 20  1  0  0  0
 19 24  1  0  0  0
 20 21  2  0  0  0
 20103  1  0  0  0
 21 23  1  0  0  0
 22 28  1  0  0  0
 22 32  2  0  0  0
 26 27  1  0  0  0
 28104  1  0  0  0
 28105  1  0  0  0
 29106  1  0  0  0
 29107  1  0  0  0
 33 34  1  0  0  0
 33 66  1  0  0  0
 33 70  2  0  0  0
 34 36  1  0  0  0
 34 59  1  0  0  0
 34108  1  0  0  0
 35 44  2  0  0  0
 35 45  1  0  0  0
 35 68  1  0  0  0
 36 56  1  0  0  0
 36109  1  0  0  0
 37 39  1  0  0  0
 37 47  1  0  0  0
 37 66  1  0  0  0
 37110  1  0  0  0
 38 43  2  0  0  0
 38 46  1  0  0  0
 38 47  1  0  0  0
 39 64  1  0  0  0
 39 67  2  0  0  0
 40 52  1  0  0  0
 40 53  2  0  0  0
 40 58  1  0  0  0
 41111  1  0  0  0
 41112  1  0  0  0
 41113  1  0  0  0
 41 48  1  0  0  0
 42 43  1  0  0  0
 42 66  1  0  0  0
 42114  1  0  0  0
 42115  1  0  0  0
 43 44  1  0  0  0
 44116  1  0  0  0
 45 46  2  0  0  0
 45117  1  0  0  0
 46118  1  0  0  0
 47119  1  0  0  0
 47120  1  0  0  0
 48 56  1  0  0  0
 48 65  1  0  0  0
 48121  1  0  0  0
 49 50  1  0  0  0
 49 53  1  0  0  0
 49 64  1  0  0  0
 49122  1  0  0  0
 50 51  1  0  0  0
 50123  1  0  0  0
 50124  1  0  0  0
 51 52  1  0  0  0
 51125  1  0  0  0
 51126  1  0  0  0
 52127  1  0  0  0
 52128  1  0  0  0
 53 54  1  0  0  0
 54 55  2  0  0  0
 54129  1  0  0  0
 55 57  1  0  0  0
 55130  1  0  0  0
 56 69  2  0  0  0
 57 58  2  0  0  0
 57131  1  0  0  0
 58132  1  0  0  0
 59 60  1  0  0  0
 59 61  1  0  0  0
 59 62  1  0  0  0
 60133  1  0  0  0
 60134  1  0  0  0
 60135  1  0  0  0
 61136  1  0  0  0
 61137  1  0  0  0
 61138  1  0  0  0
 62139  1  0  0  0
 62140  1  0  0  0
 62141  1  0  0  0
 63 65  1  0  0  0
 63142  1  0  0  0
 63143  1  0  0  0
 63144  1  0  0  0
 64145  1  0  0  0
 65146  1  0  0  0
 68 84  1  0  0  0
 71 72  2  0  0  0
 71 74  1  0  0  0
 71147  1  0  0  0
 72 75  1  0  0  0
 72148  1  0  0  0
 73 74  2  0  0  0
 73 85  1  0  0  0
 73149  1  0  0  0
 74 83  1  0  0  0
 75 82  1  0  0  0
 75 85  2  0  0  0
 76 77  1  0  0  0
 76 82  1  0  0  0
 76150  1  0  0  0
 76151  1  0  0  0
 77 82  1  0  0  0
 77152  1  0  0  0
 77153  1  0  0  0
 78 80  1  0  0  0
 78 86  1  0  0  0
 78154  1  0  0  0
 78155  1  0  0  0
 79 81  1  0  0  0
 79 86  1  0  0  0
 79156  1  0  0  0
 79157  1  0  0  0
 80 87  1  0  0  0
 80158  1  0  0  0
 80159  1  0  0  0
 81 87  1  0  0  0
 81160  1  0  0  0
 81161  1  0  0  0
 82 84  1  0  0  0
 83162  1  0  0  0
 83163  1  0  0  0
 83 87  1  0  0  0
 84164  1  0  0  0
 84165  1  0  0  0
 87166  1  0  0  0
M  CHG  1  87   1
M  ISO  4   1 100  68 101  84 101  86 100
M  END
> <chiral flag>
0

> <version>
0

> <s_m_source_file>
/data/baiqing/PycharmProjects/Reinvent-master-3.2/result/LINK_invent/BTK/process_docking_weight1_custom_sum_contain_oxygen_bond_distance_aromatic_linkinvent_7_9_3/rearranged_h_0186.sdf

> <i_m_source_file_index>
77

> <r_mmod_Potential_Energy-OPLS-2005>
-24.815767288208

> <r_mmod_Stretch_Energy-OPLS-2005>
40.6209831237793

> <r_mmod_Bend_Energy-OPLS-2005>
114.912658691406

> <r_mmod_Torsional_Energy-OPLS-2005>
395.707427978516

> <r_mmod_Improper_Torsional_Energy-OPLS-2005>
13.2865581512451

> <r_mmod_Van_der_Waal_Energy-OPLS-2005>
175.393157958984

> <r_mmod_Electrostatic_Energy-OPLS-2005>
-333.436065673828

> <r_mmod_Solvation_Energy-OPLS-2005>
-450.943237304688

> <b_mmod_Minimization_Converged-OPLS-2005>
0

> <r_mmod_RMS_Derivative-OPLS-2005>
8.61014842987061

$$$$
78
                    3D
 Structure written by MMmdl.
154163  0  0  1  0            999 V2000
  -30.5748  -14.9083   20.3706 C   0  0  0  0  0  0
  -30.4260  -12.5555   19.4742 C   0  0  0  0  0  0
  -29.5102  -12.5170   18.2290 C   0  0  0  0  0  0
  -28.0441  -12.3050   18.6598 C   0  0  0  0  0  0
  -27.6271  -13.2379   19.8237 C   0  0  2  0  0  0
  -28.6704  -13.2945   20.9555 C   0  0  0  0  0  0
  -25.2472  -13.8194   20.5664 C   0  0  0  0  0  0
  -24.1787  -13.0418   20.9211 C   0  0  0  0  0  0
  -24.6385  -11.6888   20.8718 C   0  0  0  0  0  0
  -23.9088  -10.4258   21.0384 C   0  0  0  0  0  0
  -24.3625   -9.4179   21.9159 C   0  0  0  0  0  0
  -23.6262   -8.2223   22.0768 C   0  0  0  0  0  0
  -22.4237   -8.0272   21.3560 C   0  0  0  0  0  0
  -21.9872   -9.0256   20.4651 C   0  0  0  0  0  0
  -22.7243  -10.2107   20.3047 C   0  0  0  0  0  0
  -21.6882   -6.0682   22.5255 C   0  0  0  0  0  0
  -21.4028   -6.5598   23.8167 C   0  0  0  0  0  0
  -21.3666   -5.6772   24.9141 C   0  0  0  0  0  0
  -21.6030   -4.3028   24.7236 C   0  0  0  0  0  0
  -21.8826   -3.8097   23.4360 C   0  0  0  0  0  0
  -21.9211   -4.6899   22.3397 C   0  0  0  0  0  0
  -22.7831  -13.5200   21.1898 C   0  0  0  0  0  0
  -22.1689   -4.2057   21.1000 F   0  0  0  0  0  0
  -21.5631   -3.4531   25.7759 F   0  0  0  0  0  0
  -29.9434  -13.6746   20.3301 N   0  0  0  0  0  0
  -26.2880  -12.9407   20.3179 N   0  0  0  0  0  0
  -25.9315  -11.6548   20.5690 N   0  0  0  0  0  0
  -22.0479  -12.8191   22.0453 N   0  0  0  0  0  0
  -25.4171  -15.1899   20.3965 N   0  0  0  0  0  0
  -31.7927  -14.9149   20.1599 O   0  0  0  0  0  0
  -21.6655   -6.8823   21.4208 O   0  0  0  0  0  0
  -22.3531  -14.5509   20.6776 O   0  0  0  0  0  0
  -24.6438  -31.8482   23.1876 C   0  0  0  0  0  0
  -25.9219  -32.4696   23.8270 C   0  0  1  0  0  0
  -27.1918  -27.1688   20.1294 C   0  0  0  0  0  0
  -25.5989  -33.8501   24.2202 N   0  0  0  0  0  0
  -23.4440  -30.4688   21.5319 C   0  0  2  0  0  0
  -24.8850  -28.9023   20.1081 C   0  0  0  0  0  0
  -22.7575  -29.4577   22.4855 C   0  0  0  0  0  0
  -18.0338  -28.1369   22.8476 C   0  0  0  0  0  0
  -24.1492  -36.7264   23.2642 C   0  0  0  0  0  0
  -25.9971  -30.7334   21.3797 C   0  0  0  0  0  0
  -26.0652  -29.3464   20.7188 C   0  0  0  0  0  0
  -27.2300  -28.4961   20.7092 C   0  0  0  0  0  0
  -25.9869  -26.8150   19.4943 C   0  0  0  0  0  0
  -24.8555  -27.6478   19.4847 C   0  0  0  0  0  0
  -23.6645  -29.8012   20.1482 C   0  0  0  0  0  0
  -25.4121  -36.3049   24.0313 C   0  0  1  0  0  0
  -20.5949  -28.3715   23.1227 C   0  0  2  0  0  0
  -20.6864  -26.9442   22.5361 C   0  0  0  0  0  0
  -19.5862  -26.6468   21.5161 C   0  0  0  0  0  0
  -18.2001  -26.7955   22.1537 C   0  0  0  0  0  0
  -19.1583  -28.8839   23.2888 C   0  0  0  0  0  0
  -18.9496  -30.1426   23.8937 C   0  0  0  0  0  0
  -17.6493  -30.6555   24.0585 C   0  0  0  0  0  0
  -25.9067  -34.9422   23.5059 C   0  0  0  0  0  0
  -16.5397  -29.9025   23.6342 C   0  0  0  0  0  0
  -16.7329  -28.6448   23.0361 C   0  0  0  0  0  0
  -26.4522  -31.6582   25.0739 C   0  0  0  0  0  0
  -25.3710  -31.3795   26.1454 C   0  0  0  0  0  0
  -27.0396  -30.2986   24.6324 C   0  0  0  0  0  0
  -27.6049  -32.4363   25.7532 C   0  0  0  0  0  0
  -27.5570  -37.1782   24.8459 C   0  0  0  0  0  0
  -21.4264  -29.3075   22.3629 N   0  0  0  0  0  0
  -26.4287  -37.3747   23.9394 N   0  0  0  0  0  0
  -24.7145  -31.0366   22.0890 N   0  0  0  0  0  0
  -23.4238  -28.8111   23.2981 O   0  0  0  0  0  0
  -28.2226  -26.1801   20.1237 O   0  0  0  0  0  0
  -26.5637  -34.8923   22.4633 O   0  0  0  0  0  0
  -23.5565  -32.1354   23.7090 O   0  0  0  0  0  0
  -28.5075  -22.0192   20.3461 C   0  0  0  0  0  0
  -28.2501  -23.3567   19.7826 C   0  0  0  0  0  0
  -28.5599  -20.8310   19.5001 C   0  0  0  0  0  0
  -28.0851  -22.2792   17.7322 C   0  0  0  0  0  0
  -28.8353  -16.9415   20.8688 C   0  0  0  0  0  0
  -30.2655  -17.3676   19.4042 C   0  0  0  0  0  0
  -29.4681  -18.3166   20.3760 C   0  0  0  0  0  0
  -27.6888  -22.3890   16.2639 C   0  0  0  0  0  0
  -27.9057  -24.7399   20.5871 C   0  0  0  0  0  0
  -28.0531  -23.4106   18.4444 N   0  0  0  0  0  0
  -28.3249  -21.0468   18.1929 N   0  0  0  0  0  0
  -29.8633  -16.1210   20.1486 N   0  0  0  0  0  0
  -28.5189  -19.3948   19.8057 N   0  0  0  0  0  0
  -31.4701  -12.6764   19.1761 H   0  0  0  0  0  0
  -30.3862  -11.6134   20.0189 H   0  0  0  0  0  0
  -29.8217  -11.7236   17.5415 H   0  0  0  0  0  0
  -29.6077  -13.4580   17.6861 H   0  0  0  0  0  0
  -27.9379  -11.2649   18.9726 H   0  0  0  0  0  0
  -27.3628  -12.4338   17.8140 H   0  0  0  0  0  0
  -27.5833  -14.2375   19.3882 H   0  0  0  0  0  0
  -28.7546  -12.3419   21.4758 H   0  0  0  0  0  0
  -28.3696  -14.0381   21.6980 H   0  0  0  0  0  0
  -25.2788   -9.5645   22.4716 H   0  0  0  0  0  0
  -23.9933   -7.4603   22.7513 H   0  0  0  0  0  0
  -21.0784   -8.8814   19.8942 H   0  0  0  0  0  0
  -22.3736  -10.9637   19.6137 H   0  0  0  0  0  0
  -21.2042   -7.6109   23.9641 H   0  0  0  0  0  0
  -21.1492   -6.0515   25.9034 H   0  0  0  0  0  0
  -22.0606   -2.7551   23.2911 H   0  0  0  0  0  0
  -22.4154  -11.9828   22.4721 H   0  0  0  0  0  0
  -21.1067  -13.1142   22.2677 H   0  0  0  0  0  0
  -24.6395  -15.8394   20.4598 H   0  0  0  0  0  0
  -26.2532  -15.6006   20.0053 H   0  0  0  0  0  0
  -26.7305  -32.5307   23.1014 H   0  0  0  0  0  0
  -25.0189  -33.9614   25.0392 H   0  0  0  0  0  0
  -22.7465  -31.2953   21.3768 H   0  0  0  0  0  0
  -23.3767  -35.9575   23.3303 H   0  0  0  0  0  0
  -24.3594  -36.8897   22.2060 H   0  0  0  0  0  0
  -23.7244  -37.6447   23.6688 H   0  0  0  0  0  0
  -26.1588  -31.4941   20.6128 H   0  0  0  0  0  0
  -26.8669  -30.7751   22.0217 H   0  0  0  0  0  0
  -28.1358  -28.8311   21.1941 H   0  0  0  0  0  0
  -25.9128  -25.8483   19.0116 H   0  0  0  0  0  0
  -23.9524  -27.3023   18.9992 H   0  0  0  0  0  0
  -23.7980  -30.5753   19.3928 H   0  0  0  0  0  0
  -22.7826  -29.2355   19.8440 H   0  0  0  0  0  0
  -25.1293  -36.1870   25.0792 H   0  0  0  0  0  0
  -21.0059  -28.3313   24.1338 H   0  0  0  0  0  0
  -20.5767  -26.2304   23.3529 H   0  0  0  0  0  0
  -21.6701  -26.7475   22.1094 H   0  0  0  0  0  0
  -19.7133  -25.6435   21.1071 H   0  0  0  0  0  0
  -19.6831  -27.3368   20.6751 H   0  0  0  0  0  0
  -18.0349  -26.0051   22.8817 H   0  0  0  0  0  0
  -17.4314  -26.6784   21.3868 H   0  0  0  0  0  0
  -19.7997  -30.7229   24.2293 H   0  0  0  0  0  0
  -17.5041  -31.6243   24.5139 H   0  0  0  0  0  0
  -15.5383  -30.2923   23.7585 H   0  0  0  0  0  0
  -15.8757  -28.0777   22.6988 H   0  0  0  0  0  0
  -24.5846  -30.7185   25.7788 H   0  0  0  0  0  0
  -24.8973  -32.3004   26.4868 H   0  0  0  0  0  0
  -25.8015  -30.8971   27.0244 H   0  0  0  0  0  0
  -26.3029  -29.6714   24.1294 H   0  0  0  0  0  0
  -27.3974  -29.7279   25.4898 H   0  0  0  0  0  0
  -27.8942  -30.4222   23.9671 H   0  0  0  0  0  0
  -27.2599  -33.3648   26.2084 H   0  0  0  0  0  0
  -28.3870  -32.6947   25.0392 H   0  0  0  0  0  0
  -28.0706  -31.8533   26.5477 H   0  0  0  0  0  0
  -28.2560  -38.0096   24.7473 H   0  0  0  0  0  0
  -28.1074  -36.2614   24.6290 H   0  0  0  0  0  0
  -27.2288  -37.1438   25.8862 H   0  0  0  0  0  0
  -20.9475  -29.8828   21.6845 H   0  0  0  0  0  0
  -26.0167  -38.2808   24.1398 H   0  0  0  0  0  0
  -28.5616  -21.9025   21.4231 H   0  0  0  0  0  0
  -27.8260  -16.7836   20.4931 H   0  0  0  0  0  0
  -28.8568  -16.8289   21.9561 H   0  0  0  0  0  0
  -31.3353  -17.5768   19.4116 H   0  0  0  0  0  0
  -29.8947  -17.3776   18.3786 H   0  0  0  0  0  0
  -30.1211  -18.7401   21.1404 H   0  0  0  0  0  0
  -27.7136  -23.4198   15.9125 H   0  0  0  0  0  0
  -26.6760  -22.0093   16.1078 H   0  0  0  0  0  0
  -28.3541  -21.8155   15.6154 H   0  0  0  0  0  0
  -28.3318  -24.6332   21.5859 H   0  0  0  0  0  0
  -26.8317  -24.6758   20.7709 H   0  0  0  0  0  0
  -28.0415  -18.9728   19.0180 H   0  0  0  0  0  0
  1 25  1  0  0  0
  1 30  2  0  0  0
  1 82  1  0  0  0
  2  3  1  0  0  0
  2 25  1  0  0  0
  2 84  1  0  0  0
  2 85  1  0  0  0
  3  4  1  0  0  0
  3 86  1  0  0  0
  3 87  1  0  0  0
  4  5  1  0  0  0
  4 88  1  0  0  0
  4 89  1  0  0  0
  5  6  1  0  0  0
  5 26  1  0  0  0
  5 90  1  0  0  0
  6 25  1  0  0  0
  6 91  1  0  0  0
  6 92  1  0  0  0
  7  8  2  0  0  0
  7 26  1  0  0  0
  7 29  1  0  0  0
  8  9  1  0  0  0
  8 22  1  0  0  0
  9 10  1  0  0  0
  9 27  2  0  0  0
 10 11  2  0  0  0
 10 15  1  0  0  0
 11 12  1  0  0  0
 11 93  1  0  0  0
 12 13  2  0  0  0
 12 94  1  0  0  0
 13 14  1  0  0  0
 13 31  1  0  0  0
 14 15  2  0  0  0
 14 95  1  0  0  0
 15 96  1  0  0  0
 16 17  2  0  0  0
 16 21  1  0  0  0
 16 31  1  0  0  0
 17 18  1  0  0  0
 17 97  1  0  0  0
 18 19  2  0  0  0
 18 98  1  0  0  0
 19 20  1  0  0  0
 19 24  1  0  0  0
 20 21  2  0  0  0
 20 99  1  0  0  0
 21 23  1  0  0  0
 22 28  1  0  0  0
 22 32  2  0  0  0
 26 27  1  0  0  0
 28100  1  0  0  0
 28101  1  0  0  0
 29102  1  0  0  0
 29103  1  0  0  0
 33 34  1  0  0  0
 33 66  1  0  0  0
 33 70  2  0  0  0
 34 36  1  0  0  0
 34 59  1  0  0  0
 34104  1  0  0  0
 35 44  2  0  0  0
 35 45  1  0  0  0
 35 68  1  0  0  0
 36 56  1  0  0  0
 36105  1  0  0  0
 37 39  1  0  0  0
 37 47  1  0  0  0
 37 66  1  0  0  0
 37106  1  0  0  0
 38 43  2  0  0  0
 38 46  1  0  0  0
 38 47  1  0  0  0
 39 64  1  0  0  0
 39 67  2  0  0  0
 40 52  1  0  0  0
 40 53  2  0  0  0
 40 58  1  0  0  0
 41107  1  0  0  0
 41108  1  0  0  0
 41109  1  0  0  0
 41 48  1  0  0  0
 42 43  1  0  0  0
 42 66  1  0  0  0
 42110  1  0  0  0
 42111  1  0  0  0
 43 44  1  0  0  0
 44112  1  0  0  0
 45 46  2  0  0  0
 45113  1  0  0  0
 46114  1  0  0  0
 47115  1  0  0  0
 47116  1  0  0  0
 48 56  1  0  0  0
 48 65  1  0  0  0
 48117  1  0  0  0
 49 50  1  0  0  0
 49 53  1  0  0  0
 49 64  1  0  0  0
 49118  1  0  0  0
 50 51  1  0  0  0
 50119  1  0  0  0
 50120  1  0  0  0
 51 52  1  0  0  0
 51121  1  0  0  0
 51122  1  0  0  0
 52123  1  0  0  0
 52124  1  0  0  0
 53 54  1  0  0  0
 54 55  2  0  0  0
 54125  1  0  0  0
 55 57  1  0  0  0
 55126  1  0  0  0
 56 69  2  0  0  0
 57 58  2  0  0  0
 57127  1  0  0  0
 58128  1  0  0  0
 59 60  1  0  0  0
 59 61  1  0  0  0
 59 62  1  0  0  0
 60129  1  0  0  0
 60130  1  0  0  0
 60131  1  0  0  0
 61132  1  0  0  0
 61133  1  0  0  0
 61134  1  0  0  0
 62135  1  0  0  0
 62136  1  0  0  0
 62137  1  0  0  0
 63 65  1  0  0  0
 63138  1  0  0  0
 63139  1  0  0  0
 63140  1  0  0  0
 64141  1  0  0  0
 65142  1  0  0  0
 68 79  1  0  0  0
 71 72  2  0  0  0
 71 73  1  0  0  0
 71143  1  0  0  0
 72 79  1  0  0  0
 72 80  1  0  0  0
 73 81  2  0  0  0
 73 83  1  0  0  0
 74 78  1  0  0  0
 74 80  2  0  0  0
 74 81  1  0  0  0
 75 77  1  0  0  0
 75 82  1  0  0  0
 75144  1  0  0  0
 75145  1  0  0  0
 76 77  1  0  0  0
 76 82  1  0  0  0
 76146  1  0  0  0
 76147  1  0  0  0
 77 83  1  0  0  0
 77148  1  0  0  0
 78149  1  0  0  0
 78150  1  0  0  0
 78151  1  0  0  0
 79152  1  0  0  0
 79153  1  0  0  0
 83154  1  0  0  0
M  ISO  4   1 100  68 101  79 101  82 100
M  END
> <chiral flag>
0

> <version>
0

> <s_m_source_file>
/data/baiqing/PycharmProjects/Reinvent-master-3.2/result/LINK_invent/BTK/process_docking_weight1_custom_sum_contain_oxygen_bond_distance_aromatic_linkinvent_7_9_3/rearranged_h_0186.sdf

> <i_m_source_file_index>
78

> <r_mmod_Potential_Energy-OPLS-2005>
0.837464272975922

> <r_mmod_Stretch_Energy-OPLS-2005>
176.56201171875

> <r_mmod_Bend_Energy-OPLS-2005>
284.3203125

> <r_mmod_Torsional_Energy-OPLS-2005>
306.628845214844

> <r_mmod_Improper_Torsional_Energy-OPLS-2005>
26.0135822296143

> <r_mmod_Van_der_Waal_Energy-OPLS-2005>
130.300201416016

> <r_mmod_Electrostatic_Energy-OPLS-2005>
-861.035339355469

> <r_mmod_Solvation_Energy-OPLS-2005>
-233.654495239258

> <b_mmod_Minimization_Converged-OPLS-2005>
0

> <r_mmod_RMS_Derivative-OPLS-2005>
6.9321117401123

$$$$
79
                    3D
 Structure written by MMmdl.
149158  0  0  1  0            999 V2000
  -30.3873  -15.4461   20.3203 C   0  0  0  0  0  0
  -30.4296  -12.9469   19.4968 C   0  0  0  0  0  0
  -29.5295  -12.5901   18.2858 C   0  0  0  0  0  0
  -28.0965  -12.2651   18.7418 C   0  0  0  0  0  0
  -27.5936  -13.2661   19.8067 C   0  0  2  0  0  0
  -28.6313  -13.5572   20.9135 C   0  0  0  0  0  0
  -25.2352  -13.8178   20.5821 C   0  0  0  0  0  0
  -24.1697  -13.0378   20.9314 C   0  0  0  0  0  0
  -24.6359  -11.6884   20.8801 C   0  0  0  0  0  0
  -23.9066  -10.4255   21.0424 C   0  0  0  0  0  0
  -24.3619   -9.4170   21.9197 C   0  0  0  0  0  0
  -23.6289   -8.2206   22.0756 C   0  0  0  0  0  0
  -22.4269   -8.0258   21.3543 C   0  0  0  0  0  0
  -21.9910   -9.0233   20.4643 C   0  0  0  0  0  0
  -22.7247  -10.2105   20.3063 C   0  0  0  0  0  0
  -21.6839   -6.0732   22.5284 C   0  0  0  0  0  0
  -21.4004   -6.5642   23.8216 C   0  0  0  0  0  0
  -21.3655   -5.6797   24.9178 C   0  0  0  0  0  0
  -21.6045   -4.3061   24.7229 C   0  0  0  0  0  0
  -21.8818   -3.8150   23.4352 C   0  0  0  0  0  0
  -21.9185   -4.6962   22.3406 C   0  0  0  0  0  0
  -22.7717  -13.5145   21.1941 C   0  0  0  0  0  0
  -22.1657   -4.2149   21.0985 F   0  0  0  0  0  0
  -21.5626   -3.4545   25.7743 F   0  0  0  0  0  0
  -29.8207  -14.1213   20.2400 N   0  0  0  0  0  0
  -26.2757  -12.9424   20.3261 N   0  0  0  0  0  0
  -25.9290  -11.6548   20.5752 N   0  0  0  0  0  0
  -22.0367  -12.8131   22.0495 N   0  0  0  0  0  0
  -25.3988  -15.1907   20.4282 N   0  0  0  0  0  0
  -31.6285  -15.3759   20.2843 O   0  0  0  0  0  0
  -21.6623   -6.8866   21.4244 O   0  0  0  0  0  0
  -22.3410  -14.5448   20.6769 O   0  0  0  0  0  0
  -24.6730  -31.8137   23.1627 C   0  0  0  0  0  0
  -25.9368  -32.4541   23.8125 C   0  0  1  0  0  0
  -27.2178  -26.8279   20.2022 C   0  0  0  0  0  0
  -25.6007  -33.8358   24.2034 N   0  0  0  0  0  0
  -23.4919  -30.4216   21.5147 C   0  0  2  0  0  0
  -24.9442  -28.7838   20.1246 C   0  0  0  0  0  0
  -22.7713  -29.4398   22.4763 C   0  0  0  0  0  0
  -18.0327  -28.1416   22.8464 C   0  0  0  0  0  0
  -24.1492  -36.7178   23.2647 C   0  0  0  0  0  0
  -26.0673  -30.5888   21.4049 C   0  0  0  0  0  0
  -26.1333  -29.1648   20.7584 C   0  0  0  0  0  0
  -27.2655  -28.2135   20.7623 C   0  0  0  0  0  0
  -25.9926  -26.6197   19.5281 C   0  0  0  0  0  0
  -24.9035  -27.5332   19.4881 C   0  0  0  0  0  0
  -23.7374  -29.7270   20.1468 C   0  0  0  0  0  0
  -25.4135  -36.2934   24.0297 C   0  0  1  0  0  0
  -20.5959  -28.3769   23.1169 C   0  0  2  0  0  0
  -20.6804  -26.9441   22.5402 C   0  0  0  0  0  0
  -19.5778  -26.6373   21.5219 C   0  0  0  0  0  0
  -18.1959  -26.7947   22.1617 C   0  0  0  0  0  0
  -19.1593  -28.8911   23.2801 C   0  0  0  0  0  0
  -18.9499  -30.1498   23.8839 C   0  0  0  0  0  0
  -17.6491  -30.6600   24.0552 C   0  0  0  0  0  0
  -25.9109  -34.9327   23.4987 C   0  0  0  0  0  0
  -16.5379  -29.9087   23.6345 C   0  0  0  0  0  0
  -16.7308  -28.6508   23.0366 C   0  0  0  0  0  0
  -26.4584  -31.6519   25.0693 C   0  0  0  0  0  0
  -25.3688  -31.3802   26.1336 C   0  0  0  0  0  0
  -27.0491  -30.2875   24.6483 C   0  0  0  0  0  0
  -27.6064  -32.4339   25.7501 C   0  0  0  0  0  0
  -27.5569  -37.1745   24.8464 C   0  0  0  0  0  0
  -21.4373  -29.3042   22.3515 N   0  0  0  0  0  0
  -26.4268  -37.3691   23.9420 N   0  0  0  0  0  0
  -24.7671  -30.9710   22.0809 N   0  0  0  0  0  0
  -23.4222  -28.7974   23.3047 O   0  0  0  0  0  0
  -28.2181  -25.6879   20.1617 O   0  0  0  0  0  0
  -26.5719  -34.8881   22.4586 O   0  0  0  0  0  0
  -23.5778  -32.1142   23.6663 O   0  0  0  0  0  0
  -27.7344  -20.7639   18.5053 C   0  0  0  0  0  0
  -28.3559  -19.6289   19.1008 C   0  0  0  0  0  0
  -29.1668  -19.8449   20.2034 C   0  0  0  0  0  0
  -28.4890  -22.4173   20.0422 C   0  0  0  0  0  0
  -28.2297  -18.1901   18.5376 C   0  0  0  0  0  0
  -29.9805  -18.3824   20.6948 C   0  0  0  0  0  0
  -28.3975  -16.9406   19.5115 C   0  0  0  0  0  0
  -28.0700  -24.0671   20.6399 C   0  0  0  0  0  0
  -27.8102  -22.0623   18.9407 N   0  0  0  0  0  0
  -29.1679  -21.2666   20.6602 N   0  0  0  0  0  0
  -29.6661  -16.7929   20.2732 N   0  0  0  0  0  0
  -31.4275  -13.1923   19.1316 H   0  0  0  0  0  0
  -30.5621  -12.0862   20.1542 H   0  0  0  0  0  0
  -29.9485  -11.7469   17.7338 H   0  0  0  0  0  0
  -29.5076  -13.4323   17.5929 H   0  0  0  0  0  0
  -28.1030  -11.2600   19.1652 H   0  0  0  0  0  0
  -27.4178  -12.2338   17.8878 H   0  0  0  0  0  0
  -27.4508  -14.1818   19.2436 H   0  0  0  0  0  0
  -28.8618  -12.6623   21.4925 H   0  0  0  0  0  0
  -28.2339  -14.2894   21.6188 H   0  0  0  0  0  0
  -25.2754   -9.5641   22.4787 H   0  0  0  0  0  0
  -23.9991   -7.4590   22.7468 H   0  0  0  0  0  0
  -21.0847   -8.8756   19.8942 H   0  0  0  0  0  0
  -22.3712  -10.9651   19.6181 H   0  0  0  0  0  0
  -21.1998   -7.6152   23.9721 H   0  0  0  0  0  0
  -21.1476   -6.0529   25.9083 H   0  0  0  0  0  0
  -22.0599   -2.7613   23.2852 H   0  0  0  0  0  0
  -22.3983  -11.9800   22.4890 H   0  0  0  0  0  0
  -21.0975  -13.1127   22.2687 H   0  0  0  0  0  0
  -24.6361  -15.8445   20.5643 H   0  0  0  0  0  0
  -26.2560  -15.6336   20.1301 H   0  0  0  0  0  0
  -26.7447  -32.5046   23.0841 H   0  0  0  0  0  0
  -25.0145  -33.9426   25.0180 H   0  0  0  0  0  0
  -22.8110  -31.2560   21.3347 H   0  0  0  0  0  0
  -23.3785  -35.9472   23.3236 H   0  0  0  0  0  0
  -24.3582  -36.8898   22.2077 H   0  0  0  0  0  0
  -23.7201  -37.6324   23.6748 H   0  0  0  0  0  0
  -26.2546  -31.3192   20.6160 H   0  0  0  0  0  0
  -26.9258  -30.6546   22.0617 H   0  0  0  0  0  0
  -28.1722  -28.5145   21.2669 H   0  0  0  0  0  0
  -25.8534  -25.6690   19.0320 H   0  0  0  0  0  0
  -24.0023  -27.2338   18.9701 H   0  0  0  0  0  0
  -23.9055  -30.4890   19.3853 H   0  0  0  0  0  0
  -22.8439  -29.1885   19.8246 H   0  0  0  0  0  0
  -25.1333  -36.1718   25.0786 H   0  0  0  0  0  0
  -21.0038  -28.3374   24.1296 H   0  0  0  0  0  0
  -20.5681  -26.2386   23.3650 H   0  0  0  0  0  0
  -21.6667  -26.7408   22.1209 H   0  0  0  0  0  0
  -19.6942  -25.6271   21.1280 H   0  0  0  0  0  0
  -19.6718  -27.3158   20.6729 H   0  0  0  0  0  0
  -17.4229  -26.6685   21.4024 H   0  0  0  0  0  0
  -18.0354  -26.0111   22.9031 H   0  0  0  0  0  0
  -19.7974  -30.7333   24.2183 H   0  0  0  0  0  0
  -17.5040  -31.6278   24.5162 H   0  0  0  0  0  0
  -15.5380  -30.2968   23.7707 H   0  0  0  0  0  0
  -15.8707  -28.0804   22.7118 H   0  0  0  0  0  0
  -24.5893  -30.7128   25.7654 H   0  0  0  0  0  0
  -24.8855  -32.3014   26.4600 H   0  0  0  0  0  0
  -25.7903  -30.9082   27.0219 H   0  0  0  0  0  0
  -26.3184  -29.6542   24.1448 H   0  0  0  0  0  0
  -27.3956  -29.7258   25.5165 H   0  0  0  0  0  0
  -27.9146  -30.4051   23.9963 H   0  0  0  0  0  0
  -27.2637  -33.3705   26.1910 H   0  0  0  0  0  0
  -28.3965  -32.6788   25.0392 H   0  0  0  0  0  0
  -28.0629  -31.8569   26.5554 H   0  0  0  0  0  0
  -28.2539  -38.0086   24.7543 H   0  0  0  0  0  0
  -28.1105  -36.2611   24.6236 H   0  0  0  0  0  0
  -27.2297  -37.1323   25.8868 H   0  0  0  0  0  0
  -20.9651  -29.8713   21.6611 H   0  0  0  0  0  0
  -26.0099  -38.2737   24.1452 H   0  0  0  0  0  0
  -27.1304  -20.6236   17.6204 H   0  0  0  0  0  0
  -28.9443  -18.0972   17.7195 H   0  0  0  0  0  0
  -27.2471  -18.1150   18.0671 H   0  0  0  0  0  0
  -29.9926  -18.4039   21.7836 H   0  0  0  0  0  0
  -31.0218  -18.5392   20.4125 H   0  0  0  0  0  0
  -28.2674  -16.0620   18.8855 H   0  0  0  0  0  0
  -27.5824  -16.9364   20.2358 H   0  0  0  0  0  0
  -28.4862  -24.0691   21.6467 H   0  0  0  0  0  0
  -26.9969  -23.9768   20.8102 H   0  0  0  0  0  0
  1 25  1  0  0  0
  1 30  2  0  0  0
  1 81  1  0  0  0
  2  3  1  0  0  0
  2 25  1  0  0  0
  2 82  1  0  0  0
  2 83  1  0  0  0
  3  4  1  0  0  0
  3 84  1  0  0  0
  3 85  1  0  0  0
  4  5  1  0  0  0
  4 86  1  0  0  0
  4 87  1  0  0  0
  5  6  1  0  0  0
  5 26  1  0  0  0
  5 88  1  0  0  0
  6 25  1  0  0  0
  6 89  1  0  0  0
  6 90  1  0  0  0
  7  8  2  0  0  0
  7 26  1  0  0  0
  7 29  1  0  0  0
  8  9  1  0  0  0
  8 22  1  0  0  0
  9 10  1  0  0  0
  9 27  2  0  0  0
 10 11  2  0  0  0
 10 15  1  0  0  0
 11 12  1  0  0  0
 11 91  1  0  0  0
 12 13  2  0  0  0
 12 92  1  0  0  0
 13 14  1  0  0  0
 13 31  1  0  0  0
 14 15  2  0  0  0
 14 93  1  0  0  0
 15 94  1  0  0  0
 16 17  2  0  0  0
 16 21  1  0  0  0
 16 31  1  0  0  0
 17 18  1  0  0  0
 17 95  1  0  0  0
 18 19  2  0  0  0
 18 96  1  0  0  0
 19 20  1  0  0  0
 19 24  1  0  0  0
 20 21  2  0  0  0
 20 97  1  0  0  0
 21 23  1  0  0  0
 22 28  1  0  0  0
 22 32  2  0  0  0
 26 27  1  0  0  0
 28 98  1  0  0  0
 28 99  1  0  0  0
 29100  1  0  0  0
 29101  1  0  0  0
 33 34  1  0  0  0
 33 66  1  0  0  0
 33 70  2  0  0  0
 34 36  1  0  0  0
 34 59  1  0  0  0
 34102  1  0  0  0
 35 44  2  0  0  0
 35 45  1  0  0  0
 35 68  1  0  0  0
 36 56  1  0  0  0
 36103  1  0  0  0
 37 39  1  0  0  0
 37 47  1  0  0  0
 37 66  1  0  0  0
 37104  1  0  0  0
 38 43  2  0  0  0
 38 46  1  0  0  0
 38 47  1  0  0  0
 39 64  1  0  0  0
 39 67  2  0  0  0
 40 52  1  0  0  0
 40 53  2  0  0  0
 40 58  1  0  0  0
 41105  1  0  0  0
 41106  1  0  0  0
 41107  1  0  0  0
 41 48  1  0  0  0
 42 43  1  0  0  0
 42 66  1  0  0  0
 42108  1  0  0  0
 42109  1  0  0  0
 43 44  1  0  0  0
 44110  1  0  0  0
 45 46  2  0  0  0
 45111  1  0  0  0
 46112  1  0  0  0
 47113  1  0  0  0
 47114  1  0  0  0
 48 56  1  0  0  0
 48 65  1  0  0  0
 48115  1  0  0  0
 49 50  1  0  0  0
 49 53  1  0  0  0
 49 64  1  0  0  0
 49116  1  0  0  0
 50 51  1  0  0  0
 50117  1  0  0  0
 50118  1  0  0  0
 51 52  1  0  0  0
 51119  1  0  0  0
 51120  1  0  0  0
 52121  1  0  0  0
 52122  1  0  0  0
 53 54  1  0  0  0
 54 55  2  0  0  0
 54123  1  0  0  0
 55 57  1  0  0  0
 55124  1  0  0  0
 56 69  2  0  0  0
 57 58  2  0  0  0
 57125  1  0  0  0
 58126  1  0  0  0
 59 60  1  0  0  0
 59 61  1  0  0  0
 59 62  1  0  0  0
 60127  1  0  0  0
 60128  1  0  0  0
 60129  1  0  0  0
 61130  1  0  0  0
 61131  1  0  0  0
 61132  1  0  0  0
 62133  1  0  0  0
 62134  1  0  0  0
 62135  1  0  0  0
 63 65  1  0  0  0
 63136  1  0  0  0
 63137  1  0  0  0
 63138  1  0  0  0
 64139  1  0  0  0
 65140  1  0  0  0
 68 78  1  0  0  0
 71 72  2  0  0  0
 71 79  1  0  0  0
 71141  1  0  0  0
 72 73  1  0  0  0
 72 75  1  0  0  0
 73 76  1  0  0  0
 73 80  2  0  0  0
 74 78  1  0  0  0
 74 79  2  0  0  0
 74 80  1  0  0  0
 75 77  1  0  0  0
 75142  1  0  0  0
 75143  1  0  0  0
 76 81  1  0  0  0
 76144  1  0  0  0
 76145  1  0  0  0
 77 81  1  0  0  0
 77146  1  0  0  0
 77147  1  0  0  0
 78148  1  0  0  0
 78149  1  0  0  0
M  ISO  4   1 100  68 101  78 101  81 100
M  END
> <chiral flag>
0

> <version>
0

> <s_m_source_file>
/data/baiqing/PycharmProjects/Reinvent-master-3.2/result/LINK_invent/BTK/process_docking_weight1_custom_sum_contain_oxygen_bond_distance_aromatic_linkinvent_7_9_3/rearranged_h_0186.sdf

> <i_m_source_file_index>
79

> <r_mmod_Potential_Energy-OPLS-2005>
1350.55480957031

> <r_mmod_Stretch_Energy-OPLS-2005>
697.559692382812

> <r_mmod_Bend_Energy-OPLS-2005>
513.101440429688

> <r_mmod_Torsional_Energy-OPLS-2005>
309.046203613281

> <r_mmod_Improper_Torsional_Energy-OPLS-2005>
6.59037780761719

> <r_mmod_Van_der_Waal_Energy-OPLS-2005>
130.135879516602

> <r_mmod_Electrostatic_Energy-OPLS-2005>
-703.003662109375

> <r_mmod_Solvation_Energy-OPLS-2005>
-247.866394042969

> <b_mmod_Minimization_Converged-OPLS-2005>
0

> <r_mmod_RMS_Derivative-OPLS-2005>
1.68457472324371

$$$$
80
                    3D
 Structure written by MMmdl.
159167  0  0  1  0            999 V2000
  -30.6204  -14.6333   20.5126 C   0  0  0  0  0  0
  -30.4371  -12.3886   19.4576 C   0  0  0  0  0  0
  -29.5100  -12.5130   18.2276 C   0  0  0  0  0  0
  -28.0300  -12.3507   18.6316 C   0  0  0  0  0  0
  -27.6523  -13.2157   19.8641 C   0  0  2  0  0  0
  -28.6939  -13.0618   20.9953 C   0  0  0  0  0  0
  -25.2538  -13.8163   20.5653 C   0  0  0  0  0  0
  -24.1814  -13.0429   20.9190 C   0  0  0  0  0  0
  -24.6387  -11.6903   20.8740 C   0  0  0  0  0  0
  -23.9061  -10.4281   21.0398 C   0  0  0  0  0  0
  -24.3609   -9.4199   21.9180 C   0  0  0  0  0  0
  -23.6284   -8.2237   22.0750 C   0  0  0  0  0  0
  -22.4271   -8.0268   21.3541 C   0  0  0  0  0  0
  -21.9907   -9.0241   20.4647 C   0  0  0  0  0  0
  -22.7234  -10.2120   20.3050 C   0  0  0  0  0  0
  -21.6853   -6.0726   22.5279 C   0  0  0  0  0  0
  -21.4010   -6.5633   23.8209 C   0  0  0  0  0  0
  -21.3664   -5.6793   24.9176 C   0  0  0  0  0  0
  -21.6045   -4.3055   24.7233 C   0  0  0  0  0  0
  -21.8820   -3.8142   23.4356 C   0  0  0  0  0  0
  -21.9188   -4.6954   22.3410 C   0  0  0  0  0  0
  -22.7833  -13.5217   21.1848 C   0  0  0  0  0  0
  -22.1657   -4.2136   21.0991 F   0  0  0  0  0  0
  -21.5638   -3.4545   25.7750 F   0  0  0  0  0  0
  -30.0132  -13.4061   20.4398 N   0  0  0  0  0  0
  -26.2966  -12.9344   20.3296 N   0  0  0  0  0  0
  -25.9311  -11.6501   20.5742 N   0  0  0  0  0  0
  -22.0486  -12.8206   22.0412 N   0  0  0  0  0  0
  -25.4232  -15.1885   20.4013 N   0  0  0  0  0  0
  -31.7849  -14.7863   20.1239 O   0  0  0  0  0  0
  -21.6641   -6.8861   21.4237 O   0  0  0  0  0  0
  -22.3515  -14.5520   20.6688 O   0  0  0  0  0  0
  -24.6264  -31.8594   23.2028 C   0  0  0  0  0  0
  -25.9114  -32.4781   23.8358 C   0  0  1  0  0  0
  -27.2207  -27.3174   20.1181 C   0  0  0  0  0  0
  -25.5923  -33.8579   24.2277 N   0  0  0  0  0  0
  -23.4198  -30.4857   21.5451 C   0  0  2  0  0  0
  -24.8650  -28.9410   20.1125 C   0  0  0  0  0  0
  -22.7465  -29.4648   22.4934 C   0  0  0  0  0  0
  -18.0271  -28.1386   22.8504 C   0  0  0  0  0  0
  -24.1482  -36.7293   23.2645 C   0  0  0  0  0  0
  -25.9615  -30.7924   21.3726 C   0  0  0  0  0  0
  -26.0354  -29.4198   20.7149 C   0  0  0  0  0  0
  -27.2172  -28.6206   20.7056 C   0  0  0  0  0  0
  -26.0244  -26.8943   19.4909 C   0  0  0  0  0  0
  -24.8618  -27.6843   19.4919 C   0  0  0  0  0  0
  -23.6328  -29.8185   20.1610 C   0  0  0  0  0  0
  -25.4110  -36.3088   24.0333 C   0  0  1  0  0  0
  -20.5878  -28.3699   23.1274 C   0  0  2  0  0  0
  -20.6758  -26.9416   22.5406 C   0  0  0  0  0  0
  -19.5735  -26.6389   21.5208 C   0  0  0  0  0  0
  -18.1919  -26.7936   22.1629 C   0  0  0  0  0  0
  -19.1527  -28.8854   23.2893 C   0  0  0  0  0  0
  -18.9451  -30.1453   23.8920 C   0  0  0  0  0  0
  -17.6456  -30.6596   24.0565 C   0  0  0  0  0  0
  -25.9049  -34.9456   23.5105 C   0  0  0  0  0  0
  -16.5346  -29.9093   23.6330 C   0  0  0  0  0  0
  -16.7263  -28.6495   23.0383 C   0  0  0  0  0  0
  -26.4497  -31.6598   25.0731 C   0  0  0  0  0  0
  -25.3719  -31.3732   26.1446 C   0  0  0  0  0  0
  -27.0345  -30.3030   24.6195 C   0  0  0  0  0  0
  -27.6048  -32.4342   25.7497 C   0  0  0  0  0  0
  -27.5576  -37.1804   24.8466 C   0  0  0  0  0  0
  -21.4176  -29.3065   22.3674 N   0  0  0  0  0  0
  -26.4288  -37.3783   23.9408 N   0  0  0  0  0  0
  -24.6886  -31.0623   22.0972 N   0  0  0  0  0  0
  -23.4184  -28.8176   23.3014 O   0  0  0  0  0  0
  -28.3365  -26.4658   20.1731 O   0  0  0  0  0  0
  -26.5621  -34.8919   22.4674 O   0  0  0  0  0  0
  -23.5430  -32.1373   23.7374 O   0  0  0  0  0  0
  -28.5914  -19.2460   20.6287 C   0  0  0  0  0  0
  -28.6604  -17.8416   20.8519 C   0  0  0  0  0  0
  -29.7483  -19.9757   20.2645 C   0  0  0  0  0  0
  -29.8695  -17.1170   20.6936 C   0  0  0  0  0  0
  -30.9298  -19.1866   20.1686 C   0  0  0  0  0  0
  -29.3908  -21.5815   18.3258 C   0  0  0  0  0  0
  -33.2857  -19.0316   19.6684 C   0  0  0  0  0  0
  -29.2798  -23.9971   20.4273 C   0  0  0  0  0  0
  -28.0924  -25.0029   20.1125 C   0  0  0  0  0  0
  -29.7376  -21.4981   19.8240 C   0  0  1  0  0  0
  -30.9805  -17.8305   20.3734 N   0  0  0  0  0  0
  -29.8055  -15.6712   20.8850 N   0  0  0  0  0  0
  -28.9201  -22.5190   20.5940 N   0  3  0  0  0  0
  -32.1023  -19.8144   19.8003 O   0  0  0  0  0  0
  -31.4793  -12.5132   19.1581 H   0  0  0  0  0  0
  -30.3705  -11.3901   19.8934 H   0  0  0  0  0  0
  -29.7774  -11.7695   17.4758 H   0  0  0  0  0  0
  -29.6552  -13.4867   17.7580 H   0  0  0  0  0  0
  -27.8601  -11.2960   18.8534 H   0  0  0  0  0  0
  -27.3803  -12.5907   17.7893 H   0  0  0  0  0  0
  -27.6726  -14.2534   19.5293 H   0  0  0  0  0  0
  -28.7004  -12.0361   21.3687 H   0  0  0  0  0  0
  -28.4345  -13.6865   21.8510 H   0  0  0  0  0  0
  -25.2752   -9.5671   22.4758 H   0  0  0  0  0  0
  -23.9990   -7.4628   22.7467 H   0  0  0  0  0  0
  -21.0837   -8.8751   19.8956 H   0  0  0  0  0  0
  -22.3686  -10.9649   19.6155 H   0  0  0  0  0  0
  -21.2002   -7.6143   23.9710 H   0  0  0  0  0  0
  -21.1487   -6.0528   25.9076 H   0  0  0  0  0  0
  -22.0595   -2.7603   23.2872 H   0  0  0  0  0  0
  -22.4096  -11.9868   22.4809 H   0  0  0  0  0  0
  -21.1106  -13.1213   22.2623 H   0  0  0  0  0  0
  -24.6407  -15.8295   20.4752 H   0  0  0  0  0  0
  -26.2459  -15.6170   19.9975 H   0  0  0  0  0  0
  -26.7192  -32.5453   23.1119 H   0  0  0  0  0  0
  -25.0073  -33.9718   25.0426 H   0  0  0  0  0  0
  -22.7160  -31.3079   21.4013 H   0  0  0  0  0  0
  -23.3747  -35.9623   23.3306 H   0  0  0  0  0  0
  -24.3579  -36.8909   22.2060 H   0  0  0  0  0  0
  -23.7222  -37.6491   23.6661 H   0  0  0  0  0  0
  -26.0922  -31.5552   20.6041 H   0  0  0  0  0  0
  -26.8430  -30.8414   22.0000 H   0  0  0  0  0  0
  -28.1155  -28.9833   21.1855 H   0  0  0  0  0  0
  -25.9488  -25.9374   18.9982 H   0  0  0  0  0  0
  -23.9633  -27.3143   19.0163 H   0  0  0  0  0  0
  -23.7479  -30.5905   19.3998 H   0  0  0  0  0  0
  -22.7539  -29.2427   19.8647 H   0  0  0  0  0  0
  -25.1294  -36.1945   25.0829 H   0  0  0  0  0  0
  -20.9981  -28.3272   24.1391 H   0  0  0  0  0  0
  -20.5639  -26.2315   23.3613 H   0  0  0  0  0  0
  -21.6630  -26.7440   22.1205 H   0  0  0  0  0  0
  -19.6889  -25.6294   21.1250 H   0  0  0  0  0  0
  -19.6670  -27.3191   20.6732 H   0  0  0  0  0  0
  -17.4185  -26.6695   21.4034 H   0  0  0  0  0  0
  -18.0325  -26.0061   22.9008 H   0  0  0  0  0  0
  -19.7925  -30.7259   24.2317 H   0  0  0  0  0  0
  -17.5004  -31.6282   24.5152 H   0  0  0  0  0  0
  -15.5346  -30.3008   23.7633 H   0  0  0  0  0  0
  -15.8660  -28.0802   22.7137 H   0  0  0  0  0  0
  -24.5899  -30.7086   25.7758 H   0  0  0  0  0  0
  -24.8906  -32.2894   26.4882 H   0  0  0  0  0  0
  -25.8030  -30.8893   27.0219 H   0  0  0  0  0  0
  -26.2927  -29.6781   24.1220 H   0  0  0  0  0  0
  -27.4035  -29.7305   25.4714 H   0  0  0  0  0  0
  -27.8790  -30.4329   23.9427 H   0  0  0  0  0  0
  -27.2663  -33.3651   26.2063 H   0  0  0  0  0  0
  -28.3855  -32.6894   25.0318 H   0  0  0  0  0  0
  -28.0715  -31.8475   26.5418 H   0  0  0  0  0  0
  -28.2598  -38.0102   24.7528 H   0  0  0  0  0  0
  -28.1073  -36.2636   24.6279 H   0  0  0  0  0  0
  -27.2299  -37.1431   25.8872 H   0  0  0  0  0  0
  -20.9341  -29.8799   21.6901 H   0  0  0  0  0  0
  -26.0171  -38.2857   24.1418 H   0  0  0  0  0  0
  -27.6382  -19.7486   20.7071 H   0  0  0  0  0  0
  -27.7492  -17.3229   21.1176 H   0  0  0  0  0  0
  -30.0720  -20.9717   17.7321 H   0  0  0  0  0  0
  -29.4611  -22.5993   17.9429 H   0  0  0  0  0  0
  -28.3788  -21.2261   18.1300 H   0  0  0  0  0  0
  -34.1132  -19.6780   19.3793 H   0  0  0  0  0  0
  -33.1803  -18.2705   18.8938 H   0  0  0  0  0  0
  -33.5554  -18.5503   20.6099 H   0  0  0  0  0  0
  -29.7542  -24.3088   21.3580 H   0  0  0  0  0  0
  -30.0454  -24.1144   19.6608 H   0  0  0  0  0  0
  -27.2740  -24.7736   20.7967 H   0  0  0  0  0  0
  -27.7400  -24.7568   19.1103 H   0  0  0  0  0  0
  -30.7664  -21.8417   19.9375 H   0  0  0  0  0  0
  -28.9108  -15.3452   21.2113 H   0  0  0  0  0  0
  -27.9451  -22.3872   20.3763 H   0  0  0  0  0  0
  -29.0239  -22.3117   21.5755 H   0  0  0  0  0  0
  1 25  1  0  0  0
  1 30  2  0  0  0
  1 82  1  0  0  0
  2  3  1  0  0  0
  2 25  1  0  0  0
  2 85  1  0  0  0
  2 86  1  0  0  0
  3  4  1  0  0  0
  3 87  1  0  0  0
  3 88  1  0  0  0
  4  5  1  0  0  0
  4 89  1  0  0  0
  4 90  1  0  0  0
  5  6  1  0  0  0
  5 26  1  0  0  0
  5 91  1  0  0  0
  6 25  1  0  0  0
  6 92  1  0  0  0
  6 93  1  0  0  0
  7  8  2  0  0  0
  7 26  1  0  0  0
  7 29  1  0  0  0
  8  9  1  0  0  0
  8 22  1  0  0  0
  9 10  1  0  0  0
  9 27  2  0  0  0
 10 11  2  0  0  0
 10 15  1  0  0  0
 11 12  1  0  0  0
 11 94  1  0  0  0
 12 13  2  0  0  0
 12 95  1  0  0  0
 13 14  1  0  0  0
 13 31  1  0  0  0
 14 15  2  0  0  0
 14 96  1  0  0  0
 15 97  1  0  0  0
 16 17  2  0  0  0
 16 21  1  0  0  0
 16 31  1  0  0  0
 17 18  1  0  0  0
 17 98  1  0  0  0
 18 19  2  0  0  0
 18 99  1  0  0  0
 19 20  1  0  0  0
 19 24  1  0  0  0
 20 21  2  0  0  0
 20100  1  0  0  0
 21 23  1  0  0  0
 22 28  1  0  0  0
 22 32  2  0  0  0
 26 27  1  0  0  0
 28101  1  0  0  0
 28102  1  0  0  0
 29103  1  0  0  0
 29104  1  0  0  0
 33 34  1  0  0  0
 33 66  1  0  0  0
 33 70  2  0  0  0
 34 36  1  0  0  0
 34 59  1  0  0  0
 34105  1  0  0  0
 35 44  2  0  0  0
 35 45  1  0  0  0
 35 68  1  0  0  0
 36 56  1  0  0  0
 36106  1  0  0  0
 37 39  1  0  0  0
 37 47  1  0  0  0
 37 66  1  0  0  0
 37107  1  0  0  0
 38 43  2  0  0  0
 38 46  1  0  0  0
 38 47  1  0  0  0
 39 64  1  0  0  0
 39 67  2  0  0  0
 40 52  1  0  0  0
 40 53  2  0  0  0
 40 58  1  0  0  0
 41108  1  0  0  0
 41109  1  0  0  0
 41110  1  0  0  0
 41 48  1  0  0  0
 42 43  1  0  0  0
 42 66  1  0  0  0
 42111  1  0  0  0
 42112  1  0  0  0
 43 44  1  0  0  0
 44113  1  0  0  0
 45 46  2  0  0  0
 45114  1  0  0  0
 46115  1  0  0  0
 47116  1  0  0  0
 47117  1  0  0  0
 48 56  1  0  0  0
 48 65  1  0  0  0
 48118  1  0  0  0
 49 50  1  0  0  0
 49 53  1  0  0  0
 49 64  1  0  0  0
 49119  1  0  0  0
 50 51  1  0  0  0
 50120  1  0  0  0
 50121  1  0  0  0
 51 52  1  0  0  0
 51122  1  0  0  0
 51123  1  0  0  0
 52124  1  0  0  0
 52125  1  0  0  0
 53 54  1  0  0  0
 54 55  2  0  0  0
 54126  1  0  0  0
 55 57  1  0  0  0
 55127  1  0  0  0
 56 69  2  0  0  0
 57 58  2  0  0  0
 57128  1  0  0  0
 58129  1  0  0  0
 59 60  1  0  0  0
 59 61  1  0  0  0
 59 62  1  0  0  0
 60130  1  0  0  0
 60131  1  0  0  0
 60132  1  0  0  0
 61133  1  0  0  0
 61134  1  0  0  0
 61135  1  0  0  0
 62136  1  0  0  0
 62137  1  0  0  0
 62138  1  0  0  0
 63 65  1  0  0  0
 63139  1  0  0  0
 63140  1  0  0  0
 63141  1  0  0  0
 64142  1  0  0  0
 65143  1  0  0  0
 68 79  1  0  0  0
 71 72  2  0  0  0
 71 73  1  0  0  0
 71144  1  0  0  0
 72 74  1  0  0  0
 72145  1  0  0  0
 73 75  2  0  0  0
 73 80  1  0  0  0
 74 81  2  0  0  0
 74 82  1  0  0  0
 75 81  1  0  0  0
 75 84  1  0  0  0
 76146  1  0  0  0
 76147  1  0  0  0
 76148  1  0  0  0
 76 80  1  0  0  0
 77 84  1  0  0  0
 77149  1  0  0  0
 77150  1  0  0  0
 77151  1  0  0  0
 78 79  1  0  0  0
 78 83  1  0  0  0
 78152  1  0  0  0
 78153  1  0  0  0
 79154  1  0  0  0
 79155  1  0  0  0
 80 83  1  0  0  0
 80156  1  0  0  0
 82157  1  0  0  0
 83158  1  0  0  0
 83159  1  0  0  0
M  CHG  1  83   1
M  ISO  4   1 100  68 101  79 101  82 100
M  END
> <chiral flag>
0

> <version>
0

> <s_m_source_file>
/data/baiqing/PycharmProjects/Reinvent-master-3.2/result/LINK_invent/BTK/process_docking_weight1_custom_sum_contain_oxygen_bond_distance_aromatic_linkinvent_7_9_3/rearranged_h_0186.sdf

> <i_m_source_file_index>
80

> <r_mmod_Potential_Energy-OPLS-2005>
-232.022918701172

> <r_mmod_Stretch_Energy-OPLS-2005>
79.928840637207

> <r_mmod_Bend_Energy-OPLS-2005>
146.77311706543

> <r_mmod_Torsional_Energy-OPLS-2005>
204.093322753906

> <r_mmod_Improper_Torsional_Energy-OPLS-2005>
5.11939668655396

> <r_mmod_Van_der_Waal_Energy-OPLS-2005>
153.64469909668

> <r_mmod_Electrostatic_Energy-OPLS-2005>
-400.400085449219

> <r_mmod_Solvation_Energy-OPLS-2005>
-468.654052734375

> <b_mmod_Minimization_Converged-OPLS-2005>
0

> <r_mmod_RMS_Derivative-OPLS-2005>
1.43012034893036

$$$$
81
                    3D
 Structure written by MMmdl.
157166  0  0  1  0            999 V2000
  -30.6096  -14.7736   20.4469 C   0  0  0  0  0  0
  -30.4309  -12.4732   19.4735 C   0  0  0  0  0  0
  -29.5092  -12.5052   18.2353 C   0  0  0  0  0  0
  -28.0368  -12.3268   18.6530 C   0  0  0  0  0  0
  -27.6384  -13.2370   19.8462 C   0  0  2  0  0  0
  -28.6841  -13.1977   20.9801 C   0  0  0  0  0  0
  -25.2508  -13.8211   20.5716 C   0  0  0  0  0  0
  -24.1797  -13.0447   20.9204 C   0  0  0  0  0  0
  -24.6395  -11.6926   20.8744 C   0  0  0  0  0  0
  -23.9074  -10.4298   21.0404 C   0  0  0  0  0  0
  -24.3623   -9.4212   21.9182 C   0  0  0  0  0  0
  -23.6297   -8.2248   22.0753 C   0  0  0  0  0  0
  -22.4279   -8.0284   21.3544 C   0  0  0  0  0  0
  -21.9916   -9.0258   20.4646 C   0  0  0  0  0  0
  -22.7245  -10.2137   20.3055 C   0  0  0  0  0  0
  -21.6856   -6.0737   22.5279 C   0  0  0  0  0  0
  -21.4016   -6.5641   23.8212 C   0  0  0  0  0  0
  -21.3660   -5.6793   24.9174 C   0  0  0  0  0  0
  -21.6044   -4.3056   24.7225 C   0  0  0  0  0  0
  -21.8819   -3.8148   23.4346 C   0  0  0  0  0  0
  -21.9193   -4.6965   22.3402 C   0  0  0  0  0  0
  -22.7818  -13.5224   21.1865 C   0  0  0  0  0  0
  -22.1662   -4.2150   21.0980 F   0  0  0  0  0  0
  -21.5628   -3.4539   25.7737 F   0  0  0  0  0  0
  -29.9770  -13.5499   20.3847 N   0  0  0  0  0  0
  -26.2931  -12.9424   20.3286 N   0  0  0  0  0  0
  -25.9328  -11.6560   20.5753 N   0  0  0  0  0  0
  -22.0470  -12.8210   22.0423 N   0  0  0  0  0  0
  -25.4226  -15.1935   20.4174 N   0  0  0  0  0  0
  -31.8127  -14.8396   20.1765 O   0  0  0  0  0  0
  -21.6643   -6.8881   21.4241 O   0  0  0  0  0  0
  -22.3498  -14.5528   20.6714 O   0  0  0  0  0  0
  -24.6351  -31.8530   23.1968 C   0  0  0  0  0  0
  -25.9164  -32.4740   23.8321 C   0  0  1  0  0  0
  -27.2167  -27.2302   20.1154 C   0  0  0  0  0  0
  -25.5947  -33.8544   24.2240 N   0  0  0  0  0  0
  -23.4322  -30.4775   21.5415 C   0  0  2  0  0  0
  -24.8771  -28.9243   20.1077 C   0  0  0  0  0  0
  -22.7520  -29.4596   22.4898 C   0  0  0  0  0  0
  -18.0296  -28.1390   22.8483 C   0  0  0  0  0  0
  -24.1491  -36.7276   23.2641 C   0  0  0  0  0  0
  -25.9825  -30.7553   21.3820 C   0  0  0  0  0  0
  -26.0519  -29.3771   20.7190 C   0  0  0  0  0  0
  -27.2199  -28.5421   20.7142 C   0  0  0  0  0  0
  -26.0043  -26.8502   19.4915 C   0  0  0  0  0  0
  -24.8604  -27.6697   19.4857 C   0  0  0  0  0  0
  -23.6508  -29.8155   20.1568 C   0  0  0  0  0  0
  -25.4120  -36.3060   24.0322 C   0  0  1  0  0  0
  -20.5903  -28.3706   23.1258 C   0  0  2  0  0  0
  -20.6784  -26.9420   22.5405 C   0  0  0  0  0  0
  -19.5757  -26.6384   21.5211 C   0  0  0  0  0  0
  -18.1938  -26.7931   22.1625 C   0  0  0  0  0  0
  -19.1551  -28.8865   23.2865 C   0  0  0  0  0  0
  -18.9470  -30.1464   23.8886 C   0  0  0  0  0  0
  -17.6468  -30.6589   24.0562 C   0  0  0  0  0  0
  -25.9064  -34.9431   23.5084 C   0  0  0  0  0  0
  -16.5359  -29.9084   23.6333 C   0  0  0  0  0  0
  -16.7282  -28.6503   23.0355 C   0  0  0  0  0  0
  -26.4513  -31.6578   25.0726 C   0  0  0  0  0  0
  -25.3721  -31.3741   26.1436 C   0  0  0  0  0  0
  -27.0368  -30.2987   24.6247 C   0  0  0  0  0  0
  -27.6057  -32.4329   25.7506 C   0  0  0  0  0  0
  -27.5577  -37.1797   24.8467 C   0  0  0  0  0  0
  -21.4223  -29.3049   22.3643 N   0  0  0  0  0  0
  -26.4292  -37.3762   23.9404 N   0  0  0  0  0  0
  -24.7027  -31.0470   22.0959 N   0  0  0  0  0  0
  -23.4208  -28.8132   23.3004 O   0  0  0  0  0  0
  -28.3098  -26.3214   20.2055 O   0  0  0  0  0  0
  -26.5638  -34.8912   22.4655 O   0  0  0  0  0  0
  -23.5493  -32.1367   23.7246 O   0  0  0  0  0  0
  -27.9370  -22.3938   19.6357 C   0  0  0  0  0  0
  -28.6835  -23.5542   20.0371 C   0  0  0  0  0  0
  -30.2213  -21.9942   20.9641 C   0  0  0  0  0  0
  -29.4846  -20.8290   20.5212 C   0  0  0  0  0  0
  -30.0969  -17.1021   19.5365 C   0  0  0  0  0  0
  -29.7926  -16.9715   21.5363 C   0  0  0  0  0  0
  -29.3776  -18.0832   20.5100 C   0  0  0  0  0  0
  -32.7615  -22.1099   20.8390 C   0  0  0  0  0  0
  -28.3795  -25.0196   19.4336 C   0  0  0  0  0  0
  -31.5371  -21.8643   21.7297 C   0  0  1  0  0  0
  -28.3112  -21.0789   19.8702 N   0  0  0  0  0  0
  -29.8397  -23.3041   20.7175 N   0  0  0  0  0  0
  -29.8341  -15.9390   20.4531 N   0  0  0  0  0  0
  -29.9790  -19.4669   20.7104 N   0  0  0  0  0  0
  -31.5697  -22.7328   22.7453 F   0  0  0  0  0  0
  -31.4711  -12.5992   19.1687 H   0  0  0  0  0  0
  -30.3794  -11.5040   19.9720 H   0  0  0  0  0  0
  -29.7953  -11.7242   17.5295 H   0  0  0  0  0  0
  -29.6302  -13.4537   17.7094 H   0  0  0  0  0  0
  -27.9001  -11.2801   18.9271 H   0  0  0  0  0  0
  -27.3773  -12.5062   17.8032 H   0  0  0  0  0  0
  -27.6253  -14.2545   19.4543 H   0  0  0  0  0  0
  -28.7268  -12.2115   21.4443 H   0  0  0  0  0  0
  -28.4201  -13.9047   21.7686 H   0  0  0  0  0  0
  -25.2768   -9.5689   22.4758 H   0  0  0  0  0  0
  -24.0006   -7.4640   22.7473 H   0  0  0  0  0  0
  -21.0847   -8.8778   19.8952 H   0  0  0  0  0  0
  -22.3702  -10.9676   19.6164 H   0  0  0  0  0  0
  -21.2009   -7.6149   23.9716 H   0  0  0  0  0  0
  -21.1482   -6.0524   25.9077 H   0  0  0  0  0  0
  -22.0597   -2.7610   23.2846 H   0  0  0  0  0  0
  -22.4094  -11.9874   22.4810 H   0  0  0  0  0  0
  -21.1086  -13.1228   22.2632 H   0  0  0  0  0  0
  -24.6642  -15.8552   20.5417 H   0  0  0  0  0  0
  -26.2903  -15.6319   20.1336 H   0  0  0  0  0  0
  -26.7228  -32.5373   23.1055 H   0  0  0  0  0  0
  -25.0084  -33.9674   25.0380 H   0  0  0  0  0  0
  -22.7302  -31.3012   21.3965 H   0  0  0  0  0  0
  -23.3753  -35.9610   23.3306 H   0  0  0  0  0  0
  -24.3577  -36.8899   22.2054 H   0  0  0  0  0  0
  -23.7248  -37.6478   23.6668 H   0  0  0  0  0  0
  -26.1291  -31.5169   20.6149 H   0  0  0  0  0  0
  -26.8571  -30.7995   22.0195 H   0  0  0  0  0  0
  -28.1168  -28.8842   21.2113 H   0  0  0  0  0  0
  -25.8649  -25.8851   19.0360 H   0  0  0  0  0  0
  -23.9556  -27.3109   19.0144 H   0  0  0  0  0  0
  -23.7794  -30.5938   19.4037 H   0  0  0  0  0  0
  -22.7672  -29.2537   19.8486 H   0  0  0  0  0  0
  -25.1306  -36.1902   25.0815 H   0  0  0  0  0  0
  -20.9996  -28.3288   24.1378 H   0  0  0  0  0  0
  -20.5684  -26.2318   23.3614 H   0  0  0  0  0  0
  -21.6651  -26.7439   22.1198 H   0  0  0  0  0  0
  -19.6918  -25.6291   21.1248 H   0  0  0  0  0  0
  -19.6692  -27.3188   20.6736 H   0  0  0  0  0  0
  -17.4206  -26.6675   21.4030 H   0  0  0  0  0  0
  -18.0341  -26.0075   22.9025 H   0  0  0  0  0  0
  -19.7945  -30.7284   24.2251 H   0  0  0  0  0  0
  -17.5021  -31.6268   24.5165 H   0  0  0  0  0  0
  -15.5359  -30.2982   23.7663 H   0  0  0  0  0  0
  -15.8682  -28.0817   22.7076 H   0  0  0  0  0  0
  -24.5904  -30.7083   25.7761 H   0  0  0  0  0  0
  -24.8904  -32.2915   26.4830 H   0  0  0  0  0  0
  -25.8025  -30.8939   27.0233 H   0  0  0  0  0  0
  -26.2966  -29.6724   24.1254 H   0  0  0  0  0  0
  -27.4012  -29.7265   25.4789 H   0  0  0  0  0  0
  -27.8861  -30.4247   23.9528 H   0  0  0  0  0  0
  -27.2657  -33.3637   26.2057 H   0  0  0  0  0  0
  -28.3882  -32.6876   25.0346 H   0  0  0  0  0  0
  -28.0709  -31.8472   26.5445 H   0  0  0  0  0  0
  -28.2599  -38.0090   24.7501 H   0  0  0  0  0  0
  -28.1069  -36.2619   24.6311 H   0  0  0  0  0  0
  -27.2292  -37.1467   25.8870 H   0  0  0  0  0  0
  -20.9414  -29.8774   21.6847 H   0  0  0  0  0  0
  -26.0167  -38.2836   24.1397 H   0  0  0  0  0  0
  -27.0429  -22.5180   19.0422 H   0  0  0  0  0  0
  -31.1583  -17.3233   19.3983 H   0  0  0  0  0  0
  -29.6026  -17.0265   18.5670 H   0  0  0  0  0  0
  -29.0327  -16.7897   22.2975 H   0  0  0  0  0  0
  -30.7636  -17.1413   22.0081 H   0  0  0  0  0  0
  -28.2984  -18.1066   20.3459 H   0  0  0  0  0  0
  -32.7953  -21.3970   20.0150 H   0  0  0  0  0  0
  -33.6848  -22.0054   21.4086 H   0  0  0  0  0  0
  -32.7435  -23.1132   20.4131 H   0  0  0  0  0  0
  -27.5669  -24.8981   18.7263 H   0  0  0  0  0  0
  -29.2242  -25.1886   18.7656 H   0  0  0  0  0  0
  -31.6070  -20.8828   22.1972 H   0  0  0  0  0  0
  -30.9050  -19.4263   21.1197 H   0  0  0  0  0  0
  1 25  1  0  0  0
  1 30  2  0  0  0
  1 83  1  0  0  0
  2  3  1  0  0  0
  2 25  1  0  0  0
  2 86  1  0  0  0
  2 87  1  0  0  0
  3  4  1  0  0  0
  3 88  1  0  0  0
  3 89  1  0  0  0
  4  5  1  0  0  0
  4 90  1  0  0  0
  4 91  1  0  0  0
  5  6  1  0  0  0
  5 26  1  0  0  0
  5 92  1  0  0  0
  6 25  1  0  0  0
  6 93  1  0  0  0
  6 94  1  0  0  0
  7  8  2  0  0  0
  7 26  1  0  0  0
  7 29  1  0  0  0
  8  9  1  0  0  0
  8 22  1  0  0  0
  9 10  1  0  0  0
  9 27  2  0  0  0
 10 11  2  0  0  0
 10 15  1  0  0  0
 11 12  1  0  0  0
 11 95  1  0  0  0
 12 13  2  0  0  0
 12 96  1  0  0  0
 13 14  1  0  0  0
 13 31  1  0  0  0
 14 15  2  0  0  0
 14 97  1  0  0  0
 15 98  1  0  0  0
 16 17  2  0  0  0
 16 21  1  0  0  0
 16 31  1  0  0  0
 17 18  1  0  0  0
 17 99  1  0  0  0
 18 19  2  0  0  0
 18100  1  0  0  0
 19 20  1  0  0  0
 19 24  1  0  0  0
 20 21  2  0  0  0
 20101  1  0  0  0
 21 23  1  0  0  0
 22 28  1  0  0  0
 22 32  2  0  0  0
 26 27  1  0  0  0
 28102  1  0  0  0
 28103  1  0  0  0
 29104  1  0  0  0
 29105  1  0  0  0
 33 34  1  0  0  0
 33 66  1  0  0  0
 33 70  2  0  0  0
 34 36  1  0  0  0
 34 59  1  0  0  0
 34106  1  0  0  0
 35 44  2  0  0  0
 35 45  1  0  0  0
 35 68  1  0  0  0
 36 56  1  0  0  0
 36107  1  0  0  0
 37 39  1  0  0  0
 37 47  1  0  0  0
 37 66  1  0  0  0
 37108  1  0  0  0
 38 43  2  0  0  0
 38 46  1  0  0  0
 38 47  1  0  0  0
 39 64  1  0  0  0
 39 67  2  0  0  0
 40 52  1  0  0  0
 40 53  2  0  0  0
 40 58  1  0  0  0
 41109  1  0  0  0
 41110  1  0  0  0
 41111  1  0  0  0
 41 48  1  0  0  0
 42 43  1  0  0  0
 42 66  1  0  0  0
 42112  1  0  0  0
 42113  1  0  0  0
 43 44  1  0  0  0
 44114  1  0  0  0
 45 46  2  0  0  0
 45115  1  0  0  0
 46116  1  0  0  0
 47117  1  0  0  0
 47118  1  0  0  0
 48 56  1  0  0  0
 48 65  1  0  0  0
 48119  1  0  0  0
 49 50  1  0  0  0
 49 53  1  0  0  0
 49 64  1  0  0  0
 49120  1  0  0  0
 50 51  1  0  0  0
 50121  1  0  0  0
 50122  1  0  0  0
 51 52  1  0  0  0
 51123  1  0  0  0
 51124  1  0  0  0
 52125  1  0  0  0
 52126  1  0  0  0
 53 54  1  0  0  0
 54 55  2  0  0  0
 54127  1  0  0  0
 55 57  1  0  0  0
 55128  1  0  0  0
 56 69  2  0  0  0
 57 58  2  0  0  0
 57129  1  0  0  0
 58130  1  0  0  0
 59 60  1  0  0  0
 59 61  1  0  0  0
 59 62  1  0  0  0
 60131  1  0  0  0
 60132  1  0  0  0
 60133  1  0  0  0
 61134  1  0  0  0
 61135  1  0  0  0
 61136  1  0  0  0
 62137  1  0  0  0
 62138  1  0  0  0
 62139  1  0  0  0
 63 65  1  0  0  0
 63140  1  0  0  0
 63141  1  0  0  0
 63142  1  0  0  0
 64143  1  0  0  0
 65144  1  0  0  0
 68 79  1  0  0  0
 71 72  2  0  0  0
 71 81  1  0  0  0
 71145  1  0  0  0
 72 79  1  0  0  0
 72 82  1  0  0  0
 73 74  1  0  0  0
 73 80  1  0  0  0
 73 82  2  0  0  0
 74 81  2  0  0  0
 74 84  1  0  0  0
 75 77  1  0  0  0
 75 83  1  0  0  0
 75146  1  0  0  0
 75147  1  0  0  0
 76 77  1  0  0  0
 76 83  1  0  0  0
 76148  1  0  0  0
 76149  1  0  0  0
 77 84  1  0  0  0
 77150  1  0  0  0
 78151  1  0  0  0
 78152  1  0  0  0
 78153  1  0  0  0
 78 80  1  0  0  0
 79154  1  0  0  0
 79155  1  0  0  0
 80 85  1  0  0  0
 80156  1  0  0  0
 84157  1  0  0  0
M  ISO  4   1 100  68 101  79 101  83 100
M  END
> <chiral flag>
0

> <version>
0

> <s_m_source_file>
/data/baiqing/PycharmProjects/Reinvent-master-3.2/result/LINK_invent/BTK/process_docking_weight1_custom_sum_contain_oxygen_bond_distance_aromatic_linkinvent_7_9_3/rearranged_h_0186.sdf

> <i_m_source_file_index>
81

> <r_mmod_Potential_Energy-OPLS-2005>
391.217468261719

> <r_mmod_Stretch_Energy-OPLS-2005>
132.534057617188

> <r_mmod_Bend_Energy-OPLS-2005>
221.906219482422

> <r_mmod_Torsional_Energy-OPLS-2005>
255.50895690918

> <r_mmod_Improper_Torsional_Energy-OPLS-2005>
18.8644943237305

> <r_mmod_Van_der_Waal_Energy-OPLS-2005>
141.927642822266

> <r_mmod_Electrostatic_Energy-OPLS-2005>
-253.815963745117

> <r_mmod_Solvation_Energy-OPLS-2005>
-228.830764770508

> <b_mmod_Minimization_Converged-OPLS-2005>
0

> <r_mmod_RMS_Derivative-OPLS-2005>
0.104970790445805

$$$$
82
                    3D
 Structure written by MMmdl.
156165  0  0  1  0            999 V2000
  -30.7692  -14.6752   20.4129 C   0  0  0  0  0  0
  -30.4058  -12.4305   19.4298 C   0  0  0  0  0  0
  -29.4851  -12.4881   18.2014 C   0  0  0  0  0  0
  -28.0292  -12.2934   18.6561 C   0  0  0  0  0  0
  -27.6375  -13.2320   19.8275 C   0  0  2  0  0  0
  -28.7026  -13.2277   20.9524 C   0  0  0  0  0  0
  -25.2532  -13.8225   20.5671 C   0  0  0  0  0  0
  -24.1843  -13.0490   20.9221 C   0  0  0  0  0  0
  -24.6437  -11.6951   20.8809 C   0  0  0  0  0  0
  -23.9143  -10.4328   21.0452 C   0  0  0  0  0  0
  -24.3659   -9.4193   21.9213 C   0  0  0  0  0  0
  -23.6299   -8.2249   22.0765 C   0  0  0  0  0  0
  -22.4275   -8.0324   21.3562 C   0  0  0  0  0  0
  -21.9966   -9.0301   20.4636 C   0  0  0  0  0  0
  -22.7330  -10.2168   20.3062 C   0  0  0  0  0  0
  -21.6844   -6.0751   22.5286 C   0  0  0  0  0  0
  -21.4013   -6.5640   23.8228 C   0  0  0  0  0  0
  -21.3667   -5.6790   24.9185 C   0  0  0  0  0  0
  -21.6055   -4.3050   24.7221 C   0  0  0  0  0  0
  -21.8813   -3.8153   23.4337 C   0  0  0  0  0  0
  -21.9190   -4.6986   22.3396 C   0  0  0  0  0  0
  -22.7829  -13.5219   21.1859 C   0  0  0  0  0  0
  -22.1638   -4.2163   21.0975 F   0  0  0  0  0  0
  -21.5640   -3.4542   25.7731 F   0  0  0  0  0  0
  -29.9923  -13.5423   20.3157 N   0  0  0  0  0  0
  -26.2955  -12.9421   20.3253 N   0  0  0  0  0  0
  -25.9373  -11.6575   20.5807 N   0  0  0  0  0  0
  -22.0502  -12.8219   22.0411 N   0  0  0  0  0  0
  -25.4231  -15.1939   20.3931 N   0  0  0  0  0  0
  -31.9842  -14.5566   20.2573 O   0  0  0  0  0  0
  -21.6624   -6.8918   21.4259 O   0  0  0  0  0  0
  -22.3515  -14.5534   20.6711 O   0  0  0  0  0  0
  -24.6353  -31.8553   23.1956 C   0  0  0  0  0  0
  -25.9141  -32.4766   23.8321 C   0  0  1  0  0  0
  -27.2309  -27.3062   20.0778 C   0  0  0  0  0  0
  -25.5938  -33.8555   24.2244 N   0  0  0  0  0  0
  -23.4334  -30.4738   21.5461 C   0  0  2  0  0  0
  -24.8767  -28.9274   20.1255 C   0  0  0  0  0  0
  -22.7515  -29.4567   22.4978 C   0  0  0  0  0  0
  -18.0273  -28.1389   22.8507 C   0  0  0  0  0  0
  -24.1493  -36.7324   23.2625 C   0  0  0  0  0  0
  -25.9762  -30.7815   21.3633 C   0  0  0  0  0  0
  -26.0548  -29.4017   20.7183 C   0  0  0  0  0  0
  -27.2388  -28.6000   20.6869 C   0  0  0  0  0  0
  -26.0189  -26.9013   19.4629 C   0  0  0  0  0  0
  -24.8601  -27.6808   19.5000 C   0  0  0  0  0  0
  -23.6538  -29.8090   20.1662 C   0  0  0  0  0  0
  -25.4111  -36.3055   24.0301 C   0  0  1  0  0  0
  -20.5873  -28.3674   23.1324 C   0  0  2  0  0  0
  -20.6751  -26.9411   22.5436 C   0  0  0  0  0  0
  -19.5727  -26.6393   21.5237 C   0  0  0  0  0  0
  -18.1903  -26.7943   22.1615 C   0  0  0  0  0  0
  -19.1522  -28.8847   23.2898 C   0  0  0  0  0  0
  -18.9435  -30.1448   23.8907 C   0  0  0  0  0  0
  -17.6439  -30.6605   24.0567 C   0  0  0  0  0  0
  -25.9054  -34.9454   23.5071 C   0  0  0  0  0  0
  -16.5334  -29.9104   23.6338 C   0  0  0  0  0  0
  -16.7260  -28.6521   23.0374 C   0  0  0  0  0  0
  -26.4506  -31.6554   25.0697 C   0  0  0  0  0  0
  -25.3743  -31.3706   26.1433 C   0  0  0  0  0  0
  -27.0271  -30.2966   24.6089 C   0  0  0  0  0  0
  -27.6082  -32.4237   25.7507 C   0  0  0  0  0  0
  -27.5567  -37.1803   24.8451 C   0  0  0  0  0  0
  -21.4222  -29.3037   22.3736 N   0  0  0  0  0  0
  -26.4270  -37.3764   23.9405 N   0  0  0  0  0  0
  -24.7018  -31.0514   22.0955 N   0  0  0  0  0  0
  -23.4220  -28.8078   23.3039 O   0  0  0  0  0  0
  -28.3313  -26.4268   20.1061 O   0  0  0  0  0  0
  -26.5619  -34.8916   22.4631 O   0  0  0  0  0  0
  -23.5492  -32.1350   23.7245 O   0  0  0  0  0  0
  -28.9961  -23.8284   20.1181 C   0  0  0  0  0  0
  -29.3805  -21.6026   20.1678 C   0  0  0  0  0  0
  -30.8948  -23.0136   20.9434 C   0  0  0  0  0  0
  -30.6549  -18.4599   19.4523 C   0  0  0  0  0  0
  -28.4964  -17.8501   20.3274 C   0  0  0  0  0  0
  -31.2166  -17.0643   19.9025 C   0  0  0  0  0  0
  -29.0365  -16.5036   20.8990 C   0  0  0  0  0  0
  -29.5260  -19.0009   20.3471 C   0  0  0  0  0  0
  -28.0153  -25.0055   19.8092 C   0  0  0  0  0  0
  -28.5492  -22.5865   19.8335 N   0  0  0  0  0  0
  -30.1743  -24.1034   20.6657 N   0  0  0  0  0  0
  -30.5574  -21.7418   20.7329 N   0  0  0  0  0  0
  -30.2478  -15.9607   20.2446 N   0  0  0  0  0  0
  -28.9505  -20.2974   19.8942 N   0  0  0  0  0  0
  -32.4458  -23.2606   21.6542 Cl  0  0  0  0  0  0
  -31.4485  -12.4901   19.1121 H   0  0  0  0  0  0
  -30.3013  -11.4750   19.9455 H   0  0  0  0  0  0
  -29.7617  -11.7191   17.4772 H   0  0  0  0  0  0
  -29.5972  -13.4463   17.6925 H   0  0  0  0  0  0
  -27.9367  -11.2564   18.9785 H   0  0  0  0  0  0
  -27.3459  -12.4194   17.8176 H   0  0  0  0  0  0
  -27.6051  -14.2271   19.3824 H   0  0  0  0  0  0
  -28.7483  -12.2601   21.4525 H   0  0  0  0  0  0
  -28.4597  -13.9390   21.7433 H   0  0  0  0  0  0
  -25.2820   -9.5625   22.4772 H   0  0  0  0  0  0
  -23.9989   -7.4629   22.7507 H   0  0  0  0  0  0
  -21.0920   -8.8874   19.8909 H   0  0  0  0  0  0
  -22.3865  -10.9721   19.6143 H   0  0  0  0  0  0
  -21.1994   -7.6152   23.9737 H   0  0  0  0  0  0
  -21.1491   -6.0512   25.9093 H   0  0  0  0  0  0
  -22.0577   -2.7620   23.2843 H   0  0  0  0  0  0
  -22.4112  -11.9873   22.4788 H   0  0  0  0  0  0
  -21.1116  -13.1213   22.2617 H   0  0  0  0  0  0
  -24.6607  -15.8557   20.4767 H   0  0  0  0  0  0
  -26.2686  -15.6175   20.0349 H   0  0  0  0  0  0
  -26.7234  -32.5435   23.1093 H   0  0  0  0  0  0
  -25.0090  -33.9713   25.0394 H   0  0  0  0  0  0
  -22.7267  -31.2899   21.3896 H   0  0  0  0  0  0
  -23.3732  -35.9669   23.3240 H   0  0  0  0  0  0
  -24.3578  -36.9023   22.2045 H   0  0  0  0  0  0
  -23.7293  -37.6528   23.6706 H   0  0  0  0  0  0
  -26.0664  -31.5152   20.5612 H   0  0  0  0  0  0
  -26.8736  -30.8658   21.9659 H   0  0  0  0  0  0
  -28.1512  -28.9533   21.1487 H   0  0  0  0  0  0
  -25.8970  -25.9599   18.9503 H   0  0  0  0  0  0
  -23.9579  -27.2976   19.0437 H   0  0  0  0  0  0
  -23.8071  -30.5779   19.4091 H   0  0  0  0  0  0
  -22.7759  -29.2461   19.8457 H   0  0  0  0  0  0
  -25.1290  -36.1881   25.0790 H   0  0  0  0  0  0
  -20.9912  -28.3226   24.1462 H   0  0  0  0  0  0
  -20.5685  -26.2270   23.3607 H   0  0  0  0  0  0
  -21.6616  -26.7449   22.1221 H   0  0  0  0  0  0
  -19.6887  -25.6307   21.1258 H   0  0  0  0  0  0
  -19.6685  -27.3201   20.6774 H   0  0  0  0  0  0
  -17.4189  -26.6739   21.3998 H   0  0  0  0  0  0
  -18.0241  -26.0068   22.8985 H   0  0  0  0  0  0
  -19.7895  -30.7254   24.2325 H   0  0  0  0  0  0
  -17.4989  -31.6280   24.5170 H   0  0  0  0  0  0
  -15.5343  -30.3011   23.7647 H   0  0  0  0  0  0
  -15.8652  -28.0840   22.7102 H   0  0  0  0  0  0
  -24.5937  -30.7027   25.7791 H   0  0  0  0  0  0
  -24.8926  -32.2870   26.4833 H   0  0  0  0  0  0
  -25.8092  -30.8932   27.0217 H   0  0  0  0  0  0
  -26.2761  -29.6764   24.1187 H   0  0  0  0  0  0
  -27.4030  -29.7184   25.4535 H   0  0  0  0  0  0
  -27.8615  -30.4223   23.9195 H   0  0  0  0  0  0
  -27.2721  -33.3550   26.2060 H   0  0  0  0  0  0
  -28.3951  -32.6732   25.0388 H   0  0  0  0  0  0
  -28.0651  -31.8336   26.5461 H   0  0  0  0  0  0
  -28.2566  -38.0116   24.7490 H   0  0  0  0  0  0
  -28.1087  -36.2639   24.6283 H   0  0  0  0  0  0
  -27.2286  -37.1480   25.8857 H   0  0  0  0  0  0
  -20.9405  -29.8840   21.7012 H   0  0  0  0  0  0
  -26.0143  -38.2821   24.1443 H   0  0  0  0  0  0
  -30.2987  -18.3902   18.4247 H   0  0  0  0  0  0
  -31.4696  -19.1833   19.4227 H   0  0  0  0  0  0
  -27.5927  -18.1298   20.8711 H   0  0  0  0  0  0
  -28.1798  -17.6774   19.2972 H   0  0  0  0  0  0
  -31.8411  -17.2234   20.7829 H   0  0  0  0  0  0
  -31.9095  -16.7366   19.1207 H   0  0  0  0  0  0
  -28.2090  -15.8125   20.8310 H   0  0  0  0  0  0
  -29.2644  -16.6234   21.9578 H   0  0  0  0  0  0
  -29.8945  -19.1398   21.3653 H   0  0  0  0  0  0
  -27.1283  -24.7425   20.3898 H   0  0  0  0  0  0
  -27.7593  -24.9110   18.7510 H   0  0  0  0  0  0
  -28.0155  -20.2539   19.5068 H   0  0  0  0  0  0
  1 25  1  0  0  0
  1 30  2  0  0  0
  1 83  1  0  0  0
  2  3  1  0  0  0
  2 25  1  0  0  0
  2 86  1  0  0  0
  2 87  1  0  0  0
  3  4  1  0  0  0
  3 88  1  0  0  0
  3 89  1  0  0  0
  4  5  1  0  0  0
  4 90  1  0  0  0
  4 91  1  0  0  0
  5  6  1  0  0  0
  5 26  1  0  0  0
  5 92  1  0  0  0
  6 25  1  0  0  0
  6 93  1  0  0  0
  6 94  1  0  0  0
  7  8  2  0  0  0
  7 26  1  0  0  0
  7 29  1  0  0  0
  8  9  1  0  0  0
  8 22  1  0  0  0
  9 10  1  0  0  0
  9 27  2  0  0  0
 10 11  2  0  0  0
 10 15  1  0  0  0
 11 12  1  0  0  0
 11 95  1  0  0  0
 12 13  2  0  0  0
 12 96  1  0  0  0
 13 14  1  0  0  0
 13 31  1  0  0  0
 14 15  2  0  0  0
 14 97  1  0  0  0
 15 98  1  0  0  0
 16 17  2  0  0  0
 16 21  1  0  0  0
 16 31  1  0  0  0
 17 18  1  0  0  0
 17 99  1  0  0  0
 18 19  2  0  0  0
 18100  1  0  0  0
 19 20  1  0  0  0
 19 24  1  0  0  0
 20 21  2  0  0  0
 20101  1  0  0  0
 21 23  1  0  0  0
 22 28  1  0  0  0
 22 32  2  0  0  0
 26 27  1  0  0  0
 28102  1  0  0  0
 28103  1  0  0  0
 29104  1  0  0  0
 29105  1  0  0  0
 33 34  1  0  0  0
 33 66  1  0  0  0
 33 70  2  0  0  0
 34 36  1  0  0  0
 34 59  1  0  0  0
 34106  1  0  0  0
 35 44  2  0  0  0
 35 45  1  0  0  0
 35 68  1  0  0  0
 36 56  1  0  0  0
 36107  1  0  0  0
 37 39  1  0  0  0
 37 47  1  0  0  0
 37 66  1  0  0  0
 37108  1  0  0  0
 38 43  2  0  0  0
 38 46  1  0  0  0
 38 47  1  0  0  0
 39 64  1  0  0  0
 39 67  2  0  0  0
 40 52  1  0  0  0
 40 53  2  0  0  0
 40 58  1  0  0  0
 41109  1  0  0  0
 41110  1  0  0  0
 41111  1  0  0  0
 41 48  1  0  0  0
 42 43  1  0  0  0
 42 66  1  0  0  0
 42112  1  0  0  0
 42113  1  0  0  0
 43 44  1  0  0  0
 44114  1  0  0  0
 45 46  2  0  0  0
 45115  1  0  0  0
 46116  1  0  0  0
 47117  1  0  0  0
 47118  1  0  0  0
 48 56  1  0  0  0
 48 65  1  0  0  0
 48119  1  0  0  0
 49 50  1  0  0  0
 49 53  1  0  0  0
 49 64  1  0  0  0
 49120  1  0  0  0
 50 51  1  0  0  0
 50121  1  0  0  0
 50122  1  0  0  0
 51 52  1  0  0  0
 51123  1  0  0  0
 51124  1  0  0  0
 52125  1  0  0  0
 52126  1  0  0  0
 53 54  1  0  0  0
 54 55  2  0  0  0
 54127  1  0  0  0
 55 57  1  0  0  0
 55128  1  0  0  0
 56 69  2  0  0  0
 57 58  2  0  0  0
 57129  1  0  0  0
 58130  1  0  0  0
 59 60  1  0  0  0
 59 61  1  0  0  0
 59 62  1  0  0  0
 60131  1  0  0  0
 60132  1  0  0  0
 60133  1  0  0  0
 61134  1  0  0  0
 61135  1  0  0  0
 61136  1  0  0  0
 62137  1  0  0  0
 62138  1  0  0  0
 62139  1  0  0  0
 63 65  1  0  0  0
 63140  1  0  0  0
 63141  1  0  0  0
 63142  1  0  0  0
 64143  1  0  0  0
 65144  1  0  0  0
 68 79  1  0  0  0
 71 79  1  0  0  0
 71 80  2  0  0  0
 71 81  1  0  0  0
 72 80  1  0  0  0
 72 82  2  0  0  0
 72 84  1  0  0  0
 73 81  2  0  0  0
 73 82  1  0  0  0
 73 85  1  0  0  0
 74 76  1  0  0  0
 74 78  1  0  0  0
 74145  1  0  0  0
 74146  1  0  0  0
 75 77  1  0  0  0
 75 78  1  0  0  0
 75147  1  0  0  0
 75148  1  0  0  0
 76 83  1  0  0  0
 76149  1  0  0  0
 76150  1  0  0  0
 77 83  1  0  0  0
 77151  1  0  0  0
 77152  1  0  0  0
 78 84  1  0  0  0
 78153  1  0  0  0
 79154  1  0  0  0
 79155  1  0  0  0
 84156  1  0  0  0
M  ISO  4   1 100  68 101  79 101  83 100
M  END
> <chiral flag>
0

> <version>
0

> <s_m_source_file>
/data/baiqing/PycharmProjects/Reinvent-master-3.2/result/LINK_invent/BTK/process_docking_weight1_custom_sum_contain_oxygen_bond_distance_aromatic_linkinvent_7_9_3/rearranged_h_0186.sdf

> <i_m_source_file_index>
82

> <r_mmod_Potential_Energy-OPLS-2005>
-476.125213623047

> <r_mmod_Stretch_Energy-OPLS-2005>
75.9341583251953

> <r_mmod_Bend_Energy-OPLS-2005>
174.592071533203

> <r_mmod_Torsional_Energy-OPLS-2005>
287.072296142578

> <r_mmod_Improper_Torsional_Energy-OPLS-2005>
15.2896156311035

> <r_mmod_Van_der_Waal_Energy-OPLS-2005>
186.191452026367

> <r_mmod_Electrostatic_Energy-OPLS-2005>
-1071.51916503906

> <r_mmod_Solvation_Energy-OPLS-2005>
-225.769149780273

> <b_mmod_Minimization_Converged-OPLS-2005>
0

> <r_mmod_RMS_Derivative-OPLS-2005>
6.23808145523071

$$$$
83
                    3D
 Structure written by MMmdl.
151159  0  0  1  0            999 V2000
  -30.4898  -15.0463   20.4089 C   0  0  0  0  0  0
  -30.4490  -12.6598   19.4850 C   0  0  0  0  0  0
  -29.5236  -12.5336   18.2511 C   0  0  0  0  0  0
  -28.0602  -12.3034   18.6773 C   0  0  0  0  0  0
  -27.6224  -13.2492   19.8247 C   0  0  2  0  0  0
  -28.6681  -13.3174   20.9547 C   0  0  0  0  0  0
  -25.2434  -13.8205   20.5675 C   0  0  0  0  0  0
  -24.1773  -13.0427   20.9245 C   0  0  0  0  0  0
  -24.6397  -11.6914   20.8776 C   0  0  0  0  0  0
  -23.9088  -10.4287   21.0421 C   0  0  0  0  0  0
  -24.3630   -9.4195   21.9193 C   0  0  0  0  0  0
  -23.6294   -8.2239   22.0755 C   0  0  0  0  0  0
  -22.4271   -8.0288   21.3548 C   0  0  0  0  0  0
  -21.9915   -9.0269   20.4652 C   0  0  0  0  0  0
  -22.7258  -10.2142   20.3070 C   0  0  0  0  0  0
  -21.6851   -6.0739   22.5282 C   0  0  0  0  0  0
  -21.4014   -6.5640   23.8219 C   0  0  0  0  0  0
  -21.3656   -5.6791   24.9177 C   0  0  0  0  0  0
  -21.6046   -4.3055   24.7226 C   0  0  0  0  0  0
  -21.8817   -3.8145   23.4345 C   0  0  0  0  0  0
  -21.9189   -4.6965   22.3400 C   0  0  0  0  0  0
  -22.7794  -13.5202   21.1891 C   0  0  0  0  0  0
  -22.1657   -4.2154   21.0980 F   0  0  0  0  0  0
  -21.5624   -3.4538   25.7736 F   0  0  0  0  0  0
  -29.9212  -13.7684   20.3336 N   0  0  0  0  0  0
  -26.2855  -12.9438   20.3197 N   0  0  0  0  0  0
  -25.9326  -11.6570   20.5734 N   0  0  0  0  0  0
  -22.0441  -12.8208   22.0456 N   0  0  0  0  0  0
  -25.4037  -15.1937   20.4019 N   0  0  0  0  0  0
  -31.7150  -15.1084   20.2576 O   0  0  0  0  0  0
  -21.6631   -6.8887   21.4246 O   0  0  0  0  0  0
  -22.3479  -14.5499   20.6715 O   0  0  0  0  0  0
  -24.6483  -31.8374   23.1822 C   0  0  0  0  0  0
  -25.9230  -32.4656   23.8238 C   0  0  1  0  0  0
  -27.2201  -27.0702   20.1772 C   0  0  0  0  0  0
  -25.5958  -33.8465   24.2146 N   0  0  0  0  0  0
  -23.4555  -30.4528   21.5281 C   0  0  2  0  0  0
  -24.9058  -28.8563   20.1226 C   0  0  0  0  0  0
  -22.7591  -29.4506   22.4835 C   0  0  0  0  0  0
  -18.0312  -28.1403   22.8471 C   0  0  0  0  0  0
  -24.1483  -36.7231   23.2643 C   0  0  0  0  0  0
  -26.0150  -30.6901   21.3908 C   0  0  0  0  0  0
  -26.0858  -29.2914   20.7400 C   0  0  0  0  0  0
  -27.2452  -28.4190   20.7382 C   0  0  0  0  0  0
  -26.0100  -26.7383   19.5360 C   0  0  0  0  0  0
  -24.8834  -27.5951   19.5050 C   0  0  0  0  0  0
  -23.6884  -29.7717   20.1525 C   0  0  0  0  0  0
  -25.4122  -36.2999   24.0305 C   0  0  1  0  0  0
  -20.5926  -28.3729   23.1222 C   0  0  2  0  0  0
  -20.6788  -26.9425   22.5403 C   0  0  0  0  0  0
  -19.5761  -26.6378   21.5214 C   0  0  0  0  0  0
  -18.1946  -26.7937   22.1625 C   0  0  0  0  0  0
  -19.1569  -28.8885   23.2836 C   0  0  0  0  0  0
  -18.9485  -30.1482   23.8865 C   0  0  0  0  0  0
  -17.6481  -30.6595   24.0558 C   0  0  0  0  0  0
  -25.9081  -34.9384   23.5033 C   0  0  0  0  0  0
  -16.5371  -29.9087   23.6340 C   0  0  0  0  0  0
  -16.7295  -28.6507   23.0355 C   0  0  0  0  0  0
  -26.4541  -31.6564   25.0715 C   0  0  0  0  0  0
  -25.3713  -31.3796   26.1407 C   0  0  0  0  0  0
  -27.0428  -30.2948   24.6359 C   0  0  0  0  0  0
  -27.6040  -32.4370   25.7512 C   0  0  0  0  0  0
  -27.5569  -37.1768   24.8464 C   0  0  0  0  0  0
  -21.4279  -29.3042   22.3585 N   0  0  0  0  0  0
  -26.4274  -37.3726   23.9411 N   0  0  0  0  0  0
  -24.7260  -31.0174   22.0881 N   0  0  0  0  0  0
  -23.4211  -28.8061   23.3009 O   0  0  0  0  0  0
  -28.3041  -26.1061   20.1104 O   0  0  0  0  0  0
  -26.5672  -34.8893   22.4616 O   0  0  0  0  0  0
  -23.5587  -32.1277   23.7004 O   0  0  0  0  0  0
  -30.1603  -21.7163   18.9936 C   0  0  0  0  0  0
  -29.1297  -21.6765   19.9578 C   0  0  0  0  0  0
  -30.8234  -20.5134   18.6389 C   0  0  0  0  0  0
  -29.6596  -19.2092   20.1465 C   0  0  0  0  0  0
  -30.5133  -23.0177   18.2774 C   0  0  0  0  0  0
  -28.1275  -23.0296   20.0851 C   0  0  0  0  0  0
  -29.7739  -17.7439   20.9445 C   0  0  0  0  0  0
  -28.3680  -24.6280   20.6881 C   0  0  0  0  0  0
  -28.9363  -20.3697   20.5298 N   0  0  0  0  0  0
  -30.5668  -19.3118   19.1931 N   0  0  0  0  0  0
  -29.6663  -16.2220   20.4468 N   0  0  0  0  0  0
  -32.0386  -20.5165   17.4092 Cl  0  0  0  0  0  0
  -31.4715  -12.8587   19.1602 H   0  0  0  0  0  0
  -30.4862  -11.7233   20.0447 H   0  0  0  0  0  0
  -29.8564  -11.7191   17.6063 H   0  0  0  0  0  0
  -29.5904  -13.4431   17.6520 H   0  0  0  0  0  0
  -27.9743  -11.2662   19.0045 H   0  0  0  0  0  0
  -27.3933  -12.4099   17.8210 H   0  0  0  0  0  0
  -27.5690  -14.2404   19.3735 H   0  0  0  0  0  0
  -28.7891  -12.3504   21.4456 H   0  0  0  0  0  0
  -28.3541  -14.0222   21.7263 H   0  0  0  0  0  0
  -25.2782   -9.5652   22.4766 H   0  0  0  0  0  0
  -23.9990   -7.4626   22.7476 H   0  0  0  0  0  0
  -21.0845   -8.8814   19.8965 H   0  0  0  0  0  0
  -22.3735  -10.9688   19.6183 H   0  0  0  0  0  0
  -21.2017   -7.6151   23.9726 H   0  0  0  0  0  0
  -21.1473   -6.0518   25.9083 H   0  0  0  0  0  0
  -22.0597   -2.7608   23.2847 H   0  0  0  0  0  0
  -22.4049  -11.9878   22.4863 H   0  0  0  0  0  0
  -21.1064  -13.1255   22.2668 H   0  0  0  0  0  0
  -24.6150  -15.8273   20.4826 H   0  0  0  0  0  0
  -26.2155  -15.6310   19.9873 H   0  0  0  0  0  0
  -26.7289  -32.5235   23.0958 H   0  0  0  0  0  0
  -25.0093  -33.9575   25.0284 H   0  0  0  0  0  0
  -22.7604  -31.2792   21.3658 H   0  0  0  0  0  0
  -23.3754  -35.9554   23.3289 H   0  0  0  0  0  0
  -24.3557  -36.8889   22.2060 H   0  0  0  0  0  0
  -23.7232  -37.6412   23.6708 H   0  0  0  0  0  0
  -26.1800  -31.4396   20.6157 H   0  0  0  0  0  0
  -26.8806  -30.7420   22.0397 H   0  0  0  0  0  0
  -28.1553  -28.7614   21.2106 H   0  0  0  0  0  0
  -25.9285  -25.7747   19.0529 H   0  0  0  0  0  0
  -23.9836  -27.2588   19.0089 H   0  0  0  0  0  0
  -23.8371  -30.5411   19.3938 H   0  0  0  0  0  0
  -22.8013  -29.2199   19.8365 H   0  0  0  0  0  0
  -25.1312  -36.1806   25.0796 H   0  0  0  0  0  0
  -21.0018  -28.3322   24.1344 H   0  0  0  0  0  0
  -20.5679  -26.2341   23.3626 H   0  0  0  0  0  0
  -21.6651  -26.7416   22.1203 H   0  0  0  0  0  0
  -19.6918  -25.6281   21.1261 H   0  0  0  0  0  0
  -19.6699  -27.3172   20.6731 H   0  0  0  0  0  0
  -17.4208  -26.6677   21.4035 H   0  0  0  0  0  0
  -18.0349  -26.0095   22.9038 H   0  0  0  0  0  0
  -19.7962  -30.7308   24.2214 H   0  0  0  0  0  0
  -17.5035  -31.6272   24.5165 H   0  0  0  0  0  0
  -15.5370  -30.2977   23.7688 H   0  0  0  0  0  0
  -15.8697  -28.0818   22.7086 H   0  0  0  0  0  0
  -24.5853  -30.7192   25.7730 H   0  0  0  0  0  0
  -24.8964  -32.3010   26.4791 H   0  0  0  0  0  0
  -25.7976  -30.8979   27.0215 H   0  0  0  0  0  0
  -26.3078  -29.6648   24.1339 H   0  0  0  0  0  0
  -27.3985  -29.7273   25.4970 H   0  0  0  0  0  0
  -27.9004  -30.4165   23.9738 H   0  0  0  0  0  0
  -27.2590  -33.3680   26.2025 H   0  0  0  0  0  0
  -28.3890  -32.6929   25.0383 H   0  0  0  0  0  0
  -28.0677  -31.8558   26.5492 H   0  0  0  0  0  0
  -28.2564  -38.0084   24.7512 H   0  0  0  0  0  0
  -28.1083  -36.2609   24.6284 H   0  0  0  0  0  0
  -27.2288  -37.1407   25.8867 H   0  0  0  0  0  0
  -20.9506  -29.8744   21.6743 H   0  0  0  0  0  0
  -26.0126  -38.2777   24.1448 H   0  0  0  0  0  0
  -29.9533  -23.1004   17.3451 H   0  0  0  0  0  0
  -31.5765  -23.0737   18.0418 H   0  0  0  0  0  0
  -30.3005  -23.8959   18.8845 H   0  0  0  0  0  0
  -27.2735  -22.6505   20.6462 H   0  0  0  0  0  0
  -27.7172  -23.1605   19.0842 H   0  0  0  0  0  0
  -29.0321  -17.8165   21.7398 H   0  0  0  0  0  0
  -30.7263  -17.7958   21.4735 H   0  0  0  0  0  0
  -29.3632  -24.5901   21.1311 H   0  0  0  0  0  0
  -27.7216  -24.6829   21.5644 H   0  0  0  0  0  0
  -28.6980  -15.9777   20.3220 H   0  0  0  0  0  0
  1 25  1  0  0  0
  1 30  2  0  0  0
  1 81  1  0  0  0
  2  3  1  0  0  0
  2 25  1  0  0  0
  2 83  1  0  0  0
  2 84  1  0  0  0
  3  4  1  0  0  0
  3 85  1  0  0  0
  3 86  1  0  0  0
  4  5  1  0  0  0
  4 87  1  0  0  0
  4 88  1  0  0  0
  5  6  1  0  0  0
  5 26  1  0  0  0
  5 89  1  0  0  0
  6 25  1  0  0  0
  6 90  1  0  0  0
  6 91  1  0  0  0
  7  8  2  0  0  0
  7 26  1  0  0  0
  7 29  1  0  0  0
  8  9  1  0  0  0
  8 22  1  0  0  0
  9 10  1  0  0  0
  9 27  2  0  0  0
 10 11  2  0  0  0
 10 15  1  0  0  0
 11 12  1  0  0  0
 11 92  1  0  0  0
 12 13  2  0  0  0
 12 93  1  0  0  0
 13 14  1  0  0  0
 13 31  1  0  0  0
 14 15  2  0  0  0
 14 94  1  0  0  0
 15 95  1  0  0  0
 16 17  2  0  0  0
 16 21  1  0  0  0
 16 31  1  0  0  0
 17 18  1  0  0  0
 17 96  1  0  0  0
 18 19  2  0  0  0
 18 97  1  0  0  0
 19 20  1  0  0  0
 19 24  1  0  0  0
 20 21  2  0  0  0
 20 98  1  0  0  0
 21 23  1  0  0  0
 22 28  1  0  0  0
 22 32  2  0  0  0
 26 27  1  0  0  0
 28 99  1  0  0  0
 28100  1  0  0  0
 29101  1  0  0  0
 29102  1  0  0  0
 33 34  1  0  0  0
 33 66  1  0  0  0
 33 70  2  0  0  0
 34 36  1  0  0  0
 34 59  1  0  0  0
 34103  1  0  0  0
 35 44  2  0  0  0
 35 45  1  0  0  0
 35 68  1  0  0  0
 36 56  1  0  0  0
 36104  1  0  0  0
 37 39  1  0  0  0
 37 47  1  0  0  0
 37 66  1  0  0  0
 37105  1  0  0  0
 38 43  2  0  0  0
 38 46  1  0  0  0
 38 47  1  0  0  0
 39 64  1  0  0  0
 39 67  2  0  0  0
 40 52  1  0  0  0
 40 53  2  0  0  0
 40 58  1  0  0  0
 41106  1  0  0  0
 41107  1  0  0  0
 41108  1  0  0  0
 41 48  1  0  0  0
 42 43  1  0  0  0
 42 66  1  0  0  0
 42109  1  0  0  0
 42110  1  0  0  0
 43 44  1  0  0  0
 44111  1  0  0  0
 45 46  2  0  0  0
 45112  1  0  0  0
 46113  1  0  0  0
 47114  1  0  0  0
 47115  1  0  0  0
 48 56  1  0  0  0
 48 65  1  0  0  0
 48116  1  0  0  0
 49 50  1  0  0  0
 49 53  1  0  0  0
 49 64  1  0  0  0
 49117  1  0  0  0
 50 51  1  0  0  0
 50118  1  0  0  0
 50119  1  0  0  0
 51 52  1  0  0  0
 51120  1  0  0  0
 51121  1  0  0  0
 52122  1  0  0  0
 52123  1  0  0  0
 53 54  1  0  0  0
 54 55  2  0  0  0
 54124  1  0  0  0
 55 57  1  0  0  0
 55125  1  0  0  0
 56 69  2  0  0  0
 57 58  2  0  0  0
 57126  1  0  0  0
 58127  1  0  0  0
 59 60  1  0  0  0
 59 61  1  0  0  0
 59 62  1  0  0  0
 60128  1  0  0  0
 60129  1  0  0  0
 60130  1  0  0  0
 61131  1  0  0  0
 61132  1  0  0  0
 61133  1  0  0  0
 62134  1  0  0  0
 62135  1  0  0  0
 62136  1  0  0  0
 63 65  1  0  0  0
 63137  1  0  0  0
 63138  1  0  0  0
 63139  1  0  0  0
 64140  1  0  0  0
 65141  1  0  0  0
 68 78  1  0  0  0
 71 72  2  0  0  0
 71 73  1  0  0  0
 71 75  1  0  0  0
 72 76  1  0  0  0
 72 79  1  0  0  0
 73 80  2  0  0  0
 73 82  1  0  0  0
 74 77  1  0  0  0
 74 79  2  0  0  0
 74 80  1  0  0  0
 75142  1  0  0  0
 75143  1  0  0  0
 75144  1  0  0  0
 76 78  1  0  0  0
 76145  1  0  0  0
 76146  1  0  0  0
 77 81  1  0  0  0
 77147  1  0  0  0
 77148  1  0  0  0
 78149  1  0  0  0
 78150  1  0  0  0
 81151  1  0  0  0
M  ISO  4   1 100  68 101  78 101  81 100
M  END
> <chiral flag>
0

> <version>
0

> <s_m_source_file>
/data/baiqing/PycharmProjects/Reinvent-master-3.2/result/LINK_invent/BTK/process_docking_weight1_custom_sum_contain_oxygen_bond_distance_aromatic_linkinvent_7_9_3/rearranged_h_0186.sdf

> <i_m_source_file_index>
83

> <r_mmod_Potential_Energy-OPLS-2005>
210.946807861328

> <r_mmod_Stretch_Energy-OPLS-2005>
330.125732421875

> <r_mmod_Bend_Energy-OPLS-2005>
373.511840820312

> <r_mmod_Torsional_Energy-OPLS-2005>
251.728485107422

> <r_mmod_Improper_Torsional_Energy-OPLS-2005>
8.64744091033936

> <r_mmod_Van_der_Waal_Energy-OPLS-2005>
132.183975219727

> <r_mmod_Electrostatic_Energy-OPLS-2005>
-896.972229003906

> <r_mmod_Solvation_Energy-OPLS-2005>
-244.259155273438

> <b_mmod_Minimization_Converged-OPLS-2005>
0

> <r_mmod_RMS_Derivative-OPLS-2005>
1.36762595176697

$$$$
84
                    3D
 Structure written by MMmdl.
149158  0  0  1  0            999 V2000
  -30.5415  -14.9561   20.4098 C   0  0  0  0  0  0
  -30.4410  -12.5912   19.4999 C   0  0  0  0  0  0
  -29.5247  -12.5299   18.2555 C   0  0  0  0  0  0
  -28.0553  -12.3209   18.6690 C   0  0  0  0  0  0
  -27.6297  -13.2504   19.8360 C   0  0  2  0  0  0
  -28.6728  -13.2822   20.9738 C   0  0  0  0  0  0
  -25.2468  -13.8215   20.5709 C   0  0  0  0  0  0
  -24.1786  -13.0438   20.9225 C   0  0  0  0  0  0
  -24.6398  -11.6922   20.8737 C   0  0  0  0  0  0
  -23.9079  -10.4297   21.0393 C   0  0  0  0  0  0
  -24.3630   -9.4207   21.9170 C   0  0  0  0  0  0
  -23.6302   -8.2241   22.0743 C   0  0  0  0  0  0
  -22.4282   -8.0284   21.3538 C   0  0  0  0  0  0
  -21.9921   -9.0255   20.4639 C   0  0  0  0  0  0
  -22.7246  -10.2137   20.3043 C   0  0  0  0  0  0
  -21.6857   -6.0733   22.5276 C   0  0  0  0  0  0
  -21.4016   -6.5635   23.8208 C   0  0  0  0  0  0
  -21.3663   -5.6786   24.9170 C   0  0  0  0  0  0
  -21.6048   -4.3050   24.7218 C   0  0  0  0  0  0
  -21.8821   -3.8141   23.4338 C   0  0  0  0  0  0
  -21.9195   -4.6960   22.3397 C   0  0  0  0  0  0
  -22.7804  -13.5208   21.1883 C   0  0  0  0  0  0
  -22.1662   -4.2147   21.0975 F   0  0  0  0  0  0
  -21.5633   -3.4531   25.7732 F   0  0  0  0  0  0
  -29.9484  -13.6936   20.3747 N   0  0  0  0  0  0
  -26.2889  -12.9453   20.3222 N   0  0  0  0  0  0
  -25.9333  -11.6577   20.5709 N   0  0  0  0  0  0
  -22.0455  -12.8201   22.0446 N   0  0  0  0  0  0
  -25.4112  -15.1948   20.4138 N   0  0  0  0  0  0
  -31.7478  -15.0180   20.1500 O   0  0  0  0  0  0
  -21.6646   -6.8879   21.4240 O   0  0  0  0  0  0
  -22.3484  -14.5502   20.6711 O   0  0  0  0  0  0
  -24.6472  -31.8413   23.1864 C   0  0  0  0  0  0
  -25.9236  -32.4673   23.8260 C   0  0  1  0  0  0
  -27.2187  -27.1149   20.1483 C   0  0  0  0  0  0
  -25.5974  -33.8481   24.2170 N   0  0  0  0  0  0
  -23.4521  -30.4618   21.5315 C   0  0  2  0  0  0
  -24.9025  -28.8878   20.1090 C   0  0  0  0  0  0
  -22.7589  -29.4538   22.4828 C   0  0  0  0  0  0
  -18.0309  -28.1397   22.8465 C   0  0  0  0  0  0
  -24.1493  -36.7243   23.2637 C   0  0  0  0  0  0
  -26.0118  -30.7076   21.3917 C   0  0  0  0  0  0
  -26.0817  -29.3182   20.7302 C   0  0  0  0  0  0
  -27.2404  -28.4491   20.7319 C   0  0  0  0  0  0
  -26.0116  -26.7962   19.4847 C   0  0  0  0  0  0
  -24.8816  -27.6404   19.4710 C   0  0  0  0  0  0
  -23.6805  -29.7928   20.1512 C   0  0  0  0  0  0
  -25.4122  -36.3008   24.0307 C   0  0  1  0  0  0
  -20.5926  -28.3730   23.1215 C   0  0  2  0  0  0
  -20.6786  -26.9422   22.5402 C   0  0  0  0  0  0
  -19.5759  -26.6371   21.5210 C   0  0  0  0  0  0
  -18.1943  -26.7932   22.1620 C   0  0  0  0  0  0
  -19.1567  -28.8882   23.2832 C   0  0  0  0  0  0
  -18.9486  -30.1478   23.8856 C   0  0  0  0  0  0
  -17.6484  -30.6588   24.0559 C   0  0  0  0  0  0
  -25.9082  -34.9387   23.5044 C   0  0  0  0  0  0
  -16.5372  -29.9082   23.6342 C   0  0  0  0  0  0
  -16.7296  -28.6506   23.0346 C   0  0  0  0  0  0
  -26.4540  -31.6560   25.0727 C   0  0  0  0  0  0
  -25.3714  -31.3801   26.1426 C   0  0  0  0  0  0
  -27.0411  -30.2933   24.6374 C   0  0  0  0  0  0
  -27.6057  -32.4341   25.7520 C   0  0  0  0  0  0
  -27.5575  -37.1767   24.8453 C   0  0  0  0  0  0
  -21.4276  -29.3052   22.3578 N   0  0  0  0  0  0
  -26.4272  -37.3734   23.9419 N   0  0  0  0  0  0
  -24.7232  -31.0257   22.0903 N   0  0  0  0  0  0
  -23.4221  -28.8075   23.2980 O   0  0  0  0  0  0
  -28.2533  -26.1020   20.2249 O   0  0  0  0  0  0
  -26.5667  -34.8890   22.4621 O   0  0  0  0  0  0
  -23.5585  -32.1292   23.7066 O   0  0  0  0  0  0
  -28.4756  -21.8226   20.1470 C   0  0  0  0  0  0
  -30.8968  -22.3872   20.9563 C   0  0  0  0  0  0
  -29.3839  -20.6954   20.4337 C   0  0  0  0  0  0
  -28.8495  -23.2462   20.2999 C   0  0  0  0  0  0
  -29.3996  -18.3156   19.1349 C   0  0  0  0  0  0
  -29.1237  -19.0519   20.4201 C   0  0  1  0  0  0
  -30.0795  -17.6596   20.3168 C   0  0  1  0  0  0
  -27.9085  -24.5852   20.0187 C   0  0  0  0  0  0
  -30.6069  -21.0814   20.8489 N   0  0  0  0  0  0
  -30.1155  -23.4498   20.7155 N   0  0  0  0  0  0
  -29.7516  -16.1389   20.5050 N   0  0  0  0  0  0
  -31.4753  -12.7498   19.1897 H   0  0  0  0  0  0
  -30.4324  -11.6412   20.0362 H   0  0  0  0  0  0
  -29.8449  -11.7284   17.5882 H   0  0  0  0  0  0
  -29.6181  -13.4562   17.6869 H   0  0  0  0  0  0
  -27.9455  -11.2783   18.9687 H   0  0  0  0  0  0
  -27.3962  -12.4594   17.8109 H   0  0  0  0  0  0
  -27.5903  -14.2527   19.4083 H   0  0  0  0  0  0
  -28.7607  -12.3074   21.4559 H   0  0  0  0  0  0
  -28.3711  -13.9877   21.7501 H   0  0  0  0  0  0
  -25.2774   -9.5681   22.4750 H   0  0  0  0  0  0
  -24.0010   -7.4632   22.7459 H   0  0  0  0  0  0
  -21.0849   -8.8768   19.8951 H   0  0  0  0  0  0
  -22.3692  -10.9673   19.6158 H   0  0  0  0  0  0
  -21.2003   -7.6144   23.9712 H   0  0  0  0  0  0
  -21.1489   -6.0516   25.9079 H   0  0  0  0  0  0
  -22.0599   -2.7604   23.2834 H   0  0  0  0  0  0
  -22.4083  -11.9878   22.4858 H   0  0  0  0  0  0
  -21.1061  -13.1210   22.2633 H   0  0  0  0  0  0
  -24.6366  -15.8407   20.5217 H   0  0  0  0  0  0
  -26.2473  -15.6372   20.0563 H   0  0  0  0  0  0
  -26.7317  -32.5262   23.0998 H   0  0  0  0  0  0
  -25.0109  -33.9595   25.0311 H   0  0  0  0  0  0
  -22.7558  -31.2885   21.3757 H   0  0  0  0  0  0
  -23.3759  -35.9569   23.3258 H   0  0  0  0  0  0
  -24.3590  -36.8918   22.2062 H   0  0  0  0  0  0
  -23.7239  -37.6420   23.6710 H   0  0  0  0  0  0
  -26.1782  -31.4628   20.6221 H   0  0  0  0  0  0
  -26.8784  -30.7518   22.0404 H   0  0  0  0  0  0
  -28.1363  -28.7747   21.2412 H   0  0  0  0  0  0
  -25.8965  -25.8479   18.9837 H   0  0  0  0  0  0
  -23.9826  -27.3053   18.9724 H   0  0  0  0  0  0
  -23.8209  -30.5678   19.3969 H   0  0  0  0  0  0
  -22.7953  -29.2369   19.8377 H   0  0  0  0  0  0
  -25.1308  -36.1809   25.0797 H   0  0  0  0  0  0
  -21.0027  -28.3324   24.1335 H   0  0  0  0  0  0
  -20.5660  -26.2349   23.3632 H   0  0  0  0  0  0
  -21.6650  -26.7401   22.1209 H   0  0  0  0  0  0
  -19.6913  -25.6275   21.1257 H   0  0  0  0  0  0
  -19.6692  -27.3167   20.6728 H   0  0  0  0  0  0
  -17.4208  -26.6673   21.4030 H   0  0  0  0  0  0
  -18.0339  -26.0088   22.9029 H   0  0  0  0  0  0
  -19.7966  -30.7299   24.2198 H   0  0  0  0  0  0
  -17.5039  -31.6262   24.5166 H   0  0  0  0  0  0
  -15.5369  -30.2967   23.7689 H   0  0  0  0  0  0
  -15.8696  -28.0817   22.7070 H   0  0  0  0  0  0
  -24.5869  -30.7173   25.7765 H   0  0  0  0  0  0
  -24.8947  -32.3014   26.4785 H   0  0  0  0  0  0
  -25.7983  -30.9013   27.0248 H   0  0  0  0  0  0
  -26.3058  -29.6645   24.1347 H   0  0  0  0  0  0
  -27.3939  -29.7254   25.4995 H   0  0  0  0  0  0
  -27.8997  -30.4130   23.9764 H   0  0  0  0  0  0
  -27.2629  -33.3649   26.2053 H   0  0  0  0  0  0
  -28.3898  -32.6894   25.0381 H   0  0  0  0  0  0
  -28.0701  -31.8505   26.5481 H   0  0  0  0  0  0
  -28.2541  -38.0112   24.7542 H   0  0  0  0  0  0
  -28.1112  -36.2639   24.6207 H   0  0  0  0  0  0
  -27.2304  -37.1323   25.8855 H   0  0  0  0  0  0
  -20.9481  -29.8785   21.6774 H   0  0  0  0  0  0
  -26.0114  -38.2781   24.1466 H   0  0  0  0  0  0
  -27.4688  -21.5941   19.8208 H   0  0  0  0  0  0
  -31.8969  -22.6122   21.2951 H   0  0  0  0  0  0
  -30.0605  -18.7985   18.4174 H   0  0  0  0  0  0
  -28.5515  -17.8066   18.6810 H   0  0  0  0  0  0
  -28.1473  -18.8909   20.8727 H   0  0  0  0  0  0
  -31.1368  -17.8824   20.4489 H   0  0  0  0  0  0
  -26.9964  -24.4012   20.5871 H   0  0  0  0  0  0
  -27.6239  -24.4833   18.9714 H   0  0  0  0  0  0
  -28.7808  -15.9489   20.7012 H   0  0  0  0  0  0
  1 25  1  0  0  0
  1 30  2  0  0  0
  1 81  1  0  0  0
  2  3  1  0  0  0
  2 25  1  0  0  0
  2 82  1  0  0  0
  2 83  1  0  0  0
  3  4  1  0  0  0
  3 84  1  0  0  0
  3 85  1  0  0  0
  4  5  1  0  0  0
  4 86  1  0  0  0
  4 87  1  0  0  0
  5  6  1  0  0  0
  5 26  1  0  0  0
  5 88  1  0  0  0
  6 25  1  0  0  0
  6 89  1  0  0  0
  6 90  1  0  0  0
  7  8  2  0  0  0
  7 26  1  0  0  0
  7 29  1  0  0  0
  8  9  1  0  0  0
  8 22  1  0  0  0
  9 10  1  0  0  0
  9 27  2  0  0  0
 10 11  2  0  0  0
 10 15  1  0  0  0
 11 12  1  0  0  0
 11 91  1  0  0  0
 12 13  2  0  0  0
 12 92  1  0  0  0
 13 14  1  0  0  0
 13 31  1  0  0  0
 14 15  2  0  0  0
 14 93  1  0  0  0
 15 94  1  0  0  0
 16 17  2  0  0  0
 16 21  1  0  0  0
 16 31  1  0  0  0
 17 18  1  0  0  0
 17 95  1  0  0  0
 18 19  2  0  0  0
 18 96  1  0  0  0
 19 20  1  0  0  0
 19 24  1  0  0  0
 20 21  2  0  0  0
 20 97  1  0  0  0
 21 23  1  0  0  0
 22 28  1  0  0  0
 22 32  2  0  0  0
 26 27  1  0  0  0
 28 98  1  0  0  0
 28 99  1  0  0  0
 29100  1  0  0  0
 29101  1  0  0  0
 33 34  1  0  0  0
 33 66  1  0  0  0
 33 70  2  0  0  0
 34 36  1  0  0  0
 34 59  1  0  0  0
 34102  1  0  0  0
 35 44  2  0  0  0
 35 45  1  0  0  0
 35 68  1  0  0  0
 36 56  1  0  0  0
 36103  1  0  0  0
 37 39  1  0  0  0
 37 47  1  0  0  0
 37 66  1  0  0  0
 37104  1  0  0  0
 38 43  2  0  0  0
 38 46  1  0  0  0
 38 47  1  0  0  0
 39 64  1  0  0  0
 39 67  2  0  0  0
 40 52  1  0  0  0
 40 53  2  0  0  0
 40 58  1  0  0  0
 41105  1  0  0  0
 41106  1  0  0  0
 41107  1  0  0  0
 41 48  1  0  0  0
 42 43  1  0  0  0
 42 66  1  0  0  0
 42108  1  0  0  0
 42109  1  0  0  0
 43 44  1  0  0  0
 44110  1  0  0  0
 45 46  2  0  0  0
 45111  1  0  0  0
 46112  1  0  0  0
 47113  1  0  0  0
 47114  1  0  0  0
 48 56  1  0  0  0
 48 65  1  0  0  0
 48115  1  0  0  0
 49 50  1  0  0  0
 49 53  1  0  0  0
 49 64  1  0  0  0
 49116  1  0  0  0
 50 51  1  0  0  0
 50117  1  0  0  0
 50118  1  0  0  0
 51 52  1  0  0  0
 51119  1  0  0  0
 51120  1  0  0  0
 52121  1  0  0  0
 52122  1  0  0  0
 53 54  1  0  0  0
 54 55  2  0  0  0
 54123  1  0  0  0
 55 57  1  0  0  0
 55124  1  0  0  0
 56 69  2  0  0  0
 57 58  2  0  0  0
 57125  1  0  0  0
 58126  1  0  0  0
 59 60  1  0  0  0
 59 61  1  0  0  0
 59 62  1  0  0  0
 60127  1  0  0  0
 60128  1  0  0  0
 60129  1  0  0  0
 61130  1  0  0  0
 61131  1  0  0  0
 61132  1  0  0  0
 62133  1  0  0  0
 62134  1  0  0  0
 62135  1  0  0  0
 63 65  1  0  0  0
 63136  1  0  0  0
 63137  1  0  0  0
 63138  1  0  0  0
 64139  1  0  0  0
 65140  1  0  0  0
 68 78  1  0  0  0
 71 73  2  0  0  0
 71 74  1  0  0  0
 71141  1  0  0  0
 72 79  2  0  0  0
 72 80  1  0  0  0
 72142  1  0  0  0
 73 79  1  0  0  0
 73 76  1  0  0  0
 74 78  1  0  0  0
 74 80  2  0  0  0
 75 76  1  0  0  0
 75 77  1  0  0  0
 75143  1  0  0  0
 75144  1  0  0  0
 76 77  1  0  0  0
 76145  1  0  0  0
 77 81  1  0  0  0
 77146  1  0  0  0
 78147  1  0  0  0
 78148  1  0  0  0
 81149  1  0  0  0
M  ISO  4   1 100  68 101  78 101  81 100
M  END
> <chiral flag>
0

> <version>
0

> <s_m_source_file>
/data/baiqing/PycharmProjects/Reinvent-master-3.2/result/LINK_invent/BTK/process_docking_weight1_custom_sum_contain_oxygen_bond_distance_aromatic_linkinvent_7_9_3/rearranged_h_0186.sdf

> <i_m_source_file_index>
84

> <r_mmod_Potential_Energy-OPLS-2005>
162.798522949219

> <r_mmod_Stretch_Energy-OPLS-2005>
274.171051025391

> <r_mmod_Bend_Energy-OPLS-2005>
241.099594116211

> <r_mmod_Torsional_Energy-OPLS-2005>
255.028366088867

> <r_mmod_Improper_Torsional_Energy-OPLS-2005>
5.28039503097534

> <r_mmod_Van_der_Waal_Energy-OPLS-2005>
138.893981933594

> <r_mmod_Electrostatic_Energy-OPLS-2005>
-703.146057128906

> <r_mmod_Solvation_Energy-OPLS-2005>
-255.683654785156

> <b_mmod_Minimization_Converged-OPLS-2005>
0

> <r_mmod_RMS_Derivative-OPLS-2005>
1.26255524158478

$$$$
85
                    3D
 Structure written by MMmdl.
161169  0  0  1  0            999 V2000
  -30.4678  -15.2914   20.3897 C   0  0  0  0  0  0
  -30.4589  -12.8313   19.5331 C   0  0  0  0  0  0
  -29.5551  -12.5712   18.3049 C   0  0  0  0  0  0
  -28.1061  -12.2853   18.7430 C   0  0  0  0  0  0
  -27.6207  -13.2760   19.8293 C   0  0  2  0  0  0
  -28.6615  -13.4787   20.9538 C   0  0  0  0  0  0
  -25.2427  -13.8252   20.5763 C   0  0  0  0  0  0
  -24.1766  -13.0454   20.9280 C   0  0  0  0  0  0
  -24.6433  -11.6949   20.8817 C   0  0  0  0  0  0
  -23.9104  -10.4314   21.0446 C   0  0  0  0  0  0
  -24.3658   -9.4211   21.9231 C   0  0  0  0  0  0
  -23.6294   -8.2253   22.0774 C   0  0  0  0  0  0
  -22.4288   -8.0325   21.3566 C   0  0  0  0  0  0
  -21.9933   -9.0308   20.4665 C   0  0  0  0  0  0
  -22.7286  -10.2176   20.3094 C   0  0  0  0  0  0
  -21.6864   -6.0772   22.5279 C   0  0  0  0  0  0
  -21.4018   -6.5642   23.8214 C   0  0  0  0  0  0
  -21.3657   -5.6780   24.9165 C   0  0  0  0  0  0
  -21.6034   -4.3043   24.7214 C   0  0  0  0  0  0
  -21.8805   -3.8154   23.4318 C   0  0  0  0  0  0
  -21.9170   -4.6994   22.3388 C   0  0  0  0  0  0
  -22.7778  -13.5240   21.1857 C   0  0  0  0  0  0
  -22.1646   -4.2173   21.0967 F   0  0  0  0  0  0
  -21.5620   -3.4531   25.7729 F   0  0  0  0  0  0
  -29.8839  -13.9922   20.3049 N   0  0  0  0  0  0
  -26.2877  -12.9531   20.3277 N   0  0  0  0  0  0
  -25.9367  -11.6634   20.5790 N   0  0  0  0  0  0
  -22.0340  -12.8339   22.0421 N   0  0  0  0  0  0
  -25.4068  -15.1995   20.4135 N   0  0  0  0  0  0
  -31.6993  -15.2628   20.2786 O   0  0  0  0  0  0
  -21.6611   -6.8943   21.4259 O   0  0  0  0  0  0
  -22.3485  -14.5532   20.6611 O   0  0  0  0  0  0
  -24.6592  -31.8257   23.1750 C   0  0  0  0  0  0
  -25.9287  -32.4608   23.8188 C   0  0  1  0  0  0
  -27.2108  -26.9497   20.1878 C   0  0  0  0  0  0
  -25.5956  -33.8426   24.2098 N   0  0  0  0  0  0
  -23.4695  -30.4382   21.5283 C   0  0  2  0  0  0
  -24.9193  -28.8259   20.1224 C   0  0  0  0  0  0
  -22.7635  -29.4439   22.4855 C   0  0  0  0  0  0
  -18.0309  -28.1385   22.8494 C   0  0  0  0  0  0
  -24.1490  -36.7207   23.2648 C   0  0  0  0  0  0
  -26.0385  -30.6400   21.3997 C   0  0  0  0  0  0
  -26.1057  -29.2319   20.7458 C   0  0  0  0  0  0
  -27.2501  -28.3173   20.7468 C   0  0  0  0  0  0
  -25.9920  -26.6826   19.5277 C   0  0  0  0  0  0
  -24.8866  -27.5710   19.4926 C   0  0  0  0  0  0
  -23.7056  -29.7530   20.1541 C   0  0  0  0  0  0
  -25.4131  -36.2989   24.0307 C   0  0  1  0  0  0
  -20.5924  -28.3707   23.1231 C   0  0  2  0  0  0
  -20.6790  -26.9396   22.5421 C   0  0  0  0  0  0
  -19.5768  -26.6358   21.5225 C   0  0  0  0  0  0
  -18.1940  -26.7922   22.1625 C   0  0  0  0  0  0
  -19.1559  -28.8865   23.2847 C   0  0  0  0  0  0
  -18.9479  -30.1466   23.8873 C   0  0  0  0  0  0
  -17.6471  -30.6597   24.0530 C   0  0  0  0  0  0
  -25.9088  -34.9368   23.5025 C   0  0  0  0  0  0
  -16.5361  -29.9076   23.6352 C   0  0  0  0  0  0
  -16.7283  -28.6478   23.0399 C   0  0  0  0  0  0
  -26.4543  -31.6554   25.0717 C   0  0  0  0  0  0
  -25.3677  -31.3818   26.1385 C   0  0  0  0  0  0
  -27.0418  -30.2922   24.6429 C   0  0  0  0  0  0
  -27.6051  -32.4344   25.7512 C   0  0  0  0  0  0
  -27.5572  -37.1755   24.8466 C   0  0  0  0  0  0
  -21.4308  -29.3009   22.3595 N   0  0  0  0  0  0
  -26.4284  -37.3714   23.9405 N   0  0  0  0  0  0
  -24.7445  -30.9935   22.0878 N   0  0  0  0  0  0
  -23.4208  -28.8016   23.3075 O   0  0  0  0  0  0
  -28.2465  -25.8843   20.1833 O   0  0  0  0  0  0
  -26.5698  -34.8886   22.4628 O   0  0  0  0  0  0
  -23.5680  -32.1220   23.6855 O   0  0  0  0  0  0
  -31.2196  -18.4085   21.5098 C   0  0  0  0  0  0
  -31.5899  -19.8965   21.7402 C   0  0  0  0  0  0
  -30.8279  -20.2220   19.3818 C   0  0  0  0  0  0
  -29.8502  -18.2105   20.7980 C   0  0  1  0  0  0
  -29.4611  -19.7794   19.9635 C   0  0  1  0  0  0
  -28.0781  -22.5903   18.5199 C   0  0  0  0  0  0
  -27.6276  -20.9317   21.2361 C   0  0  0  0  0  0
  -28.0926  -24.2880   20.5438 C   0  0  0  0  0  0
  -28.7512  -22.7422   19.8983 C   0  0  1  0  0  0
  -29.7172  -16.5778   20.3923 N   0  0  0  0  0  0
  -28.8710  -21.2183   20.5318 N   0  0  0  0  0  0
  -31.7479  -20.6429   20.4692 N   0  3  0  0  0  0
  -31.4766  -13.0445   19.2018 H   0  0  0  0  0  0
  -30.5396  -11.9452   20.1650 H   0  0  0  0  0  0
  -29.9507  -11.7421   17.7142 H   0  0  0  0  0  0
  -29.5729  -13.4486   17.6579 H   0  0  0  0  0  0
  -28.0803  -11.2753   19.1557 H   0  0  0  0  0  0
  -27.4330  -12.2827   17.8848 H   0  0  0  0  0  0
  -27.5266  -14.2341   19.3166 H   0  0  0  0  0  0
  -28.8452  -12.5573   21.5079 H   0  0  0  0  0  0
  -28.3093  -14.2076   21.6856 H   0  0  0  0  0  0
  -25.2792   -9.5654   22.4797 H   0  0  0  0  0  0
  -23.9984   -7.4639   22.7489 H   0  0  0  0  0  0
  -21.0861   -8.8850   19.8985 H   0  0  0  0  0  0
  -22.3758  -10.9730   19.6193 H   0  0  0  0  0  0
  -21.2046   -7.6148   23.9740 H   0  0  0  0  0  0
  -21.1483   -6.0500   25.9071 H   0  0  0  0  0  0
  -22.0597   -2.7620   23.2785 H   0  0  0  0  0  0
  -22.3880  -12.0032   22.4945 H   0  0  0  0  0  0
  -21.0965  -13.1480   22.2505 H   0  0  0  0  0  0
  -24.6359  -15.8530   20.5097 H   0  0  0  0  0  0
  -26.2490  -15.6286   20.0537 H   0  0  0  0  0  0
  -26.7355  -32.5143   23.0895 H   0  0  0  0  0  0
  -25.0022  -33.9508   25.0188 H   0  0  0  0  0  0
  -22.7816  -31.2697   21.3614 H   0  0  0  0  0  0
  -23.3771  -35.9517   23.3296 H   0  0  0  0  0  0
  -24.3561  -36.8862   22.2065 H   0  0  0  0  0  0
  -23.7218  -37.6386   23.6700 H   0  0  0  0  0  0
  -26.2127  -31.3832   20.6201 H   0  0  0  0  0  0
  -26.9017  -30.6973   22.0513 H   0  0  0  0  0  0
  -28.1581  -28.6328   21.2421 H   0  0  0  0  0  0
  -25.8726  -25.7239   19.0424 H   0  0  0  0  0  0
  -23.9813  -27.2562   18.9893 H   0  0  0  0  0  0
  -23.8563  -30.5212   19.3948 H   0  0  0  0  0  0
  -22.8140  -29.2066   19.8424 H   0  0  0  0  0  0
  -25.1323  -36.1807   25.0801 H   0  0  0  0  0  0
  -20.9998  -28.3295   24.1356 H   0  0  0  0  0  0
  -20.5685  -26.2298   23.3636 H   0  0  0  0  0  0
  -21.6654  -26.7405   22.1207 H   0  0  0  0  0  0
  -19.6921  -25.6259   21.1274 H   0  0  0  0  0  0
  -19.6719  -27.3151   20.6744 H   0  0  0  0  0  0
  -17.4216  -26.6683   21.4021 H   0  0  0  0  0  0
  -18.0323  -26.0060   22.9021 H   0  0  0  0  0  0
  -19.7950  -30.7278   24.2243 H   0  0  0  0  0  0
  -17.5027  -31.6293   24.5099 H   0  0  0  0  0  0
  -15.5352  -30.2962   23.7697 H   0  0  0  0  0  0
  -15.8682  -28.0762   22.7183 H   0  0  0  0  0  0
  -24.5819  -30.7215   25.7694 H   0  0  0  0  0  0
  -24.8907  -32.3037   26.4734 H   0  0  0  0  0  0
  -25.7898  -30.9014   27.0222 H   0  0  0  0  0  0
  -26.3078  -29.6622   24.1393 H   0  0  0  0  0  0
  -27.3915  -29.7267   25.5076 H   0  0  0  0  0  0
  -27.9041  -30.4113   23.9859 H   0  0  0  0  0  0
  -27.2637  -33.3678   26.1999 H   0  0  0  0  0  0
  -28.3914  -32.6847   25.0378 H   0  0  0  0  0  0
  -28.0664  -31.8525   26.5504 H   0  0  0  0  0  0
  -28.2591  -38.0051   24.7505 H   0  0  0  0  0  0
  -28.1061  -36.2574   24.6304 H   0  0  0  0  0  0
  -27.2281  -37.1436   25.8868 H   0  0  0  0  0  0
  -20.9544  -29.8664   21.6704 H   0  0  0  0  0  0
  -26.0148  -38.2778   24.1408 H   0  0  0  0  0  0
  -31.2007  -17.8960   22.4728 H   0  0  0  0  0  0
  -32.0287  -17.9449   20.9438 H   0  0  0  0  0  0
  -32.5074  -19.9890   22.3245 H   0  0  0  0  0  0
  -30.8157  -20.3881   22.3337 H   0  0  0  0  0  0
  -30.7314  -21.0300   18.6563 H   0  0  0  0  0  0
  -31.2876  -19.3884   18.8485 H   0  0  0  0  0  0
  -29.1230  -18.2433   21.6083 H   0  0  0  0  0  0
  -28.8003  -19.5121   19.1376 H   0  0  0  0  0  0
  -28.3326  -23.4364   17.8767 H   0  0  0  0  0  0
  -26.9914  -22.5830   18.6114 H   0  0  0  0  0  0
  -28.3714  -21.6861   17.9879 H   0  0  0  0  0  0
  -26.7691  -20.9746   20.5623 H   0  0  0  0  0  0
  -27.4783  -21.6538   22.0386 H   0  0  0  0  0  0
  -27.6419  -19.9431   21.6996 H   0  0  0  0  0  0
  -28.4474  -24.2843   21.5754 H   0  0  0  0  0  0
  -27.0195  -24.1293   20.6550 H   0  0  0  0  0  0
  -29.7959  -22.9872   19.7103 H   0  0  0  0  0  0
  -28.7450  -16.3661   20.2180 H   0  0  0  0  0  0
  -32.7025  -20.5875   20.1468 H   0  0  0  0  0  0
  -31.5609  -21.6124   20.6697 H   0  0  0  0  0  0
  1 25  1  0  0  0
  1 30  2  0  0  0
  1 80  1  0  0  0
  2  3  1  0  0  0
  2 25  1  0  0  0
  2 83  1  0  0  0
  2 84  1  0  0  0
  3  4  1  0  0  0
  3 85  1  0  0  0
  3 86  1  0  0  0
  4  5  1  0  0  0
  4 87  1  0  0  0
  4 88  1  0  0  0
  5  6  1  0  0  0
  5 26  1  0  0  0
  5 89  1  0  0  0
  6 25  1  0  0  0
  6 90  1  0  0  0
  6 91  1  0  0  0
  7  8  2  0  0  0
  7 26  1  0  0  0
  7 29  1  0  0  0
  8  9  1  0  0  0
  8 22  1  0  0  0
  9 10  1  0  0  0
  9 27  2  0  0  0
 10 11  2  0  0  0
 10 15  1  0  0  0
 11 12  1  0  0  0
 11 92  1  0  0  0
 12 13  2  0  0  0
 12 93  1  0  0  0
 13 14  1  0  0  0
 13 31  1  0  0  0
 14 15  2  0  0  0
 14 94  1  0  0  0
 15 95  1  0  0  0
 16 17  2  0  0  0
 16 21  1  0  0  0
 16 31  1  0  0  0
 17 18  1  0  0  0
 17 96  1  0  0  0
 18 19  2  0  0  0
 18 97  1  0  0  0
 19 20  1  0  0  0
 19 24  1  0  0  0
 20 21  2  0  0  0
 20 98  1  0  0  0
 21 23  1  0  0  0
 22 28  1  0  0  0
 22 32  2  0  0  0
 26 27  1  0  0  0
 28 99  1  0  0  0
 28100  1  0  0  0
 29101  1  0  0  0
 29102  1  0  0  0
 33 34  1  0  0  0
 33 66  1  0  0  0
 33 70  2  0  0  0
 34 36  1  0  0  0
 34 59  1  0  0  0
 34103  1  0  0  0
 35 44  2  0  0  0
 35 45  1  0  0  0
 35 68  1  0  0  0
 36 56  1  0  0  0
 36104  1  0  0  0
 37 39  1  0  0  0
 37 47  1  0  0  0
 37 66  1  0  0  0
 37105  1  0  0  0
 38 43  2  0  0  0
 38 46  1  0  0  0
 38 47  1  0  0  0
 39 64  1  0  0  0
 39 67  2  0  0  0
 40 52  1  0  0  0
 40 53  2  0  0  0
 40 58  1  0  0  0
 41106  1  0  0  0
 41107  1  0  0  0
 41108  1  0  0  0
 41 48  1  0  0  0
 42 43  1  0  0  0
 42 66  1  0  0  0
 42109  1  0  0  0
 42110  1  0  0  0
 43 44  1  0  0  0
 44111  1  0  0  0
 45 46  2  0  0  0
 45112  1  0  0  0
 46113  1  0  0  0
 47114  1  0  0  0
 47115  1  0  0  0
 48 56  1  0  0  0
 48 65  1  0  0  0
 48116  1  0  0  0
 49 50  1  0  0  0
 49 53  1  0  0  0
 49 64  1  0  0  0
 49117  1  0  0  0
 50 51  1  0  0  0
 50118  1  0  0  0
 50119  1  0  0  0
 51 52  1  0  0  0
 51120  1  0  0  0
 51121  1  0  0  0
 52122  1  0  0  0
 52123  1  0  0  0
 53 54  1  0  0  0
 54 55  2  0  0  0
 54124  1  0  0  0
 55 57  1  0  0  0
 55125  1  0  0  0
 56 69  2  0  0  0
 57 58  2  0  0  0
 57126  1  0  0  0
 58127  1  0  0  0
 59 60  1  0  0  0
 59 61  1  0  0  0
 59 62  1  0  0  0
 60128  1  0  0  0
 60129  1  0  0  0
 60130  1  0  0  0
 61131  1  0  0  0
 61132  1  0  0  0
 61133  1  0  0  0
 62134  1  0  0  0
 62135  1  0  0  0
 62136  1  0  0  0
 63 65  1  0  0  0
 63137  1  0  0  0
 63138  1  0  0  0
 63139  1  0  0  0
 64140  1  0  0  0
 65141  1  0  0  0
 68 78  1  0  0  0
 71 72  1  0  0  0
 71 74  1  0  0  0
 71142  1  0  0  0
 71143  1  0  0  0
 72 82  1  0  0  0
 72144  1  0  0  0
 72145  1  0  0  0
 73 75  1  0  0  0
 73 82  1  0  0  0
 73146  1  0  0  0
 73147  1  0  0  0
 74 75  1  0  0  0
 74 80  1  0  0  0
 74148  1  0  0  0
 75 81  1  0  0  0
 75149  1  0  0  0
 76150  1  0  0  0
 76151  1  0  0  0
 76152  1  0  0  0
 76 79  1  0  0  0
 77 81  1  0  0  0
 77153  1  0  0  0
 77154  1  0  0  0
 77155  1  0  0  0
 78 79  1  0  0  0
 78156  1  0  0  0
 78157  1  0  0  0
 79 81  1  0  0  0
 79158  1  0  0  0
 80159  1  0  0  0
 82160  1  0  0  0
 82161  1  0  0  0
M  CHG  1  82   1
M  ISO  4   1 100  68 101  78 101  80 100
M  END
> <chiral flag>
0

> <version>
0

> <s_m_source_file>
/data/baiqing/PycharmProjects/Reinvent-master-3.2/result/LINK_invent/BTK/process_docking_weight1_custom_sum_contain_oxygen_bond_distance_aromatic_linkinvent_7_9_3/rearranged_h_0186.sdf

> <i_m_source_file_index>
85

> <r_mmod_Potential_Energy-OPLS-2005>
1187.79479980469

> <r_mmod_Stretch_Energy-OPLS-2005>
625.365234375

> <r_mmod_Bend_Energy-OPLS-2005>
490.412048339844

> <r_mmod_Torsional_Energy-OPLS-2005>
282.042877197266

> <r_mmod_Improper_Torsional_Energy-OPLS-2005>
4.6843318939209

> <r_mmod_Van_der_Waal_Energy-OPLS-2005>
116.060035705566

> <r_mmod_Electrostatic_Energy-OPLS-2005>
-328.820770263672

> <r_mmod_Solvation_Energy-OPLS-2005>
-455.623748779297

> <b_mmod_Minimization_Converged-OPLS-2005>
0

> <r_mmod_RMS_Derivative-OPLS-2005>
5.12634897232056

$$$$
86
                    3D
 Structure written by MMmdl.
154163  0  0  1  0            999 V2000
  -30.7644  -14.8008   20.6300 C   0  0  0  0  0  0
  -30.4550  -12.9963   19.1178 C   0  0  0  0  0  0
  -29.3329  -12.8561   18.1021 C   0  0  0  0  0  0
  -27.9726  -12.4130   18.6226 C   0  0  0  0  0  0
  -27.6145  -13.2973   19.8410 C   0  0  2  0  0  0
  -28.7012  -13.2826   20.9564 C   0  0  0  0  0  0
  -25.2470  -13.7286   20.5329 C   0  0  0  0  0  0
  -24.2112  -12.9551   20.8844 C   0  0  0  0  0  0
  -24.6763  -11.5963   20.7895 C   0  0  0  0  0  0
  -23.9450  -10.3553   21.0507 C   0  0  0  0  0  0
  -24.3601   -9.3441   21.9634 C   0  0  0  0  0  0
  -23.6133   -8.1547   22.0851 C   0  0  0  0  0  0
  -22.4210   -7.9944   21.3487 C   0  0  0  0  0  0
  -21.9910   -9.0071   20.4813 C   0  0  0  0  0  0
  -22.7321  -10.1886   20.3414 C   0  0  0  0  0  0
  -21.6558   -6.0542   22.5132 C   0  0  0  0  0  0
  -21.3957   -6.5583   23.8093 C   0  0  0  0  0  0
  -21.3637   -5.6832   24.9099 C   0  0  0  0  0  0
  -21.5951   -4.3060   24.7199 C   0  0  0  0  0  0
  -21.8851   -3.8061   23.4387 C   0  0  0  0  0  0
  -21.9070   -4.6759   22.3340 C   0  0  0  0  0  0
  -22.8226  -13.4539   21.2163 C   0  0  0  0  0  0
  -22.1552   -4.2002   21.0920 F   0  0  0  0  0  0
  -21.5576   -3.4527   25.7760 F   0  0  0  0  0  0
  -29.9887  -13.7097   20.3231 N   0  0  0  0  0  0
  -26.3044  -12.8991   20.2635 N   0  0  0  0  0  0
  -25.9566  -11.5826   20.3918 N   0  0  0  0  0  0
  -22.0915  -12.8097   22.0930 N   0  0  0  0  0  0
  -25.4099  -15.1079   20.4017 N   0  0  0  0  0  0
  -31.9729  -14.6672   20.5042 O   0  0  0  0  0  0
  -21.6471   -6.8636   21.4119 O   0  0  0  0  0  0
  -22.3802  -14.4866   20.7041 O   0  0  0  0  0  0
  -24.6249  -31.8515   23.1875 C   0  0  0  0  0  0
  -25.9065  -32.4766   23.8286 C   0  0  1  0  0  0
  -27.3062  -27.2505   20.2296 C   0  0  0  0  0  0
  -25.5886  -33.8554   24.2232 N   0  0  0  0  0  0
  -23.4327  -30.4527   21.5328 C   0  0  2  0  0  0
  -24.9049  -28.8834   20.1442 C   0  0  0  0  0  0
  -22.7503  -29.4495   22.4918 C   0  0  0  0  0  0
  -18.0264  -28.1456   22.8455 C   0  0  0  0  0  0
  -24.1485  -36.7236   23.2663 C   0  0  0  0  0  0
  -25.9735  -30.7711   21.3661 C   0  0  0  0  0  0
  -26.0722  -29.3770   20.7435 C   0  0  0  0  0  0
  -27.2661  -28.5849   20.7538 C   0  0  0  0  0  0
  -26.1121  -26.8107   19.6035 C   0  0  0  0  0  0
  -24.9384  -27.6102   19.5428 C   0  0  0  0  0  0
  -23.6605  -29.7512   20.1696 C   0  0  0  0  0  0
  -25.4137  -36.3057   24.0332 C   0  0  1  0  0  0
  -20.5858  -28.3669   23.1304 C   0  0  2  0  0  0
  -20.6783  -26.9396   22.5444 C   0  0  0  0  0  0
  -19.5786  -26.6405   21.5244 C   0  0  0  0  0  0
  -18.1931  -26.7985   22.1608 C   0  0  0  0  0  0
  -19.1529  -28.8900   23.2865 C   0  0  0  0  0  0
  -18.9456  -30.1506   23.8857 C   0  0  0  0  0  0
  -17.6475  -30.6631   24.0549 C   0  0  0  0  0  0
  -25.9073  -34.9441   23.5071 C   0  0  0  0  0  0
  -16.5343  -29.9130   23.6378 C   0  0  0  0  0  0
  -16.7250  -28.6576   23.0329 C   0  0  0  0  0  0
  -26.4502  -31.6591   25.0642 C   0  0  0  0  0  0
  -25.3754  -31.3725   26.1346 C   0  0  0  0  0  0
  -27.0430  -30.3036   24.6184 C   0  0  0  0  0  0
  -27.6059  -32.4342   25.7424 C   0  0  0  0  0  0
  -27.5583  -37.1770   24.8476 C   0  0  0  0  0  0
  -21.4248  -29.2982   22.3725 N   0  0  0  0  0  0
  -26.4315  -37.3750   23.9406 N   0  0  0  0  0  0
  -24.6951  -31.0435   22.0860 N   0  0  0  0  0  0
  -23.4188  -28.8095   23.3107 O   0  0  0  0  0  0
  -28.5182  -26.5135   20.0875 O   0  0  0  0  0  0
  -26.5668  -34.8943   22.4703 O   0  0  0  0  0  0
  -23.5369  -32.1295   23.7215 O   0  0  0  0  0  0
  -28.1460  -21.3541   19.3756 C   0  0  0  0  0  0
  -27.5753  -22.5602   18.9082 C   0  0  0  0  0  0
  -29.2073  -21.4445   20.3106 C   0  0  0  0  0  0
  -28.8445  -23.8290   20.3150 C   0  0  0  0  0  0
  -30.9307  -18.2095   19.6962 C   0  0  0  0  0  0
  -29.7346  -18.8357   20.1708 C   0  0  1  0  0  0
  -30.1563  -17.3527   20.7396 C   0  0  1  0  0  0
  -26.4976  -22.6351   17.8391 C   0  0  0  0  0  0
  -29.0136  -25.3156   20.8627 C   0  0  0  0  0  0
  -27.9175  -23.7479   19.3741 N   0  0  0  0  0  0
  -29.5313  -22.7177   20.7696 N   0  0  0  0  0  0
  -29.9105  -20.2320   20.7280 N   0  0  0  0  0  0
  -30.3233  -16.0070   20.1287 N   0  0  0  0  0  0
  -30.9853  -13.7372   18.4903 H   0  0  0  0  0  0
  -31.2813  -12.3008   19.2586 H   0  0  0  0  0  0
  -29.6207  -12.5133   17.1227 H   0  0  0  0  0  0
  -29.0879  -13.9121   17.9426 H   0  0  0  0  0  0
  -27.9890  -11.3381   18.7785 H   0  0  0  0  0  0
  -27.1808  -12.5918   17.8896 H   0  0  0  0  0  0
  -27.5278  -14.3669   19.5815 H   0  0  0  0  0  0
  -28.7836  -12.2644   21.3369 H   0  0  0  0  0  0
  -28.4007  -13.9396   21.7963 H   0  0  0  0  0  0
  -25.2447   -9.4458   22.5841 H   0  0  0  0  0  0
  -23.9439   -7.3390   22.7130 H   0  0  0  0  0  0
  -21.0945   -8.8641   19.8915 H   0  0  0  0  0  0
  -22.3704  -10.9752   19.6907 H   0  0  0  0  0  0
  -21.2164   -7.6121   23.9525 H   0  0  0  0  0  0
  -21.1480   -6.0637   25.9013 H   0  0  0  0  0  0
  -22.0762   -2.7543   23.2807 H   0  0  0  0  0  0
  -22.4253  -11.9856   22.5689 H   0  0  0  0  0  0
  -21.1360  -13.1000   22.2444 H   0  0  0  0  0  0
  -24.6186  -15.7156   20.5183 H   0  0  0  0  0  0
  -26.2452  -15.5378   20.0075 H   0  0  0  0  0  0
  -26.7122  -32.5352   23.1034 H   0  0  0  0  0  0
  -24.9937  -33.9720   25.0297 H   0  0  0  0  0  0
  -22.7270  -31.2670   21.3574 H   0  0  0  0  0  0
  -23.3725  -35.9575   23.3381 H   0  0  0  0  0  0
  -24.3538  -36.8772   22.2047 H   0  0  0  0  0  0
  -23.7239  -37.6487   23.6607 H   0  0  0  0  0  0
  -26.1045  -31.5161   20.5766 H   0  0  0  0  0  0
  -26.8607  -30.8500   21.9921 H   0  0  0  0  0  0
  -28.1812  -28.9843   21.1720 H   0  0  0  0  0  0
  -26.0505  -25.8314   19.1388 H   0  0  0  0  0  0
  -24.0714  -27.2218   19.0413 H   0  0  0  0  0  0
  -23.7655  -30.4872   19.3703 H   0  0  0  0  0  0
  -22.7846  -29.1560   19.8790 H   0  0  0  0  0  0
  -25.1308  -36.1982   25.0814 H   0  0  0  0  0  0
  -20.9925  -28.3323   24.1452 H   0  0  0  0  0  0
  -20.5777  -26.2260   23.3646 H   0  0  0  0  0  0
  -21.6646  -26.7535   22.1207 H   0  0  0  0  0  0
  -19.6977  -25.6334   21.1271 H   0  0  0  0  0  0
  -19.6803  -27.3214   20.6785 H   0  0  0  0  0  0
  -17.4231  -26.6680   21.3970 H   0  0  0  0  0  0
  -18.0323  -26.0146   22.9023 H   0  0  0  0  0  0
  -19.7912  -30.7325   24.2197 H   0  0  0  0  0  0
  -17.5009  -31.6287   24.5185 H   0  0  0  0  0  0
  -15.5341  -30.3037   23.7754 H   0  0  0  0  0  0
  -15.8604  -28.0920   22.7070 H   0  0  0  0  0  0
  -24.5882  -30.7190   25.7581 H   0  0  0  0  0  0
  -24.8980  -32.2855   26.4851 H   0  0  0  0  0  0
  -25.7985  -30.8755   27.0074 H   0  0  0  0  0  0
  -26.2977  -29.6598   24.1475 H   0  0  0  0  0  0
  -27.4405  -29.7523   25.4714 H   0  0  0  0  0  0
  -27.8693  -30.4277   23.9201 H   0  0  0  0  0  0
  -27.2674  -33.3599   26.2110 H   0  0  0  0  0  0
  -28.3807  -32.7029   25.0224 H   0  0  0  0  0  0
  -28.0845  -31.8443   26.5244 H   0  0  0  0  0  0
  -28.2636  -38.0055   24.7537 H   0  0  0  0  0  0
  -28.1076  -36.2567   24.6306 H   0  0  0  0  0  0
  -27.2268  -37.1411   25.8890 H   0  0  0  0  0  0
  -20.9528  -29.8454   21.6652 H   0  0  0  0  0  0
  -26.0191  -38.2834   24.1443 H   0  0  0  0  0  0
  -27.7661  -20.4137   18.9848 H   0  0  0  0  0  0
  -31.9136  -18.5834   19.9820 H   0  0  0  0  0  0
  -30.8320  -17.9860   18.6310 H   0  0  0  0  0  0
  -28.8833  -18.7776   19.4786 H   0  0  0  0  0  0
  -29.0976  -17.1972   20.9884 H   0  0  0  0  0  0
  -26.2615  -21.6894   17.3578 H   0  0  0  0  0  0
  -26.8067  -23.3862   17.1002 H   0  0  0  0  0  0
  -25.5925  -23.0454   18.3016 H   0  0  0  0  0  0
  -30.1028  -25.4485   20.8695 H   0  0  0  0  0  0
  -28.7024  -25.3216   21.9157 H   0  0  0  0  0  0
  -30.7583  -20.3713   21.2916 H   0  0  0  0  0  0
  -30.9838  -16.1254   19.3548 H   0  0  0  0  0  0
  1 25  1  0  0  0
  1 30  2  0  0  0
  1 83  1  0  0  0
  2  3  1  0  0  0
  2 25  1  0  0  0
  2 84  1  0  0  0
  2 85  1  0  0  0
  3  4  1  0  0  0
  3 86  1  0  0  0
  3 87  1  0  0  0
  4  5  1  0  0  0
  4 88  1  0  0  0
  4 89  1  0  0  0
  5  6  1  0  0  0
  5 26  1  0  0  0
  5 90  1  0  0  0
  6 25  1  0  0  0
  6 91  1  0  0  0
  6 92  1  0  0  0
  7  8  2  0  0  0
  7 26  1  0  0  0
  7 29  1  0  0  0
  8  9  1  0  0  0
  8 22  1  0  0  0
  9 10  1  0  0  0
  9 27  2  0  0  0
 10 11  2  0  0  0
 10 15  1  0  0  0
 11 12  1  0  0  0
 11 93  1  0  0  0
 12 13  2  0  0  0
 12 94  1  0  0  0
 13 14  1  0  0  0
 13 31  1  0  0  0
 14 15  2  0  0  0
 14 95  1  0  0  0
 15 96  1  0  0  0
 16 17  2  0  0  0
 16 21  1  0  0  0
 16 31  1  0  0  0
 17 18  1  0  0  0
 17 97  1  0  0  0
 18 19  2  0  0  0
 18 98  1  0  0  0
 19 20  1  0  0  0
 19 24  1  0  0  0
 20 21  2  0  0  0
 20 99  1  0  0  0
 21 23  1  0  0  0
 22 28  1  0  0  0
 22 32  2  0  0  0
 26 27  1  0  0  0
 28100  1  0  0  0
 28101  1  0  0  0
 29102  1  0  0  0
 29103  1  0  0  0
 33 34  1  0  0  0
 33 66  1  0  0  0
 33 70  2  0  0  0
 34 36  1  0  0  0
 34 59  1  0  0  0
 34104  1  0  0  0
 35 44  2  0  0  0
 35 45  1  0  0  0
 35 68  1  0  0  0
 36 56  1  0  0  0
 36105  1  0  0  0
 37 39  1  0  0  0
 37 47  1  0  0  0
 37 66  1  0  0  0
 37106  1  0  0  0
 38 43  2  0  0  0
 38 46  1  0  0  0
 38 47  1  0  0  0
 39 64  1  0  0  0
 39 67  2  0  0  0
 40 52  1  0  0  0
 40 53  2  0  0  0
 40 58  1  0  0  0
 41107  1  0  0  0
 41108  1  0  0  0
 41109  1  0  0  0
 41 48  1  0  0  0
 42 43  1  0  0  0
 42 66  1  0  0  0
 42110  1  0  0  0
 42111  1  0  0  0
 43 44  1  0  0  0
 44112  1  0  0  0
 45 46  2  0  0  0
 45113  1  0  0  0
 46114  1  0  0  0
 47115  1  0  0  0
 47116  1  0  0  0
 48 56  1  0  0  0
 48 65  1  0  0  0
 48117  1  0  0  0
 49 50  1  0  0  0
 49 53  1  0  0  0
 49 64  1  0  0  0
 49118  1  0  0  0
 50 51  1  0  0  0
 50119  1  0  0  0
 50120  1  0  0  0
 51 52  1  0  0  0
 51121  1  0  0  0
 51122  1  0  0  0
 52123  1  0  0  0
 52124  1  0  0  0
 53 54  1  0  0  0
 54 55  2  0  0  0
 54125  1  0  0  0
 55 57  1  0  0  0
 55126  1  0  0  0
 56 69  2  0  0  0
 57 58  2  0  0  0
 57127  1  0  0  0
 58128  1  0  0  0
 59 60  1  0  0  0
 59 61  1  0  0  0
 59 62  1  0  0  0
 60129  1  0  0  0
 60130  1  0  0  0
 60131  1  0  0  0
 61132  1  0  0  0
 61133  1  0  0  0
 61134  1  0  0  0
 62135  1  0  0  0
 62136  1  0  0  0
 62137  1  0  0  0
 63 65  1  0  0  0
 63138  1  0  0  0
 63139  1  0  0  0
 63140  1  0  0  0
 64141  1  0  0  0
 65142  1  0  0  0
 68 79  1  0  0  0
 71 72  2  0  0  0
 71 73  1  0  0  0
 71143  1  0  0  0
 72 78  1  0  0  0
 72 80  1  0  0  0
 73 81  2  0  0  0
 73 82  1  0  0  0
 74 79  1  0  0  0
 74 80  2  0  0  0
 74 81  1  0  0  0
 75 76  1  0  0  0
 75 77  1  0  0  0
 75144  1  0  0  0
 75145  1  0  0  0
 76 77  1  0  0  0
 76 82  1  0  0  0
 76146  1  0  0  0
 77 83  1  0  0  0
 77147  1  0  0  0
 78148  1  0  0  0
 78149  1  0  0  0
 78150  1  0  0  0
 79151  1  0  0  0
 79152  1  0  0  0
 82153  1  0  0  0
 83154  1  0  0  0
M  ISO  4   1 100  68 101  79 101  83 100
M  END
> <chiral flag>
0

> <version>
0

> <s_m_source_file>
/data/baiqing/PycharmProjects/Reinvent-master-3.2/result/LINK_invent/BTK/process_docking_weight1_custom_sum_contain_oxygen_bond_distance_aromatic_linkinvent_7_9_3/rearranged_h_0186.sdf

> <i_m_source_file_index>
86

> <r_mmod_Potential_Energy-OPLS-2005>
276.717926025391

> <r_mmod_Stretch_Energy-OPLS-2005>
150.855255126953

> <r_mmod_Bend_Energy-OPLS-2005>
468.805633544922

> <r_mmod_Torsional_Energy-OPLS-2005>
365.795135498047

> <r_mmod_Improper_Torsional_Energy-OPLS-2005>
50.6435508728027

> <r_mmod_Van_der_Waal_Energy-OPLS-2005>
158.950790405273

> <r_mmod_Electrostatic_Energy-OPLS-2005>
-893.287475585938

> <r_mmod_Solvation_Energy-OPLS-2005>
-232.762313842773

> <b_mmod_Minimization_Converged-OPLS-2005>
0

> <r_mmod_RMS_Derivative-OPLS-2005>
40.5079574584961

$$$$
87
                    3D
 Structure written by MMmdl.
156164  0  0  1  0            999 V2000
  -30.5177  -15.1477   20.3896 C   0  0  0  0  0  0
  -30.4076  -12.7366   19.4980 C   0  0  0  0  0  0
  -29.4969  -12.5300   18.2653 C   0  0  0  0  0  0
  -28.0554  -12.2585   18.7195 C   0  0  0  0  0  0
  -27.5958  -13.2588   19.8082 C   0  0  2  0  0  0
  -28.6302  -13.4416   20.9376 C   0  0  0  0  0  0
  -25.2315  -13.8228   20.5684 C   0  0  0  0  0  0
  -24.1642  -13.0442   20.9209 C   0  0  0  0  0  0
  -24.6281  -11.6941   20.8750 C   0  0  0  0  0  0
  -23.8983  -10.4291   21.0421 C   0  0  0  0  0  0
  -24.3555   -9.4230   21.9203 C   0  0  0  0  0  0
  -23.6248   -8.2252   22.0784 C   0  0  0  0  0  0
  -22.4253   -8.0259   21.3565 C   0  0  0  0  0  0
  -21.9858   -9.0212   20.4655 C   0  0  0  0  0  0
  -22.7155  -10.2108   20.3068 C   0  0  0  0  0  0
  -21.6857   -6.0706   22.5266 C   0  0  0  0  0  0
  -21.4009   -6.5617   23.8192 C   0  0  0  0  0  0
  -21.3666   -5.6790   24.9158 C   0  0  0  0  0  0
  -21.6053   -4.3038   24.7219 C   0  0  0  0  0  0
  -21.8814   -3.8125   23.4343 C   0  0  0  0  0  0
  -21.9175   -4.6933   22.3387 C   0  0  0  0  0  0
  -22.7674  -13.5225   21.1885 C   0  0  0  0  0  0
  -22.1648   -4.2111   21.0968 F   0  0  0  0  0  0
  -21.5643   -3.4541   25.7734 F   0  0  0  0  0  0
  -29.8748  -13.8941   20.2990 N   0  0  0  0  0  0
  -26.2707  -12.9463   20.3186 N   0  0  0  0  0  0
  -25.9207  -11.6595   20.5744 N   0  0  0  0  0  0
  -22.0334  -12.8220   22.0452 N   0  0  0  0  0  0
  -25.4069  -15.1946   20.4104 N   0  0  0  0  0  0
  -31.7461  -15.0761   20.2507 O   0  0  0  0  0  0
  -21.6646   -6.8846   21.4231 O   0  0  0  0  0  0
  -22.3371  -14.5553   20.6733 O   0  0  0  0  0  0
  -24.6572  -31.8274   23.1751 C   0  0  0  0  0  0
  -25.9300  -32.4585   23.8142 C   0  0  1  0  0  0
  -27.2064  -26.9955   20.1886 C   0  0  0  0  0  0
  -25.6031  -33.8403   24.2077 N   0  0  0  0  0  0
  -23.4616  -30.4441   21.5241 C   0  0  2  0  0  0
  -24.9106  -28.8349   20.1203 C   0  0  0  0  0  0
  -22.7592  -29.4470   22.4830 C   0  0  0  0  0  0
  -18.0314  -28.1408   22.8434 C   0  0  0  0  0  0
  -24.1501  -36.7168   23.2659 C   0  0  0  0  0  0
  -26.0279  -30.6550   21.3925 C   0  0  0  0  0  0
  -26.0916  -29.2494   20.7464 C   0  0  0  0  0  0
  -27.2381  -28.3489   20.7575 C   0  0  0  0  0  0
  -25.9999  -26.7035   19.5244 C   0  0  0  0  0  0
  -24.8807  -27.5773   19.4963 C   0  0  0  0  0  0
  -23.6941  -29.7588   20.1506 C   0  0  0  0  0  0
  -25.4129  -36.2915   24.0314 C   0  0  1  0  0  0
  -20.5931  -28.3710   23.1209 C   0  0  2  0  0  0
  -20.6808  -26.9408   22.5376 C   0  0  0  0  0  0
  -19.5797  -26.6354   21.5193 C   0  0  0  0  0  0
  -18.1961  -26.7961   22.1570 C   0  0  0  0  0  0
  -19.1572  -28.8884   23.2805 C   0  0  0  0  0  0
  -18.9513  -30.1496   23.8801 C   0  0  0  0  0  0
  -17.6500  -30.6579   24.0573 C   0  0  0  0  0  0
  -25.9098  -34.9325   23.4985 C   0  0  0  0  0  0
  -16.5396  -29.9079   23.6359 C   0  0  0  0  0  0
  -16.7295  -28.6524   23.0307 C   0  0  0  0  0  0
  -26.4589  -31.6520   25.0628 C   0  0  0  0  0  0
  -25.3772  -31.3759   26.1324 C   0  0  0  0  0  0
  -27.0487  -30.2898   24.6287 C   0  0  0  0  0  0
  -27.6079  -32.4336   25.7436 C   0  0  0  0  0  0
  -27.5544  -37.1702   24.8477 C   0  0  0  0  0  0
  -21.4284  -29.3031   22.3562 N   0  0  0  0  0  0
  -26.4237  -37.3658   23.9455 N   0  0  0  0  0  0
  -24.7367  -31.0002   22.0861 N   0  0  0  0  0  0
  -23.4191  -28.8018   23.3014 O   0  0  0  0  0  0
  -28.2590  -25.9674   20.1528 O   0  0  0  0  0  0
  -26.5657  -34.8888   22.4548 O   0  0  0  0  0  0
  -23.5647  -32.1242   23.6891 O   0  0  0  0  0  0
  -30.3384  -19.1948   21.2109 C   0  0  0  0  0  0
  -28.8819  -18.8803   19.4209 C   0  0  0  0  0  0
  -30.4456  -17.5682   21.4765 C   0  0  0  0  0  0
  -28.8567  -17.2317   19.7012 C   0  0  0  0  0  0
  -29.0621  -19.9685   20.6022 C   0  0  0  0  0  0
  -27.9820  -22.8672   18.5046 C   0  0  0  0  0  0
  -28.2145  -24.4423   20.6873 C   0  0  0  0  0  0
  -28.2108  -22.8042   20.0266 C   0  0  2  0  0  0
  -29.8896  -16.4773   20.5566 N   0  0  0  0  0  0
  -29.2542  -21.5883   20.3676 N   0  3  0  0  0  0
  -31.4309  -12.9093   19.1614 H   0  0  0  0  0  0
  -30.4440  -11.8317   20.1066 H   0  0  0  0  0  0
  -29.8568  -11.6993   17.6570 H   0  0  0  0  0  0
  -29.5173  -13.4138   17.6284 H   0  0  0  0  0  0
  -28.0301  -11.2455   19.1285 H   0  0  0  0  0  0
  -27.3676  -12.2580   17.8730 H   0  0  0  0  0  0
  -27.5125  -14.2141   19.2904 H   0  0  0  0  0  0
  -28.7712  -12.5240   21.5087 H   0  0  0  0  0  0
  -28.2762  -14.1983   21.6382 H   0  0  0  0  0  0
  -25.2693   -9.5735   22.4779 H   0  0  0  0  0  0
  -23.9942   -7.4684   22.7546 H   0  0  0  0  0  0
  -21.0782   -8.8684   19.8983 H   0  0  0  0  0  0
  -22.3565  -10.9626   19.6163 H   0  0  0  0  0  0
  -21.2002   -7.6132   23.9667 H   0  0  0  0  0  0
  -21.1514   -6.0532   25.9056 H   0  0  0  0  0  0
  -22.0587   -2.7584   23.2846 H   0  0  0  0  0  0
  -22.3922  -11.9802   22.4736 H   0  0  0  0  0  0
  -21.1009  -13.1346   22.2801 H   0  0  0  0  0  0
  -24.6508  -15.8629   20.5210 H   0  0  0  0  0  0
  -26.2736  -15.6237   20.1147 H   0  0  0  0  0  0
  -26.7352  -32.5126   23.0823 H   0  0  0  0  0  0
  -25.0292  -33.9515   25.0308 H   0  0  0  0  0  0
  -22.7719  -31.2749   21.3530 H   0  0  0  0  0  0
  -23.3774  -35.9479   23.3242 H   0  0  0  0  0  0
  -24.3595  -36.8856   22.2086 H   0  0  0  0  0  0
  -23.7235  -37.6333   23.6750 H   0  0  0  0  0  0
  -26.1954  -31.3954   20.6084 H   0  0  0  0  0  0
  -26.8996  -30.7107   22.0328 H   0  0  0  0  0  0
  -28.1390  -28.6647   21.2642 H   0  0  0  0  0  0
  -25.9027  -25.7493   19.0282 H   0  0  0  0  0  0
  -23.9760  -27.2419   19.0093 H   0  0  0  0  0  0
  -23.8499  -30.5283   19.3940 H   0  0  0  0  0  0
  -22.8040  -29.2136   19.8274 H   0  0  0  0  0  0
  -25.1303  -36.1671   25.0793 H   0  0  0  0  0  0
  -20.9998  -28.3297   24.1336 H   0  0  0  0  0  0
  -20.5725  -26.2303   23.3576 H   0  0  0  0  0  0
  -21.6664  -26.7410   22.1157 H   0  0  0  0  0  0
  -19.6992  -25.6263   21.1211 H   0  0  0  0  0  0
  -19.6795  -27.3169   20.6746 H   0  0  0  0  0  0
  -17.4231  -26.6673   21.3966 H   0  0  0  0  0  0
  -18.0357  -26.0135   22.8989 H   0  0  0  0  0  0
  -19.8020  -30.7321   24.2063 H   0  0  0  0  0  0
  -17.5110  -31.6267   24.5175 H   0  0  0  0  0  0
  -15.5419  -30.2967   23.7809 H   0  0  0  0  0  0
  -15.8679  -28.0886   22.7026 H   0  0  0  0  0  0
  -24.6032  -30.6985   25.7680 H   0  0  0  0  0  0
  -24.8920  -32.2992   26.4510 H   0  0  0  0  0  0
  -25.8097  -30.9122   27.0220 H   0  0  0  0  0  0
  -26.3141  -29.6544   24.1304 H   0  0  0  0  0  0
  -27.4143  -29.7194   25.4849 H   0  0  0  0  0  0
  -27.9015  -30.4092   23.9587 H   0  0  0  0  0  0
  -27.2644  -33.3750   26.1722 H   0  0  0  0  0  0
  -28.4037  -32.6685   25.0355 H   0  0  0  0  0  0
  -28.0567  -31.8646   26.5579 H   0  0  0  0  0  0
  -28.2449  -38.0084   24.7512 H   0  0  0  0  0  0
  -28.1103  -36.2579   24.6254 H   0  0  0  0  0  0
  -27.2278  -37.1294   25.8880 H   0  0  0  0  0  0
  -20.9504  -29.8709   21.6700 H   0  0  0  0  0  0
  -26.0043  -38.2676   24.1545 H   0  0  0  0  0  0
  -31.1874  -19.4464   20.5712 H   0  0  0  0  0  0
  -30.5854  -19.6827   22.1558 H   0  0  0  0  0  0
  -27.9614  -19.1270   18.8850 H   0  0  0  0  0  0
  -29.6681  -19.0630   18.6856 H   0  0  0  0  0  0
  -30.0140  -17.3779   22.4590 H   0  0  0  0  0  0
  -31.5086  -17.3519   21.6270 H   0  0  0  0  0  0
  -28.8231  -16.7339   18.7291 H   0  0  0  0  0  0
  -27.8845  -17.0080   20.1453 H   0  0  0  0  0  0
  -28.2270  -19.8576   21.2994 H   0  0  0  0  0  0
  -27.1547  -23.5299   18.2398 H   0  0  0  0  0  0
  -27.7493  -21.8818   18.1011 H   0  0  0  0  0  0
  -28.8713  -23.2234   17.9852 H   0  0  0  0  0  0
  -29.0490  -24.4249   21.3852 H   0  0  0  0  0  0
  -27.3512  -24.4628   21.3550 H   0  0  0  0  0  0
  -27.2844  -22.3946   20.4357 H   0  0  0  0  0  0
  -29.9980  -21.6745   19.6932 H   0  0  0  0  0  0
  -29.6810  -21.8861   21.2332 H   0  0  0  0  0  0
  1 25  1  0  0  0
  1 30  2  0  0  0
  1 79  1  0  0  0
  2  3  1  0  0  0
  2 25  1  0  0  0
  2 81  1  0  0  0
  2 82  1  0  0  0
  3  4  1  0  0  0
  3 83  1  0  0  0
  3 84  1  0  0  0
  4  5  1  0  0  0
  4 85  1  0  0  0
  4 86  1  0  0  0
  5  6  1  0  0  0
  5 26  1  0  0  0
  5 87  1  0  0  0
  6 25  1  0  0  0
  6 88  1  0  0  0
  6 89  1  0  0  0
  7  8  2  0  0  0
  7 26  1  0  0  0
  7 29  1  0  0  0
  8  9  1  0  0  0
  8 22  1  0  0  0
  9 10  1  0  0  0
  9 27  2  0  0  0
 10 11  2  0  0  0
 10 15  1  0  0  0
 11 12  1  0  0  0
 11 90  1  0  0  0
 12 13  2  0  0  0
 12 91  1  0  0  0
 13 14  1  0  0  0
 13 31  1  0  0  0
 14 15  2  0  0  0
 14 92  1  0  0  0
 15 93  1  0  0  0
 16 17  2  0  0  0
 16 21  1  0  0  0
 16 31  1  0  0  0
 17 18  1  0  0  0
 17 94  1  0  0  0
 18 19  2  0  0  0
 18 95  1  0  0  0
 19 20  1  0  0  0
 19 24  1  0  0  0
 20 21  2  0  0  0
 20 96  1  0  0  0
 21 23  1  0  0  0
 22 28  1  0  0  0
 22 32  2  0  0  0
 26 27  1  0  0  0
 28 97  1  0  0  0
 28 98  1  0  0  0
 29 99  1  0  0  0
 29100  1  0  0  0
 33 34  1  0  0  0
 33 66  1  0  0  0
 33 70  2  0  0  0
 34 36  1  0  0  0
 34 59  1  0  0  0
 34101  1  0  0  0
 35 44  2  0  0  0
 35 45  1  0  0  0
 35 68  1  0  0  0
 36 56  1  0  0  0
 36102  1  0  0  0
 37 39  1  0  0  0
 37 47  1  0  0  0
 37 66  1  0  0  0
 37103  1  0  0  0
 38 43  2  0  0  0
 38 46  1  0  0  0
 38 47  1  0  0  0
 39 64  1  0  0  0
 39 67  2  0  0  0
 40 52  1  0  0  0
 40 53  2  0  0  0
 40 58  1  0  0  0
 41104  1  0  0  0
 41105  1  0  0  0
 41106  1  0  0  0
 41 48  1  0  0  0
 42 43  1  0  0  0
 42 66  1  0  0  0
 42107  1  0  0  0
 42108  1  0  0  0
 43 44  1  0  0  0
 44109  1  0  0  0
 45 46  2  0  0  0
 45110  1  0  0  0
 46111  1  0  0  0
 47112  1  0  0  0
 47113  1  0  0  0
 48 56  1  0  0  0
 48 65  1  0  0  0
 48114  1  0  0  0
 49 50  1  0  0  0
 49 53  1  0  0  0
 49 64  1  0  0  0
 49115  1  0  0  0
 50 51  1  0  0  0
 50116  1  0  0  0
 50117  1  0  0  0
 51 52  1  0  0  0
 51118  1  0  0  0
 51119  1  0  0  0
 52120  1  0  0  0
 52121  1  0  0  0
 53 54  1  0  0  0
 54 55  2  0  0  0
 54122  1  0  0  0
 55 57  1  0  0  0
 55123  1  0  0  0
 56 69  2  0  0  0
 57 58  2  0  0  0
 57124  1  0  0  0
 58125  1  0  0  0
 59 60  1  0  0  0
 59 61  1  0  0  0
 59 62  1  0  0  0
 60126  1  0  0  0
 60127  1  0  0  0
 60128  1  0  0  0
 61129  1  0  0  0
 61130  1  0  0  0
 61131  1  0  0  0
 62132  1  0  0  0
 62133  1  0  0  0
 62134  1  0  0  0
 63 65  1  0  0  0
 63135  1  0  0  0
 63136  1  0  0  0
 63137  1  0  0  0
 64138  1  0  0  0
 65139  1  0  0  0
 68 77  1  0  0  0
 71 73  1  0  0  0
 71 75  1  0  0  0
 71140  1  0  0  0
 71141  1  0  0  0
 72 74  1  0  0  0
 72 75  1  0  0  0
 72142  1  0  0  0
 72143  1  0  0  0
 73 79  1  0  0  0
 73144  1  0  0  0
 73145  1  0  0  0
 74 79  1  0  0  0
 74146  1  0  0  0
 74147  1  0  0  0
 75 80  1  0  0  0
 75148  1  0  0  0
 76149  1  0  0  0
 76150  1  0  0  0
 76151  1  0  0  0
 76 78  1  0  0  0
 77 78  1  0  0  0
 77152  1  0  0  0
 77153  1  0  0  0
 78 80  1  0  0  0
 78154  1  0  0  0
 80155  1  0  0  0
 80156  1  0  0  0
M  CHG  1  80   1
M  ISO  4   1 100  68 101  77 101  79 100
M  END
> <chiral flag>
0

> <version>
0

> <s_m_source_file>
/data/baiqing/PycharmProjects/Reinvent-master-3.2/result/LINK_invent/BTK/process_docking_weight1_custom_sum_contain_oxygen_bond_distance_aromatic_linkinvent_7_9_3/rearranged_h_0186.sdf

> <i_m_source_file_index>
87

> <r_mmod_Potential_Energy-OPLS-2005>
1131.88854980469

> <r_mmod_Stretch_Energy-OPLS-2005>
419.270568847656

> <r_mmod_Bend_Energy-OPLS-2005>
467.118896484375

> <r_mmod_Torsional_Energy-OPLS-2005>
373.301818847656

> <r_mmod_Improper_Torsional_Energy-OPLS-2005>
2.43572068214417

> <r_mmod_Van_der_Waal_Energy-OPLS-2005>
106.383857727051

> <r_mmod_Electrostatic_Energy-OPLS-2005>
-139.653289794922

> <r_mmod_Solvation_Energy-OPLS-2005>
-445.873596191406

> <b_mmod_Minimization_Converged-OPLS-2005>
0

> <r_mmod_RMS_Derivative-OPLS-2005>
5.65110397338867

$$$$
88
                    3D
 Structure written by MMmdl.
157166  0  0  1  0            999 V2000
  -30.4873  -15.0219   20.4031 C   0  0  0  0  0  0
  -30.4394  -12.6334   19.5016 C   0  0  0  0  0  0
  -29.5189  -12.5267   18.2603 C   0  0  0  0  0  0
  -28.0617  -12.2857   18.6922 C   0  0  0  0  0  0
  -27.6277  -13.2366   19.8377 C   0  0  2  0  0  0
  -28.6680  -13.2900   20.9773 C   0  0  0  0  0  0
  -25.2459  -13.8184   20.5689 C   0  0  0  0  0  0
  -24.1763  -13.0424   20.9230 C   0  0  0  0  0  0
  -24.6357  -11.6902   20.8768 C   0  0  0  0  0  0
  -23.9043  -10.4279   21.0413 C   0  0  0  0  0  0
  -24.3603   -9.4205   21.9187 C   0  0  0  0  0  0
  -23.6288   -8.2237   22.0754 C   0  0  0  0  0  0
  -22.4269   -8.0264   21.3536 C   0  0  0  0  0  0
  -21.9904   -9.0237   20.4640 C   0  0  0  0  0  0
  -22.7221  -10.2125   20.3048 C   0  0  0  0  0  0
  -21.6858   -6.0713   22.5272 C   0  0  0  0  0  0
  -21.4012   -6.5636   23.8206 C   0  0  0  0  0  0
  -21.3655   -5.6792   24.9186 C   0  0  0  0  0  0
  -21.6046   -4.3049   24.7241 C   0  0  0  0  0  0
  -21.8826   -3.8139   23.4360 C   0  0  0  0  0  0
  -21.9195   -4.6944   22.3425 C   0  0  0  0  0  0
  -22.7786  -13.5220   21.1896 C   0  0  0  0  0  0
  -22.1665   -4.2115   21.0988 F   0  0  0  0  0  0
  -21.5634   -3.4549   25.7768 F   0  0  0  0  0  0
  -29.9257  -13.7373   20.3706 N   0  0  0  0  0  0
  -26.2859  -12.9383   20.3249 N   0  0  0  0  0  0
  -25.9282  -11.6528   20.5758 N   0  0  0  0  0  0
  -22.0453  -12.8179   22.0435 N   0  0  0  0  0  0
  -25.4206  -15.1906   20.4065 N   0  0  0  0  0  0
  -31.6902  -15.0909   20.1162 O   0  0  0  0  0  0
  -21.6639   -6.8853   21.4232 O   0  0  0  0  0  0
  -22.3477  -14.5540   20.6768 O   0  0  0  0  0  0
  -24.6523  -31.8411   23.1761 C   0  0  0  0  0  0
  -25.9287  -32.4697   23.8170 C   0  0  1  0  0  0
  -27.2136  -27.0767   20.1846 C   0  0  0  0  0  0
  -25.6048  -33.8483   24.2179 N   0  0  0  0  0  0
  -23.4550  -30.4534   21.5289 C   0  0  2  0  0  0
  -24.9010  -28.8586   20.1209 C   0  0  0  0  0  0
  -22.7613  -29.4533   22.4898 C   0  0  0  0  0  0
  -18.0323  -28.1444   22.8502 C   0  0  0  0  0  0
  -24.1469  -36.7175   23.2609 C   0  0  0  0  0  0
  -26.0082  -30.6971   21.3810 C   0  0  0  0  0  0
  -26.0804  -29.2949   20.7426 C   0  0  0  0  0  0
  -27.2352  -28.4191   20.7582 C   0  0  0  0  0  0
  -26.0131  -26.7526   19.5199 C   0  0  0  0  0  0
  -24.8839  -27.6013   19.4946 C   0  0  0  0  0  0
  -23.6821  -29.7655   20.1549 C   0  0  0  0  0  0
  -25.4108  -36.3028   24.0317 C   0  0  1  0  0  0
  -20.5927  -28.3743   23.1233 C   0  0  2  0  0  0
  -20.6791  -26.9437   22.5388 C   0  0  0  0  0  0
  -19.5750  -26.6433   21.5211 C   0  0  0  0  0  0
  -18.1948  -26.7986   22.1641 C   0  0  0  0  0  0
  -19.1574  -28.8917   23.2856 C   0  0  0  0  0  0
  -18.9500  -30.1532   23.8840 C   0  0  0  0  0  0
  -17.6487  -30.6616   24.0581 C   0  0  0  0  0  0
  -25.9086  -34.9402   23.5046 C   0  0  0  0  0  0
  -16.5384  -29.9097   23.6363 C   0  0  0  0  0  0
  -16.7293  -28.6534   23.0343 C   0  0  0  0  0  0
  -26.4578  -31.6559   25.0598 C   0  0  0  0  0  0
  -25.3735  -31.3819   26.1295 C   0  0  0  0  0  0
  -27.0445  -30.2976   24.6138 C   0  0  0  0  0  0
  -27.6143  -32.4263   25.7406 C   0  0  0  0  0  0
  -27.5607  -37.1684   24.8423 C   0  0  0  0  0  0
  -21.4300  -29.3031   22.3604 N   0  0  0  0  0  0
  -26.4234  -37.3786   23.9530 N   0  0  0  0  0  0
  -24.7248  -31.0211   22.0843 N   0  0  0  0  0  0
  -23.4208  -28.8102   23.3082 O   0  0  0  0  0  0
  -28.2822  -26.0958   20.1711 O   0  0  0  0  0  0
  -26.5618  -34.8885   22.4582 O   0  0  0  0  0  0
  -23.5639  -32.1326   23.6951 O   0  0  0  0  0  0
  -28.9442  -23.5498   19.7916 C   0  0  0  0  0  0
  -28.2208  -24.6476   20.3687 C   0  0  0  0  0  0
  -27.7636  -22.6522   21.3633 C   0  0  0  0  0  0
  -29.8626  -18.5940   21.6536 C   0  0  0  0  0  0
  -29.0422  -19.1976   20.5402 C   0  0  2  0  0  0
  -29.9713  -17.7587   20.3919 C   0  0  2  0  0  0
  -29.9368  -23.6653   18.6640 C   0  0  0  0  0  0
  -25.9844  -22.2559   23.2095 C   0  0  0  0  0  0
  -27.2065  -21.7180   22.4147 C   0  0  0  0  0  0
  -29.3422  -20.8044   20.0555 C   0  0  0  0  0  0
  -27.4840  -23.9892   21.3689 N   0  0  0  0  0  0
  -28.6651  -22.2384   20.4084 N   0  0  0  0  0  0
  -29.6870  -16.2101   20.5728 N   0  0  0  0  0  0
  -31.4683  -12.8051   19.1837 H   0  0  0  0  0  0
  -30.4539  -11.6889   20.0508 H   0  0  0  0  0  0
  -29.8551  -11.7165   17.6118 H   0  0  0  0  0  0
  -29.5797  -13.4427   17.6672 H   0  0  0  0  0  0
  -27.9934  -11.2517   19.0338 H   0  0  0  0  0  0
  -27.3854  -12.3732   17.8397 H   0  0  0  0  0  0
  -27.5877  -14.2306   19.3908 H   0  0  0  0  0  0
  -28.7845  -12.3137   21.4543 H   0  0  0  0  0  0
  -28.3541  -13.9790   21.7612 H   0  0  0  0  0  0
  -25.2751   -9.5702   22.4749 H   0  0  0  0  0  0
  -24.0025   -7.4627   22.7454 H   0  0  0  0  0  0
  -21.0852   -8.8729   19.8922 H   0  0  0  0  0  0
  -22.3674  -10.9651   19.6146 H   0  0  0  0  0  0
  -21.1994   -7.6135   23.9703 H   0  0  0  0  0  0
  -21.1466   -6.0521   25.9076 H   0  0  0  0  0  0
  -22.0603   -2.7584   23.2885 H   0  0  0  0  0  0
  -22.4065  -11.9814   22.4770 H   0  0  0  0  0  0
  -21.1057  -13.1181   22.2660 H   0  0  0  0  0  0
  -24.6647  -15.8551   20.5263 H   0  0  0  0  0  0
  -26.2626  -15.6158   20.0433 H   0  0  0  0  0  0
  -26.7328  -32.5368   23.0872 H   0  0  0  0  0  0
  -25.0392  -33.9585   25.0467 H   0  0  0  0  0  0
  -22.7571  -31.2755   21.3649 H   0  0  0  0  0  0
  -23.3818  -35.9416   23.3193 H   0  0  0  0  0  0
  -24.3566  -36.8854   22.2034 H   0  0  0  0  0  0
  -23.7053  -37.6272   23.6654 H   0  0  0  0  0  0
  -26.1543  -31.4388   20.5956 H   0  0  0  0  0  0
  -26.8817  -30.7608   22.0158 H   0  0  0  0  0  0
  -28.1369  -28.7538   21.2530 H   0  0  0  0  0  0
  -25.9317  -25.7873   19.0392 H   0  0  0  0  0  0
  -23.9875  -27.2663   18.9899 H   0  0  0  0  0  0
  -23.8119  -30.5220   19.3822 H   0  0  0  0  0  0
  -22.7982  -29.1951   19.8600 H   0  0  0  0  0  0
  -25.1248  -36.1812   25.0788 H   0  0  0  0  0  0
  -21.0037  -28.3346   24.1356 H   0  0  0  0  0  0
  -20.5696  -26.2340   23.3610 H   0  0  0  0  0  0
  -21.6660  -26.7451   22.1181 H   0  0  0  0  0  0
  -19.6865  -25.6346   21.1237 H   0  0  0  0  0  0
  -19.6693  -27.3226   20.6737 H   0  0  0  0  0  0
  -17.4224  -26.6769   21.4039 H   0  0  0  0  0  0
  -18.0321  -26.0132   22.9034 H   0  0  0  0  0  0
  -19.7965  -30.7417   24.2115 H   0  0  0  0  0  0
  -17.5017  -31.6282   24.5229 H   0  0  0  0  0  0
  -15.5341  -30.2960   23.7743 H   0  0  0  0  0  0
  -15.8722  -28.0834   22.7041 H   0  0  0  0  0  0
  -24.5981  -30.7054   25.7655 H   0  0  0  0  0  0
  -24.8840  -32.3022   26.4472 H   0  0  0  0  0  0
  -25.8024  -30.9202   27.0203 H   0  0  0  0  0  0
  -26.3073  -29.6709   24.1116 H   0  0  0  0  0  0
  -27.4098  -29.7232   25.4666 H   0  0  0  0  0  0
  -27.8932  -30.4263   23.9428 H   0  0  0  0  0  0
  -27.2837  -33.3639   26.1885 H   0  0  0  0  0  0
  -28.4045  -32.6687   25.0279 H   0  0  0  0  0  0
  -28.0692  -31.8393   26.5401 H   0  0  0  0  0  0
  -28.2442  -38.0156   24.7874 H   0  0  0  0  0  0
  -28.1295  -36.2758   24.5796 H   0  0  0  0  0  0
  -27.2391  -37.0751   25.8794 H   0  0  0  0  0  0
  -20.9541  -29.8727   21.6758 H   0  0  0  0  0  0
  -26.0090  -38.2786   24.1790 H   0  0  0  0  0  0
  -29.2938  -18.1936   22.4915 H   0  0  0  0  0  0
  -30.7673  -19.1202   21.9527 H   0  0  0  0  0  0
  -27.9738  -18.9894   20.5534 H   0  0  0  0  0  0
  -30.8567  -17.9319   19.7794 H   0  0  0  0  0  0
  -30.4863  -24.6071   18.7104 H   0  0  0  0  0  0
  -29.4311  -23.6367   17.6954 H   0  0  0  0  0  0
  -30.6779  -22.8663   18.6722 H   0  0  0  0  0  0
  -25.6266  -21.5333   23.9493 H   0  0  0  0  0  0
  -25.1417  -22.4809   22.5564 H   0  0  0  0  0  0
  -26.2356  -23.1656   23.7603 H   0  0  0  0  0  0
  -28.0070  -21.4769   23.1121 H   0  0  0  0  0  0
  -26.9163  -20.7841   21.9359 H   0  0  0  0  0  0
  -29.2557  -20.7521   18.9682 H   0  0  0  0  0  0
  -30.4096  -20.9592   20.2085 H   0  0  0  0  0  0
  -28.7217  -15.9935   20.7701 H   0  0  0  0  0  0
  1 25  1  0  0  0
  1 30  2  0  0  0
  1 83  1  0  0  0
  2  3  1  0  0  0
  2 25  1  0  0  0
  2 84  1  0  0  0
  2 85  1  0  0  0
  3  4  1  0  0  0
  3 86  1  0  0  0
  3 87  1  0  0  0
  4  5  1  0  0  0
  4 88  1  0  0  0
  4 89  1  0  0  0
  5  6  1  0  0  0
  5 26  1  0  0  0
  5 90  1  0  0  0
  6 25  1  0  0  0
  6 91  1  0  0  0
  6 92  1  0  0  0
  7  8  2  0  0  0
  7 26  1  0  0  0
  7 29  1  0  0  0
  8  9  1  0  0  0
  8 22  1  0  0  0
  9 10  1  0  0  0
  9 27  2  0  0  0
 10 11  2  0  0  0
 10 15  1  0  0  0
 11 12  1  0  0  0
 11 93  1  0  0  0
 12 13  2  0  0  0
 12 94  1  0  0  0
 13 14  1  0  0  0
 13 31  1  0  0  0
 14 15  2  0  0  0
 14 95  1  0  0  0
 15 96  1  0  0  0
 16 17  2  0  0  0
 16 21  1  0  0  0
 16 31  1  0  0  0
 17 18  1  0  0  0
 17 97  1  0  0  0
 18 19  2  0  0  0
 18 98  1  0  0  0
 19 20  1  0  0  0
 19 24  1  0  0  0
 20 21  2  0  0  0
 20 99  1  0  0  0
 21 23  1  0  0  0
 22 28  1  0  0  0
 22 32  2  0  0  0
 26 27  1  0  0  0
 28100  1  0  0  0
 28101  1  0  0  0
 29102  1  0  0  0
 29103  1  0  0  0
 33 34  1  0  0  0
 33 66  1  0  0  0
 33 70  2  0  0  0
 34 36  1  0  0  0
 34 59  1  0  0  0
 34104  1  0  0  0
 35 44  2  0  0  0
 35 45  1  0  0  0
 35 68  1  0  0  0
 36 56  1  0  0  0
 36105  1  0  0  0
 37 39  1  0  0  0
 37 47  1  0  0  0
 37 66  1  0  0  0
 37106  1  0  0  0
 38 43  2  0  0  0
 38 46  1  0  0  0
 38 47  1  0  0  0
 39 64  1  0  0  0
 39 67  2  0  0  0
 40 52  1  0  0  0
 40 53  2  0  0  0
 40 58  1  0  0  0
 41107  1  0  0  0
 41108  1  0  0  0
 41109  1  0  0  0
 41 48  1  0  0  0
 42 43  1  0  0  0
 42 66  1  0  0  0
 42110  1  0  0  0
 42111  1  0  0  0
 43 44  1  0  0  0
 44112  1  0  0  0
 45 46  2  0  0  0
 45113  1  0  0  0
 46114  1  0  0  0
 47115  1  0  0  0
 47116  1  0  0  0
 48 56  1  0  0  0
 48 65  1  0  0  0
 48117  1  0  0  0
 49 50  1  0  0  0
 49 53  1  0  0  0
 49 64  1  0  0  0
 49118  1  0  0  0
 50 51  1  0  0  0
 50119  1  0  0  0
 50120  1  0  0  0
 51 52  1  0  0  0
 51121  1  0  0  0
 51122  1  0  0  0
 52123  1  0  0  0
 52124  1  0  0  0
 53 54  1  0  0  0
 54 55  2  0  0  0
 54125  1  0  0  0
 55 57  1  0  0  0
 55126  1  0  0  0
 56 69  2  0  0  0
 57 58  2  0  0  0
 57127  1  0  0  0
 58128  1  0  0  0
 59 60  1  0  0  0
 59 61  1  0  0  0
 59 62  1  0  0  0
 60129  1  0  0  0
 60130  1  0  0  0
 60131  1  0  0  0
 61132  1  0  0  0
 61133  1  0  0  0
 61134  1  0  0  0
 62135  1  0  0  0
 62136  1  0  0  0
 62137  1  0  0  0
 63 65  1  0  0  0
 63138  1  0  0  0
 63139  1  0  0  0
 63140  1  0  0  0
 64141  1  0  0  0
 65142  1  0  0  0
 68 72  1  0  0  0
 71 72  2  0  0  0
 71 77  1  0  0  0
 71 82  1  0  0  0
 72 81  1  0  0  0
 73 79  1  0  0  0
 73 81  2  0  0  0
 73 82  1  0  0  0
 74 75  1  0  0  0
 74 76  1  0  0  0
 74143  1  0  0  0
 74144  1  0  0  0
 75 76  1  0  0  0
 75 80  1  0  0  0
 75145  1  0  0  0
 76 83  1  0  0  0
 76146  1  0  0  0
 77147  1  0  0  0
 77148  1  0  0  0
 77149  1  0  0  0
 78 79  1  0  0  0
 78150  1  0  0  0
 78151  1  0  0  0
 78152  1  0  0  0
 79153  1  0  0  0
 79154  1  0  0  0
 80 82  1  0  0  0
 80155  1  0  0  0
 80156  1  0  0  0
 83157  1  0  0  0
M  ISO  4   1 100  68 101  72 101  83 100
M  END
> <chiral flag>
0

> <version>
0

> <s_m_source_file>
/data/baiqing/PycharmProjects/Reinvent-master-3.2/result/LINK_invent/BTK/process_docking_weight1_custom_sum_contain_oxygen_bond_distance_aromatic_linkinvent_7_9_3/rearranged_h_0186.sdf

> <i_m_source_file_index>
88

> <r_mmod_Potential_Energy-OPLS-2005>
670.549865722656

> <r_mmod_Stretch_Energy-OPLS-2005>
326.673767089844

> <r_mmod_Bend_Energy-OPLS-2005>
296.509674072266

> <r_mmod_Torsional_Energy-OPLS-2005>
288.425201416016

> <r_mmod_Improper_Torsional_Energy-OPLS-2005>
4.76834297180176

> <r_mmod_Van_der_Waal_Energy-OPLS-2005>
100.869567871094

> <r_mmod_Electrostatic_Energy-OPLS-2005>
-366.430999755859

> <r_mmod_Solvation_Energy-OPLS-2005>
-222.399536132812

> <b_mmod_Minimization_Converged-OPLS-2005>
0

> <r_mmod_RMS_Derivative-OPLS-2005>
6.49676132202148

$$$$
89
                    3D
 Structure written by MMmdl.
153162  0  0  1  0            999 V2000
  -30.6329  -14.6450   20.5010 C   0  0  0  0  0  0
  -30.4341  -12.3925   19.4628 C   0  0  0  0  0  0
  -29.5077  -12.5077   18.2315 C   0  0  0  0  0  0
  -28.0316  -12.3450   18.6428 C   0  0  0  0  0  0
  -27.6539  -13.2193   19.8679 C   0  0  2  0  0  0
  -28.6971  -13.0816   21.0004 C   0  0  0  0  0  0
  -25.2558  -13.8179   20.5697 C   0  0  0  0  0  0
  -24.1824  -13.0442   20.9184 C   0  0  0  0  0  0
  -24.6397  -11.6913   20.8740 C   0  0  0  0  0  0
  -23.9063  -10.4294   21.0407 C   0  0  0  0  0  0
  -24.3613   -9.4212   21.9189 C   0  0  0  0  0  0
  -23.6287   -8.2247   22.0761 C   0  0  0  0  0  0
  -22.4272   -8.0283   21.3545 C   0  0  0  0  0  0
  -21.9907   -9.0258   20.4649 C   0  0  0  0  0  0
  -22.7233  -10.2136   20.3059 C   0  0  0  0  0  0
  -21.6853   -6.0736   22.5279 C   0  0  0  0  0  0
  -21.4014   -6.5639   23.8213 C   0  0  0  0  0  0
  -21.3661   -5.6791   24.9173 C   0  0  0  0  0  0
  -21.6046   -4.3054   24.7227 C   0  0  0  0  0  0
  -21.8817   -3.8147   23.4346 C   0  0  0  0  0  0
  -21.9194   -4.6963   22.3400 C   0  0  0  0  0  0
  -22.7845  -13.5238   21.1848 C   0  0  0  0  0  0
  -22.1661   -4.2152   21.0977 F   0  0  0  0  0  0
  -21.5629   -3.4537   25.7738 F   0  0  0  0  0  0
  -30.0152  -13.4198   20.4399 N   0  0  0  0  0  0
  -26.2993  -12.9369   20.3345 N   0  0  0  0  0  0
  -25.9330  -11.6521   20.5775 N   0  0  0  0  0  0
  -22.0481  -12.8235   22.0400 N   0  0  0  0  0  0
  -25.4267  -15.1902   20.4127 N   0  0  0  0  0  0
  -31.7861  -14.7884   20.0792 O   0  0  0  0  0  0
  -21.6637   -6.8881   21.4242 O   0  0  0  0  0  0
  -22.3544  -14.5556   20.6708 O   0  0  0  0  0  0
  -24.6280  -31.8596   23.2017 C   0  0  0  0  0  0
  -25.9128  -32.4770   23.8352 C   0  0  1  0  0  0
  -27.2262  -27.3135   20.1089 C   0  0  0  0  0  0
  -25.5950  -33.8570   24.2290 N   0  0  0  0  0  0
  -23.4214  -30.4816   21.5455 C   0  0  2  0  0  0
  -24.8685  -28.9383   20.1098 C   0  0  0  0  0  0
  -22.7484  -29.4619   22.4948 C   0  0  0  0  0  0
  -18.0293  -28.1364   22.8469 C   0  0  0  0  0  0
  -24.1494  -36.7284   23.2635 C   0  0  0  0  0  0
  -25.9631  -30.7864   21.3747 C   0  0  0  0  0  0
  -26.0372  -29.4137   20.7166 C   0  0  0  0  0  0
  -27.2183  -28.6118   20.7089 C   0  0  0  0  0  0
  -26.0338  -26.9001   19.4679 C   0  0  0  0  0  0
  -24.8684  -27.6871   19.4777 C   0  0  0  0  0  0
  -23.6349  -29.8151   20.1612 C   0  0  0  0  0  0
  -25.4117  -36.3073   24.0330 C   0  0  1  0  0  0
  -20.5895  -28.3674   23.1276 C   0  0  2  0  0  0
  -20.6787  -26.9401   22.5393 C   0  0  0  0  0  0
  -19.5763  -26.6374   21.5191 C   0  0  0  0  0  0
  -18.1940  -26.7904   22.1604 C   0  0  0  0  0  0
  -19.1545  -28.8837   23.2861 C   0  0  0  0  0  0
  -18.9466  -30.1439   23.8877 C   0  0  0  0  0  0
  -17.6467  -30.6570   24.0546 C   0  0  0  0  0  0
  -25.9056  -34.9444   23.5108 C   0  0  0  0  0  0
  -16.5361  -29.9060   23.6324 C   0  0  0  0  0  0
  -16.7281  -28.6476   23.0344 C   0  0  0  0  0  0
  -26.4511  -31.6574   25.0719 C   0  0  0  0  0  0
  -25.3753  -31.3690   26.1451 C   0  0  0  0  0  0
  -27.0363  -30.3008   24.6153 C   0  0  0  0  0  0
  -27.6078  -32.4310   25.7488 C   0  0  0  0  0  0
  -27.5581  -37.1791   24.8464 C   0  0  0  0  0  0
  -21.4201  -29.3032   22.3676 N   0  0  0  0  0  0
  -26.4295  -37.3770   23.9409 N   0  0  0  0  0  0
  -24.6898  -31.0594   22.0973 N   0  0  0  0  0  0
  -23.4202  -28.8165   23.3040 O   0  0  0  0  0  0
  -28.3416  -26.4574   20.1702 O   0  0  0  0  0  0
  -26.5608  -34.8907   22.4662 O   0  0  0  0  0  0
  -23.5446  -32.1407   23.7341 O   0  0  0  0  0  0
  -29.3157  -17.9770   21.7039 C   0  0  0  0  0  0
  -30.5225  -19.0725   19.3677 C   0  0  0  0  0  0
  -29.3064  -19.3659   21.4391 C   0  0  0  0  0  0
  -29.8638  -19.9330   20.2621 C   0  0  0  0  0  0
  -29.9412  -17.1354   20.7214 C   0  0  0  0  0  0
  -29.0553  -20.7327   22.0557 C   0  0  0  0  0  0
  -29.7683  -21.4056   20.7640 C   0  0  2  0  0  0
  -29.1912  -23.9334   20.4492 C   0  0  0  0  0  0
  -28.1369  -25.0050   19.9205 C   0  0  0  0  0  0
  -30.5164  -17.7114   19.6022 N   0  0  0  0  0  0
  -29.8783  -15.6946   20.9605 N   0  0  0  0  0  0
  -28.9323  -22.4741   20.0720 N   0  3  0  0  0  0
  -31.4773  -12.5052   19.1620 H   0  0  0  0  0  0
  -30.3604  -11.3983   19.9067 H   0  0  0  0  0  0
  -29.7724  -11.7548   17.4878 H   0  0  0  0  0  0
  -29.6511  -13.4772   17.7514 H   0  0  0  0  0  0
  -27.8704  -11.2926   18.8783 H   0  0  0  0  0  0
  -27.3761  -12.5712   17.8007 H   0  0  0  0  0  0
  -27.6720  -14.2538   19.5253 H   0  0  0  0  0  0
  -28.7064  -12.0629   21.3918 H   0  0  0  0  0  0
  -28.4385  -13.7191   21.8469 H   0  0  0  0  0  0
  -25.2752   -9.5695   22.4768 H   0  0  0  0  0  0
  -23.9998   -7.4644   22.7484 H   0  0  0  0  0  0
  -21.0837   -8.8777   19.8955 H   0  0  0  0  0  0
  -22.3691  -10.9678   19.6172 H   0  0  0  0  0  0
  -21.2006   -7.6148   23.9719 H   0  0  0  0  0  0
  -21.1484   -6.0519   25.9077 H   0  0  0  0  0  0
  -22.0596   -2.7611   23.2843 H   0  0  0  0  0  0
  -22.4071  -11.9875   22.4771 H   0  0  0  0  0  0
  -21.1115  -13.1297   22.2630 H   0  0  0  0  0  0
  -24.6571  -15.8423   20.5179 H   0  0  0  0  0  0
  -26.2776  -15.6323   20.0888 H   0  0  0  0  0  0
  -26.7192  -32.5445   23.1099 H   0  0  0  0  0  0
  -25.0147  -33.9714   25.0467 H   0  0  0  0  0  0
  -22.7149  -31.3013   21.4010 H   0  0  0  0  0  0
  -23.3757  -35.9614   23.3297 H   0  0  0  0  0  0
  -24.3594  -36.8911   22.2050 H   0  0  0  0  0  0
  -23.7242  -37.6483   23.6664 H   0  0  0  0  0  0
  -26.0951  -31.5482   20.6049 H   0  0  0  0  0  0
  -26.8437  -30.8373   22.0030 H   0  0  0  0  0  0
  -28.1142  -28.9690   21.1970 H   0  0  0  0  0  0
  -25.9653  -25.9517   18.9564 H   0  0  0  0  0  0
  -23.9739  -27.3195   18.9936 H   0  0  0  0  0  0
  -23.7461  -30.5885   19.4003 H   0  0  0  0  0  0
  -22.7570  -29.2391   19.8642 H   0  0  0  0  0  0
  -25.1288  -36.1928   25.0824 H   0  0  0  0  0  0
  -20.9974  -28.3244   24.1402 H   0  0  0  0  0  0
  -20.5689  -26.2280   23.3585 H   0  0  0  0  0  0
  -21.6656  -26.7429   22.1189 H   0  0  0  0  0  0
  -19.6932  -25.6286   21.1219 H   0  0  0  0  0  0
  -19.6704  -27.3182   20.6718 H   0  0  0  0  0  0
  -17.4208  -26.6647   21.4007 H   0  0  0  0  0  0
  -18.0356  -26.0039   22.8999 H   0  0  0  0  0  0
  -19.7944  -30.7256   24.2245 H   0  0  0  0  0  0
  -17.5019  -31.6249   24.5148 H   0  0  0  0  0  0
  -15.5355  -30.2949   23.7660 H   0  0  0  0  0  0
  -15.8681  -28.0787   22.7067 H   0  0  0  0  0  0
  -24.5954  -30.7006   25.7783 H   0  0  0  0  0  0
  -24.8904  -32.2839   26.4872 H   0  0  0  0  0  0
  -25.8094  -30.8884   27.0228 H   0  0  0  0  0  0
  -26.2923  -29.6749   24.1209 H   0  0  0  0  0  0
  -27.4122  -29.7268   25.4633 H   0  0  0  0  0  0
  -27.8770  -30.4315   23.9333 H   0  0  0  0  0  0
  -27.2710  -33.3636   26.2028 H   0  0  0  0  0  0
  -28.3906  -32.6831   25.0321 H   0  0  0  0  0  0
  -28.0728  -31.8455   26.5430 H   0  0  0  0  0  0
  -28.2577  -38.0105   24.7535 H   0  0  0  0  0  0
  -28.1099  -36.2638   24.6271 H   0  0  0  0  0  0
  -27.2303  -37.1418   25.8866 H   0  0  0  0  0  0
  -20.9402  -29.8733   21.6852 H   0  0  0  0  0  0
  -26.0174  -38.2845   24.1410 H   0  0  0  0  0  0
  -28.9068  -17.5802   22.6236 H   0  0  0  0  0  0
  -31.0948  -19.4404   18.5286 H   0  0  0  0  0  0
  -29.5962  -20.8855   22.9895 H   0  0  0  0  0  0
  -27.9894  -20.9379   22.1556 H   0  0  0  0  0  0
  -30.7763  -21.7644   20.9781 H   0  0  0  0  0  0
  -29.2381  -24.0044   21.5354 H   0  0  0  0  0  0
  -30.1821  -24.2032   20.0830 H   0  0  0  0  0  0
  -27.1832  -24.7143   20.3625 H   0  0  0  0  0  0
  -28.0321  -24.8770   18.8424 H   0  0  0  0  0  0
  -29.0556  -15.3978   21.4599 H   0  0  0  0  0  0
  -27.9589  -22.2598   20.2202 H   0  0  0  0  0  0
  -29.0927  -22.3960   19.0801 H   0  0  0  0  0  0
  1 25  1  0  0  0
  1 30  2  0  0  0
  1 81  1  0  0  0
  2  3  1  0  0  0
  2 25  1  0  0  0
  2 83  1  0  0  0
  2 84  1  0  0  0
  3  4  1  0  0  0
  3 85  1  0  0  0
  3 86  1  0  0  0
  4  5  1  0  0  0
  4 87  1  0  0  0
  4 88  1  0  0  0
  5  6  1  0  0  0
  5 26  1  0  0  0
  5 89  1  0  0  0
  6 25  1  0  0  0
  6 90  1  0  0  0
  6 91  1  0  0  0
  7  8  2  0  0  0
  7 26  1  0  0  0
  7 29  1  0  0  0
  8  9  1  0  0  0
  8 22  1  0  0  0
  9 10  1  0  0  0
  9 27  2  0  0  0
 10 11  2  0  0  0
 10 15  1  0  0  0
 11 12  1  0  0  0
 11 92  1  0  0  0
 12 13  2  0  0  0
 12 93  1  0  0  0
 13 14  1  0  0  0
 13 31  1  0  0  0
 14 15  2  0  0  0
 14 94  1  0  0  0
 15 95  1  0  0  0
 16 17  2  0  0  0
 16 21  1  0  0  0
 16 31  1  0  0  0
 17 18  1  0  0  0
 17 96  1  0  0  0
 18 19  2  0  0  0
 18 97  1  0  0  0
 19 20  1  0  0  0
 19 24  1  0  0  0
 20 21  2  0  0  0
 20 98  1  0  0  0
 21 23  1  0  0  0
 22 28  1  0  0  0
 22 32  2  0  0  0
 26 27  1  0  0  0
 28 99  1  0  0  0
 28100  1  0  0  0
 29101  1  0  0  0
 29102  1  0  0  0
 33 34  1  0  0  0
 33 66  1  0  0  0
 33 70  2  0  0  0
 34 36  1  0  0  0
 34 59  1  0  0  0
 34103  1  0  0  0
 35 44  2  0  0  0
 35 45  1  0  0  0
 35 68  1  0  0  0
 36 56  1  0  0  0
 36104  1  0  0  0
 37 39  1  0  0  0
 37 47  1  0  0  0
 37 66  1  0  0  0
 37105  1  0  0  0
 38 43  2  0  0  0
 38 46  1  0  0  0
 38 47  1  0  0  0
 39 64  1  0  0  0
 39 67  2  0  0  0
 40 52  1  0  0  0
 40 53  2  0  0  0
 40 58  1  0  0  0
 41106  1  0  0  0
 41107  1  0  0  0
 41108  1  0  0  0
 41 48  1  0  0  0
 42 43  1  0  0  0
 42 66  1  0  0  0
 42109  1  0  0  0
 42110  1  0  0  0
 43 44  1  0  0  0
 44111  1  0  0  0
 45 46  2  0  0  0
 45112  1  0  0  0
 46113  1  0  0  0
 47114  1  0  0  0
 47115  1  0  0  0
 48 56  1  0  0  0
 48 65  1  0  0  0
 48116  1  0  0  0
 49 50  1  0  0  0
 49 53  1  0  0  0
 49 64  1  0  0  0
 49117  1  0  0  0
 50 51  1  0  0  0
 50118  1  0  0  0
 50119  1  0  0  0
 51 52  1  0  0  0
 51120  1  0  0  0
 51121  1  0  0  0
 52122  1  0  0  0
 52123  1  0  0  0
 53 54  1  0  0  0
 54 55  2  0  0  0
 54124  1  0  0  0
 55 57  1  0  0  0
 55125  1  0  0  0
 56 69  2  0  0  0
 57 58  2  0  0  0
 57126  1  0  0  0
 58127  1  0  0  0
 59 60  1  0  0  0
 59 61  1  0  0  0
 59 62  1  0  0  0
 60128  1  0  0  0
 60129  1  0  0  0
 60130  1  0  0  0
 61131  1  0  0  0
 61132  1  0  0  0
 61133  1  0  0  0
 62134  1  0  0  0
 62135  1  0  0  0
 62136  1  0  0  0
 63 65  1  0  0  0
 63137  1  0  0  0
 63138  1  0  0  0
 63139  1  0  0  0
 64140  1  0  0  0
 65141  1  0  0  0
 68 79  1  0  0  0
 71 73  2  0  0  0
 71 75  1  0  0  0
 71142  1  0  0  0
 72 74  2  0  0  0
 72 80  1  0  0  0
 72143  1  0  0  0
 73 74  1  0  0  0
 73 76  1  0  0  0
 74 77  1  0  0  0
 75 80  2  0  0  0
 75 81  1  0  0  0
 76 77  1  0  0  0
 76144  1  0  0  0
 76145  1  0  0  0
 77 82  1  0  0  0
 77146  1  0  0  0
 78 79  1  0  0  0
 78 82  1  0  0  0
 78147  1  0  0  0
 78148  1  0  0  0
 79149  1  0  0  0
 79150  1  0  0  0
 81151  1  0  0  0
 82152  1  0  0  0
 82153  1  0  0  0
M  CHG  1  82   1
M  ISO  4   1 100  68 101  79 101  81 100
M  END
> <chiral flag>
0

> <version>
0

> <s_m_source_file>
/data/baiqing/PycharmProjects/Reinvent-master-3.2/result/LINK_invent/BTK/process_docking_weight1_custom_sum_contain_oxygen_bond_distance_aromatic_linkinvent_7_9_3/rearranged_h_0186.sdf

> <i_m_source_file_index>
89

> <r_mmod_Potential_Energy-OPLS-2005>
149.116058349609

> <r_mmod_Stretch_Energy-OPLS-2005>
101.904487609863

> <r_mmod_Bend_Energy-OPLS-2005>
509.261260986328

> <r_mmod_Torsional_Energy-OPLS-2005>
237.809524536133

> <r_mmod_Improper_Torsional_Energy-OPLS-2005>
8.86685657501221

> <r_mmod_Van_der_Waal_Energy-OPLS-2005>
141.647277832031

> <r_mmod_Electrostatic_Energy-OPLS-2005>
-384.458984375

> <r_mmod_Solvation_Energy-OPLS-2005>
-516.117919921875

> <b_mmod_Minimization_Converged-OPLS-2005>
0

> <r_mmod_RMS_Derivative-OPLS-2005>
1.1389981508255

$$$$
90
                    3D
 Structure written by MMmdl.
151160  0  0  1  0            999 V2000
  -30.4931  -15.1253   20.4524 C   0  0  0  0  0  0
  -30.4263  -12.7131   19.5395 C   0  0  0  0  0  0
  -29.5308  -12.5828   18.2820 C   0  0  0  0  0  0
  -28.0636  -12.3426   18.6836 C   0  0  0  0  0  0
  -27.6161  -13.2737   19.8403 C   0  0  2  0  0  0
  -28.6486  -13.3578   20.9842 C   0  0  0  0  0  0
  -25.2362  -13.8243   20.5746 C   0  0  0  0  0  0
  -24.1719  -13.0432   20.9227 C   0  0  0  0  0  0
  -24.6375  -11.6924   20.8735 C   0  0  0  0  0  0
  -23.9079  -10.4290   21.0400 C   0  0  0  0  0  0
  -24.3632   -9.4222   21.9184 C   0  0  0  0  0  0
  -23.6309   -8.2255   22.0754 C   0  0  0  0  0  0
  -22.4292   -8.0281   21.3549 C   0  0  0  0  0  0
  -21.9925   -9.0252   20.4652 C   0  0  0  0  0  0
  -22.7245  -10.2130   20.3062 C   0  0  0  0  0  0
  -21.6854   -6.0750   22.5291 C   0  0  0  0  0  0
  -21.4018   -6.5651   23.8225 C   0  0  0  0  0  0
  -21.3652   -5.6800   24.9181 C   0  0  0  0  0  0
  -21.6049   -4.3066   24.7226 C   0  0  0  0  0  0
  -21.8814   -3.8156   23.4342 C   0  0  0  0  0  0
  -21.9188   -4.6979   22.3402 C   0  0  0  0  0  0
  -22.7748  -13.5198   21.1880 C   0  0  0  0  0  0
  -22.1666   -4.2168   21.0979 F   0  0  0  0  0  0
  -21.5615   -3.4536   25.7731 F   0  0  0  0  0  0
  -29.8987  -13.8419   20.3867 N   0  0  0  0  0  0
  -26.2806  -12.9527   20.3255 N   0  0  0  0  0  0
  -25.9319  -11.6627   20.5717 N   0  0  0  0  0  0
  -22.0415  -12.8189   22.0451 N   0  0  0  0  0  0
  -25.3955  -15.1963   20.4159 N   0  0  0  0  0  0
  -31.6884  -15.1302   20.1244 O   0  0  0  0  0  0
  -21.6640   -6.8885   21.4256 O   0  0  0  0  0  0
  -22.3436  -14.5503   20.6714 O   0  0  0  0  0  0
  -24.6485  -31.8393   23.1855 C   0  0  0  0  0  0
  -25.9207  -32.4668   23.8262 C   0  0  1  0  0  0
  -27.2010  -27.0022   20.2074 C   0  0  0  0  0  0
  -25.5954  -33.8489   24.2156 N   0  0  0  0  0  0
  -23.4623  -30.4541   21.5288 C   0  0  2  0  0  0
  -24.9156  -28.8585   20.1154 C   0  0  0  0  0  0
  -22.7599  -29.4557   22.4850 C   0  0  0  0  0  0
  -18.0316  -28.1417   22.8488 C   0  0  0  0  0  0
  -24.1488  -36.7223   23.2645 C   0  0  0  0  0  0
  -26.0277  -30.6660   21.4110 C   0  0  0  0  0  0
  -26.0936  -29.2635   20.7570 C   0  0  0  0  0  0
  -27.2320  -28.3510   20.7898 C   0  0  0  0  0  0
  -26.0117  -26.7495   19.4840 C   0  0  0  0  0  0
  -24.8950  -27.6157   19.4601 C   0  0  0  0  0  0
  -23.6998  -29.7760   20.1507 C   0  0  0  0  0  0
  -25.4140  -36.3041   24.0306 C   0  0  1  0  0  0
  -20.5934  -28.3781   23.1236 C   0  0  2  0  0  0
  -20.6821  -26.9467   22.5423 C   0  0  0  0  0  0
  -19.5794  -26.6397   21.5228 C   0  0  0  0  0  0
  -18.1967  -26.7956   22.1629 C   0  0  0  0  0  0
  -19.1569  -28.8906   23.2870 C   0  0  0  0  0  0
  -18.9484  -30.1497   23.8903 C   0  0  0  0  0  0
  -17.6486  -30.6622   24.0530 C   0  0  0  0  0  0
  -25.9094  -34.9402   23.5041 C   0  0  0  0  0  0
  -16.5380  -29.9096   23.6336 C   0  0  0  0  0  0
  -16.7298  -28.6494   23.0390 C   0  0  0  0  0  0
  -26.4499  -31.6576   25.0733 C   0  0  0  0  0  0
  -25.3644  -31.3783   26.1383 C   0  0  0  0  0  0
  -27.0378  -30.2956   24.6403 C   0  0  0  0  0  0
  -27.6028  -32.4391   25.7505 C   0  0  0  0  0  0
  -27.5605  -37.1772   24.8458 C   0  0  0  0  0  0
  -21.4278  -29.3088   22.3580 N   0  0  0  0  0  0
  -26.4297  -37.3768   23.9417 N   0  0  0  0  0  0
  -24.7329  -31.0148   22.0925 N   0  0  0  0  0  0
  -23.4187  -28.8124   23.3062 O   0  0  0  0  0  0
  -28.1948  -25.9114   20.2689 O   0  0  0  0  0  0
  -26.5705  -34.8905   22.4634 O   0  0  0  0  0  0
  -23.5577  -32.1309   23.6987 O   0  0  0  0  0  0
  -26.7163  -24.1079   21.1992 C   0  0  0  0  0  0
  -26.4355  -22.7608   21.4958 C   0  0  0  0  0  0
  -27.9160  -24.4507   20.5632 C   0  0  0  0  0  0
  -28.4317  -21.9522   20.6592 C   0  0  0  0  0  0
  -28.5345  -18.3389   21.7282 C   0  0  0  0  0  0
  -28.6944  -16.7581   21.5278 C   0  0  0  0  0  0
  -30.1323  -17.8830   20.1131 C   0  0  0  0  0  0
  -29.0092  -19.0899   20.4602 C   0  0  2  0  0  0
  -27.2567  -21.7190   21.2168 N   0  0  0  0  0  0
  -28.7831  -23.3017   20.3389 N   0  0  0  0  0  0
  -29.7803  -16.4091   20.5765 N   0  0  0  0  0  0
  -29.2653  -20.6888   20.4979 N   0  0  0  0  0  0
  -31.4622  -12.8732   19.2364 H   0  0  0  0  0  0
  -30.4343  -11.7776   20.1016 H   0  0  0  0  0  0
  -29.8834  -11.7734   17.6419 H   0  0  0  0  0  0
  -29.6057  -13.4965   17.6901 H   0  0  0  0  0  0
  -27.9684  -11.2994   18.9880 H   0  0  0  0  0  0
  -27.4108  -12.4744   17.8194 H   0  0  0  0  0  0
  -27.5597  -14.2694   19.3994 H   0  0  0  0  0  0
  -28.7777  -12.3909   21.4725 H   0  0  0  0  0  0
  -28.3047  -14.0424   21.7594 H   0  0  0  0  0  0
  -25.2781   -9.5691   22.4758 H   0  0  0  0  0  0
  -24.0011   -7.4646   22.7482 H   0  0  0  0  0  0
  -21.0847   -8.8777   19.8958 H   0  0  0  0  0  0
  -22.3712  -10.9670   19.6164 H   0  0  0  0  0  0
  -21.2028   -7.6156   23.9732 H   0  0  0  0  0  0
  -21.1477   -6.0527   25.9081 H   0  0  0  0  0  0
  -22.0593   -2.7617   23.2834 H   0  0  0  0  0  0
  -22.4039  -11.9859   22.4838 H   0  0  0  0  0  0
  -21.1038  -13.1217   22.2651 H   0  0  0  0  0  0
  -24.6271  -15.8472   20.5429 H   0  0  0  0  0  0
  -26.2435  -15.6429   20.0932 H   0  0  0  0  0  0
  -26.7269  -32.5198   23.0975 H   0  0  0  0  0  0
  -25.0063  -33.9590   25.0279 H   0  0  0  0  0  0
  -22.7703  -31.2837   21.3664 H   0  0  0  0  0  0
  -23.3818  -35.9493   23.3238 H   0  0  0  0  0  0
  -24.3585  -36.8912   22.2084 H   0  0  0  0  0  0
  -23.7135  -37.6341   23.6728 H   0  0  0  0  0  0
  -26.2046  -31.4139   20.6387 H   0  0  0  0  0  0
  -26.8915  -30.7164   22.0630 H   0  0  0  0  0  0
  -28.1206  -28.6564   21.3219 H   0  0  0  0  0  0
  -25.9127  -25.8048   18.9681 H   0  0  0  0  0  0
  -23.9982  -27.3052   18.9413 H   0  0  0  0  0  0
  -23.8521  -30.5478   19.3952 H   0  0  0  0  0  0
  -22.8088  -29.2293   19.8334 H   0  0  0  0  0  0
  -25.1326  -36.1909   25.0808 H   0  0  0  0  0  0
  -21.0068  -28.3422   24.1348 H   0  0  0  0  0  0
  -20.5768  -26.2374   23.3650 H   0  0  0  0  0  0
  -21.6673  -26.7511   22.1163 H   0  0  0  0  0  0
  -19.6966  -25.6296   21.1283 H   0  0  0  0  0  0
  -19.6740  -27.3164   20.6721 H   0  0  0  0  0  0
  -17.4241  -26.6714   21.4024 H   0  0  0  0  0  0
  -18.0350  -26.0101   22.9034 H   0  0  0  0  0  0
  -19.7967  -30.7287   24.2313 H   0  0  0  0  0  0
  -17.5025  -31.6293   24.5141 H   0  0  0  0  0  0
  -15.5375  -30.2987   23.7663 H   0  0  0  0  0  0
  -15.8688  -28.0771   22.7195 H   0  0  0  0  0  0
  -24.5831  -30.7142   25.7673 H   0  0  0  0  0  0
  -24.8825  -32.2965   26.4743 H   0  0  0  0  0  0
  -25.7862  -30.8964   27.0199 H   0  0  0  0  0  0
  -26.3023  -29.6652   24.1394 H   0  0  0  0  0  0
  -27.3902  -29.7297   25.5032 H   0  0  0  0  0  0
  -27.8970  -30.4158   23.9801 H   0  0  0  0  0  0
  -27.2619  -33.3740   26.1975 H   0  0  0  0  0  0
  -28.3887  -32.6881   25.0358 H   0  0  0  0  0  0
  -28.0660  -31.8591   26.5490 H   0  0  0  0  0  0
  -28.2577  -38.0120   24.7634 H   0  0  0  0  0  0
  -28.1151  -36.2657   24.6181 H   0  0  0  0  0  0
  -27.2323  -37.1286   25.8851 H   0  0  0  0  0  0
  -20.9528  -29.8646   21.6600 H   0  0  0  0  0  0
  -26.0152  -38.2814   24.1509 H   0  0  0  0  0  0
  -25.9937  -24.8646   21.4765 H   0  0  0  0  0  0
  -25.5057  -22.5168   21.9903 H   0  0  0  0  0  0
  -29.1491  -18.6440   22.5750 H   0  0  0  0  0  0
  -27.5075  -18.5963   21.9931 H   0  0  0  0  0  0
  -27.7667  -16.3476   21.1402 H   0  0  0  0  0  0
  -28.8687  -16.2761   22.4918 H   0  0  0  0  0  0
  -31.0687  -18.1395   20.6119 H   0  0  0  0  0  0
  -30.3580  -17.8748   19.0450 H   0  0  0  0  0  0
  -28.2084  -18.9801   19.7254 H   0  0  0  0  0  0
  -30.2012  -20.9183   20.1873 H   0  0  0  0  0  0
  1 25  1  0  0  0
  1 30  2  0  0  0
  1 81  1  0  0  0
  2  3  1  0  0  0
  2 25  1  0  0  0
  2 83  1  0  0  0
  2 84  1  0  0  0
  3  4  1  0  0  0
  3 85  1  0  0  0
  3 86  1  0  0  0
  4  5  1  0  0  0
  4 87  1  0  0  0
  4 88  1  0  0  0
  5  6  1  0  0  0
  5 26  1  0  0  0
  5 89  1  0  0  0
  6 25  1  0  0  0
  6 90  1  0  0  0
  6 91  1  0  0  0
  7  8  2  0  0  0
  7 26  1  0  0  0
  7 29  1  0  0  0
  8  9  1  0  0  0
  8 22  1  0  0  0
  9 10  1  0  0  0
  9 27  2  0  0  0
 10 11  2  0  0  0
 10 15  1  0  0  0
 11 12  1  0  0  0
 11 92  1  0  0  0
 12 13  2  0  0  0
 12 93  1  0  0  0
 13 14  1  0  0  0
 13 31  1  0  0  0
 14 15  2  0  0  0
 14 94  1  0  0  0
 15 95  1  0  0  0
 16 17  2  0  0  0
 16 21  1  0  0  0
 16 31  1  0  0  0
 17 18  1  0  0  0
 17 96  1  0  0  0
 18 19  2  0  0  0
 18 97  1  0  0  0
 19 20  1  0  0  0
 19 24  1  0  0  0
 20 21  2  0  0  0
 20 98  1  0  0  0
 21 23  1  0  0  0
 22 28  1  0  0  0
 22 32  2  0  0  0
 26 27  1  0  0  0
 28 99  1  0  0  0
 28100  1  0  0  0
 29101  1  0  0  0
 29102  1  0  0  0
 33 34  1  0  0  0
 33 66  1  0  0  0
 33 70  2  0  0  0
 34 36  1  0  0  0
 34 59  1  0  0  0
 34103  1  0  0  0
 35 44  2  0  0  0
 35 45  1  0  0  0
 35 68  1  0  0  0
 36 56  1  0  0  0
 36104  1  0  0  0
 37 39  1  0  0  0
 37 47  1  0  0  0
 37 66  1  0  0  0
 37105  1  0  0  0
 38 43  2  0  0  0
 38 46  1  0  0  0
 38 47  1  0  0  0
 39 64  1  0  0  0
 39 67  2  0  0  0
 40 52  1  0  0  0
 40 53  2  0  0  0
 40 58  1  0  0  0
 41106  1  0  0  0
 41107  1  0  0  0
 41108  1  0  0  0
 41 48  1  0  0  0
 42 43  1  0  0  0
 42 66  1  0  0  0
 42109  1  0  0  0
 42110  1  0  0  0
 43 44  1  0  0  0
 44111  1  0  0  0
 45 46  2  0  0  0
 45112  1  0  0  0
 46113  1  0  0  0
 47114  1  0  0  0
 47115  1  0  0  0
 48 56  1  0  0  0
 48 65  1  0  0  0
 48116  1  0  0  0
 49 50  1  0  0  0
 49 53  1  0  0  0
 49 64  1  0  0  0
 49117  1  0  0  0
 50 51  1  0  0  0
 50118  1  0  0  0
 50119  1  0  0  0
 51 52  1  0  0  0
 51120  1  0  0  0
 51121  1  0  0  0
 52122  1  0  0  0
 52123  1  0  0  0
 53 54  1  0  0  0
 54 55  2  0  0  0
 54124  1  0  0  0
 55 57  1  0  0  0
 55125  1  0  0  0
 56 69  2  0  0  0
 57 58  2  0  0  0
 57126  1  0  0  0
 58127  1  0  0  0
 59 60  1  0  0  0
 59 61  1  0  0  0
 59 62  1  0  0  0
 60128  1  0  0  0
 60129  1  0  0  0
 60130  1  0  0  0
 61131  1  0  0  0
 61132  1  0  0  0
 61133  1  0  0  0
 62134  1  0  0  0
 62135  1  0  0  0
 62136  1  0  0  0
 63 65  1  0  0  0
 63137  1  0  0  0
 63138  1  0  0  0
 63139  1  0  0  0
 64140  1  0  0  0
 65141  1  0  0  0
 68 73  1  0  0  0
 71 72  2  0  0  0
 71 73  1  0  0  0
 71142  1  0  0  0
 72 79  1  0  0  0
 72143  1  0  0  0
 73 80  2  0  0  0
 74 79  2  0  0  0
 74 80  1  0  0  0
 74 82  1  0  0  0
 75 76  1  0  0  0
 75 78  1  0  0  0
 75144  1  0  0  0
 75145  1  0  0  0
 76 81  1  0  0  0
 76146  1  0  0  0
 76147  1  0  0  0
 77 78  1  0  0  0
 77 81  1  0  0  0
 77148  1  0  0  0
 77149  1  0  0  0
 78 82  1  0  0  0
 78150  1  0  0  0
 82151  1  0  0  0
M  ISO  4   1 100  68 101  73 101  81 100
M  END
> <chiral flag>
0

> <version>
0

> <s_m_source_file>
/data/baiqing/PycharmProjects/Reinvent-master-3.2/result/LINK_invent/BTK/process_docking_weight1_custom_sum_contain_oxygen_bond_distance_aromatic_linkinvent_7_9_3/rearranged_h_0186.sdf

> <i_m_source_file_index>
90

> <r_mmod_Potential_Energy-OPLS-2005>
435.629425048828

> <r_mmod_Stretch_Energy-OPLS-2005>
373.12939453125

> <r_mmod_Bend_Energy-OPLS-2005>
365.811798095703

> <r_mmod_Torsional_Energy-OPLS-2005>
294.287322998047

> <r_mmod_Improper_Torsional_Energy-OPLS-2005>
8.53303527832031

> <r_mmod_Van_der_Waal_Energy-OPLS-2005>
127.570289611816

> <r_mmod_Electrostatic_Energy-OPLS-2005>
-827.313354492188

> <r_mmod_Solvation_Energy-OPLS-2005>
-240.88916015625

> <b_mmod_Minimization_Converged-OPLS-2005>
0

> <r_mmod_RMS_Derivative-OPLS-2005>
4.48183107376099

$$$$
91
                    3D
 Structure written by MMmdl.
149158  0  0  1  0            999 V2000
  -30.4750  -15.4094   20.3240 C   0  0  0  0  0  0
  -30.4047  -12.9332   19.4855 C   0  0  0  0  0  0
  -29.5066  -12.5876   18.2755 C   0  0  0  0  0  0
  -28.0840  -12.2678   18.7478 C   0  0  0  0  0  0
  -27.5901  -13.2919   19.7980 C   0  0  2  0  0  0
  -28.6272  -13.5975   20.9038 C   0  0  0  0  0  0
  -25.2334  -13.8272   20.5824 C   0  0  0  0  0  0
  -24.1689  -13.0443   20.9305 C   0  0  0  0  0  0
  -24.6364  -11.6943   20.8803 C   0  0  0  0  0  0
  -23.9066  -10.4288   21.0460 C   0  0  0  0  0  0
  -24.3627   -9.4192   21.9223 C   0  0  0  0  0  0
  -23.6304   -8.2227   22.0763 C   0  0  0  0  0  0
  -22.4288   -8.0287   21.3551 C   0  0  0  0  0  0
  -21.9925   -9.0262   20.4654 C   0  0  0  0  0  0
  -22.7252  -10.2134   20.3086 C   0  0  0  0  0  0
  -21.6844   -6.0749   22.5271 C   0  0  0  0  0  0
  -21.4010   -6.5654   23.8208 C   0  0  0  0  0  0
  -21.3656   -5.6808   24.9177 C   0  0  0  0  0  0
  -21.6026   -4.3071   24.7230 C   0  0  0  0  0  0
  -21.8821   -3.8167   23.4356 C   0  0  0  0  0  0
  -21.9175   -4.6977   22.3411 C   0  0  0  0  0  0
  -22.7694  -13.5171   21.1925 C   0  0  0  0  0  0
  -22.1659   -4.2158   21.0999 F   0  0  0  0  0  0
  -21.5627   -3.4561   25.7746 F   0  0  0  0  0  0
  -29.8162  -14.1353   20.2145 N   0  0  0  0  0  0
  -26.2748  -12.9575   20.3246 N   0  0  0  0  0  0
  -25.9295  -11.6672   20.5729 N   0  0  0  0  0  0
  -22.0381  -12.8129   22.0495 N   0  0  0  0  0  0
  -25.4001  -15.2002   20.4236 N   0  0  0  0  0  0
  -31.6985  -15.2366   20.2296 O   0  0  0  0  0  0
  -21.6644   -6.8897   21.4237 O   0  0  0  0  0  0
  -22.3351  -14.5469   20.6767 O   0  0  0  0  0  0
  -24.6717  -31.8166   23.1640 C   0  0  0  0  0  0
  -25.9363  -32.4571   23.8114 C   0  0  1  0  0  0
  -27.2035  -26.8451   20.1790 C   0  0  0  0  0  0
  -25.5981  -33.8382   24.2020 N   0  0  0  0  0  0
  -23.4905  -30.4288   21.5171 C   0  0  2  0  0  0
  -24.9367  -28.8011   20.1115 C   0  0  0  0  0  0
  -22.7696  -29.4473   22.4788 C   0  0  0  0  0  0
  -18.0322  -28.1427   22.8471 C   0  0  0  0  0  0
  -24.1487  -36.7197   23.2640 C   0  0  0  0  0  0
  -26.0632  -30.5955   21.4030 C   0  0  0  0  0  0
  -26.1259  -29.1795   20.7446 C   0  0  0  0  0  0
  -27.2509  -28.2223   20.7536 C   0  0  0  0  0  0
  -25.9850  -26.6461   19.4882 C   0  0  0  0  0  0
  -24.8947  -27.5551   19.4656 C   0  0  0  0  0  0
  -23.7270  -29.7395   20.1463 C   0  0  0  0  0  0
  -25.4128  -36.2964   24.0303 C   0  0  1  0  0  0
  -20.5942  -28.3825   23.1160 C   0  0  2  0  0  0
  -20.6832  -26.9494   22.5431 C   0  0  0  0  0  0
  -19.5839  -26.6384   21.5250 C   0  0  0  0  0  0
  -18.1982  -26.7965   22.1635 C   0  0  0  0  0  0
  -19.1569  -28.8943   23.2799 C   0  0  0  0  0  0
  -18.9471  -30.1522   23.8852 C   0  0  0  0  0  0
  -17.6462  -30.6638   24.0532 C   0  0  0  0  0  0
  -25.9117  -34.9347   23.5011 C   0  0  0  0  0  0
  -16.5368  -29.9104   23.6343 C   0  0  0  0  0  0
  -16.7296  -28.6506   23.0381 C   0  0  0  0  0  0
  -26.4546  -31.6548   25.0698 C   0  0  0  0  0  0
  -25.3615  -31.3846   26.1324 C   0  0  0  0  0  0
  -27.0462  -30.2914   24.6493 C   0  0  0  0  0  0
  -27.6029  -32.4346   25.7505 C   0  0  0  0  0  0
  -27.5561  -37.1774   24.8463 C   0  0  0  0  0  0
  -21.4349  -29.3125   22.3518 N   0  0  0  0  0  0
  -26.4276  -37.3707   23.9401 N   0  0  0  0  0  0
  -24.7651  -30.9732   22.0839 N   0  0  0  0  0  0
  -23.4199  -28.8028   23.3062 O   0  0  0  0  0  0
  -28.1565  -25.6708   20.2809 O   0  0  0  0  0  0
  -26.5744  -34.8902   22.4622 O   0  0  0  0  0  0
  -23.5765  -32.1176   23.6675 O   0  0  0  0  0  0
  -28.7206  -21.8605   21.6328 C   0  0  0  0  0  0
  -28.5034  -22.4278   20.3704 C   0  0  0  0  0  0
  -28.9821  -19.9141   20.3578 C   0  0  0  0  0  0
  -28.5448  -18.0568   21.8900 C   0  0  0  0  0  0
  -28.9194  -19.4023   22.5971 C   0  0  0  0  0  0
  -28.9409  -18.1303   20.3936 C   0  0  1  0  0  0
  -27.8523  -24.0468   19.9377 C   0  0  0  0  0  0
  -28.9095  -20.4512   21.5735 N   0  0  0  0  0  0
  -28.6858  -21.1257   19.6209 N   0  3  0  0  0  0
  -30.0251  -16.8495   20.1288 N   0  0  0  0  0  0
  -31.4104  -13.1310   19.1095 H   0  0  0  0  0  0
  -30.5097  -12.0752   20.1499 H   0  0  0  0  0  0
  -29.9103  -11.7455   17.7097 H   0  0  0  0  0  0
  -29.4733  -13.4380   17.5899 H   0  0  0  0  0  0
  -28.1043  -11.2707   19.1928 H   0  0  0  0  0  0
  -27.3971  -12.2069   17.9034 H   0  0  0  0  0  0
  -27.4575  -14.2159   19.2331 H   0  0  0  0  0  0
  -28.8521  -12.7150   21.5073 H   0  0  0  0  0  0
  -28.2325  -14.3529   21.5833 H   0  0  0  0  0  0
  -25.2802   -9.5646   22.4775 H   0  0  0  0  0  0
  -24.0007   -7.4619   22.7474 H   0  0  0  0  0  0
  -21.0873   -8.8802   19.8960 H   0  0  0  0  0  0
  -22.3769  -10.9682   19.6187 H   0  0  0  0  0  0
  -21.2007   -7.6169   23.9705 H   0  0  0  0  0  0
  -21.1477   -6.0558   25.9068 H   0  0  0  0  0  0
  -22.0593   -2.7624   23.2860 H   0  0  0  0  0  0
  -22.4055  -11.9781   22.4817 H   0  0  0  0  0  0
  -21.0984  -13.1077   22.2788 H   0  0  0  0  0  0
  -24.6308  -15.8550   20.5103 H   0  0  0  0  0  0
  -26.2550  -15.6303   20.0937 H   0  0  0  0  0  0
  -26.7444  -32.5094   23.0826 H   0  0  0  0  0  0
  -25.0003  -33.9423   25.0087 H   0  0  0  0  0  0
  -22.8125  -31.2669   21.3419 H   0  0  0  0  0  0
  -23.3788  -35.9499   23.3295 H   0  0  0  0  0  0
  -24.3550  -36.8859   22.2054 H   0  0  0  0  0  0
  -23.7222  -37.6374   23.6712 H   0  0  0  0  0  0
  -26.2539  -31.3323   20.6203 H   0  0  0  0  0  0
  -26.9176  -30.6484   22.0665 H   0  0  0  0  0  0
  -28.1459  -28.5073   21.2882 H   0  0  0  0  0  0
  -25.8216  -25.6979   18.9987 H   0  0  0  0  0  0
  -23.9848  -27.2567   18.9608 H   0  0  0  0  0  0
  -23.8849  -30.5035   19.3831 H   0  0  0  0  0  0
  -22.8330  -29.1969   19.8365 H   0  0  0  0  0  0
  -25.1351  -36.1754   25.0801 H   0  0  0  0  0  0
  -20.9956  -28.3515   24.1315 H   0  0  0  0  0  0
  -20.5725  -26.2462   23.3711 H   0  0  0  0  0  0
  -21.6713  -26.7496   22.1282 H   0  0  0  0  0  0
  -19.7026  -25.6248   21.1404 H   0  0  0  0  0  0
  -19.6835  -27.3121   20.6727 H   0  0  0  0  0  0
  -17.4266  -26.6688   21.4032 H   0  0  0  0  0  0
  -18.0367  -26.0115   22.9038 H   0  0  0  0  0  0
  -19.7953  -30.7326   24.2221 H   0  0  0  0  0  0
  -17.5009  -31.6312   24.5126 H   0  0  0  0  0  0
  -15.5367  -30.2989   23.7678 H   0  0  0  0  0  0
  -15.8670  -28.0818   22.7145 H   0  0  0  0  0  0
  -24.5828  -30.7168   25.7600 H   0  0  0  0  0  0
  -24.8767  -32.3075   26.4527 H   0  0  0  0  0  0
  -25.7765  -30.9138   27.0245 H   0  0  0  0  0  0
  -26.3150  -29.6577   24.1473 H   0  0  0  0  0  0
  -27.3942  -29.7301   25.5169 H   0  0  0  0  0  0
  -27.9106  -30.4094   23.9953 H   0  0  0  0  0  0
  -27.2610  -33.3689   26.1957 H   0  0  0  0  0  0
  -28.3902  -32.6838   25.0379 H   0  0  0  0  0  0
  -28.0647  -31.8568   26.5524 H   0  0  0  0  0  0
  -28.2608  -38.0039   24.7528 H   0  0  0  0  0  0
  -28.1040  -36.2608   24.6306 H   0  0  0  0  0  0
  -27.2300  -37.1429   25.8861 H   0  0  0  0  0  0
  -20.9658  -29.8825   21.6611 H   0  0  0  0  0  0
  -26.0147  -38.2785   24.1370 H   0  0  0  0  0  0
  -28.6376  -22.3474   22.5940 H   0  0  0  0  0  0
  -27.4600  -17.9584   21.9378 H   0  0  0  0  0  0
  -28.9493  -17.1886   22.4126 H   0  0  0  0  0  0
  -29.9266  -19.3534   23.0177 H   0  0  0  0  0  0
  -28.2222  -19.6620   23.3950 H   0  0  0  0  0  0
  -28.0757  -17.8913   19.7695 H   0  0  0  0  0  0
  -26.8282  -23.9653   20.3011 H   0  0  0  0  0  0
  -27.7230  -24.0236   18.8586 H   0  0  0  0  0  0
  -28.4952  -21.0789   18.6253 H   0  0  0  0  0  0
  -30.8872  -17.3086   19.8665 H   0  0  0  0  0  0
  1 25  1  0  0  0
  1 30  2  0  0  0
  1 80  1  0  0  0
  2  3  1  0  0  0
  2 25  1  0  0  0
  2 81  1  0  0  0
  2 82  1  0  0  0
  3  4  1  0  0  0
  3 83  1  0  0  0
  3 84  1  0  0  0
  4  5  1  0  0  0
  4 85  1  0  0  0
  4 86  1  0  0  0
  5  6  1  0  0  0
  5 26  1  0  0  0
  5 87  1  0  0  0
  6 25  1  0  0  0
  6 88  1  0  0  0
  6 89  1  0  0  0
  7  8  2  0  0  0
  7 26  1  0  0  0
  7 29  1  0  0  0
  8  9  1  0  0  0
  8 22  1  0  0  0
  9 10  1  0  0  0
  9 27  2  0  0  0
 10 11  2  0  0  0
 10 15  1  0  0  0
 11 12  1  0  0  0
 11 90  1  0  0  0
 12 13  2  0  0  0
 12 91  1  0  0  0
 13 14  1  0  0  0
 13 31  1  0  0  0
 14 15  2  0  0  0
 14 92  1  0  0  0
 15 93  1  0  0  0
 16 17  2  0  0  0
 16 21  1  0  0  0
 16 31  1  0  0  0
 17 18  1  0  0  0
 17 94  1  0  0  0
 18 19  2  0  0  0
 18 95  1  0  0  0
 19 20  1  0  0  0
 19 24  1  0  0  0
 20 21  2  0  0  0
 20 96  1  0  0  0
 21 23  1  0  0  0
 22 28  1  0  0  0
 22 32  2  0  0  0
 26 27  1  0  0  0
 28 97  1  0  0  0
 28 98  1  0  0  0
 29 99  1  0  0  0
 29100  1  0  0  0
 33 34  1  0  0  0
 33 66  1  0  0  0
 33 70  2  0  0  0
 34 36  1  0  0  0
 34 59  1  0  0  0
 34101  1  0  0  0
 35 44  2  0  0  0
 35 45  1  0  0  0
 35 68  1  0  0  0
 36 56  1  0  0  0
 36102  1  0  0  0
 37 39  1  0  0  0
 37 47  1  0  0  0
 37 66  1  0  0  0
 37103  1  0  0  0
 38 43  2  0  0  0
 38 46  1  0  0  0
 38 47  1  0  0  0
 39 64  1  0  0  0
 39 67  2  0  0  0
 40 52  1  0  0  0
 40 53  2  0  0  0
 40 58  1  0  0  0
 41104  1  0  0  0
 41105  1  0  0  0
 41106  1  0  0  0
 41 48  1  0  0  0
 42 43  1  0  0  0
 42 66  1  0  0  0
 42107  1  0  0  0
 42108  1  0  0  0
 43 44  1  0  0  0
 44109  1  0  0  0
 45 46  2  0  0  0
 45110  1  0  0  0
 46111  1  0  0  0
 47112  1  0  0  0
 47113  1  0  0  0
 48 56  1  0  0  0
 48 65  1  0  0  0
 48114  1  0  0  0
 49 50  1  0  0  0
 49 53  1  0  0  0
 49 64  1  0  0  0
 49115  1  0  0  0
 50 51  1  0  0  0
 50116  1  0  0  0
 50117  1  0  0  0
 51 52  1  0  0  0
 51118  1  0  0  0
 51119  1  0  0  0
 52120  1  0  0  0
 52121  1  0  0  0
 53 54  1  0  0  0
 54 55  2  0  0  0
 54122  1  0  0  0
 55 57  1  0  0  0
 55123  1  0  0  0
 56 69  2  0  0  0
 57 58  2  0  0  0
 57124  1  0  0  0
 58125  1  0  0  0
 59 60  1  0  0  0
 59 61  1  0  0  0
 59 62  1  0  0  0
 60126  1  0  0  0
 60127  1  0  0  0
 60128  1  0  0  0
 61129  1  0  0  0
 61130  1  0  0  0
 61131  1  0  0  0
 62132  1  0  0  0
 62133  1  0  0  0
 62134  1  0  0  0
 63 65  1  0  0  0
 63135  1  0  0  0
 63136  1  0  0  0
 63137  1  0  0  0
 64138  1  0  0  0
 65139  1  0  0  0
 68 77  1  0  0  0
 71 72  2  0  0  0
 71 78  1  0  0  0
 71140  1  0  0  0
 72 77  1  0  0  0
 72 79  1  0  0  0
 73 76  1  0  0  0
 73 78  1  0  0  0
 73 79  2  0  0  0
 74 75  1  0  0  0
 74 76  1  0  0  0
 74141  1  0  0  0
 74142  1  0  0  0
 75 78  1  0  0  0
 75143  1  0  0  0
 75144  1  0  0  0
 76 80  1  0  0  0
 76145  1  0  0  0
 77146  1  0  0  0
 77147  1  0  0  0
 79148  1  0  0  0
 80149  1  0  0  0
M  CHG  1  79   1
M  ISO  4   1 100  68 101  77 101  80 100
M  END
> <chiral flag>
0

> <version>
0

> <s_m_source_file>
/data/baiqing/PycharmProjects/Reinvent-master-3.2/result/LINK_invent/BTK/process_docking_weight1_custom_sum_contain_oxygen_bond_distance_aromatic_linkinvent_7_9_3/rearranged_h_0186.sdf

> <i_m_source_file_index>
91

> <r_mmod_Potential_Energy-OPLS-2005>
1663.52966308594

> <r_mmod_Stretch_Energy-OPLS-2005>
704.371032714844

> <r_mmod_Bend_Energy-OPLS-2005>
659.467468261719

> <r_mmod_Torsional_Energy-OPLS-2005>
290.664978027344

> <r_mmod_Improper_Torsional_Energy-OPLS-2005>
24.2469387054443

> <r_mmod_Van_der_Waal_Energy-OPLS-2005>
108.003044128418

> <r_mmod_Electrostatic_Energy-OPLS-2005>
-290.491943359375

> <r_mmod_Solvation_Energy-OPLS-2005>
-451.505401611328

> <b_mmod_Minimization_Converged-OPLS-2005>
0

> <r_mmod_RMS_Derivative-OPLS-2005>
4.89194631576538

$$$$
92
                    3D
 Structure written by MMmdl.
161170  0  0  1  0            999 V2000
  -30.4137  -15.3580   20.3526 C   0  0  0  0  0  0
  -30.4309  -12.8902   19.4989 C   0  0  0  0  0  0
  -29.5286  -12.5677   18.2832 C   0  0  0  0  0  0
  -28.0922  -12.2665   18.7392 C   0  0  0  0  0  0
  -27.6021  -13.2712   19.8097 C   0  0  2  0  0  0
  -28.6398  -13.5081   20.9236 C   0  0  0  0  0  0
  -25.2396  -13.8231   20.5783 C   0  0  0  0  0  0
  -24.1749  -13.0438   20.9281 C   0  0  0  0  0  0
  -24.6403  -11.6926   20.8814 C   0  0  0  0  0  0
  -23.9114  -10.4287   21.0446 C   0  0  0  0  0  0
  -24.3658   -9.4183   21.9211 C   0  0  0  0  0  0
  -23.6319   -8.2225   22.0770 C   0  0  0  0  0  0
  -22.4289   -8.0296   21.3557 C   0  0  0  0  0  0
  -21.9943   -9.0279   20.4653 C   0  0  0  0  0  0
  -22.7288  -10.2144   20.3082 C   0  0  0  0  0  0
  -21.6845   -6.0749   22.5277 C   0  0  0  0  0  0
  -21.3987   -6.5652   23.8212 C   0  0  0  0  0  0
  -21.3651   -5.6808   24.9174 C   0  0  0  0  0  0
  -21.6052   -4.3075   24.7230 C   0  0  0  0  0  0
  -21.8814   -3.8161   23.4349 C   0  0  0  0  0  0
  -21.9183   -4.6977   22.3402 C   0  0  0  0  0  0
  -22.7761  -13.5193   21.1920 C   0  0  0  0  0  0
  -22.1661   -4.2160   21.0976 F   0  0  0  0  0  0
  -21.5643   -3.4551   25.7739 F   0  0  0  0  0  0
  -29.8265  -14.0582   20.2458 N   0  0  0  0  0  0
  -26.2800  -12.9486   20.3230 N   0  0  0  0  0  0
  -25.9335  -11.6607   20.5782 N   0  0  0  0  0  0
  -22.0418  -12.8168   22.0458 N   0  0  0  0  0  0
  -25.4077  -15.1977   20.4208 N   0  0  0  0  0  0
  -31.6541  -15.2694   20.3637 O   0  0  0  0  0  0
  -21.6641   -6.8900   21.4246 O   0  0  0  0  0  0
  -22.3440  -14.5508   20.6776 O   0  0  0  0  0  0
  -24.6712  -31.8163   23.1635 C   0  0  0  0  0  0
  -25.9372  -32.4540   23.8120 C   0  0  1  0  0  0
  -27.2054  -26.8702   20.1934 C   0  0  0  0  0  0
  -25.6000  -33.8360   24.2007 N   0  0  0  0  0  0
  -23.4867  -30.4272   21.5146 C   0  0  2  0  0  0
  -24.9357  -28.8016   20.1166 C   0  0  0  0  0  0
  -22.7690  -29.4421   22.4758 C   0  0  0  0  0  0
  -18.0319  -28.1425   22.8452 C   0  0  0  0  0  0
  -24.1487  -36.7205   23.2649 C   0  0  0  0  0  0
  -26.0594  -30.6040   21.4031 C   0  0  0  0  0  0
  -26.1216  -29.1858   20.7563 C   0  0  0  0  0  0
  -27.2522  -28.2425   20.7688 C   0  0  0  0  0  0
  -25.9957  -26.6570   19.4972 C   0  0  0  0  0  0
  -24.9005  -27.5584   19.4665 C   0  0  0  0  0  0
  -23.7284  -29.7383   20.1440 C   0  0  0  0  0  0
  -25.4139  -36.2933   24.0274 C   0  0  1  0  0  0
  -20.5955  -28.3781   23.1155 C   0  0  2  0  0  0
  -20.6803  -26.9457   22.5392 C   0  0  0  0  0  0
  -19.5776  -26.6392   21.5203 C   0  0  0  0  0  0
  -18.1958  -26.7955   22.1617 C   0  0  0  0  0  0
  -19.1587  -28.8923   23.2793 C   0  0  0  0  0  0
  -18.9494  -30.1505   23.8844 C   0  0  0  0  0  0
  -17.6487  -30.6603   24.0566 C   0  0  0  0  0  0
  -25.9106  -34.9321   23.4964 C   0  0  0  0  0  0
  -16.5376  -29.9101   23.6351 C   0  0  0  0  0  0
  -16.7303  -28.6531   23.0362 C   0  0  0  0  0  0
  -26.4589  -31.6528   25.0689 C   0  0  0  0  0  0
  -25.3683  -31.3842   26.1328 C   0  0  0  0  0  0
  -27.0493  -30.2873   24.6486 C   0  0  0  0  0  0
  -27.6046  -32.4351   25.7522 C   0  0  0  0  0  0
  -27.5541  -37.1778   24.8473 C   0  0  0  0  0  0
  -21.4357  -29.3058   22.3504 N   0  0  0  0  0  0
  -26.4278  -37.3673   23.9370 N   0  0  0  0  0  0
  -24.7614  -30.9782   22.0797 N   0  0  0  0  0  0
  -23.4210  -28.7999   23.3022 O   0  0  0  0  0  0
  -28.2015  -25.7419   20.1756 O   0  0  0  0  0  0
  -26.5735  -34.8870   22.4562 O   0  0  0  0  0  0
  -23.5761  -32.1150   23.6697 O   0  0  0  0  0  0
  -28.7834  -22.9305   19.9868 C   0  0  0  0  0  0
  -28.4955  -21.4823   20.4370 C   0  0  0  0  0  0
  -28.0403  -24.2132   20.4164 C   0  0  0  0  0  0
  -26.7908  -22.6244   21.6156 C   0  0  0  0  0  0
  -30.3498  -17.1005   18.6899 C   0  0  0  0  0  0
  -30.9937  -18.6303   21.1514 C   0  0  0  0  0  0
  -29.5927  -18.2755   20.6192 C   0  0  2  0  0  0
  -31.7012  -17.8973   18.8355 C   0  0  2  0  0  0
  -25.5797  -22.4305   22.5038 C   0  0  0  0  0  0
  -32.8508  -17.2493   18.0452 C   0  0  0  0  0  0
  -28.9531  -19.8479   19.8823 C   0  0  0  0  0  0
  -27.4356  -21.4892   21.2799 N   0  0  0  0  0  0
  -27.0293  -23.8970   21.2513 N   0  0  0  0  0  0
  -29.7828  -16.6958   19.9947 N   0  0  0  0  0  0
  -32.0817  -18.1393   20.2599 N   0  3  0  0  0  0
  -29.7579  -20.1446   18.8666 F   0  0  0  0  0  0
  -27.8180  -19.4178   19.3304 F   0  0  0  0  0  0
  -31.4365  -13.1245   19.1455 H   0  0  0  0  0  0
  -30.5458  -12.0184   20.1445 H   0  0  0  0  0  0
  -29.9312  -11.7258   17.7192 H   0  0  0  0  0  0
  -29.5221  -13.4188   17.6020 H   0  0  0  0  0  0
  -28.0911  -11.2631   19.1671 H   0  0  0  0  0  0
  -27.4101  -12.2392   17.8875 H   0  0  0  0  0  0
  -27.4965  -14.2155   19.2762 H   0  0  0  0  0  0
  -28.8547  -12.5931   21.4777 H   0  0  0  0  0  0
  -28.2638  -14.2306   21.6509 H   0  0  0  0  0  0
  -25.2794   -9.5638   22.4811 H   0  0  0  0  0  0
  -24.0003   -7.4605   22.7490 H   0  0  0  0  0  0
  -21.0877   -8.8839   19.8961 H   0  0  0  0  0  0
  -22.3778  -10.9720   19.6224 H   0  0  0  0  0  0
  -21.1962   -7.6154   23.9714 H   0  0  0  0  0  0
  -21.1487   -6.0539   25.9082 H   0  0  0  0  0  0
  -22.0601   -2.7627   23.2847 H   0  0  0  0  0  0
  -22.4024  -11.9814   22.4819 H   0  0  0  0  0  0
  -21.1051  -13.1211   22.2686 H   0  0  0  0  0  0
  -24.6467  -15.8554   20.5509 H   0  0  0  0  0  0
  -26.2567  -15.6384   20.0906 H   0  0  0  0  0  0
  -26.7465  -32.5054   23.0852 H   0  0  0  0  0  0
  -25.0082  -33.9427   25.0114 H   0  0  0  0  0  0
  -22.8034  -31.2612   21.3374 H   0  0  0  0  0  0
  -23.3704  -35.9586   23.3344 H   0  0  0  0  0  0
  -24.3548  -36.8820   22.2057 H   0  0  0  0  0  0
  -23.7311  -37.6428   23.6696 H   0  0  0  0  0  0
  -26.2422  -31.3325   20.6133 H   0  0  0  0  0  0
  -26.9210  -30.6676   22.0568 H   0  0  0  0  0  0
  -28.1559  -28.5411   21.2803 H   0  0  0  0  0  0
  -25.8684  -25.7107   18.9910 H   0  0  0  0  0  0
  -24.0050  -27.2602   18.9383 H   0  0  0  0  0  0
  -23.8903  -30.5004   19.3803 H   0  0  0  0  0  0
  -22.8372  -29.1935   19.8282 H   0  0  0  0  0  0
  -25.1343  -36.1725   25.0766 H   0  0  0  0  0  0
  -21.0025  -28.3402   24.1284 H   0  0  0  0  0  0
  -20.5668  -26.2409   23.3646 H   0  0  0  0  0  0
  -21.6670  -26.7428   22.1210 H   0  0  0  0  0  0
  -19.6942  -25.6286   21.1279 H   0  0  0  0  0  0
  -19.6716  -27.3166   20.6705 H   0  0  0  0  0  0
  -17.4224  -26.6672   21.4030 H   0  0  0  0  0  0
  -18.0370  -26.0116   22.9035 H   0  0  0  0  0  0
  -19.7975  -30.7333   24.2188 H   0  0  0  0  0  0
  -17.5050  -31.6274   24.5184 H   0  0  0  0  0  0
  -15.5386  -30.2998   23.7703 H   0  0  0  0  0  0
  -15.8703  -28.0843   22.7106 H   0  0  0  0  0  0
  -24.5890  -30.7151   25.7654 H   0  0  0  0  0  0
  -24.8865  -32.3080   26.4540 H   0  0  0  0  0  0
  -25.7902  -30.9170   27.0238 H   0  0  0  0  0  0
  -26.3188  -29.6522   24.1466 H   0  0  0  0  0  0
  -27.3950  -29.7273   25.5187 H   0  0  0  0  0  0
  -27.9148  -30.3995   23.9954 H   0  0  0  0  0  0
  -27.2578  -33.3690   26.1956 H   0  0  0  0  0  0
  -28.3968  -32.6852   25.0451 H   0  0  0  0  0  0
  -28.0597  -31.8580   26.5584 H   0  0  0  0  0  0
  -28.2600  -38.0022   24.7400 H   0  0  0  0  0  0
  -28.0985  -36.2544   24.6450 H   0  0  0  0  0  0
  -27.2243  -37.1604   25.8875 H   0  0  0  0  0  0
  -20.9622  -29.8751   21.6630 H   0  0  0  0  0  0
  -26.0107  -38.2729   24.1328 H   0  0  0  0  0  0
  -29.5867  -23.0592   19.2733 H   0  0  0  0  0  0
  -30.4857  -16.2394   18.0303 H   0  0  0  0  0  0
  -29.6162  -17.7063   18.1524 H   0  0  0  0  0  0
  -31.1345  -18.1866   22.1386 H   0  0  0  0  0  0
  -31.0742  -19.7074   21.2906 H   0  0  0  0  0  0
  -28.9382  -18.1222   21.4763 H   0  0  0  0  0  0
  -31.5763  -18.8769   18.3771 H   0  0  0  0  0  0
  -25.0386  -23.3624   22.6701 H   0  0  0  0  0  0
  -25.8744  -22.0310   23.4737 H   0  0  0  0  0  0
  -24.8859  -21.7296   22.0419 H   0  0  0  0  0  0
  -32.5941  -17.1509   16.9906 H   0  0  0  0  0  0
  -33.0884  -16.2542   18.4148 H   0  0  0  0  0  0
  -33.7590  -17.8498   18.0992 H   0  0  0  0  0  0
  -32.3926  -17.2483   20.6262 H   0  0  0  0  0  0
  -32.8629  -18.7753   20.3236 H   0  0  0  0  0  0
  1 25  1  0  0  0
  1 30  2  0  0  0
  1 84  1  0  0  0
  2  3  1  0  0  0
  2 25  1  0  0  0
  2 88  1  0  0  0
  2 89  1  0  0  0
  3  4  1  0  0  0
  3 90  1  0  0  0
  3 91  1  0  0  0
  4  5  1  0  0  0
  4 92  1  0  0  0
  4 93  1  0  0  0
  5  6  1  0  0  0
  5 26  1  0  0  0
  5 94  1  0  0  0
  6 25  1  0  0  0
  6 95  1  0  0  0
  6 96  1  0  0  0
  7  8  2  0  0  0
  7 26  1  0  0  0
  7 29  1  0  0  0
  8  9  1  0  0  0
  8 22  1  0  0  0
  9 10  1  0  0  0
  9 27  2  0  0  0
 10 11  2  0  0  0
 10 15  1  0  0  0
 11 12  1  0  0  0
 11 97  1  0  0  0
 12 13  2  0  0  0
 12 98  1  0  0  0
 13 14  1  0  0  0
 13 31  1  0  0  0
 14 15  2  0  0  0
 14 99  1  0  0  0
 15100  1  0  0  0
 16 17  2  0  0  0
 16 21  1  0  0  0
 16 31  1  0  0  0
 17 18  1  0  0  0
 17101  1  0  0  0
 18 19  2  0  0  0
 18102  1  0  0  0
 19 20  1  0  0  0
 19 24  1  0  0  0
 20 21  2  0  0  0
 20103  1  0  0  0
 21 23  1  0  0  0
 22 28  1  0  0  0
 22 32  2  0  0  0
 26 27  1  0  0  0
 28104  1  0  0  0
 28105  1  0  0  0
 29106  1  0  0  0
 29107  1  0  0  0
 33 34  1  0  0  0
 33 66  1  0  0  0
 33 70  2  0  0  0
 34 36  1  0  0  0
 34 59  1  0  0  0
 34108  1  0  0  0
 35 44  2  0  0  0
 35 45  1  0  0  0
 35 68  1  0  0  0
 36 56  1  0  0  0
 36109  1  0  0  0
 37 39  1  0  0  0
 37 47  1  0  0  0
 37 66  1  0  0  0
 37110  1  0  0  0
 38 43  2  0  0  0
 38 46  1  0  0  0
 38 47  1  0  0  0
 39 64  1  0  0  0
 39 67  2  0  0  0
 40 52  1  0  0  0
 40 53  2  0  0  0
 40 58  1  0  0  0
 41111  1  0  0  0
 41112  1  0  0  0
 41113  1  0  0  0
 41 48  1  0  0  0
 42 43  1  0  0  0
 42 66  1  0  0  0
 42114  1  0  0  0
 42115  1  0  0  0
 43 44  1  0  0  0
 44116  1  0  0  0
 45 46  2  0  0  0
 45117  1  0  0  0
 46118  1  0  0  0
 47119  1  0  0  0
 47120  1  0  0  0
 48 56  1  0  0  0
 48 65  1  0  0  0
 48121  1  0  0  0
 49 50  1  0  0  0
 49 53  1  0  0  0
 49 64  1  0  0  0
 49122  1  0  0  0
 50 51  1  0  0  0
 50123  1  0  0  0
 50124  1  0  0  0
 51 52  1  0  0  0
 51125  1  0  0  0
 51126  1  0  0  0
 52127  1  0  0  0
 52128  1  0  0  0
 53 54  1  0  0  0
 54 55  2  0  0  0
 54129  1  0  0  0
 55 57  1  0  0  0
 55130  1  0  0  0
 56 69  2  0  0  0
 57 58  2  0  0  0
 57131  1  0  0  0
 58132  1  0  0  0
 59 60  1  0  0  0
 59 61  1  0  0  0
 59 62  1  0  0  0
 60133  1  0  0  0
 60134  1  0  0  0
 60135  1  0  0  0
 61136  1  0  0  0
 61137  1  0  0  0
 61138  1  0  0  0
 62139  1  0  0  0
 62140  1  0  0  0
 62141  1  0  0  0
 63 65  1  0  0  0
 63142  1  0  0  0
 63143  1  0  0  0
 63144  1  0  0  0
 64145  1  0  0  0
 65146  1  0  0  0
 68 73  1  0  0  0
 71 72  2  0  0  0
 71 73  1  0  0  0
 71147  1  0  0  0
 72 81  1  0  0  0
 72 82  1  0  0  0
 73 83  2  0  0  0
 74 79  1  0  0  0
 74 82  2  0  0  0
 74 83  1  0  0  0
 75 78  1  0  0  0
 75 84  1  0  0  0
 75148  1  0  0  0
 75149  1  0  0  0
 76 85  1  0  0  0
 76150  1  0  0  0
 76151  1  0  0  0
 76 77  1  0  0  0
 77 81  1  0  0  0
 77 84  1  0  0  0
 77152  1  0  0  0
 78 80  1  0  0  0
 78 85  1  0  0  0
 78153  1  0  0  0
 79154  1  0  0  0
 79155  1  0  0  0
 79156  1  0  0  0
 80157  1  0  0  0
 80158  1  0  0  0
 80159  1  0  0  0
 81 86  1  0  0  0
 81 87  1  0  0  0
 85160  1  0  0  0
 85161  1  0  0  0
M  CHG  1  85   1
M  ISO  4   1 100  68 101  73 101  84 100
M  END
> <chiral flag>
0

> <version>
0

> <s_m_source_file>
/data/baiqing/PycharmProjects/Reinvent-master-3.2/result/LINK_invent/BTK/process_docking_weight1_custom_sum_contain_oxygen_bond_distance_aromatic_linkinvent_7_9_3/rearranged_h_0186.sdf

> <i_m_source_file_index>
92

> <r_mmod_Potential_Energy-OPLS-2005>
1130.75146484375

> <r_mmod_Stretch_Energy-OPLS-2005>
667.180358886719

> <r_mmod_Bend_Energy-OPLS-2005>
501.076995849609

> <r_mmod_Torsional_Energy-OPLS-2005>
423.918365478516

> <r_mmod_Improper_Torsional_Energy-OPLS-2005>
22.8198070526123

> <r_mmod_Van_der_Waal_Energy-OPLS-2005>
157.424194335938

> <r_mmod_Electrostatic_Energy-OPLS-2005>
-746.913696289062

> <r_mmod_Solvation_Energy-OPLS-2005>
-454.529327392578

> <b_mmod_Minimization_Converged-OPLS-2005>
0

> <r_mmod_RMS_Derivative-OPLS-2005>
3.44893765449524

$$$$
94
                    3D
 Structure written by MMmdl.
164173  0  0  1  0            999 V2000
  -30.6546  -14.5778   20.4797 C   0  0  0  0  0  0
  -30.4270  -12.3492   19.4312 C   0  0  0  0  0  0
  -29.4962  -12.4878   18.2067 C   0  0  0  0  0  0
  -28.0194  -12.3347   18.6253 C   0  0  0  0  0  0
  -27.6511  -13.2088   19.8543 C   0  0  2  0  0  0
  -28.7000  -13.0601   20.9797 C   0  0  0  0  0  0
  -25.2563  -13.8150   20.5675 C   0  0  0  0  0  0
  -24.1826  -13.0429   20.9194 C   0  0  0  0  0  0
  -24.6383  -11.6900   20.8740 C   0  0  0  0  0  0
  -23.9046  -10.4286   21.0415 C   0  0  0  0  0  0
  -24.3608   -9.4203   21.9189 C   0  0  0  0  0  0
  -23.6290   -8.2236   22.0757 C   0  0  0  0  0  0
  -22.4268   -8.0276   21.3547 C   0  0  0  0  0  0
  -21.9900   -9.0244   20.4643 C   0  0  0  0  0  0
  -22.7226  -10.2127   20.3058 C   0  0  0  0  0  0
  -21.6851   -6.0733   22.5282 C   0  0  0  0  0  0
  -21.4013   -6.5639   23.8212 C   0  0  0  0  0  0
  -21.3657   -5.6794   24.9178 C   0  0  0  0  0  0
  -21.6043   -4.3054   24.7233 C   0  0  0  0  0  0
  -21.8816   -3.8145   23.4352 C   0  0  0  0  0  0
  -21.9191   -4.6961   22.3410 C   0  0  0  0  0  0
  -22.7849  -13.5235   21.1854 C   0  0  0  0  0  0
  -22.1661   -4.2147   21.0987 F   0  0  0  0  0  0
  -21.5626   -3.4538   25.7744 F   0  0  0  0  0  0
  -30.0174  -13.3733   20.4055 N   0  0  0  0  0  0
  -26.2978  -12.9322   20.3295 N   0  0  0  0  0  0
  -25.9308  -11.6479   20.5749 N   0  0  0  0  0  0
  -22.0491  -12.8226   22.0407 N   0  0  0  0  0  0
  -25.4255  -15.1875   20.4070 N   0  0  0  0  0  0
  -31.8296  -14.7291   20.1389 O   0  0  0  0  0  0
  -21.6635   -6.8876   21.4241 O   0  0  0  0  0  0
  -22.3538  -14.5550   20.6709 O   0  0  0  0  0  0
  -24.6223  -31.8619   23.2059 C   0  0  0  0  0  0
  -25.9089  -32.4785   23.8369 C   0  0  1  0  0  0
  -27.2368  -27.3698   20.0991 C   0  0  0  0  0  0
  -25.5948  -33.8591   24.2299 N   0  0  0  0  0  0
  -23.4143  -30.4846   21.5444 C   0  0  2  0  0  0
  -24.8604  -28.9362   20.1205 C   0  0  0  0  0  0
  -22.7458  -29.4640   22.4937 C   0  0  0  0  0  0
  -18.0280  -28.1386   22.8483 C   0  0  0  0  0  0
  -24.1483  -36.7289   23.2639 C   0  0  0  0  0  0
  -25.9501  -30.8073   21.3684 C   0  0  0  0  0  0
  -26.0262  -29.4361   20.7142 C   0  0  0  0  0  0
  -27.2190  -28.6640   20.6912 C   0  0  0  0  0  0
  -26.0475  -26.8943   19.5102 C   0  0  0  0  0  0
  -24.8705  -27.6681   19.5145 C   0  0  0  0  0  0
  -23.6279  -29.8148   20.1619 C   0  0  0  0  0  0
  -25.4106  -36.3096   24.0337 C   0  0  1  0  0  0
  -20.5871  -28.3677   23.1311 C   0  0  2  0  0  0
  -20.6768  -26.9404   22.5421 C   0  0  0  0  0  0
  -19.5755  -26.6382   21.5220 C   0  0  0  0  0  0
  -18.1922  -26.7929   22.1619 C   0  0  0  0  0  0
  -19.1524  -28.8843   23.2891 C   0  0  0  0  0  0
  -18.9459  -30.1443   23.8902 C   0  0  0  0  0  0
  -17.6466  -30.6583   24.0561 C   0  0  0  0  0  0
  -25.9056  -34.9466   23.5111 C   0  0  0  0  0  0
  -16.5352  -29.9088   23.6333 C   0  0  0  0  0  0
  -16.7270  -28.6508   23.0347 C   0  0  0  0  0  0
  -26.4481  -31.6597   25.0728 C   0  0  0  0  0  0
  -25.3723  -31.3751   26.1474 C   0  0  0  0  0  0
  -27.0317  -30.3030   24.6148 C   0  0  0  0  0  0
  -27.6058  -32.4325   25.7479 C   0  0  0  0  0  0
  -27.5571  -37.1803   24.8462 C   0  0  0  0  0  0
  -21.4170  -29.3053   22.3704 N   0  0  0  0  0  0
  -26.4274  -37.3796   23.9420 N   0  0  0  0  0  0
  -24.6801  -31.0683   22.0970 N   0  0  0  0  0  0
  -23.4208  -28.8173   23.2990 O   0  0  0  0  0  0
  -28.3917  -26.5963   20.0630 O   0  0  0  0  0  0
  -26.5599  -34.8924   22.4664 O   0  0  0  0  0  0
  -23.5403  -32.1386   23.7432 O   0  0  0  0  0  0
  -27.9759  -21.8598   17.9925 C   0  0  0  0  0  0
  -27.7977  -23.2010   17.5611 C   0  0  0  0  0  0
  -28.4649  -21.7010   19.3169 C   0  0  0  0  0  0
  -28.3824  -24.0193   19.6287 C   0  0  0  0  0  0
  -27.5494  -20.6834   17.1449 C   0  0  0  0  0  0
  -30.6066  -19.5920   18.4791 C   0  0  0  0  0  0
  -29.9122  -19.6544   19.8436 C   0  0  2  0  0  0
  -29.8557  -18.0782   19.7294 C   0  0  2  0  0  0
  -27.2829  -23.5726   16.1795 C   0  0  0  0  0  0
  -28.3271  -25.2341   20.6060 C   0  0  0  0  0  0
  -30.2471  -17.0914   20.8886 C   0  0  0  0  0  0
  -28.0055  -24.2535   18.3766 N   0  0  0  0  0  0
  -28.6708  -22.7888   20.1126 N   0  0  0  0  0  0
  -28.0292  -20.5789   15.9071 N   0  0  0  0  0  0
  -28.6289  -20.4076   19.8958 N   0  0  0  0  0  0
  -29.8641  -15.6541   20.7337 N   0  0  0  0  0  0
  -30.9799  -18.2176   18.7920 N   0  3  0  0  0  0
  -26.8209  -19.8109   17.6125 O   0  0  0  0  0  0
  -31.4711  -12.4558   19.1307 H   0  0  0  0  0  0
  -30.3398  -11.3540   19.8697 H   0  0  0  0  0  0
  -29.7493  -11.7385   17.4548 H   0  0  0  0  0  0
  -29.6462  -13.4597   17.7336 H   0  0  0  0  0  0
  -27.8523  -11.2829   18.8596 H   0  0  0  0  0  0
  -27.3626  -12.5668   17.7861 H   0  0  0  0  0  0
  -27.6686  -14.2430   19.5113 H   0  0  0  0  0  0
  -28.6967  -12.0436   21.3730 H   0  0  0  0  0  0
  -28.4623  -13.7083   21.8251 H   0  0  0  0  0  0
  -25.2760   -9.5682   22.4760 H   0  0  0  0  0  0
  -23.9999   -7.4625   22.7481 H   0  0  0  0  0  0
  -21.0827   -8.8760   19.8951 H   0  0  0  0  0  0
  -22.3684  -10.9665   19.6162 H   0  0  0  0  0  0
  -21.2004   -7.6146   23.9718 H   0  0  0  0  0  0
  -21.1481   -6.0525   25.9079 H   0  0  0  0  0  0
  -22.0597   -2.7608   23.2856 H   0  0  0  0  0  0
  -22.4091  -11.9883   22.4797 H   0  0  0  0  0  0
  -21.1110  -13.1251   22.2617 H   0  0  0  0  0  0
  -24.6533  -15.8370   20.5093 H   0  0  0  0  0  0
  -26.2644  -15.6256   20.0494 H   0  0  0  0  0  0
  -26.7142  -32.5451   23.1104 H   0  0  0  0  0  0
  -25.0162  -33.9738   25.0488 H   0  0  0  0  0  0
  -22.7059  -31.3021   21.3990 H   0  0  0  0  0  0
  -23.3754  -35.9616   23.3300 H   0  0  0  0  0  0
  -24.3572  -36.8900   22.2053 H   0  0  0  0  0  0
  -23.7223  -37.6489   23.6650 H   0  0  0  0  0  0
  -26.0799  -31.5714   20.6005 H   0  0  0  0  0  0
  -26.8329  -30.8531   21.9941 H   0  0  0  0  0  0
  -28.1212  -29.0515   21.1424 H   0  0  0  0  0  0
  -26.0229  -25.9252   19.0344 H   0  0  0  0  0  0
  -23.9766  -27.2753   19.0502 H   0  0  0  0  0  0
  -23.7483  -30.5892   19.4035 H   0  0  0  0  0  0
  -22.7498  -29.2433   19.8555 H   0  0  0  0  0  0
  -25.1277  -36.1961   25.0828 H   0  0  0  0  0  0
  -20.9948  -28.3236   24.1441 H   0  0  0  0  0  0
  -20.5682  -26.2269   23.3600 H   0  0  0  0  0  0
  -21.6629  -26.7447   22.1202 H   0  0  0  0  0  0
  -19.6922  -25.6302   21.1238 H   0  0  0  0  0  0
  -19.6709  -27.3185   20.6751 H   0  0  0  0  0  0
  -17.4201  -26.6679   21.4011 H   0  0  0  0  0  0
  -18.0316  -26.0062   22.9004 H   0  0  0  0  0  0
  -19.7935  -30.7248   24.2269 H   0  0  0  0  0  0
  -17.5029  -31.6267   24.5153 H   0  0  0  0  0  0
  -15.5357  -30.3001   23.7658 H   0  0  0  0  0  0
  -15.8663  -28.0836   22.7076 H   0  0  0  0  0  0
  -24.5900  -30.7080   25.7822 H   0  0  0  0  0  0
  -24.8899  -32.2920   26.4895 H   0  0  0  0  0  0
  -25.8055  -30.8958   27.0259 H   0  0  0  0  0  0
  -26.2887  -29.6789   24.1166 H   0  0  0  0  0  0
  -27.4021  -29.7291   25.4648 H   0  0  0  0  0  0
  -27.8743  -30.4319   23.9351 H   0  0  0  0  0  0
  -27.2688  -33.3623   26.2074 H   0  0  0  0  0  0
  -28.3844  -32.6890   25.0283 H   0  0  0  0  0  0
  -28.0734  -31.8439   26.5378 H   0  0  0  0  0  0
  -28.2602  -38.0094   24.7518 H   0  0  0  0  0  0
  -28.1057  -36.2632   24.6264 H   0  0  0  0  0  0
  -27.2296  -37.1411   25.8867 H   0  0  0  0  0  0
  -20.9345  -29.8784   21.6924 H   0  0  0  0  0  0
  -26.0167  -38.2869   24.1445 H   0  0  0  0  0  0
  -31.4606  -20.2594   18.3583 H   0  0  0  0  0  0
  -29.9626  -19.6077   17.6040 H   0  0  0  0  0  0
  -30.5996  -19.9789   20.6283 H   0  0  0  0  0  0
  -28.9589  -17.7638   19.1891 H   0  0  0  0  0  0
  -28.0677  -23.4460   15.4339 H   0  0  0  0  0  0
  -26.9499  -24.6107   16.1446 H   0  0  0  0  0  0
  -26.4333  -22.9522   15.8975 H   0  0  0  0  0  0
  -29.1632  -25.1380   21.2990 H   0  0  0  0  0  0
  -27.4294  -25.1226   21.2186 H   0  0  0  0  0  0
  -29.7551  -17.4250   21.8022 H   0  0  0  0  0  0
  -31.3122  -17.1629   21.1150 H   0  0  0  0  0  0
  -28.6915  -21.2381   15.5212 H   0  0  0  0  0  0
  -27.7510  -19.7955   15.3290 H   0  0  0  0  0  0
  -27.8881  -19.8266   19.5091 H   0  0  0  0  0  0
  -28.8986  -15.4351   20.9308 H   0  0  0  0  0  0
  -31.8763  -18.1775   19.2501 H   0  0  0  0  0  0
  -30.9472  -17.5973   17.9981 H   0  0  0  0  0  0
  1 25  1  0  0  0
  1 30  2  0  0  0
  1 86  1  0  0  0
  2  3  1  0  0  0
  2 25  1  0  0  0
  2 89  1  0  0  0
  2 90  1  0  0  0
  3  4  1  0  0  0
  3 91  1  0  0  0
  3 92  1  0  0  0
  4  5  1  0  0  0
  4 93  1  0  0  0
  4 94  1  0  0  0
  5  6  1  0  0  0
  5 26  1  0  0  0
  5 95  1  0  0  0
  6 25  1  0  0  0
  6 96  1  0  0  0
  6 97  1  0  0  0
  7  8  2  0  0  0
  7 26  1  0  0  0
  7 29  1  0  0  0
  8  9  1  0  0  0
  8 22  1  0  0  0
  9 10  1  0  0  0
  9 27  2  0  0  0
 10 11  2  0  0  0
 10 15  1  0  0  0
 11 12  1  0  0  0
 11 98  1  0  0  0
 12 13  2  0  0  0
 12 99  1  0  0  0
 13 14  1  0  0  0
 13 31  1  0  0  0
 14 15  2  0  0  0
 14100  1  0  0  0
 15101  1  0  0  0
 16 17  2  0  0  0
 16 21  1  0  0  0
 16 31  1  0  0  0
 17 18  1  0  0  0
 17102  1  0  0  0
 18 19  2  0  0  0
 18103  1  0  0  0
 19 20  1  0  0  0
 19 24  1  0  0  0
 20 21  2  0  0  0
 20104  1  0  0  0
 21 23  1  0  0  0
 22 28  1  0  0  0
 22 32  2  0  0  0
 26 27  1  0  0  0
 28105  1  0  0  0
 28106  1  0  0  0
 29107  1  0  0  0
 29108  1  0  0  0
 33 34  1  0  0  0
 33 66  1  0  0  0
 33 70  2  0  0  0
 34 36  1  0  0  0
 34 59  1  0  0  0
 34109  1  0  0  0
 35 44  2  0  0  0
 35 45  1  0  0  0
 35 68  1  0  0  0
 36 56  1  0  0  0
 36110  1  0  0  0
 37 39  1  0  0  0
 37 47  1  0  0  0
 37 66  1  0  0  0
 37111  1  0  0  0
 38 43  2  0  0  0
 38 46  1  0  0  0
 38 47  1  0  0  0
 39 64  1  0  0  0
 39 67  2  0  0  0
 40 52  1  0  0  0
 40 53  2  0  0  0
 40 58  1  0  0  0
 41112  1  0  0  0
 41113  1  0  0  0
 41114  1  0  0  0
 41 48  1  0  0  0
 42 43  1  0  0  0
 42 66  1  0  0  0
 42115  1  0  0  0
 42116  1  0  0  0
 43 44  1  0  0  0
 44117  1  0  0  0
 45 46  2  0  0  0
 45118  1  0  0  0
 46119  1  0  0  0
 47120  1  0  0  0
 47121  1  0  0  0
 48 56  1  0  0  0
 48 65  1  0  0  0
 48122  1  0  0  0
 49 50  1  0  0  0
 49 53  1  0  0  0
 49 64  1  0  0  0
 49123  1  0  0  0
 50 51  1  0  0  0
 50124  1  0  0  0
 50125  1  0  0  0
 51 52  1  0  0  0
 51126  1  0  0  0
 51127  1  0  0  0
 52128  1  0  0  0
 52129  1  0  0  0
 53 54  1  0  0  0
 54 55  2  0  0  0
 54130  1  0  0  0
 55 57  1  0  0  0
 55131  1  0  0  0
 56 69  2  0  0  0
 57 58  2  0  0  0
 57132  1  0  0  0
 58133  1  0  0  0
 59 60  1  0  0  0
 59 61  1  0  0  0
 59 62  1  0  0  0
 60134  1  0  0  0
 60135  1  0  0  0
 60136  1  0  0  0
 61137  1  0  0  0
 61138  1  0  0  0
 61139  1  0  0  0
 62140  1  0  0  0
 62141  1  0  0  0
 62142  1  0  0  0
 63 65  1  0  0  0
 63143  1  0  0  0
 63144  1  0  0  0
 63145  1  0  0  0
 64146  1  0  0  0
 65147  1  0  0  0
 68 80  1  0  0  0
 71 72  2  0  0  0
 71 73  1  0  0  0
 71 75  1  0  0  0
 72 79  1  0  0  0
 72 82  1  0  0  0
 73 83  2  0  0  0
 73 85  1  0  0  0
 74 80  1  0  0  0
 74 82  2  0  0  0
 74 83  1  0  0  0
 75 84  1  0  0  0
 75 88  2  0  0  0
 76 77  1  0  0  0
 76 87  1  0  0  0
 76148  1  0  0  0
 76149  1  0  0  0
 77 78  1  0  0  0
 77 85  1  0  0  0
 77150  1  0  0  0
 78 81  1  0  0  0
 78 87  1  0  0  0
 78151  1  0  0  0
 79152  1  0  0  0
 79153  1  0  0  0
 79154  1  0  0  0
 80155  1  0  0  0
 80156  1  0  0  0
 81 86  1  0  0  0
 81157  1  0  0  0
 81158  1  0  0  0
 84159  1  0  0  0
 84160  1  0  0  0
 85161  1  0  0  0
 86162  1  0  0  0
 87163  1  0  0  0
 87164  1  0  0  0
M  CHG  1  87   1
M  ISO  4   1 100  68 101  80 101  86 100
M  END
> <chiral flag>
0

> <version>
0

> <s_m_source_file>
/data/baiqing/PycharmProjects/Reinvent-master-3.2/result/LINK_invent/BTK/process_docking_weight1_custom_sum_contain_oxygen_bond_distance_aromatic_linkinvent_7_9_3/rearranged_h_0186.sdf

> <i_m_source_file_index>
93

> <r_mmod_Potential_Energy-OPLS-2005>
-471.737548828125

> <r_mmod_Stretch_Energy-OPLS-2005>
62.6321334838867

> <r_mmod_Bend_Energy-OPLS-2005>
148.9990234375

> <r_mmod_Torsional_Energy-OPLS-2005>
337.424835205078

> <r_mmod_Improper_Torsional_Energy-OPLS-2005>
12.1803169250488

> <r_mmod_Van_der_Waal_Energy-OPLS-2005>
148.964019775391

> <r_mmod_Electrostatic_Energy-OPLS-2005>
-684.165344238281

> <r_mmod_Solvation_Energy-OPLS-2005>
-528.044494628906

> <b_mmod_Minimization_Converged-OPLS-2005>
0

> <r_mmod_RMS_Derivative-OPLS-2005>
2.70098447799683

$$$$
95
                    3D
 Structure written by MMmdl.
152161  0  0  1  0            999 V2000
  -30.2924  -15.7052   20.3273 C   0  0  0  0  0  0
  -30.4156  -13.1461   19.5123 C   0  0  0  0  0  0
  -29.5460  -12.6657   18.3149 C   0  0  0  0  0  0
  -28.1290  -12.2920   18.7745 C   0  0  0  0  0  0
  -27.5899  -13.3118   19.8017 C   0  0  2  0  0  0
  -28.6077  -13.6916   20.9036 C   0  0  0  0  0  0
  -25.2330  -13.8295   20.5818 C   0  0  0  0  0  0
  -24.1715  -13.0438   20.9288 C   0  0  0  0  0  0
  -24.6418  -11.6948   20.8761 C   0  0  0  0  0  0
  -23.9117  -10.4294   21.0393 C   0  0  0  0  0  0
  -24.3652   -9.4208   21.9177 C   0  0  0  0  0  0
  -23.6311   -8.2250   22.0754 C   0  0  0  0  0  0
  -22.4290   -8.0289   21.3546 C   0  0  0  0  0  0
  -21.9935   -9.0264   20.4646 C   0  0  0  0  0  0
  -22.7281  -10.2135   20.3048 C   0  0  0  0  0  0
  -21.6860   -6.0741   22.5279 C   0  0  0  0  0  0
  -21.4023   -6.5643   23.8212 C   0  0  0  0  0  0
  -21.3663   -5.6795   24.9175 C   0  0  0  0  0  0
  -21.6043   -4.3057   24.7226 C   0  0  0  0  0  0
  -21.8817   -3.8148   23.4346 C   0  0  0  0  0  0
  -21.9193   -4.6967   22.3403 C   0  0  0  0  0  0
  -22.7726  -13.5166   21.1916 C   0  0  0  0  0  0
  -22.1661   -4.2153   21.0981 F   0  0  0  0  0  0
  -21.5624   -3.4540   25.7738 F   0  0  0  0  0  0
  -29.7529  -14.3408   20.2159 N   0  0  0  0  0  0
  -26.2770  -12.9624   20.3237 N   0  0  0  0  0  0
  -25.9365  -11.6692   20.5689 N   0  0  0  0  0  0
  -22.0389  -12.8145   22.0469 N   0  0  0  0  0  0
  -25.3951  -15.2041   20.4299 N   0  0  0  0  0  0
  -31.5367  -15.5858   20.3044 O   0  0  0  0  0  0
  -21.6648   -6.8888   21.4243 O   0  0  0  0  0  0
  -22.3402  -14.5463   20.6750 O   0  0  0  0  0  0
  -24.6889  -31.7943   23.1474 C   0  0  0  0  0  0
  -25.9445  -32.4440   23.8038 C   0  0  1  0  0  0
  -27.2251  -26.6442   20.2301 C   0  0  0  0  0  0
  -25.6003  -33.8267   24.1924 N   0  0  0  0  0  0
  -23.5172  -30.3937   21.5034 C   0  0  2  0  0  0
  -24.9731  -28.7190   20.1292 C   0  0  0  0  0  0
  -22.7786  -29.4285   22.4707 C   0  0  0  0  0  0
  -18.0340  -28.1420   22.8453 C   0  0  0  0  0  0
  -24.1498  -36.7144   23.2652 C   0  0  0  0  0  0
  -26.1005  -30.5095   21.4191 C   0  0  0  0  0  0
  -26.1658  -29.0653   20.7759 C   0  0  0  0  0  0
  -27.2779  -28.0610   20.7846 C   0  0  0  0  0  0
  -25.9953  -26.5191   19.5319 C   0  0  0  0  0  0
  -24.9297  -27.4716   19.4832 C   0  0  0  0  0  0
  -23.7749  -29.6841   20.1430 C   0  0  0  0  0  0
  -25.4149  -36.2880   24.0278 C   0  0  1  0  0  0
  -20.5979  -28.3782   23.1136 C   0  0  2  0  0  0
  -20.6805  -26.9438   22.5402 C   0  0  0  0  0  0
  -19.5781  -26.6367   21.5215 C   0  0  0  0  0  0
  -18.1965  -26.7946   22.1619 C   0  0  0  0  0  0
  -19.1608  -28.8927   23.2773 C   0  0  0  0  0  0
  -18.9509  -30.1509   23.8820 C   0  0  0  0  0  0
  -17.6498  -30.6601   24.0548 C   0  0  0  0  0  0
  -25.9131  -34.9271   23.4941 C   0  0  0  0  0  0
  -16.5389  -29.9081   23.6350 C   0  0  0  0  0  0
  -16.7320  -28.6505   23.0365 C   0  0  0  0  0  0
  -26.4607  -31.6492   25.0678 C   0  0  0  0  0  0
  -25.3660  -31.3825   26.1285 C   0  0  0  0  0  0
  -27.0543  -30.2823   24.6611 C   0  0  0  0  0  0
  -27.6050  -32.4362   25.7498 C   0  0  0  0  0  0
  -27.5566  -37.1728   24.8463 C   0  0  0  0  0  0
  -21.4429  -29.3022   22.3454 N   0  0  0  0  0  0
  -26.4271  -37.3647   23.9407 N   0  0  0  0  0  0
  -24.7932  -30.9334   22.0759 N   0  0  0  0  0  0
  -23.4207  -28.7894   23.3076 O   0  0  0  0  0  0
  -28.2088  -25.4224   20.2041 O   0  0  0  0  0  0
  -26.5773  -34.8858   22.4561 O   0  0  0  0  0  0
  -23.5896  -32.1041   23.6394 O   0  0  0  0  0  0
  -29.0053  -20.4151   19.7381 C   0  0  0  0  0  0
  -28.9721  -19.9227   18.4042 C   0  0  0  0  0  0
  -28.7390  -22.0849   19.7398 C   0  0  0  0  0  0
  -29.1009  -21.9816   17.4265 C   0  0  0  0  0  0
  -29.3650  -18.8139   20.6197 C   0  0  0  0  0  0
  -28.7270  -18.4366   18.0699 C   0  0  0  0  0  0
  -29.7337  -17.3980   18.6284 C   0  0  0  0  0  0
  -29.2904  -22.7816   16.1559 C   0  0  0  0  0  0
  -28.1448  -23.6624   20.5491 C   0  0  0  0  0  0
  -29.0657  -20.6786   17.3053 N   0  0  0  0  0  0
  -28.9102  -22.6581   18.5326 N   0  0  0  0  0  0
  -29.6055  -17.1185   20.0696 N   0  0  0  0  0  0
  -31.3964  -13.4282   19.1276 H   0  0  0  0  0  0
  -30.6087  -12.3291   20.2097 H   0  0  0  0  0  0
  -30.0174  -11.8200   17.8124 H   0  0  0  0  0  0
  -29.4850  -13.4664   17.5760 H   0  0  0  0  0  0
  -28.1770  -11.3045   19.2356 H   0  0  0  0  0  0
  -27.4557  -12.2030   17.9211 H   0  0  0  0  0  0
  -27.4340  -14.2166   19.2116 H   0  0  0  0  0  0
  -28.8988  -12.8311   21.5082 H   0  0  0  0  0  0
  -28.1610  -14.4136   21.5889 H   0  0  0  0  0  0
  -25.2794   -9.5683   22.4757 H   0  0  0  0  0  0
  -24.0015   -7.4644   22.7478 H   0  0  0  0  0  0
  -21.0866   -8.8790   19.8951 H   0  0  0  0  0  0
  -22.3740  -10.9674   19.6156 H   0  0  0  0  0  0
  -21.2025   -7.6153   23.9718 H   0  0  0  0  0  0
  -21.1485   -6.0526   25.9077 H   0  0  0  0  0  0
  -22.0591   -2.7610   23.2845 H   0  0  0  0  0  0
  -22.4034  -11.9832   22.4880 H   0  0  0  0  0  0
  -21.0994  -13.1138   22.2658 H   0  0  0  0  0  0
  -24.6288  -15.8563   20.5550 H   0  0  0  0  0  0
  -26.2526  -15.6513   20.1322 H   0  0  0  0  0  0
  -26.7529  -32.4901   23.0751 H   0  0  0  0  0  0
  -25.0062  -33.9296   25.0017 H   0  0  0  0  0  0
  -22.8454  -31.2322   21.3077 H   0  0  0  0  0  0
  -23.3779  -35.9452   23.3254 H   0  0  0  0  0  0
  -24.3566  -36.8868   22.2079 H   0  0  0  0  0  0
  -23.7239  -37.6299   23.6770 H   0  0  0  0  0  0
  -26.3061  -31.2288   20.6252 H   0  0  0  0  0  0
  -26.9507  -30.5833   22.0848 H   0  0  0  0  0  0
  -28.1851  -28.3439   21.3001 H   0  0  0  0  0  0
  -25.8240  -25.5828   19.0191 H   0  0  0  0  0  0
  -24.0323  -27.1974   18.9458 H   0  0  0  0  0  0
  -23.9598  -30.4401   19.3786 H   0  0  0  0  0  0
  -22.8778  -29.1556   19.8161 H   0  0  0  0  0  0
  -25.1360  -36.1637   25.0768 H   0  0  0  0  0  0
  -21.0055  -28.3406   24.1265 H   0  0  0  0  0  0
  -20.5662  -26.2407   23.3666 H   0  0  0  0  0  0
  -21.6667  -26.7372   22.1226 H   0  0  0  0  0  0
  -19.6937  -25.6257   21.1296 H   0  0  0  0  0  0
  -19.6726  -27.3134   20.6710 H   0  0  0  0  0  0
  -17.4234  -26.6685   21.4023 H   0  0  0  0  0  0
  -18.0354  -26.0108   22.9034 H   0  0  0  0  0  0
  -19.7984  -30.7345   24.2157 H   0  0  0  0  0  0
  -17.5046  -31.6274   24.5163 H   0  0  0  0  0  0
  -15.5386  -30.2955   23.7714 H   0  0  0  0  0  0
  -15.8723  -28.0794   22.7123 H   0  0  0  0  0  0
  -24.5866  -30.7155   25.7578 H   0  0  0  0  0  0
  -24.8828  -32.3053   26.4504 H   0  0  0  0  0  0
  -25.7824  -30.9117   27.0199 H   0  0  0  0  0  0
  -26.3265  -29.6425   24.1611 H   0  0  0  0  0  0
  -27.3957  -29.7288   25.5367 H   0  0  0  0  0  0
  -27.9253  -30.3933   24.0151 H   0  0  0  0  0  0
  -27.2586  -33.3737   26.1859 H   0  0  0  0  0  0
  -28.3971  -32.6805   25.0408 H   0  0  0  0  0  0
  -28.0597  -31.8638   26.5593 H   0  0  0  0  0  0
  -28.2541  -38.0062   24.7520 H   0  0  0  0  0  0
  -28.1106  -36.2585   24.6278 H   0  0  0  0  0  0
  -27.2281  -37.1349   25.8864 H   0  0  0  0  0  0
  -20.9742  -29.8677   21.6512 H   0  0  0  0  0  0
  -26.0094  -38.2691   24.1424 H   0  0  0  0  0  0
  -28.5720  -18.7350   21.3640 H   0  0  0  0  0  0
  -30.2577  -19.0270   21.2089 H   0  0  0  0  0  0
  -28.7091  -18.3220   16.9846 H   0  0  0  0  0  0
  -27.7177  -18.1789   18.3931 H   0  0  0  0  0  0
  -30.7536  -17.7153   18.4051 H   0  0  0  0  0  0
  -29.5725  -16.4750   18.0670 H   0  0  0  0  0  0
  -30.1820  -22.4496   15.6242 H   0  0  0  0  0  0
  -29.4034  -23.8455   16.3663 H   0  0  0  0  0  0
  -28.4310  -22.6573   15.4972 H   0  0  0  0  0  0
  -28.5546  -23.5910   21.5563 H   0  0  0  0  0  0
  -27.0802  -23.4779   20.6928 H   0  0  0  0  0  0
  1 25  1  0  0  0
  1 30  2  0  0  0
  1 82  1  0  0  0
  2  3  1  0  0  0
  2 25  1  0  0  0
  2 83  1  0  0  0
  2 84  1  0  0  0
  3  4  1  0  0  0
  3 85  1  0  0  0
  3 86  1  0  0  0
  4  5  1  0  0  0
  4 87  1  0  0  0
  4 88  1  0  0  0
  5  6  1  0  0  0
  5 26  1  0  0  0
  5 89  1  0  0  0
  6 25  1  0  0  0
  6 90  1  0  0  0
  6 91  1  0  0  0
  7  8  2  0  0  0
  7 26  1  0  0  0
  7 29  1  0  0  0
  8  9  1  0  0  0
  8 22  1  0  0  0
  9 10  1  0  0  0
  9 27  2  0  0  0
 10 11  2  0  0  0
 10 15  1  0  0  0
 11 12  1  0  0  0
 11 92  1  0  0  0
 12 13  2  0  0  0
 12 93  1  0  0  0
 13 14  1  0  0  0
 13 31  1  0  0  0
 14 15  2  0  0  0
 14 94  1  0  0  0
 15 95  1  0  0  0
 16 17  2  0  0  0
 16 21  1  0  0  0
 16 31  1  0  0  0
 17 18  1  0  0  0
 17 96  1  0  0  0
 18 19  2  0  0  0
 18 97  1  0  0  0
 19 20  1  0  0  0
 19 24  1  0  0  0
 20 21  2  0  0  0
 20 98  1  0  0  0
 21 23  1  0  0  0
 22 28  1  0  0  0
 22 32  2  0  0  0
 26 27  1  0  0  0
 28 99  1  0  0  0
 28100  1  0  0  0
 29101  1  0  0  0
 29102  1  0  0  0
 33 34  1  0  0  0
 33 66  1  0  0  0
 33 70  2  0  0  0
 34 36  1  0  0  0
 34 59  1  0  0  0
 34103  1  0  0  0
 35 44  2  0  0  0
 35 45  1  0  0  0
 35 68  1  0  0  0
 36 56  1  0  0  0
 36104  1  0  0  0
 37 39  1  0  0  0
 37 47  1  0  0  0
 37 66  1  0  0  0
 37105  1  0  0  0
 38 43  2  0  0  0
 38 46  1  0  0  0
 38 47  1  0  0  0
 39 64  1  0  0  0
 39 67  2  0  0  0
 40 52  1  0  0  0
 40 53  2  0  0  0
 40 58  1  0  0  0
 41106  1  0  0  0
 41107  1  0  0  0
 41108  1  0  0  0
 41 48  1  0  0  0
 42 43  1  0  0  0
 42 66  1  0  0  0
 42109  1  0  0  0
 42110  1  0  0  0
 43 44  1  0  0  0
 44111  1  0  0  0
 45 46  2  0  0  0
 45112  1  0  0  0
 46113  1  0  0  0
 47114  1  0  0  0
 47115  1  0  0  0
 48 56  1  0  0  0
 48 65  1  0  0  0
 48116  1  0  0  0
 49 50  1  0  0  0
 49 53  1  0  0  0
 49 64  1  0  0  0
 49117  1  0  0  0
 50 51  1  0  0  0
 50118  1  0  0  0
 50119  1  0  0  0
 51 52  1  0  0  0
 51120  1  0  0  0
 51121  1  0  0  0
 52122  1  0  0  0
 52123  1  0  0  0
 53 54  1  0  0  0
 54 55  2  0  0  0
 54124  1  0  0  0
 55 57  1  0  0  0
 55125  1  0  0  0
 56 69  2  0  0  0
 57 58  2  0  0  0
 57126  1  0  0  0
 58127  1  0  0  0
 59 60  1  0  0  0
 59 61  1  0  0  0
 59 62  1  0  0  0
 60128  1  0  0  0
 60129  1  0  0  0
 60130  1  0  0  0
 61131  1  0  0  0
 61132  1  0  0  0
 61133  1  0  0  0
 62134  1  0  0  0
 62135  1  0  0  0
 62136  1  0  0  0
 63 65  1  0  0  0
 63137  1  0  0  0
 63138  1  0  0  0
 63139  1  0  0  0
 64140  1  0  0  0
 65141  1  0  0  0
 68 79  1  0  0  0
 71 72  2  0  0  0
 71 73  1  0  0  0
 71 75  1  0  0  0
 72 76  1  0  0  0
 72 80  1  0  0  0
 73 79  1  0  0  0
 73 81  2  0  0  0
 74 78  1  0  0  0
 74 80  2  0  0  0
 74 81  1  0  0  0
 75 82  1  0  0  0
 75142  1  0  0  0
 75143  1  0  0  0
 76 77  1  0  0  0
 76144  1  0  0  0
 76145  1  0  0  0
 77 82  1  0  0  0
 77146  1  0  0  0
 77147  1  0  0  0
 78148  1  0  0  0
 78149  1  0  0  0
 78150  1  0  0  0
 79151  1  0  0  0
 79152  1  0  0  0
M  ISO  4   1 100  68 101  79 101  82 100
M  END
> <chiral flag>
0

> <version>
0

> <s_m_source_file>
/data/baiqing/PycharmProjects/Reinvent-master-3.2/result/LINK_invent/BTK/process_docking_weight1_custom_sum_contain_oxygen_bond_distance_aromatic_linkinvent_7_9_3/rearranged_h_0186.sdf

> <i_m_source_file_index>
94

> <r_mmod_Potential_Energy-OPLS-2005>
2705.54028320312

> <r_mmod_Stretch_Energy-OPLS-2005>
1240.0791015625

> <r_mmod_Bend_Energy-OPLS-2005>
806.226928710938

> <r_mmod_Torsional_Energy-OPLS-2005>
359.94140625

> <r_mmod_Improper_Torsional_Energy-OPLS-2005>
17.4206199645996

> <r_mmod_Van_der_Waal_Energy-OPLS-2005>
140.080581665039

> <r_mmod_Electrostatic_Energy-OPLS-2005>
-628.447021484375

> <r_mmod_Solvation_Energy-OPLS-2005>
-238.142547607422

> <b_mmod_Minimization_Converged-OPLS-2005>
0

> <r_mmod_RMS_Derivative-OPLS-2005>
0.598676323890686

$$$$
